#------------------------------------------------------------------------------
#$Date: 2020-10-04 05:48:35 +0300 (Sun, 04 Oct 2020) $
#$Revision: 257002 $
#$URL: file:///home/coder/svn-repositories/cod/cif/4/51/77/4517778.cif $
#------------------------------------------------------------------------------
#
# This file is available in the Crystallography Open Database (COD),
# http://www.crystallography.net/
#
# All data on this site have been placed in the public domain by the
# contributors.
#
data_4517778
loop_
_publ_author_name
'Liu, Wentan'
'Yang, Wu'
'Zhu, Jiefeng'
'Guo, Yonghong'
'Wang, Na'
'Ke, Jie'
'Yu, Peiyuan'
'He, Chuan'
_publ_section_title
;
 Dual-Ligand-Enabled Ir(III)-Catalyzed Enantioselective C--H Amidation for
 the Synthesis of Chiral Sulfoxides
;
_journal_issue                   13
_journal_name_full               'ACS Catalysis'
_journal_page_first              7207
_journal_page_last               7215
_journal_paper_doi               10.1021/acscatal.0c02109
_journal_volume                  10
_journal_year                    2020
_chemical_formula_moiety         'C26 H42 Cl4 Ir2'
_chemical_formula_sum            'C26 H42 Cl4 Ir2'
_chemical_formula_weight         880.79
_space_group_crystal_system      triclinic
_space_group_IT_number           2
_space_group_name_Hall           '-P 1'
_space_group_name_H-M_alt        'P -1'
_atom_sites_solution_hydrogens   geom
_atom_sites_solution_primary     dual
_audit_creation_date             2019-09-24
_audit_creation_method
;
Olex2 1.2
(compiled 2018.05.29 svn.r3508 for OlexSys, GUI svn.r5506)
;
_cell_angle_alpha                102.865(2)
_cell_angle_beta                 98.989(2)
_cell_angle_gamma                100.722(2)
_cell_formula_units_Z            1
_cell_length_a                   8.3494(5)
_cell_length_b                   9.1549(6)
_cell_length_c                   9.6175(6)
_cell_measurement_reflns_used    9769
_cell_measurement_temperature    100
_cell_measurement_theta_max      30.61
_cell_measurement_theta_min      2.34
_cell_volume                     689.02(8)
_computing_cell_refinement       'SAINT V8.38A (?, 2016)'
_computing_data_reduction        'SAINT V8.38A (?, 2016)'
_computing_molecular_graphics    'Olex2 (Dolomanov et al., 2009)'
_computing_publication_material  'Olex2 (Dolomanov et al., 2009)'
_computing_structure_refinement  'ShelXL (Sheldrick, 2015)'
_computing_structure_solution    'ShelXT (Sheldrick, 2015)'
_diffrn_ambient_temperature      100
_diffrn_detector                 'Bruker PHOTON 100 area detector'
_diffrn_detector_area_resol_mean 7.9
_diffrn_detector_type            'CMOS area detector'
_diffrn_measured_fraction_theta_full 0.997
_diffrn_measured_fraction_theta_max 0.995
_diffrn_measurement_device       'three-circle diffractometer'
_diffrn_measurement_device_type  'Bruker CMOS area detector'
_diffrn_measurement_method       '\w and \f scans'
_diffrn_radiation_monochromator  'mirror optics'
_diffrn_radiation_probe          x-ray
_diffrn_radiation_type           MoK\a
_diffrn_radiation_wavelength     0.71073
_diffrn_reflns_av_R_equivalents  0.0648
_diffrn_reflns_av_unetI/netI     0.0391
_diffrn_reflns_Laue_measured_fraction_full 0.997
_diffrn_reflns_Laue_measured_fraction_max 0.995
_diffrn_reflns_limit_h_max       11
_diffrn_reflns_limit_h_min       -11
_diffrn_reflns_limit_k_max       13
_diffrn_reflns_limit_k_min       -13
_diffrn_reflns_limit_l_max       13
_diffrn_reflns_limit_l_min       -13
_diffrn_reflns_number            23290
_diffrn_reflns_point_group_measured_fraction_full 0.997
_diffrn_reflns_point_group_measured_fraction_max 0.995
_diffrn_reflns_theta_full        25.242
_diffrn_reflns_theta_max         30.611
_diffrn_reflns_theta_min         2.220
_diffrn_source                   'microfocus sealed X-ray tube'
_diffrn_source_type              'Incoatec I\ms'
_diffrn_standards_number         0
_exptl_absorpt_coefficient_mu    10.049
_exptl_absorpt_correction_T_max  0.7461
_exptl_absorpt_correction_T_min  0.2070
_exptl_absorpt_correction_type   multi-scan
_exptl_absorpt_process_details
'SADABS-2016/2 (Bruker,2016/2) was used for absorption correction. wR2(int) was 0.1728 before and 0.1028 after correction. The Ratio of minimum to maximum transmission is 0.2774. The \l/2 correction factor is Not present.'
_exptl_crystal_colour            orange
_exptl_crystal_colour_primary    orange
_exptl_crystal_density_diffrn    2.123
_exptl_crystal_description       block
_exptl_crystal_F_000             420
_exptl_crystal_size_max          0.31
_exptl_crystal_size_mid          0.29
_exptl_crystal_size_min          0.28
_refine_diff_density_max         3.959
_refine_diff_density_min         -2.123
_refine_diff_density_rms         0.282
_refine_ls_extinction_coef       0.0081(10)
_refine_ls_extinction_expression Fc^*^=kFc[1+0.001xFc^2^\l^3^/sin(2\q)]^-1/4^
_refine_ls_extinction_method     'SHELXL-2018/3 (Sheldrick 2018)'
_refine_ls_goodness_of_fit_ref   1.095
_refine_ls_hydrogen_treatment    constr
_refine_ls_matrix_type           full
_refine_ls_number_parameters     153
_refine_ls_number_reflns         4221
_refine_ls_number_restraints     0
_refine_ls_restrained_S_all      1.095
_refine_ls_R_factor_all          0.0323
_refine_ls_R_factor_gt           0.0313
_refine_ls_shift/su_max          0.002
_refine_ls_shift/su_mean         0.000
_refine_ls_structure_factor_coef Fsqd
_refine_ls_weighting_details
'w=1/[\s^2^(Fo^2^)+(0.0497P)^2^+3.1816P] where P=(Fo^2^+2Fc^2^)/3'
_refine_ls_weighting_scheme      calc
_refine_ls_wR_factor_gt          0.0860
_refine_ls_wR_factor_ref         0.0867
_reflns_Friedel_coverage         0.000
_reflns_number_gt                4117
_reflns_number_total             4221
_reflns_threshold_expression     'I > 2\s(I)'
_iucr_refine_instructions_details
;
TITL cxy0934_0m_a.res in P-1
    cxy0934_0m.res
    created by SHELXL-2018/3 at 15:16:47 on 24-Sep-2019
CELL 0.71073 8.3494 9.1549 9.6175 102.865 98.989 100.722
ZERR 1 0.0005 0.0006 0.0006 0.002 0.002 0.002
LATT 1
SFAC C H Cl Ir
UNIT 26 42 4 2

L.S. 10
PLAN  -20
SIZE 0.28 0.29 0.31
TEMP -173
BOND $H
CONF
fmap 2
acta
OMIT 0 -1 1
OMIT 0 1 0
REM <olex2.extras>
REM <HklSrc "%.\\cxy0934_0m.hkl">
REM </olex2.extras>

WGHT    0.049700    3.181600
EXTI    0.008074
FVAR       0.55482
IR1   4    0.316515    0.400210    0.849706    11.00000    0.00677    0.00770 =
         0.00710   -0.00003    0.00083   -0.00107
CL2   3    0.303983    0.647092    0.811262    11.00000    0.01680    0.00943 =
         0.01730    0.00255    0.00266   -0.00038
CL1   3    0.619188    0.479928    0.886906    11.00000    0.00888    0.01677 =
         0.00873   -0.00198    0.00171   -0.00166
C2    1    0.087583    0.280517    0.699565    11.00000    0.00631    0.01045 =
         0.01206    0.00164   -0.00166   -0.00102
C11   1    0.204594    0.066146    0.400738    11.00000    0.03362    0.01312 =
         0.00948   -0.00289    0.00318   -0.00331
AFIX 137
H11A  2    0.082813    0.042336    0.386136    11.00000   -1.50000
H11B  2    0.248343   -0.007183    0.447470    11.00000   -1.50000
H11C  2    0.237112    0.058565    0.306248    11.00000   -1.50000
AFIX   0
C1    1    0.229228    0.232619    0.646280    11.00000    0.01229    0.00922 =
         0.00766    0.00213    0.00208    0.00030
C5    1    0.304897    0.159959    0.753938    11.00000    0.00876    0.00913 =
         0.01388    0.00308    0.00158    0.00029
C3    1    0.084895    0.249466    0.839845    11.00000    0.00969    0.00947 =
         0.01424    0.00261    0.00242   -0.00096
C7    1    0.255585    0.111527    1.001564    11.00000    0.02244    0.01636 =
         0.01516    0.00740   -0.00030   -0.00115
AFIX 137
H7A   2    0.177911    0.133997    1.065613    11.00000   -1.50000
H7B   2    0.369925    0.161153    1.054435    11.00000   -1.50000
H7C   2    0.244134   -0.000024    0.970323    11.00000   -1.50000
AFIX   0
C10   1    0.275936    0.230288    0.498482    11.00000    0.01864    0.01286 =
         0.00814    0.00350    0.00197    0.00027
C12   1    0.202532    0.342344    0.424268    11.00000    0.03161    0.02080 =
         0.01189    0.00591    0.00496    0.00597
AFIX 137
H12A  2    0.081168    0.305800    0.395398    11.00000   -1.50000
H12B  2    0.249133    0.347924    0.337674    11.00000   -1.50000
H12C  2    0.230476    0.444780    0.492397    11.00000   -1.50000
AFIX   0
C13   1    0.464768    0.275147    0.510870    11.00000    0.01949    0.03085 =
         0.01664    0.00377    0.00851    0.00047
AFIX 137
H13A  2    0.488778    0.276111    0.414497    11.00000   -1.50000
H13B  2    0.516647    0.200246    0.548447    11.00000   -1.50000
H13C  2    0.509667    0.377780    0.577590    11.00000   -1.50000
AFIX   0
C6    1    0.446632    0.081011    0.753159    11.00000    0.01865    0.01813 =
         0.02276    0.00592    0.00397    0.01074
AFIX 137
H6A   2    0.461138    0.039786    0.838837    11.00000   -1.50000
H6B   2    0.548985    0.154978    0.755668    11.00000   -1.50000
H6C   2    0.422549   -0.003409    0.664464    11.00000   -1.50000
AFIX   0
C8    1   -0.037872    0.279261    0.933531    11.00000    0.01338    0.01579 =
         0.01938    0.00015    0.00719   -0.00140
AFIX 137
H8A   2   -0.072316    0.373855    0.924098    11.00000   -1.50000
H8B   2    0.013461    0.290872    1.035405    11.00000   -1.50000
H8C   2   -0.135506    0.192653    0.902709    11.00000   -1.50000
AFIX   0
C4    1    0.217130    0.171703    0.870892    11.00000    0.01421    0.01021 =
         0.01221    0.00397    0.00287    0.00034
C9    1   -0.039195    0.354508    0.630354    11.00000    0.00982    0.01397 =
         0.01938    0.00389   -0.00562    0.00067
AFIX 137
H9A   2    0.018028    0.441265    0.599011    11.00000   -1.50000
H9B   2   -0.104453    0.391667    0.701333    11.00000   -1.50000
H9C   2   -0.113626    0.278720    0.545696    11.00000   -1.50000
AFIX   0
HKLF 4




REM  cxy0934_0m_a.res in P-1
REM wR2 = 0.0867, GooF = S = 1.095, Restrained GooF = 1.095 for all data
REM R1 = 0.0313 for 4117 Fo > 4sig(Fo) and 0.0323 for all 4221 data
REM 153 parameters refined using 0 restraints

END  
     
WGHT      0.0497      3.1816 

REM Highest difference peak  3.959,  deepest hole -2.123,  1-sigma level  0.282
Q1    1   0.2744  0.3167  0.8152  11.00000  0.05    3.96
Q2    1   0.3606  0.4880  0.8856  11.00000  0.05    3.20
Q3    1   0.3834  0.3565  0.8429  11.00000  0.05    2.77
Q4    1   0.2491  0.4396  0.8564  11.00000  0.05    2.43
Q5    1   0.2855  0.4657  0.9176  11.00000  0.05    2.43
Q6    1   0.3324  0.3262  0.7656  11.00000  0.05    2.32
Q7    1   0.2792  0.3679  0.9190  11.00000  0.05    1.55
Q8    1   0.3549  0.4358  0.7866  11.00000  0.05    1.43
Q9    1   0.1870  0.2748  0.7398  11.00000  0.05    1.38
Q10   1   0.2505  0.5424  0.8959  11.00000  0.05    1.17
Q11   1   0.3760  0.2609  0.8056  11.00000  0.05    1.15
Q12   1   0.2022  0.5130  0.9264  11.00000  0.05    1.11
Q13   1   0.3608  0.5860  0.8203  11.00000  0.05    1.02
Q14   1   0.3132  0.3676  0.6888  11.00000  0.05    1.02
Q15   1   0.4019 -0.0116  0.7525  11.00000  0.05    1.01
Q16   1   0.2871  0.3666  0.7164  11.00000  0.05    1.00
Q17   1  -0.0210  0.3779  0.5075  11.00000  0.05    0.96
Q18   1   0.1744  0.1229  1.1131  11.00000  0.05    0.94
Q19   1   0.2493  0.5618  0.7814  11.00000  0.05    0.94
Q20   1   0.0309  0.1871  0.4890  11.00000  0.05    0.92

  REM The information below was added by Olex2.
  REM
  REM R1 = 0.0313 for 4117 Fo > 4sig(Fo) and 0.0323 for all 23294 data
  REM n/a parameters refined using n/a restraints
  REM Highest difference peak 3.96, deepest hole -2.12
  REM Mean Shift 0, Max Shift 0.002.

  REM +++ Tabular Listing of Refinement Information +++
  REM R1_all = 0.0323
  REM R1_gt = 0.0313
  REM wR_ref = 0.0867
  REM GOOF = 1.095
  REM Shift_max = 0.002
  REM Shift_mean = 0
  REM Reflections_all = 23294
  REM Reflections_gt = 4117
  REM Parameters = n/a
  REM Hole = -2.12
  REM Peak = 3.96
  REM Flack = n/a

  
;
_cod_data_source_file            cs0c02109_si_004.cif
_cod_data_source_block           cxy0934_0m
_cod_depositor_comments
;Adding full bibliography for 4517774--4517778.cif.

 Adding full bibliography for 4517774--4517778.cif.
;
_cod_database_code               4517778
_shelx_shelxl_version_number     2018/3
_shelx_space_group_comment
;
The symmetry employed for this shelxl refinement is uniquely defined
by the following loop, which should always be used as a source of
symmetry information in preference to the above space-group names.
They are only intended as comments.
;
_shelx_estimated_absorpt_t_max   0.165
_shelx_estimated_absorpt_t_min   0.147
_olex2_refinement_description
;
1. Fixed Uiso
 At 1.5 times of:
  All C(H,H,H) groups
2.a Idealised Me refined as rotating group:
 C11(H11A,H11B,H11C), C7(H7A,H7B,H7C), C12(H12A,H12B,H12C), C13(H13A,H13B,
 H13C), C6(H6A,H6B,H6C), C8(H8A,H8B,H8C), C9(H9A,H9B,H9C)
;
_olex2_submission_special_instructions 'No special instructions were received'
loop_
_space_group_symop_operation_xyz
'x, y, z'
'-x, -y, -z'
loop_
_atom_site_label
_atom_site_type_symbol
_atom_site_fract_x
_atom_site_fract_y
_atom_site_fract_z
_atom_site_U_iso_or_equiv
_atom_site_adp_type
_atom_site_occupancy
_atom_site_site_symmetry_order
_atom_site_calc_flag
_atom_site_refinement_flags_posn
_atom_site_refinement_flags_adp
_atom_site_refinement_flags_occupancy
_atom_site_disorder_assembly
_atom_site_disorder_group
Ir1 Ir 0.31651(2) 0.40021(2) 0.84971(2) 0.00795(8) Uani 1 1 d . . . . .
Cl2 Cl 0.30398(14) 0.64709(12) 0.81126(12) 0.0152(2) Uani 1 1 d . . . . .
Cl1 Cl 0.61919(13) 0.47993(13) 0.88691(11) 0.01297(19) Uani 1 1 d . . . . .
C2 C 0.0876(5) 0.2805(5) 0.6996(5) 0.0106(7) Uani 1 1 d . . . . .
C11 C 0.2046(8) 0.0661(6) 0.4007(5) 0.0210(10) Uani 1 1 d . . . . .
H11A H 0.082813 0.042336 0.386136 0.032 Uiso 1 1 calc GR . . . .
H11B H 0.248343 -0.007183 0.447470 0.032 Uiso 1 1 calc GR . . . .
H11C H 0.237112 0.058565 0.306248 0.032 Uiso 1 1 calc GR . . . .
C1 C 0.2292(5) 0.2326(5) 0.6463(5) 0.0100(7) Uani 1 1 d . . . . .
C5 C 0.3049(5) 0.1600(5) 0.7539(5) 0.0109(7) Uani 1 1 d . . . . .
C3 C 0.0849(5) 0.2495(5) 0.8398(5) 0.0116(7) Uani 1 1 d . . . . .
C7 C 0.2556(7) 0.1115(6) 1.0016(5) 0.0187(9) Uani 1 1 d . . . . .
H7A H 0.177911 0.133997 1.065613 0.028 Uiso 1 1 calc GR . . . .
H7B H 0.369925 0.161153 1.054435 0.028 Uiso 1 1 calc GR . . . .
H7C H 0.244134 -0.000024 0.970323 0.028 Uiso 1 1 calc GR . . . .
C10 C 0.2759(6) 0.2303(5) 0.4985(5) 0.0136(8) Uani 1 1 d . . . . .
C12 C 0.2025(7) 0.3423(6) 0.4243(5) 0.0211(10) Uani 1 1 d . . . . .
H12A H 0.081168 0.305800 0.395398 0.032 Uiso 1 1 calc GR . . . .
H12B H 0.249133 0.347924 0.337674 0.032 Uiso 1 1 calc GR . . . .
H12C H 0.230476 0.444780 0.492397 0.032 Uiso 1 1 calc GR . . . .
C13 C 0.4648(7) 0.2751(7) 0.5109(6) 0.0229(10) Uani 1 1 d . . . . .
H13A H 0.488778 0.276111 0.414497 0.034 Uiso 1 1 calc GR . . . .
H13B H 0.516647 0.200246 0.548447 0.034 Uiso 1 1 calc GR . . . .
H13C H 0.509667 0.377780 0.577590 0.034 Uiso 1 1 calc GR . . . .
C6 C 0.4466(6) 0.0810(6) 0.7532(6) 0.0189(9) Uani 1 1 d . . . . .
H6A H 0.461138 0.039786 0.838837 0.028 Uiso 1 1 calc GR . . . .
H6B H 0.548985 0.154978 0.755668 0.028 Uiso 1 1 calc GR . . . .
H6C H 0.422549 -0.003409 0.664464 0.028 Uiso 1 1 calc GR . . . .
C8 C -0.0379(6) 0.2793(6) 0.9335(6) 0.0171(9) Uani 1 1 d . . . . .
H8A H -0.072316 0.373855 0.924098 0.026 Uiso 1 1 calc GR . . . .
H8B H 0.013461 0.290872 1.035405 0.026 Uiso 1 1 calc GR . . . .
H8C H -0.135506 0.192653 0.902709 0.026 Uiso 1 1 calc GR . . . .
C4 C 0.2171(6) 0.1717(5) 0.8709(5) 0.0124(8) Uani 1 1 d . . . . .
C9 C -0.0392(6) 0.3545(6) 0.6304(5) 0.0157(8) Uani 1 1 d . . . . .
H9A H 0.018028 0.441265 0.599011 0.024 Uiso 1 1 calc GR . . . .
H9B H -0.104453 0.391667 0.701333 0.024 Uiso 1 1 calc GR . . . .
H9C H -0.113626 0.278720 0.545696 0.024 Uiso 1 1 calc GR . . . .
loop_
_atom_site_aniso_label
_atom_site_aniso_U_11
_atom_site_aniso_U_22
_atom_site_aniso_U_33
_atom_site_aniso_U_23
_atom_site_aniso_U_13
_atom_site_aniso_U_12
Ir1 0.00677(10) 0.00770(10) 0.00710(10) -0.00003(6) 0.00083(6) -0.00107(6)
Cl2 0.0168(5) 0.0094(4) 0.0173(5) 0.0025(4) 0.0027(4) -0.0004(4)
Cl1 0.0089(4) 0.0168(5) 0.0087(4) -0.0020(3) 0.0017(3) -0.0017(4)
C2 0.0063(16) 0.0105(18) 0.0121(18) 0.0016(14) -0.0017(14) -0.0010(14)
C11 0.034(3) 0.013(2) 0.0095(19) -0.0029(16) 0.0032(18) -0.0033(19)
C1 0.0123(18) 0.0092(17) 0.0077(17) 0.0021(14) 0.0021(14) 0.0003(14)
C5 0.0088(17) 0.0091(17) 0.0139(19) 0.0031(15) 0.0016(14) 0.0003(14)
C3 0.0097(17) 0.0095(18) 0.0142(19) 0.0026(15) 0.0024(14) -0.0010(14)
C7 0.022(2) 0.016(2) 0.015(2) 0.0074(17) -0.0003(17) -0.0012(18)
C10 0.019(2) 0.0129(19) 0.0081(18) 0.0035(15) 0.0020(15) 0.0003(16)
C12 0.032(3) 0.021(2) 0.012(2) 0.0059(18) 0.0050(19) 0.006(2)
C13 0.019(2) 0.031(3) 0.017(2) 0.004(2) 0.0085(18) 0.000(2)
C6 0.019(2) 0.018(2) 0.023(2) 0.0059(18) 0.0040(18) 0.0107(18)
C8 0.013(2) 0.016(2) 0.019(2) 0.0002(17) 0.0072(17) -0.0014(16)
C4 0.0142(19) 0.0102(18) 0.0122(19) 0.0040(15) 0.0029(15) 0.0003(15)
C9 0.0098(18) 0.014(2) 0.019(2) 0.0039(17) -0.0056(15) 0.0007(15)
loop_
_atom_type_symbol
_atom_type_description
_atom_type_scat_dispersion_real
_atom_type_scat_dispersion_imag
_atom_type_scat_source
C C 0.0033 0.0016 'International Tables Vol C Tables 4.2.6.8 and 6.1.1.4'
H H 0.0000 0.0000 'International Tables Vol C Tables 4.2.6.8 and 6.1.1.4'
Cl Cl 0.1484 0.1585 'International Tables Vol C Tables 4.2.6.8 and 6.1.1.4'
Ir Ir -1.4442 7.9887 'International Tables Vol C Tables 4.2.6.8 and 6.1.1.4'
loop_
_geom_angle_atom_site_label_1
_geom_angle_atom_site_label_2
_geom_angle_atom_site_label_3
_geom_angle
_geom_angle_site_symmetry_1
_geom_angle_site_symmetry_3
_geom_angle_publ_flag
Cl2 Ir1 Cl1 87.68(4) . . ?
Cl2 Ir1 Cl1 88.33(4) . 2_667 ?
Cl1 Ir1 Cl1 80.92(4) . 2_667 ?
C2 Ir1 Cl2 95.13(12) . . ?
C2 Ir1 Cl1 146.69(12) . . ?
C2 Ir1 Cl1 132.26(12) . 2_667 ?
C2 Ir1 C5 65.89(17) . . ?
C2 Ir1 C4 65.57(17) . . ?
C1 Ir1 Cl2 108.47(12) . . ?
C1 Ir1 Cl1 161.03(12) . 2_667 ?
C1 Ir1 Cl1 107.82(12) . . ?
C1 Ir1 C2 40.05(16) . . ?
C1 Ir1 C5 40.18(16) . . ?
C1 Ir1 C3 67.44(17) . . ?
C1 Ir1 C4 66.69(17) . . ?
C5 Ir1 Cl2 147.51(12) . . ?
C5 Ir1 Cl1 124.08(12) . 2_667 ?
C5 Ir1 Cl1 94.76(12) . . ?
C5 Ir1 C4 38.56(16) . . ?
C3 Ir1 Cl2 116.53(12) . . ?
C3 Ir1 Cl1 155.75(12) . . ?
C3 Ir1 Cl1 97.52(13) . 2_667 ?
C3 Ir1 C2 39.43(16) . . ?
C3 Ir1 C5 65.89(17) . . ?
C3 Ir1 C4 39.36(17) . . ?
C4 Ir1 Cl2 155.90(13) . . ?
C4 Ir1 Cl1 94.36(12) . 2_667 ?
C4 Ir1 Cl1 116.41(13) . . ?
Ir1 Cl1 Ir1 99.08(4) . 2_667 ?
C1 C2 Ir1 69.3(2) . . ?
C1 C2 C9 129.2(4) . . ?
C3 C2 Ir1 69.9(2) . . ?
C3 C2 C1 109.0(4) . . ?
C3 C2 C9 121.8(4) . . ?
C9 C2 Ir1 125.7(3) . . ?
H11A C11 H11B 109.5 . . ?
H11A C11 H11C 109.5 . . ?
H11B C11 H11C 109.5 . . ?
C10 C11 H11A 109.5 . . ?
C10 C11 H11B 109.5 . . ?
C10 C11 H11C 109.5 . . ?
C2 C1 Ir1 70.7(2) . . ?
C2 C1 C5 105.9(4) . . ?
C2 C1 C10 128.4(4) . . ?
C5 C1 Ir1 71.4(2) . . ?
C5 C1 C10 124.9(4) . . ?
C10 C1 Ir1 130.3(3) . . ?
C1 C5 Ir1 68.5(2) . . ?
C1 C5 C6 130.3(4) . . ?
C6 C5 Ir1 127.5(3) . . ?
C4 C5 Ir1 70.9(3) . . ?
C4 C5 C1 108.7(4) . . ?
C4 C5 C6 121.0(4) . . ?
C2 C3 Ir1 70.7(2) . . ?
C2 C3 C8 127.3(4) . . ?
C2 C3 C4 107.7(4) . . ?
C8 C3 Ir1 126.6(3) . . ?
C4 C3 Ir1 71.7(3) . . ?
C4 C3 C8 124.8(4) . . ?
H7A C7 H7B 109.5 . . ?
H7A C7 H7C 109.5 . . ?
H7B C7 H7C 109.5 . . ?
C4 C7 H7A 109.5 . . ?
C4 C7 H7B 109.5 . . ?
C4 C7 H7C 109.5 . . ?
C11 C10 C12 108.4(4) . . ?
C1 C10 C11 107.0(4) . . ?
C1 C10 C12 112.7(4) . . ?
C1 C10 C13 112.3(4) . . ?
C13 C10 C11 110.2(4) . . ?
C13 C10 C12 106.3(4) . . ?
C10 C12 H12A 109.5 . . ?
C10 C12 H12B 109.5 . . ?
C10 C12 H12C 109.5 . . ?
H12A C12 H12B 109.5 . . ?
H12A C12 H12C 109.5 . . ?
H12B C12 H12C 109.5 . . ?
C10 C13 H13A 109.5 . . ?
C10 C13 H13B 109.5 . . ?
C10 C13 H13C 109.5 . . ?
H13A C13 H13B 109.5 . . ?
H13A C13 H13C 109.5 . . ?
H13B C13 H13C 109.5 . . ?
C5 C6 H6A 109.5 . . ?
C5 C6 H6B 109.5 . . ?
C5 C6 H6C 109.5 . . ?
H6A C6 H6B 109.5 . . ?
H6A C6 H6C 109.5 . . ?
H6B C6 H6C 109.5 . . ?
C3 C8 H8A 109.5 . . ?
C3 C8 H8B 109.5 . . ?
C3 C8 H8C 109.5 . . ?
H8A C8 H8B 109.5 . . ?
H8A C8 H8C 109.5 . . ?
H8B C8 H8C 109.5 . . ?
C5 C4 Ir1 70.6(2) . . ?
C5 C4 C3 108.5(4) . . ?
C5 C4 C7 125.2(4) . . ?
C3 C4 Ir1 68.9(2) . . ?
C3 C4 C7 126.3(4) . . ?
C7 C4 Ir1 126.9(3) . . ?
C2 C9 H9A 109.5 . . ?
C2 C9 H9B 109.5 . . ?
C2 C9 H9C 109.5 . . ?
H9A C9 H9B 109.5 . . ?
H9A C9 H9C 109.5 . . ?
H9B C9 H9C 109.5 . . ?
loop_
_geom_bond_atom_site_label_1
_geom_bond_atom_site_label_2
_geom_bond_distance
_geom_bond_site_symmetry_2
_geom_bond_publ_flag
Ir1 Cl2 2.3883(11) . ?
Ir1 Cl1 2.4417(10) . ?
Ir1 Cl1 2.4550(10) 2_667 ?
Ir1 C2 2.143(4) . ?
Ir1 C1 2.125(4) . ?
Ir1 C5 2.165(4) . ?
Ir1 C3 2.132(4) . ?
Ir1 C4 2.169(4) . ?
C2 C1 1.461(6) . ?
C2 C3 1.442(6) . ?
C2 C9 1.507(6) . ?
C11 H11A 0.9800 . ?
C11 H11B 0.9800 . ?
C11 H11C 0.9800 . ?
C11 C10 1.536(7) . ?
C1 C5 1.474(6) . ?
C1 C10 1.528(6) . ?
C5 C6 1.497(6) . ?
C5 C4 1.431(6) . ?
C3 C8 1.490(6) . ?
C3 C4 1.449(6) . ?
C7 H7A 0.9800 . ?
C7 H7B 0.9800 . ?
C7 H7C 0.9800 . ?
C7 C4 1.495(6) . ?
C10 C12 1.536(7) . ?
C10 C13 1.532(7) . ?
C12 H12A 0.9800 . ?
C12 H12B 0.9800 . ?
C12 H12C 0.9800 . ?
C13 H13A 0.9800 . ?
C13 H13B 0.9800 . ?
C13 H13C 0.9800 . ?
C6 H6A 0.9800 . ?
C6 H6B 0.9800 . ?
C6 H6C 0.9800 . ?
C8 H8A 0.9800 . ?
C8 H8B 0.9800 . ?
C8 H8C 0.9800 . ?
C9 H9A 0.9800 . ?
C9 H9B 0.9800 . ?
C9 H9C 0.9800 . ?
loop_
_geom_torsion_atom_site_label_1
_geom_torsion_atom_site_label_2
_geom_torsion_atom_site_label_3
_geom_torsion_atom_site_label_4
_geom_torsion
_geom_torsion_site_symmetry_1
_geom_torsion_site_symmetry_2
_geom_torsion_site_symmetry_3
_geom_torsion_site_symmetry_4
_geom_torsion_publ_flag
Ir1 C2 C1 C5 63.1(3) . . . . ?
Ir1 C2 C1 C10 -126.6(5) . . . . ?
Ir1 C2 C3 C8 121.9(5) . . . . ?
Ir1 C2 C3 C4 -62.5(3) . . . . ?
Ir1 C1 C5 C6 -121.5(5) . . . . ?
Ir1 C1 C5 C4 59.6(3) . . . . ?
Ir1 C1 C10 C11 167.3(4) . . . . ?
Ir1 C1 C10 C12 -73.7(5) . . . . ?
Ir1 C1 C10 C13 46.3(6) . . . . ?
Ir1 C5 C4 C3 58.7(3) . . . . ?
Ir1 C5 C4 C7 -122.0(5) . . . . ?
Ir1 C3 C4 C5 -59.7(3) . . . . ?
Ir1 C3 C4 C7 121.0(5) . . . . ?
C2 C1 C5 Ir1 -62.6(3) . . . . ?
C2 C1 C5 C6 175.9(5) . . . . ?
C2 C1 C5 C4 -3.0(5) . . . . ?
C2 C1 C10 C11 -95.9(5) . . . . ?
C2 C1 C10 C12 23.1(7) . . . . ?
C2 C1 C10 C13 143.1(5) . . . . ?
C2 C3 C4 Ir1 61.9(3) . . . . ?
C2 C3 C4 C5 2.2(5) . . . . ?
C2 C3 C4 C7 -177.1(4) . . . . ?
C1 C2 C3 Ir1 58.4(3) . . . . ?
C1 C2 C3 C8 -179.7(4) . . . . ?
C1 C2 C3 C4 -4.1(5) . . . . ?
C1 C5 C4 Ir1 -58.1(3) . . . . ?
C1 C5 C4 C3 0.6(5) . . . . ?
C1 C5 C4 C7 179.9(4) . . . . ?
C5 C1 C10 C11 72.7(6) . . . . ?
C5 C1 C10 C12 -168.3(4) . . . . ?
C5 C1 C10 C13 -48.4(6) . . . . ?
C3 C2 C1 Ir1 -58.7(3) . . . . ?
C3 C2 C1 C5 4.4(5) . . . . ?
C3 C2 C1 C10 174.6(4) . . . . ?
C10 C1 C5 Ir1 126.7(4) . . . . ?
C10 C1 C5 C6 5.2(8) . . . . ?
C10 C1 C5 C4 -173.7(4) . . . . ?
C6 C5 C4 Ir1 122.9(4) . . . . ?
C6 C5 C4 C3 -178.4(4) . . . . ?
C6 C5 C4 C7 0.9(7) . . . . ?
C8 C3 C4 Ir1 -122.4(5) . . . . ?
C8 C3 C4 C5 177.9(4) . . . . ?
C8 C3 C4 C7 -1.4(7) . . . . ?
C9 C2 C1 Ir1 119.8(5) . . . . ?
C9 C2 C1 C5 -177.1(4) . . . . ?
C9 C2 C1 C10 -6.8(8) . . . . ?
C9 C2 C3 Ir1 -120.3(4) . . . . ?
C9 C2 C3 C8 1.6(7) . . . . ?
C9 C2 C3 C4 177.2(4) . . . . ?
loop_
_refln_index_h
_refln_index_k
_refln_index_l
_refln_F_squared_meas
_refln_F_squared_sigma
-1 0 0 704.53 54.89
-1 0 0 726.63 58.39
-2 0 0 4047.89 343.57
-2 0 0 4312.47 343.97
2 0 0 4614.94 343.97
2 0 0 4758.92 350.66
2 0 0 4677.13 343.37
-3 0 0 5362.26 470.85
-3 0 0 5953.9 471.45
3 0 0 6289.67 479.05
3 0 0 6621.44 470.55
3 0 0 5911.51 471.35
3 0 0 6721.33 481.95
3 0 0 6142.99 472.15
-4 0 0 47.4 5.2
4 0 0 38.2 7.8
4 0 0 55.09 4.6
-5 0 0 2688.93 215.78
-5 0 0 2544.05 218.58
-5 0 0 3169.18 215.38
5 0 0 2939.91 215.28
5 0 0 2632.34 217.08
5 0 0 2823.52 230.48
5 0 0 2826.32 233.98
-6 0 0 1519.55 113.59
-6 0 0 1493.35 110.99
6 0 0 1398.26 112.49
6 0 0 1215.28 111.29
6 0 0 1523.55 110.29
-7 0 0 34.6 8.1
-7 0 0 51.89 6.5
-7 0 0 45.5 4.8
7 0 0 48.6 5.3
7 0 0 35.4 29.7
7 0 0 44.8 7.3
7 0 0 29.2 18.2
7 0 0 44.8 8.6
-8 0 0 1785.42 151.48
-8 0 0 1726.83 153.68
-8 0 0 1881.91 148.09
8 0 0 2159.38 147.19
8 0 0 1990.4 150.98
8 0 0 1951.7 183.48
8 0 0 1859.01 149.19
8 0 0 1894.01 176.28
-9 0 0 316.67 33.2
-9 0 0 329.17 28.3
-9 0 0 268.37 35
9 0 0 384.16 27.2
9 0 0 343.37 30
9 0 0 336.77 31.9
9 0 0 274.17 63.49
-10 0 0 566.74 54.99
-10 0 0 582.44 57.59
10 0 0 632.04 55.59
10 0 0 642.14 49.9
-11 0 0 941.21 84.59
-11 0 0 1003.9 87.49
11 0 0 980.4 83.09
11 0 0 924.41 79.59
11 -1 0 623.94 49.7
11 -1 0 698.43 56.19
11 -1 0 581.74 51.99
-11 1 0 562.04 61.79
-11 1 0 551.64 55.69
10 -1 0 20.5 6.2
10 -1 0 16.1 8.1
10 -1 0 9.6 4.9
-10 1 0 27.3 10.8
-10 1 0 2.5 12.7
9 -1 0 831.42 72.69
9 -1 0 924.21 71.69
9 -1 0 1032 75.49
9 -1 0 982.1 70.79
-9 1 0 855.71 75.19
-9 1 0 788.92 78.89
8 -1 0 262.97 63.19
8 -1 0 224.38 20.4
8 -1 0 383.16 76.49
8 -1 0 212.08 19.3
8 -1 0 235.68 22.4
-8 1 0 203.28 26.3
-8 1 0 210.48 19.5
-8 1 0 236.38 22.9
7 -1 0 215.28 51.69
7 -1 0 194.58 18.7
7 -1 0 184.88 17.1
7 -1 0 162.88 38
-7 1 0 163.88 15
-7 1 0 211.68 19.4
-7 1 0 205.08 16.4
-7 1 0 186.18 22.6
6 -1 0 2903.81 218.58
6 -1 0 2964.9 218.08
6 -1 0 2720.03 220.28
6 -1 0 2715.43 219.28
6 -1 0 3085.69 237.78
-6 1 0 2881.61 220.78
-6 1 0 2628.04 217.88
-6 1 0 2861.81 218.68
5 -1 0 1146.39 102.09
5 -1 0 996.5 82.49
5 -1 0 1037.1 95.79
5 -1 0 1107.99 81.99
5 -1 0 1055.09 83.09
-5 1 0 1085.99 81.89
-5 1 0 1064.89 84.19
-5 1 0 1040.3 82.49
4 -1 0 1970.4 160.58
4 -1 0 1817.72 146.49
4 -1 0 1984.2 145.09
4 -1 0 1719.33 145.69
4 -1 0 1933.01 156.48
4 -1 0 2082.69 146.89
-4 1 0 1621.34 145.59
-4 1 0 1963.3 146.69
-4 1 0 1820.82 145.39
-4 1 0 2007.8 145.09
3 -1 0 8475.35 650.33
3 -1 0 7247.97 643.94
-3 1 0 9447.15 651.53
2 -1 0 188.28 13.7
2 -1 0 159.38 13.8
2 -1 0 196.68 14.5
2 -1 0 173.98 14.1
2 -1 0 187.58 13.9
2 -1 0 165.88 14.4
-2 1 0 198.48 13.7
-2 1 0 163.88 14.3
-2 1 0 161.18 14
-2 1 0 167.38 14.5
-2 1 0 169.98 19.4
0 -1 0 1478.15 113.99
-1 -1 0 1522.75 108.29
-1 -1 0 1430.36 108.49
-1 -1 0 1603.04 115.59
-1 -1 0 1230.68 108.09
1 1 0 1298.37 108.39
1 1 0 1612.64 108.19
1 1 0 1337.57 108.19
1 1 0 1501.35 108.29
1 1 0 1219.28 107.99
1 1 0 1336.27 108.09
-2 -1 0 3058.29 226.08
-2 -1 0 3013.8 235.18
-2 -1 0 3001.6 226.88
2 1 0 2969.8 226.58
2 1 0 3302.67 226.08
2 1 0 2756.42 226.48
2 1 0 3313.27 235.68
2 1 0 2469.65 225.68
2 1 0 2651.73 226.48
-3 -1 0 2785.92 210.28
-3 -1 0 2829.12 221.78
-3 -1 0 2800.72 209.18
3 1 0 2613.04 209.68
3 1 0 2322.57 208.58
3 1 0 2575.24 209.78
3 1 0 2951.9 209.98
3 1 0 2930.31 209.08
3 1 0 2522.65 209.88
3 1 0 2894.81 221.28
-4 -1 0 60.09 17.1
-4 -1 0 51.69 6.1
-4 -1 0 46 4.8
-4 -1 0 53.69 8.2
4 1 0 65.19 7.4
4 1 0 51.49 17.3
4 1 0 50.89 6.2
4 1 0 61.79 5.2
4 1 0 61.69 7.8
-5 -1 0 2284.87 166.38
-5 -1 0 2208.48 168.38
5 1 0 2237.58 185.78
5 1 0 1935.51 166.48
5 1 0 2112.49 165.48
5 1 0 2151.58 168.58
-6 -1 0 390.66 35.4
6 1 0 351.46 32.1
6 1 0 415.56 30.9
6 1 0 389.06 33.4
6 1 0 394.06 49.7
-7 -1 0 697.83 56.39
-7 -1 0 600.44 56.59
-7 -1 0 618.54 52.69
7 1 0 642.64 75.39
7 1 0 678.93 55.09
7 1 0 710.63 84.89
7 1 0 605.44 53.49
7 1 0 741.23 51.89
-8 -1 0 1946.81 156.48
-8 -1 0 1839.62 151.28
-8 -1 0 2013.3 155.68
8 1 0 1925.21 152.58
8 1 0 2032.7 154.28
8 1 0 1902.21 181.48
-9 -1 0 70.39 16.7
-9 -1 0 87.89 11.1
-9 -1 0 68.19 17
9 1 0 92.49 9.3
9 1 0 102.09 13.2
-10 -1 0 982.9 87.39
-10 -1 0 963.7 81.09
10 1 0 1069.39 83.79
10 1 0 1045.6 88.69
-11 -1 0 673.43 62.29
-11 -1 0 611.64 62.19
-11 -1 0 575.94 53.59
11 1 0 634.34 57.59
11 1 0 729.13 61.59
11 -2 0 41.8 9.2
11 -2 0 34.8 7
11 -2 0 33.9 11.7
-11 2 0 41.6 18.1
-11 2 0 44.1 12.3
10 -2 0 478.45 37.1
10 -2 0 423.36 38.5
10 -2 0 508.15 42.1
-10 2 0 401.96 47.4
-10 2 0 422.66 41.2
9 -2 0 907.31 129.49
9 -2 0 908.01 67.59
9 -2 0 888.01 68.89
9 -2 0 875.91 70.89
-9 2 0 791.72 76.19
-9 2 0 819.52 68.99
-9 2 0 815.12 70.59
8 -2 0 89.49 30.8
8 -2 0 104.09 42.8
8 -2 0 76.09 6.8
8 -2 0 83.29 11.7
8 -2 0 70.59 9.1
8 -2 0 75.69 8
-8 2 0 46.1 13.5
-8 2 0 76.09 11
-8 2 0 52.69 10.6
7 -2 0 1337.57 111.79
7 -2 0 1414.26 110.59
7 -2 0 1376.86 109.59
7 -2 0 1592.74 108.99
7 -2 0 1417.56 130.89
7 -2 0 1646.24 144.39
-7 2 0 1427.96 111.89
-7 2 0 1228.08 115.69
-7 2 0 1366.96 108.79
6 -2 0 1801.02 134.59
6 -2 0 1642.34 136.89
6 -2 0 1969.5 162.48
6 -2 0 1796.92 152.88
6 -2 0 1671.73 135.79
6 -2 0 1654.63 135.09
-6 2 0 1695.93 136.79
-6 2 0 1847.52 134.59
5 -2 0 1000.7 81.69
5 -2 0 1233.48 82.09
5 -2 0 907.11 83.89
5 -2 0 1062.29 82.49
5 -2 0 1055.39 81.29
5 -2 0 1043.6 82.29
-5 2 0 1086.39 83.09
4 -2 0 3976.6 333.57
4 -2 0 4106.69 323.87
4 -2 0 4242.18 322.37
4 -2 0 4606.14 322.87
4 -2 0 3734.23 322.57
4 -2 0 3897.01 322.97
4 -2 0 4483.55 323.67
-4 2 0 3894.21 323.47
-4 2 0 4629.94 336.57
-4 2 0 4873.31 322.47
-4 2 0 3846.22 322.97
3 -2 0 1239.98 97.59
3 -2 0 1184.08 98.19
3 -2 0 1086.89 99.59
3 -2 0 1278.57 96.99
3 -2 0 1194.28 97.19
3 -2 0 1308.37 106.59
-3 2 0 1326.47 97.29
-3 2 0 1459.05 97.19
-3 2 0 1148.99 97.69
-3 2 0 1279.37 98.39
-3 2 0 1387.56 97.69
2 -2 0 605.34 49.5
2 -2 0 711.93 49.9
2 -2 0 592.44 50.29
2 -2 0 585.24 49.7
2 -2 0 619.64 56.39
2 -2 0 713.53 50.89
-2 2 0 568.44 49.6
-2 2 0 659.53 49.8
-2 2 0 670.43 49.5
-2 2 0 617.64 49.6
-2 2 0 650.43 57.29
-2 2 0 698.13 50.59
1 -2 0 3986.4 301.47
1 -2 0 4160.48 300.67
1 -2 0 4366.66 309.17
1 -2 0 4015.3 301.37
1 -2 0 3510.35 300.37
1 -2 0 3483.35 300.27
-1 2 0 3929.81 300.57
-1 -2 0 56.79 5.6
-1 -2 0 59.99 17.5
1 2 0 50.39 5.3
1 2 0 49 16
1 2 0 60.39 5.4
1 2 0 52.99 4.6
1 2 0 56.79 5.7
-2 -2 0 2990.1 217.68
-2 -2 0 2775.82 217.08
-2 -2 0 2780.32 230.08
-2 -2 0 2806.02 216.58
2 2 0 2515.65 216.08
2 2 0 2429.66 216.38
2 2 0 3131.09 216.38
2 2 0 3050.59 229.78
2 2 0 2865.41 216.08
-3 -2 0 89.49 20.9
-3 -2 0 121.19 10.1
-3 -2 0 97.89 8.9
-3 -2 0 117.09 11.5
3 2 0 132.09 26
3 2 0 91.39 9.2
3 2 0 94.69 10
3 2 0 124.89 11.1
3 2 0 107.59 10
3 2 0 112.79 11.1
-4 -2 0 1028.6 74.39
-4 -2 0 892.31 91.49
-4 -2 0 1056.09 76.39
4 2 0 1031.8 92.59
4 2 0 870.21 74.39
4 2 0 921.01 75.19
4 2 0 842.72 73.29
-5 -2 0 994.8 74.79
-5 -2 0 982.5 72.49
-5 -2 0 896.41 74.39
-5 -2 0 957.1 110.29
5 2 0 817.32 101.39
5 2 0 916.21 73.69
5 2 0 850.01 72.59
5 2 0 908.91 71.49
-6 -2 0 168.98 17.4
6 2 0 131.29 13.3
6 2 0 161.88 16.5
-7 -2 0 1482.75 120.39
-7 -2 0 1642.34 123.89
-7 -2 0 1696.93 124.49
7 2 0 1272.87 142.59
7 2 0 1583.64 153.48
7 2 0 1501.15 122.59
7 2 0 1480.65 121.39
7 2 0 1593.24 119.39
-8 -2 0 295.47 31.4
-8 -2 0 290.17 27
-8 -2 0 300.47 30.7
8 2 0 366.86 31
8 2 0 274.77 61.69
8 2 0 300.37 28.8
8 2 0 305.57 25.6
-9 -2 0 556.34 57.89
-9 -2 0 664.33 55.39
-9 -2 0 619.94 50.89
9 2 0 642.74 49.2
9 2 0 605.14 54.79
9 2 0 582.94 52.79
-10 -2 0 1136.39 85.79
-10 -2 0 899.01 85.89
10 2 0 1024.5 85.69
10 2 0 898.81 82.39
11 -3 0 132.39 17.9
11 -3 0 170.98 15.4
-11 3 0 133.69 30.9
-11 3 0 148.59 21.3
10 -3 0 1644.34 186.08
10 -3 0 1469.15 116.69
10 -3 0 1550.54 119.59
10 -3 0 1535.65 115.19
-10 3 0 1351.96 129.69
-10 3 0 1348.67 117.39
-10 3 0 1512.85 118.69
9 -3 0 338.17 25.8
9 -3 0 333.97 30
9 -3 0 310.07 71.09
9 -3 0 294.77 27
-9 3 0 250.77 34.1
-9 3 0 309.47 28.7
8 -3 0 1105.99 108.99
8 -3 0 984 77.09
8 -3 0 1014.5 79.09
8 -3 0 1099.49 124.69
8 -3 0 992.7 77.89
8 -3 0 1005.8 80.99
-8 3 0 924.21 86.19
-8 3 0 958.3 80.19
7 -3 0 3105.59 242.88
7 -3 0 3047.09 243.78
7 -3 0 3196.78 242.28
7 -3 0 3341.97 289.97
7 -3 0 3415.46 266.47
7 -3 0 3104.69 245.38
-7 3 0 3576.44 242.48
-7 3 0 3046.5 244.58
-7 3 0 2652.73 249.08
6 -3 0 128.99 10.5
6 -3 0 119.19 11.1
6 -3 0 103.49 12.6
6 -3 0 99.39 9.7
6 -3 0 134.69 29.8
-6 3 0 156.98 34.3
-6 3 0 128.99 10
5 -3 0 2623.94 222.78
5 -3 0 3000.8 224.78
5 -3 0 3173.38 239.38
5 -3 0 2796.82 223.48
5 -3 0 2783.62 222.58
5 -3 0 3062.99 223.18
-5 3 0 2974.1 240.68
-5 3 0 2836.92 223.88
4 -3 0 2981.8 238.98
4 -3 0 3282.57 251.17
4 -3 0 2854.31 237.48
4 -3 0 2889.51 237.88
4 -3 0 2975.4 237.28
-4 3 0 3237.58 237.68
-4 3 0 2762.92 237.98
-4 3 0 3375.86 253.37
-4 3 0 3533.85 238.98
3 -3 0 51.39 8.1
3 -3 0 49.7 5.3
3 -3 0 41.1 13.3
3 -3 0 48.9 7
3 -3 0 47.8 4.3
3 -3 0 43.1 5.9
3 -3 0 40.6 4.7
-3 3 0 53.29 4.3
-3 3 0 34.3 3.9
-3 3 0 40 14.2
-3 3 0 38.7 4.5
-3 3 0 39.5 4.4
-3 3 0 41.4 6.5
2 -3 0 3369.56 253.17
2 -3 0 3586.64 252.97
2 -3 0 2862.51 253.87
2 -3 0 3355.76 263.97
2 -3 0 2830.92 252.77
-2 3 0 3145.29 252.97
-2 3 0 3136.19 252.77
-2 3 0 3723.53 254.77
-2 3 0 3687.43 266.07
1 -3 0 3425.16 292.37
1 -3 0 3907.61 278.87
1 -3 0 3895.31 281.37
1 -3 0 3735.13 279.27
1 -3 0 3413.36 279.57
1 -3 0 3542.25 278.97
1 -3 0 4057.29 280.57
-1 3 0 3090.69 278.77
0 -3 0 893.21 63.19
0 -3 0 838.52 63.39
0 -3 0 882.11 64.59
0 -3 0 809.92 63.49
0 -3 0 789.82 63.89
0 3 0 727.83 63.29
0 3 0 777.22 63.39
-1 -3 0 2168.08 193.98
-1 -3 0 2163.98 161.48
-1 -3 0 2261.07 161.48
-1 -3 0 2231.98 161.68
-1 -3 0 2087.09 160.88
1 3 0 2082.99 182.28
1 3 0 1758.32 160.78
1 3 0 2058.59 162.38
1 3 0 2015.8 161.68
-2 -3 0 1217.18 92.49
-2 -3 0 1144.59 91.99
-2 -3 0 1315.77 91.29
-2 -3 0 1312.37 116.59
-2 -3 0 1272.77 91.39
2 3 0 1031.1 91.59
2 3 0 1036.3 90.69
2 3 0 1102.79 92.09
2 3 0 1241.58 110.39
-3 -3 0 1892.61 170.78
-3 -3 0 1869.61 149.59
-3 -3 0 1734.13 148.69
-3 -3 0 2072.09 150.88
-3 -3 0 1843.52 148.59
-3 -3 0 1951 147.49
3 3 0 1623.24 147.99
3 3 0 1995.5 147.69
3 3 0 2132.29 149.39
3 3 0 2096.49 168.88
-4 -3 0 1716.83 124.69
-4 -3 0 1528.05 123.99
-4 -3 0 1648.83 125.59
-4 -3 0 1531.95 147.39
4 3 0 1771.92 126.19
4 3 0 1762.62 146.89
4 3 0 1461.05 123.19
4 3 0 1392.26 123.19
4 3 0 1537.55 124.39
-5 -3 0 20.9 27.2
5 3 0 11.3 22.2
-6 -3 0 1975.8 145.29
-6 -3 0 1600.84 177.68
-6 -3 0 1788.32 145.89
-6 -3 0 1809.02 143.49
6 3 0 1930.21 145.79
6 3 0 1768.02 144.29
6 3 0 1927.51 174.78
6 3 0 1826.42 142.39
-7 -3 0 1364.66 114.09
-7 -3 0 1274.57 110.79
-7 -3 0 1559.44 113.19
7 3 0 1312.57 109.59
7 3 0 1517.65 114.09
7 3 0 1406.06 112.39
-8 -3 0 344.57 31.1
-8 -3 0 286.67 32.8
-8 -3 0 295.87 28.7
8 3 0 327.07 27.1
8 3 0 300.87 30.6
8 3 0 335.67 32.6
-9 -3 0 1081.69 101.09
-9 -3 0 1335.07 104.19
-9 -3 0 1154.98 105.99
9 3 0 1234.48 99.79
9 3 0 1343.87 104.59
9 3 0 1478.85 107.39
-10 -3 0 565.74 64.49
-10 -3 0 719.73 60.29
10 3 0 752.22 64.99
10 3 0 647.84 61.59
11 -4 0 716.33 62.09
11 -4 0 725.03 58.39
11 -4 0 741.03 56.19
-11 4 0 645.54 72.89
-11 4 0 652.23 60.19
10 -4 0 1505.65 111.89
10 -4 0 1550.44 196.28
10 -4 0 1445.26 121.19
10 -4 0 1481.95 113.49
-10 4 0 1383.16 114.39
-10 4 0 1285.57 126.19
9 -4 0 7.4 3.2
9 -4 0 -26.8 74.49
9 -4 0 6.9 3.9
9 -4 0 12.1 6.3
-9 4 0 -1 11.6
-9 4 0 -4.9 6.3
8 -4 0 2092.59 177.68
8 -4 0 1917.11 148.09
8 -4 0 1894.71 146.99
8 -4 0 1961 150.38
-8 4 0 1774.02 155.48
-8 4 0 1791.12 148.69
-8 4 0 1928.61 146.29
7 -4 0 2261.17 176.18
7 -4 0 2351.36 179.08
7 -4 0 2349.36 199.88
7 -4 0 2311.77 177.08
-7 4 0 2180.48 177.48
-7 4 0 2059.79 182.88
-7 4 0 2753.02 208.88
-7 4 0 2152.68 175.58
6 -4 0 525.65 37
6 -4 0 436.66 54.99
-6 4 0 457.55 36.5
-6 4 0 419.06 36.2
-6 4 0 504.95 38.1
-6 4 0 386.56 57.09
5 -4 0 3990.4 293.87
5 -4 0 3591.94 274.87
5 -4 0 3652.03 276.97
5 -4 0 3568.24 275.47
-5 4 0 3330.87 274.47
-5 4 0 3392.56 275.37
4 -4 0 3116.99 244.88
4 -4 0 3258.47 257.67
4 -4 0 2837.72 241.98
4 -4 0 3042.1 241.68
-4 4 0 3260.97 241.98
-4 4 0 3410.96 260.77
3 -4 0 731.03 56.69
3 -4 0 645.04 57.79
3 -4 0 628.34 56.19
3 -4 0 804.92 59.69
3 -4 0 746.53 70.69
-3 4 0 805.62 57.19
-3 4 0 742.03 72.09
-3 4 0 681.03 56.49
-3 4 0 816.02 56.29
-3 4 0 650.13 55.99
2 -4 0 5729.33 446.96
2 -4 0 6149.58 448.26
2 -4 0 5368.26 446.46
2 -4 0 6224.98 463.65
2 -4 0 5287.67 448.26
-2 4 0 6548.44 447.16
-2 4 0 4908.61 446.06
-2 4 0 6376.36 446.56
1 -4 0 260.37 23.4
1 -4 0 302.57 22.6
1 -4 0 235.78 38.8
1 -4 0 253.77 22.7
1 -4 0 239.98 25.5
-1 4 0 302.87 22.7
-1 4 0 327.37 23.8
-1 4 0 287.47 23.2
-1 4 0 252.97 22.1
0 -4 0 2307.37 176.98
0 -4 0 2318.87 182.88
0 -4 0 2283.37 177.58
0 -4 0 2608.14 176.68
0 4 0 2278.27 176.98
0 4 0 2116.79 177.08
0 4 0 2175.48 176.98
-1 -4 0 3106.09 225.98
-1 -4 0 2682.23 230.88
-1 -4 0 2983.6 226.28
1 4 0 3112.89 255.67
1 4 0 2805.52 225.38
1 4 0 3262.57 226.68
1 4 0 2582.74 225.28
-2 -4 0 320.37 28.7
-2 -4 0 369.76 28.9
-2 -4 0 390.76 28
-2 -4 0 309.77 68.89
2 4 0 372.96 54.29
2 4 0 285.37 28.1
2 4 0 325.47 27.8
-3 -4 0 4700.53 351.06
-3 -4 0 4828.82 386.96
-3 -4 0 4328.57 350.46
3 4 0 4009.8 348.37
3 4 0 4657.23 350.96
3 4 0 4829.92 375.06
-4 -4 0 1363.66 147.49
-4 -4 0 1705.83 114.69
-4 -4 0 1529.75 118.29
-4 -4 0 1507.75 116.29
-4 -4 0 1385.26 115.09
4 4 0 1579.94 116.19
4 4 0 1404.26 114.19
4 4 0 1297.57 113.29
4 4 0 1420.76 140.69
4 4 0 1406.96 112.79
-5 -4 0 999.5 78.09
-5 -4 0 812.32 115.39
-5 -4 0 893.31 76.29
-5 -4 0 1100.19 76.29
5 4 0 834.62 74.59
5 4 0 931.01 108.09
5 4 0 972.4 77.39
5 4 0 1081.29 79.39
5 4 0 864.21 75.09
-6 -4 0 3109.09 266.37
-6 -4 0 3909.11 265.27
-6 -4 0 3093.69 311.17
-6 -4 0 3291.17 264.97
6 4 0 3216.98 263.67
6 4 0 3511.65 266.37
6 4 0 3159.98 296.97
6 4 0 3862.61 268.37
-7 -4 0 213.38 20.2
-7 -4 0 198.28 20.3
-7 -4 0 191.68 23.2
7 4 0 127.09 55.49
7 4 0 196.48 22.5
7 4 0 186.68 18.7
-8 -4 0 1482.65 128.69
-8 -4 0 1339.27 125.19
-8 -4 0 1687.53 126.19
8 4 0 1746.03 128.99
8 4 0 1823.72 130.99
8 4 0 1407.96 123.79
-9 -4 0 1451.95 127.19
9 4 0 1719.83 127.39
9 4 0 1447.26 120.99
-10 -4 0 27.4 13.4
-10 -4 0 36.2 15.7
10 4 0 71.49 21.2
10 4 0 36.8 14.3
11 -5 0 1155.48 97.19
11 -5 0 1284.57 101.59
10 -5 0 485.45 131.49
10 -5 0 368.86 30.5
10 -5 0 364.86 35.9
10 -5 0 393.16 32.4
-10 5 0 358.76 33.1
-10 5 0 333.67 44.7
9 -5 0 369.46 32.4
9 -5 0 520.15 114.09
9 -5 0 418.16 31.4
9 -5 0 379.96 35.6
-9 5 0 352.46 33
-9 5 0 375.26 42.2
8 -5 0 1926.41 148.49
8 -5 0 2185.88 195.88
8 -5 0 1894.01 150.98
8 -5 0 1972.5 147.59
-8 5 0 1914.01 146.79
-8 5 0 1757.72 148.69
-8 5 0 1813.22 156.08
7 -5 0 428.56 61.39
7 -5 0 401.06 33
7 -5 0 430.96 35.7
7 -5 0 459.05 32.4
-7 5 0 391.16 33.1
-7 5 0 339.27 38.5
-7 5 0 366.96 31.5
-7 5 0 387.96 68.39
6 -5 0 791.32 65.69
6 -5 0 854.41 63.79
-6 5 0 747.63 68.49
-6 5 0 898.31 90.89
-6 5 0 783.82 63.59
-6 5 0 800.92 62.49
5 -5 0 1958.8 143.49
5 -5 0 1972.1 142.89
5 -5 0 1886.51 145.29
5 -5 0 2031.8 164.88
-5 5 0 2078.79 169.18
-5 5 0 1570.84 146.69
-5 5 0 1676.53 142.89
-5 5 0 1727.73 142.39
4 -5 0 136.09 14.1
4 -5 0 125.19 11.9
4 -5 0 153.78 12.7
4 -5 0 162.18 30.8
-4 5 0 133.89 11.4
-4 5 0 174.68 34.1
-4 5 0 124.79 11.6
-4 5 0 126.49 17.7
3 -5 0 2416.86 182.98
3 -5 0 2583.14 184.28
3 -5 0 2507.55 203.68
3 -5 0 2275.17 183.48
-3 5 0 2265.07 185.88
-3 5 0 2262.87 183.18
2 -5 0 1771.62 142.39
2 -5 0 1629.44 141.39
2 -5 0 1967.8 143.39
2 -5 0 1827.62 163.58
2 -5 0 1934.31 145.69
-2 5 0 1906.61 143.89
-2 5 0 1860.71 141.99
1 -5 0 130.59 11.4
1 -5 0 105.69 30.9
1 -5 0 158.88 12.7
1 -5 0 112.09 13.6
-1 5 0 164.08 13.1
-1 5 0 120.39 12.8
-1 5 0 141.89 12
0 -5 0 2314.67 165.38
0 -5 0 2005.6 171.08
0 5 0 2149.58 164.48
0 5 0 2129.39 164.58
0 5 0 2050.59 164.18
-1 -5 0 463.25 104.69
-1 -5 0 673.43 54.29
-1 -5 0 640.94 58.59
1 5 0 648.64 50.09
1 5 0 602.04 49.2
1 5 0 607.94 51.09
-2 -5 0 2180.38 188.78
-2 -5 0 2497.15 182.38
-2 -5 0 2468.85 183.08
-2 -5 0 2185.38 183.08
2 5 0 2577.54 183.88
2 5 0 2205.28 182.08
-3 -5 0 2558.64 257.37
-3 -5 0 2803.92 214.38
-3 -5 0 2529.15 208.88
-3 -5 0 2726.83 208.98
-3 -5 0 2971.1 207.38
3 5 0 2392.76 207.48
3 5 0 2452.85 235.18
3 5 0 2948 209.88
-4 -5 0 70.89 10.2
-4 -5 0 54.59 13.6
-4 -5 0 178.18 62.79
-4 -5 0 55.59 10.4
-4 -5 0 83.39 7.5
4 5 0 61.69 11.7
4 5 0 24.7 34.7
4 5 0 62.29 8.5
-5 -5 0 2734.93 207.28
-5 -5 0 2469.65 265.27
-5 -5 0 2457.75 206.18
5 5 0 2500.15 240.18
5 5 0 2596.44 205.18
5 5 0 2982.9 208.28
-6 -5 0 2120.89 185.78
-6 -5 0 2647.34 184.48
-6 -5 0 2332.77 187.18
-6 -5 0 2055.19 232.18
6 5 0 2714.03 188.58
6 5 0 2219.18 184.58
-7 -5 0 38.3 10.5
-7 -5 0 21.7 9.3
-7 -5 0 43.6 14
7 5 0 40 11.6
7 5 0 31.7 7.3
7 5 0 56.09 14.9
-8 -5 0 1328.37 108.39
-8 -5 0 1245.98 115.49
8 5 0 1319.77 104.39
-9 -5 0 685.53 65.29
-9 -5 0 668.43 62.29
9 5 0 747.53 60.09
11 -6 0 549.95 49.6
11 -6 0 504.35 42.9
-11 6 0 455.45 58.89
-11 6 0 477.15 43.8
10 -6 0 44.1 9.4
-10 6 0 57.39 11.2
-10 6 0 62.59 19.6
-10 6 0 45.9 12.8
9 -6 0 1115.69 83.39
9 -6 0 1070.09 84.39
9 -6 0 1064.49 87.59
-9 6 0 1022.6 84.49
-9 6 0 1036.1 93.59
8 -6 0 718.23 51.49
8 -6 0 633.94 52.19
8 -6 0 669.33 55.49
-8 6 0 609.24 59.39
-8 6 0 601.14 52.09
7 -6 0 117.59 12.2
7 -6 0 115.79 15.5
7 -6 0 133.09 11.5
7 -6 0 123.29 35.4
-7 6 0 122.19 12
-7 6 0 91.69 15.8
-7 6 0 172.68 44.5
-7 6 0 133.59 19.1
6 -6 0 754.32 103.89
6 -6 0 834.92 63.79
6 -6 0 816.52 63.09
6 -6 0 844.82 66.49
-6 6 0 716.53 67.99
-6 6 0 948.61 118.79
-6 6 0 773.32 63.19
5 -6 0 379.86 32.4
5 -6 0 408.46 29.9
5 -6 0 346.17 29.6
-5 6 0 383.76 61.59
-5 6 0 322.97 28.8
-5 6 0 328.47 33.2
4 -6 0 449.95 34.1
4 -6 0 358.46 35.7
4 -6 0 429.36 32.6
4 -6 0 478.55 58.59
4 -6 0 385.86 33.3
-4 6 0 411.46 36.6
3 -6 0 1215.28 94.19
3 -6 0 1268.77 118.59
3 -6 0 1155.58 96.09
3 -6 0 1102.89 91.89
3 -6 0 1182.98 93.09
-3 6 0 1277.87 92.69
-3 6 0 1182.68 95.29
2 -6 0 29.5 6.3
2 -6 0 29.6 3.1
2 -6 0 55.49 26.4
-2 6 0 33.3 4.4
-2 6 0 24.9 26.5
-2 6 0 24 5.7
1 -6 0 1133.99 102.99
1 -6 0 1464.25 98.89
-1 6 0 1181.98 98.69
0 -6 0 1353.06 108.79
0 -6 0 1305.77 115.29
0 6 0 1283.87 107.89
0 6 0 1550.14 108.99
0 6 0 1449.95 108.39
-1 -6 0 296.97 22.3
-1 -6 0 228.48 83.49
-1 -6 0 207.48 30.3
-1 -6 0 245.68 22.8
1 6 0 279.47 21.6
1 6 0 215.68 23.5
1 6 0 380.86 70.29
1 6 0 237.08 22.1
-2 -6 0 1975.2 158.48
-2 -6 0 2220.58 158.08
2 6 0 2049.79 193.48
2 6 0 1753.32 158.58
2 6 0 2122.99 157.08
-3 -6 0 581.84 137.39
-3 -6 0 487.15 36.9
-3 -6 0 370.16 45.2
-3 -6 0 410.86 38.7
-3 -6 0 498.05 38.6
3 6 0 376.16 38.7
3 6 0 472.85 37.3
3 6 0 391.96 78.39
3 6 0 513.55 40.1
-4 -6 0 420.06 35.9
-4 -6 0 496.15 136.59
-4 -6 0 389.16 42.9
-4 -6 0 384.96 35.9
4 6 0 346.57 83.89
4 6 0 418.56 34.4
-5 -6 0 2027.5 174.38
-5 -6 0 2244.48 174.48
-5 -6 0 1997.1 234.18
5 6 0 2553.84 176.78
5 6 0 2137.79 172.88
-6 -6 0 358.36 33.5
-6 -6 0 355.16 33.8
6 6 0 303.47 31.3
6 6 0 350.16 35.8
-7 -6 0 427.46 43.2
7 6 0 546.75 47.6
7 6 0 417.96 40.9
-8 -6 0 902.71 74.29
-8 -6 0 767.32 73.49
8 6 0 844.92 70.99
11 -7 0 139.59 16.6
-11 7 0 103.29 27.7
-11 7 0 94.59 21.7
10 -7 0 294.17 27.1
10 -7 0 339.37 25.9
-10 7 0 280.37 35.7
-10 7 0 263.77 41.1
-10 7 0 281.57 29
9 -7 0 1027.2 77.19
9 -7 0 1077.09 76.19
-9 7 0 929.21 76.69
-9 7 0 807.22 82.39
8 -7 0 13.9 7.5
8 -7 0 18 4.3
8 -7 0 16.1 4.5
8 -7 0 57.19 57.49
-8 7 0 -20 44.7
-8 7 0 14.6 2.7
-8 7 0 10.1 11
-8 7 0 9.9 4.3
7 -7 0 922.51 71.99
7 -7 0 949.11 71.29
7 -7 0 903.11 75.29
-7 7 0 889.01 70.59
-7 7 0 825.42 77.29
-7 7 0 1071.79 122.19
-7 7 0 876.61 71.29
6 -7 0 1051.09 82.39
6 -7 0 1022.5 81.59
6 -7 0 1065.09 116.19
6 -7 0 1065.49 85.49
-6 7 0 941.91 86.39
-6 7 0 1077.79 81.39
-6 7 0 1071.19 81.09
5 -7 0 54.89 7.9
5 -7 0 59.79 6.4
5 -7 0 46 31.9
5 -7 0 70.99 12.1
-5 7 0 65.19 38.1
-5 7 0 57.69 6.4
-5 7 0 60.09 11.5
4 -7 0 2231.88 159.48
4 -7 0 2010.1 158.28
4 -7 0 2123.79 190.38
4 -7 0 1878.71 156.98
4 -7 0 1993.5 161.88
-4 7 0 2056.89 157.88
-4 7 0 2043.4 161.38
3 -7 0 252.67 27.1
3 -7 0 276.07 24.6
3 -7 0 292.17 62.59
3 -7 0 284.57 23.6
-3 7 0 296.77 23
-3 7 0 271.97 26
2 -7 0 1385.66 101.79
2 -7 0 1057.59 132.89
-2 7 0 1478.25 103.09
-2 7 0 1176.38 103.89
1 -7 0 2264.97 172.88
1 -7 0 2170.48 178.68
-1 7 0 2318.57 172.18
-1 7 0 1920.91 174.58
-1 7 0 2308.67 172.78
-1 7 0 2374.26 173.08
0 -7 0 -52.79 52.99
0 -7 0 11.4 3.4
0 -7 0 17.8 9.9
0 -7 0 11.9 4.8
0 7 0 9.9 4.4
0 7 0 49.9 45
0 7 0 14 3.5
0 7 0 15.7 3.5
-1 -7 0 2201.98 185.18
-1 -7 0 2652.53 175.98
-1 -7 0 2186.98 176.38
-1 -7 0 1839.92 254.27
1 7 0 2389.96 175.28
1 7 0 2069.79 177.28
-2 -7 0 1417.26 137.09
-2 -7 0 1803.82 136.79
2 7 0 1880.11 137.89
2 7 0 1721.03 135.99
2 7 0 2027.3 184.28
-3 -7 0 -53.09 107.89
-3 -7 0 -4.3 3.8
-3 -7 0 2.1 6
3 7 0 -0.9 3.2
3 7 0 -0.1 6.6
3 7 0 -20.9 42.8
3 7 0 1.2 4.8
-4 -7 0 1108.99 202.48
-4 -7 0 1185.58 114.09
-4 -7 0 1522.45 106.49
4 7 0 1257.87 104.29
-5 -7 0 858.01 83.09
-5 -7 0 1058.19 82.59
5 7 0 999.8 81.39
5 7 0 1097.59 85.49
-6 -7 0 126.89 18.6
6 7 0 122.19 18
-7 -7 0 631.44 62.39
-7 -7 0 720.33 60.29
7 7 0 672.83 59.29
-8 -7 0 156.78 26.7
-8 -7 0 178.28 29.8
8 7 0 236.58 36.2
8 7 0 150.88 27.2
10 -8 0 692.83 59.39
10 -8 0 752.32 64.79
-10 8 0 702.13 70.99
-10 8 0 678.33 67.19
9 -8 0 725.33 60.79
9 -8 0 801.32 66.39
9 -8 0 767.02 59.89
-9 8 0 698.03 69.39
8 -8 0 160.78 16.6
8 -8 0 166.98 22.1
8 -8 0 186.78 16.1
8 -8 0 212.28 84.09
-8 8 0 208.28 71.49
-8 8 0 168.28 14.8
-8 8 0 173.18 24.9
-8 8 0 130.79 22.5
7 -8 0 1346.27 104.09
7 -8 0 1348.47 107.99
7 -8 0 1315.77 148.99
7 -8 0 1317.07 103.19
-7 8 0 1395.36 102.59
-7 8 0 1181.48 108.49
-7 8 0 1318.77 109.69
6 -8 0 333.97 29.8
6 -8 0 331.27 68.79
6 -8 0 271.77 25.2
-6 8 0 281.97 23.7
-6 8 0 370.66 86.39
-6 8 0 240.58 28.7
-6 8 0 291.47 29.6
5 -8 0 1256.47 151.18
5 -8 0 1491.45 113.49
5 -8 0 1286.07 106.79
5 -8 0 1441.46 108.59
5 -8 0 1484.45 109.79
-5 8 0 1533.05 108.09
-5 8 0 1171.48 112.19
-5 8 0 1390.26 112.49
4 -8 0 1806.52 142.99
4 -8 0 1751.82 146.09
4 -8 0 1836.52 141.69
4 -8 0 1703.83 182.58
-4 8 0 1982.3 141.29
-4 8 0 1625.54 145.09
-4 8 0 1996.6 144.99
3 -8 0 64.09 15.3
3 -8 0 90.49 10.2
3 -8 0 77.79 11.3
3 -8 0 53.39 37.6
-3 8 0 102.19 9.3
-3 8 0 84.59 12.5
-3 8 0 99.09 13.9
-3 8 0 240.78 70.89
2 -8 0 2299.07 176.78
-2 8 0 2369.26 177.88
-2 8 0 2166.08 179.68
1 -8 0 1475.65 119.69
1 -8 0 1486.65 126.39
-1 8 0 1629.94 119.09
-1 8 0 1618.34 119.09
-1 8 0 1424.36 121.99
0 -8 0 510.15 43.1
0 -8 0 373.26 91.99
0 -8 0 600.14 42.1
0 -8 0 493.25 51.59
0 8 0 460.85 44.6
0 8 0 457.75 41.6
0 8 0 547.45 42.8
0 8 0 571.94 44.2
-1 -8 0 2664.63 238.18
-1 -8 0 2760.82 229.88
-1 -8 0 2388.36 331.87
-1 -8 0 3416.26 229.38
1 8 0 2841.72 231.38
1 8 0 3224.28 230.08
1 8 0 3078.09 228.78
-2 -8 0 786.22 83.89
-2 -8 0 961.3 73.09
-2 -8 0 826.62 74.19
2 8 0 1034.2 74.59
2 8 0 892.81 72.29
2 8 0 924.41 75.19
-3 -8 0 584.84 58.59
-3 -8 0 716.73 57.69
-3 -8 0 668.13 148.59
3 8 0 770.12 57.09
3 8 0 736.53 116.89
3 8 0 713.23 59.59
-4 -8 0 2344.57 180.78
-4 -8 0 2002.8 181.78
4 8 0 2548.05 180.28
-5 -8 0 136.39 17
-5 -8 0 112.99 21.7
5 8 0 88.49 16.1
6 8 0 849.22 73.79
6 8 0 924.01 78.99
-7 -8 0 759.42 68.19
7 8 0 816.42 68.99
10 -9 0 670.53 60.59
10 -9 0 595.94 53.59
-10 9 0 652.93 66.79
-10 9 0 664.13 66.29
9 -9 0 4.2 5.4
9 -9 0 9.5 5.7
9 -9 0 11.4 13.2
-9 9 0 -0.2 12.8
-9 9 0 10 15.2
8 -9 0 635.34 50.19
8 -9 0 590.44 50.99
8 -9 0 614.04 56.69
-8 9 0 660.13 49.2
-8 9 0 594.94 57.59
-8 9 0 595.04 58.29
7 -9 0 502.75 51.39
7 -9 0 635.14 46.2
7 -9 0 547.45 46.9
7 -9 0 443.76 109.29
-7 9 0 534.55 52.29
-7 9 0 838.02 184.98
-7 9 0 545.55 52.09
-7 9 0 606.84 45.2
6 -9 0 109.19 13.7
6 -9 0 96.99 50.49
-6 9 0 110.79 18.7
-6 9 0 140.49 19
-6 9 0 118.69 11.5
5 -9 0 1045.1 160.38
5 -9 0 1098.79 99.09
5 -9 0 1254.07 94.39
5 -9 0 1130.19 95.49
-5 9 0 1143.69 98.79
-5 9 0 1229.08 98.19
-5 9 0 1377.06 93.79
4 -9 0 171.68 69.29
4 -9 0 310.47 26.3
-4 9 0 330.47 25.5
-4 9 0 316.17 29.3
-4 9 0 271.97 29.6
3 -9 0 537.75 42.7
3 -9 0 379.66 103.19
-3 9 0 515.75 46.4
-3 9 0 533.75 46.4
2 -9 0 1599.54 141.19
2 -9 0 1728.93 135.09
-2 9 0 1686.53 138.39
-2 9 0 1820.22 134.49
-2 9 0 1800.32 135.79
1 -9 0 282.27 24.8
1 -9 0 230.18 32.1
1 -9 0 236.38 89.09
-1 9 0 287.47 24.3
-1 9 0 262.57 27.3
-1 9 0 296.37 23.7
0 -9 0 1337.67 109.99
0 -9 0 1282.87 100.89
0 9 0 1294.27 100.49
0 9 0 1257.17 99.59
0 9 0 1187.38 102.89
-1 -9 0 2047.9 146.99
-1 -9 0 1658.63 146.49
-1 -9 0 1461.25 241.28
-1 -9 0 1728.63 156.18
1 9 0 1911.51 148.79
1 9 0 2044.6 146.79
1 9 0 1931.01 145.49
-2 -9 0 88.39 15.6
-2 -9 0 120.99 13.5
-2 -9 0 120.69 28.9
2 9 0 109.09 17
2 9 0 113.09 13.4
2 9 0 150.78 16.1
-3 -9 0 967 107.09
-3 -9 0 1131.59 94.09
3 9 0 1206.28 96.39
3 9 0 1324.97 96.29
3 9 0 1218.98 93.69
-4 -9 0 721.33 86.49
-4 -9 0 795.02 71.29
-4 -9 0 951.7 69.59
-5 -9 0 67.69 16
-5 -9 0 35.8 29.3
-5 -9 0 67.19 14.5
5 9 0 84.49 16.8
5 9 0 65.49 11.9
-6 -9 0 881.01 81.99
6 9 0 1113.09 82.99
9 -10 0 344.67 39.7
9 -10 0 318.57 31.4
-9 10 0 389.16 45
-9 10 0 330.27 44.5
8 -10 0 289.17 29.5
8 -10 0 330.77 28.5
8 -10 0 307.37 37.6
-8 10 0 286.77 37.3
-8 10 0 336.07 38.7
-8 10 0 365.36 27.2
7 -10 0 2.5 5.3
-7 10 0 6.2 3.4
-7 10 0 16.6 11.4
-7 10 0 9.5 11.1
6 -10 0 704.43 63.29
6 -10 0 682.93 73.19
6 -10 0 834.42 61.99
-6 10 0 763.12 73.69
-6 10 0 721.63 66.39
-6 10 0 878.11 61.19
5 -10 0 525.15 121.39
5 -10 0 649.24 54.39
-5 10 0 668.73 58.49
-5 10 0 677.53 60.09
-5 10 0 889.51 160.18
-5 10 0 703.43 53.79
4 -10 0 5.5 54.19
4 -10 0 10.5 5.8
4 -10 0 15.2 5.5
-4 10 0 64.49 83.59
-4 10 0 9 7
-4 10 0 22 4.1
-4 10 0 16.1 7.9
3 -10 0 900.41 70.59
3 -10 0 705.83 76.39
-3 10 0 923.61 75.19
-3 10 0 984.8 70.09
2 -10 0 360.76 109.79
2 -10 0 522.65 44.8
2 -10 0 497.05 52.59
-2 10 0 549.45 48.9
-2 10 0 588.44 44.2
-2 10 0 575.84 44.7
1 -10 0 230.08 30
1 -10 0 225.78 19.8
-1 10 0 168.98 22
-1 10 0 163.68 17.4
-1 10 0 194.88 18.4
0 -10 0 884.91 72.49
0 -10 0 939.71 82.99
0 10 0 883.51 71.69
0 10 0 881.11 70.89
0 10 0 874.01 74.79
-1 -10 0 382.36 51.19
-1 -10 0 503.85 41
1 10 0 466.45 39.7
1 10 0 458.95 42.2
1 10 0 455.45 38.5
-2 -10 0 164.98 17.4
-2 -10 0 142.79 21
-2 -10 0 140.29 30.1
2 10 0 180.18 19.8
2 10 0 178.18 21.7
2 10 0 167.68 17.4
-3 -10 0 761.72 72.99
-3 -10 0 787.42 86.99
-3 -10 0 834.82 70.19
3 10 0 963.4 72.79
3 10 0 937.61 70.39
-4 -10 0 122.89 35.4
-4 -10 0 50.89 14.5
-4 -10 0 72.09 14
4 10 0 60.79 10.8
4 10 0 69.49 13.3
-5 -10 0 349.77 75.09
-5 -10 0 413.76 40
-5 -10 0 380.46 46.7
5 10 0 487.35 41.4
5 10 0 488.45 44.7
8 -11 0 192.78 25
8 -11 0 230.48 35
-8 11 0 285.47 23.5
-8 11 0 246.28 35
-8 11 0 222.98 35.2
7 -11 0 271.87 37.5
7 -11 0 231.28 27.2
-7 11 0 311.57 37.8
-7 11 0 284.37 23.5
-7 11 0 256.97 33.5
6 -11 0 1264.07 97.39
6 -11 0 1005.2 103.79
-6 11 0 1355.96 96.79
-6 11 0 1309.07 104.89
-6 11 0 1209.88 102.39
5 -11 0 136.39 14.1
-5 11 0 85.89 19
-5 11 0 118.89 12.7
-5 11 0 135.99 22.2
4 -11 0 723.93 62.39
-4 11 0 833.22 68.59
3 -11 0 893.71 88.49
3 -11 0 1018.1 78.69
-3 11 0 1023.2 78.39
2 -11 0 42 8.2
2 -11 0 32.9 21.1
-2 11 0 39.1 10.8
1 -11 0 785.32 61.39
1 -11 0 705.23 76.99
-1 11 0 705.73 60.09
-1 11 0 723.83 59.49
-1 11 0 774.62 64.89
0 -11 0 487.95 44.6
0 -11 0 545.75 56.09
0 11 0 484.25 43.8
0 11 0 562.14 48.5
0 11 0 524.35 43.2
-1 -11 0 5.5 17
-1 -11 0 7.7 9.4
1 11 0 3.3 5.4
1 11 0 7.1 9
1 11 0 6.4 5
-2 -11 0 921.41 84.99
-2 -11 0 1024.4 99.19
2 11 0 1080.79 84.29
2 11 0 1073.69 82.59
-3 -11 0 137.49 34.3
3 11 0 172.18 20.8
3 11 0 189.68 24.1
6 -12 0 802.82 67.49
-6 12 0 860.91 75.59
-6 12 0 851.41 66.99
5 -12 0 23.4 6.6
5 -12 0 8.9 9.5
5 -12 0 7.1 19.5
-5 12 0 12.8 5.1
-5 12 0 24.8 14.9
4 -12 0 1146.69 99.29
-4 12 0 1350.96 106.49
-4 12 0 1273.77 98.79
3 -12 0 588.74 48.9
3 -12 0 508.25 58.49
-3 12 0 676.53 55.99
-3 12 0 617.94 47.9
-3 12 0 509.35 49.8
2 -12 0 174.58 33.6
2 -12 0 144.59 19.3
-2 12 0 140.09 16.7
-2 12 0 161.78 17
-2 12 0 197.68 26.6
1 -12 0 1393.06 118.99
1 -12 0 1353.36 108.79
-1 12 0 1233.88 107.69
-1 12 0 1471.95 113.49
-1 12 0 1364.66 107.39
0 -12 0 203.68 41.2
0 -12 0 184.88 24.5
0 12 0 235.38 29.1
0 12 0 215.38 21.7
0 12 0 185.38 21.5
-1 -12 0 595.64 71.29
-1 -12 0 578.94 54.29
1 12 0 680.63 51.99
1 12 0 615.64 53.09
-2 -12 1 664.03 59.59
-2 -12 1 706.23 75.49
1 12 -1 221.68 28.6
1 12 -1 207.78 22
1 12 -1 247.68 24.3
-1 -12 1 201.08 26.8
-1 -12 1 195.48 47.5
0 12 -1 1419.96 108.19
0 12 -1 1293.07 108.89
0 -12 1 1405.06 121.19
0 -12 1 1362.66 109.89
-1 12 -1 446.06 42.6
-1 12 -1 412.96 37.3
-1 12 -1 441.96 36.7
1 -12 1 430.56 38.5
1 -12 1 410.36 50.49
-2 12 -1 441.06 41.6
-2 12 -1 377.46 34.8
-2 12 -1 445.76 34.7
2 -12 1 347.17 46.5
2 -12 1 395.66 35.6
-3 12 -1 1230.58 99.89
-3 12 -1 1292.87 93.79
3 -12 1 1190.28 98.59
3 -12 1 1007.7 102.39
-4 12 -1 247.88 30.5
-4 12 -1 250.37 22.3
4 -12 1 187.48 34.2
4 -12 1 254.67 23.6
-5 12 -1 481.35 39
-5 12 -1 461.65 47.7
5 -12 1 459.15 39.5
-6 12 -1 953.8 82.79
-6 12 -1 949.8 74.69
6 -12 1 919.71 75.09
3 11 -1 763.22 60.89
3 11 -1 769.02 58.39
-3 -11 1 655.73 79.59
-3 -11 1 588.94 61.99
2 11 -1 167.08 17.4
2 11 -1 174.08 22.3
-2 -11 1 128.69 31.8
-2 -11 1 134.99 21.7
1 11 -1 465.85 40.4
1 11 -1 461.75 44.5
1 11 -1 491.75 41.9
-1 -11 1 484.05 56.89
-1 -11 1 518.25 43.3
0 11 -1 1146.39 93.19
0 11 -1 1205.58 92.29
0 11 -1 1189.78 96.49
0 -11 1 1174.58 94.09
0 -11 1 1109.59 103.39
-1 11 -1 111.39 17.6
-1 11 -1 147.19 20
-1 11 -1 141.99 14.8
1 -11 1 103.49 15.2
-2 11 -1 693.73 55.99
-2 11 -1 693.73 60.09
2 -11 1 668.53 56.09
-3 11 -1 1298.37 98.59
-3 11 -1 1217.08 103.69
3 -11 1 1246.08 99.19
-4 11 -1 9.6 9.5
-4 11 -1 10.7 4.4
4 -11 1 10.8 5.3
4 -11 1 18.6 7.4
4 -11 1 -0.5 11.7
-5 11 -1 830.62 77.29
-5 11 -1 933.11 71.69
-5 11 -1 921.81 76.29
5 -11 1 923.61 71.99
-6 11 -1 728.83 65.39
-6 11 -1 744.03 57.69
-6 11 -1 753.52 64.09
6 -11 1 782.82 58.19
6 -11 1 577.74 65.09
-7 11 -1 110.69 24.3
-7 11 -1 120.89 12.4
-7 11 -1 95.39 23.7
7 -11 1 72.99 19.6
7 -11 1 84.39 15.4
7 -11 1 121.79 15.4
-8 11 -1 539.65 54.69
8 -11 1 504.35 46.2
8 -11 1 533.75 54.09
5 10 -1 15.8 12.1
5 10 -1 -7.8 7.5
-5 -10 1 5.8 7.8
-5 -10 1 -21.1 33.5
-5 -10 1 -1 12.1
4 10 -1 734.53 56.09
4 10 -1 756.22 59.59
-4 -10 1 596.64 77.69
-4 -10 1 551.64 59.09
-4 -10 1 668.13 56.29
3 10 -1 493.55 40.2
3 10 -1 538.05 43.2
-3 -10 1 486.25 41.1
-3 -10 1 423.66 59.09
-3 -10 1 391.96 43.3
2 10 -1 80.69 12.4
2 10 -1 70.79 13.8
2 10 -1 107.99 15.9
-2 -10 1 72.89 13.7
-2 -10 1 75.49 24.6
-2 -10 1 87.49 12.6
1 10 -1 1196.38 91.69
1 10 -1 1155.88 90.29
1 10 -1 1077.59 93.19
-1 -10 1 1112.09 92.09
-1 -10 1 1175.08 103.29
0 10 -1 872.81 66.59
0 10 -1 859.41 67.59
0 10 -1 804.12 69.89
0 -10 1 797.82 67.79
0 -10 1 836.52 77.89
-1 10 -1 180.48 16.3
-1 10 -1 189.88 17.3
-1 10 -1 191.78 20.5
1 -10 1 150.98 17.8
1 -10 1 120.99 26.9
-2 10 -1 1121.09 81.79
-2 10 -1 974.9 85.49
2 -10 1 963.7 89.69
2 -10 1 1074.49 82.59
-3 10 -1 304.77 29.8
3 -10 1 242.78 27.7
3 -10 1 251.07 129.19
3 -10 1 267.17 33.5
3 -10 1 351.96 26
-4 10 -1 384.76 28.3
-4 10 -1 364.36 31.9
-4 10 -1 294.67 32.3
4 -10 1 344.67 28.5
4 -10 1 275.17 30.4
-5 10 -1 472.35 48.7
-5 10 -1 582.74 48.9
-5 10 -1 627.24 44.2
5 -10 1 465.35 50.59
5 -10 1 628.14 44.6
5 -10 1 473.15 46.2
-6 10 -1 18.7 9.7
-6 10 -1 10.8 3.5
6 -10 1 9.8 5.5
-7 10 -1 620.24 44.3
-7 10 -1 542.05 52.39
-7 10 -1 536.65 51.49
7 -10 1 504.35 52.29
7 -10 1 510.25 46.4
7 -10 1 553.54 44.6
-8 10 -1 340.27 40.9
-8 10 -1 370.76 41.1
-8 10 -1 409.76 31.1
8 -10 1 349.87 40.9
-9 10 -1 9.2 17.1
-9 10 -1 39.5 20.4
9 -10 1 26.1 7.9
9 -10 1 50.09 16.1
6 9 -1 345.27 49.9
6 9 -1 314.47 40.2
6 9 -1 288.77 31.5
-6 -9 1 281.57 39.4
-6 -9 1 329.27 31.7
5 9 -1 929.71 75.79
5 9 -1 865.71 71.19
-5 -9 1 822.42 72.09
4 9 -1 1787.12 123.99
-4 -9 1 1294.77 129.89
-4 -9 1 1352.46 139.79
-4 -9 1 1757.52 125.29
3 9 -1 169.98 18.8
3 9 -1 143.39 18.8
3 9 -1 148.39 15.2
-3 -9 1 138.69 16.5
-3 -9 1 102.59 18.2
2 9 -1 1376.66 111.29
2 9 -1 1520.95 110.79
2 9 -1 1391.56 108.69
-2 -9 1 1595.04 109.99
-2 -9 1 1213.58 120.99
-2 -9 1 1175.48 110.39
1 9 -1 1552.64 113.19
1 9 -1 1320.07 114.19
1 9 -1 1442.86 111.69
-1 -9 1 1405.56 123.49
-1 -9 1 1443.96 113.49
-1 -9 1 1331.67 197.78
0 9 -1 5.1 5.2
0 9 -1 7 3.5
0 -9 1 12.6 4.3
0 -9 1 57.59 62.09
0 -9 1 1.3 11.7
-1 9 -1 2022.6 143.39
-1 9 -1 1949.2 142.69
-1 9 -1 1553.14 145.69
1 -9 1 1924.71 144.29
1 -9 1 1755.12 151.18
-2 9 -1 858.11 64.29
2 -9 1 691.33 69.09
2 -9 1 811.22 63.39
-3 9 -1 323.87 105.19
-3 9 -1 168.38 14.8
3 -9 1 172.68 15.4
3 -9 1 179.58 60.09
3 -9 1 130.09 16.9
-4 9 -1 1190.18 80.99
-4 9 -1 1143.19 84.59
4 -9 1 856.91 85.79
4 -9 1 829.92 128.89
4 -9 1 1068.09 81.09
4 -9 1 957.3 82.79
-5 9 -1 90.99 9.9
-5 9 -1 111.39 15.9
5 -9 1 74.29 52.99
5 -9 1 86.09 17.2
5 -9 1 78.99 12.3
5 -9 1 121.49 11.2
-6 9 -1 622.14 47.8
-6 9 -1 604.34 53.39
6 -9 1 584.54 49.7
6 -9 1 572.54 95.69
6 -9 1 604.54 48.2
6 -9 1 580.84 54.09
-7 9 -1 544.45 52.09
-7 9 -1 600.84 45
-7 9 -1 620.84 123.59
7 -9 1 553.64 45.4
7 -9 1 556.84 46.9
7 -9 1 559.54 51.89
7 -9 1 471.35 99.99
-8 9 -1 1.2 10
-8 9 -1 15.6 3.5
-8 9 -1 12.2 12.4
8 -9 1 28.1 11.5
8 -9 1 15 4.9
-9 9 -1 854.31 80.29
-9 9 -1 879.81 78.79
9 -9 1 934.21 77.19
9 -9 1 817.62 71.49
-10 9 -1 434.26 51.89
-10 9 -1 420.76 51.29
10 -9 1 420.66 38.5
10 -9 1 471.35 45.9
7 8 -1 1115.89 88.89
7 8 -1 1268.07 97.19
-7 -8 1 992.4 88.69
-7 -8 1 909.11 92.59
6 8 -1 1.2 15
6 8 -1 -5.1 6.9
6 8 -1 -2 11.4
-6 -8 1 19.7 12.7
5 8 -1 2559.14 175.68
-5 -8 1 2212.58 176.48
-5 -8 1 1917.81 179.58
4 8 -1 1633.14 125.09
-4 -8 1 1547.45 126.29
3 8 -1 123.19 51.89
3 8 -1 104.19 14.4
3 8 -1 66.79 9.6
-3 -8 1 78.69 11.6
-3 -8 1 75.49 13
-3 -8 1 50.49 22
-3 -8 1 100.59 93.89
2 8 -1 2902.01 208.08
2 8 -1 2651.53 209.98
-2 -8 1 2723.93 209.98
-2 -8 1 2443.66 219.48
1 8 -1 1329.07 93.09
1 8 -1 1219.08 91.49
1 8 -1 1077.59 93.59
-1 -8 1 1139.69 92.99
-1 -8 1 958.5 199.28
-1 -8 1 1103.59 102.09
0 8 -1 929.41 69.09
0 8 -1 780.32 68.79
0 8 -1 853.51 69.79
0 -8 1 982.6 70.69
0 -8 1 656.33 131.09
0 -8 1 902.91 78.99
-1 8 -1 2458.15 188.18
-1 8 -1 2448.16 187.88
1 -8 1 2487.45 188.78
1 -8 1 2324.47 195.18
-2 8 -1 25.4 4.1
-2 8 -1 33.1 6.6
-2 8 -1 60.29 45.7
2 -8 1 18.8 5.8
2 -8 1 17.6 8.2
2 -8 1 19.5 38.8
-3 8 -1 1799.92 134.99
3 -8 1 1716.23 132.49
3 -8 1 1607.04 173.08
3 -8 1 1653.93 134.19
-4 8 -1 993.2 79.69
-4 8 -1 1059.29 76.29
4 -8 1 967.2 116.99
4 -8 1 975.3 76.59
4 -8 1 986.1 78.19
4 -8 1 853.71 80.69
-5 8 -1 146.39 17.7
-5 8 -1 143.29 12.7
-5 8 -1 108.99 39.7
5 -8 1 175.48 48.9
5 -8 1 135.59 14.6
5 -8 1 135.29 18.4
-6 8 -1 2049.59 181.18
-6 8 -1 1643.64 137.99
-6 8 -1 1703.63 132.49
6 -8 1 1780.02 132.39
6 -8 1 1622.24 137.29
6 -8 1 1600.44 132.79
6 -8 1 1726.03 134.19
-7 8 -1 268.47 33.2
-7 8 -1 315.77 26.6
7 -8 1 300.57 28.3
7 -8 1 392.56 33.8
7 -8 1 362.16 27.3
7 -8 1 288.87 72.39
-8 8 -1 476.65 37.3
-8 8 -1 443.26 46.2
8 -8 1 491.55 44.1
8 -8 1 496.45 100.49
8 -8 1 441.06 39.1
-9 8 -1 1388.06 129.59
9 -8 1 1622.54 126.39
9 -8 1 1603.54 121.79
-10 8 -1 10.7 15.7
-10 8 -1 30 19.6
10 -8 1 46.8 14.2
10 -8 1 31.4 7.6
-8 -7 1 929.51 88.59
-8 -7 1 1073.39 86.39
7 7 -1 293.67 31.4
7 7 -1 335.17 39.1
-7 -7 1 315.47 34.7
6 7 -1 257.17 26.6
6 7 -1 279.87 32.5
6 7 -1 324.87 37.6
-6 -7 1 232.18 29.1
-6 -7 1 264.67 28
5 7 -1 1998.3 147.59
-5 -7 1 1920.61 149.09
-5 -7 1 1703.83 149.29
4 7 -1 391.36 39.4
4 7 -1 540.25 42.6
4 7 -1 498.75 38.5
-4 -7 1 483.25 109.49
-4 -7 1 358.96 48.7
-4 -7 1 429.36 40.5
-4 -7 1 502.65 40.3
3 7 -1 971.9 73.79
3 7 -1 856.41 115.39
3 7 -1 861.61 75.09
-3 -7 1 1028.2 75.29
-3 -7 1 782.52 167.68
-3 -7 1 909.91 75.59
2 7 -1 2111.89 179.78
2 7 -1 2445.66 178.38
-2 -7 1 2347.17 180.18
1 7 -1 132.89 12.5
1 7 -1 127.39 12.4
-1 -7 1 39 68.69
-1 -7 1 173.18 25.8
0 7 -1 2132.99 159.88
0 7 -1 2138.89 159.98
0 -7 1 2136.19 168.78
0 -7 1 1734.73 208.18
-1 7 -1 708.13 53.69
-1 7 -1 699.33 53.09
1 -7 1 572.44 58.79
1 -7 1 689.73 53.79
-2 7 -1 197.78 16.3
-2 7 -1 190.48 18.2
2 -7 1 181.98 47.8
2 -7 1 201.98 17
2 -7 1 174.38 18.3
-3 7 -1 1649.04 137.19
-3 7 -1 1833.42 134.79
3 -7 1 1622.94 139.09
3 -7 1 1768.32 135.29
3 -7 1 1719.43 136.39
3 -7 1 1909.41 165.48
-4 7 -1 211.68 47.4
-4 7 -1 126.09 15.9
-4 7 -1 154.48 12.8
4 -7 1 116.99 16.7
4 -7 1 184.88 39.7
4 -7 1 168.28 14.8
-5 7 -1 813.42 65.19
5 -7 1 965.4 98.19
5 -7 1 913.11 66.89
5 -7 1 771.72 65.59
5 -7 1 790.52 69.29
5 -7 1 829.12 64.79
-6 7 -1 1725.33 137.19
-6 7 -1 1683.13 137.29
-6 7 -1 1479.55 142.19
-6 7 -1 2114.29 176.28
6 -7 1 1776.32 137.69
6 -7 1 1785.82 141.59
6 -7 1 2008.6 170.98
6 -7 1 1847.42 138.79
-7 7 -1 40.3 38.5
-7 7 -1 35.4 10.5
-7 7 -1 31.3 5.3
7 -7 1 32.7 6
7 -7 1 21.7 46.3
-8 7 -1 1332.87 109.19
-8 7 -1 1324.07 110.09
-8 7 -1 1251.77 117.59
8 -7 1 1474.65 111.19
8 -7 1 1515.95 114.79
8 -7 1 1539.15 156.08
8 -7 1 1493.45 109.79
-9 7 -1 940.91 81.99
-9 7 -1 1114.89 80.79
-9 7 -1 870.81 87.79
9 -7 1 1178.58 81.39
9 -7 1 1054.39 82.79
-10 7 -1 10.1 13.5
-10 7 -1 25 17.7
10 -7 1 20.4 10.8
10 -7 1 13.5 5.7
11 -7 1 883.41 76.99
9 6 -1 889.81 72.79
-9 -6 1 666.03 66.19
-9 -6 1 642.44 65.29
8 6 -1 729.23 61.89
-8 -6 1 744.73 65.09
-8 -6 1 715.33 64.39
7 6 -1 -5.9 13.9
7 6 -1 -1.5 6.3
7 6 -1 16.8 13
-7 -6 1 37.1 10.5
6 6 -1 1292.97 111.39
6 6 -1 1627.74 116.49
-6 -6 1 1383.36 113.49
-6 -6 1 1323.07 112.99
5 6 -1 1031.7 79.59
5 6 -1 937.51 75.69
-5 -6 1 969.4 77.69
-5 -6 1 909.91 77.29
-5 -6 1 867.41 83.49
-5 -6 1 935.31 127.59
4 6 -1 124.09 47.2
4 6 -1 118.69 15.8
4 6 -1 83.99 12.8
4 6 -1 127.19 12
-4 -6 1 92.59 13.1
-4 -6 1 87.59 21.2
-4 -6 1 108.99 13.4
-4 -6 1 147.69 81.29
3 6 -1 1932.11 137.99
3 6 -1 1443.46 135.89
3 6 -1 1718.23 135.29
-3 -6 1 1625.14 203.38
-3 -6 1 1843.22 135.19
-3 -6 1 1579.24 143.39
-3 -6 1 1762.32 136.99
-3 -6 1 1928.91 136.99
2 6 -1 325.97 27
2 6 -1 366.46 66.89
-2 -6 1 373.96 28.6
-2 -6 1 344.37 28.8
-2 -6 1 249.68 35.1
-2 -6 1 181.68 71.39
1 6 -1 674.23 55.99
1 6 -1 807.42 57.59
-1 -6 1 633.94 121.99
-1 -6 1 658.23 64.89
0 6 -1 920.21 75.89
0 6 -1 1016.2 76.29
0 6 -1 998.2 75.79
0 -6 1 927.21 83.49
0 -6 1 1016.5 77.39
-1 6 -1 40 5
-1 6 -1 80.59 33.4
-1 6 -1 40.7 5.9
1 -6 1 38.6 6.6
1 -6 1 45.6 26.1
1 -6 1 30.5 9.6
-2 6 -1 1096.29 85.69
-2 6 -1 1309.27 115.09
2 -6 1 1010.1 107.79
2 -6 1 1105.19 89.29
2 -6 1 1056.89 86.19
-3 6 -1 1016.4 83.49
3 -6 1 1227.78 85.29
3 -6 1 1030 83.99
3 -6 1 986.3 86.99
3 -6 1 1157.68 106.19
-4 6 -1 116.09 11
-4 6 -1 156.18 40.8
4 -6 1 123.59 14.8
4 -6 1 125.99 10.9
4 -6 1 138.99 11.9
4 -6 1 129.69 30.9
4 -6 1 140.69 12.6
-5 6 -1 1731.63 160.98
-5 6 -1 1687.63 134.19
-5 6 -1 1657.13 134.19
5 -6 1 1782.42 135.49
5 -6 1 1651.73 137.39
5 -6 1 1988.9 134.99
5 -6 1 1792.12 159.98
5 -6 1 1638.84 134.39
-6 6 -1 690.73 55.79
-6 6 -1 672.03 55.19
-6 6 -1 816.12 88.69
6 -6 1 740.23 56.69
6 -6 1 699.63 55.59
6 -6 1 677.93 79.59
6 -6 1 709.43 58.99
-7 6 -1 186.88 21.7
-7 6 -1 231.78 18.6
-7 6 -1 319.57 66.49
7 -6 1 244.68 23.4
7 -6 1 226.78 19
7 -6 1 260.07 56.69
7 -6 1 230.08 20.3
-8 6 -1 1612.94 146.59
-8 6 -1 1696.23 139.29
-8 6 -1 2131.19 184.48
-8 6 -1 1765.52 137.89
8 -6 1 1852.41 177.28
8 -6 1 1829.02 142.49
8 -6 1 1845.82 138.29
8 -6 1 1724.23 139.59
-9 6 -1 208.38 32.5
-9 6 -1 232.38 22.4
-9 6 -1 246.68 19.8
9 -6 1 230.08 22.2
9 -6 1 238.88 25.9
9 -6 1 268.67 20.6
-10 6 -1 154.88 27.4
-10 6 -1 197.38 35.1
-10 6 -1 210.58 20.9
10 -6 1 227.98 25.3
-11 6 -1 974.9 91.49
-11 6 -1 907.41 75.99
-11 6 -1 774.02 79.99
11 -6 1 961.7 75.39
11 -6 1 1008.8 80.59
9 5 -1 2206.98 162.38
-9 -5 1 1747.03 159.28
8 5 -1 430.66 41.4
8 5 -1 358.56 35
8 5 -1 417.56 44.2
7 5 -1 946.11 71.79
7 5 -1 742.93 66.59
-7 -5 1 770.02 68.09
-7 -5 1 888.91 68.39
-7 -5 1 773.52 69.89
6 5 -1 2372.36 180.08
6 5 -1 2076.49 176.48
6 5 -1 2553.74 182.48
-6 -5 1 1965.9 177.38
-6 -5 1 2247.48 179.28
-6 -5 1 2384.26 176.58
5 5 -1 12.3 4.3
5 5 -1 10 33.3
5 5 -1 23.5 9.3
5 5 -1 8.6 5.8
-5 -5 1 9.3 5
-5 -5 1 -3.3 56.49
-5 -5 1 9.3 5.7
-5 -5 1 16.6 4.3
4 5 -1 1556.84 136.19
4 5 -1 1764.52 136.29
4 5 -1 1613.94 137.59
4 5 -1 1904.21 140.49
4 5 -1 1706.33 165.08
-4 -5 1 1890.31 144.09
-4 -5 1 1844.82 139.09
-4 -5 1 1918.21 139.89
-4 -5 1 1706.53 176.28
3 5 -1 1490.75 103.29
3 5 -1 1163.28 125.99
3 5 -1 1215.58 100.59
-3 -5 1 1291.67 103.39
-3 -5 1 1101.89 136.89
-3 -5 1 1329.77 107.09
-3 -5 1 1316.97 101.99
2 5 -1 366.96 34.5
2 5 -1 438.66 36.5
-2 -5 1 406.26 41.4
-2 -5 1 493.95 36.2
-2 -5 1 471.85 35.2
-2 -5 1 397.46 35.8
1 5 -1 3095.39 202.18
1 5 -1 2550.64 200.58
1 5 -1 2384.86 200.28
-1 -5 1 2373.16 208.18
0 5 -1 147.69 13.1
0 5 -1 177.88 13.6
0 5 -1 164.48 13.3
0 -5 1 126.49 21.1
0 -5 1 161.28 44.6
-1 5 -1 1367.06 102.99
1 -5 1 1388.16 103.59
1 -5 1 1141.09 121.99
1 -5 1 1377.56 104.89
-2 5 -1 3878.91 277.37
2 -5 1 2968 258.87
2 -5 1 3224.48 272.97
2 -5 1 3824.62 257.77
2 -5 1 3346.97 257.07
2 -5 1 2804.92 255.97
-3 5 -1 16.5 12.5
3 -5 1 33.6 15.5
3 -5 1 38.5 3.6
3 -5 1 24.7 5.4
-4 5 -1 2533.45 204.38
-4 5 -1 2216.08 183.68
-4 5 -1 2186.18 183.58
-4 5 -1 2522.05 184.18
4 -5 1 2081.69 183.78
4 -5 1 2749.32 184.38
4 -5 1 2588.54 202.28
4 -5 1 2299.37 186.18
-5 5 -1 2437.86 206.48
-5 5 -1 2840.82 207.48
-5 5 -1 2948.61 230.98
-5 5 -1 2589.14 206.98
5 -5 1 2846.42 226.28
5 -5 1 2704.73 209.38
5 -5 1 2457.55 206.58
5 -5 1 2753.62 207.68
-6 5 -1 13.9 3.7
-6 5 -1 17.1 20.3
6 -5 1 13.1 2.8
6 -5 1 20.1 5.8
6 -5 1 5.2 20.7
6 -5 1 8.7 3.1
-7 5 -1 1834.72 172.98
-7 5 -1 1505.55 127.39
7 -5 1 1503.85 158.98
7 -5 1 1692.93 126.49
7 -5 1 1659.63 129.59
7 -5 1 1657.73 127.59
-8 5 -1 823.12 82.99
-8 5 -1 952.1 76.69
8 -5 1 975 76.39
8 -5 1 1061.99 75.09
8 -5 1 970.1 78.69
-9 5 -1 107.39 13.7
-9 5 -1 89.29 17.4
-9 5 -1 115.69 10.1
-9 5 -1 106.39 23.5
9 -5 1 120.19 11
9 -5 1 124.99 13.3
9 -5 1 79.29 71.99
9 -5 1 81.89 66.39
9 -5 1 124.39 16.6
-10 5 -1 862.01 73.39
-10 5 -1 852.61 84.59
10 -5 1 938.61 73.09
10 -5 1 934.71 70.89
10 -5 1 897.91 77.39
11 -5 1 267.17 30
11 -5 1 232.38 24.8
10 4 -1 1310.47 103.49
10 4 -1 1398.86 107.49
-10 -4 1 1052.79 97.79
-10 -4 1 1060.89 102.69
9 4 -1 1579.44 120.09
9 4 -1 1482.95 117.49
-9 -4 1 1280.27 117.39
-9 -4 1 1476.75 114.89
-9 -4 1 1290.27 113.69
8 4 -1 37.8 11.6
8 4 -1 27.6 9
8 4 -1 14.8 4.6
-8 -4 1 15.3 6.5
-8 -4 1 19.4 7.3
-8 -4 1 -1 7.5
7 4 -1 1797.42 192.08
7 4 -1 2131.29 160.78
7 4 -1 1828.02 155.38
7 4 -1 2118.09 159.08
-7 -4 1 2286.77 157.98
-7 -4 1 1868.11 159.18
-7 -4 1 1894.41 156.88
6 4 -1 870.61 105.59
6 4 -1 976.7 75.69
-6 -4 1 930.11 76.09
-6 -4 1 748.93 113.89
-6 -4 1 966.8 74.49
-6 -4 1 897.11 73.99
5 4 -1 405.66 64.79
5 4 -1 401.66 35.3
5 4 -1 445.66 37.2
5 4 -1 358.76 32.9
5 4 -1 343.17 33
-5 -4 1 473.55 34.7
-5 -4 1 354.46 70.49
-5 -4 1 397.36 34.2
-5 -4 1 419.86 36
4 4 -1 2367.06 192.48
4 4 -1 2421.46 213.08
-4 -4 1 2773.22 191.48
-4 -4 1 2416.86 217.38
-4 -4 1 2428.36 194.68
-4 -4 1 2522.65 192.78
-4 -4 1 2321.47 191.58
3 4 -1 268.87 23.6
3 4 -1 211.48 21.7
3 4 -1 270.37 45.6
-3 -4 1 294.27 21.2
-3 -4 1 273.37 27.8
-3 -4 1 253.77 23.4
-3 -4 1 265.47 47.1
-3 -4 1 257.07 22.5
2 4 -1 4505.45 357.96
2 4 -1 4097.29 375.56
-2 -4 1 4949 361.66
-2 -4 1 5042.6 356.66
-2 -4 1 4680.13 357.36
-2 -4 1 4600.84 385.66
-2 -4 1 4555.14 357.46
1 4 -1 4363.46 402.86
1 4 -1 4872.01 403.96
-1 -4 1 5170.68 408.66
-1 -4 1 5600.04 403.66
-1 -4 1 5914.31 403.66
-1 -4 1 5591.54 403.86
0 4 -1 122.79 10.9
0 4 -1 133.59 11.3
0 -4 1 121.79 17.4
0 -4 1 140.59 11.5
0 -4 1 148.59 12.3
-1 4 -1 4407.46 378.66
-1 4 -1 5355.26 379.06
-1 4 -1 5808.12 380.16
1 -4 1 4328.57 382.16
1 -4 1 5112.79 394.66
1 -4 1 4546.45 379.06
1 -4 1 5029.7 380.06
-2 4 -1 3642.14 275.97
-2 4 -1 3352.66 262.37
2 -4 1 3035.3 262.87
2 -4 1 3219.68 262.37
2 -4 1 3714.93 264.17
2 -4 1 3574.04 275.37
-3 4 -1 1147.09 97.49
-3 4 -1 1327.47 112.09
-3 4 -1 1366.06 97.89
-3 4 -1 1215.28 97.49
3 -4 1 1344.27 98.49
3 -4 1 1251.57 99.59
3 -4 1 1329.37 110.79
3 -4 1 1374.16 97.89
3 -4 1 1144.19 97.59
3 -4 1 1190.68 97.59
-4 4 -1 4674.53 366.16
-4 4 -1 4638.94 349.27
-4 4 -1 4270.67 349.47
4 -4 1 4616.64 349.17
4 -4 1 4151.58 349.07
4 -4 1 4803.82 349.96
4 -4 1 4718.63 351.26
-5 4 -1 1802.72 152.98
-5 4 -1 1801.42 133.79
5 -4 1 1660.13 132.79
5 -4 1 1699.53 148.99
5 -4 1 1714.03 132.79
5 -4 1 1606.74 133.69
5 -4 1 1959.4 133.09
5 -4 1 1566.04 134.79
-6 4 -1 1687.03 140.89
-6 4 -1 1411.66 115.69
6 -4 1 1415.56 114.39
6 -4 1 1459.95 116.89
6 -4 1 1465.25 115.49
6 -4 1 1454.85 114.29
6 -4 1 1572.54 134.69
-7 4 -1 3194.88 257.07
7 -4 1 3377.06 278.57
7 -4 1 3279.47 255.37
7 -4 1 3351.36 258.27
7 -4 1 3262.67 256.57
7 -4 1 3475.45 255.27
-8 4 -1 95.59 11.5
-8 4 -1 61.09 15.8
8 -4 1 105.29 55.09
8 -4 1 81.59 8.3
8 -4 1 73.29 50.69
8 -4 1 81.99 10.2
-9 4 -1 857.81 82.59
-9 4 -1 895.51 74.19
9 -4 1 923.01 73.29
9 -4 1 1044.2 124.99
9 -4 1 969.2 142.29
9 -4 1 923.61 71.49
9 -4 1 890.71 75.29
-10 4 -1 555.04 51.99
-10 4 -1 600.94 62.99
10 -4 1 628.84 50.89
10 -4 1 626.14 48.5
10 -4 1 627.04 55.39
-11 4 -1 199.98 23.2
-11 4 -1 156.48 35.8
11 -4 1 154.18 24
11 -4 1 165.88 19.9
10 3 -1 820.92 69.29
10 3 -1 787.62 65.89
-10 -3 1 682.53 67.99
-10 -3 1 652.53 61.89
-10 -3 1 769.82 64.99
9 3 -1 204.58 26.2
-9 -3 1 217.68 23.5
-9 -3 1 152.88 29.7
-9 -3 1 175.48 20.2
8 3 -1 339.97 28.3
8 3 -1 341.37 32
8 3 -1 366.26 34.4
-8 -3 1 357.56 32.7
-8 -3 1 317.07 33.8
-8 -3 1 311.97 29.8
7 3 -1 1568.84 112.79
7 3 -1 1265.57 107.79
7 3 -1 1373.06 110.59
-7 -3 1 1494.45 111.69
-7 -3 1 1332.37 112.09
-7 -3 1 1288.17 109.09
6 3 -1 74.09 11.7
6 3 -1 69.99 10.2
6 3 -1 60.59 29.1
6 3 -1 54.89 8.7
-6 -3 1 80.09 29.9
5 3 -1 1077.29 89.69
5 3 -1 1249.07 111.99
5 3 -1 1213.58 91.29
5 3 -1 1058.89 88.19
-5 -3 1 1222.98 90.69
-5 -3 1 1075.89 111.29
-5 -3 1 1141.49 89.19
-5 -3 1 1043.6 90.69
4 3 -1 1781.72 164.98
4 3 -1 1609.34 141.69
4 3 -1 1746.63 142.99
4 3 -1 1951.8 144.29
-4 -3 1 1780.52 162.78
-4 -3 1 2060.79 149.79
-4 -3 1 1905.01 142.59
3 3 -1 384.66 32.3
3 3 -1 381.36 31.3
-3 -3 1 389.66 47.4
-3 -3 1 344.87 31.9
-3 -3 1 425.96 33.2
-3 -3 1 453.45 34
-3 -3 1 446.96 33
2 3 -1 4598.44 412.16
2 3 -1 4531.45 410.96
2 3 -1 4515.35 411.66
2 3 -1 5757.12 426.76
-2 -3 1 5955.1 411.16
-2 -3 1 5091.69 410.76
-2 -3 1 5600.54 411.86
-2 -3 1 5409.96 411.36
-2 -3 1 6015.4 413.96
-2 -3 1 6175.38 430.26
1 3 -1 687.93 58.69
1 3 -1 668.93 76.19
1 3 -1 747.83 60.19
1 3 -1 673.63 59.09
1 3 -1 735.93 58.99
1 3 -1 738.13 59.29
-1 -3 1 862.51 59.79
-1 -3 1 734.53 81.79
-1 -3 1 885.41 59.89
-1 -3 1 842.12 59.59
-1 -3 1 769.52 59.29
0 3 -1 2284.07 165.88
0 3 -1 2292.07 166.18
0 3 -1 2203.28 166.78
0 3 -1 2106.99 165.98
0 -3 1 1947.81 182.08
0 -3 1 2155.58 167.78
0 -3 1 2356.46 166.18
0 -3 1 1900.21 170.08
-1 3 -1 9426.86 718.83
-1 3 -1 9999 727.63
1 -3 1 8433.36 720.43
1 -3 1 9663.83 727.63
-2 3 -1 1909.31 132.59
-2 3 -1 1879.21 130.69
-2 3 -1 1785.32 140.39
-2 3 -1 1664.73 130.49
-2 3 -1 1558.64 131.59
2 -3 1 1912.21 132.49
2 -3 1 1606.34 131.89
2 -3 1 1449.15 130.39
2 -3 1 1586.94 130.49
2 -3 1 1716.63 139.29
2 -3 1 1627.94 130.49
2 -3 1 1671.63 130.99
2 -3 1 1722.43 131.59
-3 3 -1 2188.08 176.28
-3 3 -1 1963.1 175.08
-3 3 -1 2209.88 174.78
-3 3 -1 2574.04 175.08
-3 3 -1 2502.75 175.78
-3 3 -1 2337.07 186.78
-3 3 -1 2535.85 176.68
3 -3 1 2129.79 176.08
3 -3 1 2073.89 174.68
3 -3 1 2170.58 175.98
3 -3 1 2591.34 177.88
3 -3 1 2220.48 184.78
3 -3 1 2151.18 174.78
3 -3 1 2131.79 175.38
3 -3 1 2383.56 175.48
-4 3 -1 4887.71 359.96
-4 3 -1 3934.51 345.77
-4 3 -1 4251.97 344.87
4 -3 1 5115.89 345.67
4 -3 1 4244.08 345.57
4 -3 1 4176.18 343.97
4 -3 1 4694.33 344.17
4 -3 1 4821.92 357.66
4 -3 1 4440.86 344.07
4 -3 1 4362.96 344.77
-5 3 -1 84.49 7.4
-5 3 -1 82.89 23.9
5 -3 1 66.99 9.2
5 -3 1 93.59 7.3
5 -3 1 80.29 7.2
5 -3 1 69.69 8.4
5 -3 1 98.59 22.5
-6 3 -1 3040.7 229.18
6 -3 1 3120.59 246.88
6 -3 1 2975.2 229.58
6 -3 1 2776.32 228.28
6 -3 1 2787.22 227.28
6 -3 1 3074.19 227.28
-7 3 -1 1205.68 99.79
7 -3 1 1188.78 120.09
7 -3 1 1338.17 100.59
7 -3 1 1159.28 98.79
7 -3 1 1278.17 97.49
7 -3 1 1281.97 97.69
7 -3 1 1435.76 136.49
-8 3 -1 129.49 22.9
-8 3 -1 163.28 18
8 -3 1 181.78 18.8
8 -3 1 180.08 15
8 -3 1 167.38 16.6
8 -3 1 221.38 53.49
8 -3 1 184.08 14.7
8 -3 1 193.58 43.1
-9 3 -1 976.1 92.49
-9 3 -1 1032.4 85.79
9 -3 1 1060.69 84.29
9 -3 1 1133.49 82.39
9 -3 1 1013.9 82.39
9 -3 1 1113.29 140.99
9 -3 1 1082.39 86.29
-10 3 -1 108.69 38.9
-10 3 -1 145.99 19.8
10 -3 1 143.59 13.9
10 -3 1 91.89 71.09
10 -3 1 155.88 16.9
10 -3 1 170.68 20.5
-11 3 -1 451.95 43.2
-11 3 -1 449.36 55.59
11 -3 1 491.05 44
11 -3 1 403.76 39.5
11 2 -1 448.66 48.4
11 2 -1 396.86 41.7
-11 -2 1 408.56 46
-11 -2 1 428.96 38.7
10 2 -1 381.06 39
10 2 -1 339.77 35
-10 -2 1 407.66 38.2
-10 -2 1 312.77 38.4
9 2 -1 3.3 7.6
9 2 -1 11.4 6.1
-9 -2 1 8.2 8.5
-9 -2 1 3.3 8.3
-9 -2 1 22.5 6.1
8 2 -1 862.71 112.69
8 2 -1 836.62 73.99
8 2 -1 964.9 76.39
8 2 -1 900.31 72.59
-8 -2 1 1008.2 77.29
-8 -2 1 913.41 76.79
-8 -2 1 884.51 72.89
7 2 -1 118.29 13.3
7 2 -1 113.59 10.8
7 2 -1 111.39 33.1
6 2 -1 983.4 71.69
6 2 -1 823.42 87.69
6 2 -1 926.51 93.69
6 2 -1 795.52 69.69
6 2 -1 851.31 68.19
-6 -2 1 860.41 69.29
-6 -2 1 852.01 74.19
-6 -2 1 922.41 71.99
5 2 -1 1808.72 159.28
5 2 -1 1942.51 158.18
5 2 -1 2110.69 177.68
5 2 -1 2077.99 160.68
-5 -2 1 2333.47 162.18
-5 -2 1 1846.02 158.08
-5 -2 1 2122.89 159.18
-5 -2 1 2220.28 161.28
4 2 -1 96.79 7.7
4 2 -1 68.09 19.6
-4 -2 1 72.49 7.4
-4 -2 1 88.89 9
3 2 -1 2604.84 238.48
3 2 -1 3447.86 240.28
3 2 -1 2952.8 238.78
3 2 -1 2896.81 239.28
3 2 -1 3487.35 251.17
-3 -2 1 3267.47 238.48
-3 -2 1 2804.32 237.88
-3 -2 1 3162.18 239.88
-3 -2 1 3125.09 250.27
-3 -2 1 3280.97 239.48
2 2 -1 1936.51 168.98
2 2 -1 2312.57 168.68
2 2 -1 2167.38 168.08
2 2 -1 2383.26 178.38
-2 -2 1 2116.09 177.18
-2 -2 1 2185.18 169.28
-2 -2 1 2210.88 169.58
-2 -2 1 2266.27 168.78
-2 -2 1 2014.6 168.38
-2 -2 1 2340.37 170.08
1 2 -1 63.99 7.2
1 2 -1 92.59 18.1
1 2 -1 54.49 5.1
1 2 -1 45.3 5.8
1 2 -1 54.59 5.1
-1 -2 1 67.99 5.2
-1 -2 1 58.89 5.1
0 2 -1 6225.08 413.76
0 -2 1 4913.61 411.16
0 -2 1 4920.81 417.86
-1 2 -1 3153.28 275.17
-1 2 -1 3687.83 280.07
-1 2 -1 3646.24 274.87
-1 2 -1 3361.56 275.67
1 -2 1 3565.34 275.27
1 -2 1 3925.81 275.87
1 -2 1 3601.34 279.77
1 -2 1 3743.03 276.17
-2 2 -1 381.96 30.3
-2 2 -1 379.86 30.8
-2 2 -1 409.06 30.6
-2 2 -1 365.26 31.8
-2 2 -1 448.36 29.9
-2 2 -1 421.86 30.1
2 -2 1 371.16 30.4
2 -2 1 363.56 30.4
2 -2 1 373.86 30.6
2 -2 1 378.76 31.6
2 -2 1 360.86 30
2 -2 1 369.16 36.2
-3 2 -1 2932.81 245.68
-3 2 -1 3077.39 246.08
-3 2 -1 3427.66 255.87
-3 2 -1 3028.3 245.98
-3 2 -1 3217.88 245.58
3 -2 1 3079.69 245.98
3 -2 1 3152.68 245.88
3 -2 1 3526.45 247.68
3 -2 1 2971.6 245.48
3 -2 1 3347.67 244.98
3 -2 1 3296.67 244.98
3 -2 1 3305.07 254.47
-4 2 -1 1551.14 126.39
-4 2 -1 1719.93 126.79
4 -2 1 1701.33 126.69
4 -2 1 1703.63 125.19
4 -2 1 1490.25 125.79
4 -2 1 1734.43 137.69
4 -2 1 1810.02 125.29
4 -2 1 1594.24 126.49
4 -2 1 1464.65 125.09
4 -2 1 1521.95 125.79
-5 2 -1 656.33 43.3
-5 2 -1 576.14 45.1
-5 2 -1 518.85 45
5 -2 1 551.64 45
5 -2 1 498.15 43.1
5 -2 1 497.85 43.7
5 -2 1 574.04 43.1
-6 2 -1 1627.74 118.09
-6 2 -1 1513.75 120.39
6 -2 1 1413.46 119.09
6 -2 1 1624.34 118.09
6 -2 1 1522.25 144.69
6 -2 1 1580.44 120.29
6 -2 1 1546.35 136.49
6 -2 1 1419.56 118.19
-7 2 -1 53.39 9
-7 2 -1 38 9.1
-7 2 -1 64.79 12.8
7 -2 1 28.1 18.3
7 -2 1 62.69 5.8
7 -2 1 47.8 43.7
7 -2 1 43.2 8.7
7 -2 1 46.9 7.1
-8 2 -1 469.75 42.8
8 -2 1 521.35 39.3
8 -2 1 505.35 42.7
8 -2 1 584.24 85.99
8 -2 1 469.95 71.19
8 -2 1 472.05 39.6
8 -2 1 497.55 41.1
-9 2 -1 645.54 54.59
-9 2 -1 543.55 59.19
9 -2 1 633.44 50.39
9 -2 1 661.43 54.09
9 -2 1 739.63 119.29
9 -2 1 642.74 52.29
-10 2 -1 77.39 16
-10 2 -1 35.7 20.3
10 -2 1 32.3 91.99
10 -2 1 60.89 8.8
-11 2 -1 716.23 65.29
-11 2 -1 643.34 72.59
11 -2 1 763.52 64.79
11 -2 1 713.83 61.39
11 -2 1 785.52 58.69
11 1 -1 879.31 73.79
11 1 -1 862.51 75.89
11 1 -1 924.01 79.99
-11 -1 1 965.6 81.39
-11 -1 1 904.11 81.39
10 1 -1 55.19 13.4
-10 -1 1 40.6 12.7
-10 -1 1 44.9 8.4
-10 -1 1 43.9 13.3
9 1 -1 1150.98 89.59
9 1 -1 1040.1 86.99
-9 -1 1 1053.29 85.69
-9 -1 1 1083.59 91.49
-9 -1 1 1079.39 90.09
8 1 -1 1069.09 84.59
8 1 -1 901.21 106.39
8 1 -1 998.8 82.49
8 1 -1 1114.99 80.19
-8 -1 1 1023.7 85.09
-8 -1 1 1070.19 81.69
-8 -1 1 989.4 86.49
7 1 -1 427.86 58.59
7 1 -1 517.25 41.1
7 1 -1 494.35 39
-7 -1 1 513.15 45
6 1 -1 2860.51 204.78
6 1 -1 2989.8 229.18
6 1 -1 2882.71 224.48
6 1 -1 2637.64 207.48
6 1 -1 2404.16 206.08
-6 -1 1 2255.37 204.58
-6 -1 1 2544.15 207.88
-6 -1 1 2736.43 209.88
-6 -1 1 2777.52 205.88
5 1 -1 1202.78 95.89
5 1 -1 1230.08 98.09
5 1 -1 1255.17 113.39
5 1 -1 1313.67 110.99
-5 -1 1 1360.36 98.79
-5 -1 1 1200.28 99.99
-5 -1 1 1167.18 97.29
4 1 -1 1790.42 144.89
4 1 -1 2095.89 158.08
4 1 -1 1834.42 143.29
4 1 -1 1610.44 143.99
-4 -1 1 1625.34 143.19
-4 -1 1 2033.5 145.49
-4 -1 1 2021.2 144.09
-4 -1 1 1959 146.99
3 1 -1 7562.54 609.34
3 1 -1 8756.12 608.84
3 1 -1 7902.61 617.84
3 1 -1 8772.82 609.84
-3 -1 1 7374.06 611.64
-3 -1 1 7277.57 609.54
2 1 -1 507.65 43.8
2 1 -1 551.34 37.9
2 1 -1 493.85 39.3
2 1 -1 492.95 38.3
2 1 -1 445.06 38.3
-2 -1 1 440.96 38.3
-2 -1 1 457.75 43.1
-2 -1 1 514.85 37.9
-2 -1 1 481.35 39.4
-2 -1 1 470.25 37.6
1 1 -1 3942.81 327.97
-1 -1 1 3872.01 327.87
-1 -1 1 4602.44 329.67
-1 -1 1 4648.83 327.57
0 -1 1 1997.6 149.69
0 -1 1 2056.59 148.89
0 -1 1 1753.52 149.59
-2 1 -1 2124.89 169.48
-2 1 -1 2480.45 167.78
-2 1 -1 2058.49 168.08
-2 1 -1 2009.4 168.38
-2 1 -1 2278.57 168.18
-2 1 -1 2117.69 168.28
2 -1 1 2116.19 168.28
2 -1 1 2319.97 174.38
2 -1 1 2118.59 168.08
2 -1 1 2414.86 167.68
2 -1 1 2095.69 168.38
2 -1 1 2196.68 167.78
2 -1 1 2104.79 168.08
-3 1 -1 1975.3 150.68
-3 1 -1 2230.78 149.49
-3 1 -1 1704.03 149.39
-3 1 -1 2015.7 150.08
-3 1 -1 1769.12 149.79
-3 1 -1 1778.72 150.08
3 -1 1 2059.09 162.08
3 -1 1 1967.6 150.58
3 -1 1 1921.01 158.38
3 -1 1 2013.8 149.39
3 -1 1 2124.29 151.68
3 -1 1 1825.92 150.18
3 -1 1 1807.12 149.88
3 -1 1 2067.69 149.49
-4 1 -1 88.89 10
-4 1 -1 120.19 10.2
-4 1 -1 121.09 9.6
-4 1 -1 95.19 10.8
-4 1 -1 109.69 9.1
4 -1 1 102.99 8.9
4 -1 1 97.19 9.7
4 -1 1 104.29 24.5
4 -1 1 109.49 10.4
4 -1 1 116.29 9.3
-5 1 -1 2258.47 180.48
-5 1 -1 2053.49 182.28
-5 1 -1 2205.28 179.38
-5 1 -1 2430.26 179.18
-5 1 -1 2698.83 179.88
5 -1 1 2186.48 193.78
5 -1 1 2278.47 180.78
5 -1 1 2550.14 179.58
5 -1 1 2347.86 179.18
5 -1 1 2178.78 180.18
5 -1 1 2457.85 200.58
-6 1 -1 196.28 16.3
-6 1 -1 190.68 18.8
6 -1 1 178.08 17.9
6 -1 1 214.38 15.8
6 -1 1 176.68 16.9
6 -1 1 166.68 32.1
6 -1 1 246.38 44.9
-7 1 -1 541.35 49
-7 1 -1 712.73 49.3
-7 1 -1 593.34 52.19
7 -1 1 674.33 51.69
7 -1 1 640.84 48.7
7 -1 1 623.24 84.19
7 -1 1 629.44 73.19
7 -1 1 559.34 50.09
-8 1 -1 1317.67 107.79
-8 1 -1 1295.87 103.99
8 -1 1 1428.56 103.79
8 -1 1 1271.77 105.39
8 -1 1 1535.95 149.59
8 -1 1 1299.37 106.59
8 -1 1 1282.57 132.19
-9 1 -1 16.2 11.5
-9 1 -1 12.9 7.2
9 -1 1 25 4.9
9 -1 1 17.3 3.3
9 -1 1 15.4 5.2
9 -1 1 22.8 7.6
-10 1 -1 786.62 74.59
-10 1 -1 741.53 79.29
10 -1 1 829.72 64.09
10 -1 1 825.42 68.29
10 -1 1 794.42 66.79
-11 1 -1 574.74 59.69
-11 1 -1 582.94 65.39
11 -1 1 732.93 59.19
11 -1 1 692.63 52.59
11 -1 1 614.84 55.69
11 0 -1 420.36 38.5
11 0 -1 436.46 42.6
11 0 -1 392.56 36.5
-11 0 1 386.86 42.7
-11 0 1 453.15 47.1
10 0 -1 225.68 23.3
10 0 -1 207.48 29.3
10 0 -1 252.27 22.2
-10 0 1 247.48 30.4
9 0 -1 2006.5 194.58
9 0 -1 1983.5 152.48
9 0 -1 1797.42 150.08
9 0 -1 2136.59 149.59
-9 0 1 1876.91 149.09
-9 0 1 1855.61 155.98
-9 0 1 1781.92 152.58
8 0 -1 118.99 11
8 0 -1 126.79 45.1
8 0 -1 101.29 34
8 0 -1 155.98 14
-8 0 1 118.29 12.8
-8 0 1 130.69 11
-8 0 1 148.09 16.6
7 0 -1 1577.74 144.79
7 0 -1 1784.22 116.39
7 0 -1 1438.86 136.69
7 0 -1 1449.15 119.49
7 0 -1 1431.06 117.99
-7 0 1 1363.26 122.39
-7 0 1 1519.95 117.49
-7 0 1 1512.45 120.09
6 0 -1 3862.71 338.37
6 0 -1 4686.13 360.36
6 0 -1 4414.46 337.37
6 0 -1 4191.58 339.67
6 0 -1 4504.15 355.06
6 0 -1 4676.93 337.17
-6 0 1 4597.34 337.77
-6 0 1 4409.76 342.97
-6 0 1 4337.07 338.07
-6 0 1 4342.47 340.07
5 0 -1 92.99 7.3
5 0 -1 97.29 20.7
5 0 -1 85.29 7.7
5 0 -1 118.69 25.9
5 0 -1 73.99 8.6
-5 0 1 96.49 8.1
-5 0 1 80.99 8.4
-5 0 1 86.09 13.4
4 0 -1 5908.41 466.55
4 0 -1 6294.37 467.75
4 0 -1 6968.2 466.95
4 0 -1 5389.86 466.75
4 0 -1 6387.86 477.25
-4 0 1 6005.2 470.05
-4 0 1 5759.02 466.65
-4 0 1 5985.8 467.85
3 0 -1 6368.76 495.05
-3 0 1 6366.66 494.95
-3 0 1 6617.74 497.15
2 0 -1 379.56 31.5
2 0 -1 452.95 31
2 0 -1 351.56 30.5
2 0 -1 335.07 34.7
2 0 -1 424.96 33.2
-2 0 1 419.56 31.2
-2 0 1 463.95 31.6
-2 0 1 377.86 32.9
-2 0 1 393.66 31
-2 0 1 372.66 30.6
0 0 -1 2841.52 224.98
-1 0 -1 2956.1 222.68
-1 0 -1 2958.4 217.38
1 0 1 2455.65 216.48
1 0 1 2671.33 216.48
1 0 1 2877.01 222.48
1 0 1 3037.4 217.18
-2 0 -1 4973.3 419.76
-2 0 -1 5630.24 420.36
-2 0 -1 6100.29 429.36
2 0 1 5190.58 419.86
-3 0 -1 848.62 64.39
-3 0 -1 744.63 64.79
-3 0 -1 874.11 62.89
-3 0 -1 760.72 63.19
-3 0 -1 813.52 62.49
-3 0 -1 803.02 75.09
-3 0 -1 939.41 62.79
3 0 1 805.02 64.29
3 0 1 868.41 62.69
3 0 1 792.62 63.89
3 0 1 693.83 62.99
3 0 1 881.51 62.79
3 0 1 756.92 74.19
3 0 1 744.63 63.29
-4 0 -1 2008.9 169.38
-4 0 -1 2487.15 168.68
-4 0 -1 2501.55 168.18
-4 0 -1 2086.49 167.88
-4 0 -1 2102.39 170.18
-4 0 -1 2144.99 168.38
4 0 1 2039.9 169.08
4 0 1 2337.47 168.38
4 0 1 1896.11 168.68
4 0 1 2223.58 184.78
4 0 1 2227.08 168.08
-5 0 -1 2285.87 153.98
-5 0 -1 1690.03 153.58
-5 0 -1 2078.89 156.88
-5 0 -1 2138.79 154.68
-5 0 -1 2075.89 154.38
5 0 1 1861.21 155.38
5 0 1 2018.2 153.98
5 0 1 2057.39 171.08
5 0 1 1801.32 154.78
-6 0 -1 383.46 32.4
-6 0 -1 375.96 28.5
6 0 1 367.46 30
6 0 1 343.17 28.6
6 0 1 294.77 45.6
6 0 1 345.47 57.49
-7 0 -1 2144.89 180.88
-7 0 -1 2365.16 177.68
7 0 1 2563.84 177.18
7 0 1 2165.88 179.48
7 0 1 2115.69 178.48
7 0 1 2244.08 201.58
7 0 1 2521.15 210.18
-8 0 -1 976.6 80.69
-8 0 -1 961.2 76.29
-8 0 -1 894.01 75.19
8 0 1 947.41 107.59
8 0 1 943.81 118.09
8 0 1 917.11 77.59
8 0 1 1093.49 75.69
8 0 1 986 78.99
-9 0 -1 656.53 61.09
-9 0 -1 673.33 63.49
-9 0 -1 691.03 56.09
9 0 1 781.42 116.69
9 0 1 666.63 57.79
9 0 1 745.63 55.19
9 0 1 727.43 59.79
-10 0 -1 1466.05 121.09
-10 0 -1 1625.74 130.39
-10 0 -1 1547.75 127.69
10 0 1 1500.75 123.39
10 0 1 1595.04 126.79
-11 0 -1 322.27 40.6
-11 0 -1 250.87 39.2
11 0 1 319.87 30.2
11 0 1 275.07 31.3
11 0 1 289.27 34.3
11 -1 -1 3.5 6.1
11 -1 -1 6.1 6
11 -1 -1 19.2 10.8
-11 1 1 13.4 10.3
-11 1 1 1.7 15
10 -1 -1 775.92 66.89
10 -1 -1 884.21 63.19
10 -1 -1 776.62 64.09
-10 1 1 712.43 71.39
-10 1 1 751.22 66.69
9 -1 -1 740.23 140.89
9 -1 -1 976.3 76.69
9 -1 -1 999.4 73.49
9 -1 -1 947.61 74.29
-9 1 1 911.01 76.39
-9 1 1 835.72 80.69
8 -1 -1 107.89 11.6
8 -1 -1 127.99 9.8
8 -1 -1 107.49 14.4
8 -1 -1 90.49 33.5
8 -1 -1 115.79 12.3
-8 1 1 129.69 11.7
-8 1 1 107.69 18.3
-8 1 1 121.59 14.6
7 -1 -1 2205.68 150.78
7 -1 -1 1829.02 151.58
7 -1 -1 2025.2 172.88
7 -1 -1 1887.61 152.48
7 -1 -1 2110.99 154.38
7 -1 -1 2086.89 152.08
-7 1 1 1859.61 152.28
-7 1 1 1994 154.18
-7 1 1 1677.63 157.18
6 -1 -1 1967.9 155.38
6 -1 -1 2016.9 155.48
6 -1 -1 2123.39 172.58
6 -1 -1 1896.11 155.68
6 -1 -1 1958.4 156.98
6 -1 -1 2135.79 154.38
-6 1 1 1993.7 160.88
-6 1 1 2024.9 157.08
5 -1 -1 1204.48 105.79
5 -1 -1 1119.59 92.79
5 -1 -1 1189.78 92.59
5 -1 -1 1211.58 94.99
5 -1 -1 1359.26 93.19
5 -1 -1 1318.77 91.79
-5 1 1 1201.78 93.99
-5 1 1 993.3 91.69
-5 1 1 1163.78 97.29
4 -1 -1 5438.56 432.46
4 -1 -1 5388.46 432.56
4 -1 -1 5798.32 433.56
4 -1 -1 6000.8 433.46
-4 1 1 5367.46 433.36
-4 1 1 5849.11 436.46
3 -1 -1 2486.55 187.88
3 -1 -1 2270.57 179.58
3 -1 -1 2167.38 179.48
3 -1 -1 2383.96 179.58
3 -1 -1 2645.64 180.48
-3 1 1 2277.77 179.48
-3 1 1 2518.15 188.38
-3 1 1 2242.18 182.38
-3 1 1 2070.09 179.98
2 -1 -1 824.82 66.89
2 -1 -1 990.6 67.59
2 -1 -1 806.32 67.49
2 -1 -1 819.62 66.99
-2 1 1 815.62 69.19
-2 1 1 792.32 66.89
-2 1 1 899.81 66.69
-2 1 1 838.92 67.29
-2 1 1 897.51 67.09
-2 1 1 916.61 67.59
-2 1 1 976.2 73.99
1 -1 -1 6224.98 429.36
1 -1 -1 6049.59 435.66
1 -1 -1 5071.69 428.06
-1 1 1 4984.6 428.76
0 -1 -1 93.89 6.9
0 -1 -1 87.29 7.5
0 -1 -1 89.79 22.4
0 -1 -1 74.99 8.4
0 1 1 92.79 7.7
0 1 1 74.59 7.9
0 1 1 84.69 6.9
0 1 1 110.19 24
0 1 1 83.89 6.9
-1 -1 -1 1164.28 88.09
-1 -1 -1 985.9 87.89
-1 -1 -1 1164.98 98.89
-1 -1 -1 1152.78 88.29
1 1 1 1185.68 87.79
1 1 1 1200.18 87.99
1 1 1 1219.28 87.99
1 1 1 1033.2 87.59
-2 -1 -1 2588.14 214.48
-2 -1 -1 2295.27 213.08
-2 -1 -1 2750.92 225.98
-2 -1 -1 2892.51 214.68
-2 -1 -1 3003.7 213.78
2 1 1 2989.4 213.58
2 1 1 2473.55 213.28
2 1 1 3012.4 214.08
2 1 1 2803.92 213.88
2 1 1 2784.22 214.08
2 1 1 3011.5 226.18
-3 -1 -1 286.77 37.6
-3 -1 -1 275.87 26.4
-3 -1 -1 321.27 25.2
-3 -1 -1 264.67 24.4
-3 -1 -1 309.57 26.6
3 1 1 298.17 24.7
3 1 1 341.37 24.6
3 1 1 361.26 25.1
3 1 1 304.07 38.8
3 1 1 288.37 25.2
3 1 1 268.27 26.3
3 1 1 350.16 25.9
3 1 1 319.87 25.9
3 1 1 363.96 25.9
-4 -1 -1 3537.15 246.48
-4 -1 -1 3161.68 263.27
-4 -1 -1 3246.38 244.08
4 1 1 3130.59 243.58
4 1 1 2981.9 244.68
4 1 1 2782.32 244.18
4 1 1 3243.38 245.18
4 1 1 3303.77 262.47
-5 -1 -1 1264.27 91.39
-5 -1 -1 1193.58 93.79
-5 -1 -1 1190.98 114.19
-5 -1 -1 1090.39 90.09
-5 -1 -1 1124.69 90.49
-6 -1 -1 753.92 66.19
-6 -1 -1 829.12 63.39
6 1 1 850.61 62.69
6 1 1 811.02 91.69
6 1 1 797.42 64.79
6 1 1 761.42 63.89
-7 -1 -1 2594.24 201.78
-7 -1 -1 2645.94 205.68
7 1 1 2668.13 203.88
7 1 1 2748.53 235.38
7 1 1 2355.96 225.38
7 1 1 2765.92 201.08
7 1 1 2453.75 202.68
-8 -1 -1 74.79 15.4
-8 -1 -1 76.29 9.9
-8 -1 -1 69.69 15.2
8 1 1 73.19 11.6
8 1 1 68.79 34.1
8 1 1 99.99 44.2
8 1 1 97.19 9.1
8 1 1 80.29 13.2
-9 -1 -1 1553.14 131.49
-9 -1 -1 1722.93 132.39
-9 -1 -1 1482.45 125.69
9 1 1 1558.54 127.79
9 1 1 1622.14 124.79
9 1 1 1696.03 129.69
-10 -1 -1 1616.24 120.19
-10 -1 -1 1368.66 119.39
-10 -1 -1 1293.97 111.99
10 1 1 1421.56 114.99
10 1 1 1417.16 121.89
-11 -1 -1 16 8.5
-11 -1 -1 2.7 15.5
-11 -1 -1 4.4 14.3
11 1 1 36.8 15.4
11 1 1 -3.4 9.4
11 -2 -1 448.86 37.2
11 -2 -1 440.36 38.9
11 -2 -1 479.15 43.3
-11 2 1 410.66 50.89
-11 2 1 426.16 42.1
10 -2 -1 1272.47 92.79
10 -2 -1 1204.88 96.69
10 -2 -1 1203.48 93.99
-10 2 1 1029.9 101.99
-10 2 1 1156.58 95.99
9 -2 -1 55.19 11.6
9 -2 -1 51.29 8.4
9 -2 -1 47.1 7.3
-9 2 1 54.79 10.9
-9 2 1 58.39 11.1
-9 2 1 51.19 15.3
8 -2 -1 824.32 64.19
8 -2 -1 914.01 66.69
8 -2 -1 928.31 106.29
8 -2 -1 793.92 63.39
8 -2 -1 807.02 89.29
-8 2 1 741.23 65.39
-8 2 1 772.42 71.29
-8 2 1 734.63 64.69
7 -2 -1 2134.09 163.98
7 -2 -1 2134.79 162.88
7 -2 -1 2336.97 186.18
7 -2 -1 2191.18 166.28
7 -2 -1 2058.89 164.48
-7 2 1 2266.67 165.98
-7 2 1 2113.79 170.98
-7 2 1 1806.12 162.78
6 -2 -1 26.7 6.7
6 -2 -1 32.7 3.2
6 -2 -1 34.8 5.7
6 -2 -1 33.8 24.2
-6 2 1 33 3.1
-6 2 1 34.3 7.2
-6 2 1 39.7 6.1
-6 2 1 27.4 8.3
5 -2 -1 1729.73 151.08
5 -2 -1 2007.2 165.28
5 -2 -1 1826.72 151.38
-5 2 1 1814.12 152.08
-5 2 1 2266.67 150.58
-5 2 1 2172.68 167.88
4 -2 -1 1717.93 123.99
4 -2 -1 1551.24 134.79
4 -2 -1 1478.15 123.79
4 -2 -1 1635.44 123.79
4 -2 -1 1855.51 125.99
-4 2 1 1411.56 127.29
-4 2 1 1563.94 123.89
-4 2 1 1423.96 124.29
-4 2 1 1802.52 123.29
3 -2 -1 351.86 30.1
3 -2 -1 366.36 29.2
3 -2 -1 383.66 29.2
3 -2 -1 377.76 38.7
3 -2 -1 380.76 30
-3 2 1 346.07 29.5
-3 2 1 369.86 29.2
-3 2 1 389.76 29.3
-3 2 1 385.46 39.7
-3 2 1 377.06 32.3
-3 2 1 368.06 30.2
2 -2 -1 1949.51 155.08
2 -2 -1 1913.51 157.68
2 -2 -1 2061.79 155.68
2 -2 -1 2042.5 155.18
2 -2 -1 2038.1 155.98
2 -2 -1 2152.18 165.68
2 -2 -1 1867.21 155.18
-2 2 1 2031.5 156.08
-2 2 1 2067.09 155.38
-2 2 1 2211.48 166.58
-2 2 1 1783.82 155.38
-2 2 1 1958.1 157.48
-2 2 1 2228.58 155.28
1 -2 -1 1332.77 95.49
1 -2 -1 1237.98 94.79
1 -2 -1 1294.57 94.69
1 -2 -1 1127.59 94.49
1 -2 -1 1277.77 94.89
1 -2 -1 1162.98 108.19
1 -2 -1 1178.68 94.59
-1 2 1 1318.17 94.79
-1 2 1 1091.39 95.99
0 -2 -1 202.18 15.8
0 -2 -1 198.18 14.7
0 -2 -1 174.48 40.5
0 -2 -1 159.38 15
0 2 1 180.58 16.1
0 2 1 196.68 14.9
0 2 1 264.17 41.9
0 2 1 159.18 15.3
-1 -2 -1 85.59 7.4
-1 -2 -1 80.89 8.4
-1 -2 -1 74.79 22.3
-1 -2 -1 97.49 8.8
1 2 1 78.69 8.1
1 2 1 96.59 8.1
1 2 1 137.59 27.3
1 2 1 95.19 7.8
-2 -2 -1 487.35 45.4
-2 -2 -1 567.74 45.1
-2 -2 -1 612.14 44.5
-2 -2 -1 509.55 45
-2 -2 -1 612.34 46
-2 -2 -1 562.54 61.89
2 2 1 546.95 44.8
2 2 1 474.35 44.3
2 2 1 625.44 44.7
2 2 1 641.94 44.9
2 2 1 639.54 62.19
-3 -2 -1 2063.49 150.18
-3 -2 -1 1936.81 171.08
-3 -2 -1 1956.6 151.18
-3 -2 -1 1723.23 151.98
3 2 1 1945.21 150.98
3 2 1 2125.49 151.88
3 2 1 1693.73 150.88
3 2 1 2131.99 151.68
3 2 1 1724.23 150.28
3 2 1 2103.29 150.18
3 2 1 2085.49 169.78
-4 -2 -1 2297.87 172.08
-4 -2 -1 2281.87 170.18
-4 -2 -1 2286.27 168.78
-4 -2 -1 2012.2 191.68
4 2 1 2166.88 168.68
4 2 1 2085.09 170.08
4 2 1 2018.2 169.18
4 2 1 2399.56 192.48
4 2 1 2353.56 171.08
4 2 1 2067.79 170.08
-6 -2 -1 2535.15 199.08
-6 -2 -1 2464.95 195.98
-6 -2 -1 2515.25 231.08
6 2 1 2448.46 196.68
6 2 1 2585.04 197.68
6 2 1 2689.93 226.48
6 2 1 2491.35 195.08
-7 -2 -1 1447.16 127.69
-7 -2 -1 1588.24 128.99
-7 -2 -1 1630.34 125.39
7 2 1 1599.44 126.39
7 2 1 1663.43 124.29
7 2 1 1631.44 127.49
7 2 1 1642.54 163.08
-8 -2 -1 368.66 38.1
-8 -2 -1 397.76 37.2
-8 -2 -1 392.86 33.5
8 2 1 362.36 32
8 2 1 418.86 36.8
8 2 1 409.46 81.49
8 2 1 389.16 35.2
-9 -2 -1 1354.16 99.99
-9 -2 -1 1022.7 94.39
-9 -2 -1 1131.49 101.69
9 2 1 1141.39 99.09
9 2 1 1312.87 99.39
9 2 1 1183.98 93.59
-10 -2 -1 516.75 48.4
-10 -2 -1 406.16 51.19
10 2 1 494.65 47.1
10 2 1 572.54 50.39
11 -3 -1 1155.08 91.29
11 -3 -1 1191.38 94.49
11 -3 -1 1200.08 89.19
-11 3 1 1103.89 92.69
-11 3 1 959.1 101.09
10 -3 -1 768.92 66.09
10 -3 -1 827.62 61.69
10 -3 -1 814.02 62.89
-10 3 1 714.73 64.19
-10 3 1 800.12 63.29
-10 3 1 691.93 73.09
9 -3 -1 364.06 30.4
9 -3 -1 313.57 87.49
9 -3 -1 420.36 29.7
-9 3 1 311.17 38.6
-9 3 1 318.87 31.4
-9 3 1 352.86 31.9
8 -3 -1 2110.69 163.88
8 -3 -1 2356.86 192.08
8 -3 -1 2112.69 163.18
8 -3 -1 2185.58 166.08
-8 3 1 1942.11 164.78
-8 3 1 2127.99 161.88
-8 3 1 1991.4 171.28
7 -3 -1 1386.56 112.49
7 -3 -1 1461.75 111.99
7 -3 -1 1445.36 114.39
-7 3 1 1393.96 110.99
-7 3 1 1292.27 118.39
-7 3 1 1574.74 110.99
-7 3 1 1461.95 113.49
-7 3 1 1564.04 137.99
6 -3 -1 1343.07 115.19
6 -3 -1 1241.88 97.99
-6 3 1 1482.55 119.99
-6 3 1 1223.08 97.09
-6 3 1 1082.99 95.09
-6 3 1 1170.78 101.59
5 -3 -1 2192.98 160.78
5 -3 -1 1966.2 160.88
5 -3 -1 2172.88 176.88
5 -3 -1 2317.77 162.68
-5 3 1 1935.21 160.08
-5 3 1 2358.96 180.48
-5 3 1 1980.4 165.38
-5 3 1 1833.82 161.28
4 -3 -1 162.88 15.1
4 -3 -1 147.09 13.3
4 -3 -1 171.88 26.1
4 -3 -1 169.18 13.6
-4 3 1 153.18 12.8
-4 3 1 158.98 28.1
-4 3 1 160.98 14
-4 3 1 167.98 13.7
-4 3 1 168.58 13.8
-4 3 1 151.48 17.6
3 -3 -1 2192.58 177.98
3 -3 -1 2164.68 179.08
3 -3 -1 2174.88 177.98
3 -3 -1 2321.07 191.48
3 -3 -1 2604.54 178.88
-3 3 1 2622.74 194.38
-3 3 1 2451.45 178.18
-3 3 1 1932.41 180.48
-3 3 1 1908.11 177.68
-3 3 1 2430.66 177.78
-3 3 1 2385.36 178.18
-3 3 1 2640.94 180.58
2 -3 -1 1206.08 86.29
2 -3 -1 1142.19 100.99
2 -3 -1 1163.18 86.19
2 -3 -1 1159.58 87.39
2 -3 -1 1236.08 86.49
2 -3 -1 1008.9 86.09
2 -3 -1 1151.78 86.09
-2 3 1 970.3 87.99
-2 3 1 1108.39 86.29
-2 3 1 987.8 86.49
1 -3 -1 514.05 34
1 -3 -1 426.16 34
-1 3 1 391.46 35.3
-1 3 1 385.96 33.8
0 -3 -1 1291.87 95.19
0 -3 -1 1207.68 99.39
0 3 1 1155.08 95.79
0 3 1 1224.68 95.69
0 3 1 1388.66 95.29
0 3 1 1103.59 96.69
-1 -3 -1 1925.81 147.29
-1 -3 -1 1844.32 148.09
-1 -3 -1 1717.13 147.99
-1 -3 -1 2086.29 148.59
-1 -3 -1 2273.97 192.58
1 3 1 2013.2 147.69
1 3 1 1725.23 147.89
1 3 1 1870.31 148.99
-2 -3 -1 956.2 85.29
-2 -3 -1 1282.57 88.79
-2 -3 -1 1033.6 86.39
-2 -3 -1 1220.88 85.49
-2 -3 -1 1274.67 118.99
-2 -3 -1 1025.7 86.29
2 3 1 944.31 86.89
2 3 1 1013.2 85.29
2 3 1 1164.18 108.69
2 3 1 1099.89 85.99
2 3 1 1178.18 86.29
-3 -3 -1 4950.7 385.56
-3 -3 -1 5029.8 386.26
-3 -3 -1 5362.96 417.46
-3 -3 -1 5149.08 387.06
3 3 1 4509.25 384.46
3 3 1 5415.46 409.46
3 3 1 4678.63 385.36
3 3 1 4972.1 384.46
3 3 1 5084.39 384.46
-4 -3 -1 294.57 56.79
-4 -3 -1 278.37 23.4
-4 -3 -1 252.87 21.7
4 3 1 256.17 19.5
4 3 1 211.78 20.5
4 3 1 237.78 21.6
4 3 1 303.47 51.89
4 3 1 209.38 20.5
-5 -3 -1 2523.85 249.18
-5 -3 -1 2830.22 217.68
-5 -3 -1 2726.03 215.68
5 3 1 3188.58 217.58
5 3 1 2722.73 215.98
5 3 1 2492.35 214.38
5 3 1 2942.71 245.28
-6 -3 -1 2205.08 231.18
-6 -3 -1 2421.36 189.68
-6 -3 -1 2298.27 186.88
6 3 1 2600.64 221.98
6 3 1 2518.25 187.98
6 3 1 2339.67 185.78
-7 -3 -1 2.9 4.8
-7 -3 -1 1.9 5.6
-7 -3 -1 0.8 6.5
-7 -3 -1 60.69 54.49
7 3 1 16.9 4.1
7 3 1 8.1 5.4
7 3 1 10.1 6.7
-8 -3 -1 1442.26 103.09
-8 -3 -1 1140.69 104.09
-8 -3 -1 1098.59 100.09
8 3 1 1279.37 102.59
8 3 1 1370.76 104.29
8 3 1 1214.18 98.99
-9 -3 -1 615.44 50.79
-9 -3 -1 501.65 53.99
-9 -3 -1 467.95 47.8
9 3 1 539.85 46.5
9 3 1 664.93 54.29
9 3 1 589.64 51.69
-10 -3 -1 18.5 14
-10 -3 -1 6.4 9.9
10 3 1 5 12.1
10 3 1 25.5 15.7
11 -4 -1 1543.95 110.99
11 -4 -1 1533.65 116.49
-11 4 1 1333.07 114.89
-11 4 1 1214.48 123.49
10 -4 -1 245.68 106.29
10 -4 -1 289.97 21.9
10 -4 -1 246.78 22.9
-10 4 1 216.68 25
-10 4 1 228.18 24.2
9 -4 -1 997.6 78.19
9 -4 -1 1232.08 143.29
9 -4 -1 996.5 81.89
9 -4 -1 996.2 79.09
-9 4 1 981.4 80.19
-9 4 1 930.11 88.09
8 -4 -1 2274.47 181.48
8 -4 -1 2414.36 184.68
8 -4 -1 2285.77 182.08
8 -4 -1 2518.35 211.38
-8 4 1 2716.33 217.78
-8 4 1 2253.07 182.98
-8 4 1 2460.95 180.48
-8 4 1 2014.3 188.88
7 -4 -1 23.6 4.9
7 -4 -1 7.9 22
7 -4 -1 27.8 6.8
-7 4 1 19.2 2.7
-7 4 1 -11.6 21.6
-7 4 1 19 3
6 -4 -1 2717.93 201.28
6 -4 -1 2618.44 198.88
6 -4 -1 2718.23 199.38
6 -4 -1 2773.02 220.78
-6 4 1 2236.18 200.28
-6 4 1 2472.85 198.18
-6 4 1 2993.9 225.78
-6 4 1 2237.58 203.98
5 -4 -1 1435.26 123.89
5 -4 -1 1450.95 105.19
5 -4 -1 1279.17 106.59
5 -4 -1 1323.07 104.89
-5 4 1 1320.37 104.39
-5 4 1 1323.27 105.39
-5 4 1 1221.78 109.19
-5 4 1 1568.14 128.39
4 -4 -1 381.26 29.5
4 -4 -1 409.96 46.7
-4 4 1 320.67 33.2
-4 4 1 322.97 29.4
-4 4 1 353.26 28.9
-4 4 1 403.76 49
-4 4 1 421.26 29.2
3 -4 -1 3870.81 302.17
3 -4 -1 3773.02 285.07
3 -4 -1 3493.35 283.37
3 -4 -1 3737.93 283.57
-3 4 1 3513.85 283.37
-3 4 1 3404.66 285.97
-3 4 1 4242.98 283.47
-3 4 1 3488.95 283.07
2 -4 -1 839.72 58.89
2 -4 -1 613.34 74.19
2 -4 -1 828.92 58.49
2 -4 -1 702.73 58.69
2 -4 -1 789.92 60.79
2 -4 -1 726.53 59.09
-2 4 1 709.13 58.39
-2 4 1 744.83 60.79
1 -4 -1 2852.01 223.08
1 -4 -1 3028.1 223.78
1 -4 -1 2917.31 226.68
-1 4 1 2697.43 223.18
-1 4 1 2759.32 224.68
-1 4 1 3165.28 224.68
0 -4 -1 4619.64 335.87
0 -4 -1 4442.96 340.77
0 -4 -1 4563.74 335.17
0 4 1 4636.74 335.27
0 4 1 3994.9 335.47
0 4 1 4531.75 335.87
0 4 1 3741.53 336.97
-1 -4 -1 57.69 12.9
-1 -4 -1 47.9 8.2
-1 -4 -1 61.09 7
-1 -4 -1 76.39 43.3
1 4 1 59.19 6.9
1 4 1 32.1 21.5
1 4 1 64.09 7.8
1 4 1 46.7 8.6
1 4 1 58.29 6.6
-2 -4 -1 9520.05 682.73
-2 -4 -1 9524.65 733.13
-2 -4 -1 7590.94 677.93
2 4 1 8613.24 704.33
2 4 1 8999.8 678.43
-3 -4 -1 2216.18 168.58
-3 -4 -1 2011 168.28
-3 -4 -1 2143.09 211.28
3 4 1 2205.98 167.68
3 4 1 2044.8 167.08
3 4 1 2314.77 168.48
-4 -4 -1 599.74 55.79
-4 -4 -1 617.94 52.99
-4 -4 -1 707.83 58.09
-4 -4 -1 753.52 104.39
-4 -4 -1 685.63 55.59
4 4 1 697.63 53.39
4 4 1 746.83 56.09
4 4 1 677.63 54.29
4 4 1 674.13 53.39
4 4 1 664.53 86.89
-5 -4 -1 3605.64 298.67
-5 -4 -1 3697.53 299.97
-5 -4 -1 4023.8 298.07
-5 -4 -1 3662.23 347.07
5 4 1 3864.11 297.67
5 4 1 3995.8 332.27
5 4 1 4400.96 300.07
5 4 1 3561.94 296.97
-6 -4 -1 809.32 61.29
-6 -4 -1 595.74 138.89
-6 -4 -1 742.43 63.39
-6 -4 -1 692.83 61.29
6 4 1 817.62 62.99
6 4 1 681.43 59.79
-7 -4 -1 453.35 99.89
-7 -4 -1 434.36 45.2
-7 -4 -1 448.16 42.4
-7 -4 -1 557.24 42.7
7 4 1 471.35 41.1
7 4 1 539.85 45.1
-8 -4 -1 1204.68 93.29
8 4 1 1194.58 97.29
8 4 1 1044.8 91.39
-9 -4 -1 183.48 24.6
-9 -4 -1 159.78 30
9 4 1 221.78 29.6
9 4 1 251.27 32.2
9 4 1 187.08 21.9
11 -5 -1 644.44 49.8
11 -5 -1 617.44 56.09
11 -5 -1 668.13 56.29
-11 5 1 572.44 66.89
-11 5 1 582.74 54.79
-11 5 1 573.24 56.29
10 -5 -1 47.5 8.7
10 -5 -1 44 6.6
10 -5 -1 10.6 81.49
10 -5 -1 36.2 9.7
-10 5 1 23.4 9.6
-10 5 1 41.5 8.5
-10 5 1 43.4 17.1
9 -5 -1 1141.19 90.59
9 -5 -1 1254.57 94.19
9 -5 -1 1248.78 90.09
-9 5 1 1068.39 91.29
-9 5 1 1017.1 99.19
8 -5 -1 687.23 91.89
8 -5 -1 742.03 58.89
8 -5 -1 719.93 61.59
8 -5 -1 734.73 58.29
-8 5 1 703.83 66.59
-8 5 1 894.71 103.69
-8 5 1 744.53 59.59
-8 5 1 749.53 57.39
7 -5 -1 502.25 41.6
7 -5 -1 522.45 69.19
7 -5 -1 546.05 44.4
7 -5 -1 524.75 41.3
-7 5 1 520.15 40.5
-7 5 1 469.85 41.8
-7 5 1 501.35 48.1
-7 5 1 630.74 78.49
6 -5 -1 1094.49 89.29
6 -5 -1 1058.59 86.69
6 -5 -1 1214.68 112.79
6 -5 -1 1141.09 87.09
-6 5 1 1314.87 118.99
-6 5 1 1007.1 91.89
-6 5 1 1102.49 87.29
-6 5 1 1102.99 86.19
5 -5 -1 303.07 23.4
5 -5 -1 292.37 44.6
-5 5 1 253.77 27.1
-5 5 1 257.67 22.4
-5 5 1 280.07 23.2
-5 5 1 348.47 53.29
4 -5 -1 1963.1 170.88
4 -5 -1 2063.29 148.89
4 -5 -1 1949.51 150.78
4 -5 -1 1842.82 148.59
-4 5 1 1831.62 148.09
-4 5 1 1896.31 148.49
3 -5 -1 2035.7 152.18
3 -5 -1 1929.61 151.28
3 -5 -1 1893.31 173.78
3 -5 -1 2011.9 154.28
3 -5 -1 1965.1 151.78
-3 5 1 1879.91 151.28
-3 5 1 2009.6 154.48
2 -5 -1 209.08 19.6
2 -5 -1 220.98 21
2 -5 -1 330.67 67.69
2 -5 -1 261.17 20.9
2 -5 -1 278.67 24.4
-2 5 1 266.47 20.1
-2 5 1 199.28 24.4
-2 5 1 269.47 22.7
1 -5 -1 3687.93 318.77
1 -5 -1 4360.76 315.47
1 -5 -1 4048.29 314.37
-1 5 1 4482.25 314.87
-1 5 1 4524.65 316.37
-1 5 1 3550.94 317.17
-1 5 1 3997 316.07
0 -5 -1 1172.38 159.08
0 -5 -1 1381.46 119.69
0 -5 -1 1615.54 113.09
0 5 1 1387.66 112.89
0 5 1 1578.54 113.89
-1 -5 -1 1063.29 163.38
-1 -5 -1 1402.06 103.99
-1 -5 -1 1397.96 103.29
-1 -5 -1 1233.08 110.69
1 5 1 1251.67 105.29
1 5 1 1412.16 103.09
-2 -5 -1 3566.44 276.17
-2 -5 -1 3330.57 281.47
-2 -5 -1 4066.59 275.87
2 5 1 3645.64 274.87
2 5 1 3194.68 276.57
-3 -5 -1 230.68 21.6
-3 -5 -1 213.78 26.8
-3 -5 -1 240.08 19.9
-3 -5 -1 283.17 85.79
3 5 1 262.47 22.7
3 5 1 237.58 56.09
3 5 1 230.58 20.7
3 5 1 198.48 21.8
-4 -5 -1 965.4 85.79
-4 -5 -1 1132.19 79.29
-4 -5 -1 873.51 81.69
-4 -5 -1 1184.18 78.89
-4 -5 -1 981.6 158.88
-4 -5 -1 963.8 81.89
4 5 1 968.7 80.59
4 5 1 894.91 119.99
4 5 1 922.81 79.89
4 5 1 1129.89 82.99
-5 -5 -1 2263.97 194.58
-5 -5 -1 2618.94 195.48
-5 -5 -1 2241.68 275.37
5 5 1 2894.51 196.38
5 5 1 2275.27 233.28
5 5 1 2415.66 193.28
-6 -5 -1 132.19 73.29
-6 -5 -1 131.49 19
-6 -5 -1 169.68 20.4
-6 -5 -1 183.28 16.6
6 5 1 151.58 58.59
6 5 1 134.69 17.1
6 5 1 139.19 20.5
-7 -5 -1 852.61 76.59
-7 -5 -1 877.91 75.59
7 5 1 974.3 74.09
-8 -5 -1 862.01 76.79
8 5 1 894.71 72.89
-9 -5 -1 -4.3 14.6
9 5 1 1.4 12.9
9 5 1 -8.9 11.4
9 5 1 14.2 19.3
11 -6 -1 9.8 5.7
11 -6 -1 11.1 5.1
11 -6 -1 10.7 13.4
-11 6 1 7.4 7.5
-11 6 1 -6.9 10.7
-11 6 1 9.4 24.1
10 -6 -1 437.46 33.6
10 -6 -1 422.66 39.4
10 -6 -1 400.26 34.3
-10 6 1 342.27 46.6
-10 6 1 384.66 35
9 -6 -1 417.96 35.3
9 -6 -1 363.96 30.5
9 -6 -1 407.46 30.1
-9 6 1 326.57 39.3
-9 6 1 340.47 31
-9 6 1 286.87 35.3
8 -6 -1 58.09 12
8 -6 -1 37 41.3
8 -6 -1 35.2 6.9
-8 6 1 0.7 41.3
-8 6 1 50.49 7.8
-8 6 1 26.7 11.4
-8 6 1 49.9 5.9
7 -6 -1 1139.19 87.99
7 -6 -1 1085.59 87.49
7 -6 -1 1087.59 90.69
7 -6 -1 1172.58 121.49
-7 6 1 1082.39 87.99
-7 6 1 1009.2 93.69
-7 6 1 1365.86 130.59
-7 6 1 1167.58 86.99
6 -6 -1 258.27 21.4
6 -6 -1 250.67 24.3
6 -6 -1 181.28 43.2
6 -6 -1 284.37 21.4
-6 6 1 342.77 63.09
-6 6 1 242.98 20.5
-6 6 1 240.38 21.5
-6 6 1 224.18 26.2
5 -6 -1 344.37 54.39
5 -6 -1 302.37 25.2
5 -6 -1 331.87 25.7
5 -6 -1 327.87 28.4
-5 6 1 292.07 25.1
-5 6 1 271.17 29.2
-5 6 1 281.77 24.6
-5 6 1 341.67 60.59
4 -6 -1 1937.51 177.38
4 -6 -1 2033 150.38
4 -6 -1 1938.41 149.88
4 -6 -1 1907.21 152.58
4 -6 -1 1945.31 149.29
-4 6 1 1845.22 152.98
3 -6 -1 9.8 3.9
3 -6 -1 13 5.5
3 -6 -1 8.3 3.2
3 -6 -1 12.3 23.7
3 -6 -1 14.8 3.2
-3 6 1 36.8 28.2
-3 6 1 23.2 6.7
-3 6 1 7.9 4.9
-3 6 1 6 2.2
2 -6 -1 1379.36 109.19
2 -6 -1 1455.15 114.29
2 -6 -1 1483.05 110.49
-2 6 1 1293.57 112.89
-2 6 1 1466.75 111.99
1 -6 -1 1404.56 99.29
1 -6 -1 1085.29 102.99
-1 6 1 1288.97 100.09
-1 6 1 1195.18 101.39
-1 6 1 1332.77 99.59
0 -6 -1 9.7 3.8
0 -6 -1 -22.6 47.1
0 -6 -1 6.1 7.5
0 -6 -1 8.2 2.9
0 6 1 5.3 2.4
0 6 1 2.9 4.3
0 6 1 9.9 4.4
0 6 1 3.6 2.3
0 6 1 23.7 37.6
-1 -6 -1 1824.02 159.28
-1 -6 -1 1879.01 151.78
-1 -6 -1 2108.39 151.18
1 6 1 1783.22 153.38
1 6 1 2100.79 150.98
-2 -6 -1 1142.09 95.79
-2 -6 -1 1340.17 95.29
2 6 1 1093.99 133.19
2 6 1 1310.57 94.69
2 6 1 1059.79 96.69
-3 -6 -1 94.29 11.2
-3 -6 -1 88.59 116.99
-3 -6 -1 74.59 12.8
-3 -6 -1 58.89 16.4
3 6 1 80.09 10.6
3 6 1 63.89 13.7
3 6 1 82.99 44.9
3 6 1 87.79 13.3
-4 -6 -1 1501.65 105.89
-4 -6 -1 1275.37 112.19
-4 -6 -1 1093.99 207.18
-4 -6 -1 1244.28 106.19
4 6 1 1136.29 149.39
4 6 1 1373.46 104.49
-5 -6 -1 684.83 57.59
-5 -6 -1 468.25 114.49
5 6 1 523.85 111.69
5 6 1 758.12 58.79
5 6 1 637.54 54.99
-6 -6 -1 101.39 17.5
-6 -6 -1 110.89 17.3
6 6 1 97.79 15.9
-7 -6 -1 705.63 69.99
-7 -6 -1 767.92 73.79
7 6 1 952.6 69.09
-8 -6 -1 107.99 23.9
-8 -6 -1 108.99 21
8 6 1 153.58 33.2
8 6 1 113.19 19.9
11 -7 -1 102.39 14.3
11 -7 -1 100.39 18.5
-11 7 1 59.39 17.4
-11 7 1 57.19 24.6
10 -7 -1 642.14 57.79
10 -7 -1 678.03 51.99
10 -7 -1 676.33 52.79
-10 7 1 613.64 52.99
-10 7 1 580.04 64.49
9 -7 -1 54.49 8.7
-9 7 1 42.1 12.8
-9 7 1 47.3 9.8
-9 7 1 36 22.5
8 -7 -1 848.12 67.29
8 -7 -1 866.01 66.89
8 -7 -1 859.71 71.19
-8 7 1 859.11 65.89
-8 7 1 799.72 75.39
-8 7 1 821.82 67.19
7 -7 -1 982.6 114.19
7 -7 -1 815.82 66.49
7 -7 -1 803.32 70.09
7 -7 -1 808.72 66.89
-7 7 1 912.21 69.59
-7 7 1 1047 122.49
-7 7 1 839.02 65.69
-7 7 1 754.02 72.19
6 -7 -1 119.99 11.9
6 -7 -1 107.29 38.9
6 -7 -1 121.09 11.9
6 -7 -1 135.09 16.1
-6 7 1 105.59 16.9
-6 7 1 88.69 16.5
-6 7 1 115.99 42.2
-6 7 1 115.09 10.5
5 -7 -1 2729.33 206.98
5 -7 -1 2638.84 202.58
5 -7 -1 2600.84 236.48
5 -7 -1 2621.14 203.98
5 -7 -1 2708.23 203.48
-5 7 1 2294.67 206.78
-5 7 1 2807.72 202.88
4 -7 -1 703.53 58.19
4 -7 -1 672.03 53.19
4 -7 -1 656.33 54.99
4 -7 -1 649.83 91.19
4 -7 -1 720.33 54.59
-4 7 1 636.94 57.19
-4 7 1 784.02 53.89
-4 7 1 603.14 57.79
3 -7 -1 392.66 40
3 -7 -1 476.85 36.8
3 -7 -1 379.96 37.1
3 -7 -1 431.66 75.29
3 -7 -1 459.75 35.2
-3 7 1 538.95 40
-3 7 1 438.16 39.8
2 -7 -1 1874.91 140.49
2 -7 -1 1795.82 141.79
-2 7 1 1931.11 141.19
-2 7 1 1643.74 144.49
-2 7 1 1853.51 143.09
1 -7 -1 473.95 42.8
1 -7 -1 580.64 42.1
1 -7 -1 453.95 48.1
-1 7 1 587.64 42.9
-1 7 1 590.64 44.9
-1 7 1 545.65 42.5
-1 7 1 520.05 43.1
-1 7 1 454.05 45.2
0 -7 -1 763.82 74.49
0 -7 -1 910.71 67.09
0 -7 -1 782.82 67.69
0 7 1 977.9 68.09
0 7 1 880.71 67.19
0 7 1 751.22 69.89
-1 -7 -1 2457.15 196.88
-1 -7 -1 2261.87 204.38
1 7 1 2786.52 195.98
1 7 1 2583.14 198.98
-2 -7 -1 18.8 90.99
-2 -7 -1 162.88 29.1
-2 -7 -1 104.49 15.2
-2 -7 -1 152.28 14.6
2 7 1 158.08 16.4
2 7 1 203.38 64.79
2 7 1 117.59 17.1
2 7 1 136.99 13.9
-3 -7 -1 784.02 60.59
-3 -7 -1 632.44 61.19
3 7 1 787.42 60.09
3 7 1 714.03 134.79
-4 -7 -1 1208.28 94.59
4 7 1 1011 150.38
-5 -7 -1 77.59 14.1
-5 -7 -1 51.39 14.1
5 7 1 51.29 12.8
5 7 1 85.59 20.2
-6 -7 -1 599.24 53.69
6 7 1 616.54 53.49
-7 -7 -1 141.59 26
-7 -7 -1 188.68 25.5
7 7 1 233.98 33.1
7 7 1 159.28 25.4
10 -8 -1 821.12 57.19
10 -8 -1 761.92 65.09
10 -8 -1 691.03 57.59
-10 8 1 592.74 69.19
-10 8 1 611.24 66.09
9 -8 -1 94.79 11.6
-9 8 1 69.89 19.4
-9 8 1 62.39 25.1
8 -8 -1 1470.65 117.09
8 -8 -1 1538.35 126.49
8 -8 -1 1537.75 116.69
-8 8 1 1318.07 122.79
-8 8 1 1414.26 123.69
-8 8 1 1640.84 115.69
7 -8 -1 370.86 111.79
7 -8 -1 282.17 28.5
7 -8 -1 291.67 23.7
7 -8 -1 262.27 23.9
-7 8 1 261.57 22.3
-7 8 1 220.58 28.9
-7 8 1 279.97 30.7
6 -8 -1 861.01 122.29
6 -8 -1 876.21 73.39
6 -8 -1 948.51 69.29
6 -8 -1 855.71 67.89
6 -8 -1 854.41 69.59
-6 8 1 822.22 74.09
-6 8 1 788.42 73.39
-6 8 1 928.81 68.19
5 -8 -1 2653.73 203.48
5 -8 -1 2677.53 209.28
5 -8 -1 2346.87 247.78
5 -8 -1 2834.32 205.18
5 -8 -1 2529.85 205.68
-5 8 1 2858.21 204.28
-5 8 1 2500.55 209.48
-5 8 1 2668.63 208.78
4 -8 -1 27.6 5.9
4 -8 -1 23.9 5.6
4 -8 -1 26.8 3.8
4 -8 -1 6.5 39.5
4 -8 -1 13.4 7.8
-4 8 1 30 5.3
-4 8 1 66.09 60.99
-4 8 1 30.5 8.2
-4 8 1 41.8 9.8
3 -8 -1 1402.66 113.19
3 -8 -1 1204.58 117.09
3 -8 -1 1585.04 111.59
3 -8 -1 1092.09 157.98
-3 8 1 1431.26 116.99
-3 8 1 1581.24 115.69
-3 8 1 1627.34 112.69
2 -8 -1 2668.03 214.98
2 -8 -1 2970.3 213.68
-2 8 1 2949.1 214.48
-2 8 1 2624.24 215.78
-2 8 1 2660.13 218.38
1 -8 -1 23.6 70.19
-1 8 1 11.3 6.7
-1 8 1 18.5 4.7
-1 8 1 -18.2 45.7
-1 8 1 8.4 3.4
0 -8 -1 2830.22 204.28
0 -8 -1 2434.66 204.98
0 -8 -1 2550.94 212.58
0 8 1 2788.12 205.08
0 8 1 2655.83 204.28
0 8 1 2556.44 207.78
-1 -8 -1 1036.1 221.98
-1 -8 -1 1255.07 91.69
-1 -8 -1 1070.99 101.39
-1 -8 -1 1000.2 92.39
1 8 1 1173.78 91.39
1 8 1 1143.49 94.79
1 8 1 1305.87 92.79
-2 -8 -1 226.88 26
-2 -8 -1 168.18 98.09
-2 -8 -1 270.87 24.1
2 8 1 298.87 26.1
2 8 1 253.57 27.2
2 8 1 271.27 23.8
-3 -8 -1 2124.49 392.96
-3 -8 -1 1839.62 166.78
-3 -8 -1 2295.77 165.88
3 8 1 2057.19 167.68
3 8 1 2360.26 165.58
3 8 1 1890.81 221.58
-4 -8 -1 208.48 20.6
-4 -8 -1 214.28 25.1
4 8 1 142.39 19.3
4 8 1 170.88 23.1
-5 -8 -1 749.42 57.99
-5 -8 -1 569.74 59.89
-6 -8 -1 863.51 77.39
6 8 1 997.9 78.49
10 -9 -1 49.3 17.2
10 -9 -1 25.3 8
-10 9 1 15.8 20.3
9 -9 -1 827.62 58.69
9 -9 -1 674.53 58.89
9 -9 -1 730.63 65.19
-9 9 1 637.44 67.99
-9 9 1 713.13 68.19
8 -9 -1 888.31 67.49
8 -9 -1 806.12 73.19
8 -9 -1 859.11 68.19
-8 9 1 913.31 66.29
-8 9 1 756.62 74.79
-8 9 1 787.42 74.69
7 -9 -1 -100.09 72.79
7 -9 -1 -7.6 13.2
7 -9 -1 4.4 4.5
-7 9 1 4.8 2.9
-7 9 1 8.1 9.9
-7 9 1 18.8 10.3
6 -9 -1 1342.27 105.09
6 -9 -1 1198.38 105.69
6 -9 -1 1268.67 109.99
-6 9 1 1339.37 110.99
-6 9 1 1487.25 104.29
-6 9 1 1377.26 110.09
5 -9 -1 788.52 142.09
5 -9 -1 718.53 69.49
5 -9 -1 855.41 69.09
5 -9 -1 793.42 73.89
-5 9 1 897.71 74.49
-5 9 1 938.61 73.19
-5 9 1 996.2 68.29
4 -9 -1 16.3 69.59
4 -9 -1 135.49 13.9
4 -9 -1 82.59 19.4
-4 9 1 151.08 12.5
-4 9 1 121.09 18.2
-4 9 1 119.39 16.6
-4 9 1 124.89 83.59
3 -9 -1 1464.95 126.19
-3 9 1 1636.64 130.79
-3 9 1 1740.83 125.79
2 -9 -1 703.03 182.48
2 -9 -1 859.61 73.09
-2 9 1 961.4 72.89
-2 9 1 988.2 72.69
-2 9 1 932.71 77.29
-2 9 1 882.21 73.59
1 -9 -1 506.25 40.2
1 -9 -1 425.46 110.89
1 -9 -1 547.25 48.9
-1 9 1 418.46 42.8
-1 9 1 453.85 38.9
-1 9 1 476.45 39.4
0 -9 -1 1656.13 147.89
0 -9 -1 1656.23 140.19
0 9 1 1890.31 143.49
0 9 1 1889.41 140.09
0 9 1 1821.32 139.29
-1 -9 -1 162.88 16.4
-1 -9 -1 144.29 30.5
-1 -9 -1 215.18 116.19
1 9 1 218.18 69.59
1 9 1 156.08 20.7
1 9 1 171.08 17.8
1 9 1 177.48 16.8
-2 -9 -1 687.83 77.49
-2 -9 -1 700.33 67.49
-2 -9 -1 837.22 66.09
2 9 1 898.61 67.69
2 9 1 856.81 65.99
2 9 1 868.21 69.79
-3 -9 -1 1034.5 113.09
-3 -9 -1 1265.57 100.69
3 9 1 1361.96 102.69
3 9 1 1340.97 103.89
-4 -9 -1 131.99 23.2
-4 -9 -1 156.98 17.2
-4 -9 -1 73.59 34.1
4 9 1 121.29 20.6
4 9 1 87.89 17.2
5 9 1 1283.07 103.99
5 9 1 1190.58 100.39
9 -10 -1 567.94 54.99
9 -10 -1 633.54 60.09
9 -10 -1 686.53 57.39
-9 10 1 682.73 63.49
-9 10 1 558.24 62.29
8 -10 -1 79.79 18.3
8 -10 -1 63.19 13.4
-8 10 1 75.49 18.4
-8 10 1 73.89 18.7
7 -10 -1 417.26 35.5
7 -10 -1 362.46 36.1
7 -10 -1 395.96 43.1
-7 10 1 431.46 44.3
-7 10 1 387.36 41.5
-7 10 1 466.35 34
6 -10 -1 707.33 73.29
6 -10 -1 872.41 68.29
-6 10 1 880.81 73.19
-6 10 1 925.71 74.99
5 -10 -1 25.8 6.4
5 -10 -1 31.2 12.4
5 -10 -1 33 77.29
-5 10 1 105.59 112.99
-5 10 1 25.6 4.7
-5 10 1 23.2 9.6
-5 10 1 35.4 11.3
4 -10 -1 362.06 32.8
4 -10 -1 250.67 87.69
-4 10 1 375.26 35.7
-4 10 1 409.66 31.9
-4 10 1 634.14 150.18
-4 10 1 390.66 38.2
3 -10 -1 647.34 154.18
3 -10 -1 759.62 67.09
-3 10 1 902.11 72.59
-3 10 1 893.11 66.69
2 -10 -1 25.6 12.7
2 -10 -1 84.29 82.89
-2 10 1 16 4.7
-2 10 1 88.69 82.09
-2 10 1 22.8 9.1
-2 10 1 24 5.1
1 -10 -1 749.23 60.09
1 -10 -1 725.23 68.59
-1 10 1 743.83 63.79
-1 10 1 718.23 59.29
-1 10 1 729.33 58.89
0 -10 -1 319.07 32.4
0 -10 -1 312.17 42.4
0 10 1 405.86 36.3
0 10 1 370.86 31
0 10 1 370.76 31.6
-1 -10 -1 90.69 24
-1 -10 -1 129.49 14.4
1 10 1 121.29 15.6
1 10 1 149.59 16.4
1 10 1 167.88 21
-2 -10 -1 948.91 78.59
-2 -10 -1 852.31 80.79
-2 -10 -1 913.71 99.69
2 10 1 1078.69 83.19
2 10 1 1012.5 78.89
2 10 1 1046.1 81.79
-3 -10 -1 24.3 7.4
-3 -10 -1 30.7 12.3
-3 -10 -1 14.4 23
3 10 1 33.8 9.8
3 10 1 34.1 9
-4 -10 -1 417.66 68.29
-4 -10 -1 440.56 48.8
-4 -10 -1 508.45 44.7
4 10 1 562.34 46.6
4 10 1 577.74 49.1
7 -11 -1 885.11 78.09
7 -11 -1 735.93 81.39
-7 11 1 987.1 83.59
-7 11 1 874.31 79.29
-7 11 1 1012.1 71.79
6 -11 -1 283.27 27.5
6 -11 -1 238.08 35.6
-6 11 1 270.37 32.2
-6 11 1 320.07 35.5
5 -11 -1 205.48 19.4
5 -11 -1 150.28 20.8
-5 11 1 182.18 17.5
-5 11 1 206.28 27.7
4 -11 -1 835.42 70.39
-4 11 1 865.91 71.39
-4 11 1 928.51 76.89
3 -11 -1 140.99 26.4
3 -11 -1 164.58 18.4
-3 11 1 136.09 22.9
-3 11 1 142.19 14.9
2 -11 -1 777.12 68.09
2 -11 -1 606.34 61.49
-2 11 1 746.73 68.39
-2 11 1 709.63 56.39
-2 11 1 661.93 56.49
1 -11 -1 670.53 57.29
1 -11 -1 698.23 66.79
-1 11 1 707.73 56.09
-1 11 1 719.93 61.79
-1 11 1 652.23 56.19
0 -11 -1 59.49 21.1
0 -11 -1 41.2 10.5
0 11 1 27.9 6.4
0 11 1 27.4 11
-1 -11 -1 753.92 71.19
-1 -11 -1 788.72 82.29
1 11 1 854.81 70.29
1 11 1 984.3 75.09
1 11 1 883.11 69.49
-2 -11 -1 146.29 24.3
-2 -11 -1 175.18 43
2 11 1 212.58 22.3
2 11 1 199.18 22.5
6 -12 -1 17.1 7.9
6 -12 -1 35.2 17.5
-6 12 1 24.2 16.7
5 -12 -1 523.75 64.99
5 -12 -1 643.44 55.19
-5 12 1 767.32 54.49
-5 12 1 704.63 63.39
4 -12 -1 634.04 52.49
4 -12 -1 546.65 62.99
-4 12 1 743.03 61.69
-4 12 1 689.13 51.49
-4 12 1 532.15 51.79
3 -12 -1 216.78 22.3
3 -12 -1 200.68 35.9
-3 12 1 208.78 29.9
-3 12 1 186.98 20.1
2 -12 -1 1221.08 110.19
2 -12 -1 1301.37 101.19
-2 12 1 1105.29 99.69
-2 12 1 1353.66 106.69
-2 12 1 1330.67 99.89
1 -12 -1 129.29 20.4
1 -12 -1 128.19 28.3
-1 12 1 154.38 26
-1 12 1 105.09 16.1
-1 12 1 116.89 15.7
0 -12 -1 497.75 63.59
0 -12 -1 507.35 48.4
0 12 1 579.44 46.2
0 12 1 602.44 53.89
0 12 1 525.85 46.6
-2 13 -2 524.05 49.3
-2 13 -2 445.26 41.1
-2 13 -2 506.65 39.9
2 -13 2 449.66 55.49
2 -13 2 419.46 41.6
-3 13 -2 562.34 46
-3 13 -2 598.44 55.19
3 -13 2 504.35 59.09
3 -13 2 544.25 47.3
2 12 -2 -6.7 7
2 12 -2 5.9 5.7
-2 -12 2 17.2 13.3
-2 -12 2 3.9 22.9
1 12 -2 1351.06 109.69
1 12 -2 1297.97 106.79
1 12 -2 1336.57 105.59
-1 -12 2 1287.77 107.59
-1 -12 2 1409.26 122.19
0 12 -2 910.01 68.09
0 12 -2 893.91 74.69
0 12 -2 866.71 69.19
0 -12 2 789.52 69.79
0 -12 2 728.23 80.49
-1 12 -2 153.18 16.4
-1 12 -2 129.19 27.3
-1 12 -2 139.89 14.8
1 -12 2 96.69 17.2
1 -12 2 93.69 24.8
-2 12 -2 1138.79 82.69
-2 12 -2 1027.5 83.29
-2 12 -2 1041.9 87.79
2 -12 2 1034.5 83.49
2 -12 2 932.21 91.89
-3 12 -2 430.06 40.1
-3 12 -2 411.16 33.1
3 -12 2 294.57 43.5
3 -12 2 394.26 34
-4 12 -2 155.48 16
-4 12 -2 164.88 24.3
4 -12 2 152.88 17.3
4 -12 2 122.09 29.2
-5 12 -2 864.51 64.69
-5 12 -2 737.23 71.49
-6 12 -2 69.69 16.2
-6 12 -2 56.09 10.1
6 -12 2 44.4 17.8
6 -12 2 32.6 10.5
4 11 -2 1300.97 95.89
4 11 -2 1249.28 92.79
-4 -11 2 975.9 95.69
-4 -11 2 1038.8 114.69
3 11 -2 626.44 52.59
3 11 -2 663.53 49.99
-3 -11 2 556.74 72.59
-3 -11 2 505.15 52.99
2 11 -2 156.58 20.3
2 11 -2 141.09 17.9
2 11 -2 177.88 22.5
-2 -11 2 218.18 23.6
-2 -11 2 246.98 43.9
1 11 -2 1430.56 108.59
1 11 -2 1347.07 109.79
1 11 -2 1348.27 111.89
-1 -11 2 1389.76 122.29
0 11 -2 367.66 29.1
0 11 -2 325.57 32.7
0 11 -2 388.06 30.9
0 -11 2 250.07 43.3
0 -11 2 297.07 30.7
-1 11 -2 259.27 24.9
-1 11 -2 260.17 28.4
1 -11 2 302.27 26.2
-2 11 -2 796.72 76.29
-2 11 -2 986.3 72.89
2 -11 2 988.7 73.79
2 -11 2 872.51 91.29
-3 11 -2 131.99 13
-3 11 -2 96.99 17.7
3 -11 2 151.28 14.8
3 -11 2 92.39 16.9
-4 11 -2 794.82 58.69
-4 11 -2 765.92 62.19
4 -11 2 558.64 64.99
4 -11 2 781.82 59.09
-5 11 -2 766.42 58.79
5 -11 2 569.44 60.89
5 -11 2 636.64 56.39
-6 11 -2 60.79 14.8
-6 11 -2 51.59 14
-6 11 -2 78.09 10
6 -11 2 69.09 10.3
6 -11 2 75.89 17.2
6 -11 2 63.89 15.9
-7 11 -2 1027.4 87.49
-7 11 -2 956.7 83.79
7 -11 2 929.71 78.09
7 -11 2 889.51 84.49
-8 11 -2 153.08 32.1
-8 11 -2 174.88 28.8
-8 11 -2 202.68 17
8 -11 2 178.08 30.3
8 -11 2 144.09 20.7
5 10 -2 786.52 59.69
5 10 -2 809.22 65.39
-5 -10 2 538.95 86.39
-5 -10 2 653.23 59.89
4 10 -2 951.3 72.59
4 10 -2 882.01 68.69
-4 -10 2 795.42 90.69
-4 -10 2 747.33 72.19
-4 -10 2 828.52 69.59
3 10 -2 33 8.4
3 10 -2 25.8 9.4
-3 -10 2 36.6 7.9
-3 -10 2 25.3 23.3
-3 -10 2 36.9 12.4
2 10 -2 768.22 61.59
2 10 -2 724.23 62.29
2 10 -2 728.53 59.69
-2 -10 2 749.13 62.29
-2 -10 2 730.63 75.29
1 10 -2 700.33 62.09
1 10 -2 752.32 59.39
1 10 -2 810.02 61.09
-1 -10 2 729.03 61.49
-1 -10 2 701.43 72.49
0 10 -2 4.2 3.4
0 10 -2 10.4 5.1
0 10 -2 8.9 6.1
0 -10 2 26 14.4
0 -10 2 14.8 6.3
1 -10 2 882.91 67.69
1 -10 2 780.92 75.19
-2 10 -2 523.05 43.5
-2 10 -2 544.95 41.7
2 -10 2 541.15 42.5
2 -10 2 415.66 48.9
-3 10 -2 265.57 21.5
-3 10 -2 222.48 23.9
3 -10 2 244.38 22
-4 10 -2 931.21 79.49
-4 10 -2 1004.1 76.39
-5 10 -2 12.5 3.9
-5 10 -2 21.3 8.2
5 -10 2 17.3 6.1
5 -10 2 39 11.8
-6 10 -2 698.03 64.39
-6 10 -2 839.92 59.19
6 -10 2 645.74 60.99
6 -10 2 775.02 59.09
-7 10 -2 531.05 38.4
-7 10 -2 460.15 45.8
7 -10 2 448.16 40.8
7 -10 2 420.66 45.8
-8 10 -2 44.7 16
-8 10 -2 37.6 13
8 -10 2 25 7.1
8 -10 2 14.3 12.3
-9 10 -2 661.53 66.09
-9 10 -2 720.53 67.69
9 -10 2 630.44 55.49
9 -10 2 636.64 62.59
6 9 -2 276.57 29.1
6 9 -2 307.97 37.5
6 9 -2 294.47 46.6
5 9 -2 1649.73 131.69
-5 -9 2 1687.03 128.89
-5 -9 2 1484.35 130.39
4 9 -2 384.16 31.8
4 9 -2 425.66 37.4
-4 -9 2 360.96 33.6
-4 -9 2 293.67 34.6
3 9 -2 439.56 40.1
3 9 -2 423.56 38.6
3 9 -2 497.45 41.2
-3 -9 2 519.35 40.1
-3 -9 2 365.56 54.59
-3 -9 2 466.45 41.6
2 9 -2 1539.85 133.79
2 9 -2 1881.31 134.09
2 9 -2 1729.03 131.99
-2 -9 2 1582.04 145.09
-2 -9 2 1715.23 134.29
1 9 -2 110.09 54.29
1 9 -2 60.59 10.2
-1 -9 2 61.89 75.99
0 9 -2 1249.97 99.39
0 9 -2 1288.07 98.49
0 -9 2 1215.08 108.49
0 -9 2 1274.87 99.99
-1 9 -2 694.33 53.09
-1 9 -2 666.33 53.19
1 -9 2 580.54 60.59
1 -9 2 702.33 54.19
-2 9 -2 352.66 30.3
-2 9 -2 356.46 28.4
2 -9 2 203.08 58.09
2 -9 2 350.36 29.2
-3 9 -2 1656.33 120.99
-3 9 -2 1523.05 123.09
3 -9 2 1359.96 122.99
3 -9 2 1673.13 121.39
-4 9 -2 126.79 12.5
-4 9 -2 130.39 16
4 -9 2 118.69 43
4 -9 2 159.38 21
-5 9 -2 498.35 36.6
-5 9 -2 405.96 40.5
-5 9 -2 587.34 120.39
5 -9 2 418.46 77.29
5 -9 2 404.76 42.3
5 -9 2 439.16 38.7
5 -9 2 485.65 36.7
-6 9 -2 965.6 70.59
-6 9 -2 976.1 130.29
-6 9 -2 797.52 75.59
6 -9 2 859.71 76.59
6 -9 2 885.81 111.79
6 -9 2 901.01 72.59
6 -9 2 926.11 70.59
-7 9 -2 20.5 10.3
-7 9 -2 33.1 5.5
-7 9 -2 1.2 8.2
7 -9 2 17 9.6
7 -9 2 19.5 4.7
7 -9 2 17.6 6.1
-8 9 -2 518.65 41.7
8 -9 2 466.55 43.9
8 -9 2 586.44 50.29
-9 9 -2 843.82 59.79
-9 9 -2 669.53 70.49
-9 9 -2 628.04 68.29
9 -9 2 717.43 61.59
9 -9 2 850.31 68.39
7 8 -2 171.38 38.3
-7 -8 2 158.98 25.9
-7 -8 2 171.78 23.4
6 8 -2 1082.49 88.49
6 8 -2 1094.99 94.29
6 8 -2 1029.8 82.89
-6 -8 2 905.31 84.09
5 8 -2 1674.93 123.09
-5 -8 2 1603.14 124.89
-5 -8 2 1387.86 125.39
4 8 -2 1.3 3.6
4 8 -2 8.1 7.6
4 8 -2 0.2 6.8
-4 -8 2 -3 6.6
-4 -8 2 13.5 18.2
3 8 -2 3145.49 262.47
3 8 -2 2871.01 220.68
3 8 -2 2550.44 218.08
-3 -8 2 3107.29 220.28
-3 -8 2 2524.05 220.18
2 8 -2 971.9 72.09
-2 -8 2 979.8 74.39
-2 -8 2 829.42 83.89
-2 -8 2 654.43 150.28
1 8 -2 661.43 52.49
1 8 -2 645.94 51.19
-1 -8 2 488.15 131.39
0 8 -2 2323.27 174.68
0 8 -2 2202.08 175.38
0 -8 2 2365.66 176.78
0 -8 2 2171.28 184.38
-1 8 -2 33.4 32.7
-1 8 -2 12.6 4.4
1 -8 2 -9 36
1 -8 2 3.6 4.5
1 -8 2 13.3 4.8
1 -8 2 17.4 4.9
1 -8 2 3 8.8
-2 8 -2 814.22 71.29
2 -8 2 1009.9 73.09
2 -8 2 904.51 76.69
2 -8 2 800.02 102.39
-3 8 -2 1440.76 108.19
3 -8 2 1291.97 137.39
3 -8 2 1339.67 110.19
3 -8 2 1453.05 108.49
-4 8 -2 66.99 7.2
-4 8 -2 50.69 35.6
4 -8 2 66.79 13.8
4 -8 2 64.79 9.8
4 -8 2 43.4 30.9
-5 8 -2 2051.59 179.88
-5 8 -2 1703.63 140.39
5 -8 2 1924.11 142.49
5 -8 2 1810.22 175.58
5 -8 2 1727.63 145.39
5 -8 2 1768.92 140.69
-6 8 -2 1434.56 105.69
-6 8 -2 1555.44 150.78
6 -8 2 1302.47 105.79
6 -8 2 1239.28 110.29
6 -8 2 1337.77 107.39
6 -8 2 1405.66 145.89
-7 8 -2 63.79 14.8
-7 8 -2 87.09 8.5
7 -8 2 75.49 15.6
7 -8 2 86.29 9.2
7 -8 2 82.09 11
7 -8 2 80.29 39.8
-8 8 -2 1552.64 112.79
-8 8 -2 1241.48 120.49
8 -8 2 1519.95 118.89
8 -8 2 1430.06 156.78
8 -8 2 1486.65 114.79
-9 8 -2 308.97 40.9
-9 8 -2 350.76 26.6
9 -8 2 288.37 31.5
-10 8 -2 263.57 39.2
-10 8 -2 294.57 47.2
10 -8 2 318.37 36.1
10 -8 2 279.57 27.6
8 7 -2 576.84 57.79
8 7 -2 768.92 68.69
-8 -7 2 629.94 61.79
-8 -7 2 718.13 60.79
7 7 -2 51.69 17.5
7 7 -2 11.2 12.4
-7 -7 2 5 8.8
-7 -7 2 24.4 10.4
6 7 -2 1364.06 115.39
6 7 -2 1677.93 125.39
6 7 -2 1582.44 120.79
-6 -7 2 1433.96 117.59
-6 -7 2 1245.18 117.09
5 7 -2 562.34 43.9
-5 -7 2 558.44 46.2
-5 -7 2 483.95 45.6
-5 -7 2 474.55 54.99
4 7 -2 357.36 32
4 7 -2 315.07 28.9
4 7 -2 348.37 28
-4 -7 2 224.98 69.19
-4 -7 2 289.77 39.1
-4 -7 2 357.16 30.4
-4 -7 2 277.67 30
3 7 -2 1455.05 124.39
3 7 -2 1678.73 123.59
-3 -7 2 1721.93 125.89
-3 -7 2 1368.56 194.38
2 7 -2 15.3 32.5
-2 -7 2 43.7 55.19
-2 -7 2 49.9 15.8
1 7 -2 1439.96 101.09
1 7 -2 1244.78 99.49
-1 -7 2 1206.18 108.99
-1 -7 2 1080.29 168.88
0 7 -2 1309.67 99.39
0 7 -2 1256.27 99.89
0 7 -2 1400.56 100.09
0 7 -2 1173.28 99.59
0 -7 2 1292.37 108.69
-1 7 -2 34.5 4.9
-1 7 -2 58.29 25.4
1 -7 2 20.8 27.8
-2 7 -2 1902.91 142.39
2 -7 2 1706.33 167.48
2 -7 2 1726.93 144.29
2 -7 2 1992.9 142.99
-3 7 -2 1327.97 103.69
3 -7 2 1358.26 105.59
3 -7 2 1287.77 103.99
3 -7 2 1400.66 129.89
-4 7 -2 435.06 36.6
4 -7 2 497.75 62.89
4 -7 2 487.85 38.5
4 -7 2 458.35 41.2
4 -7 2 451.45 36.9
-5 7 -2 3216.08 249.88
-5 7 -2 3191.48 250.47
5 -7 2 3089.49 250.57
5 -7 2 3500.95 252.17
5 -7 2 3120.79 254.47
5 -7 2 3457.95 276.67
-6 7 -2 510.35 73.99
-6 7 -2 419.76 35.5
-6 7 -2 432.86 35.5
6 -7 2 424.36 35.7
6 -7 2 442.06 40
6 -7 2 481.35 37.4
6 -7 2 522.85 75.59
-7 7 -2 795.22 68.09
-7 7 -2 890.11 67.79
-7 7 -2 1088.59 116.29
7 -7 2 899.51 69.49
7 -7 2 825.02 102.99
7 -7 2 826.12 72.19
7 -7 2 865.41 67.89
-8 7 -2 2016.6 146.79
-8 7 -2 1741.43 147.39
8 -7 2 1845.12 148.49
8 -7 2 1924.11 151.68
8 -7 2 1969.9 188.98
8 -7 2 1923.11 147.69
-9 7 -2 21.4 13
-9 7 -2 37.9 5.5
-10 7 -2 520.35 63.19
10 -7 2 567.14 49.1
10 -7 2 640.84 53.99
9 6 -2 818.92 71.59
-9 -6 2 686.13 65.09
-9 -6 2 672.73 66.09
8 6 -2 31.2 15.6
8 6 -2 57.59 18.1
-8 -6 2 87.89 15.5
7 6 -2 395.06 38.6
7 6 -2 486.65 47.3
7 6 -2 504.55 45.3
-7 -6 2 407.96 40.4
-7 -6 2 440.26 41.6
6 6 -2 877.11 76.29
6 6 -2 1058.79 81.29
-6 -6 2 890.01 77.79
-6 -6 2 980.4 79.09
5 6 -2 32.2 6.2
5 6 -2 18.6 8.2
-5 -6 2 37.3 5
-5 -6 2 23.9 38.4
-5 -6 2 30.9 7.9
-5 -6 2 33.3 13.6
-5 -6 2 22.1 7.5
4 6 -2 985 75.49
4 6 -2 1057.99 79.09
4 6 -2 803.02 74.29
-4 -6 2 968.5 84.09
-4 -6 2 882.31 129.39
-4 -6 2 1002.4 77.39
3 6 -2 336.67 29.2
3 6 -2 247.78 60.99
3 6 -2 310.77 26.2
-3 -6 2 310.67 28
-3 -6 2 313.17 35.2
-3 -6 2 324.77 76.69
2 6 -2 662.23 47.8
2 6 -2 507.65 45.3
-2 -6 2 536.35 98.19
-2 -6 2 557.44 54.09
1 6 -2 1503.25 119.59
1 6 -2 1638.24 119.99
-1 -6 2 1409.86 172.48
-1 -6 2 1571.44 128.99
0 6 -2 116.49 12.4
0 6 -2 145.99 11.4
0 6 -2 156.48 12.1
0 -6 2 156.58 42.4
0 -6 2 158.88 21.3
0 -6 2 108.89 14.4
-1 6 -2 1127.79 78.49
1 -6 2 1022.6 80.69
1 -6 2 860.31 83.69
-2 6 -2 3153.48 245.78
-2 6 -2 3525.55 292.27
2 -6 2 2660.13 249.68
2 -6 2 3402.46 247.68
2 -6 2 3332.07 246.18
-3 6 -2 57.59 5.6
-3 6 -2 35.2 17.7
3 -6 2 55.29 10.2
3 -6 2 61.89 7.5
3 -6 2 46.4 6.4
3 -6 2 40.8 15
-4 6 -2 1827.92 134.99
-4 6 -2 1706.63 134.59
-4 6 -2 1693.23 134.09
-4 6 -2 1710.23 155.78
4 -6 2 1709.53 137.99
4 -6 2 1614.14 134.69
4 -6 2 1851.91 135.99
4 -6 2 1868.91 154.88
-5 6 -2 2185.58 159.98
-5 6 -2 2087.29 159.78
-5 6 -2 2021.5 159.78
5 -6 2 1863.31 159.68
5 -6 2 2197.18 161.18
5 -6 2 2201.08 181.38
5 -6 2 1985.1 162.98
-6 6 -2 78.49 32.2
-6 6 -2 52.19 7.1
6 -6 2 59.49 6.4
6 -6 2 44.9 26.6
6 -6 2 49.8 7.7
6 -6 2 58.59 10.7
-7 6 -2 1292.67 102.99
7 -6 2 1300.47 103.49
7 -6 2 1334.97 102.09
7 -6 2 1315.27 101.89
7 -6 2 1307.67 105.79
7 -6 2 1364.46 133.39
-8 6 -2 546.35 47.6
8 -6 2 539.75 47.9
8 -6 2 842.82 130.39
8 -6 2 637.24 46.8
8 -6 2 580.54 50.69
8 -6 2 597.64 87.99
-9 6 -2 155.28 14.2
-9 6 -2 156.98 17
9 -6 2 87.79 90.69
9 -6 2 200.98 20.9
9 -6 2 158.78 17
-10 6 -2 598.14 52.59
-10 6 -2 529.85 57.89
-10 6 -2 648.34 66.49
10 -6 2 671.33 52.89
10 -6 2 701.33 56.79
-11 6 -2 59.89 19.5
-11 6 -2 47.3 24.6
11 -6 2 54.89 11.5
11 -6 2 94.49 19
9 5 -2 570.94 53.49
9 5 -2 494.25 49.6
-9 -5 2 465.05 48
-9 -5 2 441.96 44.9
8 5 -2 255.57 26.4
8 5 -2 325.87 36.5
8 5 -2 260.77 42.6
-8 -5 2 339.47 32.9
-8 -5 2 270.67 32.5
7 5 -2 1539.85 119.09
7 5 -2 1643.84 121.39
7 5 -2 1250.67 114.39
-7 -5 2 1376.36 115.99
-7 -5 2 1487.05 118.29
6 5 -2 34.5 11
6 5 -2 19.2 5.2
6 5 -2 3.9 34.7
6 5 -2 29.6 9
-6 -5 2 26.3 8.6
-6 -5 2 38 7.5
-6 -5 2 31.8 6.9
-6 -5 2 21.5 31.8
5 5 -2 1612.44 167.08
5 5 -2 1809.42 134.99
5 5 -2 1415.36 129.69
5 5 -2 1774.12 133.19
-5 -5 2 1741.43 129.99
-5 -5 2 1409.66 164.98
-5 -5 2 1810.32 132.79
-5 -5 2 1642.14 131.09
4 5 -2 1614.14 135.49
4 5 -2 1561.14 158.68
4 5 -2 1701.33 137.99
4 5 -2 1537.35 134.69
4 5 -2 1836.02 134.59
-4 -5 2 1994.6 138.19
-4 -5 2 1918.61 135.29
-4 -5 2 1870.61 136.89
-4 -5 2 1804.02 141.49
-4 -5 2 1492.75 160.98
3 5 -2 440.26 35.5
3 5 -2 369.76 32.5
3 5 -2 379.26 32.8
3 5 -2 359.56 59.89
-3 -5 2 379.66 62.49
-3 -5 2 442.16 39.5
-3 -5 2 438.56 34.2
2 5 -2 3789.92 292.07
2 5 -2 3574.74 324.17
2 5 -2 3271.47 290.37
-2 -5 2 3835.52 297.17
-2 -5 2 4281.47 291.67
-2 -5 2 4169.88 290.97
-2 -5 2 3387.86 332.47
1 5 -2 1448.76 113.99
1 5 -2 1464.05 114.49
1 5 -2 1530.75 114.59
1 5 -2 1443.56 114.89
-1 -5 2 1525.55 126.09
0 5 -2 1205.58 95.89
0 5 -2 1243.58 94.79
0 5 -2 1256.27 94.99
0 5 -2 1242.58 94.39
0 -5 2 1164.38 101.99
-1 5 -2 3149.58 266.77
-1 5 -2 3309.27 267.17
-1 5 -2 3323.17 265.87
1 -5 2 3970.6 266.57
1 -5 2 3419.76 282.67
1 -5 2 3598.94 267.77
-2 5 -2 1459.65 116.99
-2 5 -2 1272.17 103.29
-2 5 -2 1243.48 101.59
-2 5 -2 1508.15 103.09
2 -5 2 1230.78 101.79
2 -5 2 1419.26 103.09
2 -5 2 1124.89 104.89
2 -5 2 1300.57 115.39
-3 5 -2 1749.72 144.79
-3 5 -2 1980.5 161.68
-3 5 -2 2098.09 145.69
-3 5 -2 1814.42 147.39
3 -5 2 1660.23 145.29
3 -5 2 2044.2 160.58
3 -5 2 1910.01 145.39
-4 5 -2 2656.93 215.28
-4 5 -2 2877.11 212.98
-4 5 -2 2909.11 212.88
-4 5 -2 2946.01 232.38
4 -5 2 2397.06 212.78
4 -5 2 2825.42 212.98
4 -5 2 2866.71 215.58
4 -5 2 2509.85 212.78
4 -5 2 2969.9 214.08
-5 5 -2 120.49 10.7
-5 5 -2 148.09 36.7
5 -5 2 100.59 11
5 -5 2 121.19 9.9
5 -5 2 141.79 31.3
5 -5 2 99.49 10.7
-6 5 -2 1208.08 96.59
6 -5 2 1213.48 115.69
6 -5 2 1293.77 95.59
6 -5 2 1232.08 98.49
6 -5 2 1235.68 96.89
6 -5 2 1205.28 95.39
6 -5 2 1243.38 95.59
-7 5 -2 935.41 74.89
7 -5 2 981.4 76.89
7 -5 2 883.31 74.79
7 -5 2 982.4 101.39
7 -5 2 954 73.39
7 -5 2 941.21 73.29
-8 5 -2 61.69 9.6
8 -5 2 13.5 81.39
8 -5 2 61.19 7.2
8 -5 2 56.49 6.9
8 -5 2 68.49 9.4
8 -5 2 58.29 43.9
-9 5 -2 530.85 45.8
9 -5 2 562.84 43
9 -5 2 604.04 48.2
9 -5 2 516.35 42.9
9 -5 2 501.65 99.09
9 -5 2 509.35 45.1
-10 5 -2 209.18 22.8
-10 5 -2 219.08 36.6
10 -5 2 208.98 26.3
10 -5 2 214.28 21.5
-11 5 -2 288.37 30.8
-11 5 -2 289.17 50.79
11 -5 2 315.27 33.5
11 -5 2 293.97 29.5
10 4 -2 1119.79 90.29
10 4 -2 1140.59 93.99
-10 -4 2 895.91 85.09
-10 -4 2 1007.8 91.19
9 4 -2 -5.5 7.5
9 4 -2 -0.8 9.7
-9 -4 2 -8.5 7.4
-9 -4 2 5.7 6.8
-9 -4 2 -4.5 9.7
8 4 -2 1283.47 103.49
8 4 -2 1183.18 99.19
8 4 -2 1347.47 105.79
-8 -4 2 1164.08 100.79
-8 -4 2 1351.66 102.59
-8 -4 2 1266.87 104.49
7 4 -2 1163.68 97.29
7 4 -2 1156.08 132.99
7 4 -2 1254.07 100.69
7 4 -2 1268.47 102.29
-7 -4 2 1377.36 100.19
-7 -4 2 1264.57 101.59
-7 -4 2 1167.18 98.59
6 4 -2 707.73 92.49
-6 -4 2 744.53 64.39
-6 -4 2 846.52 67.19
-6 -4 2 857.41 65.89
5 4 -2 3116.99 261.17
5 4 -2 3554.54 262.97
5 4 -2 3479.35 283.07
-5 -4 2 3088.89 282.97
-5 -4 2 3219.08 260.07
-5 -4 2 3570.04 260.87
-5 -4 2 3482.25 261.97
4 4 -2 773.52 55.29
4 4 -2 736.23 58.59
4 4 -2 689.83 76.49
-4 -4 2 710.33 58.39
-4 -4 2 755.62 57.49
-4 -4 2 718.63 60.39
-4 -4 2 657.13 56.99
-4 -4 2 609.64 74.29
3 4 -2 3323.47 259.07
3 4 -2 3054.79 278.17
3 4 -2 2945.51 261.07
-3 -4 2 3593.94 259.97
-3 -4 2 3431.36 260.27
-3 -4 2 3720.53 261.27
-3 -4 2 3586.14 263.77
-3 -4 2 3271.37 278.27
2 4 -2 4626.24 379.56
2 4 -2 4621.34 397.16
2 4 -2 4482.35 379.46
2 4 -2 4717.33 379.36
2 4 -2 4739.13 380.76
-2 -4 2 5553.54 379.26
-2 -4 2 5254.57 380.06
-2 -4 2 5572.34 401.26
1 4 -2 122.29 11.3
1 4 -2 113.99 10.7
1 4 -2 120.49 10.9
-1 -4 2 101.19 34.5
-1 -4 2 150.68 18.2
-1 -4 2 144.09 11.8
-1 -4 2 133.99 11.5
0 4 -2 4342.87 349.87
0 4 -2 4412.56 350.36
0 4 -2 4553.74 350.76
0 4 -2 4852.01 350.26
0 -4 2 4240.28 355.26
0 -4 2 4053.29 366.16
0 -4 2 5435.56 351.16
-1 4 -2 5932.01 512.55
-1 4 -2 7392.46 522.15
-1 4 -2 5792.62 512.45
-1 4 -2 6672.93 511.85
-1 4 -2 5860.31 511.55
1 -4 2 7392.76 523.75
1 -4 2 7049.5 512.85
1 -4 2 7048.39 511.95
1 -4 2 6999.1 513.05
-2 4 -2 22.1 5.1
-2 4 -2 23.1 4.9
-2 4 -2 17.8 9.1
2 -4 2 26.9 5.6
2 -4 2 22.8 3.2
2 -4 2 17.4 7.5
2 -4 2 24 2.5
-3 4 -2 4121.29 325.97
-3 4 -2 3952.6 324.37
-3 4 -2 4279.27 324.17
-3 4 -2 4756.82 339.37
3 -4 2 4298.77 326.47
3 -4 2 3558.94 324.17
3 -4 2 4266.97 324.47
3 -4 2 4332.37 325.27
3 -4 2 4562.54 336.77
-4 4 -2 1596.54 133.29
-4 4 -2 1757.92 131.69
-4 4 -2 1656.73 147.09
4 -4 2 1555.74 143.29
4 -4 2 1795.42 133.29
4 -4 2 1767.62 131.79
4 -4 2 1823.72 130.89
4 -4 2 1633.14 131.19
-5 4 -2 1101.59 86.49
-5 4 -2 1011.3 84.69
-5 4 -2 1129.69 104.19
5 -4 2 1008.2 85.69
5 -4 2 1244.38 83.69
5 -4 2 1053.09 99.29
5 -4 2 1017.7 83.49
5 -4 2 1107.99 83.79
5 -4 2 1073.49 84.79
6 -4 2 1935.31 154.98
6 -4 2 2036.3 155.28
6 -4 2 1935.01 156.38
6 -4 2 1841.42 157.38
6 -4 2 1900.91 173.68
6 -4 2 2257.67 188.78
6 -4 2 2250.77 155.28
-7 4 -2 88.89 11
7 -4 2 93.49 8.6
7 -4 2 68.29 38.4
7 -4 2 94.69 8.7
7 -4 2 100.59 12.3
7 -4 2 84.39 10.3
-8 4 -2 1074.39 89.29
8 -4 2 1087.89 87.09
8 -4 2 1147.29 86.69
8 -4 2 1048.9 88.39
8 -4 2 1389.86 143.39
8 -4 2 1066.49 118.69
8 -4 2 1146.29 90.29
-9 4 -2 737.63 63.09
9 -4 2 725.83 62.99
9 -4 2 921.21 134.09
9 -4 2 689.53 120.79
9 -4 2 763.22 59.69
9 -4 2 766.92 63.99
9 -4 2 795.62 59.79
-10 4 -2 8.9 8.6
-10 4 -2 9.3 17.7
10 -4 2 13.2 5.7
10 -4 2 12.4 8.4
-11 4 -2 906.41 79.99
-11 4 -2 916.11 96.49
11 -4 2 981.1 78.19
11 -4 2 983.2 81.09
10 3 -2 296.77 31.7
10 3 -2 327.17 35.8
-10 -3 2 267.77 28.6
-10 -3 2 290.97 31.5
-10 -3 2 269.67 34
9 3 -2 369.56 35.7
9 3 -2 307.87 32.1
-9 -3 2 304.77 29.9
-9 -3 2 343.37 33.3
8 3 -2 993.5 80.99
8 3 -2 926.81 83.29
8 3 -2 1055.89 85.79
-8 -3 2 1091.29 86.19
-8 -3 2 987.4 82.09
-8 -3 2 1112.29 85.29
7 3 -2 24.4 4.2
7 3 -2 35.6 27
6 3 -2 2018 174.88
6 3 -2 1854.11 169.58
6 3 -2 1826.92 150.28
6 3 -2 1797.22 152.18
6 3 -2 2013.4 153.98
-6 -3 2 1972.3 153.88
-6 -3 2 2171.98 156.38
-6 -3 2 1917.91 151.48
5 3 -2 2753.52 208.88
5 3 -2 2494.15 207.48
5 3 -2 2738.23 225.48
-5 -3 2 2831.02 208.98
-5 -3 2 2711.73 208.68
-5 -3 2 2520.15 206.68
4 3 -2 6.3 3.4
4 3 -2 5.1 3.4
4 3 -2 12.5 2.7
4 3 -2 5.5 3.9
-4 -3 2 1.7 3.4
-4 -3 2 8.1 2.8
3 3 -2 3414.36 304.67
3 3 -2 3282.37 303.47
3 3 -2 4471.65 317.67
3 3 -2 4291.27 303.27
-3 -3 2 3843.12 315.07
-3 -3 2 4115.59 306.27
-3 -3 2 3999.5 304.97
-3 -3 2 4024.2 304.17
-3 -3 2 4359.56 305.37
-3 -3 2 3759.92 303.37
2 3 -2 4246.18 322.67
2 3 -2 3813.72 310.77
2 3 -2 4304.77 310.57
2 3 -2 3643.24 312.37
2 3 -2 3684.03 311.57
2 3 -2 4277.87 310.37
-2 -3 2 4408.96 311.37
-2 -3 2 4549.74 313.37
-2 -3 2 3434.76 310.07
-2 -3 2 3875.91 311.17
-2 -3 2 4019.2 310.77
-2 -3 2 4292.47 320.77
1 3 -2 159.58 15.4
1 3 -2 184.18 15.9
1 3 -2 217.18 15.9
1 3 -2 181.28 30.3
1 3 -2 161.58 15.6
1 3 -2 224.98 18.9
-1 -3 2 210.48 16.1
-1 -3 2 196.08 32.5
-1 -3 2 190.28 16
-1 -3 2 215.58 16
0 3 -2 6172.28 481.85
0 3 -2 5816.62 482.35
0 3 -2 6809.92 487.85
0 -3 2 6127.99 482.25
0 -3 2 6541.65 491.25
0 -3 2 6274.27 483.25
-1 3 -2 4661.63 317.77
-1 3 -2 3616.84 317.87
-1 3 -2 4338.87 317.47
-1 3 -2 4337.77 324.07
-1 3 -2 3808.22 318.37
1 -3 2 3994.1 317.27
1 -3 2 4030.7 317.97
1 -3 2 4335.77 317.27
1 -3 2 3653.03 319.87
1 -3 2 4389.56 324.17
1 -3 2 4364.66 318.17
-2 3 -2 3210.08 236.98
-2 3 -2 2922.81 227.08
-2 3 -2 2549.74 227.48
-2 3 -2 2731.03 228.18
-2 3 -2 2815.32 229.28
2 -3 2 3125.89 235.58
2 -3 2 2883.51 228.18
2 -3 2 2787.32 228.78
2 -3 2 3445.06 229.68
2 -3 2 3062.69 227.38
2 -3 2 3087.19 227.98
-3 3 -2 3323.57 265.37
-3 3 -2 3210.58 265.97
-3 3 -2 3404.66 267.87
-3 3 -2 3539.45 266.27
-3 3 -2 3756.42 277.47
3 -3 2 3710.43 264.47
3 -3 2 3435.56 266.17
3 -3 2 3592.64 275.27
3 -3 2 3476.75 266.27
3 -3 2 3560.54 264.87
3 -3 2 3112.59 264.47
3 -3 2 3331.07 265.47
-4 3 -2 437.46 38.1
4 -3 2 496.35 37.6
4 -3 2 477.75 36.6
4 -3 2 465.35 36.2
4 -3 2 472.05 48.7
4 -3 2 455.15 38.1
-5 3 -2 1452.65 126.99
-5 3 -2 1648.54 127.89
5 -3 2 1538.25 125.29
5 -3 2 1626.44 126.59
5 -3 2 1763.32 125.59
5 -3 2 1717.63 125.69
5 -3 2 1666.33 141.59
-6 3 -2 819.32 71.09
-6 3 -2 863.41 69.09
6 -3 2 799.92 68.09
6 -3 2 841.82 86.09
6 -3 2 805.52 66.79
6 -3 2 943.31 67.09
6 -3 2 925.71 67.09
6 -3 2 921.91 97.99
6 -3 2 855.81 69.19
-7 3 -2 147.69 16.1
7 -3 2 183.08 16.9
7 -3 2 154.48 37.2
7 -3 2 142.09 14.9
7 -3 2 140.29 42.1
7 -3 2 147.89 13.7
7 -3 2 158.68 13.2
-8 3 -2 1574.14 133.89
8 -3 2 1620.94 132.59
8 -3 2 1739.93 165.08
8 -3 2 1949.51 178.88
8 -3 2 1673.63 133.89
8 -3 2 1863.31 130.89
8 -3 2 1554.64 130.69
-9 3 -2 503.85 46.4
9 -3 2 576.24 42.4
9 -3 2 494.15 114.39
9 -3 2 497.75 44.5
9 -3 2 567.54 46.8
9 -3 2 520.95 42.3
-10 3 -2 373.56 50.29
-10 3 -2 524.05 43.3
10 -3 2 463.05 42.3
10 -3 2 419.16 37
10 -3 2 476.45 39.8
-11 3 -2 1129.79 94.89
-11 3 -2 1031 105.69
11 -3 2 1233.38 95.09
11 -3 2 1101.19 91.89
11 2 -2 265.17 31.9
11 2 -2 310.97 37.8
-11 -2 2 289.97 28.5
-11 -2 2 224.38 34.3
-11 -2 2 322.57 33.9
-10 -2 2 29.9 10.4
-10 -2 2 33.9 12.3
-10 -2 2 40.6 12.9
9 2 -2 836.52 71.49
9 2 -2 882.21 74.09
-9 -2 2 960.8 75.39
-9 -2 2 844.72 70.19
-9 -2 2 834.72 74.09
8 2 -2 396.36 41.8
8 2 -2 390.06 40
8 2 -2 474.45 37.7
8 2 -2 633.14 83.79
-8 -2 2 507.55 39.7
-8 -2 2 504.05 44
-8 -2 2 561.54 44
7 2 -2 539.05 39.4
7 2 -2 519.75 69.69
7 2 -2 438.36 41.3
7 2 -2 513.15 43.6
7 2 -2 424.36 62.39
-7 -2 2 510.35 41
-7 -2 2 509.45 43.8
-7 -2 2 486.05 39.4
-7 -2 2 530.05 45
6 2 -2 1919.11 158.88
6 2 -2 1914.11 157.18
6 2 -2 2055.09 175.48
6 2 -2 2197.08 160.78
6 2 -2 2079.49 178.38
-6 -2 2 2107.09 160.78
-6 -2 2 1946.91 157.18
-6 -2 2 2075.49 158.48
-6 -2 2 2107.89 162.08
5 2 -2 594.34 53.19
5 2 -2 663.83 68.89
5 2 -2 645.14 65.99
5 2 -2 670.63 54.59
5 2 -2 634.64 52.09
-5 -2 2 682.13 54.79
-5 -2 2 700.83 52.09
-5 -2 2 704.93 56.39
-5 -2 2 714.83 53.09
4 2 -2 2097.59 182.48
4 2 -2 2471.35 193.88
-4 -2 2 2404.56 182.78
-4 -2 2 2407.16 180.68
-4 -2 2 2447.35 184.18
-4 -2 2 2292.47 181.38
3 2 -2 4646.54 376.06
3 2 -2 5324.77 384.36
3 2 -2 4987.9 377.06
3 2 -2 4807.92 375.56
-3 -2 2 4885.01 375.06
-3 -2 2 5126.39 383.86
-3 -2 2 5202.48 377.46
-3 -2 2 4387.76 374.36
-3 -2 2 4637.34 375.86
2 2 -2 1259.17 114.89
2 2 -2 1595.64 119.79
2 2 -2 1391.76 113.89
2 2 -2 1513.05 113.39
2 2 -2 1647.64 113.69
2 2 -2 1390.86 114.29
2 2 -2 1427.46 115.69
-2 -2 2 1592.64 115.09
-2 -2 2 1466.05 114.19
-2 -2 2 1407.26 113.29
-2 -2 2 1499.65 113.69
-2 -2 2 1494.05 118.49
-2 -2 2 1468.85 115.29
1 2 -2 1855.71 154.38
1 2 -2 1969.6 160.48
1 2 -2 2135.49 154.58
1 2 -2 2164.38 154.78
1 2 -2 1915.31 154.78
-1 -2 2 2128.39 154.68
-1 -2 2 1759.22 154.38
-1 -2 2 1921.01 154.58
-1 -2 2 2189.58 157.68
-1 -2 2 2230.78 155.78
-1 -2 2 1864.41 154.88
0 2 -2 1856.21 167.58
0 2 -2 2253.67 167.78
0 2 -2 2212.38 168.38
0 2 -2 2228.28 167.38
0 2 -2 1888.21 168.28
0 2 -2 2069.19 169.48
0 2 -2 2300.27 167.28
0 2 -2 2407.46 170.78
0 -2 2 2416.66 170.18
0 -2 2 2206.18 169.98
0 -2 2 2018.7 167.58
0 -2 2 2451.25 168.38
0 -2 2 2115.09 167.28
0 -2 2 2115.49 167.28
-1 2 -2 7.6 1.8
-1 2 -2 2.4 3.8
-1 2 -2 7.9 1.7
-1 2 -2 3.1 1.4
-1 2 -2 4.7 2.1
1 -2 2 7.1 3.8
1 -2 2 5.9 1.4
1 -2 2 9.9 1.8
1 -2 2 6 2.5
1 -2 2 5 1.1
-2 2 -2 1975 178.88
-2 2 -2 2429.66 178.98
-2 2 -2 2319.97 180.58
-2 2 -2 2669.93 179.28
-2 2 -2 2408.06 179.18
2 -2 2 2268.17 179.18
2 -2 2 2182.08 178.78
2 -2 2 2335.47 178.48
2 -2 2 2330.27 185.28
-3 2 -2 821.12 69.09
-3 2 -2 918.71 71.29
-3 2 -2 947.71 69.39
-3 2 -2 918.81 69.09
-3 2 -2 878.91 68.99
3 -2 2 861.01 77.19
3 -2 2 885.31 81.79
3 -2 2 928.51 67.79
3 -2 2 900.31 68.09
3 -2 2 832.32 67.69
3 -2 2 815.92 68.59
3 -2 2 897.11 71.49
3 -2 2 847.22 68.89
-4 2 -2 244.08 18.7
-4 2 -2 247.88 20
-4 2 -2 280.77 20.8
-4 2 -2 221.78 23.1
-4 2 -2 240.18 19.5
4 -2 2 213.28 19.4
4 -2 2 180.88 28.2
4 -2 2 203.68 18.5
4 -2 2 231.78 18.3
-5 2 -2 1823.92 144.89
-5 2 -2 1868.31 144.39
5 -2 2 1819.92 144.19
5 -2 2 1885.31 142.79
5 -2 2 1706.63 142.49
5 -2 2 2107.59 142.79
5 -2 2 1905.11 165.18
5 -2 2 1747.33 143.59
5 -2 2 1817.92 158.38
-6 2 -2 188.48 18.9
-6 2 -2 222.28 19.3
6 -2 2 193.08 16.2
6 -2 2 170.08 17.4
6 -2 2 205.08 47.4
6 -2 2 210.08 17.1
6 -2 2 136.09 33.6
6 -2 2 220.88 18.7
6 -2 2 195.38 16.4
-7 2 -2 700.33 60.69
-7 2 -2 820.82 60.79
7 -2 2 796.52 57.59
7 -2 2 707.83 59.89
7 -2 2 685.33 57.39
7 -2 2 687.43 58.89
7 -2 2 669.03 80.99
7 -2 2 853.41 97.89
-8 2 -2 1190.48 100.39
8 -2 2 1309.97 99.69
8 -2 2 1102.79 126.49
8 -2 2 1197.08 98.19
8 -2 2 1230.98 96.49
8 -2 2 1269.57 96.39
8 -2 2 1438.16 145.49
-9 2 -2 -7.9 11.2
-9 2 -2 10.4 5.8
-9 2 -2 24.6 8.4
9 -2 2 9.8 3
9 -2 2 8.8 6.3
9 -2 2 -4.1 56.59
9 -2 2 14.2 5.1
9 -2 2 13.4 3.7
10 -2 2 1341.37 109.19
10 -2 2 1376.26 104.79
10 -2 2 1304.17 107.29
-11 2 -2 745.93 76.99
-11 2 -2 687.93 66.59
11 -2 2 716.93 62.59
11 -2 2 785.62 65.69
11 1 -2 37.5 9.6
11 1 -2 33.8 8.5
-11 -1 2 20.3 13.8
-11 -1 2 23 14
10 1 -2 973.9 84.49
10 1 -2 1005.8 80.29
10 1 -2 962.4 81.29
-10 -1 2 1052.29 87.09
-10 -1 2 1005 84.79
9 1 -2 1628.94 133.29
9 1 -2 1700.03 135.79
-9 -1 2 1777.32 138.69
-9 -1 2 1623.94 132.29
-9 -1 2 1730.83 136.29
8 1 -2 12.8 5.9
8 1 -2 8.9 3.9
8 1 -2 6.7 2
-8 -1 2 16.2 8.9
7 1 -2 3217.68 256.67
7 1 -2 2971.4 251.87
7 1 -2 2693.43 231.38
7 1 -2 3236.88 229.68
7 1 -2 3108.29 233.48
-7 -1 2 2887.21 235.88
-7 -1 2 2851.81 231.08
-7 -1 2 3004.3 233.68
-7 -1 2 2988.6 229.68
6 1 -2 1977 161.98
6 1 -2 2072.09 176.68
6 1 -2 1821.42 160.48
6 1 -2 2168.38 158.88
6 1 -2 2334.17 159.18
6 1 -2 2244.58 180.58
-6 -1 2 1886.01 162.08
-6 -1 2 2104.49 164.98
-6 -1 2 2081.39 159.18
-6 -1 2 2057.89 160.38
5 1 -2 435.76 36.3
5 1 -2 448.66 35
5 1 -2 443.76 51.29
5 1 -2 449.76 35.2
5 1 -2 418.26 48
-5 -1 2 427.46 40.1
-5 -1 2 411.36 37.4
-5 -1 2 456.35 36.2
-5 -1 2 483.65 35.1
-5 -1 2 507.85 35.1
4 1 -2 5156.98 405.76
4 1 -2 5832.22 414.66
4 1 -2 4675.73 403.96
-4 -1 2 5413.86 405.96
-4 -1 2 5487.15 403.96
-4 -1 2 4920.61 407.96
-4 -1 2 5450.75 404.86
3 1 -2 639.54 55.39
3 1 -2 663.43 48.8
3 1 -2 552.44 47.4
3 1 -2 568.64 47.2
3 1 -2 659.73 48
3 1 -2 581.44 53.39
3 1 -2 640.54 50.99
3 1 -2 696.13 48
-3 -1 2 568.84 50.59
-3 -1 2 576.34 47.8
-3 -1 2 661.23 47.5
-3 -1 2 574.04 48.6
-3 -1 2 588.34 47.8
2 1 -2 1775.02 129.59
2 1 -2 1802.82 129.79
2 1 -2 1780.42 132.99
2 1 -2 1665.63 131.89
2 1 -2 1449.35 128.89
-2 -1 2 1776.02 129.59
-2 -1 2 1557.74 131.29
-2 -1 2 1602.94 128.89
1 1 -2 3263.37 240.68
1 1 -2 3008.8 241.08
-1 -1 2 3119.49 240.68
-1 -1 2 3356.06 241.28
-1 -1 2 3089.19 242.68
-1 -1 2 2996.8 241.08
0 1 -2 602.24 49.99
0 1 -2 663.73 51.69
0 1 -2 675.53 50.19
0 1 -2 638.04 51.39
0 1 -2 558.44 49.99
0 1 -2 629.14 50.89
0 1 -2 702.63 50.39
0 1 -2 750.52 51.79
0 1 -2 589.24 52.59
0 -1 2 706.03 50.49
0 -1 2 640.74 51.39
0 -1 2 598.04 53.09
0 -1 2 642.34 50.69
0 -1 2 635.84 50.49
0 -1 2 754.92 50.99
0 -1 2 616.54 50.09
-1 1 -2 1316.97 125.49
-1 1 -2 1428.56 117.69
-1 1 -2 1499.55 117.59
-1 1 -2 1599.04 117.49
-1 1 -2 1680.53 117.99
-1 1 -2 1650.73 119.19
1 -1 2 1589.54 117.99
1 -1 2 1451.05 117.69
1 -1 2 1473.25 117.49
1 -1 2 1578.64 117.79
-2 1 -2 1286.77 87.19
-2 1 -2 1186.08 89.39
-2 1 -2 1039.9 87.29
-2 1 -2 1096.99 96.39
-2 1 -2 1265.07 87.69
-2 1 -2 1064.89 86.79
-2 1 -2 1096.09 87.39
2 -1 2 1197.18 87.69
2 -1 2 1039.9 87.39
2 -1 2 1055.59 87.39
2 -1 2 1127.69 96.99
2 -1 2 1142.49 87.09
2 -1 2 1100.29 86.89
-3 1 -2 105.09 8.4
-3 1 -2 98.69 7.9
-3 1 -2 87.19 7.6
-3 1 -2 88.19 10.7
3 -1 2 81.29 8.8
3 -1 2 89.79 7.9
3 -1 2 113.99 22.1
3 -1 2 82.59 9.8
-4 1 -2 3878.91 271.57
-4 1 -2 3106.89 271.57
-4 1 -2 3386.36 273.07
-4 1 -2 3326.97 270.87
-4 1 -2 3978.7 271.97
-4 1 -2 3869.51 271.07
-4 1 -2 3566.74 275.07
4 -1 2 3787.62 271.07
4 -1 2 3230.78 271.67
4 -1 2 3148.39 271.77
4 -1 2 3527.75 284.67
4 -1 2 3557.04 271.07
-5 1 -2 639.94 52.19
-5 1 -2 673.03 55.09
5 -1 2 740.03 52.49
5 -1 2 721.13 52.39
5 -1 2 665.73 74.09
5 -1 2 586.04 53.09
5 -1 2 646.44 67.89
5 -1 2 677.73 53.79
-6 1 -2 573.34 50.09
-6 1 -2 596.64 46.9
6 -1 2 594.04 48.1
6 -1 2 650.13 47
6 -1 2 563.84 48.5
6 -1 2 594.74 66.99
-7 1 -2 2076.39 169.58
-7 1 -2 2082.79 173.28
-7 1 -2 2089.79 171.18
7 -1 2 2289.17 171.98
7 -1 2 2305.47 206.08
7 -1 2 2106.19 170.98
7 -1 2 2261.47 196.38
7 -1 2 2412.06 169.58
-8 1 -2 353.36 30.1
-8 1 -2 391.56 35.4
8 -1 2 313.87 67.29
8 -1 2 396.76 84.09
8 -1 2 404.96 29.9
8 -1 2 331.07 31.7
8 -1 2 369.86 33
-9 1 -2 625.04 59.49
9 -1 2 717.53 53.99
9 -1 2 710.73 57.59
9 -1 2 697.63 53.49
9 -1 2 616.44 55.79
-10 1 -2 1397.06 115.59
10 -1 2 1432.66 113.09
10 -1 2 1328.97 111.19
10 -1 2 1389.26 108.59
-11 1 -2 67.59 19.8
-11 1 -2 58.89 23.7
11 -1 2 57.09 12
11 0 -2 84.49 15.4
11 0 -2 88.99 13.7
11 0 -2 112.39 21.5
-11 0 2 93.59 20.7
-11 0 2 95.59 22.1
10 0 -2 2256.77 161.18
10 0 -2 1998 161.68
-10 0 2 1918.41 167.88
9 0 -2 861.51 64.49
9 0 -2 964.4 128.69
9 0 -2 818.22 67.49
9 0 -2 788.92 64.89
-9 0 2 800.22 67.59
-9 0 2 693.13 70.29
8 0 -2 1011.8 80.59
8 0 -2 1071.09 82.89
8 0 -2 922.41 102.69
8 0 -2 1072.69 80.29
8 0 -2 1187.18 119.69
-8 0 2 927.71 85.89
-8 0 2 967.5 82.49
7 0 -2 3693.43 303.87
7 0 -2 4054.79 321.97
7 0 -2 3557.34 302.17
7 0 -2 4420.56 329.37
7 0 -2 3817.62 301.07
7 0 -2 4365.56 300.37
-7 0 2 3811.22 307.77
-7 0 2 3850.71 300.37
-7 0 2 3782.42 301.97
-7 0 2 3945.11 304.17
6 0 -2 758.02 53.79
6 0 -2 596.64 67.79
6 0 -2 720.43 54.29
6 0 -2 717.93 52.59
6 0 -2 799.42 75.99
-6 0 2 594.84 58.39
-6 0 2 736.73 53.59
-6 0 2 607.34 53.79
-6 0 2 691.13 52.59
-6 0 2 616.34 55.39
5 0 -2 2583.14 197.68
5 0 -2 1978.5 180.48
5 0 -2 2470.95 195.48
5 0 -2 2262.47 182.58
5 0 -2 2432.76 179.48
-5 0 2 2658.83 180.58
-5 0 2 2310.67 180.58
-5 0 2 2090.99 184.68
4 0 -2 2567.64 222.48
4 0 -2 2946.61 223.68
-4 0 2 3035 222.68
-4 0 2 2939.71 226.78
-4 0 2 2991.7 223.68
3 0 -2 79.59 8.2
3 0 -2 86.79 7.6
3 0 -2 87.09 8.7
3 0 -2 76.69 7.4
3 0 -2 98.09 8.7
3 0 -2 72.79 7.2
3 0 -2 97.09 14.8
-3 0 2 87.89 7.5
-3 0 2 75.09 8.1
-3 0 2 99.59 7.8
-3 0 2 92.19 8.3
-3 0 2 79.89 11.2
2 0 -2 2894.21 226.48
2 0 -2 2972.7 227.08
2 0 -2 3115.99 226.48
2 0 -2 3035.5 231.58
2 0 -2 2880.11 226.78
-2 0 2 2645.24 229.18
-2 0 2 3118.29 226.88
-2 0 2 3131.59 226.78
-2 0 2 2760.82 226.88
1 0 -2 4035.3 283.47
1 0 -2 3550.64 272.47
-1 0 2 3101.09 274.17
-1 0 2 3534.85 272.47
0 0 -2 591.44 46.5
0 0 -2 562.34 46.4
0 0 -2 702.43 48.2
0 0 -2 671.23 46.5
0 0 -2 613.54 55.69
0 0 -2 578.34 47.4
0 0 2 566.44 46.5
0 0 2 537.85 47.3
0 0 2 572.94 48
0 0 2 620.84 46.5
0 0 2 567.64 46.4
0 0 2 651.23 47
-1 0 -2 7621.04 603.44
1 0 2 7958 604.04
1 0 2 7698.03 595.44
-2 0 -2 481.35 36.6
-2 0 -2 456.85 34.6
-2 0 -2 426.16 34.5
-2 0 -2 455.85 34.4
-2 0 -2 374.16 44
-2 0 -2 452.65 34.5
-2 0 -2 445.86 34.3
2 0 2 399.66 45.1
2 0 2 447.16 34.5
2 0 2 462.35 35.8
2 0 2 434.96 34.6
2 0 2 418.96 34.6
2 0 2 425.26 34.3
-3 0 -2 3591.04 296.17
-3 0 -2 3846.62 297.17
-3 0 -2 4400.16 294.67
-3 0 -2 3339.57 294.57
-3 0 -2 3797.42 294.47
-3 0 -2 3940.01 310.67
-3 0 -2 3868.71 294.27
3 0 2 3745.33 294.67
3 0 2 4186.88 296.17
3 0 2 4158.28 310.97
3 0 2 3960.1 294.47
3 0 2 4079.19 294.47
3 0 2 3484.55 294.77
3 0 2 3355.26 294.67
-4 0 -2 5200.28 392.46
-4 0 -2 5673.43 389.26
-4 0 -2 4344.27 389.06
-4 0 -2 5457.05 388.86
-4 0 -2 5209.18 409.36
-4 0 -2 5079.89 391.26
-4 0 -2 4950.1 388.86
4 0 2 5662.83 409.96
4 0 2 4591.44 389.46
4 0 2 4403.96 389.26
4 0 2 5511.85 388.86
4 0 2 4791.52 388.66
-5 0 -2 45.2 5.2
-5 0 -2 32.2 8.2
-5 0 -2 58.09 6.1
-5 0 -2 62.39 9.1
-5 0 -2 53.19 6.1
5 0 2 41.7 22.7
5 0 2 39.4 5.9
5 0 2 45.5 5.6
5 0 2 42.6 7.4
-6 0 -2 2651.83 204.58
-6 0 -2 2636.84 201.48
-6 0 -2 2341.37 201.28
6 0 2 2491.65 202.18
6 0 2 2949.3 232.18
6 0 2 2777.62 200.78
6 0 2 2456.85 201.68
-7 0 -2 1965.8 161.08
-7 0 -2 2165.78 165.88
-7 0 -2 1947.61 161.68
7 0 2 2030.8 187.58
7 0 2 2088.69 163.28
7 0 2 2139.49 195.58
7 0 2 2009 162.48
7 0 2 2324.37 161.08
-8 0 -2 125.19 13.3
-8 0 -2 137.19 19.7
8 0 2 187.68 85.09
8 0 2 152.88 47.2
8 0 2 151.68 12.8
8 0 2 131.29 15.2
-9 0 -2 2049.89 170.08
-9 0 -2 1944.11 163.88
9 0 2 2238.18 163.58
9 0 2 2083.19 166.18
9 0 2 2124.99 224.78
9 0 2 2229.28 167.68
-10 0 -2 493.95 42.4
-10 0 -2 537.35 68.49
-10 0 -2 503.45 51.09
10 0 2 545.35 48.9
10 0 2 490.05 45.4
-11 0 -2 154.88 31.4
11 -1 -2 625.84 48.9
-11 1 2 559.14 51.99
-11 1 2 503.35 57.69
10 -1 -2 1349.36 113.39
10 -1 -2 1415.96 109.59
10 -1 -2 1506.65 108.99
-10 1 2 1259.17 116.89
-10 1 2 1366.06 111.99
9 -1 -2 23.8 4.9
9 -1 -2 23 7.1
9 -1 -2 38.5 43.9
9 -1 -2 17 4.6
-9 1 2 13.6 6
-9 1 2 15 9.9
8 -1 -2 1264.27 122.99
8 -1 -2 1157.18 98.79
8 -1 -2 1316.07 98.69
8 -1 -2 1445.46 134.59
8 -1 -2 1181.08 100.79
-8 1 2 1166.58 100.49
-8 1 2 1170.68 105.39
-8 1 2 1449.65 98.69
7 -1 -2 2068.99 172.38
7 -1 -2 2066.99 154.78
7 -1 -2 1998.7 152.68
7 -1 -2 2284.47 182.98
7 -1 -2 1882.41 152.78
-7 1 2 1733.63 158.28
-7 1 2 1750.52 153.98
-7 1 2 2085.69 152.98
6 -1 -2 20.1 12.3
6 -1 -2 15.7 4.4
6 -1 -2 18.5 4.7
6 -1 -2 21.4 3.8
6 -1 -2 16.6 3.3
-6 1 2 21 4.9
-6 1 2 7.8 6.1
-6 1 2 28.3 5
5 -1 -2 2517.65 193.78
5 -1 -2 2643.44 207.08
5 -1 -2 2269.17 193.68
-5 1 2 2343.37 194.68
-5 1 2 2527.95 194.58
-5 1 2 2859.61 208.58
4 -1 -2 1361.76 106.59
4 -1 -2 1357.96 105.59
4 -1 -2 1354.96 105.49
-4 1 2 1488.95 117.99
-4 1 2 1447.56 106.69
-4 1 2 1302.97 109.79
-4 1 2 1271.37 106.29
3 -1 -2 257.77 20.4
3 -1 -2 280.67 24.7
3 -1 -2 278.37 19.4
3 -1 -2 212.48 21
3 -1 -2 237.68 19.4
3 -1 -2 233.18 27.3
3 -1 -2 255.77 19.1
-3 1 2 204.58 19.8
-3 1 2 199.08 22.4
-3 1 2 216.88 20.2
-3 1 2 274.57 19.1
2 -1 -2 6443.26 459.45
2 -1 -2 6990 470.65
2 -1 -2 5589.04 459.05
-2 1 2 5245.98 461.45
-2 1 2 6196.38 459.75
-2 1 2 5765.32 459.05
-2 1 2 5709.03 458.75
1 -1 -2 913.11 71.99
1 -1 -2 784.72 71.59
1 -1 -2 842.42 72.49
1 -1 -2 1004.6 72.19
1 -1 -2 1065.29 75.19
1 -1 -2 896.91 72.49
-1 1 2 1047.7 72.09
-1 1 2 1028.3 72.99
-1 1 2 951.2 71.99
-1 1 2 801.62 71.59
0 -1 -2 3159.48 267.17
0 -1 -2 3237.38 266.77
0 -1 -2 3974.7 292.27
0 -1 -2 3391.66 267.77
0 1 2 3202.38 267.97
0 1 2 3826.12 288.77
0 1 2 3711.73 267.17
-1 -1 -2 3170.98 241.38
-1 -1 -2 2964.5 223.68
-1 -1 -2 2618.34 223.28
1 1 2 3144.99 223.98
1 1 2 2733.33 223.88
1 1 2 2595.94 223.38
1 1 2 3234.08 239.78
-2 -1 -2 216.48 19.4
-2 -1 -2 188.48 17.3
-2 -1 -2 216.38 32.3
-2 -1 -2 200.68 16.4
-2 -1 -2 166.58 18
2 1 2 228.28 17.3
2 1 2 220.48 17
2 1 2 230.18 17.9
2 1 2 211.88 17
2 1 2 217.78 32.4
2 1 2 181.88 16.8
2 1 2 189.28 16.6
2 1 2 232.08 17.3
-3 -1 -2 5612.54 478.15
-3 -1 -2 6701.93 462.25
-3 -1 -2 5880.81 459.95
3 1 2 5982.6 459.75
3 1 2 6313.77 460.85
3 1 2 6027.9 460.15
3 1 2 5666.43 460.05
3 1 2 5467.15 459.45
3 1 2 6271.97 478.55
-4 -1 -2 2382.46 189.48
-4 -1 -2 2410.16 163.68
-4 -1 -2 2245.88 164.28
-4 -1 -2 2058.89 166.38
-4 -1 -2 2250.27 167.08
4 1 2 1986.6 163.68
4 1 2 2091.39 163.78
4 1 2 1921.91 164.48
4 1 2 1836.62 164.28
-5 -1 -2 631.74 54.99
-5 -1 -2 669.03 52.29
-5 -1 -2 638.94 78.09
-5 -1 -2 771.92 51.39
5 1 2 572.84 52.39
5 1 2 646.64 78.99
5 1 2 636.14 53.59
-6 -1 -2 3871.91 331.67
-6 -1 -2 4060.19 298.67
-6 -1 -2 3746.73 302.07
6 1 2 4178.48 330.77
6 1 2 3812.02 299.77
6 1 2 3985.9 298.07
6 1 2 3505.35 299.07
-7 -1 -2 979.8 84.99
-7 -1 -2 1007.6 80.59
7 1 2 1077.79 123.59
7 1 2 987.2 81.79
7 1 2 1086.89 82.79
7 1 2 1016 79.99
-8 -1 -2 798.92 72.09
-8 -1 -2 804.82 66.59
8 1 2 891.81 66.09
8 1 2 777.22 123.89
8 1 2 843.02 68.49
8 1 2 841.02 69.29
-9 -1 -2 1384.86 110.59
-9 -1 -2 1198.08 121.49
-9 -1 -2 1243.68 103.69
9 1 2 1444.06 107.79
9 1 2 1261.47 109.59
9 1 2 1333.07 103.09
-10 -1 -2 53.49 9.2
-10 -1 -2 48.6 17.9
-10 -1 -2 48.8 16.8
10 1 2 51.59 14.2
10 1 2 44.9 12.8
11 -2 -2 943.91 73.29
11 -2 -2 843.42 72.49
11 -2 -2 856.81 67.49
-11 2 2 817.92 71.19
-11 2 2 718.93 78.59
10 -2 -2 407.36 35
10 -2 -2 406.96 38.6
10 -2 -2 430.16 34.3
-10 2 2 391.46 37.1
9 -2 -2 243.58 21.6
9 -2 -2 238.98 21.1
9 -2 -2 177.38 68.99
9 -2 -2 240.78 24.6
-9 2 2 256.57 23.9
-9 2 2 204.78 29.4
-9 2 2 259.47 24.5
8 -2 -2 1436.96 116.29
8 -2 -2 1565.04 142.29
8 -2 -2 1506.35 118.59
8 -2 -2 1517.15 115.99
-8 2 2 1394.16 123.59
-8 2 2 1473.75 117.79
-8 2 2 1551.24 117.79
7 -2 -2 505.55 61.89
7 -2 -2 532.95 41.1
7 -2 -2 508.15 43.2
7 -2 -2 533.85 41.4
-7 2 2 529.45 42.7
-7 2 2 470.65 47.4
-7 2 2 505.75 42.7
6 -2 -2 832.02 65.19
6 -2 -2 945.11 83.39
6 -2 -2 922.31 67.19
6 -2 -2 883.91 65.19
-6 2 2 704.93 66.39
-6 2 2 738.73 70.49
-6 2 2 778.62 66.19
-6 2 2 921.61 84.69
5 -2 -2 1116.19 90.39
5 -2 -2 1154.98 89.09
5 -2 -2 1320.87 105.19
5 -2 -2 1216.98 89.09
-5 2 2 1112.49 89.99
-5 2 2 1015.6 88.89
-5 2 2 1155.28 94.49
4 -2 -2 23.3 10.8
4 -2 -2 32.6 3.5
-4 2 2 26.5 2.6
-4 2 2 38.8 6.2
-4 2 2 26.7 7.2
-4 2 2 21.6 4.6
-4 2 2 29.2 13.5
3 -2 -2 1594.54 121.09
3 -2 -2 1597.64 122.29
3 -2 -2 1577.24 120.99
3 -2 -2 1581.54 121.39
3 -2 -2 1656.43 134.19
-3 2 2 1534.05 121.89
-3 2 2 1630.44 122.29
-3 2 2 1572.04 121.09
-3 2 2 1528.25 121.49
-3 2 2 1486.05 124.99
2 -2 -2 883.11 65.69
2 -2 -2 858.31 67.69
2 -2 -2 812.72 65.99
2 -2 -2 743.93 65.69
2 -2 -2 998.8 66.89
-2 2 2 809.12 66.39
-2 2 2 874.11 65.59
-2 2 2 735.43 68.69
-2 2 2 942.41 66.19
1 -2 -2 1166.78 103.89
1 -2 -2 1433.36 104.79
1 -2 -2 1299.37 104.29
1 -2 -2 1556.64 105.19
-1 2 2 1493.95 104.49
-1 2 2 1171.58 103.89
-1 2 2 1322.17 105.79
-1 2 2 1553.24 104.89
-1 2 2 1171.78 103.89
0 -2 -2 2733.33 218.78
0 -2 -2 2732.83 217.98
0 -2 -2 2835.72 218.98
0 2 2 3286.17 250.57
0 2 2 2807.92 218.18
0 2 2 2700.53 219.48
0 2 2 2896.51 218.18
-1 -2 -2 1599.44 139.29
-1 -2 -2 1199.58 106.79
1 2 2 1242.48 107.09
1 2 2 1289.47 107.09
1 2 2 1329.67 127.29
1 2 2 1531.45 108.09
1 2 2 1604.54 108.29
-2 -2 -2 1536.35 116.49
-2 -2 -2 1537.05 116.89
-2 -2 -2 1622.44 142.19
-2 -2 -2 1316.37 116.69
-2 -2 -2 1308.07 116.19
2 2 2 1429.56 115.59
2 2 2 1710.33 116.59
2 2 2 1654.53 115.99
2 2 2 1539.65 136.39
2 2 2 1287.27 115.19
2 2 2 1536.15 115.99
-3 -2 -2 3542.05 302.57
-3 -2 -2 3797.42 301.67
-3 -2 -2 4544.45 300.87
-3 -2 -2 4107.29 302.67
3 2 2 3334.37 301.07
3 2 2 4309.67 301.57
3 2 2 4205.38 301.87
3 2 2 3595.44 300.77
3 2 2 4266.37 301.87
3 2 2 3358.46 300.57
3 2 2 3990.9 323.47
-4 -2 -2 111.09 10.8
-4 -2 -2 90.59 28.2
-4 -2 -2 101.89 11.8
-4 -2 -2 96.99 8.7
4 2 2 168.98 38.2
4 2 2 77.99 9.5
4 2 2 79.09 8.4
-5 -2 -2 1881.71 151.28
-5 -2 -2 1730.03 148.39
-5 -2 -2 2225.88 147.39
5 2 2 1767.52 148.79
5 2 2 2068.49 198.68
5 2 2 1830.92 147.69
5 2 2 1913.01 149.39
-6 -2 -2 2304.77 226.88
-6 -2 -2 2698.63 186.08
-6 -2 -2 2371.46 187.98
-6 -2 -2 2319.37 191.18
6 2 2 2350.76 220.38
6 2 2 2626.44 189.48
6 2 2 2260.97 186.98
6 2 2 2354.86 188.58
-7 -2 -2 12.9 4.7
-7 -2 -2 12.7 8
-7 -2 -2 33.9 39.4
7 2 2 12.5 5.7
7 2 2 15.4 6.5
7 2 2 7.8 3.2
7 2 2 -7.1 35.4
-8 -2 -2 945.11 78.29
-8 -2 -2 923.81 83.49
8 2 2 1088.69 81.59
8 2 2 812.22 139.89
8 2 2 966.9 80.19
8 2 2 1005.4 77.39
-9 -2 -2 506.45 55.09
-9 -2 -2 524.95 48.4
-9 -2 -2 644.34 53.79
9 2 2 601.94 51.59
9 2 2 548.55 47.2
9 2 2 637.04 52.99
-10 -2 -2 58.49 21.1
-10 -2 -2 58.79 15.8
10 2 2 41.8 14.1
10 2 2 35.6 14.5
11 -3 -2 1097.69 89.99
11 -3 -2 1258.77 89.39
11 -3 -2 1221.18 94.69
-11 3 2 950.1 101.39
-11 3 2 1076.39 92.19
10 -3 -2 4.7 4
10 -3 -2 8.7 4.2
10 -3 -2 2.2 8.5
-10 3 2 9.4 15.4
-10 3 2 1.8 5.5
-10 3 2 9.9 4.8
9 -3 -2 1346.07 103.39
9 -3 -2 1345.57 102.89
9 -3 -2 1316.37 106.09
-9 3 2 1267.07 104.79
-9 3 2 1304.47 104.69
8 -3 -2 850.11 92.19
8 -3 -2 808.22 63.29
8 -3 -2 856.71 63.69
8 -3 -2 834.32 66.19
-8 3 2 782.62 71.69
-8 3 2 700.43 65.09
7 -3 -2 707.63 77.29
7 -3 -2 652.63 53.29
7 -3 -2 755.12 53.39
-7 3 2 645.54 54.39
-7 3 2 585.64 59.69
-7 3 2 734.03 79.49
6 -3 -2 2263.27 176.28
6 -3 -2 2295.57 178.18
6 -3 -2 2342.67 176.38
6 -3 -2 2507.05 197.28
-6 3 2 2173.78 177.28
-6 3 2 2171.68 182.38
5 -3 -2 48.9 7
5 -3 -2 52.49 6
5 -3 -2 49.4 5
5 -3 -2 41.7 14.8
-5 3 2 26.6 12
-5 3 2 35.9 4.8
-5 3 2 37 3.9
-5 3 2 37.9 6.5
-5 3 2 47.8 10.1
4 -3 -2 1243.68 99.89
4 -3 -2 1535.25 117.79
4 -3 -2 1215.58 98.59
4 -3 -2 1292.87 98.39
-4 3 2 1155.38 102.69
-4 3 2 1226.08 99.19
-4 3 2 1316.07 98.49
3 -3 -2 1911.21 139.39
3 -3 -2 1903.71 156.08
3 -3 -2 1851.31 137.99
3 -3 -2 1860.21 137.99
3 -3 -2 1912.91 138.29
-3 3 2 1575.44 138.39
-3 3 2 1546.45 137.69
-3 3 2 1546.25 141.29
-3 3 2 2032.3 137.99
2 -3 -2 228.78 20.2
2 -3 -2 225.28 37.1
2 -3 -2 225.78 18.9
2 -3 -2 233.88 19.1
2 -3 -2 259.07 19.2
-2 3 2 268.27 19.6
-2 3 2 192.88 18.6
1 -3 -2 5091.79 368.96
1 -3 -2 4837.52 367.16
1 -3 -2 4694.93 366.56
1 -3 -2 5294.67 368.56
1 -3 -2 4425.86 367.06
-1 3 2 4110.19 368.96
-1 3 2 4408.06 366.66
-1 3 2 5077.19 368.66
-1 3 2 5074.59 366.86
0 -3 -2 1961.6 179.48
0 -3 -2 2337.27 176.38
0 -3 -2 2108.59 175.48
0 -3 -2 2273.27 176.58
0 3 2 2584.04 177.18
0 3 2 2228.68 177.98
0 3 2 2429.96 176.08
0 3 2 2340.07 175.88
-1 -3 -2 445.96 37.5
-1 -3 -2 527.25 37.7
-1 -3 -2 422.26 37.7
-1 -3 -2 507.55 105.29
-1 -3 -2 496.75 41.3
1 3 2 467.55 36.8
1 3 2 476.45 38.5
1 3 2 473.45 65.69
1 3 2 402.06 37.6
-2 -3 -2 7333.17 489.15
-2 -3 -2 6246.67 488.25
-2 -3 -2 5453.25 489.05
-2 -3 -2 6873.11 490.85
2 3 2 6262.47 513.85
2 3 2 5428.26 487.85
2 3 2 5869.21 488.35
2 3 2 7153.78 490.15
2 3 2 6601.34 489.05
-3 -3 -2 907.61 70.49
-3 -3 -2 884.81 69.09
-3 -3 -2 823.02 69.89
-3 -3 -2 721.03 70.09
-3 -3 -2 906.31 67.99
3 3 2 801.02 67.99
3 3 2 939.31 68.49
3 3 2 945.61 68.99
3 3 2 857.91 96.79
3 3 2 862.51 68.09
-4 -3 -2 569.64 47.3
-4 -3 -2 597.04 45.5
-4 -3 -2 535.45 48.3
-4 -3 -2 561.04 90.19
4 3 2 583.14 79.89
4 3 2 595.44 45.6
4 3 2 583.04 47.1
4 3 2 569.04 45.9
4 3 2 561.44 46.2
-5 -3 -2 1778.92 138.39
-5 -3 -2 1657.03 184.38
-5 -3 -2 1799.62 142.79
-5 -3 -2 1823.12 140.79
5 3 2 1835.62 139.59
5 3 2 1899.61 175.38
5 3 2 1614.24 138.29
5 3 2 1926.51 141.09
-6 -3 -2 130.99 67.39
-6 -3 -2 201.38 23.4
-6 -3 -2 198.18 20.3
6 3 2 223.68 22.2
6 3 2 326.67 83.29
6 3 2 214.38 19.2
6 3 2 206.48 21.1
-7 -3 -2 680.33 132.19
-7 -3 -2 604.24 54.89
-7 -3 -2 654.13 58.99
7 3 2 627.24 53.59
7 3 2 761.52 56.99
-8 -3 -2 716.23 60.09
-8 -3 -2 671.53 71.89
-8 -3 -2 638.34 58.19
8 3 2 665.93 56.89
8 3 2 800.02 62.29
8 3 2 698.33 66.39
-9 -3 -2 15.6 9.2
-9 -3 -2 26.7 10
-9 -3 -2 15.1 12.7
9 3 2 37.5 13.5
9 3 2 13.8 6.1
9 3 2 0.9 10.2
11 -4 -2 444.16 36.2
11 -4 -2 431.06 37.1
11 -4 -2 481.45 43
-11 4 2 405.26 39.8
-11 4 2 374.46 52.49
10 -4 -2 489.35 37.7
10 -4 -2 448.96 49.3
10 -4 -2 512.95 38.5
-10 4 2 378.76 57.39
-10 4 2 432.86 40.3
-10 4 2 426.46 39.9
9 -4 -2 1329.87 97.69
9 -4 -2 1314.57 100.79
9 -4 -2 1315.27 97.19
-9 4 2 1289.97 99.09
-9 4 2 1076.59 99.79
-9 4 2 1103.39 106.29
8 -4 -2 29.6 30.6
-8 4 2 75.89 17.2
-8 4 2 42.1 31.8
7 -4 -2 2106.29 157.28
7 -4 -2 2284.77 184.38
7 -4 -2 2165.98 157.28
7 -4 -2 2144.59 159.88
-7 4 2 1788.72 155.98
-7 4 2 1925.71 158.08
-7 4 2 1876.71 163.88
6 -4 -2 963.8 68.79
6 -4 -2 954 70.99
6 -4 -2 871.81 68.59
6 -4 -2 937.81 92.09
-6 4 2 819.72 74.39
-6 4 2 767.62 67.69
-6 4 2 952.2 94.99
-6 4 2 811.12 69.29
5 -4 -2 301.47 26.9
5 -4 -2 333.97 45.2
5 -4 -2 341.97 25.2
5 -4 -2 312.97 25.2
-5 4 2 287.07 24.5
-5 4 2 272.67 29.7
-5 4 2 305.27 25.9
-5 4 2 386.96 51.49
4 -4 -2 4440.56 359.56
4 -4 -2 5113.09 380.96
4 -4 -2 4238.18 357.86
4 -4 -2 4847.61 357.76
-4 4 2 4149.58 358.16
-4 4 2 5218.08 357.96
3 -4 -2 1773.22 126.49
3 -4 -2 1551.24 147.39
3 -4 -2 1691.23 127.89
3 -4 -2 1719.73 126.29
3 -4 -2 1581.74 126.29
3 -4 -2 1800.12 126.39
-3 4 2 1433.56 125.79
-3 4 2 1481.45 129.39
2 -4 -2 2372.66 171.48
2 -4 -2 2233.68 169.58
2 -4 -2 2335.37 169.48
-2 4 2 1935.11 169.08
-2 4 2 2102.69 172.08
1 -4 -2 5622.54 394.46
1 -4 -2 5102.09 396.96
1 -4 -2 4861.71 393.86
-1 4 2 5022.3 396.06
-1 4 2 5452.65 396.06
-1 4 2 4538.85 396.46
-1 4 2 5298.27 393.86
0 -4 -2 171.48 16.8
0 -4 -2 173.18 73.69
0 -4 -2 164.98 21.5
0 -4 -2 198.08 15.7
0 4 2 197.88 16
0 4 2 193.28 15.6
0 4 2 157.18 16.5
0 4 2 187.08 17.3
0 4 2 153.38 18.1
-1 -4 -2 4575.64 310.17
-1 -4 -2 3327.37 364.96
-1 -4 -2 4105.79 310.87
1 4 2 4071.19 343.97
1 4 2 3832.82 311.57
-2 -4 -2 3676.63 343.77
-2 -4 -2 3628.54 285.87
-2 -4 -2 3574.24 283.87
-2 -4 -2 4114.19 289.07
-2 -4 -2 3327.07 284.87
2 4 2 3648.54 285.47
2 4 2 3814.22 283.97
-3 -4 -2 17.9 4.1
-3 -4 -2 18.1 5.1
-3 -4 -2 18.5 42.9
-3 -4 -2 21.8 6.6
-3 -4 -2 30.7 10.5
-3 -4 -2 30.2 5.4
3 4 2 28.6 4.7
3 4 2 49.8 29.3
3 4 2 20.3 5.2
-4 -4 -2 1614.24 148.39
-4 -4 -2 1850.61 149.19
4 4 2 1999 185.48
4 4 2 2191.28 149.09
4 4 2 1821.52 146.79
4 4 2 1898.21 147.29
-5 -4 -2 1083.79 92.19
-5 -4 -2 1284.57 94.09
-5 -4 -2 1161.58 165.28
5 4 2 1237.18 90.99
5 4 2 1105.89 133.59
5 4 2 1005.3 88.99
-6 -4 -2 167.78 20.1
-6 -4 -2 184.08 22.4
-6 -4 -2 161.48 103.79
6 4 2 117.09 53.39
6 4 2 200.98 18.3
-7 -4 -2 1160.58 103.59
-7 -4 -2 1119.79 193.18
-7 -4 -2 1271.17 106.49
-7 -4 -2 1358.16 103.29
7 4 2 1225.68 102.09
7 4 2 1253.77 169.48
7 4 2 1465.95 105.99
-8 -4 -2 110.09 18.8
-8 -4 -2 130.39 19.3
-8 -4 -2 83.99 19.4
8 4 2 158.38 22.8
8 4 2 106.49 15.5
-9 -4 -2 378.06 47.8
-9 -4 -2 386.86 41.2
9 4 2 412.76 38.2
9 4 2 470.45 47.1
11 -5 -2 12 5.3
-11 5 2 23.6 9.1
-11 5 2 4.8 17.9
10 -5 -2 715.83 59.99
10 -5 -2 730.63 55.89
10 -5 -2 755.52 55.49
-10 5 2 589.74 59.09
-10 5 2 641.24 67.69
-10 5 2 682.33 57.19
9 -5 -2 340.47 32.7
9 -5 -2 363.36 29
9 -5 -2 347.87 29.2
-9 5 2 322.07 38.8
-9 5 2 348.27 30.5
8 -5 -2 231.48 19.2
8 -5 -2 211.78 19.1
8 -5 -2 219.78 49.6
8 -5 -2 231.88 22.6
-8 5 2 232.88 28.5
-8 5 2 200.78 20.2
-8 5 2 207.28 17.5
-8 5 2 336.17 67.59
7 -5 -2 1531.85 118.29
7 -5 -2 1626.84 121.29
7 -5 -2 1584.04 118.39
7 -5 -2 1654.73 149.49
-7 5 2 1306.57 124.29
-7 5 2 1799.32 155.68
-7 5 2 1385.16 118.89
-7 5 2 1447.86 117.29
6 -5 -2 110.09 13.5
6 -5 -2 100.29 10.5
6 -5 -2 109.59 10.7
-6 5 2 99.89 16.2
-6 5 2 111.89 9.7
-6 5 2 98.49 11.9
-6 5 2 196.08 45.8
-6 5 2 126.39 10.2
5 -5 -2 1172.28 82.99
5 -5 -2 1158.78 110.39
5 -5 -2 1018.2 82.79
5 -5 -2 1095.89 85.09
-5 5 2 992.1 83.19
-5 5 2 1010.6 87.49
-5 5 2 1021.1 82.29
4 -5 -2 3426.46 276.47
4 -5 -2 3403.76 274.57
4 -5 -2 3875.41 274.77
4 -5 -2 3789.62 274.77
-4 5 2 3425.36 274.17
-4 5 2 3479.25 278.47
3 -5 -2 12.4 17.2
-3 5 2 4.2 29.5
-3 5 2 4.6 3.1
-3 5 2 5 4.1
-3 5 2 3 4.4
2 -5 -2 3398.46 265.77
2 -5 -2 3529.55 263.17
2 -5 -2 3496.55 265.07
2 -5 -2 3797.62 262.77
-2 5 2 3397.16 265.37
-2 5 2 2826.22 265.67
-2 5 2 3434.46 262.67
1 -5 -2 2702.33 201.38
1 -5 -2 2475.15 200.48
1 -5 -2 2647.04 267.87
-1 5 2 2598.74 201.48
-1 5 2 2457.55 202.68
-1 5 2 2750.82 202.88
0 -5 -2 42.5 81.19
0 -5 -2 58.89 8
0 -5 -2 61.39 14.9
0 -5 -2 67.49 7.4
0 5 2 56.39 7.8
0 5 2 59.09 7.1
0 5 2 46.8 11.1
-1 -5 -2 3254.97 280.77
-1 -5 -2 3830.52 274.37
-1 -5 -2 3635.34 274.77
1 5 2 3588.84 273.87
1 5 2 3889.11 317.37
1 5 2 3175.68 276.37
-2 -5 -2 877.81 63.79
-2 -5 -2 713.93 63.79
2 5 2 720.53 65.09
2 5 2 833.92 62.99
-3 -5 -2 68.59 74.19
-3 -5 -2 127.99 17.5
-3 -5 -2 188.08 17.1
-3 -5 -2 162.08 21.8
3 5 2 139.59 17.5
3 5 2 167.18 15.6
3 5 2 199.08 53.79
-4 -5 -2 1998 266.37
-4 -5 -2 2222.48 165.38
-4 -5 -2 1925.81 165.28
-4 -5 -2 1995.6 168.38
4 5 2 2468.75 166.08
4 5 2 1869.71 163.28
4 5 2 2156.48 163.88
4 5 2 2056.39 205.88
-5 -5 -2 195.78 18
-5 -5 -2 172.08 22
-5 -5 -2 258.37 104.69
5 5 2 178.88 17.4
5 5 2 215.68 19.8
5 5 2 163.88 61.19
-6 -5 -2 634.84 142.09
-6 -5 -2 767.82 67.89
-6 -5 -2 887.81 64.79
6 5 2 764.32 65.29
6 5 2 723.03 140.79
-7 -5 -2 839.72 81.69
7 5 2 980.1 80.29
7 5 2 1146.89 91.19
-8 -5 -2 -3.8 13.1
-8 -5 -2 -6.1 11.3
8 5 2 -2.8 11.4
8 5 2 10.2 8.6
8 5 2 10.1 17.9
11 -6 -2 236.68 29
11 -6 -2 212.38 20.4
11 -6 -2 205.68 24.7
-11 6 2 194.58 40.9
-11 6 2 177.08 25.1
-11 6 2 179.18 26.7
10 -6 -2 382.76 36.6
10 -6 -2 400.56 30.9
10 -6 -2 384.26 31.2
-10 6 2 299.77 36.9
-10 6 2 310.97 44
-10 6 2 362.96 32.5
9 -6 -2 18.3 4.4
9 -6 -2 21.6 8.3
9 -6 -2 24.4 5.1
-9 6 2 27.3 13.6
-9 6 2 5.8 9
8 -6 -2 1002.8 126.69
8 -6 -2 1058.69 81.49
8 -6 -2 1091.89 85.09
8 -6 -2 1140.09 81.59
-8 6 2 1272.27 135.49
-8 6 2 904.21 81.89
-8 6 2 1020 80.19
-8 6 2 914.41 88.59
7 -6 -2 433.56 33.5
7 -6 -2 440.16 36.9
7 -6 -2 409.66 33.4
7 -6 -2 452.45 73.79
-7 6 2 402.56 33.9
-7 6 2 514.05 82.29
-7 6 2 399.46 32.4
-7 6 2 329.97 37.8
-7 6 2 388.76 40.1
6 -6 -2 189.48 44.8
6 -6 -2 134.39 16.1
6 -6 -2 141.49 13.4
-6 6 2 118.09 39.7
-6 6 2 138.69 19.1
-6 6 2 145.69 12.7
5 -6 -2 2109.39 204.48
5 -6 -2 2355.06 174.28
5 -6 -2 2318.07 177.08
5 -6 -2 2374.16 174.58
5 -6 -2 2263.57 174.38
-5 6 2 2037.3 178.28
-5 6 2 2262.37 173.78
4 -6 -2 762.02 54.39
4 -6 -2 696.33 56.89
4 -6 -2 586.44 84.29
4 -6 -2 625.14 54.19
4 -6 -2 697.73 53.69
-4 6 2 705.93 53.69
-4 6 2 631.34 57.39
3 -6 -2 610.34 106.89
3 -6 -2 532.65 45.2
3 -6 -2 505.95 42.1
-3 6 2 502.45 45.2
-3 6 2 599.14 41.7
-3 6 2 440.56 45
2 -6 -2 1964.3 151.08
2 -6 -2 1932.41 155.48
2 -6 -2 2128.59 152.18
-2 6 2 1787.82 155.08
-2 6 2 1961.8 153.88
1 -6 -2 261.67 67.39
1 -6 -2 324.37 27.5
1 -6 -2 329.37 28.5
-1 6 2 350.16 32
-1 6 2 361.56 29.6
0 -6 -2 605.44 134.89
0 -6 -2 682.23 56.09
0 -6 -2 623.04 54.89
0 -6 -2 667.63 62.39
0 -6 -2 796.52 55.59
0 6 2 677.23 55.09
0 6 2 674.73 58.89
0 6 2 756.02 55.59
-1 -6 -2 1307.67 125.59
-1 -6 -2 1392.06 118.99
-1 -6 -2 1598.84 118.59
1 6 2 1513.65 118.39
1 6 2 1749.03 119.59
1 6 2 1899.11 173.98
1 6 2 1311.47 121.09
-2 -6 -2 58.09 10.9
-2 -6 -2 55.99 8.6
-2 -6 -2 -16.2 101.39
2 6 2 52.49 10.1
2 6 2 73.39 45.8
2 6 2 41 7.2
-3 -6 -2 302.17 154.18
-3 -6 -2 522.25 45.8
3 6 2 404.16 88.29
3 6 2 506.85 43.7
3 6 2 590.74 45.9
-4 -6 -2 979.3 90.49
-4 -6 -2 1110.09 85.89
-4 -6 -2 1053.79 229.58
4 6 2 952.5 140.69
4 6 2 878.61 83.39
4 6 2 1212.08 83.99
-5 -6 -2 27.6 11.2
-5 -6 -2 -163.48 113.99
5 6 2 60.69 60.39
5 6 2 41.6 8.8
-6 -6 -2 1090.89 87.99
6 6 2 1015 86.39
-7 -6 -2 182.98 26.9
7 6 2 260.17 32
-8 -6 -2 495.95 49.4
-8 -6 -2 402.96 52.19
8 6 2 511.45 47.8
11 -7 -2 676.13 61.19
11 -7 -2 721.43 54.19
-11 7 2 568.34 61.69
-11 7 2 678.93 71.69
10 -7 -2 133.09 14.6
10 -7 -2 142.49 14.5
10 -7 -2 138.79 21.8
-10 7 2 123.89 16.4
-10 7 2 102.29 23.7
9 -7 -2 660.23 52.49
9 -7 -2 678.43 52.39
9 -7 -2 672.83 56.99
-9 7 2 582.24 52.79
8 -7 -2 1360.96 105.99
8 -7 -2 1341.97 102.09
8 -7 -2 1384.56 102.09
-8 7 2 1257.37 109.69
-8 7 2 1085.99 107.29
-8 7 2 1345.27 102.49
7 -7 -2 33.7 47
7 -7 -2 5.3 3.2
-7 7 2 6 8.2
-7 7 2 10.7 2.7
-7 7 2 -57.09 52.59
-7 7 2 9.7 7.2
6 -7 -2 1279.17 97.99
6 -7 -2 1148.89 94.59
6 -7 -2 1248.38 94.39
6 -7 -2 1267.17 94.59
6 -7 -2 1147.59 138.39
-6 7 2 1288.07 93.49
-6 7 2 1035.2 98.79
-6 7 2 1149.58 99.29
5 -7 -2 2002.8 155.78
5 -7 -2 2020.9 155.08
5 -7 -2 1872.51 155.88
5 -7 -2 2141.69 159.38
-5 7 2 1977.8 159.98
-5 7 2 1772.72 159.98
-5 7 2 2236.38 155.18
4 -7 -2 136.79 16.3
4 -7 -2 98.89 10.5
4 -7 -2 112.09 12.1
-4 7 2 107.29 14.8
-4 7 2 116.39 10.8
-4 7 2 225.38 115.29
-4 7 2 100.89 16.1
3 -7 -2 1651.93 128.69
3 -7 -2 1621.04 127.49
3 -7 -2 1569.24 132.29
-3 7 2 1834.12 128.19
-3 7 2 1493.05 132.19
-3 7 2 1715.23 131.69
2 -7 -2 1113.99 89.59
2 -7 -2 1075.19 88.29
-2 7 2 1304.17 89.09
-2 7 2 1156.78 91.19
-2 7 2 1020.7 92.89
1 -7 -2 134.59 22.6
1 -7 -2 150.38 68.69
1 -7 -2 160.78 17
1 -7 -2 175.88 15.7
-1 7 2 208.98 16.5
-1 7 2 158.38 20.2
-1 7 2 187.08 17.4
-1 7 2 188.98 16.3
0 -7 -2 1215.28 99.19
0 -7 -2 1195.68 106.09
0 -7 -2 1039.7 189.58
0 7 2 1229.18 102.39
0 7 2 1439.56 98.89
-1 -7 -2 118.39 12.2
-1 -7 -2 112.59 23.2
-1 -7 -2 117.99 14.2
-1 -7 -2 95.19 95.09
1 7 2 92.59 16.3
1 7 2 101.79 12.5
1 7 2 141.29 14.2
1 7 2 147.59 55.29
-2 -7 -2 430.26 36.1
-2 -7 -2 406.06 37.5
-2 -7 -2 258.47 135.09
2 7 2 476.65 103.09
2 7 2 432.26 36.1
-3 -7 -2 1479.45 129.79
-3 -7 -2 1080.49 263.67
-3 -7 -2 1743.73 128.89
3 7 2 1610.24 128.29
3 7 2 1775.72 130.29
-4 -7 -2 51.49 139.69
-4 -7 -2 58.39 12.2
-4 -7 -2 71.39 14.6
4 7 2 -16.7 66.79
-5 -7 -2 1356.96 106.99
5 7 2 1275.27 106.39
-6 -7 -2 601.24 52.19
6 7 2 553.54 51.69
-7 -7 -2 220.68 29.8
7 7 2 298.97 40
7 7 2 223.48 31.2
10 -8 -2 55.49 15.5
10 -8 -2 41.6 11.4
10 -8 -2 39.1 9.7
-10 8 2 44.3 19.9
-10 8 2 16.2 14.5
9 -8 -2 1614.64 125.79
9 -8 -2 1557.54 120.69
9 -8 -2 1645.14 120.59
-9 8 2 1380.86 127.49
-9 8 2 1458.85 129.39
8 -8 -2 1164.28 85.19
8 -8 -2 1078.29 84.49
8 -8 -2 981.1 84.89
-8 8 2 946.61 91.39
-8 8 2 1187.28 85.89
7 -8 -2 231.18 82.29
7 -8 -2 255.67 25.9
7 -8 -2 257.87 20.8
7 -8 -2 217.18 20.5
7 -8 -2 195.78 19.2
-7 8 2 237.68 19.1
-7 8 2 365.46 96.49
-7 8 2 188.38 26.4
-7 8 2 197.18 27
6 -8 -2 1832.22 216.58
6 -8 -2 2057.99 165.08
6 -8 -2 2102.39 168.78
6 -8 -2 2214.18 163.88
6 -8 -2 2270.17 164.98
-6 8 2 2118.29 170.58
-6 8 2 2106.09 169.68
5 -8 -2 390.16 37.5
5 -8 -2 436.66 41.7
5 -8 -2 476.05 36.1
5 -8 -2 484.45 37.7
-5 8 2 465.95 41.7
-5 8 2 440.76 42.6
4 -8 -2 977.1 77.89
4 -8 -2 946.81 83.49
4 -8 -2 1053.99 79.69
-4 8 2 1023.7 84.19
-4 8 2 1003.1 82.49
3 -8 -2 1828.02 150.68
3 -8 -2 1975.3 152.38
-3 8 2 2066.39 157.08
2 -8 -2 91.19 67.79
2 -8 -2 106.69 18.5
-2 8 2 96.29 13.3
-2 8 2 92.09 10.1
-2 8 2 92.19 9.7
-2 8 2 64.29 14.6
-2 8 2 207.58 76.69
1 -8 -2 1427.26 128.89
1 -8 -2 1786.52 128.29
1 -8 -2 1492.25 134.99
-1 8 2 1783.92 128.69
-1 8 2 1626.04 128.29
-1 8 2 1601.94 132.79
-1 8 2 1793.62 128.89
0 -8 -2 1174.28 106.59
0 -8 -2 1419.66 105.89
0 -8 -2 1276.27 113.99
0 -8 -2 1156.08 201.48
0 8 2 1527.95 106.89
0 8 2 1436.16 106.19
0 8 2 1304.47 110.09
-1 -8 -2 198.68 22.1
-1 -8 -2 241.28 20.3
-1 -8 -2 286.17 167.68
-1 -8 -2 177.48 32.4
1 8 2 233.68 20.5
1 8 2 203.38 24.6
-2 -8 -2 1821.92 138.49
-2 -8 -2 1369.76 267.57
-2 -8 -2 1681.13 139.69
-2 -8 -2 1579.04 148.59
2 8 2 1940.81 138.69
2 8 2 1568.44 249.58
2 8 2 1650.33 141.49
2 8 2 2034.9 140.19
-3 -8 -2 528.85 47.8
-3 -8 -2 562.04 45.6
3 8 2 493.75 45.3
3 8 2 540.85 47.3
-4 -8 -2 1646.14 128.79
-4 -8 -2 1449.95 136.09
4 8 2 1739.13 135.09
-5 -8 -2 1450.35 127.99
5 8 2 1592.04 127.99
5 8 2 1737.63 131.19
-6 -8 -2 9.7 9.9
-6 -8 -2 -11.9 21
6 8 2 -0.9 20.9
6 8 2 7.4 14.5
6 8 2 0.9 11
9 -9 -2 1244.58 90.09
9 -9 -2 1054.09 94.29
-9 9 2 1023.7 96.89
-9 9 2 1083.59 96.99
8 -9 -2 59.29 10.6
-8 9 2 53.99 26.2
-8 9 2 37.8 14
7 -9 -2 631.14 68.99
7 -9 -2 824.22 57.49
7 -9 -2 639.34 57.09
-7 9 2 745.33 63.29
-7 9 2 622.84 71.99
6 -9 -2 1320.37 114.59
6 -9 -2 990.4 219.38
6 -9 -2 1467.15 110.19
-6 9 2 1421.36 114.69
-6 9 2 1482.25 116.79
5 -9 -2 -16.4 78.69
5 -9 -2 6.4 4.9
5 -9 -2 -1.2 8.8
5 -9 -2 9.4 4.9
-5 9 2 -51.69 90.89
-5 9 2 2.8 7.7
-5 9 2 1.1 8
-5 9 2 4.9 3
4 -9 -2 717.63 56.99
4 -9 -2 722.63 58.99
-4 9 2 732.43 61.59
-4 9 2 737.43 64.09
3 -9 -2 837.22 74.79
3 -9 -2 954.2 73.29
-3 9 2 947.61 76.79
-3 9 2 1034 74.39
-3 9 2 960.9 79.89
-3 9 2 899.31 73.99
2 -9 -2 381.26 38.3
2 -9 -2 133.19 112.49
2 -9 -2 399.36 30.8
-2 9 2 651.23 151.48
-2 9 2 344.47 29.5
-2 9 2 341.77 29.5
-2 9 2 331.07 30.8
-2 9 2 315.57 34.6
1 -9 -2 1566.94 133.69
1 -9 -2 1570.34 128.59
1 -9 -2 1495.65 126.89
1 -9 -2 1232.38 219.98
-1 9 2 1752.42 131.59
-1 9 2 1737.93 126.59
-1 9 2 1690.03 126.29
0 -9 -2 121.19 16.9
0 -9 -2 140.29 14.3
0 -9 -2 103.89 25.7
0 -9 -2 126.39 95.69
0 9 2 142.49 20.3
0 9 2 199.68 74.89
0 9 2 153.28 15.2
0 9 2 167.58 15.8
-1 -9 -2 943.41 86.49
-1 -9 -2 999.6 95.79
-1 -9 -2 1033.9 85.29
-1 -9 -2 1064.79 261.27
1 9 2 1100.89 89.99
1 9 2 1346.87 160.38
1 9 2 1166.28 86.69
1 9 2 1104.99 85.69
-2 -9 -2 1390.26 104.99
-2 -9 -2 1208.68 115.89
-2 -9 -2 1130.69 109.49
2 9 2 1214.88 108.99
2 9 2 1387.46 108.99
2 9 2 1527.55 106.79
-3 -9 -2 49.2 22.5
3 9 2 32.7 9.8
3 9 2 32.7 8.5
3 9 2 26.3 18.4
-4 -9 -2 1220.08 116.39
-4 -9 -2 1347.17 113.59
4 9 2 1603.84 117.09
4 9 2 1502.15 114.49
-5 -9 -2 614.04 55.19
-5 -9 -2 507.95 59.09
5 9 2 663.83 57.49
5 9 2 732.93 61.09
8 -10 -2 121.99 15.4
8 -10 -2 132.69 27.9
-8 10 2 100.39 22.4
-8 10 2 92.89 21.2
7 -10 -2 598.04 46.6
7 -10 -2 484.05 52.69
-7 10 2 594.24 55.09
-7 10 2 513.65 51.69
6 -10 -2 160.28 17.6
6 -10 -2 124.39 17.6
6 -10 -2 110.99 24.2
-6 10 2 188.88 26.5
-6 10 2 192.48 15.5
-6 10 2 152.68 23.4
5 -10 -2 127.09 78.39
5 -10 -2 190.48 39.6
5 -10 -2 246.58 23.2
-5 10 2 242.68 29.9
-5 10 2 267.57 21.6
-5 10 2 230.18 27.2
-5 10 2 387.66 145.99
4 -10 -2 495.05 44.5
-4 10 2 494.45 46.8
-4 10 2 599.14 43.7
-4 10 2 536.45 50.69
3 -10 -2 19 86.69
3 -10 -2 84.09 11.6
3 -10 -2 95.39 20.6
-3 10 2 67.59 8.9
-3 10 2 42.9 12.4
-3 10 2 158.58 100.59
2 -10 -2 854.21 68.59
2 -10 -2 571.84 156.68
2 -10 -2 779.42 75.39
-2 10 2 902.81 73.69
-2 10 2 842.32 67.59
-2 10 2 903.51 67.79
1 -10 -2 235.58 25.2
1 -10 -2 214.98 34.9
-1 10 2 261.07 24
-1 10 2 287.07 24.2
-1 10 2 321.57 30.9
0 -10 -2 171.28 17.3
0 -10 -2 109.79 21.3
0 10 2 159.98 19.9
0 10 2 142.09 22.4
0 10 2 152.08 16.7
-1 -10 -2 742.33 68.89
-1 -10 -2 753.22 78.09
-1 -10 -2 837.42 66.99
1 10 2 862.11 72.19
1 10 2 870.71 68.19
1 10 2 887.11 67.69
-2 -10 -2 254.57 32.6
-2 -10 -2 317.47 29
2 10 2 331.67 30
2 10 2 354.06 35.4
-3 -10 -2 278.27 51.79
-3 -10 -2 312.57 30.1
-3 -10 -2 296.77 37
3 10 2 341.47 32
3 10 2 332.07 32.8
7 -11 -2 310.37 44.6
7 -11 -2 407.06 35.5
-7 11 2 417.06 44.6
-7 11 2 433.46 32.8
-7 11 2 289.67 56.09
6 -11 -2 96.69 15.2
6 -11 -2 82.89 20.7
-6 11 2 112.29 26.7
-6 11 2 94.39 12.4
-6 11 2 91.79 20.9
5 -11 -2 633.74 55.69
-5 11 2 725.23 63.39
4 -11 -2 108.59 16.2
4 -11 -2 141.99 27.8
-4 11 2 134.19 24.1
-4 11 2 133.09 13.6
-4 11 2 144.39 15
3 -11 -2 643.64 66.29
3 -11 -2 713.53 57.79
-3 11 2 798.72 64.69
-3 11 2 630.24 56.09
-3 11 2 719.93 56.59
2 -11 -2 634.04 66.49
2 -11 -2 667.63 58.29
-2 11 2 742.93 57.29
-2 11 2 781.62 64.19
-2 11 2 687.53 56.99
1 -11 -2 -11.9 14.9
1 -11 -2 7.7 8.5
-1 11 2 2.8 4.9
-1 11 2 9.7 5.6
0 -11 -2 674.03 68.39
0 -11 -2 598.74 57.29
0 11 2 658.33 57.99
0 11 2 707.23 63.49
0 11 2 740.13 56.19
-1 -11 -2 635.04 69.59
-1 -11 -2 600.24 58.79
1 11 2 746.23 62.19
1 11 2 696.93 56.39
1 11 2 663.13 56.49
-2 -11 -2 4.2 22.2
-2 -11 -2 8.8 11.5
2 11 2 5.6 6.9
5 -12 -2 618.84 54.79
-5 12 2 683.33 62.69
4 -12 -2 35.1 20.8
4 -12 -2 36.2 9.5
-4 12 2 28.5 6.3
-4 12 2 31.1 6.7
-4 12 2 44.1 15.2
3 -12 -2 1346.17 107.49
3 -12 -2 1206.08 116.09
-3 12 2 1426.06 106.19
-3 12 2 1231.78 106.59
-3 12 2 1492.45 114.69
2 -12 -2 258.17 28.3
2 -12 -2 218.08 43.1
-2 12 2 251.37 24.4
-2 12 2 223.28 23.8
-2 12 2 304.07 34.5
1 -12 -2 277.67 29.1
1 -12 -2 288.87 47.8
-1 12 2 300.17 36.3
-1 12 2 276.07 26.8
-1 12 2 283.67 26.7
-1 13 -3 269.27 25
-1 13 -3 274.37 32.8
-1 13 -3 255.17 25.9
1 -13 3 243.48 27.5
1 -13 3 241.98 44.5
-2 13 -3 687.83 52.49
-2 13 -3 594.74 53.59
-2 13 -3 647.74 59.49
2 -13 3 640.74 54.19
2 -13 3 599.84 65.39
-3 13 -3 33 14.5
-3 13 -3 30.1 6.6
3 -13 3 20.6 16.4
3 -13 3 24.8 9
3 -13 3 14.2 13.9
2 12 -3 548.95 53.29
2 12 -3 588.54 51.29
-2 -12 3 750.52 56.29
1 12 -3 1180.68 90.29
1 12 -3 1160.48 91.89
1 12 -3 1111.89 93.99
-1 -12 3 1086.69 92.29
-1 -12 3 1123.99 106.89
0 12 -3 28.1 9.8
0 12 -3 22.9 7.2
0 12 -3 24.2 6.7
0 -12 3 9.5 18
0 -12 3 15.3 8.3
-1 12 -3 723.13 59.59
-1 12 -3 762.52 58.69
1 -12 3 696.73 60.29
1 -12 3 697.13 71.09
-2 12 -3 449.66 36.5
2 -12 3 424.06 37.5
2 -12 3 401.56 48.4
-3 12 -3 233.58 21.9
3 -12 3 242.08 23.1
3 -12 3 228.48 35.9
-4 12 -3 582.34 55.59
4 -12 3 645.64 55.09
-5 12 -3 89.89 11.8
5 -12 3 51.09 18.3
5 -12 3 88.19 17.7
-6 12 -3 320.97 38.5
6 -12 3 390.86 44
6 -12 3 378.76 36.1
4 11 -3 820.72 63.79
4 11 -3 867.61 67.29
-4 -11 3 664.33 68.09
-4 -11 3 698.63 88.19
-3 -11 3 162.58 37.6
2 11 -3 992.6 79.59
2 11 -3 886.11 80.09
2 11 -3 996.3 77.59
-2 -11 3 1045.2 96.09
-2 -11 3 956.6 80.19
1 11 -3 552.34 46.4
1 11 -3 592.94 45.2
1 11 -3 522.75 48.1
-1 -11 3 500.45 47
-1 -11 3 550.94 60.79
0 11 -3 188.58 22.3
0 11 -3 183.28 17
0 11 -3 126.19 19.4
0 -11 3 163.58 32.5
0 -11 3 164.88 19.3
-1 11 -3 362.56 34.7
-2 11 -3 162.58 15.2
2 -11 3 142.99 16.2
2 -11 3 107.69 18.6
3 -11 3 579.84 51.19
-4 11 -3 915.71 65.39
-4 11 -3 904.11 68.29
4 -11 3 679.73 67.09
4 -11 3 713.33 71.79
-5 11 -3 65.79 15.6
5 -11 3 43.3 14.9
5 -11 3 68.49 10.6
-6 11 -3 1059.09 75.99
-6 11 -3 1021.2 81.09
6 -11 3 881.61 77.19
6 -11 3 781.82 81.49
-7 11 -3 562.84 55.09
7 -11 3 500.25 46.3
-8 11 -3 163.18 15.1
-8 11 -3 140.59 27.3
-8 11 -3 128.39 29.4
8 -11 3 117.79 23.4
8 -11 3 133.19 20.5
5 10 -3 716.43 57.79
5 10 -3 771.12 63.49
-5 -10 3 672.83 59.09
-5 -10 3 625.44 62.79
4 10 -3 49 8.5
4 10 -3 64.79 12.6
-4 -10 3 61.09 12.9
-4 -10 3 48.9 10
-4 -10 3 41.2 27.4
3 10 -3 275.47 26.8
3 10 -3 247.28 26.9
3 10 -3 297.37 27.7
-3 -10 3 266.97 46.2
2 10 -3 678.53 52.89
2 10 -3 544.55 52.59
2 10 -3 653.63 50.69
-2 -10 3 638.24 53.39
-2 -10 3 594.74 66.99
1 10 -3 2.1 3.3
1 10 -3 3.3 5.3
1 10 -3 11.9 5.4
-1 -10 3 -3.5 6.4
-1 -10 3 -5 13.5
0 10 -3 690.43 56.49
0 10 -3 682.73 55.39
0 -10 3 707.33 57.39
0 -10 3 682.73 67.29
-1 10 -3 608.24 47.8
1 -10 3 611.04 49.1
1 -10 3 544.25 56.89
-2 10 -3 185.28 20.9
-2 10 -3 200.28 18.2
2 -10 3 168.18 27.2
2 -10 3 240.58 19.7
-3 10 -3 1275.07 87.99
-3 10 -3 1097.39 89.99
3 -10 3 1091.29 95.29
3 -10 3 996.8 90.49
-4 10 -3 152.98 12.8
-4 10 -3 111.39 16.1
4 -10 3 91.09 15.1
4 -10 3 141.89 21.8
-5 10 -3 369.36 36.7
5 -10 3 447.56 35.6
5 -10 3 341.87 39
-6 10 -3 754.42 70.29
6 -10 3 875.61 67.59
-7 10 -3 86.69 9.3
-7 10 -3 68.69 17
7 -10 3 82.39 17.5
7 -10 3 67.39 12.7
-8 10 -3 535.25 54.19
8 -10 3 516.55 45.7
8 -10 3 535.65 52.09
6 9 -3 1035.7 84.99
6 9 -3 1077.59 78.99
6 9 -3 981.4 92.09
-6 -9 3 882.11 79.99
-6 -9 3 864.21 82.69
5 9 -3 326.67 32.2
5 9 -3 300.57 26.3
-5 -9 3 278.17 28.4
-5 -9 3 246.18 31.1
-5 -9 3 213.88 45.6
4 9 -3 256.37 23.4
4 9 -3 274.57 27.8
-4 -9 3 192.58 41.2
-4 -9 3 252.87 25.7
-4 -9 3 275.67 28
3 9 -3 1189.58 85.09
3 9 -3 955 83.29
3 9 -3 1079.39 82.09
-3 -9 3 873.81 95.49
-3 -9 3 1056.89 84.89
2 9 -3 53.29 8.4
2 9 -3 65.69 11.1
-2 -9 3 76.89 20.7
1 9 -3 1172.48 89.09
1 9 -3 1093.49 87.59
-1 -9 3 1049.4 159.48
-1 -9 3 1046.9 99.19
-1 -9 3 1158.18 89.59
0 9 -3 966.5 75.69
0 9 -3 938.91 75.89
0 -9 3 1056.99 77.39
0 -9 3 915.51 85.49
0 -9 3 839.92 128.39
-1 9 -3 -22 38.5
-1 9 -3 31 6.4
-1 9 -3 47.3 6.6
1 -9 3 82.99 43.6
1 -9 3 32.6 8.4
1 -9 3 45.7 14.3
-2 9 -3 1871.41 128.39
2 -9 3 1451.15 130.69
2 -9 3 1615.14 135.49
3 -9 3 473.05 41.1
3 -9 3 472.35 45.4
3 -9 3 480.45 76.29
-4 9 -3 120.99 38.9
4 -9 3 194.68 45.9
4 -9 3 145.69 22.3
4 -9 3 216.48 19.3
-5 9 -3 1322.37 99.09
-5 9 -3 1343.67 142.59
5 -9 3 1091.49 129.09
5 -9 3 1361.16 99.19
5 -9 3 1193.88 101.09
-6 9 -3 384.76 31.3
6 -9 3 367.86 33.6
6 -9 3 397.46 38.4
-7 9 -3 204.58 17.2
7 -9 3 197.68 20
7 -9 3 168.98 24.6
-8 9 -3 664.93 50.19
8 -9 3 628.64 52.69
8 -9 3 584.54 57.19
-9 9 -3 103.19 11.2
-9 9 -3 97.09 23.4
9 -9 3 133.39 24.9
9 -9 3 107.89 15.9
7 8 -3 548.45 50.99
7 8 -3 483.15 42.3
7 8 -3 506.55 56.09
-7 -8 3 396.76 44.5
-7 -8 3 424.26 43.3
6 8 -3 1249.47 107.59
6 8 -3 1273.97 97.19
6 8 -3 1332.47 102.99
-6 -8 3 1035.8 99.19
-6 -8 3 1189.48 99.29
5 8 -3 0.4 7.8
5 8 -3 5.8 4.5
-5 -8 3 -5.7 6.5
-5 -8 3 0.9 15.9
-5 -8 3 13.1 8
4 8 -3 1428.06 110.29
4 8 -3 1274.17 110.89
-4 -8 3 1307.67 112.59
-4 -8 3 1614.04 113.19
3 8 -3 1068.79 78.29
-3 -8 3 990.5 80.49
-3 -8 3 758.02 134.49
2 8 -3 528.45 45.9
2 8 -3 628.04 48.2
-2 -8 3 558.44 58.79
1 8 -3 2731.43 204.88
1 8 -3 2602.34 203.58
-1 -8 3 2541.15 214.08
-1 -8 3 2211.48 265.27
-1 -8 3 2905.21 205.48
0 8 -3 534.05 44.4
0 8 -3 562.74 43.7
0 -8 3 428.66 103.89
0 -8 3 570.74 54.29
1 -8 3 1053.09 90.49
2 -8 3 2056.19 170.68
2 -8 3 2185.98 166.98
2 -8 3 2125.09 194.78
-3 8 -3 34.3 24.1
3 -8 3 49.5 35.6
3 -8 3 20.7 5.4
3 -8 3 24.7 9.4
-4 8 -3 1276.37 106.89
-4 8 -3 1478.95 138.69
4 -8 3 1367.36 139.69
4 -8 3 1334.27 108.99
4 -8 3 1470.05 107.29
-5 8 -3 1560.24 121.99
5 -8 3 1598.64 121.89
5 -8 3 1513.55 126.89
5 -8 3 1583.14 151.98
5 -8 3 1610.44 123.89
-6 8 -3 -8.9 6.5
-6 8 -3 -4.8 5.1
6 -8 3 6.5 6.6
6 -8 3 6.2 4
6 -8 3 -24.1 29.4
-7 8 -3 1134.09 138.99
-7 8 -3 1158.18 86.09
7 -8 3 963.8 119.79
7 -8 3 1095.09 87.99
7 -8 3 1113.69 91.49
-8 8 -3 663.93 52.39
8 -8 3 660.43 54.79
8 -8 3 662.03 58.59
-9 8 -3 84.79 8.9
9 -8 3 71.29 13.4
-10 8 -3 642.34 73.49
10 -8 3 757.52 62.49
10 -8 3 811.82 68.49
8 7 -3 -10.3 8.1
8 7 -3 25.1 18.6
8 7 -3 -11.6 13.8
-8 -7 3 8.1 9.2
-8 -7 3 3.8 12.2
7 7 -3 915.21 79.79
7 7 -3 835.52 73.69
7 7 -3 1062.29 84.59
-7 -7 3 874.21 76.19
-7 -7 3 850.21 75.59
6 7 -3 553.34 54.79
6 7 -3 566.24 51.59
6 7 -3 561.44 46.3
-6 -7 3 576.44 49.3
-6 -7 3 503.85 47.9
5 7 -3 242.68 26.2
5 7 -3 234.48 21
-5 -7 3 248.08 24.1
-5 -7 3 185.88 22.6
-5 -7 3 206.98 32.2
4 7 -3 1885.21 141.49
4 7 -3 2078.69 145.39
-4 -7 3 1540.95 174.38
-4 -7 3 1749.53 143.29
-4 -7 3 1736.63 151.98
3 7 -3 199.68 17.3
-3 -7 3 188.08 29
-3 -7 3 152.28 63.29
2 7 -3 1358.56 105.19
2 7 -3 1579.54 107.49
-2 -7 3 1105.49 153.98
-2 -7 3 1223.68 114.89
1 7 -3 2399.16 177.18
1 7 -3 2426.16 177.08
1 7 -3 2276.77 176.68
-1 -7 3 2203.88 186.68
-1 -7 3 2013.4 237.58
0 7 -3 17.2 3
0 7 -3 20.8 21.9
0 7 -3 15.9 3.7
0 7 -3 26.8 5.9
0 7 -3 13.4 3
0 7 -3 13.5 4.1
0 -7 3 33.2 12.1
0 -7 3 46 39.2
0 -7 3 23.2 5
-1 7 -3 2273.07 176.98
1 -7 3 2167.68 177.58
1 -7 3 2145.49 200.78
1 -7 3 2469.65 182.98
-2 7 -3 2151.28 187.28
-2 7 -3 2497.45 185.38
2 -7 3 2463.95 208.78
2 -7 3 2514.55 187.68
-3 7 -3 14.1 2.8
-3 7 -3 2.2 15
3 -7 3 17.5 21.1
3 -7 3 12.6 3.7
3 -7 3 8.9 6.1
3 -7 3 25 5.3
-4 7 -3 2146.09 168.28
-4 7 -3 2247.78 168.58
-4 7 -3 2361.76 194.08
4 -7 3 2249.57 168.28
4 -7 3 1895.61 171.98
4 -7 3 2345.97 192.58
4 -7 3 2095.89 169.78
-5 7 -3 1095.89 87.09
-5 7 -3 1176.28 87.79
-5 7 -3 1254.27 117.39
5 -7 3 1219.18 89.59
5 -7 3 955 87.09
5 -7 3 1067.89 91.79
5 -7 3 1210.88 113.19
5 -7 3 1145.49 87.59
-6 7 -3 443.56 35.4
-6 7 -3 475.55 74.99
-6 7 -3 413.46 35.3
6 -7 3 493.75 74.59
6 -7 3 478.55 40.2
6 -7 3 427.46 37
6 -7 3 438.06 35.2
-7 7 -3 1779.72 134.89
-7 7 -3 1671.93 135.29
7 -7 3 1691.93 166.48
7 -7 3 1726.43 134.59
7 -7 3 1850.91 136.89
7 -7 3 1720.63 139.19
-8 7 -3 96.29 10.2
-8 7 -3 104.99 12
8 -7 3 121.89 17.1
8 -7 3 104.89 13
8 -7 3 140.09 43.8
-9 7 -3 413.16 46.9
-10 7 -3 493.65 66.19
10 -7 3 683.73 56.09
10 -7 3 598.24 51.29
9 6 -3 186.88 37.8
9 6 -3 106.29 25.8
-9 -6 3 143.49 25.6
-9 -6 3 150.28 26.7
8 6 -3 457.15 45
8 6 -3 417.86 42
8 6 -3 317.07 33.6
-8 -6 3 349.07 37.3
-8 -6 3 352.76 36
7 6 -3 641.54 57.49
7 6 -3 508.85 49.5
7 6 -3 665.93 55.89
-7 -6 3 633.04 53.39
-7 -6 3 547.25 51.19
6 6 -3 21.7 10
6 6 -3 22.5 5.8
6 6 -3 31.3 11.6
-6 -6 3 31 7.1
-6 -6 3 19.2 7.5
-6 -6 3 29.1 8.6
5 6 -3 1483.05 128.59
5 6 -3 1628.44 125.49
-5 -6 3 1566.74 126.89
-5 -6 3 1714.23 124.59
-5 -6 3 1477.85 153.18
-5 -6 3 1504.45 132.79
-5 -6 3 1798.32 128.59
4 6 -3 1269.37 103.79
4 6 -3 1335.57 107.09
-4 -6 3 1301.07 111.59
-4 -6 3 1306.37 105.39
-4 -6 3 1185.48 137.29
-4 -6 3 1505.45 103.09
3 6 -3 305.07 24.5
3 6 -3 427.96 63.89
3 6 -3 295.27 25.5
3 6 -3 339.57 28.5
3 6 -3 273.07 25.9
-3 -6 3 352.96 70.79
2 6 -3 1771.42 157.38
2 6 -3 1978.9 158.18
2 6 -3 1948.21 158.08
2 6 -3 2265.87 160.28
-2 -6 3 2004.4 194.98
-2 -6 3 2053.89 166.48
-2 -6 3 2311.37 159.68
1 6 -3 1109.79 87.69
1 6 -3 1198.28 86.59
1 6 -3 1178.28 86.69
1 6 -3 1102.59 87.89
1 6 -3 1097.29 86.49
-1 -6 3 1051.49 133.39
-1 -6 3 1004.3 94.29
0 6 -3 598.54 47.4
0 6 -3 622.44 46.9
0 6 -3 595.94 47.9
0 -6 3 587.94 55.29
-1 6 -3 2997.3 230.08
-1 6 -3 2917.61 229.78
-1 6 -3 2956.3 228.48
-1 6 -3 3422.56 245.28
1 -6 3 2893.51 247.28
1 -6 3 2660.63 234.18
1 -6 3 2978.1 230.78
-2 6 -3 706.33 55.69
-2 6 -3 714.03 57.59
-2 6 -3 719.63 71.19
-2 6 -3 636.34 57.59
2 -6 3 765.32 73.29
2 -6 3 756.72 57.59
-3 6 -3 1038.4 89.09
-3 6 -3 1103.29 91.29
-3 6 -3 1217.68 107.29
-3 6 -3 1239.18 89.69
3 -6 3 1168.18 105.99
3 -6 3 1242.48 90.79
3 -6 3 954.1 92.39
3 -6 3 1270.97 89.29
3 -6 3 1136.29 89.29
-4 6 -3 2494.25 191.48
-4 6 -3 2627.74 213.18
-4 6 -3 2483.35 194.58
-4 6 -3 2736.13 191.68
4 -6 3 2442.96 208.78
4 -6 3 2471.45 191.98
4 -6 3 2618.04 193.28
4 -6 3 2246.78 194.88
4 -6 3 2317.77 191.58
-5 6 -3 26.4 4.7
-5 6 -3 17.2 22.3
-5 6 -3 21.1 6.3
5 -6 3 24 4.3
5 -6 3 8.1 20
5 -6 3 21.9 3.9
5 -6 3 25.8 4.5
5 -6 3 26.9 5.9
5 -6 3 32.2 4.6
-6 6 -3 1062.19 82.09
6 -6 3 1087.79 81.49
6 -6 3 1034.8 84.79
6 -6 3 1016.9 108.19
6 -6 3 1016 80.99
6 -6 3 1047.6 82.89
-7 6 -3 425.36 35.8
7 -6 3 465.05 34.9
7 -6 3 429.76 36.5
7 -6 3 424.96 38.6
7 -6 3 563.64 93.99
7 -6 3 390.76 66.59
7 -6 3 416.96 34.2
-8 6 -3 245.58 22.8
8 -6 3 249.48 25.7
8 -6 3 255.57 21
8 -6 3 254.27 23.2
8 -6 3 198.88 56.09
-9 6 -3 787.62 65.19
9 -6 3 852.01 68.09
9 -6 3 719.23 67.89
9 -6 3 861.41 63.09
9 -6 3 710.23 118.19
-10 6 -3 116.29 16.6
-10 6 -3 93.09 27.9
10 -6 3 114.49 16
10 -6 3 134.29 20.3
-10 -5 3 438.96 42
9 5 -3 264.97 32
-9 -5 3 222.78 26.1
-9 -5 3 221.78 29.5
8 5 -3 1264.37 109.09
8 5 -3 1470.25 114.59
8 5 -3 1502.55 124.99
-8 -5 3 1187.48 115.69
-8 -5 3 1443.86 110.89
-8 -5 3 1444.46 114.09
7 5 -3 167.98 22.3
7 5 -3 127.99 19.6
-7 -5 3 144.49 16.1
-7 -5 3 144.69 16.5
-7 -5 3 146.19 19.2
6 5 -3 1955.4 158.88
6 5 -3 1886.81 157.38
-6 -5 3 2069.99 157.58
-6 -5 3 1916.01 155.28
-6 -5 3 2069.09 155.18
5 5 -3 2315.37 178.98
5 5 -3 2421.76 180.68
5 5 -3 2073.69 175.78
-5 -5 3 2376.36 176.58
-5 -5 3 2008.8 200.08
-5 -5 3 2493.95 178.88
-5 -5 3 2143.39 176.78
4 5 -3 9.1 3
4 5 -3 -0.4 4.3
4 5 -3 3.9 3.7
4 5 -3 12 23.4
4 5 -3 7.2 2.9
-4 -5 3 12 3.7
-4 -5 3 8.6 4.2
-4 -5 3 15.1 24.7
-4 -5 3 8 7
-4 -5 3 16.1 5.1
3 5 -3 3002 260.97
3 5 -3 3223.38 263.27
3 5 -3 3126.19 261.67
3 5 -3 3169.48 261.17
-3 -5 3 3850.71 267.77
-3 -5 3 3437.26 279.67
-3 -5 3 3779.82 261.37
-3 -5 3 3580.24 262.27
2 5 -3 2450.05 198.98
2 5 -3 2660.73 199.58
2 5 -3 2327.57 197.68
2 5 -3 2600.54 198.48
2 5 -3 2285.87 197.98
2 5 -3 2221.28 197.98
-2 -5 3 2717.43 220.38
-2 -5 3 3011.7 205.08
-2 -5 3 2909.31 199.68
1 5 -3 7.6 2.1
1 5 -3 9.1 4.9
1 5 -3 35.1 16.2
1 5 -3 13.9 2.9
-1 -5 3 -4.6 30.4
-1 -5 3 14 3.4
-1 -5 3 14.5 3.5
0 5 -3 3180.78 251.57
0 5 -3 3337.47 252.47
0 5 -3 3522.95 251.37
0 5 -3 3228.28 252.57
0 -5 3 3142.49 254.17
0 -5 3 3231.08 258.47
-1 5 -3 1374.26 109.29
-1 5 -3 1484.75 107.29
-1 5 -3 1393.36 109.19
-1 5 -3 1463.95 107.89
-1 5 -3 1442.06 118.59
1 -5 3 1198.08 112.79
1 -5 3 1392.96 120.39
1 -5 3 1412.06 109.69
-2 5 -3 966.6 76.49
-2 5 -3 985.4 89.09
-2 5 -3 972.6 79.29
-2 5 -3 1109.69 78.09
-2 5 -3 975.2 76.49
2 -5 3 937.81 77.59
2 -5 3 1022.3 89.09
-3 5 -3 1926.91 162.78
-3 5 -3 2235.98 159.48
-3 5 -3 2084.99 159.58
-3 5 -3 2238.38 176.08
-3 5 -3 1887.11 161.38
3 -5 3 1944.91 159.38
3 -5 3 2343.17 159.58
3 -5 3 1867.51 160.08
3 -5 3 2144.09 172.98
3 -5 3 1928.31 164.18
3 -5 3 2239.18 160.98
-4 5 -3 51.09 19.4
-4 5 -3 56.39 8.4
-4 5 -3 63.19 6.1
-4 5 -3 48.8 9.4
4 -5 3 52.09 5.7
4 -5 3 44.6 5.6
4 -5 3 67.89 17.9
4 -5 3 48.7 5.2
-5 5 -3 1039.1 85.59
-5 5 -3 1015.1 83.49
5 -5 3 1099.29 85.59
5 -5 3 1078.59 82.99
5 -5 3 1019.3 82.39
5 -5 3 1018.9 83.99
5 -5 3 1221.08 82.39
5 -5 3 1042.4 100.39
-6 5 -3 501.75 41.9
-6 5 -3 456.85 42.7
6 -5 3 476.45 62.59
6 -5 3 519.25 39.6
6 -5 3 641.14 81.59
6 -5 3 487.75 38.9
6 -5 3 487.95 42.3
6 -5 3 509.35 41
-7 5 -3 6.8 5.4
-7 5 -3 20.2 4.8
-7 5 -3 -1.5 7.1
7 -5 3 11.5 2.5
7 -5 3 34.6 25.9
7 -5 3 15.9 3
7 -5 3 14.2 6
7 -5 3 -23 33.4
7 -5 3 13.2 4.2
-8 5 -3 784.42 65.79
8 -5 3 786.92 65.39
8 -5 3 777.32 63.09
8 -5 3 831.22 67.29
8 -5 3 855.31 125.99
8 -5 3 826.52 99.29
8 -5 3 853.41 63.69
-9 5 -3 356.96 33.7
9 -5 3 357.46 30.7
9 -5 3 393.56 33.5
9 -5 3 280.67 75.59
9 -5 3 427.66 36
-10 5 -3 50.49 22.4
-10 5 -3 94.19 15.8
10 -5 3 86.29 16.8
10 -5 3 97.99 14.7
-11 5 -3 788.22 69.69
-11 5 -3 796.52 86.89
11 -5 3 873.91 71.69
11 -5 3 788.52 67.69
10 4 -3 51.39 18.1
10 4 -3 29.7 12.2
-10 -4 3 15 12.7
-10 -4 3 34 11.2
9 4 -3 2154.08 161.18
9 4 -3 1977.1 156.08
-9 -4 3 1920.71 152.38
-9 -4 3 1673.03 150.18
-9 -4 3 1854.91 154.28
8 4 -3 1290.67 106.49
8 4 -3 1187.28 102.29
8 4 -3 1404.86 108.89
-8 -4 3 1368.76 106.19
-8 -4 3 1374.66 107.99
-8 -4 3 1247.78 104.19
7 4 -3 212.38 63.09
7 4 -3 222.18 20.4
7 4 -3 246.48 52.69
7 4 -3 220.58 23.7
7 4 -3 244.78 25.7
-7 -4 3 238.68 25.1
-7 -4 3 241.18 23.5
-7 -4 3 222.08 21.6
6 4 -3 3404.66 265.97
6 4 -3 3192.08 280.77
6 4 -3 3403.16 267.37
-6 -4 3 3597.74 267.77
-6 -4 3 3560.04 266.87
-6 -4 3 3315.67 264.37
5 4 -3 1250.97 113.99
5 4 -3 1121.99 94.69
5 4 -3 1189.78 96.09
5 4 -3 994.5 92.59
-5 -4 3 1302.57 94.89
-5 -4 3 1252.77 95.39
-5 -4 3 1211.58 93.49
4 4 -3 1076.09 77.19
4 4 -3 1058.99 74.39
4 4 -3 839.32 74.49
4 4 -3 905.21 90.99
-4 -4 3 994.3 78.69
-4 -4 3 947.51 76.59
-4 -4 3 895.91 75.19
-4 -4 3 969.2 76.09
-4 -4 3 861.71 87.69
3 4 -3 5042.9 372.66
3 4 -3 4647.94 374.16
3 4 -3 4117.39 372.36
3 4 -3 4259.87 372.26
-3 -4 3 5200.78 374.26
-3 -4 3 5273.47 376.66
-3 -4 3 5368.66 373.86
-3 -4 3 4912.41 373.26
2 4 -3 1550.54 127.99
2 4 -3 1426.46 128.89
2 4 -3 1691.33 128.09
-2 -4 3 1597.74 137.69
-2 -4 3 1638.54 128.09
-2 -4 3 1812.92 128.89
-2 -4 3 1846.22 128.49
1 4 -3 3495.05 237.18
1 4 -3 2565.84 236.58
1 4 -3 2754.42 237.18
1 4 -3 2960 237.48
1 4 -3 3301.77 237.68
1 4 -3 3012.3 236.98
-1 -4 3 3238.98 237.28
-1 -4 3 3338.87 237.58
0 4 -3 4357.26 324.07
0 4 -3 3988.2 318.97
0 4 -3 4235.48 317.87
0 4 -3 4454.65 319.07
0 4 -3 3746.13 318.57
0 -4 3 4154.48 319.97
0 -4 3 4058.29 328.77
0 -4 3 4061.59 317.97
0 -4 3 4549.14 318.17
0 -4 3 3823.42 322.77
-1 4 -3 24.9 9.1
-1 4 -3 33.6 3.5
-1 4 -3 39.1 5.8
-1 4 -3 41.9 5
-1 4 -3 36 5.2
1 -4 3 31.5 6.9
1 -4 3 33.4 9.9
1 -4 3 28.9 4
1 -4 3 32 3.8
1 -4 3 28.9 5.5
-2 4 -3 3078.89 247.78
-2 4 -3 3392.16 256.47
-2 4 -3 3345.57 245.48
-2 4 -3 2937.61 246.58
2 -4 3 3349.96 246.58
2 -4 3 2883.31 245.38
2 -4 3 3463.65 245.28
2 -4 3 3191.08 245.58
2 -4 3 3056.19 248.28
2 -4 3 3294.97 254.77
-3 4 -3 639.54 46.1
-3 4 -3 587.64 58.39
-3 4 -3 552.34 47
-3 4 -3 569.64 48.9
3 -4 3 525.15 54.89
3 -4 3 556.64 47.5
3 -4 3 651.93 45.7
3 -4 3 588.14 45.6
3 -4 3 544.45 46.8
-4 4 -3 414.66 35.6
-4 4 -3 449.66 34.7
-4 4 -3 353.06 37.2
4 -4 3 423.96 33.8
4 -4 3 477.55 33.1
4 -4 3 458.45 33
4 -4 3 420.66 34.7
4 -4 3 456.05 36
4 -4 3 333.37 44.1
-5 4 -3 1883.01 144.19
-5 4 -3 1785.52 143.09
5 -4 3 2003 141.29
5 -4 3 1675.43 162.78
5 -4 3 2056.69 169.98
5 -4 3 1611.84 141.09
5 -4 3 1819.02 143.79
5 -4 3 1868.11 142.99
5 -4 3 1875.31 141.89
-6 4 -3 275.97 24.7
-6 4 -3 308.47 26.3
6 -4 3 211.28 42.4
6 -4 3 296.47 25.5
6 -4 3 256.17 24.1
6 -4 3 280.77 22.2
6 -4 3 277.67 22.9
6 -4 3 244.18 57.89
6 -4 3 308.87 22.6
-7 4 -3 759.12 64.49
-7 4 -3 880.31 66.59
7 -4 3 775.92 61.69
7 -4 3 761.22 63.79
7 -4 3 856.61 103.69
7 -4 3 698.53 88.09
7 -4 3 793.92 64.99
7 -4 3 837.32 62.39
-8 4 -3 1800.52 146.39
8 -4 3 1966.2 143.69
8 -4 3 1826.52 177.88
8 -4 3 1871.01 143.09
8 -4 3 1816.32 145.39
8 -4 3 1843.82 146.69
-9 4 -3 23.6 14.2
9 -4 3 48.6 7
9 -4 3 94.39 77.59
9 -4 3 59.69 10.5
-10 4 -3 1022.6 89.69
10 -4 3 1165.68 91.69
10 -4 3 1081.19 88.09
-11 4 -3 782.42 86.19
-11 4 -3 781.02 71.19
11 -4 3 896.61 71.59
11 -4 3 801.72 68.29
10 3 -3 387.16 39.4
10 3 -3 320.77 34.7
-10 -3 3 324.67 37.6
-10 -3 3 342.17 36
-10 -3 3 367.26 32.7
9 3 -3 1513.95 126.99
9 3 -3 1459.25 121.79
-9 -3 3 1523.45 120.39
-9 -3 3 1549.34 129.59
-9 -3 3 1561.24 123.79
8 3 -3 259.37 21.7
8 3 -3 227.78 24.8
8 3 -3 286.87 28.2
-8 -3 3 272.87 27.1
-8 -3 3 241.18 23.6
-8 -3 3 279.37 27.6
7 3 -3 797.82 69.19
7 3 -3 802.92 89.59
7 3 -3 797.62 70.89
7 3 -3 854.21 66.79
-7 -3 3 961.6 71.99
-7 -3 3 884.91 71.19
-7 -3 3 858.01 68.29
6 3 -3 2242.58 188.58
6 3 -3 2137.79 171.78
6 3 -3 2056.49 173.48
6 3 -3 2295.47 175.38
-6 -3 3 2350.56 175.28
-6 -3 3 2276.67 172.88
5 3 -3 612.94 49.1
5 3 -3 550.64 59.39
5 3 -3 493.85 47.3
5 3 -3 669.03 50.59
5 3 -3 631.04 64.59
-5 -3 3 598.04 49.8
-5 -3 3 583.34 48
-5 -3 3 670.73 51.19
4 3 -3 2475.95 181.38
4 3 -3 2103.39 166.78
4 3 -3 2193.38 169.98
4 3 -3 2254.77 169.58
4 3 -3 2109.19 166.48
4 3 -3 1965.3 167.08
-4 -3 3 2345.17 167.78
-4 -3 3 1923.91 172.48
3 3 -3 3551.44 310.17
3 3 -3 3486.75 310.27
3 3 -3 3446.26 310.17
3 3 -3 4626.04 310.77
3 3 -3 4103.59 313.57
3 3 -3 3541.85 311.77
3 3 -3 4618.34 320.97
-3 -3 3 4464.05 313.07
-3 -3 3 4139.29 310.97
-3 -3 3 4229.58 311.97
-3 -3 3 4320.77 313.27
2 3 -3 276.67 22.4
2 3 -3 307.87 22.7
2 3 -3 254.87 22.7
2 3 -3 229.28 32.3
2 3 -3 238.38 21.9
2 3 -3 246.98 21.9
2 3 -3 323.87 25.8
2 3 -3 255.77 22.1
-2 -3 3 302.77 25
-2 -3 3 272.67 26.3
-2 -3 3 305.47 23.3
-2 -3 3 318.47 24.2
-2 -3 3 269.57 22.5
1 3 -3 4190.08 338.87
1 3 -3 4285.17 340.57
1 3 -3 3855.71 339.17
1 3 -3 4696.63 339.57
1 3 -3 4079.39 339.17
1 3 -3 4726.73 339.07
-1 -3 3 4076.89 338.87
-1 -3 3 4364.06 339.57
-1 -3 3 5007.5 340.37
-1 -3 3 5061.29 345.57
-1 -3 3 4288.07 339.07
0 3 -3 1270.97 92.59
0 3 -3 1117.29 94.79
0 3 -3 1203.78 92.59
0 3 -3 1024.5 91.69
0 3 -3 1025.1 92.09
0 3 -3 1272.27 91.89
0 3 -3 1285.67 91.69
0 3 -3 1200.58 93.09
0 -3 3 1170.88 91.69
0 -3 3 1227.88 96.19
0 -3 3 1159.68 91.69
0 -3 3 1229.58 95.49
0 -3 3 1282.07 93.29
-1 3 -3 488.95 34.3
-1 3 -3 431.96 36.3
-1 3 -3 406.66 35.2
-1 3 -3 467.75 35.5
-1 3 -3 408.76 40.1
-1 3 -3 471.15 34.7
-1 3 -3 425.36 35.2
1 -3 3 432.46 34.6
1 -3 3 451.25 35.3
1 -3 3 394.46 34.4
1 -3 3 456.05 34.1
-2 3 -3 2534.95 204.28
-2 3 -3 3004.6 203.68
-2 3 -3 2369.66 202.68
2 -3 3 2671.73 202.58
2 -3 3 2612.24 201.88
2 -3 3 2467.25 208.98
2 -3 3 2728.83 203.78
-3 3 -3 514.65 40.6
-3 3 -3 527.45 40.6
-3 3 -3 495.45 42.8
-3 3 -3 525.15 40.5
3 -3 3 501.45 39.3
3 -3 3 476.45 39.7
3 -3 3 449.95 48.2
3 -3 3 511.85 40.6
3 -3 3 499.95 40.1
-4 3 -3 1651.53 128.49
-4 3 -3 1699.33 131.69
-4 3 -3 1419.16 128.19
4 -3 3 1553.64 126.29
4 -3 3 1617.74 128.29
4 -3 3 1734.63 147.19
4 -3 3 1783.22 126.39
4 -3 3 1705.23 127.09
4 -3 3 1694.53 127.89
4 -3 3 1630.34 139.99
-5 3 -3 2455.15 216.08
-5 3 -3 2578.54 212.88
5 -3 3 3135.49 238.48
5 -3 3 2833.82 227.88
5 -3 3 2702.33 210.28
5 -3 3 2829.62 212.08
-6 3 -3 31.4 6.5
-6 3 -3 33.1 7.2
6 -3 3 40 4.6
6 -3 3 22.9 5.5
6 -3 3 22.5 23
6 -3 3 24.3 30.3
6 -3 3 24.5 4.5
6 -3 3 31.1 3.7
6 -3 3 32.8 5.9
-7 3 -3 2562.54 213.88
7 -3 3 2593.34 235.78
7 -3 3 2741.53 210.58
7 -3 3 2643.14 212.58
7 -3 3 2681.93 213.38
7 -3 3 3102.09 251.77
7 -3 3 2927.21 211.18
-8 3 -3 1122.99 101.89
-8 3 -3 1261.77 102.39
8 -3 3 1265.27 100.49
8 -3 3 1254.87 101.49
8 -3 3 1508.95 154.88
8 -3 3 1292.97 134.69
8 -3 3 1215.08 98.19
8 -3 3 1369.16 98.69
-9 3 -3 247.28 26.3
9 -3 3 278.47 25.4
9 -3 3 226.78 23.2
9 -3 3 239.18 20.7
9 -3 3 308.77 130.39
9 -3 3 229.28 20.3
10 -3 3 1940.11 158.28
10 -3 3 2076.79 160.18
-11 3 -3 352.06 54.19
-11 3 -3 287.77 36.9
11 -3 3 314.97 31.4
11 -3 3 328.17 34.8
11 2 -3 6 8.6
11 2 -3 22.2 14.6
11 2 -3 15.7 9.2
-11 -2 3 11.6 12.2
-11 -2 3 3.7 10.4
10 2 -3 1114.29 87.99
-10 -2 3 977.9 82.29
-10 -2 3 1085.69 87.99
-10 -2 3 922.01 86.29
9 2 -3 647.94 60.99
9 2 -3 684.53 63.69
-9 -2 3 770.72 60.59
-9 -2 3 780.82 65.69
-9 -2 3 846.02 64.99
8 2 -3 17.7 6.6
8 2 -3 8.6 2.3
8 2 -3 10.1 4.2
8 2 -3 13.5 28
-8 -2 3 12.2 7.7
-8 -2 3 7.7 4.4
-8 -2 3 6.7 6.1
7 2 -3 1664.93 152.08
7 2 -3 1813.82 130.89
7 2 -3 1531.85 131.49
7 2 -3 1508.35 132.79
7 2 -3 1667.43 134.89
7 2 -3 1996.9 160.18
-7 -2 3 1748.82 135.09
-7 -2 3 1805.92 137.19
-7 -2 3 1640.94 132.39
6 2 -3 1242.68 109.59
6 2 -3 1139.69 88.89
6 2 -3 1009.2 88.69
6 2 -3 1037 90.39
6 2 -3 1246.18 92.59
6 2 -3 1155.48 105.09
-6 -2 3 1112.79 90.19
-6 -2 3 1169.78 92.29
-6 -2 3 1295.57 94.89
5 2 -3 50.49 5.5
5 2 -3 41.1 6.8
5 2 -3 39.9 16.6
5 2 -3 56.09 8.4
5 2 -3 49.4 5.2
5 2 -3 42.7 13.8
-5 -2 3 62.49 8.4
-5 -2 3 52.19 11.9
-5 -2 3 63.59 6.8
-5 -2 3 60.69 4.9
4 2 -3 2632.04 223.98
4 2 -3 3262.67 235.78
4 2 -3 2852.91 226.38
4 2 -3 2938.31 232.48
-4 -2 3 3049.79 224.18
-4 -2 3 2804.72 225.98
-4 -2 3 2979.6 228.38
-4 -2 3 2872.21 225.58
3 2 -3 662.13 59.59
3 2 -3 714.73 54.79
3 2 -3 744.53 56.79
-3 -2 3 710.43 55.09
2 2 -3 844.62 69.59
2 2 -3 892.21 70.79
2 2 -3 806.02 69.89
2 2 -3 862.21 68.79
2 2 -3 777.22 67.79
2 2 -3 899.71 68.29
2 2 -3 1001.8 69.69
2 2 -3 908.91 67.89
-2 -2 3 877.71 68.19
-2 -2 3 874.81 68.99
-2 -2 3 929.21 70.99
-2 -2 3 831.82 67.89
-2 -2 3 930.51 69.59
-2 -2 3 883.71 68.19
1 2 -3 3510.55 262.97
1 2 -3 3578.24 262.87
1 2 -3 3007.6 263.27
1 2 -3 3807.02 263.57
-1 -2 3 3426.96 265.07
-1 -2 3 3359.76 263.27
-1 -2 3 3186.88 263.57
-1 -2 3 3103.49 262.87
-1 -2 3 3686.03 264.27
-1 -2 3 3240.48 262.77
-1 -2 3 3796.32 265.17
0 2 -3 526.85 38
0 2 -3 518.35 38.6
0 2 -3 534.75 38.5
0 2 -3 499.75 39.7
0 2 -3 454.35 38.8
0 2 -3 410.36 39.4
0 2 -3 498.25 37.7
0 -2 3 453.65 37.6
0 -2 3 457.65 41.4
0 -2 3 477.65 38.4
0 -2 3 541.25 38.7
0 -2 3 456.35 37.8
-1 2 -3 2095.69 137.39
-1 2 -3 1834.92 136.69
-1 2 -3 1877.11 139.39
-1 2 -3 1663.53 136.69
-1 2 -3 2026 137.79
1 -2 3 1733.33 144.39
1 -2 3 1632.94 141.59
1 -2 3 1616.34 137.69
1 -2 3 1885.61 137.89
1 -2 3 1553.44 138.79
1 -2 3 1719.23 137.19
1 -2 3 1759.32 137.59
-2 2 -3 978.2 77.69
-2 2 -3 914.81 79.59
-2 2 -3 977.6 77.69
-2 2 -3 1110.99 77.39
-2 2 -3 1092.19 78.09
-2 2 -3 977.4 77.89
2 -2 3 993.4 77.89
2 -2 3 993.4 77.19
2 -2 3 1122.99 79.79
2 -2 3 949.51 77.59
2 -2 3 859.71 83.59
-3 2 -3 216.18 19.5
-3 2 -3 196.08 16.1
-3 2 -3 191.18 16.4
-3 2 -3 156.68 16.8
3 -2 3 184.28 16.1
3 -2 3 215.48 15.6
3 -2 3 165.98 14.8
3 -2 3 201.68 16.2
3 -2 3 167.68 24.2
3 -2 3 202.18 31
-4 2 -3 3729.23 324.07
-4 2 -3 4068.79 318.67
-4 2 -3 4475.35 319.27
-4 2 -3 4001.2 317.37
-4 2 -3 3849.11 319.87
4 -2 3 4728.33 317.67
4 -2 3 4273.87 337.97
4 -2 3 4188.38 317.97
4 -2 3 3968.8 318.77
4 -2 3 4132.99 318.87
-5 2 -3 830.52 73.39
-5 2 -3 911.21 76.79
-5 2 -3 881.61 70.49
-5 2 -3 992.6 72.79
5 -2 3 1041.8 70.89
5 -2 3 849.02 71.89
5 -2 3 928.61 95.49
5 -2 3 897.11 72.29
5 -2 3 886.21 71.49
-6 2 -3 853.81 63.29
-6 2 -3 690.03 62.29
6 -2 3 796.92 59.49
6 -2 3 899.71 95.09
6 -2 3 662.63 77.79
6 -2 3 796.42 59.29
6 -2 3 737.03 60.99
6 -2 3 681.73 60.39
-7 2 -3 2863.41 239.68
-7 2 -3 3497.85 239.28
7 -2 3 3389.96 275.67
7 -2 3 2984.7 238.18
7 -2 3 2882.81 235.68
7 -2 3 3143.59 236.18
7 -2 3 2786.72 237.38
-8 2 -3 233.08 23.3
-8 2 -3 226.68 24.9
8 -2 3 227.98 22.1
8 -2 3 208.28 57.19
8 -2 3 264.07 23.4
8 -2 3 302.17 79.49
8 -2 3 224.28 19.6
8 -2 3 235.88 20
-9 2 -3 677.93 62.39
9 -2 3 673.03 56.49
9 -2 3 711.23 59.39
9 -2 3 903.41 139.89
9 -2 3 754.92 60.89
9 -2 3 735.53 56.89
-10 2 -3 990.5 90.29
10 -2 3 1000.9 86.49
10 -2 3 1199.08 88.89
-11 2 -3 4.7 25.3
-11 2 -3 23 16.8
11 -2 3 12.4 11.9
11 -2 3 8.1 7.7
11 1 -3 319.67 36.4
11 1 -3 291.57 30.2
11 1 -3 330.87 29.7
-11 -1 3 321.77 37.7
-11 -1 3 275.97 35.8
10 1 -3 1719.73 129.19
10 1 -3 1623.14 132.69
10 1 -3 1536.95 129.29
-10 -1 3 1569.54 132.29
-10 -1 3 1728.73 135.79
9 1 -3 185.98 18.4
9 1 -3 196.08 18.2
-9 -1 3 145.79 23.4
-9 -1 3 202.98 21.7
8 1 -3 1193.98 93.79
8 1 -3 1172.38 118.19
8 1 -3 1051.39 91.09
-8 -1 3 1184.78 90.99
-8 -1 3 1191.88 93.69
-8 -1 3 1138.69 96.79
7 1 -3 2148.58 188.48
7 1 -3 2285.97 190.48
7 1 -3 2598.14 212.18
7 1 -3 2731.93 186.58
7 1 -3 2655.23 186.58
7 1 -3 2476.55 207.78
7 1 -3 2332.27 186.98
-7 -1 3 2404.36 188.48
-7 -1 3 2389.76 190.58
-7 -1 3 2345.57 193.68
6 1 -3 35.6 5.8
6 1 -3 50.99 19.5
6 1 -3 49.7 4
6 1 -3 47.3 8
6 1 -3 44.3 18.9
6 1 -3 38.5 4
-6 -1 3 52.89 4.8
-6 -1 3 39.7 6
-6 -1 3 42.7 7.9
5 1 -3 1880.51 158.98
5 1 -3 2102.69 162.98
5 1 -3 1751.22 147.09
5 1 -3 2022.4 147.09
5 1 -3 1644.14 148.19
5 1 -3 2120.99 150.08
-5 -1 3 2161.98 147.79
-5 -1 3 1843.92 149.59
-5 -1 3 1775.12 152.68
-5 -1 3 1901.71 148.39
4 1 -3 920.41 72.09
4 1 -3 936.31 79.09
4 1 -3 1080.69 82.29
4 1 -3 784.82 70.09
-4 -1 3 874.51 71.99
-4 -1 3 856.31 74.99
-4 -1 3 962.4 70.99
3 1 -3 864.71 67.09
3 1 -3 963.9 67.69
3 1 -3 733.63 65.79
-3 -1 3 852.71 70.39
-3 -1 3 870.41 66.49
2 1 -3 4896.01 342.77
2 1 -3 4406.26 338.47
2 1 -3 3993.2 338.17
2 1 -3 4912.31 337.87
2 1 -3 4375.46 342.27
2 1 -3 5025.4 338.77
2 1 -3 3775.62 338.57
-2 -1 3 4268.37 338.47
-2 -1 3 4361.66 337.77
-2 -1 3 3888.11 340.77
-2 -1 3 4538.65 340.27
1 1 -3 49.3 11
1 1 -3 39.6 8.2
1 1 -3 44.9 4.8
1 1 -3 39.7 4
1 1 -3 51.49 4.3
-1 -1 3 42.7 4.6
-1 -1 3 50.49 11.1
-1 -1 3 43.3 5.3
-1 -1 3 51.79 5.9
-1 -1 3 40.9 4
-1 -1 3 39.7 7.1
0 1 -3 3444.66 259.57
0 1 -3 3534.45 261.57
0 1 -3 3511.55 259.47
0 1 -3 3415.46 265.07
0 1 -3 3130.79 260.57
0 1 -3 3770.52 260.17
0 -1 3 3266.27 260.37
0 -1 3 3118.99 259.37
0 -1 3 3501.25 261.67
0 -1 3 2931.31 259.17
0 -1 3 3451.25 267.47
0 -1 3 3528.05 259.77
0 -1 3 3489.15 259.67
0 -1 3 3276.97 259.97
-1 1 -3 4450.55 356.26
-1 1 -3 3988.7 355.96
-1 1 -3 4888.11 356.16
-1 1 -3 5116.29 356.86
-1 1 -3 4416.16 364.46
1 -1 3 5048.4 356.76
1 -1 3 4599.04 356.76
-2 1 -3 200.88 15.1
-2 1 -3 168.28 15.2
-2 1 -3 227.38 18.7
-2 1 -3 165.18 14.9
-2 1 -3 200.38 14.7
-2 1 -3 176.88 25.8
2 -1 3 188.88 15
2 -1 3 172.18 27.7
2 -1 3 173.08 15
2 -1 3 198.68 17.4
2 -1 3 176.68 14.6
2 -1 3 174.58 15.3
-3 1 -3 2794.22 222.28
-3 1 -3 3076.89 206.48
-3 1 -3 2251.27 207.48
-3 1 -3 2368.06 205.88
-3 1 -3 2833.32 205.48
-3 1 -3 2941.31 209.78
3 -1 3 2505.85 205.78
3 -1 3 2762.82 205.68
3 -1 3 3006.1 223.98
3 -1 3 2579.04 206.08
3 -1 3 2729.23 206.48
3 -1 3 2347.67 206.08
-4 1 -3 2075.99 181.98
-4 1 -3 2379.56 182.48
-4 1 -3 2265.27 181.38
-4 1 -3 2687.43 194.98
-4 1 -3 2231.28 184.18
-4 1 -3 2718.33 182.38
4 -1 3 2400.56 202.08
4 -1 3 2313.47 181.68
4 -1 3 2130.29 182.38
4 -1 3 2142.39 182.28
4 -1 3 2669.33 181.68
-5 1 -3 296.97 22.9
-5 1 -3 263.87 26.5
-5 1 -3 230.38 24.2
-5 1 -3 234.38 21.1
5 -1 3 237.38 22.2
5 -1 3 296.07 21.6
5 -1 3 219.58 45.8
5 -1 3 307.67 23.1
5 -1 3 239.58 21.8
-6 1 -3 2099.39 189.58
-6 1 -3 2365.36 186.08
6 -1 3 2552.24 186.38
6 -1 3 2453.55 187.88
6 -1 3 2315.37 187.48
6 -1 3 2444.66 209.78
6 -1 3 2777.42 220.58
-7 1 -3 1146.89 92.49
7 -1 3 1189.98 118.49
7 -1 3 1130.09 129.79
7 -1 3 1100.09 89.59
7 -1 3 1018.3 88.89
7 -1 3 1187.28 87.69
-8 1 -3 174.08 16.5
-8 1 -3 182.88 23
-8 1 -3 210.78 20.7
8 -1 3 313.47 95.39
8 -1 3 186.98 19.7
8 -1 3 177.88 18.6
8 -1 3 184.48 16.5
8 -1 3 296.57 82.99
-9 1 -3 1020.6 92.19
9 -1 3 856.21 208.68
9 -1 3 1093.79 85.79
9 -1 3 1213.28 89.79
9 -1 3 1083.79 92.49
-10 1 -3 120.39 25.6
-10 1 -3 129.09 29.7
10 -1 3 117.99 19.8
10 -1 3 117.69 17.6
11 0 -3 1144.69 93.39
11 0 -3 1036.4 88.59
11 0 -3 1223.98 88.39
-11 0 3 1064.99 92.19
-11 0 3 1011.7 96.29
10 0 -3 1346.47 104.59
10 0 -3 1412.26 104.19
10 0 -3 1263.77 115.39
-10 0 3 1219.48 111.29
9 0 -3 91.79 11.3
9 0 -3 116.79 15.5
9 0 -3 99.09 11.5
-9 0 3 86.69 14.1
-9 0 3 69.89 15.8
8 0 -3 2470.75 178.38
8 0 -3 2244.68 180.48
8 0 -3 2439.86 205.18
8 0 -3 2197.88 178.18
-8 0 3 2140.09 184.48
-8 0 3 2309.07 180.28
7 0 -3 558.94 49.3
7 0 -3 620.24 51.49
7 0 -3 611.84 72.49
7 0 -3 701.73 49.6
7 0 -3 736.93 76.59
7 0 -3 668.73 49.7
-7 0 3 539.25 54.99
-7 0 3 556.34 50.89
6 0 -3 782.32 63.79
6 0 -3 819.12 79.29
6 0 -3 880.51 65.69
6 0 -3 938.91 85.09
-6 0 3 725.93 68.89
-6 0 3 767.92 65.09
5 0 -3 3596.54 284.07
5 0 -3 4161.88 296.17
5 0 -3 3809.52 282.97
5 0 -3 3163.68 282.57
-5 0 3 3704.63 284.07
4 0 -3 23.4 10.5
-4 0 3 10.2 6.6
-4 0 3 23.3 3.7
-4 0 3 16.1 6.3
3 0 -3 2232.68 195.38
3 0 -3 2327.57 194.88
3 0 -3 2868.31 195.18
3 0 -3 2670.83 195.98
3 0 -3 2622.94 203.18
-3 0 3 2507.35 195.68
-3 0 3 2475.35 195.48
-3 0 3 2241.08 198.78
-3 0 3 2685.93 201.88
-3 0 3 2728.03 195.48
2 0 -3 2893.41 242.98
2 0 -3 3577.34 254.77
2 0 -3 3522.75 248.28
2 0 -3 2990.8 243.58
2 0 -3 3082.39 242.78
2 0 -3 3521.15 242.98
2 0 -3 2655.43 242.88
-2 0 3 2869.91 243.48
-2 0 3 3579.74 243.58
-2 0 3 3069.69 242.78
-2 0 3 3084.69 243.08
1 0 -3 2946.41 243.88
1 0 -3 3447.56 244.18
1 0 -3 2841.42 242.98
1 0 -3 3467.85 242.98
1 0 -3 3061.59 243.08
-1 0 3 3471.45 243.88
-1 0 3 2944.11 243.08
0 0 -3 7989 528.95
0 0 -3 6775.32 514.95
0 0 3 6164.48 514.75
0 0 3 5944.41 515.75
-1 0 -3 1391.76 123.29
-1 0 -3 1369.16 124.69
-1 0 -3 1727.93 136.99
-1 0 -3 1767.12 123.39
1 0 3 1551.74 123.29
1 0 3 1683.23 123.49
1 0 3 1704.83 124.09
1 0 3 1836.52 139.39
1 0 3 1468.45 123.39
-2 0 -3 1784.22 149.99
-2 0 -3 2026.4 165.58
-2 0 -3 2245.38 150.38
-2 0 -3 2052.69 149.69
-2 0 -3 1670.83 149.79
2 0 3 2046.4 149.79
2 0 3 2001 149.88
2 0 3 1757.62 149.99
2 0 3 2037 166.08
2 0 3 2129.49 150.48
2 0 3 1853.01 149.88
2 0 3 1782.92 149.59
-3 0 -3 6311.37 519.65
-3 0 -3 6901.81 501.25
-3 0 -3 7232.58 501.55
-3 0 -3 6927.11 504.85
3 0 3 6419.16 501.55
3 0 3 7392.36 522.25
3 0 3 5485.45 501.35
3 0 3 5690.73 501.15
3 0 3 6941.61 501.35
3 0 3 6103.19 501.05
-4 0 -3 546.55 48.9
-4 0 -3 491.35 47.3
-4 0 -3 575.44 44.8
-4 0 -3 625.84 45
4 0 3 545.75 44.7
4 0 3 643.84 45.5
4 0 3 523.05 45.3
4 0 3 580.74 68.19
4 0 3 631.24 45.1
4 0 3 546.55 45.2
4 0 3 531.65 45.3
-5 0 -3 1859.71 142.79
-5 0 -3 1675.73 145.99
-5 0 -3 2026.9 148.39
-5 0 -3 1812.22 143.29
5 0 3 1734.83 143.49
5 0 3 1984.9 142.79
5 0 3 1835.02 143.69
-6 0 -3 2641.94 216.28
-6 0 -3 2761.72 220.08
6 0 3 2925.81 215.68
6 0 3 3134.19 251.37
6 0 3 2826.22 217.08
6 0 3 2569.24 216.68
-7 0 -3 15.1 5.2
-7 0 -3 2.3 2.9
-7 0 -3 -6.2 7
-7 0 -3 21.3 7.7
7 0 3 6.6 41.2
7 0 3 6.3 33.2
7 0 3 -0.1 3.3
7 0 3 7.4 4.3
7 0 3 6.8 2.7
-8 0 -3 1016.3 84.49
-8 0 -3 1012.9 86.69
-8 0 -3 1031.8 90.89
8 0 3 1070.89 86.69
8 0 3 1134.09 84.59
8 0 3 1180.38 87.59
8 0 3 1106.79 145.99
-9 0 -3 537.65 47.2
9 0 3 572.34 49.99
9 0 3 615.54 51.19
9 0 3 716.73 125.29
9 0 3 591.54 47.2
-10 0 -3 113.19 22.5
-10 0 -3 67.79 19.3
10 0 3 89.59 17.6
10 0 3 109.39 21.5
11 -1 -3 1419.06 112.29
11 -1 -3 1524.55 111.49
11 -1 -3 1547.85 116.59
-11 1 3 1322.37 114.69
-11 1 3 1207.48 120.69
10 -1 -3 250.07 22.4
10 -1 -3 236.48 22
-10 1 3 224.38 25.2
9 -1 -3 514.75 43.4
9 -1 -3 503.35 40.2
9 -1 -3 420.26 40
9 -1 -3 609.74 96.19
-9 1 3 416.96 47.9
-9 1 3 479.35 42.6
-9 1 3 555.94 39.9
8 -1 -3 1301.67 103.29
8 -1 -3 1382.26 126.29
8 -1 -3 1288.97 100.89
8 -1 -3 1534.35 143.19
8 -1 -3 1276.87 100.79
-8 1 3 1225.28 102.59
-8 1 3 1145.69 107.59
7 -1 -3 -0.1 2.8
7 -1 -3 -3.3 16.5
-7 1 3 4 7.7
-7 1 3 2.9 2.9
-7 1 3 3.2 3.7
6 -1 -3 1452.95 108.49
6 -1 -3 1340.77 106.59
6 -1 -3 1425.36 106.89
-6 1 3 1301.87 112.99
-6 1 3 1347.27 107.99
5 -1 -3 1520.45 125.09
5 -1 -3 1369.46 109.79
5 -1 -3 1342.87 110.09
5 -1 -3 1537.45 111.59
-5 1 3 1264.27 111.09
-5 1 3 1602.24 111.19
-5 1 3 1331.77 115.59
4 -1 -3 547.15 41.6
4 -1 -3 494.55 42.8
4 -1 -3 580.64 44.9
4 -1 -3 510.15 42
-4 1 3 496.85 47.2
-4 1 3 573.84 43.1
3 -1 -3 3736.63 310.87
3 -1 -3 3789.92 310.37
3 -1 -3 4546.04 324.27
3 -1 -3 4219.48 311.57
-3 1 3 4347.67 311.67
-3 1 3 3882.41 310.97
-3 1 3 3655.33 311.07
-3 1 3 4216.88 310.97
2 -1 -3 915.81 94.69
2 -1 -3 976.3 79.89
2 -1 -3 997 79.19
2 -1 -3 990.6 78.49
2 -1 -3 1042.1 78.99
-2 1 3 1045.8 78.99
-2 1 3 1059.89 79.29
-2 1 3 1122.39 78.59
-2 1 3 1002.8 79.79
1 -1 -3 3195.48 228.38
1 -1 -3 2926.61 228.28
1 -1 -3 2963.7 229.18
1 -1 -3 2923.51 229.38
1 -1 -3 2777.02 227.88
-1 1 3 2808.62 227.98
-1 1 3 3202.68 229.38
-1 1 3 2926.81 228.28
-1 1 3 3025.3 228.18
0 -1 -3 6576.84 483.85
0 -1 -3 5390.36 484.15
0 -1 -3 6596.14 485.35
0 1 3 5941.61 485.55
0 1 3 7172.68 511.75
0 1 3 6297.97 484.05
-1 -1 -3 213.18 36.7
-1 -1 -3 203.48 17.3
-1 -1 -3 205.68 17.3
-1 -1 -3 209.48 17.4
-1 -1 -3 192.38 19
1 1 3 251.77 17.6
1 1 3 225.98 18.4
1 1 3 221.88 37.9
1 1 3 230.78 18.4
1 1 3 215.38 17.5
-2 -1 -3 4556.44 347.07
2 1 3 4338.87 324.27
2 1 3 4051.09 323.57
2 1 3 4409.36 323.97
2 1 3 4151.08 324.17
2 1 3 3604.44 323.67
2 1 3 4744.13 325.27
2 1 3 3923.41 323.57
-3 -1 -3 5100.89 424.96
-3 -1 -3 5012.3 401.86
-3 -1 -3 5748.43 404.96
3 1 3 4393.56 401.46
3 1 3 5111.09 401.66
3 1 3 5859.71 425.96
3 1 3 5986.5 402.06
3 1 3 4785.12 401.26
3 1 3 5506.25 401.76
3 1 3 4845.02 401.46
-4 -1 -3 109.39 13.4
-4 -1 -3 122.39 15.3
-4 -1 -3 109.29 10.9
4 1 3 100.19 9.9
4 1 3 103.59 10.7
4 1 3 107.19 10.4
4 1 3 102.09 11.1
4 1 3 117.19 10.8
-5 -1 -3 2681.93 199.18
-5 -1 -3 2361.76 225.08
-5 -1 -3 2509.35 198.38
5 1 3 2552.94 195.48
5 1 3 2656.93 225.38
5 1 3 2487.75 194.38
5 1 3 2380.46 195.28
-6 -1 -3 1378.96 109.79
-6 -1 -3 1471.85 150.38
-6 -1 -3 1343.97 113.99
6 1 3 1363.06 147.39
6 1 3 1455.85 110.99
6 1 3 1366.46 110.69
6 1 3 1458.65 109.49
-7 -1 -3 300.77 33.6
-7 -1 -3 321.77 28.2
7 1 3 333.17 27.7
7 1 3 312.27 29.6
7 1 3 366.86 30.2
7 1 3 399.36 89.19
-8 -1 -3 1099.09 97.29
-8 -1 -3 1079.59 90.79
8 1 3 1171.58 90.49
8 1 3 1205.48 93.59
8 1 3 1173.48 159.78
8 1 3 1181.08 93.09
-9 -1 -3 208.18 29.4
9 1 3 132.89 19.5
9 1 3 140.89 15.6
-10 -1 -3 311.37 33.7
-10 -1 -3 350.36 48.8
-10 -1 -3 421.86 44.1
10 1 3 385.66 38.5
10 1 3 440.06 40.8
11 -2 -3 495.65 41.8
11 -2 -3 515.65 42.6
11 -2 -3 525.95 46.9
-11 2 3 463.75 44.8
-11 2 3 441.56 54.69
10 -2 -3 143.19 13.6
10 -2 -3 113.09 13.2
-10 2 3 111.79 16.1
-10 2 3 100.49 22.9
9 -2 -3 735.03 56.19
9 -2 -3 895.71 111.99
9 -2 -3 612.64 58.49
9 -2 -3 647.54 55.99
-9 2 3 617.04 64.19
-9 2 3 767.72 56.69
-9 2 3 750.02 58.39
8 -2 -3 157.08 18.4
8 -2 -3 182.28 16.1
8 -2 -3 192.98 40
8 -2 -3 163.38 15.7
-8 2 3 176.08 24.7
-8 2 3 190.68 17
-8 2 3 186.78 18
7 -2 -3 482.55 37.5
7 -2 -3 457.85 37.6
7 -2 -3 556.04 62.59
7 -2 -3 486.75 39.8
-7 2 3 538.45 62.59
-7 2 3 383.76 44.2
-7 2 3 445.26 39
6 -2 -3 1301.47 106.09
6 -2 -3 1555.24 108.39
6 -2 -3 1334.57 123.39
6 -2 -3 1434.86 106.39
-6 2 3 1435.26 108.19
-6 2 3 1187.58 112.09
-6 2 3 1460.15 125.29
-6 2 3 1254.87 107.29
5 -2 -3 9.1 2.5
5 -2 -3 0.8 2.9
5 -2 -3 -5.8 11.9
5 -2 -3 4.1 1.6
-5 2 3 0.1 5.3
-5 2 3 6.1 1.6
-5 2 3 0.5 10.6
-5 2 3 7.9 3.7
4 -2 -3 1595.94 122.29
4 -2 -3 1627.94 121.69
4 -2 -3 1615.24 123.29
4 -2 -3 1816.42 139.59
4 -2 -3 1512.65 121.39
-4 2 3 1596.84 124.19
-4 2 3 1574.54 123.09
-4 2 3 1392.56 121.59
-4 2 3 1565.84 121.39
3 -2 -3 3041.3 230.38
3 -2 -3 3028.8 230.88
3 -2 -3 3123.79 231.58
3 -2 -3 3221.28 249.18
-3 2 3 3011 231.58
-3 2 3 2631.64 234.98
-3 2 3 2715.33 230.08
-3 2 3 3069.49 232.78
-3 2 3 3199.68 231.58
2 -2 -3 609.64 43.9
2 -2 -3 573.74 44.6
2 -2 -3 468.45 42.7
2 -2 -3 539.75 43.3
2 -2 -3 609.94 44.1
-2 2 3 549.15 45
-2 2 3 545.05 43.4
-2 2 3 580.44 43.7
-2 2 3 493.15 42.7
1 -2 -3 4025.5 348.57
1 -2 -3 4704.43 349.47
1 -2 -3 4696.33 349.37
-1 2 3 5081.19 350.96
-1 2 3 4609.04 348.77
-1 2 3 3909.01 348.17
-1 2 3 4461.25 348.67
-1 2 3 4855.21 350.36
0 -2 -3 2384.06 170.28
0 -2 -3 2163.98 168.58
0 -2 -3 2026.8 169.48
0 -2 -3 2242.58 210.98
0 2 3 2224.88 168.88
0 2 3 2217.68 168.68
0 2 3 1966.3 170.58
0 2 3 2419.76 203.88
-1 -2 -3 694.13 89.89
-1 -2 -3 780.42 58.59
-1 -2 -3 839.62 58.79
1 2 3 678.33 81.99
1 2 3 628.24 56.99
1 2 3 639.24 56.99
1 2 3 763.62 57.89
1 2 3 793.82 58.49
-2 -2 -3 3236.08 269.07
-2 -2 -3 3433.76 268.07
2 2 3 3693.43 268.37
2 2 3 3090.49 267.47
2 2 3 4018.4 268.77
2 2 3 3638.74 293.47
2 2 3 3258.97 267.37
-3 -2 -3 1150.98 103.59
-3 -2 -3 1556.94 103.09
-3 -2 -3 1286.67 104.99
-3 -2 -3 1345.27 134.79
3 2 3 1418.96 103.39
3 2 3 1335.97 130.19
3 2 3 1238.18 102.99
3 2 3 1404.76 103.59
3 2 3 1155.48 102.39
-4 -2 -3 395.16 36
-4 -2 -3 448.86 38.3
-4 -2 -3 397.06 37.8
-4 -2 -3 425.76 70.69
4 2 3 422.46 35
4 2 3 491.45 70.99
4 2 3 468.25 35.8
4 2 3 438.36 34.9
-5 -2 -3 1481.35 126.09
-5 -2 -3 1691.83 126.19
-5 -2 -3 1552.34 123.39
-5 -2 -3 1359.56 172.18
5 2 3 1616.34 122.59
5 2 3 1512.15 122.29
5 2 3 1592.54 123.69
5 2 3 1727.53 123.99
5 2 3 1496.45 164.08
-6 -2 -3 133.69 14.4
-6 -2 -3 207.78 94.19
-6 -2 -3 128.89 18.7
6 2 3 134.39 15
6 2 3 67.69 42.5
6 2 3 145.39 15.2
6 2 3 135.39 13.3
-7 -2 -3 883.61 70.09
-7 -2 -3 701.93 134.99
-7 -2 -3 829.82 74.99
7 2 3 886.11 71.29
7 2 3 826.42 124.69
7 2 3 919.21 71.79
7 2 3 870.01 69.09
-8 -2 -3 686.93 59.49
8 2 3 745.53 62.39
8 2 3 899.91 143.79
8 2 3 717.93 58.79
-9 -2 -3 46.2 13.1
9 2 3 31.5 10.4
9 2 3 31.8 6.9
-10 -2 -3 718.33 59.59
-10 -2 -3 676.93 71.69
-11 3 3 -1.9 16.4
10 -3 -3 751.42 60.39
10 -3 -3 697.73 59.99
-10 3 3 710.03 62.29
-10 3 3 839.22 61.69
9 -3 -3 478.45 38.6
9 -3 -3 458.95 41.7
9 -3 -3 467.65 38.6
-9 3 3 475.75 49.2
-9 3 3 479.35 40.3
8 -3 -3 299.57 27.8
8 -3 -3 345.07 57.79
8 -3 -3 323.47 25.1
8 -3 -3 294.17 25
-8 3 3 285.07 27
-8 3 3 382.06 60.29
-8 3 3 250.67 33
-8 3 3 292.57 26.7
7 -3 -3 2075.19 167.98
7 -3 -3 1882.61 141.49
7 -3 -3 1839.62 143.49
-7 3 3 1676.43 148.59
-7 3 3 1812.62 142.59
-7 3 3 1719.53 143.59
6 -3 -3 449.46 52.59
6 -3 -3 362.26 28.3
6 -3 -3 371.66 30.6
6 -3 -3 342.47 28.5
-6 3 3 419.86 52.29
-6 3 3 297.77 30.7
-6 3 3 353.86 29.8
-6 3 3 323.17 34.9
5 -3 -3 1881.91 143.99
5 -3 -3 2067.59 143.59
5 -3 -3 1983.3 145.59
5 -3 -3 2133.39 166.08
-5 3 3 1717.73 142.89
-5 3 3 1790.12 143.49
-5 3 3 1620.74 146.49
-5 3 3 1766.22 149.59
4 -3 -3 4074.09 301.27
4 -3 -3 4133.99 278.27
4 -3 -3 3615.44 279.87
4 -3 -3 3440.56 278.17
-4 3 3 3592.74 279.47
-4 3 3 3502.05 277.97
-4 3 3 3081.69 277.77
3 -3 -3 233.18 20.6
3 -3 -3 280.17 22.2
3 -3 -3 254.77 20.4
3 -3 -3 267.37 21
-3 3 3 211.18 20.1
-3 3 3 271.77 20.1
-3 3 3 331.47 49.8
2 -3 -3 3991.3 271.87
2 -3 -3 3722.93 271.17
2 -3 -3 3316.97 270.57
2 -3 -3 3421.86 270.17
-2 3 3 3113.29 272.87
-2 3 3 3864.81 271.47
-2 3 3 3569.84 269.97
-2 3 3 3149.68 270.07
1 -3 -3 2029.9 149.29
1 -3 -3 1984.1 150.88
1 -3 -3 1947.51 149.49
-1 3 3 1832.12 151.18
-1 3 3 2126.69 148.49
-1 3 3 1821.52 148.59
-1 3 3 1747.53 150.98
0 -3 -3 -41.1 38
0 -3 -3 9.9 3.4
0 -3 -3 11.4 4.4
0 -3 -3 4.9 3.4
0 3 3 -16.5 21.8
0 3 3 9.9 4.2
0 3 3 5.2 2
0 3 3 11.9 2.3
0 3 3 6.3 4.1
-1 -3 -3 2208.38 167.28
-1 -3 -3 1858.91 164.48
-1 -3 -3 2265.87 218.88
-1 -3 -3 1915.71 164.38
1 3 3 2325.77 165.68
1 3 3 2146.09 163.58
1 3 3 2172.38 163.68
-2 -3 -3 1865.81 142.59
-2 -3 -3 1813.22 142.09
2 3 3 1853.01 141.99
2 3 3 1807.62 170.78
2 3 3 1712.63 139.99
2 3 3 1770.02 140.39
2 3 3 1836.82 141.39
-3 -3 -3 44.9 34.3
-3 -3 -3 79.89 10.8
-3 -3 -3 74.69 8.4
-3 -3 -3 68.99 10.4
-3 -3 -3 63.49 8.9
3 3 3 91.29 52.19
3 3 3 89.39 9.4
3 3 3 59.19 7.7
-4 -3 -3 1565.34 106.79
-4 -3 -3 1219.38 108.09
-4 -3 -3 1321.17 109.49
-4 -3 -3 1413.46 160.58
4 3 3 1304.57 106.79
4 3 3 1440.66 107.79
4 3 3 1341.57 106.79
4 3 3 1308.47 141.89
-5 -3 -3 550.04 48.7
-5 -3 -3 624.34 44.4
-5 -3 -3 519.45 111.49
-5 -3 -3 498.45 46.2
5 3 3 464.45 44.1
5 3 3 657.03 95.59
5 3 3 591.24 46.5
5 3 3 558.24 45
-6 -3 -3 544.05 53.59
-6 -3 -3 630.54 140.89
-6 -3 -3 563.14 50.69
6 3 3 635.24 51.49
6 3 3 521.15 110.59
6 3 3 698.13 52.19
6 3 3 589.84 49.4
-7 -3 -3 683.03 60.29
-7 -3 -3 772.82 65.29
-7 -3 -3 585.54 146.89
7 3 3 685.93 58.99
7 3 3 793.32 62.09
-8 -3 -3 -0.1 7.8
-8 -3 -3 29.1 13.9
-8 -3 -3 4.7 8.1
8 3 3 5.1 5.3
8 3 3 11.4 8.6
8 3 3 4.6 8.6
-9 -3 -3 795.42 87.19
-9 -3 -3 1000.6 83.49
9 3 3 979.3 84.19
9 3 3 1076.09 85.19
11 -4 -3 428.06 41.8
11 -4 -3 387.96 39
11 -4 -3 447.46 36.3
-11 4 3 417.16 38.8
10 -4 -3 1162.98 93.49
10 -4 -3 1216.98 89.39
10 -4 -3 1083.39 89.19
-10 4 3 1086.79 91.09
-10 4 3 1108.09 91.59
9 -4 -3 104.89 11.1
9 -4 -3 91.29 14.8
9 -4 -3 111.99 11.2
-9 4 3 117.89 23
8 -4 -3 1549.54 111.69
8 -4 -3 1560.24 145.69
8 -4 -3 1436.56 114.39
8 -4 -3 1510.75 111.79
-8 4 3 1696.83 149.49
-8 4 3 1385.36 112.99
-8 4 3 1237.08 119.29
-8 4 3 1225.38 114.29
7 -4 -3 1725.53 128.09
7 -4 -3 1679.93 154.68
7 -4 -3 1718.63 130.49
-7 4 3 1509.15 134.99
-7 4 3 1611.94 129.09
6 -4 -3 159.68 35.3
6 -4 -3 144.59 11.6
-6 4 3 130.29 18.6
-6 4 3 119.79 10.4
-6 4 3 131.89 13.1
-6 4 3 121.79 31.4
-6 4 3 115.89 15.2
5 -4 -3 3705.93 280.47
5 -4 -3 3715.53 278.87
5 -4 -3 4075.59 278.47
5 -4 -3 3815.82 304.67
-5 4 3 3679.83 278.27
-5 4 3 3165.48 283.57
-5 4 3 3218.08 277.77
4 -4 -3 2456.45 190.08
4 -4 -3 2368.16 214.18
4 -4 -3 2583.04 191.58
4 -4 -3 2475.55 189.88
4 -4 -3 2731.13 189.78
-4 4 3 2208.68 189.28
-4 4 3 2771.92 189.58
-4 4 3 2073.49 193.88
3 -4 -3 605.04 82.09
3 -4 -3 763.72 61.29
3 -4 -3 891.31 60.09
-3 4 3 729.23 59.19
-3 4 3 874.31 64.99
-3 4 3 637.34 62.59
2 -4 -3 4161.78 301.87
2 -4 -3 4055.99 300.17
-2 4 3 4050.69 299.37
-2 4 3 3468.65 302.97
-2 4 3 3743.83 299.47
1 -4 -3 1366.96 102.69
1 -4 -3 1192.18 105.09
-1 4 3 1467.65 102.09
-1 4 3 1231.98 104.99
-1 4 3 1410.46 102.19
-1 4 3 1203.08 105.29
0 -4 -3 607.74 46.7
0 -4 -3 489.85 51.09
0 -4 -3 549.95 46.9
0 4 3 548.15 49.3
0 4 3 626.64 46.3
0 4 3 639.04 47.3
-1 -4 -3 2626.44 216.58
1 4 3 2820.32 218.38
1 4 3 3047.6 215.88
1 4 3 2639.64 252.07
-2 -4 -3 46.9 9
-2 -4 -3 31.3 57.49
-2 -4 -3 65.19 9.2
-2 -4 -3 56.69 13.7
-2 -4 -3 64.69 8.5
2 4 3 47.2 34.5
2 4 3 54.49 10.2
2 4 3 75.49 8
-3 -4 -3 1996.6 234.38
-3 -4 -3 2380.16 171.38
-3 -4 -3 2100.49 172.28
3 4 3 2077.49 170.38
3 4 3 2064.89 205.68
3 4 3 2377.16 170.38
3 4 3 2142.79 169.38
-4 -4 -3 1666.93 123.29
-4 -4 -3 1673.73 121.39
-4 -4 -3 1362.56 197.48
4 4 3 1619.14 121.89
4 4 3 1478.25 120.49
4 4 3 1319.17 120.39
-5 -4 -3 186.88 20.9
-5 -4 -3 127.89 19
-5 -4 -3 197.48 108.89
5 4 3 186.28 17.4
5 4 3 180.38 19.3
5 4 3 221.98 65.29
5 4 3 161.28 16.3
-6 -4 -3 1592.94 259.57
-6 -4 -3 1947.51 156.78
6 4 3 1845.42 222.58
6 4 3 1854.01 152.98
6 4 3 2228.38 155.88
-7 -4 -3 145.69 28.6
-7 -4 -3 147.79 21.8
7 4 3 158.88 19.3
7 4 3 204.18 24.7
7 4 3 259.67 125.29
7 4 3 204.78 24.7
-8 -4 -3 460.45 51.69
-8 -4 -3 610.94 54.89
8 4 3 594.64 52.39
8 4 3 488.85 46.8
-9 -4 -3 1020.5 94.89
-9 -4 -3 1216.28 100.79
9 4 3 1144.79 92.69
11 -5 -3 579.84 50.19
11 -5 -3 679.23 50.39
11 -5 -3 676.23 57.09
-11 5 3 624.34 53.99
-11 5 3 557.84 52.29
-11 5 3 544.85 67.99
10 -5 -3 429.16 39.9
10 -5 -3 433.76 35.3
10 -5 -3 448.96 35.3
-10 5 3 368.46 38.9
-10 5 3 415.16 49.1
-10 5 3 425.56 37.4
9 -5 -3 150.68 13.8
9 -5 -3 144.79 17.5
9 -5 -3 143.89 13.4
-9 5 3 134.69 15.5
-9 5 3 123.39 22.7
-9 5 3 108.69 17.8
8 -5 -3 1945.01 184.28
8 -5 -3 2050.79 145.99
8 -5 -3 1861.21 148.99
8 -5 -3 1878.21 146.09
-8 5 3 1928.81 147.39
-8 5 3 1621.44 153.48
7 -5 -3 799.22 62.59
7 -5 -3 710.93 92.39
7 -5 -3 770.82 59.79
7 -5 -3 762.82 61.49
-7 5 3 695.43 58.29
-7 5 3 718.93 66.99
-7 5 3 927.71 101.89
-7 5 3 737.73 60.69
6 -5 -3 372.06 34.1
6 -5 -3 418.76 31.7
6 -5 -3 368.96 62.09
6 -5 -3 393.76 32
-6 5 3 393.06 37.9
-6 5 3 385.46 32.7
-6 5 3 506.95 74.39
-6 5 3 363.46 30.7
5 -5 -3 3032.6 227.88
5 -5 -3 2814.32 254.57
5 -5 -3 3080.19 225.48
5 -5 -3 2926.61 225.78
-5 5 3 2694.53 224.88
-5 5 3 3267.67 225.38
-5 5 3 2628.14 230.38
4 -5 -3 567.64 79.49
4 -5 -3 713.83 53.19
4 -5 -3 669.53 50.99
4 -5 -3 581.04 50.49
-4 5 3 621.84 50.19
-4 5 3 648.84 55.29
3 -5 -3 1792.32 133.79
3 -5 -3 1727.23 135.69
-3 5 3 1691.93 137.39
-3 5 3 1670.33 133.09
2 -5 -3 3061.79 231.38
2 -5 -3 2844.42 236.48
2 -5 -3 3191.38 231.78
-2 5 3 2652.23 234.78
-2 5 3 3035.5 234.58
-2 5 3 3194.58 231.28
1 -5 -3 169.08 76.89
1 -5 -3 185.98 16.9
1 -5 -3 201.88 16.6
-1 5 3 170.68 18.9
-1 5 3 190.88 16.2
-1 5 3 163.38 19.7
0 -5 -3 2600.64 176.78
0 -5 -3 1990.7 244.48
0 -5 -3 2258.87 176.98
0 -5 -3 2262.87 182.68
0 5 3 2133.39 177.08
0 5 3 2134.09 179.68
0 5 3 2408.16 176.38
-1 -5 -3 1644.24 112.99
-1 -5 -3 1309.57 112.79
1 5 3 1308.67 154.78
1 5 3 1309.07 115.19
1 5 3 1535.55 112.49
-2 -5 -3 307.97 30.6
-2 -5 -3 376.56 29.1
-2 -5 -3 327.77 30.1
2 5 3 378.06 30.4
2 5 3 322.47 29.3
-3 -5 -3 2279.97 146.19
-3 -5 -3 1520.85 240.78
-3 -5 -3 1805.32 148.49
-3 -5 -3 1765.22 151.18
3 5 3 1707.23 148.29
3 5 3 1941.51 146.89
-4 -5 -3 218.78 138.69
4 5 3 284.37 26.8
4 5 3 205.78 58.09
4 5 3 328.87 28.6
-5 -5 -3 1148.49 234.68
-5 -5 -3 973.2 85.39
5 5 3 1118.19 157.38
-6 -5 -3 1734.83 130.59
-6 -5 -3 1383.96 266.27
6 5 3 1310.67 201.08
6 5 3 1637.74 127.59
-7 -5 -3 8.1 14.9
7 5 3 6.6 10.3
7 5 3 17.4 12
7 5 3 -0.8 7.2
-8 -5 -3 1357.86 110.69
8 5 3 1207.48 104.89
11 -6 -3 469.65 38.9
11 -6 -3 501.95 45.3
-11 6 3 441.96 42.8
-11 6 3 409.76 54.99
10 -6 -3 38.7 8.1
10 -6 -3 44.2 12.1
10 -6 -3 26.6 6.1
-10 6 3 59.39 12.5
-10 6 3 15.4 16.5
9 -6 -3 730.33 54.39
9 -6 -3 586.14 61.79
9 -6 -3 691.33 54.49
-9 6 3 580.64 65.09
-9 6 3 745.43 56.09
8 -6 -3 1221.88 89.69
8 -6 -3 1201.08 89.89
8 -6 -3 1097.79 92.99
-8 6 3 1143.39 90.79
-8 6 3 1029.8 97.39
7 -6 -3 33.6 39.4
7 -6 -3 12 6.1
7 -6 -3 12.5 3.5
7 -6 -3 17.2 4.6
-7 6 3 10.4 2.7
-7 6 3 14.3 7.6
-7 6 3 30.3 52.49
-7 6 3 15.6 9.5
-7 6 3 21.8 5.1
6 -6 -3 1366.46 106.59
6 -6 -3 1341.57 103.89
6 -6 -3 1336.77 142.19
6 -6 -3 1402.76 103.79
6 -6 -3 1353.16 104.09
-6 6 3 1183.88 108.89
-6 6 3 1302.77 102.89
5 -6 -3 1709.83 134.89
5 -6 -3 1614.04 171.18
5 -6 -3 1943.41 135.29
5 -6 -3 1901.51 137.99
-5 6 3 1667.93 139.69
-5 6 3 1523.55 139.39
4 -6 -3 93.29 40.4
4 -6 -3 97.79 12.5
4 -6 -3 63.79 8.9
-4 6 3 203.98 65.69
-4 6 3 70.79 13.5
-4 6 3 77.69 13.3
-4 6 3 81.49 8.1
3 -6 -3 1515.85 114.29
3 -6 -3 1598.24 113.79
3 -6 -3 1368.76 116.79
-3 6 3 1588.64 113.69
-3 6 3 1215.98 117.59
2 -6 -3 439.26 35.7
2 -6 -3 431.66 36.4
2 -6 -3 394.16 39.5
2 -6 -3 402.26 86.59
-2 6 3 478.55 39.3
-2 6 3 401.96 40.1
-2 6 3 490.15 35.9
1 -6 -3 398.96 31
1 -6 -3 270.57 74.19
1 -6 -3 378.56 31.7
1 -6 -3 345.67 35.9
-1 6 3 398.96 33
-1 6 3 316.87 34.6
-1 6 3 407.66 31.1
0 -6 -3 1192.58 101.59
0 -6 -3 1482.15 101.39
0 -6 -3 1347.67 108.39
0 -6 -3 992.7 181.18
0 6 3 1156.68 104.69
0 6 3 1355.76 101.29
-1 -6 -3 34.8 7.5
-1 -6 -3 46.6 7.5
-1 -6 -3 16.5 12.5
-1 -6 -3 10.4 86.49
-1 -6 -3 36.3 7.4
1 6 3 39.4 8.2
1 6 3 29.3 9.6
1 6 3 29.9 5.9
1 6 3 36 38.7
-2 -6 -3 901.81 63.39
-2 -6 -3 696.53 65.39
-2 -6 -3 870.71 65.29
2 6 3 848.82 65.79
2 6 3 663.03 118.19
2 6 3 702.93 64.39
-3 -6 -3 1029.9 219.18
-3 -6 -3 1366.76 99.79
3 6 3 1259.47 97.59
3 6 3 915.61 148.69
-4 -6 -3 18.5 9.9
-4 -6 -3 -119.49 146.79
4 6 3 48.4 66.49
-5 -6 -3 2135.19 161.88
5 6 3 1916.21 160.18
-6 -6 -3 536.05 58.69
6 6 3 709.13 58.39
-7 -6 -3 240.58 31.5
7 6 3 201.38 29.8
7 6 3 303.17 35.3
10 -7 -3 224.18 26.9
-10 7 3 199.18 21.1
-10 7 3 157.98 27.2
-10 7 3 157.18 33.5
9 -7 -3 1381.26 115.19
9 -7 -3 1451.65 111.29
-9 7 3 1288.47 119.69
-9 7 3 1528.45 112.39
8 -7 -3 308.77 31.1
8 -7 -3 336.37 26.9
8 -7 -3 327.07 27.2
-8 7 3 281.37 33.8
-8 7 3 284.67 35.1
7 -7 -3 708.03 55.99
7 -7 -3 719.93 55.89
7 -7 -3 761.52 179.48
7 -7 -3 708.93 59.69
7 -7 -3 752.62 56.29
-7 7 3 663.73 62.29
-7 7 3 538.15 152.48
-7 7 3 714.03 54.79
-7 7 3 609.84 61.49
6 -7 -3 1659.03 132.29
6 -7 -3 1509.55 178.08
6 -7 -3 1568.94 128.89
6 -7 -3 1760.02 129.19
6 -7 -3 1705.43 128.69
-6 7 3 1538.65 134.49
-6 7 3 1557.24 134.09
-6 7 3 1836.32 128.19
5 -7 -3 6.4 4.3
5 -7 -3 1.8 6
5 -7 -3 -0.1 3
5 -7 -3 -17 40
-5 7 3 -0.7 7.1
-5 7 3 9.8 7.9
-5 7 3 1.8 2.3
-5 7 3 -57.69 56.49
4 -7 -3 1380.66 104.39
4 -7 -3 1232.78 107.19
4 -7 -3 1369.06 103.49
-4 7 3 1258.27 107.49
-4 7 3 1233.78 108.79
-4 7 3 1467.25 103.59
3 -7 -3 429.96 37.2
3 -7 -3 381.06 40.4
3 -7 -3 420.66 118.89
3 -7 -3 465.45 36.4
-3 7 3 490.35 36.2
-3 7 3 506.55 36.7
-3 7 3 428.26 39.8
-3 7 3 413.16 41.6
2 -7 -3 110.59 13
2 -7 -3 129.39 63.89
2 -7 -3 108.59 12.1
-2 7 3 121.59 15.4
-2 7 3 95.09 16.3
-2 7 3 118.69 11.7
-2 7 3 287.67 85.29
1 -7 -3 1006.6 90.59
1 -7 -3 1057.79 85.59
1 -7 -3 1092.09 84.59
-1 7 3 1109.59 85.89
-1 7 3 1158.98 85.19
-1 7 3 1023 89.49
0 -7 -3 337.97 123.89
0 -7 -3 296.07 22.9
0 -7 -3 221.88 31.7
0 -7 -3 236.18 23.4
0 7 3 209.78 27
0 7 3 235.38 22.9
0 7 3 304.27 23.7
0 7 3 320.47 75.19
-1 -7 -3 553.84 49.1
-1 -7 -3 454.75 161.68
-1 -7 -3 584.14 58.09
-1 -7 -3 614.84 48.3
1 7 3 654.13 117.69
1 7 3 679.73 49.4
1 7 3 590.24 48.5
1 7 3 483.05 51.69
-2 -7 -3 1262.77 130.99
-2 -7 -3 1636.74 125.29
-2 -7 -3 1689.73 124.09
2 7 3 1744.83 125.19
2 7 3 1395.76 179.98
2 7 3 1558.54 123.79
-3 -7 -3 88.69 16.4
-3 -7 -3 74.09 20.4
-3 -7 -3 -30 173.08
3 7 3 78.99 14
3 7 3 57.19 13.3
3 7 3 42 8.8
-4 -7 -3 1087.29 96.09
-4 -7 -3 1128.09 359.36
4 7 3 1020.6 87.79
4 7 3 1082.69 180.38
-5 -7 -3 1094.49 88.39
5 7 3 1029.8 87.89
-6 -7 -3 3 9.5
-6 -7 -3 -33.3 15.8
6 7 3 0.7 17.2
6 7 3 -7 10.4
6 7 3 6 12.5
10 -8 -3 1160.68 92.99
10 -8 -3 1217.48 87.19
-10 8 3 990.3 95.09
-10 8 3 953.8 98.69
9 -8 -3 1074.89 86.89
9 -8 -3 1122.29 83.49
-9 8 3 944.61 90.79
-9 8 3 938.31 89.39
8 -8 -3 49.7 9.5
8 -8 -3 51.49 11.9
8 -8 -3 47.8 8.5
-8 8 3 56.49 15.3
7 -8 -3 1536.85 110.29
7 -8 -3 1276.77 109.69
7 -8 -3 1249.57 108.99
7 -8 -3 1410.86 114.09
-7 8 3 1572.94 108.89
-7 8 3 1378.66 116.79
-7 8 3 1359.26 115.99
6 -8 -3 614.64 47.2
6 -8 -3 585.74 51.29
6 -8 -3 567.64 45.8
-6 8 3 594.54 53.89
-6 8 3 492.45 51.19
5 -8 -3 542.05 45.8
5 -8 -3 440.76 104.39
5 -8 -3 583.84 47
5 -8 -3 592.14 51.29
-5 8 3 657.73 46
-5 8 3 569.44 52.69
-5 8 3 495.65 50.29
4 -8 -3 781.82 70.49
4 -8 -3 576.54 135.89
4 -8 -3 873.51 66.69
-4 8 3 870.61 69.79
-4 8 3 842.92 71.79
3 -8 -3 80.39 15.4
3 -8 -3 10.2 65.99
-3 8 3 59.69 8.3
-3 8 3 63.99 7.4
-3 8 3 66.09 12.1
-3 8 3 151.68 83.99
-3 8 3 45.9 11.7
2 -8 -3 1180.48 105.79
2 -8 -3 1302.77 104.69
-2 8 3 1458.55 105.29
-2 8 3 1352.56 107.19
-2 8 3 1451.45 105.59
-2 8 3 1310.97 110.59
1 -8 -3 1646.84 124.39
1 -8 -3 1479.25 130.79
1 -8 -3 1360.96 124.99
-1 8 3 1763.92 124.89
-1 8 3 1559.14 129.59
-1 8 3 1583.54 124.59
-1 8 3 1742.23 124.99
0 -8 -3 85.59 13.5
0 -8 -3 91.09 19.8
0 -8 -3 69.99 97.29
0 -8 -3 101.49 11.3
0 8 3 130.79 68.89
0 8 3 106.09 12.4
0 8 3 88.69 11.8
0 8 3 120.19 18
-1 -8 -3 2283.97 189.68
-1 -8 -3 2497.05 188.78
-1 -8 -3 1804.02 330.67
-1 -8 -3 2271.47 197.18
1 8 3 2534.65 189.18
1 8 3 2782.02 189.98
1 8 3 2354.06 193.08
-2 -8 -3 679.83 191.88
-2 -8 -3 1097.99 84.19
-2 -8 -3 975.2 93.99
-2 -8 -3 1064.59 85.79
2 8 3 1158.18 159.18
2 8 3 1147.49 85.49
2 8 3 1062.19 84.29
2 8 3 941.71 87.59
-3 -8 -3 530.95 55.19
-3 -8 -3 644.14 48.8
-3 -8 -3 472.45 59.69
3 8 3 613.44 55.09
3 8 3 526.25 52.09
-4 -8 -3 1978.5 152.98
-4 -8 -3 1779.62 155.18
4 8 3 2006.5 153.38
-5 -8 -3 148.59 21.4
-5 -8 -3 115.19 24.5
5 8 3 134.29 22.9
5 8 3 119.99 24.7
9 -9 -3 157.48 18.1
9 -9 -3 149.29 28.6
-9 9 3 160.38 31
-9 9 3 136.69 25.5
8 -9 -3 309.47 34.5
-8 9 3 302.47 36.8
-8 9 3 277.87 37.4
7 -9 -3 787.02 65.59
7 -9 -3 733.03 70.09
-7 9 3 743.83 71.29
-7 9 3 934.91 64.39
-7 9 3 833.52 73.59
6 -9 -3 22.5 6.3
6 -9 -3 41 11.8
6 -9 -3 18.2 6
-6 9 3 24.1 4.6
-6 9 3 21.7 10.1
5 -9 -3 681.53 66.09
5 -9 -3 809.02 61.79
5 -9 -3 521.95 128.19
-5 9 3 791.12 67.89
-5 9 3 800.92 65.59
4 -9 -3 607.84 52.89
-4 9 3 629.34 58.39
-4 9 3 621.44 51.19
-4 9 3 732.23 52.09
-4 9 3 623.04 55.49
3 -9 -3 82.59 18.6
3 -9 -3 105.59 117.29
-3 9 3 25.7 102.39
-3 9 3 46.7 7.3
-3 9 3 46.8 10.1
-3 9 3 61.79 8.6
-3 9 3 48.4 12.7
2 -9 -3 1614.64 152.68
2 -9 -3 1991.6 146.49
2 -9 -3 1680.33 147.59
-2 9 3 1916.71 152.68
-2 9 3 2006.6 151.98
-2 9 3 2029.5 147.29
-2 9 3 1938.81 146.79
1 -9 -3 346.27 28.4
1 -9 -3 309.07 133.39
1 -9 -3 319.07 38.3
1 -9 -3 304.57 30
-1 9 3 339.97 29
-1 9 3 347.87 35.3
-1 9 3 339.67 29.4
0 -9 -3 798.12 74.89
0 -9 -3 885.81 83.19
0 -9 -3 962.5 74.19
0 9 3 949.31 79.59
0 9 3 989 74.89
0 9 3 969.4 74.69
-1 -9 -3 1873.71 175.38
-1 -9 -3 2192.98 167.08
1 9 3 2185.88 171.98
1 9 3 2036 171.58
1 9 3 2361.66 168.18
-2 -9 -3 209.88 21.2
-2 -9 -3 227.38 25
-2 -9 -3 161.78 32.3
2 9 3 226.28 23.1
2 9 3 173.28 26.9
2 9 3 197.58 22
-3 -9 -3 1195.58 101.09
-3 -9 -3 1080.89 109.89
-3 -9 -3 1273.67 98.69
3 9 3 1311.07 99.39
-4 -9 -3 957.3 92.19
-4 -9 -3 982.8 86.79
4 9 3 1085.99 88.59
4 9 3 1212.28 90.29
8 -10 -3 352.56 31.1
8 -10 -3 304.67 40.4
-8 10 3 335.97 41.5
-8 10 3 307.27 39.8
7 -10 -3 186.48 28.3
7 -10 -3 181.28 19.7
-7 10 3 186.68 16.5
-7 10 3 121.29 28.7
-7 10 3 130.99 27.2
6 -10 -3 276.47 26.5
-6 10 3 264.87 31.6
-6 10 3 311.57 24.7
-6 10 3 245.88 34.2
5 -10 -3 500.35 62.49
-5 10 3 558.84 45.1
-5 10 3 632.54 54.89
-5 10 3 543.15 50.89
4 -10 -3 67.49 16.7
4 -10 -3 74.69 182.98
-4 10 3 72.59 9.1
-4 10 3 77.19 16.3
-4 10 3 77.99 10.1
-4 10 3 110.09 24.8
-4 10 3 244.68 148.89
3 -10 -3 599.44 64.19
-3 10 3 788.72 57.59
-3 10 3 718.43 56.69
2 -10 -3 767.92 73.99
-2 10 3 839.32 67.39
-2 10 3 823.72 65.89
-2 10 3 859.81 72.79
1 -10 -3 2.9 13.3
1 -10 -3 -4.6 6.4
-1 10 3 5.4 9.6
-1 10 3 -3.9 4.6
-1 10 3 7.8 4.6
0 -10 -3 957.6 77.39
0 -10 -3 881.21 78.89
0 -10 -3 861.61 86.29
0 10 3 1024.8 78.09
0 10 3 977.9 77.89
0 10 3 1077.19 83.69
-1 -10 -3 759.92 81.39
-1 -10 -3 901.81 70.99
-1 -10 -3 835.72 72.99
1 10 3 834.42 71.59
1 10 3 936.31 71.99
1 10 3 967.1 77.39
-2 -10 -3 33.7 13.1
-2 -10 -3 62.29 12.3
-2 -10 -3 49.6 25
2 10 3 42.3 10.2
2 10 3 40.6 9.8
2 10 3 40.9 15.1
-3 -10 -3 1076.69 97.19
-3 -10 -3 1074.39 108.69
3 10 3 1213.38 96.29
3 10 3 1269.77 95.39
6 -11 -3 836.62 74.39
-6 11 3 1005.3 74.79
-6 11 3 898.41 82.09
5 -11 -3 136.89 31.1
5 -11 -3 212.58 21.4
-5 11 3 163.88 28.4
-5 11 3 170.68 17.7
4 -11 -3 275.77 26
4 -11 -3 205.18 36.1
-4 11 3 278.27 34.1
-4 11 3 256.97 23.9
3 -11 -3 1120.99 112.79
3 -11 -3 1262.47 106.09
-3 11 3 1502.45 105.59
-3 11 3 1224.98 104.39
-3 11 3 1553.84 113.49
2 -11 -3 71.69 21.6
2 -11 -3 70.99 12.4
-2 11 3 89.09 18.5
-2 11 3 78.69 13
1 -11 -3 348.97 47.8
1 -11 -3 372.36 37
-1 11 3 391.26 34.2
-1 11 3 398.86 35.1
-1 11 3 459.65 43.5
0 -11 -3 1057.09 89.49
0 -11 -3 919.81 97.39
0 11 3 1150.88 88.19
0 11 3 1207.68 94.09
-1 -11 -3 40.8 21.9
-1 -11 -3 27.2 11.9
1 11 3 19.9 7.7
1 11 3 53.09 15.5
1 11 3 31.9 9.3
-1 13 -4 426.66 38.7
-1 13 -4 475.75 37.9
-1 13 -4 414.56 43.6
1 -13 4 448.26 40.4
1 -13 4 399.46 56.09
-2 13 -4 39.3 14.7
-2 13 -4 48 8
2 -13 4 28.5 21.4
2 -13 4 28.9 12.5
2 -13 4 56.39 12
3 -13 4 256.37 33.3
3 -13 4 347.07 44.5
2 12 -4 814.92 63.29
2 12 -4 746.73 64.99
-2 -12 4 748.33 66.19
-2 -12 4 786.82 82.19
1 12 -4 51.19 8.2
1 12 -4 26.1 10.4
-1 -12 4 44.7 25.5
-1 -12 4 46.9 11.7
0 12 -4 1046.4 79.99
0 12 -4 943.61 80.99
0 -12 4 1019.4 93.89
-1 12 -4 491.45 40.7
1 -12 4 478.15 42.4
1 -12 4 486.95 55.19
-2 12 -4 166.08 17.1
2 -12 4 212.48 20
2 -12 4 121.09 23.4
2 -12 4 180.58 32.8
-3 12 -4 1301.87 98.89
3 -12 4 1194.38 107.79
4 -12 4 137.49 21.3
5 -12 4 283.27 39.4
5 -12 4 269.17 30.1
-6 12 -4 531.15 58.39
6 -12 4 537.45 47.7
6 -12 4 456.55 52.59
-4 -11 4 98.19 34.8
-4 -11 4 91.69 19.1
3 11 -4 743.03 60.59
3 11 -4 710.43 57.49
-3 -11 4 684.03 79.89
-3 -11 4 663.43 61.19
2 11 -4 759.82 58.39
2 11 -4 597.64 60.29
2 11 -4 769.02 60.59
-2 -11 4 778.52 77.69
-2 -11 4 709.33 63.09
1 11 -4 364.06 31.6
1 11 -4 382.16 33.4
-1 -11 4 385.06 34.3
-1 -11 4 324.87 47.9
0 11 -4 1388.26 109.19
0 11 -4 1315.17 112.99
0 -11 4 1359.26 122.29
0 -11 4 1488.55 110.99
1 -11 4 156.58 25.4
2 -11 4 417.96 40.6
-3 11 -4 859.01 72.29
3 -11 4 879.11 80.09
-4 11 -4 29.6 9.4
4 -11 4 28.7 10.4
4 -11 4 38.2 7.4
4 -11 4 35 14.4
-5 11 -4 529.45 49.3
5 -11 4 551.74 53.39
-6 11 -4 742.73 68.79
6 -11 4 688.23 70.59
6 -11 4 914.21 66.79
-7 11 -4 9.3 4.5
-7 11 -4 18.5 12.4
-7 11 -4 -0.5 13.3
7 -11 4 4.8 7.2
7 -11 4 4.1 13.7
5 10 -4 105.79 23.1
5 10 -4 113.29 15.2
-5 -10 4 56.29 34.1
-5 -10 4 134.09 20
-5 -10 4 118.89 19.7
4 10 -4 278.97 29.9
4 10 -4 287.97 25.7
-4 -10 4 274.87 30.7
-4 -10 4 203.48 47.8
-4 -10 4 328.47 33.3
3 10 -4 702.23 54.49
3 10 -4 541.25 52.89
3 10 -4 637.54 52.19
-3 -10 4 592.04 69.09
-3 -10 4 681.83 55.29
2 10 -4 7.1 4.2
2 10 -4 18 6.8
2 10 -4 5.2 5.4
-2 -10 4 11.2 7.9
-2 -10 4 -7 16.1
1 10 -4 1180.08 93.09
1 10 -4 1141.29 91.59
-1 -10 4 1110.99 104.09
-1 -10 4 1218.18 93.79
0 10 -4 609.54 49.9
0 -10 4 587.24 61.79
0 -10 4 649.74 51.69
1 -10 4 13.9 14.1
1 -10 4 17 6.4
-2 10 -4 1709.43 126.29
2 -10 4 1518.05 133.79
-3 10 -4 769.52 53.79
3 -10 4 644.94 61.29
3 -10 4 583.64 56.39
4 -10 4 37.4 12.1
4 -10 4 63.19 11.8
5 -10 4 1006 82.09
-7 10 -4 499.15 38.4
7 -10 4 422.26 45.9
7 -10 4 466.35 41.2
-8 10 -4 714.43 52.09
8 -10 4 595.14 60.09
8 -10 4 615.94 54.99
7 9 -4 914.41 76.09
7 9 -4 842.02 82.79
-7 -9 4 732.73 69.39
-7 -9 4 762.82 72.49
6 9 -4 230.88 29.5
6 9 -4 155.18 36.5
-6 -9 4 152.18 25.7
-6 -9 4 176.88 23.1
5 9 -4 227.88 27.5
5 9 -4 225.88 21.4
-5 -9 4 222.68 26.9
-5 -9 4 222.48 24.9
4 9 -4 1412.46 109.29
4 9 -4 1269.07 105.49
-4 -9 4 1459.55 108.39
-4 -9 4 1230.98 108.19
3 9 -4 233.98 22.6
3 9 -4 278.87 26.1
-3 -9 4 197.88 39.4
-3 -9 4 309.57 26.9
2 9 -4 682.53 57.39
2 9 -4 769.12 59.49
-2 -9 4 738.73 59.89
-2 -9 4 675.13 71.29
1 9 -4 1550.34 124.59
1 9 -4 1544.85 123.29
-1 -9 4 1522.65 134.89
-1 -9 4 1486.65 221.18
-1 -9 4 1740.43 125.29
0 9 -4 55.59 7.3
0 -9 4 58.29 17.4
0 -9 4 58.09 9.1
0 -9 4 49.1 10.4
0 -9 4 39.9 48.2
1 -9 4 615.54 99.39
1 -9 4 822.22 64.49
-2 9 -4 1419.96 101.09
-2 9 -4 1416.96 132.59
2 -9 4 1116.49 103.49
2 -9 4 1259.17 108.19
-3 9 -4 41 31.2
-3 9 -4 16.7 3.6
3 -9 4 -14.3 27.7
3 -9 4 13.7 5.8
3 -9 4 11.1 4.4
3 -9 4 10.9 9.3
-4 9 -4 942.01 106.59
-4 9 -4 923.71 70.39
4 -9 4 850.71 104.59
4 -9 4 862.71 72.79
-5 9 -4 497.85 39.1
5 -9 4 469.85 41.5
6 -9 4 34.2 7.3
-8 9 -4 18.6 10.2
-8 9 -4 13.3 13
-8 9 -4 36.4 6.6
8 -9 4 47.3 12.9
8 -9 4 32.6 8.1
-9 9 -4 177.18 16.2
-9 9 -4 112.69 29.9
9 -9 4 178.88 28.4
9 -9 4 159.38 21
7 8 -4 1207.58 91.69
7 8 -4 1154.08 102.69
7 8 -4 1209.08 98.79
-7 -8 4 1064.59 94.49
-7 -8 4 1033.7 98.69
6 8 -4 4.5 5.4
6 8 -4 13.1 10.3
6 8 -4 21.3 15.3
-6 -8 4 21.3 8.9
-6 -8 4 9.8 9.9
5 8 -4 1113.29 88.79
5 8 -4 1207.88 93.59
-5 -8 4 1103.39 91.59
-5 -8 4 1217.28 92.19
-5 -8 4 942.11 101.49
4 8 -4 2401.26 174.28
4 8 -4 2097.19 170.48
-4 -8 4 2085.49 172.88
-4 -8 4 2554.04 173.88
-4 -8 4 1819.82 181.68
3 8 -4 58.89 7.9
3 8 -4 34.3 34.5
3 8 -4 63.59 11.5
-3 -8 4 29.7 15.9
-3 -8 4 99.79 49.3
2 8 -4 3244.18 254.07
2 8 -4 3714.73 256.27
-2 -8 4 2896.61 264.37
-2 -8 4 3746.63 256.37
-2 -8 4 2722.53 291.87
1 8 -4 1058.49 91.79
1 8 -4 1253.27 92.39
-1 -8 4 1003.7 153.08
-1 -8 4 1330.87 104.79
0 8 -4 409.36 29.6
0 8 -4 408.66 30
0 8 -4 326.47 30.2
0 8 -4 361.46 32.3
0 8 -4 313.67 31.3
0 -8 4 392.86 41
0 -8 4 247.38 76.09
-1 8 -4 2211.78 191.78
-1 8 -4 2563.04 193.18
1 -8 4 2259.67 193.78
1 -8 4 2879.61 200.28
-2 8 -4 168.28 19.5
-2 8 -4 220.98 17.3
2 -8 4 218.58 49.8
2 -8 4 205.58 20.3
2 -8 4 193.78 24.7
-3 8 -4 489.25 63.29
-3 8 -4 487.35 37.5
-3 8 -4 427.76 40
3 -8 4 481.95 40
3 -8 4 443.26 69.89
-4 8 -4 1390.06 99.49
-4 8 -4 1077.89 101.99
4 -8 4 1327.37 125.49
4 -8 4 1325.77 101.59
-5 8 -4 6.4 6.2
-5 8 -4 -35.1 48.1
5 -8 4 16.7 5.2
5 -8 4 19.9 26.1
5 -8 4 14.5 7.9
-6 8 -4 918.21 69.79
6 -8 4 941.51 71.99
6 -8 4 831.12 74.59
6 -8 4 833.82 99.99
-7 8 -4 546.75 45.8
7 -8 4 574.14 48.2
7 -8 4 611.84 51.89
-8 8 -4 103.59 10.7
8 -8 4 123.49 19.6
8 -8 4 99.99 14.2
-9 8 -4 722.73 60.89
9 -8 4 791.22 68.09
9 -8 4 804.82 64.19
8 7 -4 987.1 85.29
8 7 -4 880.81 81.39
-8 -7 4 838.02 76.09
-8 -7 4 899.41 77.39
7 7 -4 765.12 69.89
7 7 -4 672.73 65.89
7 7 -4 735.83 60.39
-7 -7 4 710.63 62.59
-7 -7 4 772.62 63.69
6 7 -4 76.79 15.9
6 7 -4 79.99 12.2
6 7 -4 111.99 21.3
-6 -7 4 98.49 14.4
-6 -7 4 120.49 16.9
5 7 -4 2902.01 229.88
5 7 -4 3067.69 234.08
-5 -7 4 3274.97 233.38
-5 -7 4 2765.02 231.68
-5 -7 4 2836.32 239.98
4 7 -4 1057.19 116.89
4 7 -4 1213.38 89.59
4 7 -4 955.5 84.49
4 7 -4 1035.4 85.59
-4 -7 4 1074.99 111.89
-4 -7 4 1128.19 96.39
-4 -7 4 1184.68 87.99
3 7 -4 1047.5 82.69
3 7 -4 898.31 81.79
-3 -7 4 1069.99 118.59
-3 -7 4 1075.39 93.19
-3 -7 4 1219.98 84.99
2 7 -4 2540.25 223.68
2 7 -4 2610.84 222.38
2 7 -4 2940.51 222.98
2 7 -4 2952.1 223.78
2 7 -4 3372.96 225.18
-2 -7 4 2907.11 257.47
-2 -7 4 2928.11 232.98
1 7 -4 236.38 20.1
1 7 -4 245.98 21.6
1 7 -4 238.58 23.1
1 7 -4 321.47 42.7
1 7 -4 221.38 20.3
1 7 -4 260.37 20.1
-1 -7 4 202.28 29.7
-1 -7 4 185.38 68.79
0 7 -4 1180.98 89.19
0 7 -4 1171.18 89.89
0 7 -4 1081.09 90.49
0 7 -4 1145.19 91.39
0 -7 4 1198.58 98.89
-1 7 -4 2473.75 187.28
-1 7 -4 2308.67 170.18
-1 7 -4 2212.98 171.68
-1 7 -4 2235.18 172.08
1 -7 4 1871.21 191.18
1 -7 4 2049.59 172.68
1 -7 4 2257.97 177.68
-2 7 -4 26.3 12.4
-2 7 -4 5.6 14.5
-2 7 -4 15.6 4.7
-2 7 -4 10.2 2.6
2 -7 4 5.9 4.3
2 -7 4 18.9 3.9
2 -7 4 28.6 24
2 -7 4 4.2 7.2
-3 7 -4 1436.76 128.29
-3 7 -4 1417.46 109.29
-3 7 -4 1441.36 108.59
-3 7 -4 1293.27 110.79
3 -7 4 1403.06 110.39
3 -7 4 1419.86 128.19
-4 7 -4 1666.73 122.49
-4 7 -4 1543.25 125.89
-4 7 -4 1567.54 145.39
4 -7 4 1596.54 124.69
4 -7 4 1614.34 142.79
4 -7 4 1535.15 122.99
-5 7 -4 220.48 17.6
-5 7 -4 205.68 21.9
-5 7 -4 244.68 50.89
5 -7 4 236.08 53.39
5 -7 4 210.78 18.1
5 -7 4 229.98 20
5 -7 4 175.68 21.9
-6 7 -4 1499.25 132.59
-6 7 -4 1716.03 129.09
6 -7 4 1713.13 133.29
6 -7 4 1690.03 128.99
6 -7 4 1800.62 130.89
6 -7 4 1519.65 153.28
-7 7 -4 80.69 12.7
7 -7 4 85.69 14.5
7 -7 4 77.09 11.4
7 -7 4 81.49 8.9
7 -7 4 73.49 31.9
-8 7 -4 782.82 64.79
8 -7 4 803.52 65.99
8 -7 4 867.41 68.99
8 -7 4 783.32 63.69
-10 7 -4 3.2 20.2
10 -7 4 1.1 7.6
10 -7 4 -0.8 10.6
9 6 -4 452.35 50.79
9 6 -4 360.36 45.4
-9 -6 4 362.56 40.1
-9 -6 4 419.66 42.3
8 6 -4 1044.9 96.39
8 6 -4 1314.07 104.59
8 6 -4 1234.58 101.59
-8 -6 4 1263.77 101.09
-8 -6 4 1138.89 97.19
7 6 -4 24.9 12.6
7 6 -4 2.2 5.2
-7 -6 4 16.3 8.6
-7 -6 4 9.6 7.6
6 6 -4 1119.89 97.39
6 6 -4 1056.49 95.39
6 6 -4 1119.29 91.59
-6 -6 4 1299.07 95.49
-6 -6 4 1142.29 92.99
-6 -6 4 1213.68 91.69
5 6 -4 1592.64 144.69
5 6 -4 1783.62 141.59
5 6 -4 1739.43 146.89
-5 -6 4 2077.69 145.19
-5 -6 4 1675.33 160.78
-5 -6 4 1856.91 149.59
-5 -6 4 1973.7 141.79
-5 -6 4 1829.02 143.19
4 6 -4 31.5 5.1
4 6 -4 52.99 31.8
4 6 -4 34 8
4 6 -4 34.2 8.1
-4 -6 4 91.29 31.9
3 6 -4 1963.4 140.79
3 6 -4 1715.13 137.99
3 6 -4 1701.33 139.19
3 6 -4 1651.53 137.79
3 6 -4 1568.24 138.19
-3 -6 4 1946.81 159.28
-3 -6 4 1905.01 145.99
-3 -6 4 1863.21 139.29
2 6 -4 1383.66 118.99
2 6 -4 1356.06 118.49
2 6 -4 1703.63 120.49
2 6 -4 1439.16 118.29
2 6 -4 1404.46 120.39
-2 -6 4 1611.04 140.89
-2 -6 4 1722.73 119.69
-2 -6 4 1656.63 126.69
1 6 -4 25 7.3
1 6 -4 19.2 4.6
1 6 -4 17.5 3.7
1 6 -4 28.7 12.9
-1 -6 4 36 11.5
-1 -6 4 56.29 35.7
-1 -6 4 29.4 5.4
0 6 -4 1523.85 122.19
0 6 -4 1725.73 120.89
0 6 -4 1645.34 131.59
0 6 -4 1556.44 122.39
0 6 -4 1404.26 121.99
0 6 -4 1485.85 121.09
0 -6 4 1644.04 129.09
-1 6 -4 691.63 64.39
-1 6 -4 671.73 52.59
-1 6 -4 579.74 52.09
-1 6 -4 677.93 54.09
-1 6 -4 654.53 54.29
-1 6 -4 761.02 51.89
1 -6 4 674.13 68.99
1 -6 4 664.23 59.09
1 -6 4 663.93 54.89
-2 6 -4 431.86 32.5
-2 6 -4 365.26 43.9
-2 6 -4 372.36 32.4
-2 6 -4 354.56 33.2
-2 6 -4 409.06 29.9
2 -6 4 367.36 32.3
2 -6 4 397.86 45.3
2 -6 4 365.26 30.7
-3 6 -4 2264.27 183.48
-3 6 -4 2063.29 165.68
-3 6 -4 2058.69 168.18
-3 6 -4 2062.59 169.38
-3 6 -4 2284.77 165.88
3 -6 4 2214.08 167.78
3 -6 4 2091.69 166.28
3 -6 4 2232.58 181.38
-4 6 -4 37.6 8.1
-4 6 -4 47.3 5.4
-4 6 -4 42.6 10
-4 6 -4 60.59 23
4 -6 4 39.5 9.5
4 -6 4 44 6.9
4 -6 4 36.7 5.3
4 -6 4 39.2 5.1
4 -6 4 46.6 18.1
-5 6 -4 1415.16 110.29
-5 6 -4 1454.05 113.19
5 -6 4 1461.35 109.99
5 -6 4 1335.07 112.99
5 -6 4 1423.76 130.29
5 -6 4 1420.96 111.39
-6 6 -4 1026.7 82.19
-6 6 -4 1083.19 85.29
6 -6 4 1178.48 124.99
6 -6 4 1024.3 81.39
6 -6 4 983 84.49
6 -6 4 1013.8 107.49
6 -6 4 1060.99 82.99
-7 6 -4 92.19 15
-7 6 -4 98.69 11.2
7 -6 4 95.09 9.8
7 -6 4 66.79 43.1
7 -6 4 100.29 42
7 -6 4 106.69 12.1
7 -6 4 87.49 13.9
-8 6 -4 1136.19 92.69
8 -6 4 1093.39 124.89
8 -6 4 1138.19 92.89
8 -6 4 1243.28 91.09
8 -6 4 1180.58 95.09
-9 6 -4 431.26 37.7
9 -6 4 448.46 35.1
9 -6 4 402.56 37.5
9 -6 4 426.66 39.9
-10 6 -4 261.37 29.4
10 -6 4 308.77 29.3
10 -6 4 318.67 32.6
10 5 -4 190.08 32.4
10 5 -4 181.28 30.8
-10 -5 4 172.58 23.9
-10 -5 4 134.99 27.7
9 5 -4 1911.51 153.78
9 5 -4 1875.41 151.08
-9 -5 4 1835.42 150.88
-9 -5 4 1814.92 147.69
8 5 -4 333.57 31.7
8 5 -4 350.46 36.7
-8 -5 4 410.56 34.3
-8 -5 4 382.26 37.2
7 5 -4 599.34 48.5
7 5 -4 463.05 43.9
7 5 -4 562.54 49.99
-7 -5 4 494.65 44.9
-7 -5 4 563.04 48.2
-7 -5 4 541.75 45.6
6 5 -4 1839.02 142.89
6 5 -4 1584.54 137.79
6 5 -4 1612.64 154.58
6 5 -4 1691.73 141.09
-6 -5 4 2015.7 141.79
-6 -5 4 1862.51 139.19
5 5 -4 202.08 49.7
5 5 -4 265.47 20.9
5 5 -4 185.98 22.8
5 5 -4 216.18 24.6
5 5 -4 221.08 20
-5 -5 4 246.58 21.7
-5 -5 4 243.78 23.3
-5 -5 4 237.38 21.4
4 5 -4 1073.29 88.19
4 5 -4 1254.97 88.79
4 5 -4 921.51 105.39
4 5 -4 1072.79 87.99
4 5 -4 1028.4 90.19
-4 -5 4 1129.29 103.39
-4 -5 4 1285.27 89.59
-4 -5 4 1166.28 89.39
-4 -5 4 1193.28 93.89
3 5 -4 1668.33 151.38
3 5 -4 1945.11 151.78
3 5 -4 1750.22 149.19
3 5 -4 1856.21 149.88
-3 -5 4 1905.61 150.18
-3 -5 4 2147.79 150.38
-3 -5 4 2232.08 151.88
-3 -5 4 2053.39 154.98
-3 -5 4 1843.72 158.98
2 5 -4 67.69 7.7
2 5 -4 84.49 8.8
2 5 -4 63.49 12.7
2 5 -4 108.69 22.8
2 5 -4 82.59 8.5
-2 -5 4 83.59 9.4
-2 -5 4 104.39 13.9
-2 -5 4 101.09 19.6
1 5 -4 1704.13 137.49
1 5 -4 1563.64 136.99
1 5 -4 1900.51 142.69
1 5 -4 1758.72 137.79
1 5 -4 1942.41 137.19
0 5 -4 1498.35 104.59
0 5 -4 1304.77 104.59
0 5 -4 1264.87 105.79
0 5 -4 1323.27 105.49
0 5 -4 1309.97 105.79
0 5 -4 1402.46 111.29
0 -5 4 1559.04 104.89
0 -5 4 1368.16 111.09
0 -5 4 1184.38 107.59
0 -5 4 1232.28 117.29
0 -5 4 1399.06 104.79
-1 5 -4 257.07 33.7
-1 5 -4 271.57 21.9
-1 5 -4 271.27 24.3
-1 5 -4 276.67 24.3
1 -5 4 277.47 22.3
1 -5 4 279.87 29.1
1 -5 4 278.87 35.1
1 -5 4 284.97 24.2
-2 5 -4 1373.16 115.19
-2 5 -4 1405.56 103.19
-2 5 -4 1248.98 105.79
-2 5 -4 1400.56 103.69
-2 5 -4 1309.27 104.69
2 -5 4 1343.57 103.29
2 -5 4 1313.57 104.59
2 -5 4 1280.27 113.49
-3 5 -4 234.58 20
-3 5 -4 257.47 22.2
-3 5 -4 220.78 18.3
3 -5 4 223.38 18.1
3 -5 4 209.48 19.2
3 -5 4 209.18 29.8
3 -5 4 196.08 18
3 -5 4 202.18 22.3
-4 5 -4 1421.66 114.79
-4 5 -4 1335.47 113.19
-4 5 -4 1478.85 117.49
4 -5 4 1522.15 113.99
4 -5 4 1425.96 115.29
4 -5 4 1458.05 112.79
4 -5 4 1651.53 140.09
4 -5 4 1429.96 127.19
-5 5 -4 1514.25 120.49
-5 5 -4 1440.46 125.09
-5 5 -4 1693.83 122.49
5 -5 4 1639.34 119.59
5 -5 4 1560.14 120.79
5 -5 4 1374.66 135.19
5 -5 4 1703.03 150.78
5 -5 4 1443.06 121.79
-6 5 -4 8 7.3
-6 5 -4 23.8 6.1
6 -5 4 24.3 32.4
6 -5 4 5.3 24.2
6 -5 4 17.5 3.3
6 -5 4 22.9 5.2
-7 5 -4 880.41 77.09
-7 5 -4 1060.79 79.99
7 -5 4 962.5 78.39
7 -5 4 885.71 104.79
7 -5 4 940.61 76.99
7 -5 4 949.21 75.39
7 -5 4 1155.88 124.19
-8 5 -4 976.7 82.49
-8 5 -4 1045 85.49
8 -5 4 1068.59 80.19
8 -5 4 952.7 117.19
8 -5 4 1003.5 82.09
8 -5 4 1058.99 83.69
-9 5 -4 22.7 7
-9 5 -4 11.1 13.2
-9 5 -4 16.6 9.1
9 -5 4 31.5 78.89
9 -5 4 1.3 3.1
9 -5 4 -3.7 6.7
9 -5 4 8.5 5.4
-10 5 -4 612.04 55.49
10 -5 4 604.14 53.99
10 -5 4 694.03 56.49
10 4 -4 988.2 83.29
10 4 -4 1008.7 88.39
-10 -4 4 957.6 83.49
-10 -4 4 928.91 80.59
-10 -4 4 1006.6 85.99
9 4 -4 1591.64 123.89
9 4 -4 1353.26 124.59
-9 -4 4 1398.96 118.19
-9 -4 4 1529.35 122.19
-9 -4 4 1548.55 120.59
-8 -4 4 6.2 5.1
-8 -4 4 4.7 6.9
-8 -4 4 16 8.2
7 4 -4 1455.85 138.79
7 4 -4 1447.06 120.39
7 4 -4 1558.94 122.59
7 4 -4 1281.57 118.79
-7 -4 4 1525.55 118.99
-7 -4 4 1609.94 121.99
-7 -4 4 1683.63 121.59
6 4 -4 2245.18 196.28
6 4 -4 2292.67 185.28
6 4 -4 2215.48 183.88
-6 -4 4 2382.26 182.58
-6 -4 4 2461.95 184.68
-6 -4 4 2474.95 184.98
5 4 -4 13.1 3.8
5 4 -4 19.1 5.7
5 4 -4 22.1 5.3
5 4 -4 27.4 20.1
5 4 -4 24.5 14.2
5 4 -4 17.5 3.4
5 4 -4 23.9 7.2
-5 -4 4 19.6 6
-5 -4 4 26.7 7.3
-5 -4 4 16.9 4.3
4 4 -4 2762.42 213.98
4 4 -4 2542.05 207.58
4 4 -4 2271.67 202.18
4 4 -4 2405.46 200.28
4 4 -4 2511.85 203.18
4 4 -4 2316.17 199.98
-4 -4 4 2874.61 202.98
-4 -4 4 2965.2 202.88
-4 -4 4 2607.24 201.08
-4 -4 4 2767.92 204.48
3 4 -4 920.51 81.19
3 4 -4 899.21 84.59
3 4 -4 889.11 80.99
3 4 -4 1196.78 82.09
-3 -4 4 1213.48 83.59
-3 -4 4 1054.99 81.89
-3 -4 4 1161.08 85.29
2 4 -4 1392.16 109.39
2 4 -4 1460.55 109.99
2 4 -4 1233.48 108.39
2 4 -4 1325.27 108.89
-2 -4 4 1406.36 108.99
-2 -4 4 1614.44 110.49
-2 -4 4 1412.56 109.89
1 4 -4 3963.7 282.47
1 4 -4 3569.24 283.57
1 4 -4 3318.17 282.67
1 4 -4 3507.95 282.67
-1 -4 4 3651.53 290.47
-1 -4 4 4157.68 283.77
-1 -4 4 3700.23 282.47
-1 -4 4 3540.35 282.27
0 4 -4 17.5 4.4
0 4 -4 16.5 3
0 4 -4 4.6 4.6
0 4 -4 11.1 3.7
0 4 -4 15.2 2.7
0 4 -4 12.3 6.1
0 4 -4 9.8 2.7
0 -4 4 8.1 2.1
0 -4 4 14.5 8
0 -4 4 18 7.1
0 -4 4 6 3.6
-1 4 -4 3203.68 218.98
-1 4 -4 2624.74 219.98
-1 4 -4 2730.93 221.18
-1 4 -4 2490.45 219.08
1 -4 4 3159.68 220.58
1 -4 4 2778.12 219.08
1 -4 4 2930.31 225.98
1 -4 4 2893.01 218.68
-2 4 -4 2061.09 159.38
-2 4 -4 1947.41 158.48
2 -4 4 2216.38 170.18
2 -4 4 2080.09 156.48
2 -4 4 1721.73 159.08
2 -4 4 2210.88 157.58
2 -4 4 2155.48 155.58
2 -4 4 1913.41 164.28
2 -4 4 1981 156.58
-3 4 -4 232.58 22.8
-3 4 -4 234.58 20.5
-3 4 -4 207.78 19.9
3 -4 4 253.07 20.1
3 -4 4 230.58 19
3 -4 4 240.78 29.7
3 -4 4 234.68 21.6
-4 4 -4 3147.19 248.18
-4 4 -4 3353.66 245.28
-4 4 -4 2983.3 244.48
4 -4 4 3109.89 245.08
4 -4 4 3259.57 244.38
4 -4 4 2835.92 255.57
4 -4 4 3496.45 267.17
4 -4 4 3153.58 243.28
-5 4 -4 955 69.99
-5 4 -4 801.72 70.29
-5 4 -4 848.82 73.39
5 -4 4 864.41 68.69
5 -4 4 843.32 84.59
5 -4 4 868.01 67.49
5 -4 4 923.41 96.69
5 -4 4 830.92 69.19
-6 4 -4 578.14 44.4
-6 4 -4 496.35 43.2
6 -4 4 525.15 43.3
6 -4 4 500.05 41.1
6 -4 4 511.85 76.69
6 -4 4 475.05 64.29
6 -4 4 510.45 42.5
-7 4 -4 2261.07 182.68
-7 4 -4 2423.86 183.78
7 -4 4 2120.79 207.38
7 -4 4 2314.47 178.88
7 -4 4 2596.04 222.78
7 -4 4 2350.56 179.98
7 -4 4 2314.17 181.58
7 -4 4 2310.67 182.38
-8 4 -4 453.45 38.9
-8 4 -4 450.15 40.4
8 -4 4 417.96 37.2
8 -4 4 421.36 38.3
8 -4 4 426.26 94.19
8 -4 4 434.86 35.2
-9 4 -4 455.95 43.3
9 -4 4 500.05 43
9 -4 4 498.35 39.1
9 -4 4 465.95 41.5
-10 4 -4 867.11 84.09
10 -4 4 996.3 88.49
10 -4 4 909.71 77.59
10 -4 4 1018.5 77.49
10 3 -4 1058.69 93.59
10 3 -4 1159.28 97.79
-10 -3 4 1194.18 96.49
-10 -3 4 1185.68 97.19
-10 -3 4 1131.49 92.39
9 3 -4 646.94 58.19
-9 -3 4 679.23 57.39
-9 -3 4 759.52 61.69
8 3 -4 73.29 11.6
8 3 -4 74.59 14.6
-8 -3 4 78.79 14.5
-8 -3 4 66.39 9.9
-8 -3 4 59.09 13.3
7 3 -4 2103.29 169.58
7 3 -4 2319.17 174.38
7 3 -4 1979.3 171.78
7 3 -4 2098.19 189.08
-7 -3 4 2202.78 173.78
-7 -3 4 2463.65 175.58
-7 -3 4 2233.68 171.38
6 3 -4 735.23 67.19
6 3 -4 879.51 70.89
6 3 -4 873.51 82.79
6 3 -4 901.11 66.89
6 3 -4 759.42 68.79
6 3 -4 847.22 66.39
-6 -3 4 971.8 71.09
-6 -3 4 867.91 68.39
-6 -3 4 934.01 72.19
5 3 -4 859.21 75.39
5 3 -4 755.12 62.29
5 3 -4 686.23 60.79
5 3 -4 735.43 58.99
5 3 -4 757.22 69.99
-5 -3 4 765.72 60.29
-5 -3 4 746.73 61.89
-5 -3 4 811.62 64.19
4 3 -4 2875.11 231.28
4 3 -4 3281.37 239.48
4 3 -4 2615.24 228.88
4 3 -4 2920.91 235.28
4 3 -4 2850.31 228.68
-4 -3 4 2985.8 229.58
-4 -3 4 3128.49 231.08
-4 -3 4 3239.38 232.88
-4 -3 4 2935.11 228.88
3 3 -4 128.09 9.8
3 3 -4 101.19 9.5
3 3 -4 101.29 13.5
3 3 -4 109.89 16.7
3 3 -4 124.69 19.8
-3 -3 4 113.89 10
-3 -3 4 116.09 13.3
2 3 -4 3027.6 238.08
2 3 -4 2789.32 238.88
2 3 -4 3390.46 239.08
-2 -3 4 2883.41 238.08
-2 -3 4 3301.87 240.48
-2 -3 4 2851.31 238.28
-2 -3 4 3128.09 239.48
-2 -3 4 3491.85 240.98
-2 -3 4 3048.29 238.48
1 3 -4 1937.21 144.39
1 3 -4 1899.41 144.39
1 3 -4 2020.7 145.29
-1 -3 4 1723.93 144.29
-1 -3 4 1700.83 144.19
-1 -3 4 2120.59 146.69
-1 -3 4 1839.52 145.49
-1 -3 4 2060.49 146.69
-1 -3 4 1801.52 144.79
-1 -3 4 1644.74 146.69
0 3 -4 605.94 43.9
0 3 -4 560.74 42.6
0 3 -4 522.75 44.4
0 3 -4 524.65 44.8
0 -3 4 512.35 42.5
0 -3 4 607.44 44.4
0 -3 4 503.05 47.3
0 -3 4 519.55 45.7
0 -3 4 555.24 43.6
0 -3 4 522.65 42.7
0 -3 4 586.04 45.8
-1 3 -4 4041 332.97
-1 3 -4 4364.06 334.77
1 -3 4 4148.69 332.17
1 -3 4 4200.88 332.67
1 -3 4 4711.23 333.07
1 -3 4 4615.04 333.27
1 -3 4 4495.25 341.47
1 -3 4 4060.89 337.27
-2 3 -4 1569.74 109.29
-2 3 -4 1471.65 108.99
-2 3 -4 1441.66 111.19
2 -3 4 1424.66 110.09
2 -3 4 1226.58 118.69
2 -3 4 1267.67 108.39
2 -3 4 1387.56 107.89
2 -3 4 1477.95 108.69
2 -3 4 1273.67 115.19
-3 3 -4 1865.41 132.89
-3 3 -4 1708.03 137.49
-3 3 -4 1751.92 132.39
-3 3 -4 1423.06 132.79
3 -3 4 1588.94 141.59
3 -3 4 1823.62 132.89
3 -3 4 1712.23 131.59
3 -3 4 1756.92 150.78
-4 3 -4 4233.28 353.56
-4 3 -4 4769.42 353.26
-4 3 -4 4715.73 357.06
4 -3 4 4379.66 352.46
4 -3 4 4445.86 365.56
4 -3 4 4480.55 352.76
4 -3 4 5068.99 375.36
4 -3 4 4601.64 351.76
-5 3 -4 362.76 33.6
-5 3 -4 423.06 33.3
-5 3 -4 381.46 37.2
5 -3 4 410.16 30.4
5 -3 4 470.75 62.19
5 -3 4 383.06 30.1
5 -3 4 378.06 32.8
5 -3 4 407.36 31.3
5 -3 4 379.96 32.3
5 -3 4 320.87 47.4
-6 3 -4 2014.7 164.58
-6 3 -4 1858.11 168.78
-6 3 -4 2425.46 164.58
6 -3 4 2055.39 162.98
6 -3 4 1835.12 181.58
6 -3 4 2286.87 196.78
6 -3 4 2051.79 160.68
6 -3 4 2077.19 161.68
6 -3 4 2320.47 161.18
6 -3 4 2007 163.18
-7 3 -4 2357.36 201.28
7 -3 4 2698.63 198.18
7 -3 4 2511.35 199.58
7 -3 4 2575.74 197.08
7 -3 4 2861.91 242.08
7 -3 4 2358.96 223.78
7 -3 4 2648.03 200.18
-8 3 -4 13.7 7.2
-8 3 -4 15.7 10.6
8 -3 4 5.7 5.1
8 -3 4 10.3 3.6
8 -3 4 4.3 4.3
8 -3 4 107.39 64.49
8 -3 4 5.1 2.9
8 -3 4 -9.7 31.7
-9 3 -4 1221.28 104.39
-9 3 -4 1206.78 104.89
9 -3 4 1359.36 103.49
9 -3 4 1320.47 99.99
9 -3 4 1276.07 102.59
-10 3 -4 532.95 51.89
10 -3 4 544.85 45.1
10 -3 4 539.25 47.9
10 -3 4 575.84 49.5
11 2 -4 410.66 37.5
11 2 -4 374.06 37.3
11 2 -4 405.06 42.5
-11 -2 4 397.86 41.8
-11 -2 4 379.76 43
10 2 -4 887.61 79.49
10 2 -4 994.1 79.29
10 2 -4 984 83.79
-10 -2 4 996.9 84.49
-10 -2 4 1031.4 83.59
9 2 -4 75.69 11.7
9 2 -4 89.59 15.7
-9 -2 4 72.29 17.1
-9 -2 4 70.29 14.9
-9 -2 4 79.69 11.4
8 2 -4 655.83 52.59
8 2 -4 561.34 49.2
-8 -2 4 576.64 51.69
-8 -2 4 604.84 49
-8 -2 4 602.54 53.99
7 2 -4 1306.17 106.79
7 2 -4 1260.07 121.99
7 2 -4 1357.06 102.39
7 2 -4 1325.17 103.09
-7 -2 4 1497.25 102.39
-7 -2 4 1273.07 104.29
-7 -2 4 1276.37 106.49
-7 -2 4 1313.97 109.19
6 2 -4 31.2 16.8
6 2 -4 16.7 17.8
6 2 -4 14 5.5
6 2 -4 26.3 4.9
6 2 -4 34.1 7.5
6 2 -4 19.9 3.3
6 2 -4 16.2 3.1
-6 -2 4 19.7 3.1
-6 -2 4 22.4 5.9
-6 -2 4 29.4 8.5
-6 -2 4 14.2 4
5 2 -4 1838.82 146.99
5 2 -4 1688.63 135.99
5 2 -4 1597.14 142.79
5 2 -4 1883.71 135.99
-5 -2 4 1795.02 133.59
-5 -2 4 1626.24 135.69
-5 -2 4 1697.73 134.39
4 2 -4 710.23 71.29
4 2 -4 846.52 65.09
4 2 -4 767.02 66.19
-4 -2 4 802.52 65.59
-4 -2 4 863.51 70.39
-4 -2 4 935.61 66.19
-4 -2 4 974.4 68.79
3 2 -4 891.31 74.19
3 2 -4 794.92 72.49
3 2 -4 1086.09 72.69
3 2 -4 933.51 77.19
3 2 -4 987.1 77.59
3 2 -4 873.01 74.99
-3 -2 4 989.7 73.19
-3 -2 4 944.81 74.29
-3 -2 4 952.5 77.09
-3 -2 4 955.2 73.29
2 2 -4 3567.14 249.08
2 2 -4 3294.57 247.68
2 2 -4 3735.63 247.48
2 2 -4 2945.11 248.38
2 2 -4 2991.8 248.28
-2 -2 4 3194.58 247.88
-2 -2 4 3174.28 247.28
-2 -2 4 2847.92 248.48
-2 -2 4 3423.06 251.17
-2 -2 4 2986.1 247.48
-2 -2 4 3294.27 248.78
1 2 -4 11.3 2.2
1 2 -4 26.6 5.9
1 2 -4 21 2.8
1 2 -4 21.7 3.6
1 2 -4 13.3 3
1 2 -4 16.4 6.1
1 2 -4 20.9 3.8
1 2 -4 16.3 2.6
-1 -2 4 14 3
-1 -2 4 23.4 4.2
-1 -2 4 15 2.4
-1 -2 4 16.4 2.5
0 2 -4 2689.83 186.08
0 2 -4 2114.29 185.18
0 2 -4 2005.3 182.58
0 2 -4 2255.67 187.68
0 2 -4 2553.64 183.38
0 2 -4 2550.44 182.98
0 2 -4 2165.38 182.58
0 2 -4 2419.76 184.78
0 2 -4 2626.94 183.98
0 -2 4 2548.15 183.98
0 -2 4 2282.77 183.58
0 -2 4 2162.08 182.88
0 -2 4 2550.24 183.78
0 -2 4 2407.56 190.58
-1 2 -4 4900.71 373.46
-1 2 -4 5093.39 370.86
-1 2 -4 4769.52 379.16
-1 2 -4 5257.37 371.16
1 -2 4 4906.11 380.96
1 -2 4 4275.57 371.06
1 -2 4 4440.86 370.36
1 -2 4 4906.41 370.86
1 -2 4 4914.31 371.26
-2 2 -4 36.8 7.8
2 -2 4 27.1 3.7
2 -2 4 30.7 4.8
-3 2 -4 3797.12 283.17
-3 2 -4 3351.26 282.27
3 -2 4 3988 301.27
3 -2 4 3679.83 282.17
3 -2 4 3668.23 282.77
3 -2 4 3594.24 282.57
-4 2 -4 2488.95 198.18
-4 2 -4 2930.41 205.18
-4 2 -4 2370.36 199.28
-4 2 -4 2887.61 200.48
4 -2 4 2469.55 199.58
4 -2 4 2493.25 199.68
4 -2 4 2583.24 198.98
4 -2 4 2752.22 222.38
4 -2 4 2452.45 213.58
4 -2 4 2459.35 198.28
-5 2 -4 227.38 23.7
-5 2 -4 289.57 28.2
-5 2 -4 260.37 22.5
-5 2 -4 239.08 20
5 -2 4 248.28 21.8
5 -2 4 232.18 43.5
5 -2 4 265.47 53.59
5 -2 4 255.77 20.9
5 -2 4 264.47 20.7
5 -2 4 247.88 22.1
-6 2 -4 2877.41 239.28
-6 2 -4 3029.1 243.68
-6 2 -4 3447.05 237.98
-6 2 -4 2835.42 234.78
6 -2 4 3073.49 235.68
6 -2 4 2822.22 257.37
6 -2 4 3458.25 235.58
6 -2 4 3046.7 236.98
6 -2 4 3104.29 267.87
6 -2 4 2860.51 236.68
-7 2 -4 600.34 54.09
-7 2 -4 720.13 52.89
7 -2 4 600.54 49.6
7 -2 4 562.44 50.89
7 -2 4 601.04 51.39
7 -2 4 812.62 117.59
7 -2 4 649.93 101.09
-8 2 -4 361.26 36.5
-8 2 -4 427.66 35
8 -2 4 356.96 32.7
8 -2 4 364.86 79.79
8 -2 4 389.76 30.8
8 -2 4 322.97 31.9
8 -2 4 381.06 33.4
8 -2 4 357.06 77.39
-9 2 -4 845.42 80.19
-9 2 -4 822.72 75.59
9 -2 4 837.32 71.29
9 -2 4 937.21 72.59
9 -2 4 903.81 69.09
-10 2 -4 14.7 19.6
-10 2 -4 14.3 13.4
10 -2 4 22.7 5.9
10 -2 4 40.1 10.8
10 -2 4 25.7 8.2
11 1 -4 852.71 78.09
11 1 -4 869.71 72.59
11 1 -4 835.52 72.89
-11 -1 4 986.3 78.49
-11 -1 4 901.01 80.59
10 1 -4 312.47 30
10 1 -4 330.07 33.3
10 1 -4 336.97 34.1
-10 -1 4 359.96 34.3
-10 -1 4 327.37 36.8
9 1 -4 253.57 22.5
9 1 -4 285.57 23.1
-9 -1 4 205.68 24.8
-9 -1 4 219.38 28.8
8 1 -4 1503.95 109.09
8 1 -4 1282.47 108.59
8 1 -4 1327.97 131.19
8 1 -4 1487.55 138.09
8 1 -4 1428.76 111.49
-8 -1 4 1346.37 110.89
-8 -1 4 1337.57 114.79
7 1 -4 26.8 5.5
7 1 -4 23.5 19.5
-7 -1 4 23.2 9.2
-7 -1 4 27.4 4.1
6 1 -4 1943.91 157.48
6 1 -4 1574.24 142.89
6 1 -4 1980.1 143.49
6 1 -4 2135.39 162.18
6 1 -4 1767.92 144.79
-6 -1 4 1689.43 148.39
-6 -1 4 1905.51 143.19
-6 -1 4 1840.82 144.79
5 1 -4 1724.53 132.69
5 1 -4 1862.81 146.19
5 1 -4 1628.74 142.49
5 1 -4 1728.83 133.99
5 1 -4 1759.42 134.79
-5 -1 4 1896.91 132.39
-5 -1 4 1507.05 137.29
-5 -1 4 1732.13 132.59
-5 -1 4 1564.44 133.69
4 1 -4 799.52 69.69
4 1 -4 681.23 60.29
4 1 -4 783.82 62.39
-4 -1 4 891.81 67.49
3 1 -4 3723.63 283.07
3 1 -4 3474.55 283.67
3 1 -4 3971.6 291.67
3 1 -4 4152.48 282.47
3 1 -4 4033.7 284.37
-3 -1 4 3734.53 282.37
-3 -1 4 3573.54 287.07
-3 -1 4 3191.28 283.77
-3 -1 4 3908.81 283.37
-3 -1 4 3070.49 286.87
2 1 -4 205.78 18.8
2 1 -4 214.98 19.2
2 1 -4 221.28 18.9
2 1 -4 195.88 19.6
2 1 -4 215.48 24.7
2 1 -4 256.67 19.9
2 1 -4 277.47 18.6
-2 -1 4 255.37 19.5
-2 -1 4 273.17 23.3
-2 -1 4 250.37 18.5
-2 -1 4 206.88 19.9
1 1 -4 3186.08 246.38
1 1 -4 2728.13 242.28
1 1 -4 3295.07 250.57
1 1 -4 3587.24 242.48
1 1 -4 3415.76 242.28
1 1 -4 3151.08 242.28
1 1 -4 3347.17 242.98
1 1 -4 3246.08 243.78
1 1 -4 2764.12 242.18
-1 -1 4 3170.48 242.98
-1 -1 4 2994.3 245.78
-1 -1 4 3019.8 260.07
-1 -1 4 3118.09 242.18
0 1 -4 4567.74 356.96
0 1 -4 4993.3 356.96
0 1 -4 5247.58 357.96
0 1 -4 5163.38 359.96
0 1 -4 4694.83 365.66
0 1 -4 4402.76 358.56
0 1 -4 4195.88 356.66
0 -1 4 4479.05 359.86
0 -1 4 4525.95 357.66
0 -1 4 4443.66 358.16
0 -1 4 4970.8 371.66
0 -1 4 4471.15 356.86
0 -1 4 4196.38 356.66
0 -1 4 4831.22 357.16
-1 1 -4 1099.29 79.19
-1 1 -4 1082.29 75.99
-1 1 -4 972 74.49
-1 1 -4 1002.7 78.59
-1 1 -4 1015 75.09
-1 1 -4 1074.49 75.39
-1 1 -4 885.91 85.99
-1 1 -4 806.82 76.79
-1 1 -4 928.81 75.09
1 -1 4 905.31 74.49
1 -1 4 870.51 75.09
1 -1 4 899.21 74.89
1 -1 4 1029.2 75.09
1 -1 4 979.9 75.79
-2 1 -4 2057.09 169.38
-2 1 -4 1953.4 168.98
-2 1 -4 2584.64 186.78
2 -1 4 2271.17 169.48
2 -1 4 2138.49 169.78
2 -1 4 2354.96 169.38
2 -1 4 2327.37 170.38
2 -1 4 1994.8 168.88
-3 1 -4 3143.79 283.07
-3 1 -4 3901.51 283.07
-3 1 -4 3839.32 302.77
3 -1 4 3865.51 284.37
3 -1 4 3552.84 283.87
3 -1 4 3777.92 283.47
3 -1 4 4001.5 304.67
3 -1 4 3701.33 282.97
3 -1 4 3475.95 283.37
-4 1 -4 27.7 4.6
-4 1 -4 12.9 16.4
-4 1 -4 17.7 5.7
-4 1 -4 19.6 6.9
-4 1 -4 31.3 3.8
4 -1 4 25.4 17.4
4 -1 4 22.9 4.7
4 -1 4 30.7 5.8
4 -1 4 36.4 5.2
4 -1 4 22.8 4.7
4 -1 4 29.4 4.2
-5 1 -4 1270.17 98.09
-5 1 -4 1168.98 102.19
-5 1 -4 1245.48 99.69
-5 1 -4 1412.26 105.89
5 -1 4 1155.38 99.29
5 -1 4 1306.67 98.69
5 -1 4 1313.57 128.09
5 -1 4 1301.57 99.39
-6 1 -4 768.42 64.69
-6 1 -4 844.92 68.69
-6 1 -4 884.01 63.39
-6 1 -4 707.13 59.39
6 -1 4 773.82 59.99
6 -1 4 648.44 85.29
6 -1 4 672.03 60.89
6 -1 4 762.02 61.09
6 -1 4 740.23 98.29
-7 1 -4 127.29 18.5
-7 1 -4 116.89 12.8
7 -1 4 127.69 12.4
7 -1 4 130.69 14.3
7 -1 4 128.49 48.3
7 -1 4 145.99 14.5
-8 1 -4 465.75 47.7
-8 1 -4 468.05 40.4
8 -1 4 517.85 41
8 -1 4 491.85 43
8 -1 4 635.94 119.39
8 -1 4 537.35 43.7
8 -1 4 763.72 152.38
-9 1 -4 168.78 34.1
9 -1 4 235.38 21.4
9 -1 4 227.48 24.5
9 -1 4 293.57 26
-10 1 -4 82.89 22
10 -1 4 92.89 19.2
10 -1 4 115.79 13.7
10 -1 4 114.19 20.4
11 0 -4 1165.38 91.79
11 0 -4 972 88.39
11 0 -4 1092.09 86.39
-11 0 4 1018.1 95.19
-11 0 4 1111.19 90.59
10 0 -4 11.4 5.1
10 0 -4 0.6 5.4
10 0 -4 15.1 8
-10 0 4 2.6 7.4
-10 0 4 1.5 12.1
9 0 -4 1157.88 92.79
9 0 -4 1095.19 89.59
9 0 -4 1266.07 90.09
-9 0 4 968.2 96.09
-9 0 4 1166.58 92.29
8 0 -4 821.82 60.89
8 0 -4 756.52 60.39
8 0 -4 792.22 89.39
-8 0 4 738.23 62.49
-8 0 4 685.83 67.19
7 0 -4 1368.96 97.99
7 0 -4 1146.49 97.29
7 0 -4 1308.97 118.09
7 0 -4 1271.97 99.79
7 0 -4 1497.15 124.79
-7 0 4 1126.49 104.09
-7 0 4 1123.09 99.09
6 0 -4 2786.72 210.68
6 0 -4 2982.6 225.58
6 0 -4 2470.05 208.58
6 0 -4 3051.49 209.38
-6 0 4 2409.56 214.78
-6 0 4 2576.24 210.28
5 0 -4 26.9 4.4
5 0 -4 23.9 3.7
5 0 -4 46.1 16
5 0 -4 36.4 7.6
5 0 -4 34.6 5.9
-5 0 4 16.2 8.9
-5 0 4 29 4.6
-5 0 4 19 3.9
-5 0 4 16.5 7
4 0 -4 4393.26 328.97
4 0 -4 3982.9 316.87
4 0 -4 4187.28 317.67
-4 0 4 4326.47 318.17
-4 0 4 3731.93 322.07
-4 0 4 4412.86 326.07
-4 0 4 4352.56 317.37
-4 0 4 3620.94 316.47
3 0 -4 2910.21 262.57
3 0 -4 3743.83 261.67
3 0 -4 3551.64 276.27
-3 0 4 3794.42 261.67
-3 0 4 3640.84 263.07
-3 0 4 3076.19 263.17
-3 0 4 3188.68 262.77
2 0 -4 58.29 8.6
2 0 -4 77.69 6.8
2 0 -4 77.39 8
2 0 -4 60.59 13.9
2 0 -4 72.19 6.1
2 0 -4 82.29 6.3
2 0 -4 38.5 21.6
-2 0 4 82.29 6.8
-2 0 4 69.39 7.4
-2 0 4 66.79 6.2
-2 0 4 72.29 17.3
1 0 -4 3179.08 266.87
1 0 -4 2988.3 265.47
1 0 -4 3347.87 265.67
1 0 -4 3437.86 267.07
1 0 -4 3577.74 288.17
1 0 -4 3379.46 265.27
1 0 -4 3919.21 265.57
-1 0 4 3304.37 265.67
-1 0 4 3476.95 295.77
-1 0 4 3730.63 265.57
-1 0 4 3666.93 266.67
-1 0 4 3546.15 265.57
0 0 -4 4401.26 326.77
0 0 -4 4223.58 310.07
0 0 -4 3626.64 307.87
0 0 -4 3746.03 308.17
0 0 -4 4343.07 308.07
0 0 4 3715.63 309.67
0 0 4 3755.62 307.97
0 0 4 4224.68 308.17
0 0 4 3953.6 307.97
0 0 4 4208.48 309.07
-1 0 -4 813.82 68.59
-1 0 -4 764.92 66.29
-1 0 -4 834.52 81.99
-1 0 -4 771.02 66.99
1 0 4 859.01 66.49
1 0 4 875.71 66.29
1 0 4 922.11 67.49
1 0 4 968.3 91.09
1 0 4 942.41 66.59
-2 0 -4 5561.34 404.76
-2 0 -4 4666.13 385.46
2 0 4 5732.13 383.06
2 0 4 4376.26 383.36
2 0 4 4900.91 383.36
2 0 4 4795.42 383.06
2 0 4 4979.8 384.16
-3 0 -4 1588.64 119.69
3 0 4 1423.86 119.69
3 0 4 1437.16 119.19
3 0 4 1599.14 119.49
3 0 4 1598.24 119.39
3 0 4 1614.14 142.99
3 0 4 1567.14 120.19
-4 0 -4 871.41 96.89
-4 0 -4 794.02 76.39
-4 0 -4 992.1 73.49
4 0 4 957 73.69
4 0 4 1058.19 102.69
4 0 4 1068.59 73.79
4 0 4 919.21 73.49
4 0 4 889.41 73.89
4 0 4 957.7 74.19
4 0 4 902.41 73.29
-5 0 -4 1410.46 106.39
-5 0 -4 1597.14 113.69
-5 0 -4 1142.79 109.99
-5 0 -4 1205.08 133.69
-5 0 -4 1525.05 107.59
5 0 4 1369.36 106.39
5 0 4 1329.57 106.99
5 0 4 1301.77 107.19
5 0 4 1389.86 139.09
-6 0 -4 67.59 14.9
-6 0 -4 47.1 37.5
-6 0 -4 76.99 14
6 0 4 25.6 34.5
6 0 4 58.99 8.8
6 0 4 63.49 7.7
-7 0 -4 519.55 54.49
-7 0 -4 613.24 48.6
7 0 4 638.14 50.59
7 0 4 655.13 49
7 0 4 595.54 50.39
7 0 4 615.14 107.99
-8 0 -4 586.14 55.09
-8 0 -4 557.24 46.8
8 0 4 568.64 49.3
8 0 4 757.82 148.29
8 0 4 617.64 49.7
8 0 4 558.64 47
-9 0 -4 27.2 13.5
-9 0 -4 25.3 7.9
-9 0 -4 11.9 13.6
9 0 4 24.5 5.3
9 0 4 28 9.1
9 0 4 29.5 8.7
-10 0 -4 819.52 87.29
10 0 4 882.01 74.99
10 0 4 1079.39 86.49
10 0 4 962.6 78.99
11 -1 -4 269.77 24.1
11 -1 -4 249.28 23.6
11 -1 -4 254.77 29.9
-11 1 4 196.48 36.1
-11 1 4 233.08 27.9
10 -1 -4 501.45 40.9
10 -1 -4 510.45 41.2
10 -1 -4 555.84 50.99
-10 1 4 447.06 50.49
-10 1 4 433.26 46.1
9 -1 -4 1173.38 87.89
9 -1 -4 1212.28 91.19
9 -1 -4 1168.28 87.79
-9 1 4 1056.29 89.79
-9 1 4 926.21 95.39
8 -1 -4 0.7 3.6
8 -1 -4 6.4 2.8
8 -1 -4 3.1 4.9
8 -1 -4 22.2 36
-8 1 4 2 4.7
-8 1 4 1.9 8.8
-8 1 4 9.9 5.7
7 -1 -4 1472.75 127.39
7 -1 -4 1436.06 103.89
7 -1 -4 1338.47 105.69
7 -1 -4 1394.76 104.59
-7 1 4 1331.77 120.69
-7 1 4 1206.28 104.99
-7 1 4 1155.18 110.29
6 -1 -4 1292.57 112.89
6 -1 -4 1215.98 94.09
6 -1 -4 1160.38 95.39
6 -1 -4 1196.68 93.59
-6 1 4 1389.66 95.19
-6 1 4 1119.99 95.19
-6 1 4 1039.2 100.19
-6 1 4 1259.77 109.39
5 -1 -4 287.37 24.3
5 -1 -4 276.77 40.6
5 -1 -4 324.67 26.2
5 -1 -4 312.67 25
-5 1 4 272.17 24.3
-5 1 4 354.06 26.3
-5 1 4 366.26 38.7
-5 1 4 245.48 30.3
-5 1 4 318.67 26.2
4 -1 -4 2937.31 266.17
4 -1 -4 3212.18 267.77
4 -1 -4 3263.37 266.37
4 -1 -4 3955.6 285.07
-4 1 4 3986.4 268.57
-4 1 4 3562.64 268.47
3 -1 -4 3040.5 254.27
3 -1 -4 3259.87 255.47
3 -1 -4 3260.67 273.87
3 -1 -4 3250.67 254.97
3 -1 -4 2900.61 254.27
-3 1 4 3489.95 255.57
-3 1 4 3698.83 270.57
-3 1 4 2977.9 255.87
-3 1 4 3758.82 254.47
-3 1 4 3577.04 256.37
2 -1 -4 716.73 55.09
2 -1 -4 609.34 53.89
2 -1 -4 665.33 53.29
2 -1 -4 677.93 53.89
-2 1 4 748.23 55.29
-2 1 4 683.53 53.99
-2 1 4 730.63 53.49
1 -1 -4 5522.75 440.26
1 -1 -4 5439.46 441.36
1 -1 -4 5664.93 440.16
1 -1 -4 5873.71 439.86
-1 1 4 5852.81 439.96
-1 1 4 6367.86 441.66
-1 1 4 5450.85 440.16
0 -1 -4 2667.13 192.58
0 -1 -4 2172.28 190.98
0 1 4 2342.77 190.38
0 1 4 2339.07 190.08
0 1 4 2500.75 190.78
0 1 4 2587.04 190.68
0 1 4 2699.23 192.08
0 1 4 2556.74 222.48
-1 -1 -4 2117.99 169.78
-1 -1 -4 2344.37 195.58
-1 -1 -4 1852.51 168.58
1 1 4 2330.57 167.28
1 1 4 2310.87 167.98
1 1 4 2068.59 167.68
1 1 4 2232.68 168.98
1 1 4 2172.08 167.88
1 1 4 2233.38 193.08
-2 -1 -4 4011.8 295.57
-2 -1 -4 3628.84 268.57
2 1 4 3175.78 264.47
2 1 4 3835.82 292.57
2 1 4 2989.5 264.87
2 1 4 3703.83 265.27
2 1 4 3151.78 264.97
2 1 4 3263.07 265.77
-3 -1 -4 107.09 12.5
-3 -1 -4 103.09 13.6
-3 -1 -4 146.69 17.8
-3 -1 -4 173.18 40.8
3 1 4 105.39 10.7
3 1 4 125.29 34.8
3 1 4 128.69 11.5
3 1 4 136.79 12.1
3 1 4 117.39 10.9
-4 -1 -4 1936.81 152.28
-4 -1 -4 1814.82 155.08
-4 -1 -4 1878.71 182.08
4 1 4 2111.69 152.18
4 1 4 1966.8 151.58
4 1 4 1875.11 152.08
4 1 4 1989.9 152.28
4 1 4 2081.39 183.68
4 1 4 1976.6 151.78
-5 -1 -4 1389.06 149.09
-5 -1 -4 1462.95 109.79
-5 -1 -4 1325.97 113.69
5 1 4 1350.86 109.69
5 1 4 1369.96 109.19
5 1 4 1427.46 110.19
5 1 4 1474.05 109.99
-6 -1 -4 109.39 41.1
-6 -1 -4 127.89 13
-6 -1 -4 103.39 18.2
-6 -1 -4 117.59 18.8
6 1 4 139.29 13.8
6 1 4 132.99 12.6
6 1 4 121.99 14
6 1 4 133.69 53.59
-7 -1 -4 1559.14 189.18
-7 -1 -4 1371.06 126.79
-7 -1 -4 1519.45 121.09
7 1 4 1583.44 122.79
7 1 4 1647.04 122.79
7 1 4 1606.44 178.68
7 1 4 1560.44 120.89
-8 -1 -4 461.55 34.8
-8 -1 -4 498.05 55.69
8 1 4 362.26 40
8 1 4 391.96 36.6
8 1 4 357.96 34
-9 -1 -4 768.32 74.89
-9 -1 -4 716.33 63.69
9 1 4 840.92 67.49
9 1 4 821.82 63.89
11 -2 -4 117.79 14.3
11 -2 -4 100.79 20.1
11 -2 -4 131.29 15
-11 2 4 96.79 24.8
-11 2 4 128.19 19.3
10 -2 -4 639.44 51.69
10 -2 -4 560.84 58.39
10 -2 -4 632.54 51.49
-10 2 4 695.23 55.89
-10 2 4 632.34 54.19
9 -2 -4 220.98 19.9
9 -2 -4 208.48 19.3
9 -2 -4 214.78 23.2
-9 2 4 174.98 29.5
-9 2 4 253.47 20.7
-9 2 4 222.88 22.1
8 -2 -4 469.25 66.89
8 -2 -4 472.05 40.6
8 -2 -4 466.45 37.6
8 -2 -4 475.75 38.1
-8 2 4 528.65 71.69
-8 2 4 524.35 39.2
-8 2 4 440.36 39.7
-8 2 4 372.66 45.6
7 -2 -4 1413.76 106.79
7 -2 -4 1454.05 130.49
7 -2 -4 1406.86 107.29
7 -2 -4 1314.27 108.99
-7 2 4 1553.04 108.89
-7 2 4 1166.68 114.19
-7 2 4 1258.07 108.39
-7 2 4 1493.95 138.59
6 -2 -4 602.34 47
6 -2 -4 629.94 67.19
6 -2 -4 583.34 46.3
6 -2 -4 583.24 48.5
-6 2 4 674.63 49
-6 2 4 501.55 53.09
-6 2 4 569.44 48.2
5 -2 -4 1351.56 103.19
5 -2 -4 1326.97 101.99
5 -2 -4 1501.65 125.09
5 -2 -4 1272.97 101.19
-5 2 4 1150.08 101.19
-5 2 4 1345.97 103.19
4 -2 -4 3047.09 241.38
4 -2 -4 2804.02 240.68
4 -2 -4 3333.87 240.48
4 -2 -4 3262.47 242.38
4 -2 -4 3225.58 262.67
-4 2 4 2902.11 242.68
-4 2 4 3439.56 240.58
-4 2 4 2799.62 240.48
-4 2 4 3434.06 243.58
3 -2 -4 285.97 48.4
3 -2 -4 353.16 29.1
3 -2 -4 344.87 29.6
3 -2 -4 399.96 30.4
3 -2 -4 329.77 28.2
-3 2 4 349.57 29.5
-3 2 4 372.96 28.3
-3 2 4 419.66 31.6
2 -2 -4 3193.58 232.58
2 -2 -4 3062.99 231.88
2 -2 -4 2675.33 230.78
2 -2 -4 3064.39 231.58
-2 2 4 3002.6 231.68
-2 2 4 2857.31 230.98
-2 2 4 3212.78 233.58
1 -2 -4 3388.76 251.97
1 -2 -4 3203.98 250.47
1 -2 -4 3212.38 250.97
1 -2 -4 3489.75 251.57
-1 2 4 2921.31 249.88
-1 2 4 3061.29 250.37
-1 2 4 3211.48 250.57
-1 2 4 3604.24 252.77
0 -2 -4 50.39 9.6
0 -2 -4 18.4 30.7
0 -2 -4 45.2 7.6
0 2 4 42.8 9.2
0 2 4 62.49 34.6
0 2 4 50.99 5.3
0 2 4 50.99 7.2
-1 -2 -4 2105.99 175.68
-1 -2 -4 2438.16 175.18
-1 -2 -4 2345.07 176.38
1 2 4 2135.99 203.38
1 2 4 2117.99 174.28
1 2 4 2174.18 174.48
1 2 4 2493.65 176.28
-2 -2 -4 1483.15 150.38
-2 -2 -4 1502.95 115.09
2 2 4 1359.66 112.79
2 2 4 1404.86 112.79
2 2 4 1511.55 114.19
2 2 4 1428.86 113.89
2 2 4 1532.85 144.39
-3 -2 -4 440.96 38.8
-3 -2 -4 399.96 74.39
3 2 4 434.56 35.6
3 2 4 428.06 70.99
3 2 4 427.36 35.9
3 2 4 434.16 36.6
3 2 4 469.05 35.9
3 2 4 450.75 36.6
-4 -2 -4 1619.24 137.39
-4 -2 -4 1777.82 139.99
-4 -2 -4 1733.13 178.38
4 2 4 1736.43 136.79
4 2 4 1951.2 136.79
4 2 4 1677.23 136.09
4 2 4 1782.22 136.79
4 2 4 1708.43 172.28
-5 -2 -4 168.38 22.4
-5 -2 -4 186.38 19
-5 -2 -4 175.18 79.79
5 2 4 252.47 74.99
5 2 4 201.88 19
5 2 4 202.48 17.7
5 2 4 196.08 18
-6 -2 -4 1315.67 110.89
-6 -2 -4 1132.09 108.99
-6 -2 -4 1597.84 230.68
-6 -2 -4 1333.47 106.49
6 2 4 1300.17 105.49
6 2 4 1482.85 107.09
6 2 4 1430.26 158.48
6 2 4 1397.26 107.19
-7 -2 -4 1059.69 91.49
-7 -2 -4 818.82 176.48
-7 -2 -4 995.9 85.29
7 2 4 1118.79 86.79
7 2 4 1035.9 84.69
7 2 4 1245.98 157.08
7 2 4 1121.89 87.09
8 2 4 22.2 6.2
8 2 4 28.8 9
8 2 4 21.2 9.1
8 2 4 61.59 123.69
-9 -2 -4 1431.36 130.49
9 2 4 1584.14 124.19
11 -3 -4 681.03 56.89
11 -3 -4 753.12 57.39
11 -3 -4 723.23 62.09
-11 3 4 646.24 59.79
10 -3 -4 581.74 46.4
10 -3 -4 537.25 50.19
10 -3 -4 564.44 46.1
-10 3 4 467.35 56.19
-10 3 4 613.34 49.1
-10 3 4 605.74 47.7
9 -3 -4 26.5 5.7
-9 3 4 17.4 12.2
-9 3 4 19.7 5.6
-9 3 4 14.3 5.8
8 -3 -4 1986.9 156.38
8 -3 -4 2157.28 156.98
8 -3 -4 2039.3 159.38
8 -3 -4 2207.38 188.48
-8 3 4 2081.59 158.98
-8 3 4 1757.42 164.98
-8 3 4 1957.2 158.28
7 -3 -4 1220.18 117.89
7 -3 -4 1187.08 91.29
7 -3 -4 1179.28 93.29
7 -3 -4 1231.58 90.69
-7 3 4 1278.47 118.99
-7 3 4 1142.29 92.59
-7 3 4 1133.89 93.39
-7 3 4 1004.7 98.29
6 -3 -4 400.96 30.8
6 -3 -4 422.26 32.7
6 -3 -4 403.76 30
6 -3 -4 420.66 55.59
-6 3 4 325.57 29.8
-6 3 4 361.76 33.1
-6 3 4 373.66 32
-6 3 4 328.97 37.2
5 -3 -4 3481.45 259.27
5 -3 -4 3772.02 259.37
5 -3 -4 3446.26 260.17
5 -3 -4 3450.15 284.47
5 -3 -4 3664.63 261.67
-5 3 4 3132.59 262.57
-5 3 4 3425.86 258.97
-5 3 4 3440.86 261.27
-5 3 4 2940.21 265.77
-5 3 4 3024.1 259.17
4 -3 -4 760.82 65.99
4 -3 -4 900.41 63.39
4 -3 -4 856.11 64.29
4 -3 -4 809.82 88.19
4 -3 -4 874.81 63.99
-4 3 4 763.52 63.09
-4 3 4 776.72 66.89
-4 3 4 794.42 63.39
-4 3 4 834.42 70.29
3 -3 -4 1169.08 85.69
3 -3 -4 1105.19 84.99
3 -3 -4 1141.19 86.49
-3 3 4 1011 88.09
-3 3 4 1065.29 84.89
2 -3 -4 2201.58 161.88
2 -3 -4 2202.88 161.78
-2 3 4 1972.4 159.68
-2 3 4 1770.52 164.88
-2 3 4 2064.09 160.28
-2 3 4 2271.17 161.38
1 -3 -4 255.27 22
1 -3 -4 241.48 22.4
1 -3 -4 228.78 23.3
-1 3 4 432.96 85.79
-1 3 4 266.07 24.4
-1 3 4 272.37 20.4
-1 3 4 259.87 21
0 -3 -4 1360.16 116.59
0 -3 -4 1618.24 116.29
0 -3 -4 1266.67 118.19
0 3 4 1634.94 117.79
0 3 4 1525.45 114.49
0 3 4 1461.85 157.58
-1 -3 -4 995.1 140.59
-1 -3 -4 992.5 86.89
-1 -3 -4 1062.29 87.39
-1 -3 -4 1134.69 86.29
1 3 4 1185.18 87.29
1 3 4 1062.09 84.69
1 3 4 1157.38 84.79
1 3 4 978.2 120.69
-2 -3 -4 167.08 60.79
-2 -3 -4 129.89 14
-2 -3 -4 125.49 13.6
2 3 4 108.69 44.4
2 3 4 104.69 12.6
2 3 4 129.09 14.4
2 3 4 152.28 15.3
2 3 4 112.09 11.6
-3 -3 -4 2047.4 215.78
3 3 4 1995.1 159.78
3 3 4 2158.88 160.28
3 3 4 2028.8 198.68
3 3 4 2048.2 161.08
-4 -3 -4 314.17 88.69
-4 -3 -4 298.97 28.5
4 3 4 252.37 25.2
4 3 4 341.07 80.09
4 3 4 271.77 25
4 3 4 316.97 26
4 3 4 256.47 24.2
-5 -3 -4 504.05 45.4
-5 -3 -4 636.44 132.99
-5 -3 -4 525.15 47.9
5 3 4 491.45 43.3
5 3 4 582.14 102.79
5 3 4 562.44 45
-6 -3 -4 1398.66 214.98
-6 -3 -4 1361.76 120.99
-6 -3 -4 1556.34 125.09
6 3 4 1516.65 119.79
6 3 4 1459.75 180.08
6 3 4 1715.73 122.09
-7 -3 -4 110.69 15.8
-7 -3 -4 142.29 104.79
-7 -3 -4 73.59 22.7
7 3 4 82.69 15.9
7 3 4 91.69 15.6
7 3 4 66.19 12.4
-8 -3 -4 566.04 58.59
-8 -3 -4 693.93 66.69
8 3 4 773.12 61.99
8 3 4 600.84 57.19
8 3 4 814.52 61.59
-9 -3 -4 862.41 74.09
-9 -3 -4 861.51 82.79
9 3 4 889.91 72.79
11 -4 -4 1334.47 102.09
11 -4 -4 1310.57 96.99
-11 4 4 1061.69 109.59
-11 4 4 1156.38 99.09
10 -4 -4 358.86 31.4
10 -4 -4 402.16 36.7
10 -4 -4 411.16 32.2
-10 4 4 388.46 34.4
-10 4 4 360.46 34
-10 4 4 313.57 43.7
9 -4 -4 869.71 69.79
9 -4 -4 892.01 72.99
9 -4 -4 960.7 69.39
-9 4 4 783.02 79.09
-9 4 4 889.91 72.59
-9 4 4 854.51 71.49
8 -4 -4 2793.72 218.68
8 -4 -4 3016.4 218.18
8 -4 -4 2720.13 221.08
-8 4 4 3320.77 257.87
-8 4 4 2519.65 221.38
-8 4 4 2733.63 220.08
7 -4 -4 153.18 16.4
7 -4 -4 200.28 45.8
7 -4 -4 157.38 13
7 -4 -4 130.79 13.5
-7 4 4 153.98 37.8
-7 4 4 133.99 21.5
-7 4 4 153.98 15.6
-7 4 4 126.49 16.8
6 -4 -4 2103.39 162.98
6 -4 -4 2118.19 161.18
6 -4 -4 2327.77 160.58
6 -4 -4 2121.19 190.58
-6 4 4 1802.02 164.18
-6 4 4 1936.81 160.18
-6 4 4 2265.97 162.58
-6 4 4 1854.71 167.48
-6 4 4 2191.38 159.78
5 -4 -4 1806.22 139.19
5 -4 -4 1972.7 136.99
5 -4 -4 1938.01 137.89
5 -4 -4 1665.63 164.88
5 -4 -4 1766.12 137.09
-5 4 4 1502.55 140.59
-5 4 4 1753.02 136.59
-5 4 4 1576.14 143.19
-5 4 4 1957.1 138.99
-5 4 4 1761.02 136.59
4 -4 -4 39 6.6
4 -4 -4 14.9 21.2
4 -4 -4 45.5 4.8
-4 4 4 30.5 4.3
-4 4 4 40 3.9
-4 4 4 34.9 27.6
3 -4 -4 3050.49 233.78
3 -4 -4 3138.69 235.18
3 -4 -4 3193.98 234.38
-3 4 4 2876.91 232.98
-3 4 4 2896.61 232.58
2 -4 -4 858.81 69.19
2 -4 -4 920.91 70.79
2 -4 -4 912.41 68.99
-2 4 4 765.92 71.59
-2 4 4 871.01 68.19
-2 4 4 951.3 67.79
-2 4 4 817.92 72.99
1 -4 -4 499.35 40.4
1 -4 -4 477.55 41.7
1 -4 -4 469.25 100.69
-1 4 4 555.14 39.3
-1 4 4 481.65 43.5
-1 4 4 517.45 39.7
-1 4 4 434.06 42.6
0 -4 -4 2866.71 212.28
0 -4 -4 2555.24 216.08
0 -4 -4 2787.72 212.38
0 4 4 2963.1 211.48
0 4 4 3035.6 211.28
0 4 4 2644.64 211.88
0 4 4 2328.47 213.28
0 4 4 2705.73 214.58
-1 -4 -4 34.4 7.1
-1 -4 -4 17.9 9.5
-1 -4 -4 47.1 7.8
-1 -4 -4 10.6 56.69
1 4 4 10.1 34.8
1 4 4 26.7 7
1 4 4 50.29 11.8
1 4 4 27.2 5.2
1 4 4 35.6 6.5
-2 -4 -4 1723.03 138.69
-2 -4 -4 1681.93 137.19
-2 -4 -4 1603.24 214.38
2 4 4 1557.74 174.78
2 4 4 1720.93 137.99
2 4 4 2014 136.29
2 4 4 1728.53 135.69
-3 -4 -4 1350.36 116.89
-3 -4 -4 1873.21 258.87
3 4 4 1480.85 114.89
3 4 4 1347.17 159.18
3 4 4 1633.04 115.69
3 4 4 1365.86 117.89
-4 -4 -4 113.99 84.09
-4 -4 -4 155.48 18.9
4 4 4 165.88 16.6
4 4 4 125.79 15.1
4 4 4 131.49 56.59
-5 -4 -4 2762.82 193.68
-5 -4 -4 1937.61 300.07
-5 -4 -4 2294.17 190.18
5 4 4 2501.25 189.78
5 4 4 2307.77 244.98
-6 -4 -4 1087.59 92.19
-6 -4 -4 1029.6 245.58
6 4 4 1092.19 90.09
6 4 4 967.7 87.79
6 4 4 1235.98 91.09
-7 -4 -4 85.49 16.8
7 4 4 114.59 17.5
7 4 4 145.69 21.6
7 4 4 120.69 20.4
-8 -4 -4 1574.24 134.09
8 4 4 1803.22 131.79
8 4 4 1371.36 126.19
11 -5 -4 848.42 73.19
11 -5 -4 860.91 67.49
-11 5 4 850.01 70.59
-11 5 4 798.32 69.79
-11 5 4 812.62 84.59
10 -5 -4 4.1 5.7
10 -5 -4 16.6 9.7
-10 5 4 11.6 6.6
-10 5 4 16.5 15.6
-10 5 4 8.3 7.6
9 -5 -4 1669.23 130.19
9 -5 -4 1754.92 126.99
9 -5 -4 1754.92 126.39
-9 5 4 1686.73 128.59
-9 5 4 1436.56 130.29
-9 5 4 1409.56 135.99
8 -5 -4 1172.08 87.49
8 -5 -4 1227.08 86.89
8 -5 -4 1060.49 89.89
-8 5 4 944.81 94.99
-8 5 4 1118.89 88.69
7 -5 -4 74.19 7.7
7 -5 -4 57.39 40.9
7 -5 -4 69.89 11.3
7 -5 -4 65.69 8.4
-7 5 4 65.49 6
-7 5 4 27.7 34.3
-7 5 4 52.59 13
-7 5 4 61.79 14.8
-7 5 4 65.99 10.2
6 -5 -4 2070.59 165.28
6 -5 -4 2254.87 167.58
6 -5 -4 2353.16 164.78
6 -5 -4 2062.09 198.48
-6 5 4 1928.61 171.28
-6 5 4 2248.97 166.48
-6 5 4 2052.99 165.18
-6 5 4 2055.29 163.98
5 -5 -4 837.12 63.49
5 -5 -4 713.53 62.59
5 -5 -4 894.51 64.19
-5 5 4 703.73 68.39
-5 5 4 866.01 62.29
-5 5 4 778.52 62.39
4 -5 -4 294.57 64.49
4 -5 -4 422.16 31.6
4 -5 -4 364.06 33.1
-4 5 4 387.26 30.5
-4 5 4 361.76 36.1
3 -5 -4 1958 149.69
3 -5 -4 1875.91 148.19
3 -5 -4 1792.92 147.49
-3 5 4 1927.21 146.99
-3 5 4 1703.23 151.18
-3 5 4 2124.89 146.49
2 -5 -4 53.39 7.2
2 -5 -4 45.3 7.1
2 -5 -4 86.19 68.29
-2 5 4 39.4 10
-2 5 4 52.79 6.1
-2 5 4 153.18 66.19
-2 5 4 42.6 5.6
-2 5 4 30 8.3
1 -5 -4 1991.8 144.49
1 -5 -4 1845.82 144.59
-1 5 4 1740.23 146.39
-1 5 4 1663.23 147.79
-1 5 4 2016.7 144.09
0 -5 -4 1505.85 220.48
0 -5 -4 1802.02 142.29
0 -5 -4 1845.62 141.79
0 -5 -4 1843.42 147.89
0 5 4 1770.62 142.99
0 5 4 1704.03 145.19
0 5 4 2071.69 141.89
-1 -5 -4 181.28 19
-1 -5 -4 145.79 27
-1 -5 -4 243.78 25.2
-1 -5 -4 208.88 18.7
-1 -5 -4 87.29 79.59
1 5 4 166.78 21
1 5 4 170.28 17.8
1 5 4 177.78 59.89
1 5 4 228.28 18.4
-2 -5 -4 3061.29 239.78
2 5 4 3433.46 239.18
2 5 4 3187.88 238.58
2 5 4 2615.04 240.58
-3 -5 -4 645.24 160.48
-3 -5 -4 681.43 57.09
-3 -5 -4 607.14 58.09
3 5 4 642.14 56.79
3 5 4 752.52 55.29
3 5 4 632.24 117.59
-4 -5 -4 717.43 204.88
-4 -5 -4 880.71 69.59
4 5 4 897.31 68.89
4 5 4 771.02 67.29
4 5 4 578.34 131.79
-5 -5 -4 3122.79 244.88
5 5 4 2798.42 243.18
5 5 4 3398.46 244.48
-6 -5 -4 76.29 19.2
-6 -5 -4 164.78 31
6 5 4 135.99 23.9
6 5 4 103.29 17.3
-7 -5 -4 914.51 77.49
7 5 4 906.51 76.19
7 5 4 761.92 72.49
11 -6 -4 297.07 24.9
11 -6 -4 260.67 31
-11 6 4 275.47 28.1
-11 6 4 179.18 42.7
-11 6 4 235.48 30.5
10 -6 -4 233.58 20.8
10 -6 -4 203.18 26.4
-10 6 4 185.38 34.5
-10 6 4 235.78 23.5
9 -6 -4 996.7 87.49
9 -6 -4 1083.09 79.49
-9 6 4 1068.09 80.99
-9 6 4 910.21 84.19
-9 6 4 915.41 91.19
8 -6 -4 61.79 12.2
8 -6 -4 67.59 8.3
8 -6 -4 79.19 9.5
-8 6 4 53.69 10.9
-8 6 4 55.79 13.2
-8 6 4 65.49 16.8
7 -6 -4 779.22 148.39
7 -6 -4 626.34 47
7 -6 -4 552.44 48.9
7 -6 -4 573.84 45.6
7 -6 -4 575.44 46.1
-7 6 4 503.45 52.59
-7 6 4 479.05 50.69
-7 6 4 647.44 117.99
-7 6 4 596.64 44.5
6 -6 -4 1034.7 80.09
6 -6 -4 1061.59 77.69
6 -6 -4 880.21 76.49
6 -6 -4 812.92 121.59
6 -6 -4 1035.5 77.39
-6 6 4 899.41 82.89
-6 6 4 1009.7 76.09
5 -6 -4 7.2 35.3
5 -6 -4 15.5 4.4
5 -6 -4 26.6 7.2
-5 6 4 20.1 57.19
-5 6 4 4.2 7.2
-5 6 4 18.7 8.4
4 -6 -4 1008.6 75.89
4 -6 -4 978.2 76.09
4 -6 -4 943.91 78.39
-4 6 4 1012.3 75.19
-4 6 4 878.01 80.59
-4 6 4 917.51 80.09
3 -6 -4 486.45 40.2
3 -6 -4 506.85 39.7
3 -6 -4 435.46 42.5
-3 6 4 558.84 38.9
-3 6 4 470.75 43.4
-3 6 4 509.85 39.4
-3 6 4 409.06 44
2 -6 -4 125.99 18.8
2 -6 -4 162.18 67.29
2 -6 -4 165.78 15
2 -6 -4 153.98 15.5
-2 6 4 129.19 19.1
-2 6 4 182.28 14.7
-2 6 4 177.58 15.2
1 -6 -4 1830.02 149.09
1 -6 -4 1774.42 153.08
1 -6 -4 1935.61 148.49
-1 6 4 1714.03 152.88
-1 6 4 2042.2 150.68
-1 6 4 2144.49 148.99
0 -6 -4 91.09 11.8
0 -6 -4 102.39 19
0 -6 -4 96.29 11.1
0 -6 -4 69.09 90.39
0 6 4 119.29 11.5
0 6 4 224.78 96.49
0 6 4 88.39 11.1
0 6 4 74.89 15.6
-1 -6 -4 1404.56 112.99
-1 -6 -4 971.6 248.08
-1 -6 -4 1596.74 112.89
-1 -6 -4 1190.88 117.99
1 6 4 1615.34 112.89
1 6 4 1394.16 112.29
1 6 4 1385.66 168.18
-2 -6 -4 2326.87 177.68
2 6 4 2411.66 176.68
2 6 4 1883.41 226.68
-3 -6 -4 26.3 7.5
-3 -6 -4 10.4 9.5
-3 -6 -4 7.7 11.8
-3 -6 -4 -22 121.69
3 6 4 -4.4 55.99
3 6 4 5.5 4.9
3 6 4 12.6 6.4
3 6 4 12.9 8.7
-4 -6 -4 1125.99 108.49
-4 -6 -4 1488.25 108.09
4 6 4 1344.27 106.69
-5 -6 -4 1349.96 113.69
5 6 4 1488.55 114.49
5 6 4 1140.19 244.48
-6 -6 -4 -24.9 14.6
-6 -6 -4 6.5 10.7
6 6 4 14.9 13.7
6 6 4 -13.3 9.7
6 6 4 -7.1 10.5
-7 -6 -4 1227.18 100.89
7 6 4 992.1 98.49
7 6 4 1297.57 102.79
10 -7 -4 1054.19 84.59
10 -7 -4 1035.2 78.99
-10 7 4 1027.8 80.39
-10 7 4 861.31 84.99
-10 7 4 925.31 91.69
9 -7 -4 330.37 28.9
9 -7 -4 338.67 33.3
-9 7 4 272.07 39.6
8 -7 -4 240.28 25.1
8 -7 -4 231.88 20.7
8 -7 -4 208.98 20.7
-8 7 4 204.68 29.4
-8 7 4 199.58 26.9
7 -7 -4 732.13 63.49
7 -7 -4 811.62 60.39
7 -7 -4 773.22 60.39
-7 7 4 622.64 65.49
-7 7 4 820.92 58.89
-7 7 4 701.83 66.79
6 -7 -4 15.5 5.4
6 -7 -4 11.2 4.4
6 -7 -4 44.1 63.99
6 -7 -4 14.2 7.2
6 -7 -4 12.3 4.1
-6 7 4 46.6 84.89
-6 7 4 18.3 3.4
-6 7 4 3.2 7.7
-6 7 4 13.5 9
5 -7 -4 803.82 64.89
5 -7 -4 861.61 68.89
5 -7 -4 862.81 65.69
-5 7 4 873.61 64.49
-5 7 4 694.83 70.29
-5 7 4 787.32 69.89
4 -7 -4 805.52 63.19
4 -7 -4 735.13 66.89
4 -7 -4 863.01 64.19
-4 7 4 725.33 68.79
-4 7 4 810.22 63.09
-4 7 4 798.02 67.69
-4 7 4 813.42 62.29
3 -7 -4 66.49 13.5
3 -7 -4 22.5 59.29
3 -7 -4 63.99 8.5
3 -7 -4 63.89 10.5
-3 7 4 69.69 15
-3 7 4 78.99 8.1
-3 7 4 68.69 9
-3 7 4 86.89 76.59
-3 7 4 80.79 13.1
2 -7 -4 1413.66 114.69
2 -7 -4 1379.96 115.69
-2 7 4 1387.56 120.29
-2 7 4 1635.74 115.39
-2 7 4 1529.05 118.39
1 -7 -4 645.04 60.99
1 -7 -4 676.63 54.59
1 -7 -4 517.05 130.89
1 -7 -4 688.93 55.79
-1 7 4 630.04 59.99
-1 7 4 720.73 56.39
-1 7 4 735.93 55.39
0 -7 -4 543.85 54.69
0 -7 -4 529.75 47.9
0 -7 -4 581.24 47.3
0 -7 -4 630.14 175.98
0 7 4 623.64 48
0 7 4 509.75 52.09
0 7 4 648.24 47.9
-1 -7 -4 1685.33 143.79
-1 -7 -4 1609.64 149.99
-1 -7 -4 2033.2 143.79
1 7 4 1997 143.99
1 7 4 2094.69 212.28
1 7 4 1655.13 143.19
-2 -7 -4 281.97 191.08
-2 -7 -4 358.36 35.3
-2 -7 -4 414.46 34.1
2 7 4 431.56 34.9
2 7 4 354.26 34
2 7 4 464.75 103.59
2 7 4 310.57 37.7
-3 -7 -4 380.16 42
-3 -7 -4 508.75 41.2
-3 -7 -4 379.66 183.38
3 7 4 419.06 40.4
3 7 4 507.05 42
-4 -7 -4 1523.15 119.79
4 7 4 1317.57 119.19
4 7 4 1607.24 121.09
-5 -7 -4 146.09 22.2
-5 -7 -4 105.89 24.3
5 7 4 153.78 24
5 7 4 117.79 18.9
-6 -7 -4 359.26 39.1
-6 -7 -4 236.48 40.8
6 7 4 292.77 39.9
6 7 4 416.56 42.3
10 -8 -4 732.23 68.59
10 -8 -4 860.11 63.39
-10 8 4 700.53 74.49
9 -8 -4 33.8 11.8
9 -8 -4 17.2 6.8
-9 8 4 -0.9 12.3
-9 8 4 4.8 15.2
8 -8 -4 711.13 58.19
8 -8 -4 742.73 63.59
-8 8 4 712.73 66.59
7 -8 -4 468.65 37.5
7 -8 -4 396.76 36.2
7 -8 -4 424.96 41.5
-7 8 4 495.05 35.8
-7 8 4 393.46 43.4
6 -8 -4 326.17 27.9
6 -8 -4 295.07 26.3
6 -8 -4 284.57 31.6
-6 8 4 351.36 26.2
-6 8 4 278.47 33.5
-6 8 4 297.97 32.7
5 -8 -4 1377.66 109.09
5 -8 -4 1454.65 110.49
5 -8 -4 1245.78 113.59
-5 8 4 1563.84 109.49
-5 8 4 1342.27 114.19
-5 8 4 1388.36 116.39
4 -8 -4 154.08 21.3
4 -8 -4 173.08 86.59
-4 8 4 166.88 19.9
-4 8 4 156.88 14.9
-4 8 4 118.29 20.7
3 -8 -4 972.8 83.69
3 -8 -4 940.61 84.99
-3 8 4 1068.29 87.29
-3 8 4 1208.88 84.79
-3 8 4 1027.9 90.49
-3 8 4 1178.28 83.79
2 -8 -4 1855.31 159.18
2 -8 -4 1797.52 164.68
2 -8 -4 1953.1 160.58
-2 8 4 2343.97 160.48
-2 8 4 2235.48 161.78
-2 8 4 2129.59 166.08
1 -8 -4 1.6 5.4
1 -8 -4 -5.1 109.29
1 -8 -4 6.8 3.7
1 -8 -4 8.1 10.4
-1 8 4 59.39 60.39
-1 8 4 1.4 5.6
-1 8 4 -1.9 7.6
-1 8 4 7.7 4.6
-1 8 4 2 3.5
0 -8 -4 1563.34 132.09
0 -8 -4 1372.96 286.87
0 -8 -4 1584.94 138.49
0 -8 -4 1750.62 131.59
0 8 4 1729.03 131.99
0 8 4 1613.04 136.59
0 8 4 1849.91 132.09
-1 -8 -4 1793.42 133.69
-1 -8 -4 1592.04 134.29
-1 -8 -4 1560.04 141.09
1 8 4 1898.81 134.59
1 8 4 1522.85 137.89
1 8 4 1779.22 134.19
-2 -8 -4 74.59 12.2
-2 -8 -4 321.17 197.08
-2 -8 -4 48 14.9
-2 -8 -4 55.69 18.8
2 8 4 -48.7 60.79
-3 -8 -4 1456.15 124.99
-3 -8 -4 1634.04 123.59
3 8 4 1525.85 123.79
-4 -8 -4 614.04 51.89
-4 -8 -4 491.45 55.39
4 8 4 676.13 54.19
4 8 4 521.45 52.29
-5 -8 -4 148.09 29.1
-5 -8 -4 202.58 26.3
5 8 4 182.88 29.5
5 8 4 134.19 26.4
9 -9 -4 160.28 18.8
9 -9 -4 137.79 26
-9 9 4 148.59 28.2
-9 9 4 122.59 25.2
8 -9 -4 665.33 60.29
8 -9 -4 652.33 54.69
-8 9 4 689.63 64.29
-8 9 4 621.64 62.79
7 -9 -4 31.2 12.5
7 -9 -4 58.59 9.7
-7 9 4 25.2 12.9
-7 9 4 38 6.3
-7 9 4 48 14.8
6 -9 -4 656.33 70.39
-6 9 4 753.72 69.59
-6 9 4 831.02 72.49
-6 9 4 929.51 63.89
5 -9 -4 865.51 84.49
5 -9 -4 1002.1 78.59
5 -9 -4 1049.79 80.69
-5 9 4 1071.19 84.59
4 -9 -4 41.7 12.4
4 -9 -4 42.8 8.6
-4 9 4 94.19 134.89
3 -9 -4 1584.54 130.29
3 -9 -4 1258.07 250.17
3 -9 -4 1521.65 128.49
-3 9 4 1772.32 136.49
-3 9 4 1779.82 128.79
-3 9 4 1717.93 131.69
2 -9 -4 1468.85 113.09
2 -9 -4 1090.79 262.57
2 -9 -4 1354.76 114.39
-2 9 4 1484.05 113.19
-2 9 4 1544.35 114.09
-2 9 4 1426.46 119.79
1 -9 -4 201.58 31.6
1 -9 -4 189.98 24.3
1 -9 -4 445.26 144.39
1 -9 -4 239.98 21
-1 9 4 225.98 21.1
-1 9 4 220.38 28.5
-1 9 4 240.38 22.3
0 -9 -4 1833.72 166.58
0 -9 -4 1806.32 160.68
0 -9 -4 1484.45 293.07
0 -9 -4 2151.38 159.68
0 9 4 2267.57 160.28
0 9 4 2073.09 165.38
0 9 4 2549.34 252.67
-1 -9 -4 650.93 51.99
-1 -9 -4 565.84 61.09
-1 -9 -4 595.84 53.79
1 9 4 646.04 52.69
1 9 4 661.33 52.89
1 9 4 588.04 57.29
-2 -9 -4 830.02 63.19
-2 -9 -4 819.12 65.89
-2 -9 -4 740.73 74.69
2 9 4 762.72 63.69
2 9 4 619.34 67.19
2 9 4 748.23 63.59
-3 -9 -4 1331.97 114.89
-3 -9 -4 1304.57 118.59
3 9 4 1377.46 112.99
3 9 4 1531.55 113.79
7 -10 -4 134.39 17.4
7 -10 -4 88.89 21.7
-7 10 4 93.49 22.8
6 -10 -4 805.82 68.59
-6 10 4 820.12 73.39
-6 10 4 883.31 76.49
5 -10 -4 280.47 36.5
5 -10 -4 343.27 30.5
-5 10 4 318.27 37.8
-5 10 4 307.27 33.2
-5 10 4 318.47 27.7
4 -10 -4 373.46 36.6
-4 10 4 471.95 35.4
-4 10 4 368.36 42.1
3 -10 -4 1764.22 141.49
3 -10 -4 1541.05 146.49
-3 10 4 1927.41 147.79
-3 10 4 1933.51 143.39
2 -10 -4 103.69 21.1
2 -10 -4 105.39 16.5
-2 10 4 133.19 15.2
-2 10 4 111.59 22.8
-2 10 4 111.69 12.8
1 -10 -4 581.24 63.79
1 -10 -4 663.73 56.79
-1 10 4 749.33 56.19
-1 10 4 630.84 73.89
-1 10 4 696.63 55.09
0 -10 -4 838.32 75.19
0 -10 -4 958.4 73.99
0 -10 -4 780.02 82.49
0 10 4 920.31 73.79
0 10 4 1025.9 74.79
-1 -10 -4 13.6 6.7
-1 -10 -4 -2.7 20.8
-1 -10 -4 26.8 12.9
1 10 4 6.7 7.4
1 10 4 -7.4 8.2
1 10 4 -3.8 12.2
-2 -10 -4 606.44 69.59
-2 -10 -4 701.53 60.39
2 10 4 693.23 58.39
2 10 4 679.53 58.29
5 -11 -4 67.29 14
5 -11 -4 41.7 18.1
-5 11 4 52.69 16.5
-5 11 4 57.29 9.2
4 -11 -4 1032.8 88.89
-4 11 4 1164.48 97.19
3 -11 -4 202.48 38.3
3 -11 -4 256.47 28.5
-3 11 4 274.17 36.9
-3 11 4 308.37 26.3
2 -11 -4 270.87 30.3
2 -11 -4 265.67 41.2
-2 11 4 336.97 38.5
-2 11 4 341.07 29.8
1 -11 -4 525.65 52.49
1 -11 -4 559.24 63.19
-1 11 4 686.33 59.59
-1 11 4 669.53 52.19
2 12 -5 133.29 18.5
2 12 -5 135.09 16.3
-2 -12 5 142.59 35.7
-2 -12 5 91.89 16.7
1 12 -5 930.41 77.99
1 12 -5 975 76.49
-1 -12 5 953.5 78.69
-1 -12 5 936.71 94.79
0 12 -5 922.91 73.99
0 12 -5 879.21 75.29
0 -12 5 991.2 76.29
0 -12 5 897.21 88.99
-1 12 -5 2.6 5.1
1 -12 5 9.2 9.6
1 -12 5 9.9 8.5
1 -12 5 17.3 18.2
-2 12 -5 983.6 80.29
2 -12 5 1036.2 91.49
3 -12 5 453.35 48.4
3 -12 5 626.84 56.29
4 -12 5 54.59 12.8
4 -12 5 75.19 20.5
5 -12 5 604.84 52.99
5 -12 5 540.85 59.99
4 11 -5 932.11 72.69
4 11 -5 921.91 75.79
-4 -11 5 863.61 77.39
-4 -11 5 863.91 95.19
3 11 -5 1117.09 89.19
3 11 -5 1113.29 86.49
-3 -11 5 1043.2 106.29
-3 -11 5 1054.19 89.79
2 11 -5 70.09 11.2
2 11 -5 78.09 14.3
-2 -11 5 58.99 26.1
1 11 -5 1918.11 158.88
1 11 -5 1989.7 157.68
-1 -11 5 2019 171.28
-1 -11 5 2172.08 159.98
0 11 -5 549.45 47.1
0 -11 5 644.04 49.5
0 -11 5 526.65 59.49
-1 11 -5 226.78 20.9
2 -11 5 1196.38 99.49
3 -11 5 296.77 42.4
3 -11 5 213.28 25.5
4 -11 5 463.25 46.7
4 -11 5 445.46 41.6
5 -11 5 762.62 64.79
-6 11 -5 -11.3 8.7
-6 11 -5 10.1 4.2
-6 11 -5 -3.6 17.9
6 -11 5 14.4 13.7
6 -11 5 -2.4 6.4
7 -11 5 794.02 67.39
5 10 -5 407.36 39.5
5 10 -5 393.96 32.4
-5 -10 5 309.97 37.6
-5 -10 5 278.57 64.69
4 10 -5 1521.95 111.89
4 10 -5 1372.66 108.09
-4 -10 5 1384.86 111.59
-4 -10 5 1169.48 125.19
3 10 -5 152.18 16.9
3 10 -5 162.98 19.2
-3 -10 5 161.68 20.6
-3 -10 5 117.19 28.5
2 10 -5 807.82 63.29
2 10 -5 726.23 66.79
-2 -10 5 718.43 80.29
-2 -10 5 891.81 66.29
1 10 -5 1065.69 86.49
1 10 -5 1012.3 87.59
-1 -10 5 1107.59 99.59
-1 -10 5 1208.58 88.69
0 10 -5 26.1 5
0 -10 5 14.7 8.6
0 -10 5 41 17.7
-1 10 -5 912.11 77.59
1 -10 5 1074.29 88.49
-2 10 -5 1062.69 79.79
2 -10 5 950.7 87.69
-3 10 -5 19.1 4.3
3 -10 5 22.7 7.4
3 -10 5 24.3 6.1
3 -10 5 31 11.6
-4 10 -5 378.16 36
5 -10 5 247.98 29.6
-7 10 -5 655.53 49.99
7 -10 5 651.93 53.39
7 -10 5 541.45 57.09
-8 10 -5 10.1 16.2
-8 10 -5 -0.8 12.3
8 -10 5 22.3 13.6
8 -10 5 -3.2 7.5
6 9 -5 212.48 29.1
6 9 -5 200.38 21.5
6 9 -5 138.79 34.1
-6 -9 5 165.48 23.4
-6 -9 5 195.28 26.1
5 9 -5 1520.35 111.09
5 9 -5 1272.57 105.79
-5 -9 5 1209.08 122.39
-5 -9 5 1445.46 109.29
-5 -9 5 1254.77 108.99
4 9 -5 612.74 55.19
4 9 -5 535.75 49.2
-4 -9 5 694.13 53.09
3 9 -5 370.76 32.3
3 9 -5 409.46 35.4
-3 -9 5 382.06 35.1
2 9 -5 1497.65 125.69
2 9 -5 1678.33 127.69
-2 -9 5 1549.34 138.49
-2 -9 5 1723.43 127.89
1 9 -5 89.69 13.3
1 9 -5 134.39 12.3
-1 -9 5 115.19 18.1
0 9 -5 118.39 13.2
0 9 -5 113.89 14.1
0 9 -5 125.99 11.7
0 -9 5 128.49 54.69
0 -9 5 82.39 16
0 -9 5 155.88 26.7
-1 9 -5 768.02 62.49
-1 9 -5 872.81 63.89
1 -9 5 655.33 97.39
1 -9 5 705.93 64.29
-2 9 -5 6.3 3.3
-2 9 -5 4.8 5.3
-2 9 -5 6.2 5.1
2 -9 5 3.4 5
2 -9 5 14.6 35.9
2 -9 5 18.9 9.8
-3 9 -5 495.35 35.2
-3 9 -5 410.96 38.1
3 -9 5 429.06 38
3 -9 5 366.06 41.1
-4 9 -5 570.14 43
-4 9 -5 478.85 46.3
4 -9 5 546.85 45.7
-5 9 -5 20.8 8.2
5 -9 5 19.6 9.9
5 -9 5 33.4 7.4
-6 9 -5 383.06 42.1
6 -9 5 523.55 44.2
-7 9 -5 97.59 10.6
7 -9 5 105.19 14.8
7 -9 5 74.59 18.8
7 8 -5 229.18 35.5
7 8 -5 172.38 29.7
7 8 -5 200.68 21
-7 -8 5 153.38 24.5
-7 -8 5 180.08 30.2
6 8 -5 767.62 58.79
6 8 -5 649.54 67.59
6 8 -5 707.63 64.39
-6 -8 5 701.73 61.49
-6 -8 5 761.72 62.59
5 8 -5 1972.5 163.08
5 8 -5 2179.98 167.68
-5 -8 5 2024.8 165.58
-5 -8 5 2372.36 167.28
-5 -8 5 1933.21 175.98
4 8 -5 30.1 5.2
-4 -8 5 34.7 18
3 8 -5 1507.95 124.89
3 8 -5 1818.02 147.79
3 8 -5 1752.12 127.69
-3 -8 5 1444.06 146.29
-3 -8 5 1644.04 126.79
-3 -8 5 1462.85 135.69
2 8 -5 1375.26 108.69
2 8 -5 1501.25 110.79
2 8 -5 1191.68 108.29
2 8 -5 1590.54 126.79
2 8 -5 1239.18 109.79
-2 -8 5 1605.24 110.69
-2 -8 5 1332.17 119.69
-2 -8 5 1373.86 138.59
1 8 -5 10.9 19.3
1 8 -5 17.4 5.4
1 8 -5 15.2 4.9
1 8 -5 22.9 4.2
-1 -8 5 71.89 54.89
-1 -8 5 33.7 8
-1 -8 5 34.8 6.4
-1 -8 5 20.4 13.2
-1 -8 5 25.6 8.8
0 8 -5 1255.87 108.89
0 8 -5 1410.16 108.09
0 8 -5 1336.57 109.89
0 8 -5 1420.26 108.09
0 8 -5 1340.97 122.59
0 -8 5 1588.94 118.99
-1 8 -5 808.52 63.79
-1 8 -5 820.42 64.09
-1 8 -5 825.32 61.79
1 -8 5 611.84 89.19
1 -8 5 858.61 70.79
1 -8 5 697.83 64.59
-2 8 -5 475.45 41.2
-2 8 -5 477.35 41.3
-2 8 -5 511.25 38.8
2 -8 5 473.45 41.5
2 -8 5 490.35 46.1
2 -8 5 433.06 64.49
-3 8 -5 1031.6 91.69
-3 8 -5 1182.28 88.59
-3 8 -5 1174.88 91.59
3 -8 5 1254.97 111.49
3 -8 5 1064.79 90.69
-4 8 -5 13.1 24.9
-4 8 -5 15.1 6.1
-4 8 -5 20.3 3.8
-4 8 -5 20.2 8
4 -8 5 10 21.2
4 -8 5 6 7.1
4 -8 5 20 3.8
4 -8 5 27.6 6.3
-5 8 -5 1096.09 89.79
5 -8 5 1027.9 114.79
5 -8 5 1115.09 87.99
5 -8 5 1122.69 85.99
-6 8 -5 825.42 70.19
6 -8 5 831.52 67.59
6 -8 5 756.92 70.09
6 -8 5 897.31 65.69
-7 8 -5 41.6 10.6
7 -8 5 38.4 11.7
-8 8 -5 254.07 29.3
9 -8 5 714.73 61.59
9 -8 5 623.14 57.89
9 -8 5 686.63 57.89
8 7 -5 1485.75 125.99
8 7 -5 1354.76 121.99
-8 -7 5 1527.55 120.19
-8 -7 5 1459.95 118.59
7 7 -5 10 5.8
7 7 -5 15.1 12.3
7 7 -5 8.5 10.1
-7 -7 5 15.6 9.3
-7 -7 5 9.2 8.9
6 7 -5 1323.77 115.89
6 7 -5 1232.18 113.09
6 7 -5 1455.65 109.09
-6 -7 5 1358.96 110.79
-6 -7 5 1542.75 113.19
5 7 -5 1977.6 154.28
5 7 -5 1887.71 149.99
-5 -7 5 1991.5 152.08
-5 -7 5 1859.71 159.68
4 7 -5 109.99 14.3
4 7 -5 168.98 18.4
4 7 -5 228.28 43.6
4 7 -5 137.29 13.5
4 7 -5 142.29 13.6
-4 -7 5 162.58 25.5
-4 -7 5 189.38 36.9
3 7 -5 2134.19 153.78
3 7 -5 1733.43 150.78
3 7 -5 1837.52 150.88
3 7 -5 1824.52 151.58
-3 -7 5 2109.19 152.58
-3 -7 5 2041.5 160.58
-3 -7 5 1987.7 167.48
2 7 -5 723.33 58.59
2 7 -5 801.82 60.69
2 7 -5 692.03 58.99
2 7 -5 663.53 61.69
2 7 -5 757.52 69.29
2 7 -5 692.43 59.59
-2 -7 5 812.72 59.99
-2 -7 5 767.12 68.19
-2 -7 5 846.02 82.19
1 7 -5 481.45 48.9
1 7 -5 440.96 39.3
1 7 -5 488.95 39.9
1 7 -5 495.25 38.5
1 7 -5 480.95 38.5
-1 -7 5 458.25 81.59
-1 -7 5 517.85 48.5
0 7 -5 2726.63 195.38
0 7 -5 2538.05 197.28
0 7 -5 2355.06 196.98
0 7 -5 2587.64 195.78
0 7 -5 2219.78 196.68
0 7 -5 2553.04 206.18
0 -7 5 2805.72 204.88
-1 7 -5 40.2 4.3
-1 7 -5 10.7 13.6
-1 7 -5 29.6 4.5
1 -7 5 5.6 18.6
1 -7 5 46.3 12.6
-2 7 -5 1480.75 123.69
-2 7 -5 1536.55 123.19
-2 7 -5 1798.92 122.99
2 -7 5 1567.94 123.49
2 -7 5 1617.44 121.29
2 -7 5 1562.44 137.79
2 -7 5 1374.36 126.49
-3 7 -5 1504.55 115.89
-3 7 -5 1428.06 112.29
-3 7 -5 1473.05 112.39
-3 7 -5 1544.05 112.89
-3 7 -5 1410.76 116.79
-3 7 -5 1437.56 132.09
3 -7 5 1448.76 113.29
3 -7 5 1415.16 115.09
3 -7 5 1467.95 133.39
-4 7 -5 251.97 19.4
-4 7 -5 240.08 23
-4 7 -5 208.48 24.2
4 -7 5 252.97 22
4 -7 5 240.18 46.3
4 -7 5 203.08 24.3
4 -7 5 242.68 19.9
-5 7 -5 2134.29 157.68
-5 7 -5 2021.5 153.78
5 -7 5 1641.54 157.18
5 -7 5 1823.02 172.68
5 -7 5 2093.69 153.98
5 -7 5 2183.18 155.88
-6 7 -5 609.84 49.4
-6 7 -5 537.25 45.2
6 -7 5 528.05 48.8
6 -7 5 558.04 44.8
6 -7 5 581.14 46.7
6 -7 5 534.45 70.89
-7 7 -5 469.55 44.2
-7 7 -5 501.15 39.8
7 -7 5 477.15 43.4
7 -7 5 487.35 41.1
7 -7 5 471.55 39
-8 7 -5 1395.06 131.59
8 -7 5 1730.43 129.09
8 -7 5 1710.23 131.69
8 -7 5 1669.53 126.69
9 -7 5 239.38 39.2
9 -7 5 231.48 20.8
9 -7 5 230.98 24.6
9 6 -5 1097.49 99.29
9 6 -5 1068.99 96.29
-9 -6 5 1085.79 92.09
-9 -6 5 1206.28 95.69
8 6 -5 207.68 30
8 6 -5 262.77 33.2
-8 -6 5 260.47 26.8
-8 -6 5 269.37 29.3
7 6 -5 294.07 34.6
7 6 -5 337.37 36.9
7 6 -5 290.87 29.6
-7 -6 5 377.46 34.8
-7 -6 5 377.76 32.5
-7 -6 5 366.96 30.4
6 6 -5 1440.66 115.39
6 6 -5 1451.45 121.09
6 6 -5 1264.67 130.19
6 6 -5 1302.67 118.89
-6 -6 5 1701.43 119.79
-6 -6 5 1489.15 116.89
-6 -6 5 1625.84 116.39
5 6 -5 209.28 34.2
5 6 -5 149.69 15.8
5 6 -5 186.18 16.3
5 6 -5 171.08 42.3
5 6 -5 216.38 23
4 6 -5 766.82 69.39
4 6 -5 803.12 69.19
4 6 -5 856.01 72.49
-4 -6 5 1032.9 70.59
-4 -6 5 944.21 76.89
-4 -6 5 901.21 70.69
3 6 -5 1226.28 93.09
3 6 -5 1091.59 90.39
3 6 -5 1047 91.09
3 6 -5 1136.29 91.09
-3 -6 5 1232.98 91.69
-3 -6 5 1229.58 97.69
-3 -6 5 1187.68 99.09
2 6 -5 10.9 3.8
2 6 -5 4.6 2.9
2 6 -5 9.8 2.6
2 6 -5 0.8 7.7
-2 -6 5 -1.3 12.4
-2 -6 5 7 3.4
-2 -6 5 12.3 5.5
-2 -6 5 6.9 7.9
-2 -6 5 -5 6.4
1 6 -5 1351.46 98.89
1 6 -5 1227.68 99.49
1 6 -5 1244.68 99.79
1 6 -5 1282.37 103.49
1 6 -5 1242.98 98.49
0 6 -5 1037.2 76.69
0 6 -5 965 83.79
0 6 -5 962.5 77.79
0 6 -5 922.61 78.19
0 6 -5 1093.89 76.69
0 -6 5 865.21 79.29
0 -6 5 1032.3 83.99
-1 6 -5 514.05 45.7
-1 6 -5 577.54 55.49
-1 6 -5 560.84 46.6
1 -6 5 664.33 52.59
1 -6 5 583.04 45.2
1 -6 5 569.64 59.09
1 -6 5 547.85 47.3
-2 6 -5 1498.05 117.09
-2 6 -5 1488.55 118.09
-2 6 -5 1441.36 120.19
-2 6 -5 1501.25 119.19
2 -6 5 1651.23 119.49
2 -6 5 1500.55 117.49
2 -6 5 1545.45 130.69
-3 6 -5 401.46 33.8
-3 6 -5 393.06 35.4
-3 6 -5 366.66 31.6
3 -6 5 395.66 31.6
3 -6 5 413.96 33.3
3 -6 5 387.86 49.1
-4 6 -5 1676.63 131.69
-4 6 -5 1658.83 134.09
-4 6 -5 1668.73 129.59
4 -6 5 1662.43 144.59
4 -6 5 1471.35 132.39
4 -6 5 1735.03 129.29
4 -6 5 1806.02 130.89
-5 6 -5 2028.5 155.68
-5 6 -5 2112.09 158.18
-5 6 -5 1821.32 160.48
5 -6 5 2043.6 154.98
5 -6 5 2188.38 189.38
5 -6 5 1888.11 158.08
5 -6 5 1946.01 175.78
5 -6 5 2045.5 156.58
-6 6 -5 21.2 6.9
-6 6 -5 12 9.2
-6 6 -5 22.1 4.9
6 -6 5 5.3 36.7
6 -6 5 16 3.4
6 -6 5 61.69 31.1
6 -6 5 23 5.6
6 -6 5 27.4 7.7
-7 6 -5 1403.86 106.59
-7 6 -5 1220.38 103.09
7 -6 5 1195.88 126.79
7 -6 5 1350.86 101.79
7 -6 5 1351.26 103.69
7 -6 5 1273.87 105.19
-8 6 -5 1379.16 107.79
-8 6 -5 1169.68 103.49
8 -6 5 1333.27 101.89
8 -6 5 1339.97 105.89
-9 6 -5 111.29 20.6
-9 6 -5 101.09 15.2
9 -6 5 95.09 17
9 -6 5 67.79 13.8
9 -6 5 85.59 10.9
-10 6 -5 730.73 70.79
10 -6 5 812.02 67.89
10 -6 5 761.22 64.49
9 5 -5 693.93 63.49
9 5 -5 775.72 67.19
-9 -5 5 699.43 60.39
-9 -5 5 684.63 63.89
8 5 -5 94.09 22.8
8 5 -5 89.89 17.4
-8 -5 5 106.89 14.6
-8 -5 5 86.59 18.7
-8 -5 5 102.49 14.9
7 5 -5 941.41 83.79
7 5 -5 935.31 82.19
-7 -5 5 987.2 80.09
-7 -5 5 1056.79 83.19
-7 -5 5 1052.29 81.29
6 5 -5 708.43 85.39
6 5 -5 708.23 62.79
6 5 -5 665.43 58.09
6 5 -5 609.24 60.79
-6 -5 5 810.62 60.59
-6 -5 5 839.12 62.39
-6 -5 5 757.22 59.39
5 5 -5 510.75 64.29
5 5 -5 694.53 51.89
5 5 -5 589.44 52.09
5 5 -5 584.84 47.9
5 5 -5 575.44 47.5
-5 -5 5 568.74 48.9
-5 -5 5 667.43 51.59
4 5 -5 768.22 75.39
4 5 -5 935.11 83.09
4 5 -5 778.52 66.39
4 5 -5 727.93 66.19
-4 -5 5 853.11 67.29
-4 -5 5 953.8 69.49
-4 -5 5 865.71 71.59
-4 -5 5 923.01 68.49
3 5 -5 42.2 7.5
3 5 -5 30.2 5.4
3 5 -5 27.5 4.4
-3 -5 5 35.7 8.7
-3 -5 5 39.5 8.4
-3 -5 5 32 5.5
2 5 -5 1144.19 96.49
2 5 -5 1142.59 95.69
2 5 -5 1157.48 94.99
-2 -5 5 1287.47 95.69
-2 -5 5 1420.36 100.69
1 5 -5 1318.37 104.89
1 5 -5 1294.97 106.59
1 5 -5 1363.26 105.49
-1 -5 5 1348.37 105.09
-1 -5 5 1455.65 105.29
0 5 -5 94.59 12.3
0 5 -5 102.09 11.9
0 5 -5 102.89 9.8
0 5 -5 102.69 10.4
0 -5 5 98.99 12.1
0 -5 5 116.99 17.9
0 -5 5 105.49 21.6
0 -5 5 106.89 9.5
0 -5 5 110.99 9.5
-1 5 -5 2720.13 211.88
-1 5 -5 2564.24 212.88
-1 5 -5 2541.95 214.18
1 -5 5 2800.62 213.58
1 -5 5 3026.7 211.38
1 -5 5 3159.08 223.98
1 -5 5 2576.74 211.78
1 -5 5 2641.54 217.08
1 -5 5 2769.02 220.28
-2 5 -5 1160.08 100.29
-2 5 -5 1279.77 101.69
-2 5 -5 1303.27 103.49
-2 5 -5 1321.27 99.89
2 -5 5 1408.26 115.89
2 -5 5 1289.97 100.19
2 -5 5 1367.46 101.69
2 -5 5 1240.28 109.59
-3 5 -5 600.34 46.5
-3 5 -5 523.35 45.4
-3 5 -5 596.94 49
3 -5 5 569.84 62.39
3 -5 5 594.34 44.6
3 -5 5 558.84 56.69
3 -5 5 634.64 46
3 -5 5 503.45 44.6
3 -5 5 500.45 48.1
-4 5 -5 2258.37 170.98
-4 5 -5 2281.27 174.28
-4 5 -5 2069.09 169.78
4 -5 5 2059.49 171.38
4 -5 5 2113.99 183.28
4 -5 5 2200.88 168.78
4 -5 5 2319.77 170.18
-5 5 -5 218.58 21
-5 5 -5 210.28 24.3
5 -5 5 245.48 53.79
5 -5 5 207.28 20.9
5 -5 5 192.28 39.4
5 -5 5 218.28 19.8
5 -5 5 224.08 18.4
-6 5 -5 720.13 55.89
-6 5 -5 638.04 54.19
6 -5 5 662.73 52.29
6 -5 5 706.63 92.49
6 -5 5 574.14 82.79
6 -5 5 636.94 54.79
6 -5 5 671.53 53.89
-7 5 -5 1186.58 96.49
-7 5 -5 1294.67 98.59
7 -5 5 1241.88 94.29
7 -5 5 1204.98 97.09
7 -5 5 1225.88 95.99
7 -5 5 1015.7 121.89
-8 5 -5 202.58 23.6
-8 5 -5 192.08 21
8 -5 5 185.18 19.8
8 -5 5 136.19 66.19
8 -5 5 205.38 21.4
8 -5 5 190.28 17.4
-9 5 -5 404.06 38.3
-9 5 -5 415.66 41.2
9 -5 5 394.86 34
9 -5 5 411.36 36.8
9 -5 5 434.86 38.7
-10 5 -5 301.07 33.1
10 -5 5 288.57 30.2
10 -5 5 348.37 33
10 -5 5 307.17 27.3
10 4 -5 1209.98 101.89
10 4 -5 1087.99 96.59
-10 -4 5 1104.79 95.19
-10 -4 5 1179.48 97.29
-10 -4 5 1271.27 100.79
9 4 -5 202.08 28
9 4 -5 200.28 24.4
-9 -4 5 214.88 24.9
-9 -4 5 237.18 22.9
-9 -4 5 207.98 27.4
8 4 -5 670.03 60.69
8 4 -5 622.94 57.99
-8 -4 5 752.32 60.09
-8 -4 5 678.73 56.89
-8 -4 5 736.83 60.49
7 4 -5 1348.07 107.59
7 4 -5 1191.48 121.19
7 4 -5 1148.39 104.99
-7 -4 5 1458.55 107.29
-7 -4 5 1443.16 107.09
-7 -4 5 1287.37 103.99
6 4 -5 27.6 23.4
6 4 -5 13 18.5
-6 -4 5 7.1 5.4
-6 -4 5 1.6 5.3
5 4 -5 2024.4 164.48
5 4 -5 2246.28 178.28
5 4 -5 1893.91 163.98
5 4 -5 2027.5 167.68
5 4 -5 2031.4 172.08
-5 -4 5 2353.66 167.68
-5 -4 5 2110.29 165.28
-5 -4 5 2369.06 168.18
4 4 -5 887.41 64.59
4 4 -5 746.93 64.19
4 4 -5 789.02 67.19
4 4 -5 718.73 73.59
4 4 -5 783.72 68.19
-4 -4 5 963.4 67.99
-4 -4 5 856.51 65.09
3 4 -5 344.37 30.2
3 4 -5 363.66 30.8
-3 -4 5 417.26 34.1
-3 -4 5 409.16 31.1
2 4 -5 3452.15 294.27
-2 -4 5 3718.73 294.07
-2 -4 5 3779.22 294.37
-2 -4 5 4210.38 295.97
-2 -4 5 3576.64 293.77
-2 -4 5 4224.88 297.27
1 4 -5 309.07 26
1 4 -5 298.37 26.2
1 4 -5 287.87 24.6
1 4 -5 269.87 24.4
-1 -4 5 306.17 23.9
-1 -4 5 283.67 27.8
-1 -4 5 321.17 24.9
-1 -4 5 292.77 23.8
0 4 -5 4553.74 322.27
0 4 -5 3663.83 322.57
0 4 -5 3989.2 324.57
0 4 -5 4042 324.67
0 4 -5 3898.51 323.27
0 -4 5 4514.35 327.17
0 -4 5 4111.19 322.07
0 -4 5 4610.94 324.67
0 -4 5 4420.46 328.97
-1 4 -5 3970.8 311.17
-1 4 -5 3652.43 312.07
-1 4 -5 3879.71 312.77
-1 4 -5 3981.4 314.57
-1 4 -5 4607.74 311.37
1 -4 5 3839.92 311.67
1 -4 5 3796.42 318.47
1 -4 5 3858.41 315.57
1 -4 5 4424.66 323.07
1 -4 5 4595.44 314.07
-2 4 -5 5.9 3.6
-2 4 -5 12.5 3.3
-2 4 -5 13.7 4.9
-2 4 -5 9.7 5.2
2 -4 5 23.5 11.7
2 -4 5 2.7 7.1
2 -4 5 9.4 3
2 -4 5 2.9 5.2
2 -4 5 6.7 2
-3 4 -5 3624.24 275.67
-3 4 -5 3554.24 272.57
3 -4 5 3781.32 290.57
3 -4 5 3592.64 271.97
3 -4 5 3436.46 270.97
3 -4 5 3327.47 281.97
3 -4 5 3377.66 273.37
-4 4 -5 1231.48 94.59
-4 4 -5 1284.77 98.79
-4 4 -5 1062.39 94.49
4 -4 5 1174.78 94.69
4 -4 5 1292.57 119.59
4 -4 5 1222.58 93.79
4 -4 5 1176.98 92.69
4 -4 5 1129.59 107.19
-5 4 -5 21.3 8.8
-5 4 -5 13.1 4.5
-5 4 -5 20.8 5.2
5 -4 5 13.4 3
5 -4 5 25.5 17.7
5 -4 5 9.6 4.4
5 -4 5 12.6 4.2
5 -4 5 16.8 25
-6 4 -5 1251.97 107.99
-6 4 -5 1235.08 102.09
-6 4 -5 1313.37 102.29
6 -4 5 1267.27 100.79
6 -4 5 1255.97 101.29
6 -4 5 1321.97 99.49
6 -4 5 1354.26 138.39
6 -4 5 1232.88 122.29
-7 4 -5 616.94 53.09
-7 4 -5 720.23 53.99
7 -4 5 589.54 49.6
7 -4 5 574.94 51.69
7 -4 5 592.94 51.29
7 -4 5 790.62 109.69
7 -4 5 621.04 90.49
-8 4 -5 184.18 22
-8 4 -5 214.28 23.2
8 -4 5 229.08 53.09
8 -4 5 185.78 17.5
8 -4 5 184.78 19.8
8 -4 5 210.58 21.1
-9 4 -5 926.21 71.79
-9 4 -5 704.73 69.09
9 -4 5 811.82 67.39
9 -4 5 795.12 64.79
9 -4 5 848.92 68.49
-10 4 -5 35.5 29.2
-10 4 -5 68.39 15.3
10 -4 5 91.29 11.4
10 -4 5 79.79 15.8
10 3 -5 805.82 76.69
10 3 -5 905.11 80.89
10 3 -5 999 76.29
-10 -3 5 948.31 80.49
-10 -3 5 974.6 80.19
9 3 -5 14.9 10.1
9 3 -5 11.4 5.8
-9 -3 5 2.1 8.6
-9 -3 5 15.4 10
-9 -3 5 8.7 11
8 3 -5 847.02 79.19
8 3 -5 997.5 82.49
-8 -3 5 962.3 78.89
-8 -3 5 1059.69 83.69
-8 -3 5 1084.59 82.49
7 3 -5 699.63 51.99
7 3 -5 591.34 72.19
7 3 -5 623.24 54.39
7 3 -5 747.63 57.49
7 3 -5 619.44 52.19
-7 -3 5 656.83 53.89
-7 -3 5 674.33 56.59
-7 -3 5 699.23 58.39
6 3 -5 955.8 67.79
6 3 -5 986.7 87.79
6 3 -5 725.13 70.79
6 3 -5 727.03 69.39
6 3 -5 822.32 80.69
6 3 -5 906.51 71.89
-6 -3 5 896.71 71.49
-6 -3 5 921.21 73.59
-6 -3 5 963.5 67.99
-6 -3 5 844.12 69.19
5 3 -5 2501.05 193.48
5 3 -5 2130.39 191.78
5 3 -5 2736.93 202.88
5 3 -5 2295.47 198.28
5 3 -5 2238.58 190.58
5 3 -5 2760.72 190.38
-5 -3 5 2605.24 195.48
-5 -3 5 2382.96 191.38
-5 -3 5 2535.75 193.28
-5 -3 5 2576.14 190.68
4 3 -5 204.38 18.2
4 3 -5 231.18 18.4
4 3 -5 202.68 20.6
4 3 -5 258.27 27.7
4 3 -5 212.08 25
-4 -3 5 227.78 25
-4 -3 5 247.98 18.9
3 3 -5 3293.17 262.47
3 3 -5 2945.41 260.37
-3 -3 5 3452.05 263.77
-3 -3 5 3876.61 264.97
-3 -3 5 3411.36 261.17
-2 -3 5 4014.6 306.37
-2 -3 5 3752.42 304.67
-2 -3 5 3905.01 304.47
-2 -3 5 4012.1 305.17
-2 -3 5 4150.58 306.57
1 3 -5 253.27 20.3
1 3 -5 241.58 22.2
-1 -3 5 239.78 20.1
-1 -3 5 269.07 22.2
-1 -3 5 234.48 20.1
-1 -3 5 260.87 21.1
-1 -3 5 253.47 23.2
0 3 -5 5431.46 422.26
0 3 -5 5295.47 419.16
0 3 -5 5704.03 420.06
0 3 -5 5392.86 416.56
0 3 -5 5090.19 416.46
0 -3 5 4748.73 419.76
0 -3 5 5108.29 416.76
0 -3 5 5935.41 418.36
0 -3 5 5702.03 425.56
0 -3 5 6014.9 418.86
0 -3 5 5358.46 417.76
-1 3 -5 1890.81 156.78
-1 3 -5 2200.48 161.28
-1 3 -5 2161.08 156.78
1 -3 5 1930.51 157.38
1 -3 5 2153.48 158.28
1 -3 5 1769.82 162.68
1 -3 5 1910.81 158.08
1 -3 5 2098.19 169.08
1 -3 5 2152.48 160.08
1 -3 5 2164.08 158.68
-2 3 -5 618.54 48.3
-2 3 -5 623.44 51.69
2 -3 5 502.05 54.99
2 -3 5 658.53 49.1
2 -3 5 612.34 48.4
2 -3 5 615.14 61.79
2 -3 5 594.14 47.5
-3 3 -5 4639.74 326.87
-3 3 -5 4112.99 321.77
-3 3 -5 4035.6 322.57
3 -3 5 4258.77 322.87
3 -3 5 4219.98 322.07
3 -3 5 4109.69 321.37
3 -3 5 3897.01 332.67
-4 3 -5 1183.78 91.99
-4 3 -5 1202.48 87.39
4 -3 5 1131.19 111.19
4 -3 5 1100.59 86.49
4 -3 5 1056.29 86.59
4 -3 5 949.9 99.19
4 -3 5 1063.29 85.59
-5 3 -5 501.95 41
-5 3 -5 464.95 42.2
-5 3 -5 513.75 46.8
5 -3 5 495.15 39.2
5 -3 5 470.55 40.1
5 -3 5 481.95 60.59
5 -3 5 519.85 71.79
5 -3 5 488.65 40.5
-6 3 -5 2220.18 191.88
-6 3 -5 2768.62 191.48
-6 3 -5 2513.35 198.08
6 -3 5 2357.16 189.78
6 -3 5 2238.18 212.78
6 -3 5 2349.67 189.88
6 -3 5 2451.45 188.58
6 -3 5 2667.93 226.48
-7 3 -5 99.69 13.6
-7 3 -5 70.39 18.4
-7 3 -5 107.29 15.3
7 -3 5 78.79 11.4
7 -3 5 80.49 9.2
7 -3 5 80.39 11.1
7 -3 5 93.59 42.5
-8 3 -5 998.3 92.89
8 -3 5 1176.48 88.39
8 -3 5 1220.18 90.99
8 -3 5 1095.49 90.09
-9 3 -5 497.25 52.09
9 -3 5 558.54 44.6
9 -3 5 614.04 48.2
9 -3 5 509.35 47
-10 3 -5 78.09 17.2
-10 3 -5 32.4 28.9
10 -3 5 54.79 10.9
10 -3 5 87.99 11.6
11 2 -5 679.23 64.79
11 2 -5 660.23 60.29
11 2 -5 746.33 60.49
-11 -2 5 764.92 65.39
-11 -2 5 714.33 66.39
10 2 -5 101.59 14.1
10 2 -5 118.69 20.3
10 2 -5 91.39 14.9
-10 -2 5 62.79 14.1
-10 -2 5 86.99 18.4
9 2 -5 449.06 41.3
9 2 -5 455.05 37.9
9 2 -5 388.16 37.2
-9 -2 5 473.95 43.6
-9 -2 5 432.96 40.9
8 2 -5 973 72.29
8 2 -5 938.51 74.99
8 2 -5 785.02 71.49
-8 -2 5 927.21 77.69
-8 -2 5 870.21 74.19
7 2 -5 25 6.9
7 2 -5 45.2 23.9
7 2 -5 29 6.1
7 2 -5 32.2 3.1
-7 -2 5 22.6 4.1
-7 -2 5 33.5 6.3
-7 -2 5 22 9.1
-7 -2 5 27.8 7.2
6 2 -5 1884.21 156.88
6 2 -5 1588.64 146.49
6 2 -5 1621.34 144.19
6 2 -5 1999.5 146.69
6 2 -5 1609.34 142.99
6 2 -5 2078.39 160.88
-6 -2 5 1923.21 144.49
-6 -2 5 1938.61 146.39
-6 -2 5 2079.09 143.59
-6 -2 5 1909.31 149.88
5 2 -5 592.64 41.8
5 2 -5 502.05 44.4
5 2 -5 482.85 51.89
-5 -2 5 521.75 42.5
-5 -2 5 565.94 48.2
4 2 -5 682.63 64.59
4 2 -5 745.03 63.59
4 2 -5 665.13 57.79
-4 -2 5 734.23 58.09
-4 -2 5 721.73 56.59
-4 -2 5 758.92 56.59
3 2 -5 3872.81 328.77
3 2 -5 4484.45 330.87
3 2 -5 4711.53 329.47
3 2 -5 4103.39 327.97
3 2 -5 4754.82 327.47
-3 -2 5 4136.69 327.37
-3 -2 5 4223.68 328.17
-3 -2 5 4127.19 332.27
-3 -2 5 3996.9 329.37
2 2 -5 563.04 46.3
2 2 -5 614.74 47.3
2 2 -5 568.44 45.6
2 2 -5 624.54 45.4
-2 -2 5 560.34 45.3
-2 -2 5 515.35 47
-2 -2 5 583.34 46.2
-2 -2 5 623.44 50.19
1 2 -5 1095.09 92.19
1 2 -5 1107.79 88.09
1 2 -5 1265.47 88.69
1 2 -5 1157.08 88.19
1 2 -5 1133.29 90.09
-1 -2 5 1133.79 88.89
-1 -2 5 1155.78 89.09
-1 -2 5 1246.78 92.39
-1 -2 5 991.6 102.09
-1 -2 5 1082.89 88.09
0 2 -5 3893.01 308.37
0 2 -5 3550.64 308.37
0 2 -5 4240.38 311.27
0 2 -5 4105.59 316.47
0 2 -5 4071.79 309.07
0 2 -5 3921.31 311.87
0 -2 5 3871.11 309.57
0 -2 5 3741.93 308.67
0 -2 5 4530.35 309.67
0 -2 5 4321.07 323.37
0 -2 5 4023 309.07
-1 2 -5 1122.99 86.99
-1 2 -5 1044.3 86.59
-1 2 -5 1155.58 86.39
-1 2 -5 1035.3 89.69
-1 2 -5 1056.19 97.69
1 -2 5 1147.99 100.99
1 -2 5 1114.29 87.99
1 -2 5 1122.69 86.99
1 -2 5 1113.89 87.39
1 -2 5 1300.67 87.89
-2 2 -5 1909.31 161.28
-2 2 -5 1918.31 145.39
-2 2 -5 1771.52 145.19
2 -2 5 1827.22 144.79
2 -2 5 1833.62 146.09
2 -2 5 1786.42 146.69
2 -2 5 2080.19 147.09
2 -2 5 1981.3 146.19
-3 2 -5 2851.21 217.98
-3 2 -5 3008.3 224.78
-3 2 -5 2560.14 218.78
3 -2 5 2959.8 241.18
3 -2 5 2709.63 219.48
3 -2 5 3006.5 220.38
3 -2 5 3112.39 219.68
3 -2 5 2782.82 218.98
3 -2 5 2646.14 217.98
-4 2 -5 50.59 4.2
-4 2 -5 62.09 12.6
-4 2 -5 42.6 6
4 -2 5 45.9 23.1
4 -2 5 37.3 6.3
4 -2 5 44.7 4.9
4 -2 5 46.9 5.8
-5 2 -5 1885.11 150.88
-5 2 -5 2258.27 154.08
-5 2 -5 1727.53 155.58
-5 2 -5 2257.67 161.18
5 -2 5 1918.61 151.98
5 -2 5 1861.01 152.88
5 -2 5 1846.02 172.68
5 -2 5 1985.3 151.08
5 -2 5 2038.5 183.28
5 -2 5 1895.71 152.58
-6 2 -5 737.03 68.49
-6 2 -5 899.71 66.49
-6 2 -5 904.11 74.09
-6 2 -5 757.42 62.99
6 -2 5 868.81 105.29
6 -2 5 836.12 64.19
6 -2 5 807.72 65.19
6 -2 5 778.12 65.29
6 -2 5 752.92 93.49
-7 2 -5 274.57 36.5
-7 2 -5 384.96 31.3
-7 2 -5 292.67 32.8
7 -2 5 330.47 29.3
7 -2 5 349.07 27.7
7 -2 5 466.75 97.59
7 -2 5 314.97 29
-8 2 -5 1214.98 89.99
-8 2 -5 1041.6 92.19
8 -2 5 1024.2 87.59
8 -2 5 1146.59 88.09
8 -2 5 897.51 141.39
8 -2 5 1096.39 85.89
-9 2 -5 52.99 14.3
9 -2 5 67.99 9.8
9 -2 5 62.69 12.5
9 -2 5 44.5 10.1
-10 2 -5 475.15 56.09
10 -2 5 502.65 46.8
10 -2 5 617.64 49
10 -2 5 494.95 44.9
11 1 -5 191.98 22.5
11 1 -5 198.48 23.9
11 1 -5 226.28 29.6
-11 -1 5 166.58 31.8
-11 -1 5 214.38 29.3
10 1 -5 293.87 26.9
10 1 -5 288.97 30.9
10 1 -5 285.67 26.1
-10 -1 5 285.07 30.4
-10 -1 5 257.17 34.3
9 1 -5 1142.19 91.99
9 1 -5 1235.18 88.99
9 1 -5 1057.09 88.29
-9 -1 5 1019.6 95.19
-9 -1 5 1112.29 91.29
8 1 -5 21.3 7.4
8 1 -5 9.4 30.2
8 1 -5 18.9 4.2
8 1 -5 13 5.3
-8 -1 5 21.6 4.6
-8 -1 5 16.1 6.2
-8 -1 5 11.2 9.3
7 1 -5 1856.71 157.58
7 1 -5 1939.61 140.69
7 1 -5 1894.91 138.49
7 1 -5 1708.13 137.89
-7 -1 5 1620.34 139.79
-7 -1 5 1642.34 144.39
6 1 -5 1176.28 108.59
6 1 -5 1153.18 96.19
6 1 -5 1262.57 94.89
6 1 -5 1416.06 114.39
-6 -1 5 1210.88 96.39
-6 -1 5 1088.49 100.39
5 1 -5 197.08 14.9
5 1 -5 180.88 16.5
5 1 -5 205.68 17.9
5 1 -5 136.19 28.7
-5 -1 5 179.68 16.4
-5 -1 5 199.18 22.7
4 1 -5 2722.03 217.08
4 1 -5 2544.35 205.18
4 1 -5 2739.13 204.48
-4 -1 5 2243.38 209.18
-4 -1 5 2715.33 210.38
-4 -1 5 2540.45 205.58
-4 -1 5 2942.41 204.78
-4 -1 5 2749.43 203.38
3 1 -5 1762.72 142.09
3 1 -5 2050.79 141.59
3 1 -5 1705.93 142.59
3 1 -5 1983.4 142.59
-3 -1 5 1541.05 146.89
-3 -1 5 1882.11 147.39
-3 -1 5 2048.79 141.59
-3 -1 5 1678.43 143.49
-3 -1 5 1893.71 142.79
2 1 -5 39 4.3
2 1 -5 45.2 4.5
2 1 -5 47.4 7.2
2 1 -5 33 4.6
2 1 -5 34.3 19.4
2 1 -5 42 6.2
2 1 -5 30.5 4.7
-2 -1 5 34.4 9
-2 -1 5 34.2 6.8
-2 -1 5 50.89 12.7
-2 -1 5 39.8 4.2
-2 -1 5 50.59 5.6
1 1 -5 3180.18 222.48
1 1 -5 3084.89 222.58
1 1 -5 3117.49 222.48
1 1 -5 2718.73 222.48
1 1 -5 2991 233.78
1 1 -5 2463.25 222.38
1 1 -5 3000.3 224.48
-1 -1 5 2704.73 226.88
-1 -1 5 2895.31 222.48
-1 -1 5 2807.12 223.48
0 1 -5 2118.69 177.18
0 1 -5 1962.1 165.18
0 1 -5 2271.57 167.98
0 1 -5 2061.69 165.28
0 1 -5 2425.76 166.18
0 -1 5 2096.09 184.98
0 -1 5 1981.4 165.08
0 -1 5 2208.88 166.48
0 -1 5 2253.37 165.68
0 -1 5 2097.09 165.38
-1 1 -5 797.52 57.69
-1 1 -5 652.83 57.29
1 -1 5 731.23 57.49
1 -1 5 782.32 58.59
1 -1 5 733.23 75.29
1 -1 5 727.93 57.59
1 -1 5 728.63 56.89
-2 1 -5 2548.95 211.18
-2 1 -5 2573.74 207.58
-2 1 -5 2713.73 226.28
2 -1 5 2767.02 240.18
2 -1 5 2861.51 208.38
2 -1 5 2554.64 207.68
2 -1 5 2806.22 208.58
2 -1 5 2916.81 209.68
2 -1 5 2635.24 208.58
-3 1 -5 127.09 11.6
-3 1 -5 153.38 12
-3 1 -5 170.28 19
-3 1 -5 122.49 30.4
3 -1 5 132.89 11.3
3 -1 5 137.69 12.2
3 -1 5 125.29 32.4
3 -1 5 130.49 12.6
-4 1 -5 727.03 53.69
-4 1 -5 639.94 78.69
-4 1 -5 609.74 53.89
4 -1 5 696.43 53.59
4 -1 5 681.23 54.19
4 -1 5 707.73 54.29
4 -1 5 736.33 85.09
4 -1 5 670.83 54.79
4 -1 5 724.53 55.49
-5 1 -5 839.02 70.89
-5 1 -5 820.52 74.29
-5 1 -5 907.71 68.99
-5 1 -5 981.6 78.29
-5 1 -5 831.52 99.99
5 -1 5 918.81 69.79
5 -1 5 924.01 69.39
5 -1 5 835.22 70.39
5 -1 5 881.31 70.09
5 -1 5 933.51 106.49
-6 1 -5 89.79 15.6
-6 1 -5 66.59 7.6
-6 1 -5 76.39 10.2
-6 1 -5 61.99 15.4
6 -1 5 58.29 8.9
6 -1 5 74.79 44.6
6 -1 5 69.49 8
6 -1 5 56.69 9.1
-7 1 -5 657.83 53.29
-7 1 -5 555.94 62.69
-7 1 -5 669.03 60.99
7 -1 5 680.53 55.79
7 -1 5 708.33 54.19
7 -1 5 770.02 55.79
7 -1 5 631.14 107.89
-8 1 -5 268.97 34
8 -1 5 293.07 28.7
8 -1 5 291.07 163.48
8 -1 5 290.47 25.6
8 -1 5 320.27 28.2
-9 1 -5 176.78 31.2
9 -1 5 149.88 20.2
9 -1 5 191.58 21
9 -1 5 162.08 17
-10 1 -5 828.12 84.79
10 -1 5 955.9 76.89
10 -1 5 912.51 72.89
11 0 -5 11.6 7.1
11 0 -5 19.1 12.6
11 0 -5 10.8 6
-11 0 5 4.7 10
-11 0 5 25 17.7
10 0 -5 1230.18 96.99
10 0 -5 1176.68 94.09
10 0 -5 1218.28 92.89
-10 0 5 1021.7 103.99
-10 0 5 1170.28 95.79
9 0 -5 797.02 61.49
9 0 -5 795.52 64.49
9 0 -5 755.52 60.79
-9 0 5 680.53 68.99
-9 0 5 753.52 63.59
8 0 -5 563.84 43.9
8 0 -5 464.85 40.1
8 0 -5 549.85 41.2
8 0 -5 454.95 69.09
8 0 -5 553.84 75.29
-8 0 5 475.55 42.7
-8 0 5 421.76 47.1
7 0 -5 2363.16 188.68
7 0 -5 2482.45 207.08
7 0 -5 2631.54 187.08
7 0 -5 2322.47 186.28
-7 0 5 2274.27 188.28
6 0 -5 506.55 39.4
6 0 -5 479.15 57.79
6 0 -5 462.85 38.6
-6 0 5 557.94 39.9
-6 0 5 411.36 45.6
-6 0 5 481.95 40.8
-6 0 5 494.75 51.49
5 0 -5 1005.1 77.29
5 0 -5 854.91 75.29
5 0 -5 1040.3 76.29
5 0 -5 962.9 74.69
5 0 -5 939.01 91.79
-5 0 5 1084.59 87.59
-5 0 5 864.51 82.29
-5 0 5 1042 77.79
4 0 -5 4490.45 354.06
4 0 -5 4430.46 336.27
4 0 -5 4169.78 336.87
4 0 -5 4858.01 335.27
-4 0 5 3633.44 341.67
-4 0 5 4107.19 337.47
-4 0 5 4918.81 337.17
3 0 -5 612.64 51.29
3 0 -5 556.04 51.49
3 0 -5 730.83 50.69
-3 0 5 724.63 50.79
-3 0 5 744.03 62.99
-3 0 5 631.24 51.79
-3 0 5 687.13 52.29
-3 0 5 565.04 53.59
2 0 -5 2096.79 174.38
2 0 -5 2281.97 173.68
2 0 -5 2199.38 175.78
2 0 -5 2023.7 174.28
2 0 -5 2428.46 173.98
-2 0 5 2298.37 175.48
-2 0 5 2424.56 174.08
-2 0 5 2358.86 174.58
1 0 -5 4244.28 364.36
1 0 -5 4900.61 364.16
1 0 -5 4741.53 364.36
1 0 -5 4904.81 388.76
1 0 -5 5057.19 366.36
-1 0 5 5375.26 406.36
-1 0 5 4741.23 364.26
-1 0 5 4271.77 364.26
-1 0 5 4646.33 365.46
0 0 -5 3.6 1.3
0 0 -5 0 1.9
0 0 -5 2.5 16.5
0 0 5 4.3 2.5
0 0 5 1.1 1.3
0 0 5 4.6 1.7
0 0 5 4.3 1.6
0 0 5 3.1 5.4
0 0 5 -3.2 20.8
-1 0 -5 3078.19 233.98
1 0 5 2860.81 232.88
1 0 5 3158.78 233.38
1 0 5 3179.88 234.58
1 0 5 2889.71 233.18
-2 0 -5 580.54 46.3
-2 0 -5 555.04 65.39
2 0 5 540.35 43
2 0 5 537.35 42.6
2 0 5 544.25 44.2
2 0 5 534.45 69.59
2 0 5 521.25 43.1
-3 0 -5 587.84 72.79
-3 0 -5 588.24 52.89
-3 0 -5 560.24 49.8
3 0 5 667.63 49.5
3 0 5 719.03 49.1
3 0 5 631.34 49.1
3 0 5 592.04 49.6
3 0 5 616.44 48.7
3 0 5 628.54 79.19
-4 0 -5 1763.62 166.08
-4 0 -5 1572.14 140.19
-4 0 -5 1814.12 136.29
4 0 5 1852.21 137.39
4 0 5 1730.03 136.09
4 0 5 1752.32 135.89
4 0 5 1787.82 136.09
4 0 5 1889.01 169.38
4 0 5 1680.13 136.59
-5 0 -5 146.39 42.7
-5 0 -5 170.68 21.3
-5 0 -5 191.88 23.3
-5 0 -5 150.88 14.5
5 0 5 151.98 15.2
5 0 5 152.48 14.7
5 0 5 155.08 14.3
5 0 5 172.08 45
5 0 5 141.69 15
-6 0 -5 803.32 113.69
-6 0 -5 830.92 75.79
-6 0 -5 880.01 69.99
6 0 5 911.11 121.99
6 0 5 842.02 70.69
6 0 5 958 70.49
6 0 5 898.21 69.69
-7 0 -5 1003.6 92.09
-7 0 -5 993.1 90.49
-7 0 -5 1060.19 82.69
7 0 5 1123.29 151.28
7 0 5 988.2 84.59
7 0 5 1100.89 83.29
7 0 5 1129.99 84.59
-8 0 -5 6.8 4.7
-8 0 -5 9.2 11.9
8 0 5 5.8 6.2
8 0 5 5.8 4
-9 0 -5 1063.29 101.69
9 0 5 1090.79 90.79
9 0 5 1130.79 93.99
9 0 5 1276.27 94.29
11 -1 -5 326.47 29.4
11 -1 -5 315.97 28.6
11 -1 -5 332.37 35.2
-11 1 5 341.57 33.6
-11 1 5 243.28 40.5
10 -1 -5 1251.07 96.59
10 -1 -5 1251.77 100.59
-10 1 5 1166.58 100.09
9 -1 -5 164.98 19.1
9 -1 -5 145.89 15.2
9 -1 -5 151.08 14.6
-9 1 5 140.29 17.9
-9 1 5 124.59 24.9
-9 1 5 177.38 15.1
8 -1 -5 1353.66 126.79
8 -1 -5 1250.67 97.99
8 -1 -5 1246.98 95.59
8 -1 -5 1280.87 94.99
-8 1 5 1042.1 103.49
-8 1 5 1154.88 97.19
7 -1 -5 2435.56 213.08
7 -1 -5 2401.36 192.58
7 -1 -5 2262.67 190.08
7 -1 -5 2548.65 190.98
-7 1 5 2222.78 192.08
-7 1 5 2667.33 209.48
-7 1 5 2753.62 191.68
6 -1 -5 229.88 41.6
6 -1 -5 225.58 18
6 -1 -5 207.58 17
6 -1 -5 218.08 19.5
-6 1 5 214.78 19.7
-6 1 5 212.38 32.9
-6 1 5 182.18 25.2
-6 1 5 176.28 17.2
5 -1 -5 2249.57 186.88
5 -1 -5 2055.49 166.18
5 -1 -5 2011 164.28
5 -1 -5 2178.98 165.28
5 -1 -5 1904.61 163.98
-5 1 5 2112.29 166.68
-5 1 5 2495.25 167.78
4 -1 -5 2998.4 259.37
4 -1 -5 2990.1 236.08
4 -1 -5 3016.3 236.38
4 -1 -5 2977.1 235.98
4 -1 -5 2955.3 237.68
4 -1 -5 3242.58 237.18
-4 1 5 3368.56 238.78
3 -1 -5 65.29 6
3 -1 -5 52.69 31.2
-3 1 5 101.79 24.8
-3 1 5 70.49 6.3
-3 1 5 71.89 8.8
2 -1 -5 4720.33 355.56
2 -1 -5 4379.46 353.56
2 -1 -5 4551.24 354.16
2 -1 -5 4351.26 354.16
-2 1 5 4524.35 354.16
-2 1 5 4848.92 353.86
-2 1 5 4910.81 355.76
1 -1 -5 2045.9 212.28
1 -1 -5 2195.18 172.88
1 -1 -5 2395.96 174.98
1 -1 -5 2051.39 173.08
-1 1 5 2342.87 172.88
-1 1 5 2410.96 174.68
-1 1 5 2212.58 172.58
0 -1 -5 879.11 76.69
0 -1 -5 1053.19 110.39
0 -1 -5 1034.5 78.79
0 1 5 968.7 75.89
0 1 5 1026.7 77.99
0 1 5 1000.5 76.29
0 1 5 903.81 114.69
-1 -1 -5 2667.73 222.58
-1 -1 -5 3146.69 255.47
-1 -1 -5 3213.58 224.48
1 1 5 2789.52 222.98
1 1 5 2986.8 253.57
1 1 5 2572.24 221.38
-2 -1 -5 123.79 13.4
-2 -1 -5 53.69 26.8
2 1 5 107.99 9.7
2 1 5 105.09 8.7
2 1 5 93.19 9.8
2 1 5 168.18 43.7
2 1 5 102.59 11.7
-3 -1 -5 1900.11 183.98
-3 -1 -5 2107.99 154.98
3 1 5 2040 184.88
3 1 5 1862.21 150.28
3 1 5 1886.11 150.88
3 1 5 2061.29 151.08
3 1 5 1811.42 151.08
-4 -1 -5 1720.43 141.29
-4 -1 -5 1736.13 176.88
-4 -1 -5 1892.71 144.49
4 1 5 1791.52 139.09
4 1 5 1855.61 139.59
4 1 5 1738.63 139.89
4 1 5 1759.02 139.39
4 1 5 1782.72 140.39
4 1 5 1896.51 178.28
-5 -1 -5 126.09 20
-5 -1 -5 184.98 77.99
-5 -1 -5 176.08 15.4
-5 -1 -5 191.58 23
5 1 5 131.19 15
5 1 5 123.49 45.9
5 1 5 139.99 15.1
5 1 5 152.88 14.2
5 1 5 158.18 14.7
-6 -1 -5 2405.16 258.27
-6 -1 -5 2780.32 210.28
-6 -1 -5 2570.44 216.08
6 1 5 2669.93 209.88
6 1 5 2777.02 211.28
6 1 5 2874.21 210.68
6 1 5 2814.12 257.87
-7 -1 -5 1101.99 87.59
-7 -1 -5 1064.89 95.19
-7 -1 -5 1187.98 212.58
7 1 5 1146.49 156.88
7 1 5 1040.8 87.29
7 1 5 1090.69 89.19
7 1 5 1182.58 88.79
-8 -1 -5 354.16 33.7
-8 -1 -5 360.56 44.9
8 1 5 389.36 33.8
8 1 5 409.76 36.8
8 1 5 430.66 36.3
-9 -1 -5 1679.43 148.59
9 1 5 1821.62 139.89
9 1 5 1673.13 135.89
11 -2 -5 695.63 62.99
11 -2 -5 768.62 58.79
-11 2 5 746.83 61.89
-11 2 5 610.64 71.39
10 -2 -5 564.34 46.6
10 -2 -5 539.55 50.49
-10 2 5 613.14 47.8
9 -2 -5 125.69 16.6
9 -2 -5 109.99 13.2
9 -2 -5 129.29 12.1
-9 2 5 141.99 13.8
-9 2 5 97.89 24.1
-9 2 5 112.29 15.7
8 -2 -5 1752.92 138.99
8 -2 -5 1771.82 139.79
8 -2 -5 1838.22 142.09
-8 2 5 1988.5 141.09
-8 2 5 1623.94 141.19
7 -2 -5 1067.79 86.49
7 -2 -5 1047.9 83.79
7 -2 -5 996.4 113.89
7 -2 -5 1106.59 84.79
-7 2 5 1021.9 86.19
-7 2 5 1197.28 86.39
6 -2 -5 208.58 18.6
6 -2 -5 189.98 16.9
6 -2 -5 124.09 39.4
6 -2 -5 192.08 15.7
-6 2 5 188.68 18.5
-6 2 5 209.08 18.7
-6 2 5 196.28 16
-6 2 5 161.08 24.3
5 -2 -5 2612.04 207.58
5 -2 -5 2492.95 232.48
5 -2 -5 2497.35 206.68
5 -2 -5 2521.05 208.48
5 -2 -5 2794.32 206.48
-5 2 5 2776.72 209.18
-5 2 5 2842.62 206.88
-5 2 5 2958.8 209.88
4 -2 -5 763.32 63.19
4 -2 -5 828.82 64.19
4 -2 -5 879.61 65.09
4 -2 -5 642.84 90.59
-4 2 5 800.82 65.49
-4 2 5 908.31 66.49
3 -2 -5 918.31 65.89
3 -2 -5 793.02 64.39
3 -2 -5 742.63 63.49
3 -2 -5 802.72 64.79
-3 2 5 679.13 69.89
-3 2 5 905.31 63.79
-3 2 5 896.71 66.69
2 -2 -5 2324.57 178.68
-2 2 5 2460.05 180.58
-2 2 5 2191.38 178.18
-2 2 5 2272.57 177.88
1 -2 -5 -22.1 39.9
1 -2 -5 2.4 2.9
1 -2 -5 4.1 3.1
-1 2 5 -1.4 6.8
-1 2 5 -13.5 38
-1 2 5 2.6 1.8
0 -2 -5 2889.31 211.98
0 -2 -5 2772.42 261.27
0 2 5 2944.51 214.68
0 2 5 2529.65 249.58
0 2 5 2648.14 210.38
0 2 5 2729.03 211.08
0 2 5 2621.94 210.48
-1 -2 -5 920.81 116.29
-1 -2 -5 892.01 69.39
-1 -2 -5 845.12 71.19
-1 -2 -5 981 72.29
1 2 5 768.02 105.29
1 2 5 868.61 69.69
1 2 5 863.21 69.49
1 2 5 943.91 71.99
-2 -2 -5 292.27 26.5
-2 -2 -5 310.87 72.89
2 2 5 188.18 48.6
2 2 5 252.67 23.3
2 2 5 275.67 23.5
2 2 5 281.97 25.1
2 2 5 321.27 23.1
-3 -2 -5 3073.89 212.48
-3 -2 -5 2743.53 255.37
3 2 5 2741.93 207.88
3 2 5 2739.93 209.68
3 2 5 2654.63 244.88
3 2 5 2574.14 208.78
3 2 5 2520.05 208.18
3 2 5 2525.25 208.38
-4 -2 -5 431.86 37.4
-4 -2 -5 322.57 73.39
4 2 5 336.77 31.3
4 2 5 367.26 31.4
4 2 5 439.66 35
4 2 5 377.96 83.59
4 2 5 344.97 32
4 2 5 387.66 32.8
-5 -2 -5 1281.97 95.79
-5 -2 -5 1052.49 90.69
5 2 5 1188.88 90.59
5 2 5 1047.3 89.39
5 2 5 1297.47 90.19
5 2 5 989.3 89.89
5 2 5 956.7 181.48
-6 -2 -5 2803.72 199.08
-6 -2 -5 2286.37 192.28
-6 -2 -5 2122.99 267.67
6 2 5 2357.86 248.08
6 2 5 2272.77 191.28
6 2 5 2531.55 193.08
6 2 5 2668.03 192.38
7 2 5 80.59 11.5
7 2 5 63.39 14
7 2 5 81.39 13
-8 -2 -5 1401.56 129.09
8 2 5 1653.93 124.89
8 2 5 1492.35 123.09
-9 -2 -5 923.71 90.99
9 2 5 863.61 77.19
9 2 5 1038.3 81.89
11 -3 -5 1161.68 86.39
11 -3 -5 1139.29 91.19
-11 3 5 903.61 99.79
-11 3 5 1072.99 88.99
10 -3 -5 39 11
-10 3 5 54.59 14.3
-10 3 5 62.89 10.6
-10 3 5 22 17
9 -3 -5 1003.9 75.99
9 -3 -5 939.51 79.49
9 -3 -5 981 76.79
-9 3 5 862.51 78.29
-9 3 5 1046.5 78.59
8 -3 -5 1160.88 85.29
8 -3 -5 1057.19 88.29
8 -3 -5 1126.69 86.19
-8 3 5 1072.79 87.79
-8 3 5 1150.18 88.29
-8 3 5 971.1 94.59
7 -3 -5 12.7 25.3
7 -3 -5 3.6 2.2
-7 3 5 18.4 23.9
-7 3 5 5.5 4.3
-7 3 5 7.5 4.5
-7 3 5 6.8 10
6 -3 -5 2103.79 142.29
6 -3 -5 1816.02 144.79
6 -3 -5 1784.02 171.18
6 -3 -5 1839.32 143.39
-6 3 5 1687.43 142.19
-6 3 5 1827.42 145.89
-6 3 5 1854.31 144.89
5 -3 -5 955.8 75.49
5 -3 -5 838.82 101.19
5 -3 -5 956 76.69
5 -3 -5 947.81 74.89
-5 3 5 869.31 82.09
-5 3 5 927.91 78.09
-5 3 5 1036.1 74.39
-5 3 5 1103.39 77.39
4 -3 -5 312.67 27.1
4 -3 -5 350.96 26.5
4 -3 -5 353.86 28.5
-4 3 5 320.57 26.1
-4 3 5 309.37 29.7
3 -3 -5 2015.8 151.38
3 -3 -5 2090.39 152.28
3 -3 -5 2005.3 152.28
-3 3 5 1999 154.28
-3 3 5 1682.13 156.48
-3 3 5 1922.71 150.58
2 -3 -5 19.4 4.6
2 -3 -5 49.7 42
2 -3 -5 21.3 4
2 -3 -5 15.8 4.8
-2 3 5 14.1 8.1
-2 3 5 19.8 53.99
-2 3 5 23.5 4.2
-2 3 5 23.5 5.9
1 -3 -5 1349.47 116.99
1 -3 -5 1600.24 116.59
1 -3 -5 1464.45 115.69
-1 3 5 1477.85 114.09
-1 3 5 1496.05 114.89
-1 3 5 1613.74 118.39
-1 3 5 1329.77 119.69
-1 3 5 1523.75 115.09
0 -3 -5 1108.49 81.89
0 -3 -5 941.41 181.58
0 -3 -5 950.4 80.89
0 3 5 1024 80.09
0 3 5 1004.7 79.49
0 3 5 1027.1 82.79
0 3 5 1083.09 130.29
-1 -3 -5 246.18 93.69
-1 -3 -5 192.48 17.1
-1 -3 -5 154.88 16.7
1 3 5 158.88 56.09
1 3 5 182.68 14.7
1 3 5 148.19 16.8
1 3 5 148.49 14.6
-2 -3 -5 1654.63 128.99
-2 -3 -5 1451.75 188.78
2 3 5 1690.13 129.29
2 3 5 1656.13 127.09
2 3 5 1369.76 165.88
2 3 5 1765.92 127.19
-3 -3 -5 1371.36 100.19
-3 -3 -5 1126.39 163.98
3 3 5 1356.36 98.09
3 3 5 1243.88 96.69
3 3 5 1145.29 97.89
3 3 5 1138.79 96.29
3 3 5 1045.9 142.89
-4 -3 -5 167.88 20.7
-4 -3 -5 128.79 73.39
4 3 5 137.29 15.4
4 3 5 126.29 16.3
4 3 5 164.18 16.3
4 3 5 230.18 90.89
4 3 5 181.98 16.4
-5 -3 -5 1418.86 231.78
5 3 5 2101.19 147.59
5 3 5 1822.42 145.99
5 3 5 1834.82 203.58
-6 -3 -5 437.66 143.89
-6 -3 -5 510.65 50.39
-6 -3 -5 594.04 52.29
6 3 5 639.24 151.58
6 3 5 646.94 49.8
6 3 5 542.05 48.6
6 3 5 618.34 50.69
-7 -3 -5 196.88 24.4
7 3 5 188.78 21.9
-8 -3 -5 805.82 80.89
-8 -3 -5 1132.99 92.59
8 3 5 1114.79 84.39
8 3 5 871.31 79.49
11 -4 -5 678.93 60.79
11 -4 -5 716.23 54.99
-11 4 5 665.93 57.89
-11 4 5 568.14 71.89
10 -4 -5 164.18 21.4
10 -4 -5 150.68 15.8
-10 4 5 136.19 31.9
-10 4 5 133.09 22.2
-10 4 5 158.68 18.3
9 -4 -5 1832.92 138.89
9 -4 -5 1833.72 141.89
-9 4 5 1539.85 148.59
-9 4 5 1895.21 141.89
-9 4 5 1769.12 140.69
8 -4 -5 373.46 28.3
8 -4 -5 396.16 32.5
8 -4 -5 347.97 29.2
-8 4 5 316.47 31.9
-8 4 5 297.27 38
-8 4 5 324.37 31
7 -4 -5 729.23 58.29
7 -4 -5 636.64 93.99
7 -4 -5 719.03 56.09
-7 4 5 592.74 62.99
-7 4 5 727.53 57.89
-7 4 5 925.41 101.19
-7 4 5 674.53 59.29
6 -4 -5 1864.21 138.49
6 -4 -5 1927.61 137.19
6 -4 -5 1790.42 139.99
-6 4 5 1912.61 136.89
-6 4 5 1484.35 144.69
-6 4 5 1715.63 136.99
-6 4 5 1893.81 139.99
-6 4 5 1621.74 141.59
5 -4 -5 59.19 9.1
5 -4 -5 53.49 33.9
5 -4 -5 73.29 8.1
-5 4 5 60.89 38.5
-5 4 5 58.19 5.8
-5 4 5 40.6 9.8
4 -4 -5 2036.4 145.99
4 -4 -5 2049.79 145.39
4 -4 -5 1932.21 144.49
-4 4 5 1631.44 147.59
-4 4 5 1861.31 143.49
-4 4 5 1633.24 149.69
3 -4 -5 643.54 53.49
3 -4 -5 696.53 52.89
3 -4 -5 675.33 52.19
-3 4 5 559.34 56.49
-3 4 5 597.64 55.39
-3 4 5 728.63 52.79
2 -4 -5 815.22 61.69
2 -4 -5 754.82 62.79
2 -4 -5 708.53 60.89
-2 4 5 790.82 60.29
-2 4 5 807.52 59.39
-2 4 5 732.13 64.29
-2 4 5 753.42 65.59
1 -4 -5 2359.66 174.48
1 -4 -5 2215.38 174.08
-1 4 5 2063.79 176.78
-1 4 5 2372.06 172.48
-1 4 5 2179.58 173.18
0 -4 -5 244.98 22.2
0 -4 -5 260.37 22.5
0 -4 -5 235.68 27.2
0 -4 -5 218.08 87.39
0 4 5 229.78 22.7
0 4 5 265.37 20.6
0 4 5 225.58 24.1
0 4 5 213.68 24.8
0 4 5 254.37 21.1
0 4 5 428.66 107.69
-1 -4 -5 785.82 172.28
-1 -4 -5 1176.28 85.89
1 4 5 1059.49 84.19
1 4 5 1112.89 84.09
1 4 5 997.2 87.09
-2 -4 -5 2603.54 226.18
-2 -4 -5 2964.6 226.68
2 4 5 2867.21 227.68
2 4 5 3071.59 225.08
2 4 5 2528.55 269.77
2 4 5 3265.97 225.18
-3 -4 -5 84.49 14.7
-3 -4 -5 173.78 112.59
-3 -4 -5 96.69 15.2
3 4 5 84.89 11.3
3 4 5 155.78 67.39
3 4 5 100.59 12
3 4 5 86.89 13.6
-4 -4 -5 1597.64 114.29
-4 -4 -5 1118.39 234.58
4 4 5 1164.78 111.09
4 4 5 1382.96 110.49
4 4 5 1573.74 111.59
4 4 5 1229.68 172.48
-5 -4 -5 2120.09 166.68
5 4 5 1921.61 163.48
5 4 5 2173.98 163.78
-6 -4 -5 4.1 10.1
-6 -4 -5 -15.2 9.8
-6 -4 -5 -4.1 7
6 4 5 8.6 6.6
6 4 5 9.1 8.5
6 4 5 10.8 8.8
-7 -4 -5 884.41 79.99
7 4 5 765.02 72.69
7 4 5 982.5 76.49
11 -5 -5 113.39 20.8
11 -5 -5 116.99 15.4
-11 5 5 110.89 19.5
-11 5 5 94.39 26.8
10 -5 -5 583.64 52.09
10 -5 -5 630.54 48.2
-10 5 5 579.74 52.09
-10 5 5 529.15 60.39
-10 5 5 564.84 51.39
9 -5 -5 919.11 79.59
9 -5 -5 1005.4 74.69
-9 5 5 916.61 78.39
-9 5 5 741.33 96.29
-9 5 5 1023.3 76.79
8 -5 -5 26.7 7.8
8 -5 -5 40 7.3
-8 5 5 17 8
-8 5 5 23 6.8
-8 5 5 21.6 12.9
7 -5 -5 1182.18 93.99
7 -5 -5 1147.39 91.59
7 -5 -5 1203.58 90.69
-7 5 5 974.1 95.09
-7 5 5 1193.08 93.09
-7 5 5 1269.37 89.89
6 -5 -5 436.76 37.2
6 -5 -5 478.95 35.2
-6 5 5 355.06 39
-6 5 5 371.16 41.3
-6 5 5 450.55 33.5
5 -5 -5 302.67 26.1
5 -5 -5 330.07 28.3
-5 5 5 314.67 23.9
-5 5 5 321.87 24.9
-5 5 5 279.17 31.8
-5 5 5 536.15 105.69
-5 5 5 255.67 29.6
4 -5 -5 1617.94 127.19
4 -5 -5 1651.83 127.59
4 -5 -5 1616.34 128.89
-4 5 5 1605.34 132.49
-4 5 5 1493.45 131.39
-4 5 5 1782.52 126.29
3 -5 -5 146.09 15.2
3 -5 -5 152.68 17
3 -5 -5 146.19 55.79
3 -5 -5 151.48 15.2
-3 5 5 169.88 14
-3 5 5 148.99 19.6
-3 5 5 176.78 12.9
-3 5 5 120.09 18.4
2 -5 -5 1218.88 93.49
2 -5 -5 1144.09 100.09
2 -5 -5 1174.98 93.29
-2 5 5 1307.57 92.69
-2 5 5 1037.1 96.79
-2 5 5 1203.08 96.99
1 -5 -5 2731.03 220.38
1 -5 -5 2879.61 220.28
1 -5 -5 2670.93 223.78
-1 5 5 3044.3 219.88
-1 5 5 2845.52 223.18
-1 5 5 3233.38 219.18
-1 5 5 2456.05 223.58
0 -5 -5 -79.39 123.89
0 -5 -5 13.3 12
0 -5 -5 24 10.2
0 5 5 8.3 53.09
0 5 5 11.4 3.7
0 5 5 5.3 3.8
0 5 5 16.4 7.5
-1 -5 -5 3106.39 232.08
1 5 5 3063.19 231.08
1 5 5 3415.96 231.08
1 5 5 2667.93 281.87
1 5 5 2527.75 233.98
-2 -5 -5 2422.16 385.46
-2 -5 -5 2725.93 217.58
2 5 5 3075.29 216.68
2 5 5 2646.74 216.18
-3 -5 -5 171.08 21.5
-3 -5 -5 98.79 129.19
-3 -5 -5 192.88 20.4
3 5 5 130.79 20
3 5 5 207.98 81.29
3 5 5 144.29 17.4
3 5 5 183.58 18.4
-4 -5 -5 1565.04 353.46
-4 -5 -5 2516.25 169.48
-4 -5 -5 1839.42 168.48
4 5 5 2095.19 166.18
-5 -5 -5 857.11 68.99
-5 -5 -5 531.05 239.88
-5 -5 -5 646.14 64.39
5 5 5 896.21 66.09
5 5 5 683.73 64.59
-6 -5 -5 396.46 40.3
6 5 5 364.26 37.4
6 5 5 301.87 34.9
-7 -5 -5 1496.65 125.69
7 5 5 1477.45 124.39
10 -6 -5 624.64 47.1
10 -6 -5 602.64 51.99
-10 6 5 502.35 51.29
-10 6 5 523.25 60.89
-10 6 5 545.05 53.59
9 -6 -5 67.19 15
9 -6 -5 64.19 12.8
-9 6 5 34.6 17.8
-9 6 5 59.49 14.4
-9 6 5 79.69 12.9
8 -6 -5 171.28 15.9
8 -6 -5 160.08 17.2
-8 6 5 122.99 21.3
-8 6 5 161.98 26.1
7 -6 -5 533.25 46.2
7 -6 -5 526.55 44.1
7 -6 -5 568.84 43.7
-7 6 5 481.85 50.69
-7 6 5 465.45 48.4
-7 6 5 575.74 41.7
6 -6 -5 1.2 44.7
6 -6 -5 9.3 4.5
6 -6 -5 20.6 7.4
-6 6 5 33.9 65.19
-6 6 5 14 3
5 -6 -5 909.01 70.29
5 -6 -5 841.22 67.49
5 -6 -5 788.12 67.49
-5 6 5 932.11 65.49
-5 6 5 891.41 66.39
-5 6 5 697.63 71.89
-5 6 5 832.62 73.09
4 -6 -5 1371.76 119.09
4 -6 -5 1544.95 117.09
4 -6 -5 1537.85 116.99
-4 6 5 1310.17 121.39
-4 6 5 1637.94 115.09
-4 6 5 1436.86 121.39
-4 6 5 1572.94 116.09
3 -6 -5 39.7 53.49
3 -6 -5 99.49 12
3 -6 -5 78.39 14.6
3 -6 -5 103.39 11.4
-3 6 5 103.49 15.5
-3 6 5 122.79 9.8
-3 6 5 112.49 10.9
-3 6 5 76.39 15.3
2 -6 -5 2419.56 301.37
2 -6 -5 2195.08 183.98
2 -6 -5 2195.58 183.68
-2 6 5 2486.05 187.08
-2 6 5 2569.74 183.78
1 -6 -5 698.93 172.78
1 -6 -5 965.8 82.49
1 -6 -5 1008.9 77.89
1 -6 -5 924.41 78.29
-1 6 5 988.3 79.89
-1 6 5 906.01 82.69
-1 6 5 1121.99 78.09
0 -6 -5 714.53 66.39
0 -6 -5 775.52 60.99
0 -6 -5 598.04 165.28
0 -6 -5 783.32 61.59
0 6 5 705.23 60.69
0 6 5 783.72 60.29
-1 -6 -5 2620.34 194.88
-1 -6 -5 1809.52 322.67
-1 -6 -5 2548.74 195.18
1 6 5 2547.05 256.57
1 6 5 2514.85 194.58
-2 -6 -5 450.65 37.3
-2 -6 -5 396.76 37.7
-2 -6 -5 148.89 145.59
2 6 5 372.06 35.9
2 6 5 431.96 36.3
-3 -6 -5 833.82 68.89
-3 -6 -5 885.91 253.97
-3 -6 -5 845.62 67.89
-3 -6 -5 763.92 70.19
3 6 5 925.21 68.89
3 6 5 724.23 67.49
-4 -6 -5 2128.79 160.48
-4 -6 -5 1504.05 337.97
-4 -6 -5 1727.33 160.88
4 6 5 2252.27 160.38
-5 -6 -5 37 12.3
-5 -6 -5 11.6 15.8
5 6 5 37.3 11.9
-6 -6 -5 810.12 71.69
6 6 5 647.94 68.69
6 6 5 880.71 71.19
10 -7 -5 228.68 22.5
10 -7 -5 223.38 29.6
-10 7 5 233.78 40.6
-10 7 5 193.28 30.8
9 -7 -5 115.89 15.1
-9 7 5 104.19 24.2
-9 7 5 131.49 29.7
8 -7 -5 555.94 46.3
7 -7 -5 222.68 23.9
7 -7 -5 216.08 20.1
7 -7 -5 193.88 19.8
-7 7 5 183.48 26.7
-7 7 5 230.38 18.9
-7 7 5 191.58 27.9
6 -7 -5 571.64 50.09
6 -7 -5 621.64 50.09
6 -7 -5 631.14 53.59
-6 7 5 680.63 48.9
-6 7 5 610.84 56.39
-6 7 5 544.45 56.19
5 -7 -5 1086.09 171.38
5 -7 -5 1296.27 109.19
5 -7 -5 1413.16 106.49
-5 7 5 1269.07 112.09
-5 7 5 1327.57 111.19
-5 7 5 1520.45 105.39
4 -7 -5 4.6 3.7
4 -7 -5 5.5 7
4 -7 -5 10.6 5.5
4 -7 -5 69.59 69.99
-4 7 5 8.1 7.6
-4 7 5 57.49 106.59
-4 7 5 3.9 3.1
-4 7 5 0.7 7.8
3 -7 -5 1741.43 140.39
3 -7 -5 1715.43 141.09
-3 7 5 1652.93 146.19
-3 7 5 1902.71 144.29
-3 7 5 1978.5 140.59
2 -7 -5 1380.66 107.99
2 -7 -5 1202.58 112.09
2 -7 -5 1348.07 108.79
2 -7 -5 998.9 218.98
-2 7 5 1523.05 110.99
-2 7 5 1520.35 108.59
-2 7 5 1363.96 114.29
1 -7 -5 82.09 103.99
1 -7 -5 30.4 7.3
1 -7 -5 37.7 11.7
1 -7 -5 35 6.5
-1 7 5 33.8 7.2
-1 7 5 30 8
-1 7 5 28.4 6.5
-1 7 5 73.89 72.79
0 -7 -5 1124.99 100.19
0 -7 -5 1185.48 94.79
0 -7 -5 1220.58 94.19
0 -7 -5 980.5 242.28
0 7 5 1412.56 178.18
0 7 5 1128.59 94.39
0 7 5 1212.78 93.99
-1 -7 -5 579.64 245.28
-1 -7 -5 823.22 71.29
-1 -7 -5 908.71 70.99
1 7 5 914.91 70.79
1 7 5 880.81 156.68
1 7 5 830.62 70.89
-2 -7 -5 85.79 21
-2 -7 -5 46.3 193.58
2 7 5 115.89 16.1
2 7 5 95.09 18.6
2 7 5 -8.2 73.69
2 7 5 129.99 15.9
-3 -7 -5 545.85 55.39
3 7 5 536.35 116.99
3 7 5 554.34 53.19
-4 -7 -5 212.28 33.1
-4 -7 -5 255.67 27.6
4 7 5 252.27 28.5
4 7 5 201.78 27.7
-5 -7 -5 384.86 49.4
-5 -7 -5 447.26 43.4
5 7 5 355.26 44.6
5 7 5 485.75 44.5
9 -8 -5 873.51 64.99
9 -8 -5 830.02 70.39
-9 8 5 703.13 73.09
-9 8 5 729.63 75.19
8 -8 -5 818.82 69.89
8 -8 -5 780.12 64.59
8 -8 -5 849.81 65.59
-8 8 5 762.12 72.99
-8 8 5 788.82 73.79
7 -8 -5 103.89 12.5
7 -8 -5 136.79 27.7
7 -8 -5 97.49 13.5
-7 8 5 76.09 19.5
-7 8 5 119.49 21.7
6 -8 -5 1778.32 141.89
6 -8 -5 1792.72 140.89
6 -8 -5 1636.94 144.99
-6 8 5 2050.69 140.69
-6 8 5 1755.12 146.99
5 -8 -5 776.32 54.09
5 -8 -5 568.24 58.19
5 -8 -5 671.23 54.99
-5 8 5 609.44 58.79
-5 8 5 715.23 53.79
-5 8 5 621.54 61.19
4 -8 -5 652.33 55.69
4 -8 -5 606.54 54.39
-4 8 5 731.93 59.59
-4 8 5 648.14 61.89
-4 8 5 755.22 55.19
3 -8 -5 1450.45 127.39
3 -8 -5 1619.84 128.99
-3 8 5 1780.52 131.29
-3 8 5 1696.03 135.19
2 -8 -5 236.28 22.2
2 -8 -5 279.97 138.09
2 -8 -5 234.58 24
2 -8 -5 229.58 29.8
-2 8 5 263.07 21.9
-2 8 5 229.08 30
-2 8 5 389.66 102.99
-2 8 5 269.87 23.5
-2 8 5 247.48 24.9
1 -8 -5 807.22 77.79
1 -8 -5 964.7 205.18
1 -8 -5 826.72 72.79
1 -8 -5 933.01 72.09
-1 8 5 1023.8 72.19
-1 8 5 931.41 72.79
-1 8 5 825.92 78.09
0 -8 -5 1126.49 96.19
0 -8 -5 1113.19 101.89
0 -8 -5 1258.17 95.89
0 8 5 1203.78 96.29
0 8 5 1325.67 95.89
0 8 5 1146.09 101.39
-1 -8 -5 170.78 18.7
-2 -8 -5 1029.8 85.19
-2 -8 -5 1042.2 83.39
2 8 5 939.51 83.79
2 8 5 1063.69 83.99
-3 -8 -5 431.56 41
-3 -8 -5 354.06 43.7
3 8 5 492.45 42
3 8 5 443.46 41.9
-4 -8 -5 116.19 25.9
-4 -8 -5 167.58 23.4
4 8 5 122.19 19.5
4 8 5 141.29 24.3
8 -9 -5 257.87 26
8 -9 -5 237.48 32.8
-8 9 5 259.77 38.3
-8 9 5 233.38 35.6
7 -9 -5 637.14 60.29
7 -9 -5 667.13 55.29
-7 9 5 669.83 63.79
6 -9 -5 1410.66 112.89
6 -9 -5 1205.98 120.79
-6 9 5 1623.54 111.79
-6 9 5 1387.56 117.69
-6 9 5 1443.96 120.49
5 -9 -5 155.48 17.3
5 -9 -5 127.69 22.2
-5 9 5 90.79 21.6
-5 9 5 93.89 20.6
-5 9 5 122.19 13.7
4 -9 -5 1041.7 85.29
4 -9 -5 939.31 83.19
-4 9 5 1095.89 87.89
-4 9 5 1174.78 92.89
3 -9 -5 1203.88 94.39
3 -9 -5 1217.08 92.59
3 -9 -5 1062.79 98.79
-3 9 5 1189.28 111.59
-3 9 5 1184.08 96.29
2 -9 -5 -2.1 4.2
2 -9 -5 10.4 11.2
2 -9 -5 7.8 6.9
-2 9 5 2.5 12.6
-2 9 5 2.1 5.4
-2 9 5 5.6 6.7
1 -9 -5 1191.88 100.79
1 -9 -5 1325.37 99.99
1 -9 -5 1111.19 106.09
-1 9 5 1301.07 100.69
-1 9 5 1245.98 106.59
-1 9 5 1345.87 99.79
0 -9 -5 534.65 50.99
0 -9 -5 510.35 57.79
0 -9 -5 646.84 50.19
0 9 5 644.24 50.09
0 9 5 618.14 51.09
0 9 5 582.14 57.09
1 9 5 202.18 25.1
1 9 5 242.98 24
-2 -9 -5 945.11 101.29
-2 -9 -5 1144.79 91.29
-2 -9 -5 1015.4 90.39
2 9 5 1195.08 88.99
2 9 5 993 93.29
2 9 5 1123.99 89.59
7 -10 -5 895.21 67.89
7 -10 -5 719.03 74.99
6 -10 -5 511.65 48.3
-6 10 5 543.35 56.29
-6 10 5 530.15 53.09
-6 10 5 609.44 46.2
5 -10 -5 108.69 18.1
-5 10 5 93.19 20.9
4 -10 -5 936.81 85.09
-4 10 5 1049.7 92.29
-4 10 5 1162.18 84.49
3 -10 -5 191.48 45.1
3 -10 -5 247.48 25.9
-3 10 5 228.38 33.2
-3 10 5 277.87 24.7
2 -10 -5 276.17 39.9
2 -10 -5 317.27 30.8
-2 10 5 308.57 37.7
-2 10 5 315.57 29.5
1 -10 -5 633.54 55.49
1 -10 -5 543.25 62.69
-1 10 5 687.53 62.09
-1 10 5 711.83 55.39
0 -10 -5 104.49 15.6
0 -10 -5 81.99 22
0 10 5 50.49 17.6
0 10 5 72.19 13.8
2 12 -6 439.86 40.7
2 12 -6 450.85 38.5
-2 -12 6 458.65 43.2
-2 -12 6 431.16 60.99
1 12 -6 1282.87 103.29
1 12 -6 1177.38 104.39
-1 -12 6 1327.17 120.89
-1 -12 6 1442.26 105.79
0 12 -6 85.59 13.7
0 12 -6 84.89 15.7
0 -12 6 55.59 18
-1 12 -6 594.24 52.49
1 -12 6 715.83 67.19
2 -12 6 382.46 40
-3 12 -6 15.5 6
-3 12 -6 -5 8.9
3 -12 6 9.9 10.7
3 -12 6 12.9 16.4
4 -12 6 479.55 51.29
4 -12 6 427.16 44
-5 12 -6 202.88 19.1
5 -12 6 191.98 38
5 -12 6 163.28 23.9
4 11 -6 1256.97 103.79
4 11 -6 1397.16 107.49
-4 -11 6 1321.87 108.19
-4 -11 6 1267.27 124.39
3 11 -6 37.3 10.8
3 11 -6 30.6 7
-3 -11 6 2 23.2
-3 -11 6 19.4 11.4
2 11 -6 1483.65 122.59
2 11 -6 1505.15 120.79
-2 -11 6 1603.94 137.59
-2 -11 6 1581.74 126.89
1 11 -6 975.1 87.09
1 11 -6 1065.29 85.99
-1 -11 6 1202.08 88.29
-1 -11 6 1102.89 100.69
0 11 -6 69.69 11
-1 11 -6 1313.17 108.49
1 -11 6 1463.55 119.59
-2 11 -6 384.16 31.2
2 -11 6 324.67 44.1
-3 11 -6 437.06 32
3 -11 6 311.57 35.7
3 -11 6 356.56 41
4 -11 6 582.54 52.89
4 -11 6 621.64 58.39
-5 11 -6 24.6 5.6
5 -11 6 31.1 13.7
5 -11 6 33.3 10
6 -11 6 673.53 58.89
5 10 -6 1194.78 94.59
5 10 -6 1114.19 89.19
-5 -10 6 1153.38 93.39
-5 -10 6 989.2 113.09
4 10 -6 525.35 44.6
4 10 -6 481.35 39.9
-4 -10 6 376.86 59.59
-4 -10 6 483.95 44
3 10 -6 351.76 32.7
-3 -10 6 362.66 33.2
-3 -10 6 283.17 50.09
2 10 -6 1050.09 83.29
1 10 -6 54.19 11.7
-1 -10 6 76.59 20.2
-1 -10 6 75.09 15.4
0 10 -6 217.88 22
0 -10 6 186.28 24.4
-1 10 -6 472.55 43.6
-1 10 -6 607.64 45.9
1 -10 6 467.05 46
-2 10 -6 -1 6
-2 10 -6 4.7 6.1
-2 10 -6 1.2 3
2 -10 6 -4.2 10.9
2 -10 6 7.2 4.9
2 -10 6 -8.8 5.9
-3 10 -6 666.23 58.59
-3 10 -6 774.92 54.99
3 -10 6 610.14 57.89
3 -10 6 675.23 62.79
-4 10 -6 359.66 29.7
4 -10 6 294.77 35.4
-5 10 -6 53.99 12.9
5 -10 6 82.79 17.1
-6 10 -6 1045 81.59
6 -10 6 1023.3 84.79
-7 10 -6 79.79 10.4
-7 10 -6 45.8 15
7 -10 6 67.99 12.8
7 -10 6 103.09 22.5
6 9 -6 886.01 71.19
6 9 -6 875.71 76.19
-6 -9 6 921.61 73.89
-6 -9 6 776.42 72.99
5 9 -6 537.65 48.1
5 9 -6 463.35 42.5
-5 -9 6 447.66 61.49
-5 -9 6 619.44 47.4
4 9 -6 25.7 5.3
-4 -9 6 27.3 9.4
-4 -9 6 0.4 31.9
-4 -9 6 36.6 9
3 9 -6 686.53 56.69
3 9 -6 766.92 59.49
-3 -9 6 742.23 58.99
-3 -9 6 607.14 70.09
2 9 -6 209.18 20.3
2 9 -6 163.28 19.3
2 9 -6 205.48 18
-2 -9 6 227.48 20.4
-2 -9 6 152.38 33.7
1 9 -6 45.6 10.1
1 9 -6 45 7.3
1 9 -6 43.6 8.5
-1 -9 6 33.4 17
-1 -9 6 59.29 10.4
0 9 -6 616.74 55.89
0 9 -6 658.93 57.09
0 9 -6 689.23 54.89
0 -9 6 833.32 67.39
-1 9 -6 134.09 16
-1 9 -6 138.99 13.4
-1 9 -6 135.09 15.9
1 -9 6 154.88 24.7
-2 9 -6 487.85 36
-2 9 -6 450.85 38.9
-2 9 -6 420.96 38.8
2 -9 6 375.16 38.7
2 -9 6 463.75 44.4
-3 9 -6 414.66 40.8
-3 9 -6 521.65 37.3
-3 9 -6 496.25 41
3 -9 6 422.16 40
3 -9 6 411.26 43.9
-4 9 -6 10 3.6
-4 9 -6 11.1 6.9
-4 9 -6 1.2 7
4 -9 6 1.1 4.5
4 -9 6 11.3 9.2
-5 9 -6 886.41 74.59
-5 9 -6 894.91 69.89
5 -9 6 872.21 72.59
-6 9 -6 512.15 47
-6 9 -6 562.24 41.7
6 -9 6 541.35 44.7
6 -9 6 418.56 46.9
-7 9 -6 16.7 9.7
-7 9 -6 4.9 12.8
-7 9 -6 31.2 5.4
7 -9 6 24 5.1
7 -9 6 31.5 9.1
7 -9 6 39.9 13.3
-8 9 -6 276.97 33.5
7 8 -6 403.46 47.8
7 8 -6 415.36 35
7 8 -6 318.47 41.6
-7 -8 6 433.36 39.9
-7 -8 6 376.56 38.5
6 8 -6 911.81 79.79
6 8 -6 994 74.49
6 8 -6 794.92 82.09
-6 -8 6 1007.8 77.39
5 8 -6 355.16 34.7
5 8 -6 336.77 29.2
-5 -8 6 336.27 46.5
4 8 -6 355.06 29.4
-4 -8 6 332.17 41.6
-4 -8 6 348.07 31.5
3 8 -6 828.72 74.79
3 8 -6 923.31 74.79
3 8 -6 1078.69 77.89
3 8 -6 863.71 75.69
-3 -8 6 1060.99 76.69
-3 -8 6 964.5 85.89
2 8 -6 4.1 4.3
2 8 -6 9 4.4
2 8 -6 6.9 4.9
2 8 -6 8.6 3.3
-2 -8 6 10.5 5.3
-2 -8 6 5 7.7
-2 -8 6 3.6 19.4
-2 -8 6 1.8 11.8
1 8 -6 1040.7 95.39
1 8 -6 1059.09 96.99
1 8 -6 1160.48 101.79
1 8 -6 1296.57 93.99
1 8 -6 1283.37 95.69
-1 -8 6 1355.86 105.09
-1 -8 6 1242.78 123.19
0 8 -6 1219.48 98.59
0 8 -6 1252.67 96.69
0 8 -6 1134.19 97.99
0 8 -6 1246.58 97.39
0 8 -6 1174.88 107.39
0 -8 6 1428.46 107.09
-1 8 -6 487.75 40.2
-1 8 -6 502.95 40.2
-1 8 -6 403.36 36.5
-1 8 -6 538.75 37.9
1 -8 6 340.27 60.19
1 -8 6 463.65 41.3
-2 8 -6 1716.33 128.79
-2 8 -6 1618.84 131.69
-2 8 -6 1738.93 131.49
2 -8 6 1604.84 147.89
2 -8 6 1713.33 136.09
2 -8 6 1551.34 131.39
-3 8 -6 226.28 23.1
-3 8 -6 214.58 24.1
3 -8 6 230.08 20.1
3 -8 6 211.78 41.7
3 -8 6 227.68 22.7
3 -8 6 260.97 18.9
-4 8 -6 579.24 54.79
-4 8 -6 605.84 53.29
4 -8 6 636.34 50.09
4 -8 6 690.33 52.79
-5 8 -6 1457.05 116.39
5 -8 6 1434.46 112.49
5 -8 6 1440.76 114.69
-6 8 -6 36.9 9.7
6 -8 6 17 6.4
6 -8 6 33.1 9.9
6 -8 6 16.2 4.4
-7 8 -6 600.54 60.09
7 -8 6 620.94 58.49
7 -8 6 718.73 53.29
7 -8 6 700.83 55.99
8 -8 6 930.91 76.79
8 -8 6 969.4 75.39
8 -8 6 896.21 81.89
-9 8 -6 13.8 17.9
8 7 -6 41.9 19.2
8 7 -6 18.7 13.3
-8 -7 6 53.99 13.5
-8 -7 6 47.5 13.9
7 7 -6 526.85 43.7
7 7 -6 464.35 51.39
-7 -7 6 508.15 46.2
-7 -7 6 582.84 49.2
6 7 -6 1319.27 97.49
6 7 -6 1042.8 101.19
6 7 -6 1215.68 104.89
-6 -7 6 1359.86 99.69
5 7 -6 37.3 7.2
5 7 -6 46.4 13
5 7 -6 44.5 7.4
5 7 -6 28.7 8.6
4 7 -6 1946.41 147.49
4 7 -6 1723.43 144.49
4 7 -6 1783.32 144.09
-4 -7 6 1881.01 145.49
-4 -7 6 1964.4 153.28
3 7 -6 1201.58 88.29
3 7 -6 961.3 86.09
3 7 -6 1044.4 85.39
3 7 -6 1018 86.09
-3 -7 6 1150.88 86.69
-3 -7 6 1206.68 94.79
2 7 -6 543.55 44.1
2 7 -6 493.25 45.2
2 7 -6 520.95 45.1
-2 -7 6 619.34 53.69
-2 -7 6 611.24 45.2
1 7 -6 2685.53 212.88
1 7 -6 2633.04 214.18
-1 -7 6 3023.6 213.48
-1 -7 6 2696.63 225.98
0 7 -6 104.59 12.7
0 7 -6 80.49 8.6
0 7 -6 79.69 10.2
0 7 -6 88.09 10.8
0 -7 6 61.79 12.4
0 -7 6 69.39 31
-1 7 -6 2597.84 196.88
-1 7 -6 2752.62 194.68
-1 7 -6 2235.98 195.18
-1 7 -6 2513.65 197.48
1 -7 6 2489.75 197.88
1 -7 6 2607.44 195.08
1 -7 6 2480.65 212.98
-2 7 -6 1888.21 149.69
-2 7 -6 1836.12 148.49
-2 7 -6 1810.32 150.58
-2 7 -6 1947.11 147.09
2 -7 6 1918.91 147.59
2 -7 6 1782.52 153.38
2 -7 6 2117.49 167.48
2 -7 6 1935.81 150.08
2 -7 6 1976.6 164.98
-3 7 -6 5.9 4.4
-3 7 -6 4 5.3
3 -7 6 -1 7.1
3 -7 6 -4.6 3.5
3 -7 6 -4.5 18
3 -7 6 -13 22.6
3 -7 6 4.5 2.7
-4 7 -6 2305.67 179.18
-4 7 -6 2171.68 176.18
-4 7 -6 2195.18 181.28
4 -7 6 2279.77 176.28
4 -7 6 2496.95 205.28
4 -7 6 2417.56 178.38
4 -7 6 2133.89 191.88
-5 7 -6 1402.26 105.69
-5 7 -6 1209.18 107.99
-5 7 -6 1333.17 102.29
5 -7 6 1294.37 101.79
5 -7 6 1155.48 122.09
5 -7 6 1396.36 103.99
-6 7 -6 165.58 16
-6 7 -6 181.78 20.4
6 -7 6 164.18 15.2
6 -7 6 156.88 17.4
6 -7 6 158.08 20.1
-7 7 -6 1594.14 120.99
-7 7 -6 1493.65 116.89
7 -7 6 1412.56 119.79
7 -7 6 1437.06 115.59
-8 7 -6 437.76 49.3
8 -7 6 456.45 41.1
8 -7 6 480.25 38.7
8 -7 6 493.15 44
-9 7 -6 382.06 46
9 -7 6 490.85 48.1
9 -7 6 479.95 38.5
9 -7 6 481.65 41.8
9 6 -6 463.55 51.59
9 6 -6 577.34 55.09
-9 -6 6 573.34 53.39
-9 -6 6 508.75 47.4
8 6 -6 39.6 15
-8 -6 6 57.39 11.8
-8 -6 6 65.09 14.5
7 6 -6 548.65 57.89
7 6 -6 632.24 54.19
-7 -6 6 749.03 59.39
-7 -6 6 735.93 55.79
6 6 -6 349.47 49.4
6 6 -6 418.16 41.6
6 6 -6 414.16 35.6
-6 -6 6 457.85 37.2
-6 -6 6 486.15 37.7
5 6 -6 861.31 74.19
5 6 -6 936.11 74.19
5 6 -6 840.62 78.89
-5 -6 6 1075.09 76.09
-5 -6 6 1002.7 75.79
4 6 -6 1239.38 102.69
4 6 -6 1193.88 105.49
-4 -6 6 1228.78 103.69
-4 -6 6 1390.86 109.59
-4 -6 6 1551.44 104.99
3 6 -6 5.4 3
3 6 -6 1 2.1
3 6 -6 3.3 5
3 6 -6 10.5 4.6
-3 -6 6 1.4 3.4
-3 -6 6 4.5 7.9
-3 -6 6 7 5.3
2 6 -6 1921.41 146.49
2 6 -6 1890.11 147.39
2 6 -6 1710.13 148.89
-2 -6 6 2055.49 147.09
1 6 -6 1170.38 91.69
1 6 -6 1014.3 92.69
1 6 -6 1202.58 90.49
-1 -6 6 1265.47 91.49
0 6 -6 498.05 42
0 6 -6 583.44 43.4
0 6 -6 477.85 40.9
0 -6 6 504.65 39.7
0 -6 6 434.86 54.59
0 -6 6 468.35 42.7
-1 6 -6 2131.79 176.88
-1 6 -6 2114.19 178.08
-1 6 -6 2149.48 175.48
1 -6 6 2374.56 187.58
1 -6 6 2532.65 175.08
1 -6 6 2239.48 181.38
1 -6 6 2414.76 188.58
1 -6 6 2220.38 175.48
1 -6 6 2317.87 177.98
-2 6 -6 805.82 65.99
-2 6 -6 749.53 64.19
-2 6 -6 793.32 67.59
-2 6 -6 802.72 64.19
-2 6 -6 870.21 63.09
2 -6 6 910.71 81.79
2 -6 6 862.71 66.19
2 -6 6 829.42 64.19
2 -6 6 828.42 75.99
2 -6 6 758.12 69.19
-3 6 -6 508.95 45.1
-3 6 -6 548.85 48.9
-3 6 -6 576.44 46.7
3 -6 6 532.05 60.89
3 -6 6 581.34 46.2
3 -6 6 593.84 66.99
3 -6 6 582.34 44.5
-4 6 -6 2232.98 184.78
-4 6 -6 2112.19 180.18
-4 6 -6 2433.76 182.18
4 -6 6 2349.67 179.48
4 -6 6 2505.15 206.08
4 -6 6 2439.86 181.18
4 -6 6 2222.48 195.58
-5 6 -6 326.67 33
-5 6 -6 306.47 28.6
-5 6 -6 334.57 27
5 -6 6 321.57 27.4
5 -6 6 269.87 28.7
5 -6 6 304.27 25.4
5 -6 6 234.88 45.5
-6 6 -6 670.73 55.89
-6 6 -6 739.83 58.49
6 -6 6 710.33 56.29
6 -6 6 624.84 79.09
6 -6 6 655.03 57.69
6 -6 6 680.23 54.39
-7 6 -6 1163.08 98.39
-7 6 -6 1316.87 101.49
7 -6 6 1236.28 98.59
7 -6 6 1225.28 100.19
7 -6 6 1236.78 96.59
-8 6 -6 28.1 10.1
-8 6 -6 14.7 6.9
-8 6 -6 2.1 13.2
8 -6 6 9.2 3.9
8 -6 6 6.5 5.9
8 -6 6 5 7.8
-9 6 -6 713.63 64.49
-9 6 -6 631.14 59.79
9 -6 6 785.32 61.99
9 -6 6 689.43 59.59
9 5 -6 9.1 12.7
9 5 -6 21.5 9.9
-9 -5 6 9.3 8.7
-9 -5 6 -2.9 8.5
-9 -5 6 -10.9 10.4
8 5 -6 685.73 62.89
8 5 -6 605.14 59.89
-8 -5 6 721.83 58.49
-8 -5 6 798.12 60.49
7 5 -6 278.87 31.3
7 5 -6 263.37 50.69
-7 -5 6 318.07 29.5
-7 -5 6 309.47 27.9
-7 -5 6 335.47 31.3
6 5 -6 293.77 26.1
6 5 -6 330.57 32
6 5 -6 301.27 26.7
6 5 -6 254.67 55.49
6 5 -6 308.37 41.3
-6 -5 6 336.47 28.1
-6 -5 6 365.06 29.8
5 5 -6 1439.06 119.79
5 5 -6 1521.05 119.89
5 5 -6 1399.96 123.49
-5 -5 6 1497.85 120.79
-5 -5 6 1731.03 123.79
-5 -5 6 1682.13 122.79
4 5 -6 31.6 6
4 5 -6 21.4 7.2
4 5 -6 30.1 4.5
-4 -5 6 28.2 6.4
-4 -5 6 33.3 7.5
-4 -5 6 24 5
3 5 -6 988.1 81.99
3 5 -6 962.2 81.19
3 5 -6 991.3 83.39
-3 -5 6 1072.29 81.99
-3 -5 6 1224.88 86.59
2 5 -6 1762.12 141.89
2 5 -6 1822.72 141.09
-2 -5 6 1896.61 141.49
1 5 -6 22.5 4.7
1 5 -6 10.9 5.4
-1 -5 6 14.9 6.6
0 5 -6 2190.68 182.98
0 5 -6 2666.33 180.38
0 5 -6 2293.57 183.48
0 5 -6 2065.69 181.38
0 -5 6 2275.57 182.98
0 -5 6 2256.07 186.68
0 -5 6 2528.15 180.18
0 -5 6 2683.23 188.98
0 -5 6 2122.99 180.28
-1 5 -6 1101.99 96.49
-1 5 -6 1358.86 93.19
-1 5 -6 1180.68 92.89
-1 5 -6 1130.69 94.79
1 -5 6 1218.78 105.69
1 -5 6 1083.49 93.39
1 -5 6 1337.67 99.29
1 -5 6 1185.48 101.19
1 -5 6 1255.67 95.49
-2 5 -6 31.3 5.8
-2 5 -6 19.6 5.3
-2 5 -6 28.8 7.2
2 -5 6 30 17.4
2 -5 6 21.6 3.6
2 -5 6 27.8 5.3
2 -5 6 29.2 10.2
2 -5 6 43.2 14
-3 5 -6 1794.72 138.79
-3 5 -6 1739.23 135.59
3 -5 6 1646.64 133.59
3 -5 6 1574.54 145.59
3 -5 6 1799.22 154.38
3 -5 6 1808.72 135.09
-4 5 -6 709.73 58.99
-4 5 -6 661.93 54.69
4 -5 6 598.74 55.29
4 -5 6 717.53 54.09
4 -5 6 592.74 76.19
4 -5 6 690.43 69.89
4 -5 6 661.53 52.49
-5 5 -6 45.3 8.3
-5 5 -6 36.6 7.7
-5 5 -6 27.5 10.2
5 -5 6 31.5 25.6
5 -5 6 22.2 6.9
5 -5 6 26.2 5.8
5 -5 6 31 5.4
5 -5 6 -19.7 34.2
-6 5 -6 851.81 78.89
-6 5 -6 976.3 73.69
-6 5 -6 865.41 72.49
6 -5 6 897.01 70.09
6 -5 6 919.11 71.79
6 -5 6 883.21 72.69
6 -5 6 980.9 158.18
6 -5 6 770.42 91.49
-7 5 -6 195.48 20.2
-7 5 -6 212.08 21.7
7 -5 6 176.68 17
7 -5 6 187.48 19
7 -5 6 125.79 70.49
7 -5 6 178.18 20.3
-8 5 -6 364.46 37.6
-8 5 -6 485.15 40.7
8 -5 6 378.86 36.2
8 -5 6 394.16 34
8 -5 6 446.96 38
-9 5 -6 316.17 36.7
-9 5 -6 411.86 40.7
9 -5 6 367.46 32
9 -5 6 418.16 36.7
9 -5 6 359.96 34.7
10 4 -6 149.09 22.1
10 4 -6 149.69 27
10 4 -6 140.29 20.4
-10 -4 6 145.09 27.3
-10 -4 6 157.58 23.6
9 4 -6 491.65 46.4
9 4 -6 416.76 42
-9 -4 6 511.35 44.7
-9 -4 6 428.26 45
-9 -4 6 502.55 41.4
8 4 -6 818.52 69.79
8 4 -6 732.23 66.49
-8 -4 6 801.12 65.79
-8 -4 6 862.31 69.29
-8 -4 6 826.22 69.19
7 4 -6 3 4.6
7 4 -6 -17.7 21.5
7 4 -6 5.9 6.5
7 4 -6 1.9 3.9
-7 -4 6 7.5 4.9
-7 -4 6 -2.2 5.6
-7 -4 6 5.4 6.6
6 4 -6 2054.29 165.28
6 4 -6 1835.22 161.48
6 4 -6 2167.58 176.38
6 4 -6 1968.5 171.28
6 4 -6 2083.49 161.18
-6 -4 6 2273.17 166.08
-6 -4 6 2276.07 165.48
-6 -4 6 2056.89 162.48
5 4 -6 1030 85.39
5 4 -6 991.7 88.49
-5 -4 6 1096.79 86.39
-5 -4 6 1174.68 85.69
-5 -4 6 1195.18 89.79
4 4 -6 170.68 16.8
4 4 -6 207.18 20.3
-4 -4 6 229.98 21.2
-4 -4 6 219.58 20.3
-4 -4 6 206.48 17.7
-4 -4 6 199.68 17.9
-3 -4 6 4526.85 336.57
-3 -4 6 4914.51 337.77
-3 -4 6 3960.5 334.17
-3 -4 6 3986.1 334.97
-3 -4 6 4356.06 336.87
-2 -4 6 1372.66 105.29
-2 -4 6 1376.86 105.59
-2 -4 6 1371.76 104.69
-2 -4 6 1278.77 110.79
1 4 -6 1027.6 88.19
1 4 -6 1217.98 94.99
-1 -4 6 1203.88 88.59
-1 -4 6 1084.79 86.69
-1 -4 6 1078.09 85.69
-1 -4 6 1036.3 85.69
0 4 -6 3104.89 241.18
0 4 -6 3208.98 241.28
0 4 -6 3447.76 237.68
0 4 -6 2930.61 237.48
0 -4 6 2858.31 241.48
0 -4 6 3487.35 248.78
0 -4 6 3114.79 238.98
0 -4 6 2859.31 241.78
0 -4 6 2838.32 237.78
-1 4 -6 353.96 32
-1 4 -6 365.56 34.4
-1 4 -6 371.96 30.1
-1 4 -6 428.56 30.2
1 -4 6 342.97 30.7
1 -4 6 417.56 32.4
1 -4 6 428.56 45.3
1 -4 6 424.16 34.8
1 -4 6 330.37 36.9
1 -4 6 399.56 32.2
-2 4 -6 1032.6 86.39
-2 4 -6 1077.29 89.39
-2 4 -6 1159.88 86.69
2 -4 6 1089.59 85.09
2 -4 6 1177.48 86.19
2 -4 6 1176.98 102.29
2 -4 6 942.51 93.39
-3 4 -6 2337.67 184.58
-3 4 -6 2420.86 180.88
3 -4 6 2100.49 190.68
3 -4 6 2258.37 179.08
3 -4 6 2355.86 180.08
3 -4 6 2458.55 200.78
-4 4 -6 28.4 8.8
-4 4 -6 24.1 6
-4 4 -6 26.1 5.7
4 -4 6 21 6.6
4 -4 6 17.9 4.7
4 -4 6 23 19.3
-5 4 -6 908.01 74.89
-5 4 -6 854.41 68.39
-5 4 -6 762.52 68.89
5 -4 6 873.91 103.39
5 -4 6 855.11 69.49
5 -4 6 828.72 67.29
5 -4 6 843.12 66.09
5 -4 6 807.02 90.69
-6 4 -6 639.54 59.59
-6 4 -6 587.34 53.19
-6 4 -6 691.03 53.09
6 -4 6 609.34 51.69
6 -4 6 603.84 49.8
6 -4 6 785.22 100.39
6 -4 6 535.75 77.09
6 -4 6 619.54 51.29
-7 4 -6 169.48 20.2
-7 4 -6 152.68 29
-7 4 -6 182.98 21
7 -4 6 174.08 18.1
7 -4 6 181.58 16.4
7 -4 6 185.38 18.8
-8 4 -6 799.42 73.29
8 -4 6 857.11 68.59
8 -4 6 871.01 70.69
8 -4 6 926.01 71.49
-9 4 -6 29.1 21.5
9 -4 6 48.5 10.7
9 -4 6 44.1 7.2
9 -4 6 72.19 13.6
10 3 -6 11.4 7.8
10 3 -6 15.6 12.6
-10 -3 6 7.6 10.4
-10 -3 6 24.8 14.9
9 3 -6 1128.59 85.39
9 3 -6 1045.8 88.79
9 3 -6 917.31 84.79
-9 -3 6 1088.79 88.69
-9 -3 6 1115.49 90.09
8 3 -6 565.04 53.99
8 3 -6 678.93 54.59
8 3 -6 698.83 57.79
-8 -3 6 669.23 57.29
-8 -3 6 705.33 59.39
7 3 -6 252.27 26.2
7 3 -6 242.48 23.4
7 3 -6 246.78 52.19
-7 -3 6 281.57 21.6
-7 -3 6 259.07 26.2
-7 -3 6 270.57 28.3
-7 -3 6 259.27 23.4
6 3 -6 2912.51 248.48
6 3 -6 3378.56 249.58
6 3 -6 2901.41 238.18
-6 -3 6 3177.18 235.08
-6 -3 6 2893.31 235.88
-6 -3 6 3052.89 238.18
-6 -3 6 3065.39 240.68
5 3 -6 264.57 24.6
5 3 -6 319.17 28
5 3 -6 331.17 36.3
5 3 -6 333.47 26.5
5 3 -6 295.97 39.3
-5 -3 6 327.87 26
-5 -3 6 289.37 25.2
-5 -3 6 306.97 30.2
4 3 -6 1439.86 125.99
4 3 -6 1566.14 128.49
-4 -3 6 1697.93 129.09
-4 -3 6 1603.44 126.89
-4 -3 6 1749.12 127.09
-4 -3 6 1766.92 131.59
3 3 -6 5815.42 459.65
-3 -3 6 6056.09 461.55
-3 -3 6 5768.42 459.45
-3 -3 6 5850.61 459.05
-3 -3 6 6486.85 464.05
-3 -3 6 5941.11 459.85
2 3 -6 135.29 12
-2 -3 6 140.99 13.7
-2 -3 6 140.49 11.6
-2 -3 6 100.59 16.6
1 3 -6 2805.22 231.58
1 3 -6 3227.58 232.18
1 3 -6 2888.01 237.08
1 3 -6 2880.81 234.08
-1 -3 6 3515.55 235.08
-1 -3 6 3320.37 238.18
-1 -3 6 2606.74 232.68
-1 -3 6 2840.22 231.68
-1 -3 6 3126.69 233.08
-1 -3 6 2945.51 232.68
0 3 -6 3241.88 260.37
0 3 -6 3732.63 265.37
0 3 -6 3638.34 266.17
0 3 -6 2944.31 260.37
0 3 -6 3276.07 263.87
0 -3 6 3587.24 261.87
0 -3 6 3791.72 262.47
0 -3 6 3442.46 275.57
0 -3 6 3075.49 260.67
0 -3 6 3223.18 261.77
-1 3 -6 26.4 7.1
-1 3 -6 41.4 7.3
-1 3 -6 31.1 3.6
-1 3 -6 20.7 7.5
-1 3 -6 26.9 3.6
1 -3 6 41 5.9
1 -3 6 17.6 9.1
1 -3 6 37.1 7
1 -3 6 36.4 5.9
1 -3 6 47.9 16.9
1 -3 6 28 4.2
-2 3 -6 3489.55 257.47
-2 3 -6 3352.56 252.07
2 -3 6 3379.06 270.87
2 -3 6 3490.15 253.47
2 -3 6 3163.98 251.87
2 -3 6 3350.76 252.67
2 -3 6 2951.8 253.57
2 -3 6 3018.9 261.67
-3 3 -6 709.23 58.89
-3 3 -6 720.33 57.49
-3 3 -6 839.02 64.49
3 -3 6 656.53 58.99
3 -3 6 663.03 70.79
3 -3 6 734.73 58.19
3 -3 6 793.72 59.19
3 -3 6 726.53 57.49
-4 3 -6 402.46 34.3
-4 3 -6 362.16 37.5
-4 3 -6 445.36 41.2
-4 3 -6 435.66 35.9
4 -3 6 444.76 35.1
4 -3 6 393.26 53.89
4 -3 6 446.96 66.39
4 -3 6 427.36 34.2
4 -3 6 446.46 35.6
-5 3 -6 2547.84 195.88
-5 3 -6 2716.83 203.48
5 -3 6 2532.45 194.98
5 -3 6 2408.56 194.78
5 -3 6 2571.84 227.48
5 -3 6 2312.47 213.48
5 -3 6 2477.35 193.88
-6 3 -6 126.79 16.5
-6 3 -6 104.69 13.2
-6 3 -6 117.19 22.1
6 -3 6 94.79 10.3
6 -3 6 87.89 11.4
6 -3 6 61.29 37
6 -3 6 89.09 11.6
-7 3 -6 941.81 87.39
-7 3 -6 1141.99 97.09
7 -3 6 1119.89 84.39
7 -3 6 975.3 114.09
7 -3 6 1024.8 84.09
7 -3 6 1068.49 82.59
-8 3 -6 822.42 79.79
8 -3 6 1006.9 76.69
8 -3 6 979.9 74.29
8 -3 6 921.91 76.09
-9 3 -6 55.19 13.7
-9 3 -6 36.1 14.3
-9 3 -6 33.2 20.5
9 -3 6 42.4 9.8
9 -3 6 49.7 12.9
9 -3 6 47.2 8.4
10 2 -6 417.26 38.8
10 2 -6 454.95 39.8
10 2 -6 501.95 44.8
-10 -2 6 427.26 43.2
9 2 -6 882.61 73.99
9 2 -6 846.52 85.29
-9 -2 6 1039.3 81.79
8 2 -6 18.8 7
8 2 -6 9.5 3.7
8 2 -6 -1.6 4.4
-8 -2 6 3.1 3.3
-8 -2 6 6.1 9.5
-8 -2 6 5.2 5.9
7 2 -6 1486.25 139.89
7 2 -6 1580.04 124.99
7 2 -6 1660.43 122.89
-7 -2 6 1541.75 124.69
-7 -2 6 1544.45 128.69
6 2 -6 1607.64 129.89
6 2 -6 1855.61 143.39
6 2 -6 1607.44 128.09
6 2 -6 1499.55 141.39
-6 -2 6 1686.03 130.09
-6 -2 6 1756.42 127.59
-6 -2 6 1486.95 133.19
5 2 -6 11.9 13.2
5 2 -6 12.4 4.2
5 2 -6 1.3 16.9
5 2 -6 11.5 2.1
5 2 -6 5.6 2.8
5 2 -6 10.5 2
5 2 -6 6.1 3.1
-5 -2 6 12.9 7.1
-5 -2 6 5.4 4.4
-5 -2 6 12.6 3.4
4 2 -6 2544.85 210.18
4 2 -6 2971.3 215.18
4 2 -6 2675.53 209.28
-4 -2 6 2552.64 210.78
-4 -2 6 2554.14 214.28
-4 -2 6 2808.82 209.48
-4 -2 6 2874.31 208.38
3 2 -6 1762.22 142.39
3 2 -6 2022.6 142.19
3 2 -6 1837.72 141.69
3 2 -6 1797.72 148.09
-3 -2 6 1723.33 143.29
-3 -2 6 1932.91 142.29
-3 -2 6 1684.43 142.99
-3 -2 6 1810.22 146.69
-3 -2 6 1897.71 140.99
2 2 -6 370.66 32.1
2 2 -6 364.36 36.5
2 2 -6 428.56 31.9
2 2 -6 434.16 33.8
2 2 -6 377.26 31.6
-2 -2 6 398.06 31.3
-2 -2 6 377.96 34.9
-2 -2 6 434.36 37.1
-2 -2 6 415.86 35.5
-2 -2 6 350.56 35.1
1 2 -6 2977.7 258.27
1 2 -6 3399.56 265.27
1 2 -6 3749.82 258.57
1 2 -6 3155.28 258.17
1 2 -6 3418.26 260.77
1 2 -6 3453.15 258.27
-1 -2 6 3311.17 258.17
-1 -2 6 3799.82 264.27
-1 -2 6 2992.8 259.97
0 2 -6 1360.76 105.59
0 2 -6 1521.35 104.89
0 2 -6 1383.06 103.09
0 2 -6 1170.08 101.89
0 2 -6 1486.05 107.89
0 2 -6 1316.97 101.99
0 2 -6 1207.28 111.79
0 -2 6 1229.78 121.49
0 -2 6 1376.56 103.09
0 -2 6 1206.58 103.19
0 -2 6 1254.97 102.09
-1 2 -6 559.94 41.1
-1 2 -6 518.45 56.39
-1 2 -6 521.45 41.2
-1 2 -6 472.15 41.4
-1 2 -6 485.95 47.3
1 -2 6 524.25 41.7
1 -2 6 547.35 61.19
1 -2 6 581.24 42.3
1 -2 6 521.65 42.9
1 -2 6 539.55 41.3
-2 2 -6 2041.1 187.58
-2 2 -6 2523.15 203.58
-2 2 -6 2209.18 183.68
2 -2 6 2310.17 185.68
2 -2 6 2304.67 183.48
2 -2 6 2536.45 185.98
2 -2 6 2746.83 184.98
2 -2 6 2446.46 205.98
2 -2 6 2437.16 184.48
-3 2 -6 17.2 8.3
-3 2 -6 3.2 13.7
-3 2 -6 8 2.3
3 -2 6 7.5 2.8
3 -2 6 7 3.2
3 -2 6 3 1.9
3 -2 6 11.1 4
3 -2 6 -3.3 28.1
3 -2 6 6.4 2.2
-4 2 -6 1304.77 97.59
-4 2 -6 1156.58 98.39
4 -2 6 1354.26 99.39
4 -2 6 1221.38 99.49
4 -2 6 1220.48 97.49
4 -2 6 1287.47 98.99
4 -2 6 1315.07 131.09
4 -2 6 1319.17 100.59
-5 2 -6 1403.66 111.09
-5 2 -6 1529.75 114.59
-5 2 -6 1267.07 117.19
5 -2 6 1440.56 141.09
5 -2 6 1498.55 113.09
5 -2 6 1371.66 111.19
5 -2 6 1507.95 112.69
5 -2 6 1452.55 113.49
5 -2 6 1598.84 152.78
-6 2 -6 399.56 42.1
-6 2 -6 467.15 38.8
6 -2 6 450.75 36.4
6 -2 6 508.85 96.89
6 -2 6 445.76 37.7
6 -2 6 430.86 85.19
-7 2 -6 1718.83 150.38
-7 2 -6 2056.69 158.78
7 -2 6 1937.91 145.39
7 -2 6 1926.81 144.19
7 -2 6 1788.42 145.49
7 -2 6 1623.74 179.48
-8 2 -6 289.57 36.6
8 -2 6 317.27 27.3
8 -2 6 293.67 29.2
8 -2 6 368.46 29.7
8 -2 6 192.58 69.69
-9 2 -6 409.26 49.1
9 -2 6 469.85 41
11 1 -6 257.57 28.5
11 1 -6 286.87 28.6
11 1 -6 307.47 33.4
-11 -1 6 231.48 37.9
-11 -1 6 295.97 32.6
10 1 -6 848.02 68.99
10 1 -6 978.7 70.09
10 1 -6 889.31 73.89
-10 -1 6 802.82 72.49
-10 -1 6 725.43 82.69
9 1 -6 172.38 17.7
9 1 -6 186.78 16.4
-9 -1 6 118.99 24.8
-9 -1 6 153.48 19.9
8 1 -6 755.42 60.59
8 1 -6 775.42 58.19
8 1 -6 688.03 57.09
-8 -1 6 640.54 64.29
-8 -1 6 711.13 59.99
7 1 -6 2101.79 149.29
7 1 -6 2102.49 151.38
7 1 -6 1810.12 148.19
7 1 -6 1882.81 168.78
-7 -1 6 1870.21 150.78
-7 -1 6 1698.23 155.48
6 1 -6 177.78 17.1
6 1 -6 143.39 13
6 1 -6 152.18 14.4
6 1 -6 181.38 15.3
6 1 -6 177.68 36.3
-6 -1 6 176.28 22.7
5 1 -6 578.24 46.1
5 1 -6 592.14 67.09
5 1 -6 627.14 47.7
5 1 -6 541.75 46.7
5 1 -6 580.94 50.29
5 1 -6 693.13 49.2
-5 -1 6 628.44 55.29
-5 -1 6 592.54 49.3
-5 -1 6 516.05 53.39
4 1 -6 2888.31 219.18
4 1 -6 2966.4 219.28
-4 -1 6 3126.59 218.28
-4 -1 6 2941.11 225.78
-4 -1 6 2393.46 224.68
-4 -1 6 2714.63 220.68
3 1 -6 4.4 1.7
3 1 -6 5.5 1.7
3 1 -6 7.5 2.9
3 1 -6 6 2.2
3 1 -6 20 23.2
3 1 -6 1.1 2.1
-3 -1 6 3.7 1.5
-3 -1 6 7.4 3.4
-3 -1 6 11.1 7.9
-3 -1 6 3.9 6
2 1 -6 1329.77 99.99
2 1 -6 1118.19 97.79
2 1 -6 1430.36 97.59
2 1 -6 1315.57 98.79
2 1 -6 1172.78 97.79
2 1 -6 1279.87 114.39
-2 -1 6 1227.38 100.09
-2 -1 6 1353.16 97.59
-2 -1 6 1123.49 103.09
1 1 -6 1096.29 93.59
1 1 -6 1196.78 107.89
1 1 -6 1234.98 93.99
1 1 -6 1287.47 93.79
-1 -1 6 1319.77 93.99
-1 -1 6 1229.98 95.39
-1 -1 6 1087.59 125.99
-1 -1 6 1192.08 99.69
0 1 -6 135.29 12.5
0 1 -6 163.88 12.9
0 -1 6 145.19 13.9
0 -1 6 146.19 12.3
0 -1 6 160.88 39
-1 1 -6 1814.92 142.39
-1 1 -6 1702.73 139.09
-1 1 -6 1752.32 156.48
1 -1 6 1763.32 161.98
1 -1 6 1882.61 139.09
1 -1 6 1834.42 138.89
1 -1 6 1850.51 140.19
1 -1 6 1755.22 138.29
-2 1 -6 206.98 22.6
2 -1 6 220.58 18.6
2 -1 6 247.78 19.6
2 -1 6 229.38 20
2 -1 6 202.58 17.7
-3 1 -6 662.63 64.69
-3 1 -6 819.12 60.99
-3 1 -6 798.32 86.19
3 -1 6 811.12 62.49
3 -1 6 825.82 60.09
3 -1 6 704.53 59.89
3 -1 6 735.83 61.19
3 -1 6 798.72 60.99
3 -1 6 857.91 95.49
-4 1 -6 1824.92 133.49
-4 1 -6 1954.7 143.79
-4 1 -6 1580.74 161.98
4 -1 6 1599.64 134.39
4 -1 6 1770.12 133.59
4 -1 6 1753.82 167.28
4 -1 6 1662.93 133.99
4 -1 6 1764.92 133.69
4 -1 6 1599.04 132.89
4 -1 6 1747.53 135.49
-5 1 -6 9.8 7.7
-5 1 -6 14 3.3
-5 1 -6 11.3 4.7
-5 1 -6 15.9 10.7
-5 1 -6 40.7 33.2
5 -1 6 9.5 3.9
5 -1 6 20.3 37.7
5 -1 6 21.1 4
-6 1 -6 1306.87 108.09
-6 1 -6 1388.86 111.19
-6 1 -6 1314.77 115.99
6 -1 6 1375.06 109.19
6 -1 6 1458.45 160.68
6 -1 6 1397.86 110.39
6 -1 6 1560.24 110.59
-7 1 -6 728.73 71.59
-7 1 -6 910.41 78.69
7 -1 6 844.72 64.79
7 -1 6 681.93 118.89
7 -1 6 756.52 65.19
7 -1 6 798.82 63.69
-8 1 -6 29.4 15.3
-8 1 -6 42.3 10.4
8 -1 6 25.3 7.7
8 -1 6 32.4 6.1
8 -1 6 26.6 10.1
-9 1 -6 676.23 72.89
9 -1 6 743.23 63.49
9 -1 6 772.82 60.19
11 0 -6 723.53 64.49
11 0 -6 746.73 58.99
-11 0 6 692.03 63.09
-11 0 6 629.84 69.19
10 0 -6 1189.78 95.49
10 0 -6 1298.07 96.69
10 0 -6 1275.17 100.39
-10 0 6 1073.79 98.59
9 0 -6 8.5 3.7
9 0 -6 4.9 5.9
9 0 -6 10.2 5.3
-9 0 6 6 3.4
-9 0 6 5.4 6.4
-9 0 6 6.8 11.2
8 0 -6 1679.03 130.99
8 0 -6 1817.72 132.09
8 0 -6 1672.33 133.99
-8 0 6 1573.24 133.59
7 0 -6 1588.64 119.49
7 0 -6 1629.54 117.69
7 0 -6 1515.55 116.59
7 0 -6 1499.65 141.89
-7 0 6 1347.87 125.19
-7 0 6 1421.76 119.09
6 0 -6 173.48 15.7
6 0 -6 156.68 21.9
6 0 -6 184.98 14.7
6 0 -6 150.28 36.7
-6 0 6 174.98 27.8
-6 0 6 129.19 22.6
-6 0 6 193.18 16.3
-6 0 6 174.08 17.8
5 0 -6 2507.45 220.78
5 0 -6 2393.46 198.68
5 0 -6 2568.04 199.68
5 0 -6 2375.16 197.58
5 0 -6 2860.21 197.28
5 0 -6 2730.83 198.78
-5 0 6 2558.54 200.38
4 0 -6 1092.99 79.99
4 0 -6 932.41 81.09
4 0 -6 1083.99 79.69
4 0 -6 1016.1 80.69
-4 0 6 1104.59 81.79
-4 0 6 1119.09 92.59
-4 0 6 895.11 82.09
3 0 -6 1642.64 120.19
3 0 -6 1477.45 122.69
3 0 -6 1644.04 123.29
3 0 -6 1466.15 121.09
3 0 -6 1567.44 120.39
-3 0 6 1626.74 120.59
-3 0 6 1517.85 122.19
2 0 -6 2125.49 163.28
2 0 -6 2068.69 162.88
2 0 -6 1927.21 162.68
2 0 -6 1898.61 191.08
2 0 -6 2005.5 161.98
2 0 -6 2197.18 164.78
-2 0 6 2214.88 162.58
-2 0 6 2170.58 164.28
-2 0 6 2339.27 163.68
1 0 -6 15.1 2.4
1 0 -6 23.3 4
1 0 -6 23 23.3
1 0 -6 15.1 2.8
1 0 -6 18.1 3.4
-1 0 6 14.6 7.5
-1 0 6 15.8 2.9
-1 0 6 43.2 33.1
0 0 -6 2505.75 215.98
0 0 -6 2432.26 191.78
0 0 6 2517.15 191.68
0 0 6 2504.05 192.98
0 0 6 2571.54 191.48
0 0 6 2352.56 223.58
-1 0 -6 1289.87 108.29
-1 0 -6 1491.75 111.09
1 0 6 1330.27 107.39
1 0 6 1418.86 109.09
1 0 6 1412.96 107.49
1 0 6 1378.46 107.59
-2 0 -6 741.23 85.09
-2 0 -6 772.72 63.59
2 0 6 726.23 59.69
2 0 6 748.73 92.69
2 0 6 712.73 59.39
2 0 6 767.22 59.69
2 0 6 825.32 61.29
-3 0 -6 2152.98 210.98
-3 0 -6 2672.83 189.08
3 0 6 2369.46 183.78
3 0 6 2260.47 183.98
3 0 6 2426.86 218.08
3 0 6 2360.76 185.18
-4 0 -6 545.15 82.69
-4 0 -6 601.04 52.69
-4 0 -6 573.04 46.8
4 0 6 565.24 46.4
4 0 6 588.84 46
4 0 6 617.84 45.8
4 0 6 627.84 90.59
4 0 6 535.85 46.8
4 0 6 567.24 47.9
-5 0 -6 1248.98 94.49
-5 0 -6 1135.49 100.99
-5 0 -6 1159.18 137.29
5 0 6 1203.48 95.39
5 0 6 1220.78 94.59
5 0 6 1267.77 142.99
5 0 6 1291.37 94.39
5 0 6 1113.09 95.69
-6 0 -6 1597.34 116.09
-6 0 -6 1402.06 121.49
-6 0 -6 1366.16 169.08
-6 0 -6 1505.15 113.39
6 0 6 1339.17 113.69
6 0 6 1586.04 177.98
6 0 6 1488.35 114.79
6 0 6 1362.66 114.79
-7 0 -6 248.98 22.4
-7 0 -6 258.67 35.9
-7 0 -6 202.38 33.2
-7 0 -6 289.67 26.1
7 0 6 263.37 23.6
7 0 6 229.08 22.6
7 0 6 244.28 24.5
-8 0 -6 367.76 49.6
8 0 6 423.06 38.6
8 0 6 493.85 40.4
-9 0 -6 813.72 84.19
9 0 6 850.61 69.59
9 0 6 888.21 72.99
11 -1 -6 1123.49 91.09
11 -1 -6 1209.18 86.29
-11 1 6 877.71 96.69
-11 1 6 1020 89.09
10 -1 -6 895.91 69.69
10 -1 -6 879.41 65.89
10 -1 -6 804.92 64.89
-10 1 6 657.53 75.59
-10 1 6 777.82 68.19
9 -1 -6 441.86 35.4
9 -1 -6 459.05 38.5
9 -1 -6 410.66 34
-9 1 6 399.06 37.4
-9 1 6 351.86 44.7
8 -1 -6 2270.67 175.18
8 -1 -6 2183.68 172.18
8 -1 -6 2359.06 173.08
-8 1 6 2083.99 174.58
7 -1 -6 459.05 73.39
7 -1 -6 563.64 44.5
7 -1 -6 534.65 41.3
7 -1 -6 527.95 42.6
-7 1 6 458.15 44
-7 1 6 575.24 61.19
6 -1 -6 1006.8 87.59
6 -1 -6 1107.39 85.29
6 -1 -6 966.9 112.19
6 -1 -6 1080.79 86.59
-6 1 6 1230.58 87.99
-6 1 6 1083.19 88.29
-6 1 6 1236.48 103.89
5 -1 -6 2731.03 211.98
5 -1 -6 2700.13 212.18
5 -1 -6 2756.32 211.88
5 -1 -6 2402.36 238.08
5 -1 -6 2767.42 214.08
5 -1 -6 2904.41 213.38
-5 1 6 3134.49 214.98
-5 1 6 2637.94 214.88
4 -1 -6 21 3.8
4 -1 -6 35.4 30.1
4 -1 -6 18 4.6
4 -1 -6 17 2.8
-4 1 6 24.2 5.3
-4 1 6 12.2 8.4
-4 1 6 20.6 3.1
-4 1 6 18.2 14.9
3 -1 -6 2195.18 166.38
3 -1 -6 2070.79 164.68
3 -1 -6 1897.91 164.68
-3 1 6 2312.67 164.18
-3 1 6 2107.69 164.98
-3 1 6 2210.18 166.38
2 -1 -6 1367.76 110.89
2 -1 -6 1532.55 112.79
2 -1 -6 1360.46 110.69
-2 1 6 1473.75 110.49
-2 1 6 1403.86 110.69
-2 1 6 1441.66 112.59
1 -1 -6 1276.57 153.68
1 -1 -6 1525.95 108.79
1 -1 -6 1262.87 106.59
1 -1 -6 1313.67 106.19
-1 1 6 1442.26 105.79
-1 1 6 1312.27 106.69
-1 1 6 1361.76 108.19
-1 1 6 1506.75 156.68
0 -1 -6 4224.58 344.77
0 -1 -6 3821.42 305.57
0 -1 -6 4189.38 307.67
0 1 6 3967.2 306.87
0 1 6 3904.41 304.97
0 1 6 3758.82 304.57
-1 -1 -6 256.37 55.89
-1 -1 -6 253.57 22.2
-1 -1 -6 215.18 20.8
1 1 6 165.18 47.8
1 1 6 207.88 20
1 1 6 205.88 18.1
1 1 6 219.98 18.5
-2 -1 -6 1662.03 153.28
-2 -1 -6 2265.97 155.88
-2 -1 -6 1950.9 188.48
2 1 6 2036 153.68
2 1 6 1908.81 151.78
2 1 6 1927.11 188.38
-3 -1 -6 2717.43 248.88
3 1 6 2600.54 208.68
3 1 6 2642.04 208.58
3 1 6 2743.33 207.28
3 1 6 2796.92 210.38
-4 -1 -6 18.8 6.2
-4 -1 -6 36.3 45.1
-4 -1 -6 32.3 13.3
-4 -1 -6 30.7 9.5
4 1 6 30.7 5
4 1 6 28.4 5.1
4 1 6 5.8 64.19
4 1 6 28.1 6.2
4 1 6 21.3 5.6
-5 -1 -6 2055.19 164.68
-5 -1 -6 2018 217.88
5 1 6 2173.98 216.08
5 1 6 2176.68 165.08
5 1 6 2286.37 163.78
5 1 6 2085.09 164.18
5 1 6 1959.3 165.28
-6 -1 -6 1974.6 142.69
-6 -1 -6 1582.54 132.99
6 1 6 1657.33 134.09
6 1 6 1590.24 132.89
6 1 6 1758.12 210.38
-7 -1 -6 16.3 8
-7 -1 -6 -9.3 11.2
-7 -1 -6 9.1 6.1
-7 -1 -6 8.4 13.1
7 1 6 8.9 5.3
7 1 6 13.8 8.3
-8 -1 -6 1644.64 142.79
8 1 6 1560.84 130.79
8 1 6 1773.32 133.79
11 -2 -6 1023.3 83.59
11 -2 -6 1089.99 78.99
-11 2 6 822.32 92.99
-11 2 6 916.51 81.39
10 -2 -6 27.3 7
-10 2 6 17.9 8
-10 2 6 34.8 16.8
-10 2 6 23.6 5.8
9 -2 -6 823.72 67.39
9 -2 -6 844.22 66.89
9 -2 -6 829.92 70.09
-9 2 6 904.81 68.39
-9 2 6 802.22 69.49
8 -2 -6 788.02 62.29
8 -2 -6 774.82 65.59
8 -2 -6 804.72 63.59
-8 2 6 861.71 64.89
-8 2 6 745.43 65.29
7 -2 -6 62.19 9.8
7 -2 -6 42 7.5
7 -2 -6 52.39 5.8
7 -2 -6 25.7 34.7
-7 2 6 62.69 8.8
-7 2 6 63.29 24.5
-7 2 6 49.4 9.7
-7 2 6 43.2 14.1
6 -2 -6 1772.22 125.09
6 -2 -6 1629.44 126.69
6 -2 -6 1528.05 127.69
6 -2 -6 1302.27 155.28
-6 2 6 1649.73 128.49
-6 2 6 1770.22 128.69
5 -2 -6 576.94 48.2
5 -2 -6 552.94 47.3
5 -2 -6 623.84 46.4
5 -2 -6 486.75 80.49
-5 2 6 631.94 49.5
-5 2 6 619.44 49.3
4 -2 -6 899.21 74.09
4 -2 -6 969.5 73.39
4 -2 -6 999 74.99
4 -2 -6 848.02 72.19
-4 2 6 967.7 75.49
-4 2 6 1045.3 72.49
-4 2 6 794.52 79.89
3 -2 -6 1404.36 111.99
3 -2 -6 1508.75 113.49
3 -2 -6 1389.76 112.29
-3 2 6 1488.65 111.29
-3 2 6 1410.16 114.09
2 -2 -6 7.4 4
2 -2 -6 8.4 3.1
-2 2 6 10 2.4
-2 2 6 -1.4 6.1
1 -2 -6 2011.8 168.98
1 -2 -6 2139.39 168.48
1 -2 -6 2423.26 170.28
1 -2 -6 1788.42 217.48
-1 2 6 2363.76 167.18
-1 2 6 1836.02 173.28
-1 2 6 2244.68 167.48
-1 2 6 2342.57 170.78
-1 2 6 2258.87 167.98
0 -2 -6 1210.38 97.89
0 -2 -6 1204.78 95.59
0 -2 -6 1108.49 96.39
0 -2 -6 1207.18 150.78
0 2 6 1275.67 94.69
0 2 6 1128.29 143.89
0 2 6 1265.67 95.69
0 2 6 1250.67 95.09
0 2 6 1335.97 98.39
-1 -2 -6 75.59 10.9
-1 -2 -6 109.19 52.29
1 2 6 81.19 8.6
1 2 6 97.99 11.2
1 2 6 50.99 41.2
1 2 6 73.69 8
-2 -2 -6 3292.77 230.88
-2 -2 -6 2835.82 229.08
2 2 6 3037.9 225.88
2 2 6 2783.82 268.27
2 2 6 2925.01 227.08
2 2 6 2818.02 227.18
2 2 6 2860.81 229.28
-3 -2 -6 2188.38 224.88
3 2 6 2142.69 168.68
3 2 6 2141.39 170.58
3 2 6 2000.8 213.18
3 2 6 2337.17 167.58
3 2 6 2161.78 168.78
-4 -2 -6 285.77 78.69
4 2 6 280.27 29.7
4 2 6 380.36 27.9
4 2 6 329.17 85.59
4 2 6 321.27 28.6
4 2 6 354.36 29.2
-5 -2 -6 2049.7 176.18
5 2 6 2224.08 174.78
5 2 6 2483.85 175.98
5 2 6 2530.45 174.48
5 2 6 1916.21 175.48
-6 -2 -6 483.75 48.6
-6 -2 -6 663.23 57.59
6 2 6 627.24 49.8
6 2 6 518.95 47.4
6 2 6 591.94 49.2
-7 -2 -6 610.84 58.39
-7 -2 -6 582.84 51.99
7 2 6 636.84 56.19
-8 -2 -6 1244.98 105.79
8 2 6 965.8 90.89
8 2 6 1202.98 94.69
11 -3 -6 230.48 23
11 -3 -6 246.98 29.8
-11 3 6 153.18 35.7
-11 3 6 220.38 27.4
10 -3 -6 343.37 35.3
10 -3 -6 387.56 31.5
-10 3 6 382.26 32.5
-10 3 6 279.07 45.5
-10 3 6 357.06 34.5
9 -3 -6 654.33 56.69
9 -3 -6 665.03 53.99
-9 3 6 679.03 56.29
-9 3 6 595.74 75.39
-9 3 6 697.73 55.69
8 -3 -6 24.3 5.3
8 -3 -6 24.7 7.3
-8 3 6 26.1 6.8
-8 3 6 28.5 14.1
-8 3 6 25.4 7.1
7 -3 -6 723.73 116.99
7 -3 -6 801.22 67.49
7 -3 -6 954.9 66.29
7 -3 -6 844.62 69.29
-7 3 6 846.22 69.89
-7 3 6 843.02 69.59
6 -3 -6 435.06 38
6 -3 -6 463.55 36.7
-6 3 6 424.06 45.2
-6 3 6 462.95 39.2
5 -3 -6 476.55 83.59
5 -3 -6 545.55 49
5 -3 -6 609.04 50.29
5 -3 -6 684.83 48.6
5 -3 -6 621.84 50.69
-5 3 6 606.84 51.99
-5 3 6 664.13 48
4 -3 -6 1736.53 129.49
4 -3 -6 1588.54 129.59
4 -3 -6 1616.54 128.49
-4 3 6 1606.84 131.39
-4 3 6 1711.73 127.59
3 -3 -6 206.08 18.9
3 -3 -6 212.18 17.8
3 -3 -6 209.88 18.7
-3 3 6 161.68 22.8
-3 3 6 197.38 17.1
-3 3 6 192.18 20.3
2 -3 -6 667.43 54.79
2 -3 -6 668.33 55.59
2 -3 -6 759.62 56.19
-2 3 6 630.04 60.19
-2 3 6 689.23 54.39
-2 3 6 700.33 53.99
-2 3 6 681.03 57.49
1 -3 -6 1702.03 128.19
1 -3 -6 1604.34 127.09
-1 3 6 1645.54 126.09
-1 3 6 1685.53 126.29
-1 3 6 1636.84 126.29
-1 3 6 1440.56 131.29
-1 3 6 1641.44 125.29
-1 3 6 1655.63 129.79
0 -3 -6 161.38 68.99
0 3 6 176.68 15.6
0 3 6 149.79 58.89
0 3 6 188.48 15.6
0 3 6 200.58 19.8
0 3 6 185.48 16.4
-1 -3 -6 870.11 152.68
-1 -3 -6 995.2 81.59
-1 -3 -6 1171.58 84.29
-1 -3 -6 1040.9 83.29
1 3 6 1001.7 84.49
1 3 6 1062.49 81.79
1 3 6 845.32 130.59
1 3 6 1092.69 81.39
-2 -3 -6 2523.85 211.18
-2 -3 -6 3282.97 213.08
-2 -3 -6 2313.07 277.67
2 3 6 2664.63 209.18
2 3 6 2508.45 211.78
2 3 6 3159.28 288.97
2 3 6 2529.05 209.38
-3 -3 -6 22.1 9.5
-3 -3 -6 37.9 74.29
-3 -3 -6 31.2 9
3 3 6 44.7 7.4
3 3 6 28.2 7.4
3 3 6 60.39 57.99
-4 -3 -6 1729.53 323.07
4 3 6 1315.97 182.68
4 3 6 1659.93 116.69
4 3 6 1481.15 115.89
4 3 6 1297.67 117.29
-5 -3 -6 588.04 57.39
5 3 6 618.84 55.49
5 3 6 763.42 54.99
5 3 6 616.04 151.28
-6 -3 -6 17.9 11.1
-6 -3 -6 10.3 10.4
-6 -3 -6 23.4 14.5
6 3 6 10.1 7.2
6 3 6 -0.3 9.8
-7 -3 -6 512.65 53.49
7 3 6 564.74 50.89
7 3 6 682.63 54.09
11 -4 -6 47 10.5
11 -4 -6 33.2 11.2
-11 4 6 23.7 10.2
-11 4 6 51.29 23.7
10 -4 -6 938.31 79.09
10 -4 -6 971 75.59
-10 4 6 948.71 77.59
-10 4 6 902.41 77.79
9 -4 -6 296.57 30.1
-9 4 6 239.58 37.6
-9 4 6 313.47 29.4
-9 4 6 336.17 29.8
8 -4 -6 420.96 34
8 -4 -6 423.76 36.5
-8 4 6 412.76 36.2
-8 4 6 334.87 43.4
-8 4 6 400.96 36.8
7 -4 -6 1186.08 97.69
7 -4 -6 1265.77 96.09
-7 4 6 1199.38 99.29
-7 4 6 1045.6 104.09
-7 4 6 1390.56 98.39
6 -4 -6 41.5 9
6 -4 -6 57.79 37.1
6 -4 -6 38.4 6.9
-6 4 6 17.9 44.8
-6 4 6 36.2 12
5 -4 -6 1630.54 124.69
5 -4 -6 1739.33 125.99
5 -4 -6 1596.34 125.99
-5 4 6 1375.76 130.99
-5 4 6 1531.05 128.29
-5 4 6 1696.63 123.49
4 -4 -6 1050.69 82.59
4 -4 -6 1137.39 83.99
4 -4 -6 1163.38 83.79
-4 4 6 1016.3 81.99
-4 4 6 919.31 88.19
-4 4 6 981.1 86.19
3 -4 -6 37.3 55.19
3 -4 -6 71.89 13.8
3 -4 -6 82.59 10.6
3 -4 -6 82.69 9.7
-3 4 6 236.88 78.29
-3 4 6 75.79 12.9
-3 4 6 80.39 8
2 -4 -6 2740.53 201.68
2 -4 -6 2438.46 202.88
2 -4 -6 2537.55 201.98
-2 4 6 2792.72 200.78
-2 4 6 2550.64 206.38
-2 4 6 2526.85 205.08
1 -4 -6 1637.44 128.09
1 -4 -6 1552.34 129.99
1 -4 -6 1615.24 127.59
-1 4 6 1709.43 126.69
-1 4 6 1669.43 131.59
-1 4 6 1545.75 130.69
-1 4 6 1656.23 125.59
0 -4 -6 605.64 48.7
0 -4 -6 468.05 44.3
-1 -4 -6 2892.81 225.98
-1 -4 -6 3120.59 226.48
1 4 6 3080.39 224.18
1 4 6 2817.52 224.58
1 4 6 2580.14 227.68
-2 -4 -6 683.83 51.49
-2 -4 -6 470.65 159.18
-2 -4 -6 595.34 50.49
2 4 6 515.55 51.29
2 4 6 599.94 48.1
2 4 6 583.24 48.5
2 4 6 516.85 113.09
-3 -4 -6 838.82 71.89
3 4 6 789.52 68.59
3 4 6 916.61 68.99
-4 -4 -6 643.54 194.18
4 4 6 1042.6 84.79
4 4 6 719.63 167.18
4 4 6 1224.68 85.79
-5 -4 -6 -7.9 12.1
5 4 6 20.1 8.6
5 4 6 17.1 8.9
5 4 6 31.5 8.6
-6 -4 -6 416.16 38
-6 -4 -6 308.17 41.1
6 4 6 405.56 36.8
-7 -4 -6 508.25 50.49
7 4 6 429.46 44.1
7 4 6 344.77 40.8
10 -5 -6 642.54 55.79
10 -5 -6 639.94 51.79
-10 5 6 580.54 66.99
-10 5 6 622.44 54.49
9 -5 -6 6 8.3
9 -5 -6 6.4 5.1
-9 5 6 3.9 14.3
-9 5 6 5 7.2
-9 5 6 6 7
8 -5 -6 1072.79 87.89
8 -5 -6 1230.58 87.39
8 -5 -6 1048.1 85.19
-8 5 6 1023.9 95.09
-8 5 6 995 89.19
7 -5 -6 795.22 63.79
7 -5 -6 842.52 61.69
-7 5 6 701.63 69.59
-7 5 6 708.23 65.59
6 -5 -6 268.37 26.2
6 -5 -6 282.37 24.4
-6 5 6 490.35 102.99
-6 5 6 287.47 22.6
-6 5 6 248.78 28.5
5 -5 -6 2105.19 160.08
5 -5 -6 2304.87 162.18
5 -5 -6 2108.69 160.78
-5 5 6 1780.92 163.98
-5 5 6 1880.81 165.98
-5 5 6 2133.19 158.68
4 -5 -6 956 73.59
4 -5 -6 860.21 74.39
4 -5 -6 934.31 72.99
-4 5 6 918.81 78.79
-4 5 6 839.12 77.29
-4 5 6 978.2 71.89
3 -5 -6 910.81 69.49
3 -5 -6 854.91 70.89
3 -5 -6 848.82 68.89
-3 5 6 775.62 73.19
-3 5 6 940.51 68.09
-3 5 6 829.22 73.69
2 -5 -6 2797.52 259.77
2 -5 -6 3144.59 256.77
2 -5 -6 3508.45 257.27
-2 5 6 3113.49 261.17
-2 5 6 3682.23 256.27
-2 5 6 3322.67 260.77
-2 5 6 3624.24 254.67
1 -5 -6 425.86 40.1
1 -5 -6 366.26 118.39
1 -5 -6 454.15 34.6
-1 5 6 362.86 36.7
-1 5 6 409.46 32
-1 5 6 403.76 33.3
-1 5 6 331.87 37.1
0 -5 -6 1446.16 248.78
0 -5 -6 1682.23 144.29
0 -5 -6 1869.61 140.89
0 -5 -6 1834.72 140.59
0 5 6 1716.13 139.69
0 5 6 2042 207.48
0 5 6 1819.52 138.89
-1 -5 -6 2512.75 202.78
-1 -5 -6 2892.91 203.48
1 5 6 2611.54 202.08
1 5 6 2886.51 201.58
1 5 6 2433.16 262.27
1 5 6 2150.98 205.28
-2 -5 -6 5.5 149.99
-2 -5 -6 -2.3 7.1
-2 -5 -6 18 6.7
-2 -5 -6 8 10.4
2 5 6 -5.5 4
2 5 6 -9.6 56.59
2 5 6 4.4 8.1
2 5 6 -2.9 4
-3 -5 -6 1654.53 132.09
3 5 6 1378.56 201.48
3 5 6 1558.44 129.49
3 5 6 1800.12 129.89
-4 -5 -6 941.01 78.49
-4 -5 -6 1020.8 76.49
4 5 6 792.02 75.29
-5 -5 -6 247.38 30
5 5 6 220.78 25.8
5 5 6 166.58 24.6
6 5 6 1298.17 98.89
6 5 6 1037.6 96.59
10 -6 -6 127.49 16.7
10 -6 -6 116.09 18.4
10 -6 -6 152.78 23.8
-10 6 6 107.69 22.4
-10 6 6 153.88 36.1
9 -6 -6 273.07 25.1
9 -6 -6 237.38 23.3
9 -6 -6 260.97 28
-9 6 6 227.68 36.5
-9 6 6 220.88 28.7
8 -6 -6 1027.7 76.09
8 -6 -6 878.61 77.89
8 -6 -6 1017.3 78.29
-8 6 6 799.02 79.79
7 -6 -6 93.69 12.5
7 -6 -6 119.89 13.5
7 -6 -6 102.29 15.7
-7 6 6 99.79 21.3
6 -6 -6 948.31 75.39
6 -6 -6 918.81 77.69
6 -6 -6 1047.9 76.19
-6 6 6 820.62 80.29
-6 6 6 1023.7 73.79
-6 6 6 878.91 81.99
5 -6 -6 1604.64 127.59
5 -6 -6 1648.73 129.99
5 -6 -6 1748.63 128.09
-5 6 6 1399.06 132.39
-5 6 6 1803.12 126.49
-5 6 6 1534.05 133.19
4 -6 -6 11.8 6.6
4 -6 -6 17.7 5.8
4 -6 -6 12.8 64.79
4 -6 -6 11.9 5
-4 6 6 173.78 113.29
-4 6 6 24.3 10
-4 6 6 18.3 3.9
-4 6 6 8.3 8.3
3 -6 -6 1749.62 137.19
3 -6 -6 1689.53 137.29
3 -6 -6 1550.14 139.39
-3 6 6 1673.73 142.69
-3 6 6 1942.71 136.69
-3 6 6 1898.31 141.79
2 -6 -6 1746.53 128.99
2 -6 -6 1601.74 129.09
-2 6 6 1684.53 131.99
-2 6 6 1744.73 128.49
-2 6 6 1407.36 133.29
1 -6 -6 70.09 100.69
-1 6 6 35 6.4
-1 6 6 47.2 12.8
-1 6 6 20.2 58.49
-1 6 6 28.2 8.6
0 -6 -6 1725.53 157.18
0 -6 -6 1942.71 153.88
0 -6 -6 1877.51 153.38
0 6 6 2141.69 152.58
0 6 6 2391.96 252.57
0 6 6 1924.91 153.38
-1 -6 -6 712.13 55.79
-1 -6 -6 415.06 189.38
-1 -6 -6 623.54 55.59
1 6 6 619.94 54.79
1 6 6 703.43 54.39
1 6 6 629.84 142.29
-2 -6 -6 534.45 50.49
-2 -6 -6 290.37 411.06
-2 -6 -6 628.24 50.69
2 6 6 518.35 49.2
2 6 6 473.65 108.89
2 6 6 637.64 49.2
-3 -6 -6 1053.49 95.29
-3 -6 -6 1235.48 95.09
3 6 6 1179.48 93.39
3 6 6 1111.69 95.59
-4 -6 -6 25.8 11.2
-4 -6 -6 -10 16.9
4 6 6 5.2 12.5
4 6 6 -2.8 9.2
4 6 6 21.5 8.9
-5 -6 -6 817.82 87.39
-5 -6 -6 1124.59 86.09
5 6 6 1082.59 84.29
5 6 6 862.11 83.29
9 -7 -6 1081.99 77.39
9 -7 -6 891.71 80.09
9 -7 -6 1009.2 76.79
-9 7 6 861.51 82.99
-9 7 6 863.81 86.59
8 -7 -6 425.66 36.9
8 -7 -6 463.15 37.1
8 -7 -6 434.76 40.7
-8 7 6 378.36 43.9
-8 7 6 406.36 46.8
7 -7 -6 295.57 30
7 -7 -6 296.07 26.2
7 -7 -6 281.37 26.2
-7 7 6 304.07 34.9
-7 7 6 239.68 32.6
6 -7 -6 1312.37 104.39
6 -7 -6 1301.77 107.39
6 -7 -6 1371.06 104.39
-6 7 6 1146.29 110.29
-6 7 6 1308.37 110.59
-6 7 6 1446.36 102.99
5 -7 -6 290.37 25.8
5 -7 -6 268.07 24.9
5 -7 -6 267.57 28.9
-5 7 6 301.17 31.4
-5 7 6 217.78 30.9
-5 7 6 309.67 24.2
4 -7 -6 606.54 51.29
4 -7 -6 541.35 53.89
-4 7 6 700.03 56.29
-4 7 6 631.54 58.19
3 -7 -6 1005.7 83.99
3 -7 -6 1050.29 84.89
-3 7 6 1146.79 84.19
-3 7 6 961 90.49
-3 7 6 1116.99 88.09
2 -7 -6 26.7 8.1
2 -7 -6 26.3 6.3
2 -7 -6 43.3 12.1
-2 7 6 34.9 7
-2 7 6 35.5 7.2
-2 7 6 127.59 126.49
-2 7 6 14.2 11
-2 7 6 35.6 9.5
1 -7 -6 907.81 73.39
1 -7 -6 905.01 78.79
1 -7 -6 671.23 271.27
1 -7 -6 844.72 73.89
-1 7 6 881.11 73.59
-1 7 6 1021 72.59
0 -7 -6 635.74 49.4
0 -7 -6 471.75 53.99
0 -7 -6 528.65 49.3
0 7 6 585.04 49.3
0 7 6 647.44 48.4
0 7 6 958.9 193.68
-1 -7 -6 49.5 11.5
-1 -7 -6 71.59 12.2
-1 -7 -6 26.3 14.9
1 7 6 55.29 9.4
1 7 6 43.4 14.9
1 7 6 41.8 9.9
-2 -7 -6 573.44 57.89
-2 -7 -6 636.14 52.19
2 7 6 638.84 51.49
2 7 6 521.65 51.59
-3 -7 -6 84.89 17.7
-3 -7 -6 101.19 17.4
3 7 6 91.59 14.6
3 7 6 62.49 13.8
-4 -7 -6 241.58 36.8
-4 -7 -6 293.47 31.5
4 7 6 260.17 30.3
4 7 6 238.78 33.8
8 -8 -6 -4 5.1
8 -8 -6 4.9 10.7
8 -8 -6 7.2 7.4
-8 8 6 19.4 14.4
-8 8 6 11.3 14.6
7 -8 -6 1321.57 109.29
7 -8 -6 1439.76 104.79
7 -8 -6 1379.66 103.79
-7 8 6 1272.47 111.79
-7 8 6 1100.09 114.89
6 -8 -6 955.7 74.59
6 -8 -6 946.41 73.39
6 -8 -6 817.82 77.59
-6 8 6 921.31 79.99
-6 8 6 977.4 72.79
-6 8 6 854.81 81.49
5 -8 -6 51.59 9.7
5 -8 -6 49.7 12.9
5 -8 -6 42.8 8.9
-5 8 6 46.6 13.5
-5 8 6 36.2 12.7
-5 8 6 47.7 7.1
4 -8 -6 1066.09 92.69
4 -8 -6 1112.79 87.59
-4 8 6 1000.1 106.29
-4 8 6 1195.28 92.39
3 -8 -6 150.68 16.3
3 -8 -6 139.89 23.4
-3 8 6 197.08 21.3
-3 8 6 159.28 17.3
-3 8 6 139.29 27.9
2 -8 -6 309.37 35.9
2 -8 -6 296.17 33.7
2 -8 -6 312.97 28.2
-2 8 6 354.76 29.7
-2 8 6 338.67 31
-2 8 6 279.87 36.4
1 -8 -6 661.93 59.69
1 -8 -6 765.42 59.09
1 -8 -6 704.93 65.39
-1 8 6 654.83 65.49
-1 8 6 784.52 60.29
0 -8 -6 66.39 16.8
-1 -8 -6 533.35 74.99
-1 -8 -6 760.72 57.79
-1 -8 -6 721.53 58.89
1 8 6 667.73 58.29
1 8 6 565.14 62.49
1 8 6 737.43 57.09
-2 -8 -6 594.34 52.29
-2 -8 -6 523.05 49.2
2 8 6 596.34 49.7
2 8 6 543.35 51.19
-3 -8 -6 18.4 9.7
-3 -8 -6 17.7 17.1
3 8 6 10.5 9.4
7 -9 -6 1105.39 88.09
7 -9 -6 940.51 91.99
-7 9 6 1142.39 95.09
-7 9 6 1142.99 96.69
6 -9 -6 144.79 27
6 -9 -6 178.08 20.8
-6 9 6 148.79 31.7
-6 9 6 146.69 27.2
-6 9 6 161.18 17
5 -9 -6 357.76 44.4
5 -9 -6 445.36 38.7
5 -9 -6 389.46 35.7
-5 9 6 482.05 43.4
-5 9 6 459.25 47.2
4 -9 -6 675.73 60.99
4 -9 -6 777.12 63.69
-4 9 6 764.12 70.59
-4 9 6 832.92 66.29
3 -9 -6 44.8 15.9
3 -9 -6 54.49 11.3
3 -9 -6 33.3 7
-3 9 6 39.5 14.5
2 -9 -6 643.74 53.39
2 -9 -6 575.54 60.59
2 -9 -6 667.73 55.39
-2 9 6 605.84 61.99
-2 9 6 742.73 55.39
1 -9 -6 478.95 56.89
1 -9 -6 615.34 49.7
1 -9 -6 605.74 51.09
-1 9 6 667.93 51.49
-1 9 6 563.94 57.99
0 -9 -6 184.78 24.2
0 -9 -6 175.18 20.2
-1 -9 -6 1653.83 132.99
-1 -9 -6 1630.24 131.39
1 9 6 1710.03 132.69
1 9 6 1596.84 137.89
5 -10 -6 443.46 42.9
5 -10 -6 387.36 50.59
-5 10 6 498.95 52.39
-5 10 6 556.34 41.9
4 -10 -6 223.48 37.5
4 -10 -6 284.67 28.6
-4 10 6 301.67 27.9
-4 10 6 272.47 37.2
3 -10 -6 106.29 22
3 -10 -6 66.19 12.1
-3 10 6 58.69 10.7
-3 10 6 53.09 18.9
2 -10 -6 1027.6 92.89
-2 10 6 1258.37 93.89
-2 10 6 1158.28 101.49
1 12 -7 115.39 15.5
1 12 -7 118.29 17
0 12 -7 384.36 33.9
1 -12 7 231.48 32.5
-2 12 -7 -3.5 8.6
-2 12 -7 -0.2 5.3
2 -12 7 -0.8 17.9
2 -12 7 10.9 10.8
3 -12 7 276.87 31.6
-4 12 -7 231.98 20.3
4 -12 7 165.38 26.7
4 -12 7 216.98 37.6
3 11 -7 760.52 62.09
3 11 -7 753.12 65.39
-3 -11 7 729.43 85.79
-3 -11 7 805.92 65.39
2 11 -7 716.73 58.19
2 11 -7 677.33 60.09
-2 -11 7 746.23 76.69
-2 -11 7 728.03 61.39
0 11 -7 957.4 88.69
0 -11 7 1177.68 102.69
0 -11 7 1261.07 90.49
-1 11 -7 305.07 29.7
1 -11 7 269.07 31.9
-2 11 -7 132.69 13.8
-2 11 -7 103.49 18.5
2 -11 7 158.58 29.5
2 -11 7 95.29 19.4
-3 11 -7 975.7 88.49
3 -11 7 944.61 88.29
3 -11 7 1307.77 95.09
-4 11 -7 99.89 20.3
-4 11 -7 142.19 14
4 -11 7 120.69 19.5
4 -11 7 104.69 22.5
-5 11 -7 714.43 53.19
5 -11 7 651.93 62.49
5 -11 7 582.74 57.19
-6 11 -7 1128.49 80.69
6 -11 7 924.21 88.49
6 -11 7 973.2 84.39
5 10 -7 431.96 41.9
5 10 -7 417.96 35.4
-5 -10 7 393.96 40
-5 -10 7 360.76 60.29
4 10 -7 9.3 8.5
4 10 -7 21.6 5.9
-4 -10 7 18.4 24.4
-4 -10 7 21.1 9.6
3 10 -7 952.2 74.89
3 10 -7 821.42 71.89
-3 -10 7 954.8 74.49
-3 -10 7 880.91 88.29
2 10 -7 105.89 15.5
2 10 -7 143.49 16.3
-2 -10 7 95.99 29.9
1 10 -7 177.38 20
1 10 -7 178.48 19.2
0 10 -7 849.52 73.79
0 10 -7 814.42 72.49
0 10 -7 902.61 71.79
0 -10 7 1063.89 84.49
-1 10 -7 36.5 9
-1 10 -7 30.8 7.2
-1 10 -7 42.8 9.3
1 -10 7 30.5 6.2
1 -10 7 22 14.8
-2 10 -7 937.61 85.39
-2 10 -7 1074.29 86.39
2 -10 7 1147.59 92.39
-3 10 -7 627.74 62.99
-3 10 -7 794.82 59.89
-3 10 -7 804.52 67.89
3 -10 7 652.83 62.69
3 -10 7 859.61 68.79
-4 10 -7 31 9.7
-4 10 -7 31 5.5
4 -10 7 18.7 11.6
4 -10 7 22.9 8.7
-5 10 -7 1436.26 102.39
-5 10 -7 1293.17 107.49
5 -10 7 1335.57 105.69
5 -10 7 1132.89 109.09
-6 10 -7 304.77 26.5
-6 10 -7 284.67 33.8
6 -10 7 317.87 31
-7 10 -7 103.09 23.4
-7 10 -7 151.48 15.7
7 -10 7 152.08 20.2
7 -10 7 111.49 27.4
6 9 -7 411.86 53.59
6 9 -7 465.95 47.4
-6 -9 7 526.95 44.9
5 9 -7 0.7 8.7
5 9 -7 8.5 4.6
5 9 -7 -15.9 12.6
-5 -9 7 -13.5 20.2
-5 -9 7 3.3 9.5
-5 -9 7 -0.8 8.2
4 9 -7 456.45 40.6
4 9 -7 557.24 45.6
-4 -9 7 478.55 55.19
-4 -9 7 491.65 43.3
3 9 -7 313.07 30.8
3 9 -7 330.97 29.5
3 9 -7 373.06 32.7
-3 -9 7 371.46 31.7
-3 -9 7 368.66 45.2
2 9 -7 86.89 13.1
2 9 -7 71.79 15.5
2 9 -7 114.69 11.5
2 9 -7 93.99 12.4
2 9 -7 107.99 13.7
-2 -9 7 129.99 29.7
-2 -9 7 130.79 13.8
1 9 -7 921.51 69.49
1 9 -7 763.12 70.19
1 9 -7 822.42 71.29
-1 -9 7 1045.5 82.49
0 9 -7 242.58 20.4
0 9 -7 218.28 22.1
0 9 -7 229.08 22.9
-1 9 -7 404.26 33.8
-1 9 -7 371.36 36.1
-1 9 -7 402.86 36.6
1 -9 7 456.75 64.89
1 -9 7 470.05 45.3
-2 9 -7 1098.39 93.49
-2 9 -7 1042.5 93.59
-2 9 -7 1177.28 90.69
2 -9 7 1329.47 99.69
-3 9 -7 42.5 10.3
-3 9 -7 46.5 7
-3 9 -7 40.2 9.5
3 -9 7 37.6 9.2
3 -9 7 47.9 14.3
-4 9 -7 437.26 38.7
-4 9 -7 391.76 39.9
4 -9 7 381.56 41.2
4 -9 7 423.06 34.3
4 -9 7 434.46 37.6
-6 9 -7 -1.9 10.5
-6 9 -7 -5 8.6
6 -9 7 2.7 3.9
6 -9 7 8.3 10.1
6 -9 7 1.1 6.2
-7 9 -7 352.06 37.4
7 -9 7 366.46 34.4
7 -9 7 339.37 30.2
7 8 -7 683.13 72.69
-7 -8 7 826.42 65.69
6 8 -7 221.68 31.2
6 8 -7 233.88 20.7
6 8 -7 190.68 27.9
5 8 -7 324.97 29.8
5 8 -7 323.67 34.7
-5 -8 7 349.77 32.2
-5 -8 7 420.16 36.5
4 8 -7 1296.07 114.69
4 8 -7 1275.47 114.69
4 8 -7 1432.16 113.99
4 8 -7 1558.64 117.59
-4 -8 7 1566.64 115.79
-4 -8 7 1677.93 125.99
3 8 -7 5.9 4.3
3 8 -7 6.3 4.6
3 8 -7 11 3.6
3 8 -7 8 5.5
-3 -8 7 -3.5 11.6
-3 -8 7 1.3 4.7
-3 -8 7 23.5 8.8
2 8 -7 1098.69 84.89
2 8 -7 967.4 84.29
2 8 -7 1117.99 83.39
1 8 -7 1131.59 92.99
1 8 -7 1245.48 91.49
1 8 -7 1112.29 94.19
1 8 -7 1180.78 93.19
0 8 -7 168.38 17.6
0 8 -7 177.78 15.1
0 8 -7 154.28 17.1
0 8 -7 155.58 17.1
0 -8 7 141.99 40
-1 8 -7 2004.5 143.99
-1 8 -7 1942.61 146.29
-1 8 -7 1772.52 146.49
1 -8 7 1646.14 146.89
1 -8 7 1913.51 167.18
-2 8 -7 817.22 66.99
-2 8 -7 800.52 67.99
-2 8 -7 732.33 64.39
2 -8 7 951 90.19
2 -8 7 732.73 66.99
2 -8 7 831.02 64.39
2 -8 7 913.11 72.39
-3 8 -7 175.68 19.4
-3 8 -7 175.28 21.1
3 -8 7 231.88 54.39
3 -8 7 161.48 23.9
3 -8 7 177.38 19.2
3 -8 7 191.78 16.3
-4 8 -7 1378.06 116.99
-4 8 -7 1492.95 115.09
4 -8 7 1456.95 113.99
4 -8 7 1388.86 111.39
-5 8 -7 222.48 23.6
-5 8 -7 204.48 26.8
5 -8 7 161.18 24.2
5 -8 7 216.68 21.5
5 -8 7 216.68 18.6
-6 8 -7 312.47 33.3
6 -8 7 301.47 26.6
6 -8 7 321.47 29.4
-7 8 -7 635.64 54.59
7 -8 7 628.24 50.89
7 -8 7 578.44 47.8
7 -8 7 515.75 53.09
-8 8 -7 2.2 19.4
-8 8 -7 21.9 13.3
8 -8 7 18.4 8.3
8 -8 7 19.1 6.1
8 7 -7 298.97 40.1
-8 -7 7 363.16 37.6
-8 -7 7 290.87 32.3
7 7 -7 784.42 76.99
7 7 -7 905.61 74.49
-7 -7 7 911.61 71.99
6 7 -7 4.2 3.6
-6 -7 7 5.2 5.1
-6 -7 7 5.8 9.4
-6 -7 7 3.2 8.4
5 7 -7 1622.44 134.69
5 7 -7 1566.74 131.99
5 7 -7 1578.34 128.79
5 7 -7 1524.55 129.49
5 7 -7 1756.82 128.59
-5 -7 7 1855.01 130.39
4 7 -7 1243.68 97.09
4 7 -7 1101.69 94.79
4 7 -7 1116.29 94.29
4 7 -7 1125.99 93.59
-4 -7 7 1370.46 102.99
-4 -7 7 1262.57 94.99
3 7 -7 458.45 37.5
3 7 -7 415.26 38.8
3 7 -7 496.25 40.4
3 7 -7 448.96 38.5
-3 -7 7 456.35 38.4
-3 -7 7 536.15 46.7
2 7 -7 2365.06 199.48
2 7 -7 2210.18 200.48
2 7 -7 2623.54 199.28
2 7 -7 2718.93 198.08
-2 -7 7 2901.21 198.78
1 7 -7 732.23 58.39
1 7 -7 776.92 56.99
1 7 -7 688.23 58.89
1 7 -7 673.03 60.49
0 7 -7 1083.39 99.99
0 7 -7 1187.98 99.99
0 7 -7 1309.07 99.39
0 -7 7 1482.25 97.69
0 -7 7 1131.09 101.09
0 -7 7 1306.87 97.69
-1 7 -7 2268.57 189.58
-1 7 -7 2345.07 188.48
1 -7 7 2687.13 186.08
1 -7 7 2252.87 189.38
1 -7 7 2753.22 202.98
1 -7 7 2272.97 200.18
1 -7 7 2358.16 186.68
-2 7 -7 99.69 14.1
-2 7 -7 96.79 12.2
-2 7 -7 96.29 8.2
2 -7 7 97.79 9.8
2 -7 7 80.09 12.3
2 -7 7 93.09 21.1
2 -7 7 118.79 31
2 -7 7 86.79 17.6
-3 7 -7 1444.96 113.79
-3 7 -7 1412.46 115.99
-3 7 -7 1307.67 111.49
3 -7 7 1286.57 116.19
3 -7 7 1600.24 137.29
3 -7 7 1546.65 113.59
3 -7 7 1399.26 125.79
3 -7 7 1479.15 111.19
-4 7 -7 1804.02 136.39
-4 7 -7 1698.33 139.09
-4 7 -7 1604.24 133.69
4 -7 7 1736.83 133.19
4 -7 7 1733.73 135.19
-5 7 -7 30.9 10.9
-5 7 -7 13.6 6.3
5 -7 7 12 5
5 -7 7 12.8 7.4
5 -7 7 13.7 3.7
-6 7 -7 708.63 70.99
-6 7 -7 792.92 63.59
-6 7 -7 862.81 67.19
6 -7 7 827.12 65.09
6 -7 7 817.82 62.49
6 -7 7 694.83 66.49
-7 7 -7 400.76 43.4
7 -7 7 390.46 38.4
7 -7 7 396.46 34.3
7 -7 7 415.86 36.2
-8 7 -7 313.87 34.3
8 -7 7 303.47 26.3
8 -7 7 281.77 32.4
8 -7 7 290.87 29.8
9 6 -7 54.49 17.8
9 6 -7 41.9 15
-9 -6 7 52.29 13.4
-9 -6 7 39.1 17.2
8 6 -7 628.84 63.69
-8 -6 7 739.93 63.09
-8 -6 7 706.13 58.79
7 6 -7 321.07 30.2
7 6 -7 318.37 36.1
-7 -6 7 338.07 31
-7 -6 7 360.26 31.3
6 6 -7 407.46 43.1
6 6 -7 450.95 37.9
-6 -6 7 526.35 40.6
-6 -6 7 460.95 39.5
5 6 -7 1641.44 130.79
5 6 -7 1599.94 135.59
5 6 -7 1701.03 131.19
-5 -6 7 1791.82 132.19
4 6 -7 6.2 2.5
4 6 -7 6.4 3.4
4 6 -7 6.8 5.2
4 6 -7 18.7 7.9
-4 -6 7 5.4 6.5
-4 -6 7 11.4 4.5
-4 -6 7 6.5 8
3 6 -7 1602.24 132.09
3 6 -7 1622.14 131.19
3 6 -7 1755.42 133.79
3 6 -7 1656.83 133.39
-3 -6 7 1839.02 132.09
2 6 -7 1856.91 163.58
2 6 -7 2246.18 161.08
2 6 -7 2089.69 162.08
2 6 -7 1996.2 163.08
-2 -6 7 2218.68 161.38
0 6 -7 1623.54 126.29
0 6 -7 1554.74 127.69
0 -6 7 1512.35 134.19
0 -6 7 1619.84 124.79
0 -6 7 1507.05 127.89
0 -6 7 1822.72 124.59
-1 6 -7 1118.69 92.79
-1 6 -7 1106.99 94.49
-1 6 -7 1203.68 90.49
1 -6 7 1128.99 91.09
1 -6 7 1189.78 93.69
1 -6 7 1180.98 102.09
1 -6 7 1289.17 106.99
-2 6 -7 35.2 8.8
-2 6 -7 17.9 6
-2 6 -7 18.4 5.2
2 -6 7 34.7 21.4
2 -6 7 32 6.5
2 -6 7 13.9 7.9
2 -6 7 23.4 4
2 -6 7 25.2 17.7
-3 6 -7 1628.04 123.99
-3 6 -7 1543.35 126.69
3 -6 7 1751.52 147.29
3 -6 7 1406.76 125.79
3 -6 7 1470.95 134.19
3 -6 7 1687.93 123.49
3 -6 7 1509.95 121.49
-4 6 -7 452.15 42.6
-4 6 -7 392.06 37.4
-4 6 -7 461.45 39
4 -6 7 487.45 38.1
4 -6 7 399.86 52.99
4 -6 7 489.15 70.09
4 -6 7 453.25 36.2
-5 6 -7 385.66 34.9
-5 6 -7 439.76 36.9
-5 6 -7 423.26 41.8
5 -6 7 407.56 33.3
5 -6 7 420.36 35.1
5 -6 7 364.36 36.8
-6 6 -7 982.2 81.69
-6 6 -7 1006.1 89.49
-6 6 -7 1012.2 83.29
6 -6 7 950.4 83.09
6 -6 7 1088.19 81.69
6 -6 7 1025.9 79.59
-7 6 -7 49.2 9.9
-7 6 -7 66.19 14.6
7 -6 7 51.89 10.9
7 -6 7 42.6 8.2
7 -6 7 58.29 14
-8 6 -7 665.73 66.09
-8 6 -7 937.01 71.09
8 -6 7 778.52 63.69
8 -6 7 778.72 66.09
8 -6 7 836.42 68.29
-9 6 -7 435.46 43.8
9 -6 7 346.57 35.5
9 -6 7 346.97 32
9 5 -7 671.63 63.89
9 5 -7 640.44 57.59
-9 -5 7 687.63 61.89
-9 -5 7 687.43 58.49
-9 -5 7 642.64 57.09
8 5 -7 505.55 51.19
-8 -5 7 568.54 49
-8 -5 7 528.45 46.9
-8 -5 7 602.54 51.29
7 5 -7 84.79 13.1
7 5 -7 101.59 17.1
-7 -5 7 104.69 14.9
-7 -5 7 85.69 13
-7 -5 7 91.09 17
6 5 -7 1809.12 146.09
6 5 -7 1791.82 149.88
6 5 -7 1831.12 145.49
-6 -5 7 2063.19 149.29
-6 -5 7 1885.21 146.69
5 5 -7 316.47 31.9
5 5 -7 308.67 27.5
5 5 -7 325.97 28
-5 -5 7 338.77 28.9
-5 -5 7 377.06 31.6
-5 -5 7 366.56 32.5
4 5 -7 558.94 49.3
4 5 -7 674.43 50.49
4 5 -7 562.64 52.79
-4 -5 7 750.32 54.39
-4 -5 7 604.44 50.29
3 5 -7 1415.86 117.49
3 5 -7 1489.05 118.59
-3 -5 7 1514.65 118.19
-3 -5 7 1665.23 122.09
2 5 -7 224.78 20.3
2 5 -7 229.08 22.4
2 5 -7 209.38 22
-2 -5 7 246.18 23.5
-2 -5 7 235.38 19.5
-2 -5 7 238.88 19.3
1 5 -7 492.95 44.8
1 5 -7 501.65 43.1
1 5 -7 521.65 42
1 5 -7 587.14 46.2
-1 -5 7 505.45 41.9
-1 -5 7 588.64 42
-1 -5 7 502.45 46
0 5 -7 1149.29 88.39
0 5 -7 1099.99 90.09
0 5 -7 1046.2 91.99
0 5 -7 1208.78 88.49
0 -5 7 1279.57 102.09
0 -5 7 1164.38 91.59
0 -5 7 1126.39 94.29
0 -5 7 1075.59 88.69
-1 5 -7 371.96 33.6
-1 5 -7 385.26 36.2
-1 5 -7 461.35 31.8
-1 5 -7 410.86 31.5
1 -5 7 347.07 40.7
1 -5 7 418.56 34.4
1 -5 7 423.86 50.29
1 -5 7 372.36 32.1
-2 5 -7 551.84 46.5
-2 5 -7 545.85 49.5
2 -5 7 559.84 44.7
2 -5 7 503.95 54.69
2 -5 7 597.04 65.99
2 -5 7 604.44 46.5
2 -5 7 580.84 49.7
-3 5 -7 1085.19 82.19
-3 5 -7 989.4 85.39
3 -5 7 1140.09 81.59
3 -5 7 1039.7 79.99
3 -5 7 906.01 93.99
3 -5 7 842.12 83.49
3 -5 7 1177.88 105.49
-4 5 -7 37.8 10.8
-4 5 -7 35.5 8.1
-4 5 -7 28.7 7.2
4 -5 7 29.4 19.5
4 -5 7 39.9 28.2
4 -5 7 39.5 5.8
4 -5 7 43.3 7.6
4 -5 7 42.6 10.6
-5 5 -7 752.42 65.09
-5 5 -7 822.12 71.09
-5 5 -7 793.92 65.09
5 -5 7 852.31 62.49
5 -5 7 841.22 63.99
5 -5 7 748.23 65.19
5 -5 7 656.53 81.09
-6 5 -7 252.77 25.2
-6 5 -7 282.47 33.7
-6 5 -7 222.88 24.7
6 -5 7 250.07 24.9
6 -5 7 266.07 21.7
6 -5 7 222.28 23
-7 5 -7 326.67 32.5
-7 5 -7 259.37 54.79
-7 5 -7 352.76 33.3
7 -5 7 359.46 32.2
7 -5 7 331.67 28.4
-8 5 -7 859.61 66.59
-8 5 -7 634.94 63.69
8 -5 7 713.73 61.99
8 -5 7 773.62 63.59
-9 5 -7 44.4 13.7
-9 5 -7 57.19 15.2
-9 5 -7 8.8 21.7
9 -5 7 30.3 7
9 -5 7 44.3 9.7
10 4 -7 381.56 35.4
10 4 -7 341.97 40.8
10 4 -7 295.87 34.6
-10 -4 7 354.66 40.1
-10 -4 7 399.26 37.9
9 4 -7 1261.57 100.59
9 4 -7 1194.58 104.49
-9 -4 7 1269.87 104.39
-9 -4 7 1267.87 103.69
8 4 -7 74.69 13.3
8 4 -7 105.39 13.6
8 4 -7 88.09 23.6
-8 -4 7 83.79 16.9
-8 -4 7 69.29 17.4
7 4 -7 1425.66 135.29
7 4 -7 1485.25 119.79
7 4 -7 1421.16 123.29
-7 -4 7 1632.94 122.99
-7 -4 7 1599.04 123.49
-7 -4 7 1528.55 119.49
6 4 -7 1847.62 156.28
6 4 -7 1854.01 159.68
-6 -4 7 2258.67 160.78
-6 -4 7 2149.58 161.38
-6 -4 7 1997.3 157.28
5 4 -7 30.2 7.4
5 4 -7 17.4 5.1
5 4 -7 18.6 3.9
-5 -4 7 29.4 5
-5 -4 7 30.3 7.8
-5 -4 7 30.5 5.1
-5 -4 7 23.9 7.5
4 4 -7 1367.16 114.49
4 4 -7 1382.76 117.29
-4 -4 7 1528.25 115.49
-4 -4 7 1451.95 115.39
-4 -4 7 1618.34 119.49
-4 -4 7 1549.24 118.39
3 4 -7 1551.24 140.69
3 4 -7 1698.93 139.39
-3 -4 7 1805.12 138.89
-3 -4 7 1952.7 142.59
-3 -4 7 1781.42 139.79
-3 -4 7 2011.6 143.59
2 4 -7 21.6 3.9
-2 -4 7 20.3 7.6
-2 -4 7 27.4 5.3
-2 -4 7 14.9 3
-2 -4 7 26 7
-2 -4 7 23.8 6.8
1 4 -7 1833.32 147.59
1 4 -7 1833.22 144.29
1 4 -7 1784.72 147.99
-1 -4 7 1967.7 148.09
-1 -4 7 2050.89 146.49
-1 -4 7 1729.73 144.19
-1 -4 7 1881.81 145.59
0 4 -7 1195.18 98.69
0 4 -7 1238.48 93.09
0 4 -7 1197.18 97.59
0 4 -7 1136.89 92.89
0 -4 7 1216.88 94.69
0 -4 7 1166.08 110.59
0 -4 7 1343.37 95.39
0 -4 7 1058.99 97.29
0 -4 7 1115.99 93.19
0 -4 7 1333.07 95.79
-1 4 -7 351.06 33.8
-1 4 -7 321.77 28.3
-1 4 -7 377.26 32.4
-1 4 -7 374.96 28.3
1 -4 7 344.17 48.1
1 -4 7 304.67 36.5
1 -4 7 395.26 31.5
1 -4 7 394.86 30.7
1 -4 7 353.86 29.1
1 -4 7 356.36 30.6
-2 4 -7 2496.15 191.68
-2 4 -7 2471.95 196.48
-2 4 -7 2331.17 192.28
2 -4 7 2115.89 199.98
2 -4 7 2624.34 212.58
2 -4 7 2404.16 190.88
2 -4 7 2507.85 191.98
2 -4 7 2747.82 193.68
2 -4 7 2567.44 192.68
-3 4 -7 5.2 4
-3 4 -7 8.3 5.2
-3 4 -7 3.4 4
-3 4 -7 8.5 7.7
3 -4 7 18.3 22.5
3 -4 7 7.4 3.1
3 -4 7 7.7 6.4
3 -4 7 2.9 15.3
3 -4 7 12.9 3
-4 4 -7 1375.06 105.79
-4 4 -7 1475.65 112.39
4 -4 7 1364.76 104.69
4 -4 7 1115.89 105.59
4 -4 7 1244.88 122.19
4 -4 7 1396.26 103.69
-5 4 -7 855.51 74.69
-5 4 -7 852.71 67.79
-5 4 -7 758.72 69.09
5 -4 7 835.42 68.59
5 -4 7 1050.89 113.39
5 -4 7 828.02 65.29
5 -4 7 814.62 66.39
5 -4 7 708.03 85.19
-6 4 -7 94.79 16.6
-6 4 -7 110.79 25.1
-6 4 -7 123.49 15.5
6 -4 7 114.89 13.6
6 -4 7 117.39 12
6 -4 7 116.29 14.4
-7 4 -7 1305.47 97.19
-7 4 -7 1027.2 97.19
7 -4 7 1172.68 92.69
7 -4 7 1309.57 95.39
7 -4 7 1069.09 96.49
-8 4 -7 293.57 33.3
8 -4 7 299.17 28.7
-9 4 -7 161.48 29.7
-9 4 -7 80.99 19.1
9 -4 7 108.49 17.1
9 -4 7 122.39 14.8
10 3 -7 915.71 81.79
10 3 -7 782.02 76.79
10 3 -7 1062.59 77.39
-10 -3 7 972.9 81.99
-10 -3 7 919.01 81.49
9 3 -7 1112.69 82.09
9 3 -7 845.62 80.69
9 3 -7 1069.09 85.79
-9 -3 7 1000.2 86.49
-9 -3 7 1029.6 85.39
8 3 -7 77.29 14.2
8 3 -7 64.79 11.5
8 3 -7 61.09 9.8
-8 -3 7 55.69 12.5
-8 -3 7 53.89 13.3
7 3 -7 2354.36 195.88
7 3 -7 2496.05 193.68
7 3 -7 2589.64 213.38
-7 -3 7 2519.75 198.78
-7 -3 7 2501.65 196.18
6 3 -7 1184.28 97.89
6 3 -7 1167.58 96.49
6 3 -7 1192.48 99.79
6 3 -7 1173.78 114.59
6 3 -7 1319.97 108.49
-6 -3 7 1230.98 102.79
-6 -3 7 1347.87 97.19
-6 -3 7 1320.17 100.69
5 3 -7 152.58 16.1
5 3 -7 160.78 14.9
5 3 -7 187.88 16.8
5 3 -7 176.38 18.3
-5 -3 7 180.38 19.4
-5 -3 7 191.88 21.8
-5 -3 7 210.08 16.3
4 3 -7 3151.88 250.97
4 3 -7 2985.3 252.07
-4 -3 7 3295.57 253.37
-4 -3 7 3281.37 250.07
-4 -3 7 3456.95 256.17
-4 -3 7 3350.76 251.17
3 3 -7 928.21 79.19
3 3 -7 921.91 80.69
-3 -3 7 1040.3 79.99
-3 -3 7 1168.18 84.99
-3 -3 7 1024.9 81.99
2 3 -7 1622.84 131.19
2 3 -7 1602.24 129.49
-2 -3 7 1624.64 133.59
-2 -3 7 1743.63 128.49
-2 -3 7 1714.33 129.69
1 3 -7 3481.25 287.37
1 3 -7 3832.82 285.57
1 3 -7 3559.94 282.07
1 3 -7 3899.51 287.37
-1 -3 7 3773.32 298.97
-1 -3 7 3573.54 282.17
-1 -3 7 3589.44 283.47
0 3 -7 19 3.1
0 3 -7 14.7 2.9
0 3 -7 19.6 6.9
0 3 -7 16.8 8.4
0 -3 7 15.2 24.4
0 -3 7 13.3 2.9
0 -3 7 12.2 3.8
0 -3 7 24.4 5
-1 3 -7 3285.47 244.98
-1 3 -7 2816.02 248.58
-1 3 -7 2896.71 244.18
-1 3 -7 3293.37 250.67
-1 3 -7 3190.18 243.98
1 -3 7 3376.66 244.98
1 -3 7 3410.96 245.78
1 -3 7 2976.8 244.68
1 -3 7 3162.88 246.18
1 -3 7 3408.86 267.47
-2 3 -7 1224.48 94.49
-2 3 -7 1331.97 102.89
-2 3 -7 1144.39 95.19
2 -3 7 1221.08 96.39
2 -3 7 1166.18 95.69
2 -3 7 1360.56 96.49
2 -3 7 1236.18 97.39
2 -3 7 1135.59 117.69
-3 3 -7 1224.18 93.59
-3 3 -7 1036 84.49
3 -3 7 1090.09 85.09
3 -3 7 965.6 86.19
3 -3 7 1093.09 85.79
3 -3 7 1223.08 113.89
3 -3 7 926.91 98.79
3 -3 7 1196.08 87.19
-4 3 -7 2095.09 165.28
-4 3 -7 2343.57 173.28
4 -3 7 2231.88 225.18
4 -3 7 1908.91 184.28
4 -3 7 2016.4 164.68
4 -3 7 2137.99 163.48
4 -3 7 2077.69 164.18
-5 3 -7 196.38 26.5
-5 3 -7 246.68 23.7
-5 3 -7 300.47 33.9
5 -3 7 278.67 23.6
5 -3 7 229.58 22.3
5 -3 7 237.38 53.79
5 -3 7 256.57 21.6
5 -3 7 218.18 55.29
-6 3 -7 1298.17 99.39
-6 3 -7 1078.79 101.69
6 -3 7 1295.37 96.49
6 -3 7 1153.98 123.49
6 -3 7 1276.27 97.79
-7 3 -7 2014.7 162.68
-7 3 -7 1978.1 146.59
-7 3 -7 1525.65 148.19
7 -3 7 1967.2 145.09
7 -3 7 1722.53 144.49
7 -3 7 1794.02 142.59
-8 3 -7 24.9 20.9
-8 3 -7 46.2 11.5
-8 3 -7 37 18.3
8 -3 7 34.8 8.4
-9 3 -7 676.03 70.39
9 -3 7 743.23 59.99
9 -3 7 769.02 62.69
10 2 -7 773.72 69.49
10 2 -7 939.21 71.09
10 2 -7 882.61 75.09
-10 -2 7 853.61 77.79
-10 -2 7 850.81 74.69
9 2 -7 243.38 23
9 2 -7 258.17 28.6
9 2 -7 261.07 24.4
-9 -2 7 258.37 31.6
-9 -2 7 241.08 28
8 2 -7 664.13 57.49
8 2 -7 565.74 53.39
8 2 -7 699.93 54.69
-8 -2 7 666.73 57.29
-8 -2 7 612.44 60.59
-8 -2 7 775.72 53.29
7 2 -7 2342.27 175.48
7 2 -7 2105.39 177.18
7 2 -7 2097.49 199.78
-7 -2 7 2097.09 181.28
-7 -2 7 2522.75 174.68
-7 -2 7 2297.17 177.78
6 2 -7 174.58 33.3
6 2 -7 141.59 12.4
6 2 -7 137.79 15.9
6 2 -7 139.79 14.1
-6 -2 7 154.68 13.6
-6 -2 7 126.79 20
-6 -2 7 137.39 16.7
5 2 -7 1096.49 87.19
5 2 -7 1155.18 88.69
5 2 -7 1119.59 89.89
-5 -2 7 1066.19 94.49
-5 -2 7 1266.77 88.89
-5 -2 7 1053.49 90.49
4 2 -7 2194.28 195.18
4 2 -7 2263.17 185.28
4 2 -7 2342.07 184.38
-4 -2 7 2333.27 190.48
-4 -2 7 2361.26 186.68
-4 -2 7 2637.64 183.58
-4 -2 7 2536.05 185.08
3 2 -7 146.69 15.4
3 2 -7 178.18 24.9
3 2 -7 177.08 14.9
3 2 -7 145.09 14.5
3 2 -7 161.88 17.1
-3 -2 7 183.98 14.2
-3 -2 7 159.98 17.8
-3 -2 7 179.68 15.6
-3 -2 7 174.48 20.7
2 2 -7 2042.5 146.89
2 2 -7 1673.23 144.59
2 2 -7 1753.42 146.59
2 2 -7 1916.31 144.39
2 2 -7 1788.72 151.28
-2 -2 7 1928.51 150.68
-2 -2 7 1802.62 147.99
-2 -2 7 1800.02 145.39
-2 -2 7 2135.39 153.98
1 2 -7 450.95 38
1 2 -7 468.85 38.1
1 2 -7 494.45 43.1
-1 -2 7 487.55 38.1
-1 -2 7 373.56 68.89
-1 -2 7 485.65 39.6
-1 -2 7 551.24 45.1
0 2 -7 1195.48 92.19
0 2 -7 1344.27 99.59
0 2 -7 1071.59 104.59
0 2 -7 1262.17 96.39
0 2 -7 1277.67 92.99
0 2 -7 1031.4 91.69
0 2 -7 1092.89 92.19
0 -2 7 1174.38 93.89
0 -2 7 1136.89 92.39
0 -2 7 1089.29 120.49
0 -2 7 1377.76 93.59
-1 2 -7 2897.11 214.88
-1 2 -7 3052.89 220.38
-1 2 -7 2786.02 232.58
-1 2 -7 2598.24 215.48
1 -2 7 2659.23 215.48
1 -2 7 2732.33 216.98
1 -2 7 2908.91 216.38
1 -2 7 2730.43 240.68
-2 2 -7 16.9 7.3
-2 2 -7 41.1 25.1
-2 2 -7 33.3 10.6
-2 2 -7 14.6 5.1
2 -2 7 39.6 26.2
2 -2 7 30.5 6.3
2 -2 7 19.1 3.9
2 -2 7 18.1 3.4
-3 2 -7 1497.75 110.79
-3 2 -7 1356.66 171.78
3 -2 7 1582.44 111.29
3 -2 7 1452.75 113.49
3 -2 7 1391.56 111.69
3 -2 7 1357.36 110.39
3 -2 7 1365.16 112.09
-4 2 -7 1761.62 135.09
4 -2 7 1872.51 137.19
4 -2 7 1666.33 137.19
4 -2 7 1773.12 138.49
4 -2 7 1767.42 136.69
4 -2 7 1839.72 175.88
4 -2 7 1666.13 135.09
-5 2 -7 73.69 19.4
-5 2 -7 42.1 9.4
5 -2 7 96.89 49.9
5 -2 7 62.59 9.3
5 -2 7 65.09 7.6
5 -2 7 40.1 8.1
-6 2 -7 1982.4 148.09
-6 2 -7 1720.83 152.18
6 -2 7 1845.52 146.39
6 -2 7 2105.09 146.19
6 -2 7 1584.94 173.98
6 -2 7 1857.21 145.19
-7 2 -7 855.71 79.29
-7 2 -7 936.11 86.99
7 -2 7 857.61 73.19
7 -2 7 888.61 70.39
-8 2 -7 67.79 19
-8 2 -7 69.29 26.7
-8 2 -7 114.69 20.5
8 -2 7 114.99 12.8
8 -2 7 95.99 15.7
-9 2 -7 1001.2 103.29
9 -2 7 1143.49 89.79
9 -2 7 1196.58 92.59
10 1 -7 671.73 58.39
10 1 -7 706.33 62.09
10 1 -7 811.32 58.89
-10 -1 7 681.03 61.69
-10 -1 7 621.94 66.59
9 1 -7 103.79 20
9 1 -7 62.49 10.3
9 1 -7 64.59 9.3
-9 -1 7 61.19 14.1
-9 -1 7 39.1 15.8
8 1 -7 1249.97 97.49
8 1 -7 1096.99 93.59
8 1 -7 1293.07 94.99
-8 -1 7 1255.37 97.49
-8 -1 7 1085.59 102.39
7 1 -7 320.27 29.3
7 1 -7 338.07 27.4
7 1 -7 273.67 25.8
7 1 -7 251.37 63.19
-7 -1 7 272.87 34.5
-7 -1 7 373.16 27.2
6 1 -7 517.45 76.49
6 1 -7 560.04 44.4
6 1 -7 474.55 41.5
6 1 -7 484.25 40.9
6 1 -7 586.24 42.9
-6 -1 7 476.55 49.99
-6 -1 7 575.74 45.4
5 1 -7 1266.47 103.89
5 1 -7 1385.96 103.09
5 1 -7 1341.17 102.79
-5 -1 7 1132.29 109.49
-5 -1 7 1366.46 110.99
-5 -1 7 1223.68 104.89
-5 -1 7 1492.55 103.79
4 1 -7 33.3 6.2
4 1 -7 45.5 33.3
4 1 -7 23.5 3.7
4 1 -7 23 4.4
-4 -1 7 25.3 4
-4 -1 7 37.5 6
-4 -1 7 27.5 6.6
-4 -1 7 22.1 9.6
-4 -1 7 42.4 11.6
3 1 -7 811.22 69.19
3 1 -7 832.12 91.89
3 1 -7 877.91 69.09
3 1 -7 850.51 70.99
-3 -1 7 971.8 68.59
-3 -1 7 938.51 70.29
-3 -1 7 747.43 74.89
-3 -1 7 1006.4 80.19
2 1 -7 367.76 30
2 1 -7 312.47 29.5
2 1 -7 358.46 50.09
2 1 -7 368.46 29.3
2 1 -7 434.26 32.9
2 1 -7 382.56 31.3
-2 -1 7 404.86 31.4
-2 -1 7 327.97 36.1
-2 -1 7 355.26 30
-2 -1 7 381.96 32.7
1 1 -7 124.49 10.2
1 1 -7 92.69 8.8
1 1 -7 94.29 9.1
-1 -1 7 109.19 16.1
-1 -1 7 98.99 9.5
-1 -1 7 109.89 11.2
-1 -1 7 102.29 43
0 1 -7 1718.03 138.89
0 1 -7 1728.03 157.28
0 1 -7 1914.21 142.59
0 -1 7 1802.32 140.39
0 -1 7 1888.61 138.89
0 -1 7 1668.63 173.18
-1 1 -7 702.53 54.19
-1 1 -7 619.84 75.69
-1 1 -7 748.43 58.09
1 -1 7 626.84 52.69
1 -1 7 680.23 54.99
1 -1 7 692.13 53.59
1 -1 7 652.13 53.29
1 -1 7 668.63 84.89
-2 1 -7 937.61 72.29
-2 1 -7 869.61 94.99
2 -1 7 850.21 68.49
2 -1 7 766.82 65.79
2 -1 7 847.82 66.89
2 -1 7 853.31 66.99
-3 1 -7 2002.9 142.79
-3 1 -7 1730.33 136.49
-3 1 -7 1751.52 165.58
3 -1 7 1685.73 136.19
3 -1 7 1876.41 138.29
3 -1 7 1770.02 172.48
3 -1 7 1585.34 135.09
3 -1 7 1671.43 136.49
-4 1 -7 596.14 57.29
-4 1 -7 651.93 50.09
-4 1 -7 585.04 85.49
4 -1 7 603.24 52.29
4 -1 7 575.24 50.89
4 -1 7 667.93 98.69
4 -1 7 619.44 50.59
4 -1 7 734.53 50.09
-5 1 -7 765.82 56.69
-5 1 -7 666.93 65.19
5 -1 7 730.93 58.49
5 -1 7 688.43 57.49
5 -1 7 720.43 59.59
5 -1 7 777.72 120.19
-6 1 -7 1124.49 81.89
-6 1 -7 876.81 87.19
6 -1 7 981.1 78.69
6 -1 7 969.9 79.69
-7 1 -7 155.98 33.2
-7 1 -7 175.08 20.9
7 -1 7 142.29 15.9
-8 1 -7 421.66 57.59
-8 1 -7 434.86 53.79
8 -1 7 486.35 41.2
8 -1 7 440.96 38.5
11 0 -7 948.91 75.79
11 0 -7 1015.4 80.79
-11 0 7 890.11 79.49
-11 0 7 838.12 88.79
10 0 -7 241.58 28
10 0 -7 253.17 23.7
-10 0 7 240.48 27.6
-10 0 7 196.18 34.8
9 0 -7 980 81.69
9 0 -7 985.9 77.49
8 0 -7 1017.2 79.69
8 0 -7 1030.1 81.99
8 0 -7 954.5 78.19
-8 0 7 862.71 81.29
-8 0 7 1130.39 79.79
7 0 -7 61.19 8.1
7 0 -7 56.39 10.1
7 0 -7 49.5 6.4
7 0 -7 68.99 39.3
-7 0 7 40.4 14.4
-7 0 7 59.79 11.1
-7 0 7 36 18.7
6 0 -7 948.31 116.09
6 0 -7 1163.38 86.49
6 0 -7 1056.39 83.59
6 0 -7 956.3 82.99
6 0 -7 1190.28 85.29
-6 0 7 1105.09 87.19
-6 0 7 957.4 93.09
-6 0 7 1239.38 99.39
5 0 -7 478.05 40
5 0 -7 411.86 37.6
5 0 -7 463.15 39.1
5 0 -7 500.15 37.7
-5 0 7 529.65 40.4
-5 0 7 442.96 41.1
-5 0 7 559.54 37.9
-5 0 7 480.85 51.79
4 0 -7 962.1 85.89
4 0 -7 1179.18 84.19
4 0 -7 1066.49 87.49
4 0 -7 1065.39 85.59
-4 0 7 1199.98 100.29
-4 0 7 1042.1 86.59
-4 0 7 1161.98 84.69
3 0 -7 1484.55 114.79
3 0 -7 1508.45 116.79
3 0 -7 1578.64 114.89
3 0 -7 1292.67 150.08
-3 0 7 1650.03 116.49
-3 0 7 1257.17 121.49
2 0 -7 253.67 20.3
2 0 -7 229.78 53.09
2 0 -7 240.58 19.8
2 0 -7 267.97 20.9
2 0 -7 224.08 18.8
-2 0 7 240.98 21.7
-2 0 7 203.28 26.8
1 0 -7 2450.35 180.28
1 0 -7 2603.24 183.18
1 0 -7 2220.98 207.48
1 0 -7 2166.98 179.18
-1 0 7 2322.17 179.98
-1 0 7 2218.58 181.68
0 0 -7 2552.94 181.08
0 0 -7 2204.68 205.08
0 0 -7 2085.19 177.68
0 0 7 1966.6 213.38
0 0 7 2291.77 177.48
0 0 7 2556.24 177.48
0 0 7 2305.97 179.28
-1 0 -7 77.69 12.8
-1 0 -7 97.69 38.4
1 0 7 74.59 8.2
1 0 7 85.89 8.5
1 0 7 81.49 10.1
-2 0 -7 2108.79 187.08
-2 0 -7 2364.26 216.18
2 0 7 2392.96 185.58
2 0 7 2447.66 185.78
2 0 7 2603.64 187.78
2 0 7 2506.55 224.98
-3 0 -7 1409.46 144.69
-3 0 -7 1587.04 116.09
3 0 7 1370.26 109.89
3 0 7 1352.66 109.79
3 0 7 1412.76 152.98
3 0 7 1331.07 111.49
-4 0 -7 114.99 24
-4 0 -7 139.89 49.1
-4 0 -7 92.69 12.9
4 0 7 93.49 10.3
4 0 7 108.69 51.99
4 0 7 84.79 12.1
4 0 7 82.19 10.4
5 0 7 1463.75 114.29
5 0 7 1356.56 115.99
5 0 7 1551.94 115.19
-6 0 -7 528.15 51.79
-6 0 -7 491.45 40.4
6 0 7 483.45 41.6
6 0 7 450.65 40.3
-7 0 -7 140.99 19.6
-7 0 -7 141.69 33.8
7 0 7 114.69 16.2
-8 0 -7 639.34 73.49
-8 0 -7 590.44 70.99
8 0 7 717.83 57.09
8 0 7 758.42 59.99
11 -1 -7 819.32 62.89
11 -1 -7 789.82 67.09
-11 1 7 656.03 65.29
10 -1 -7 65.39 12.2
10 -1 -7 67.29 14.1
-10 1 7 61.59 21.8
-10 1 7 46.4 11.9
9 -1 -7 1485.45 121.49
-9 1 7 1536.95 119.09
8 -1 -7 373.56 34.3
8 -1 -7 376.66 32.3
-8 1 7 429.66 33
-8 1 7 386.26 34.8
-8 1 7 298.07 41.8
7 -1 -7 400.76 86.79
7 -1 -7 567.24 47.8
7 -1 -7 569.44 46.3
7 -1 -7 574.44 44.5
-7 1 7 485.05 55.39
-7 1 7 630.94 47.4
-7 1 7 568.14 48.6
-7 1 7 650.83 64.99
6 -1 -7 1446.56 123.59
6 -1 -7 1585.24 122.79
-6 1 7 1462.45 124.59
-6 1 7 1702.93 124.19
-6 1 7 1699.33 141.09
5 -1 -7 17.3 3
5 -1 -7 31.9 40.2
5 -1 -7 13.2 4
-5 1 7 12.4 2.2
-5 1 7 1 9.6
-5 1 7 -1.7 18.5
-5 1 7 5.5 4.5
-5 1 7 11.6 4.3
4 -1 -7 2744.83 228.68
4 -1 -7 2842.62 228.48
4 -1 -7 2866.11 230.08
-4 1 7 3005.6 230.18
-4 1 7 3338.37 227.68
3 -1 -7 1538.15 123.59
3 -1 -7 1602.24 125.49
3 -1 -7 1509.75 123.59
-3 1 7 1590.64 125.39
-3 1 7 1713.33 122.99
2 -1 -7 226.78 19.3
2 -1 -7 203.58 67.19
2 -1 -7 212.38 18.8
-2 1 7 200.98 26.3
-2 1 7 221.78 20.8
-2 1 7 228.08 18.6
-2 1 7 241.78 18.9
1 -1 -7 4636.54 362.76
1 -1 -7 4727.13 407.66
1 -1 -7 5081.79 365.16
1 -1 -7 4764.02 361.66
-1 1 7 4821.32 362.36
-1 1 7 4798.82 364.66
-1 1 7 4163.48 369.16
0 -1 -7 970.1 85.99
0 -1 -7 1132.89 88.59
0 1 7 1092.79 85.49
0 1 7 1156.58 85.09
0 1 7 1116.89 87.79
-1 -1 -7 965.4 118.29
-1 -1 -7 904.81 77.29
-1 -1 -7 1084.19 79.89
1 1 7 955.1 75.89
1 1 7 968.6 78.09
1 1 7 988.6 75.59
1 1 7 816.52 121.89
-2 -1 -7 2991.5 244.78
-2 -1 -7 3131.69 285.87
2 1 7 3278.97 242.88
2 1 7 3246.88 245.28
2 1 7 3147.89 242.98
2 1 7 3047.2 284.57
-3 -1 -7 604.54 99.29
3 1 7 656.73 53.49
3 1 7 637.34 51.29
3 1 7 627.84 51.19
3 1 7 626.04 108.69
-4 -1 -7 1166.78 152.78
-4 -1 -7 1166.68 100.89
4 1 7 1309.57 99.59
4 1 7 1347.87 99.99
4 1 7 1268.57 101.59
-5 -1 -7 1367.66 106.49
5 1 7 1221.38 107.29
5 1 7 1407.06 106.49
5 1 7 1362.86 105.69
6 1 7 34.3 6.7
6 1 7 28.5 8.3
6 1 7 48.8 9
7 1 7 1011.8 87.49
7 1 7 1173.38 89.89
-8 -1 -7 466.15 58.09
8 1 7 388.86 39.4
8 1 7 488.85 44
11 -2 -7 160.98 18.4
11 -2 -7 162.38 24.3
-11 2 7 147.99 24
-11 2 7 120.79 29.1
10 -2 -7 619.84 50.19
10 -2 -7 623.64 53.89
-10 2 7 492.15 62.69
-10 2 7 570.74 53.09
-10 2 7 668.43 50.69
9 -2 -7 452.25 37.9
9 -2 -7 460.55 40.1
-9 2 7 380.96 46.3
8 -2 -7 14.9 4.9
8 -2 -7 19.3 6.7
-8 2 7 15.1 6.7
-8 2 7 5.9 12.5
-8 2 7 24.1 5.9
7 -2 -7 1280.17 101.79
7 -2 -7 1146.39 102.89
-7 2 7 1400.96 104.29
-7 2 7 1417.16 135.49
-7 2 7 1293.77 103.39
6 -2 -7 296.27 71.99
6 -2 -7 366.46 31.1
6 -2 -7 371.96 32.3
-6 2 7 306.57 38.5
-6 2 7 487.45 59.99
-6 2 7 373.36 33.4
-6 2 7 410.16 33.2
5 -2 -7 669.83 62.09
5 -2 -7 739.03 63.59
5 -2 -7 761.62 62.99
5 -2 -7 841.22 65.09
-5 2 7 793.42 65.09
-5 2 7 888.51 61.79
-5 2 7 955.4 94.29
4 -2 -7 2017.5 156.08
4 -2 -7 2053.89 157.78
-4 2 7 2173.28 155.18
-4 2 7 1747.93 163.48
-4 2 7 2046 158.48
3 -2 -7 453.05 37.6
3 -2 -7 361.66 95.59
3 -2 -7 430.66 35.7
3 -2 -7 455.55 36.1
-3 2 7 463.05 34.9
-3 2 7 449.86 38.1
-3 2 7 362.86 42.7
2 -2 -7 1453.45 109.69
2 -2 -7 1084.19 182.28
2 -2 -7 1519.35 111.49
2 -2 -7 1345.27 109.49
-2 2 7 1401.46 111.89
-2 2 7 1445.76 108.89
-2 2 7 1499.25 108.99
-2 2 7 1257.07 116.09
1 -2 -7 2560.64 284.37
1 -2 -7 3161.98 232.08
1 -2 -7 2918.41 230.28
-1 2 7 3278.37 228.88
-1 2 7 3108.19 232.68
-1 2 7 2661.23 235.98
-1 2 7 2990.5 229.58
0 -2 -7 146.59 14.6
0 -2 -7 112.49 53.39
0 2 7 128.89 12.5
0 2 7 140.99 11.9
0 2 7 132.49 15.3
0 2 7 68.79 59.79
-1 -2 -7 1874.91 210.78
-1 -2 -7 1950.2 149.59
1 2 7 1914.61 150.58
1 2 7 1908.61 147.89
1 2 7 2004.6 147.39
1 2 7 1645.44 195.48
-2 -2 -7 2157.38 164.18
-2 -2 -7 1959.9 222.38
-2 -2 -7 2383.66 166.28
2 2 7 1774.82 209.88
2 2 7 1954.7 161.78
2 2 7 2118.39 161.68
2 2 7 2071.89 164.58
-3 -2 -7 11.2 8.9
-3 -2 -7 -1.6 7.5
-3 -2 -7 -5.4 56.89
-3 -2 -7 35 13.6
3 2 7 15.6 4.1
3 2 7 21.1 6.5
3 2 7 22.2 47.9
3 2 7 18.4 4.4
-4 -2 -7 1697.83 260.57
4 2 7 1824.52 153.28
4 2 7 2368.96 266.97
4 2 7 1848.92 151.08
4 2 7 2068.69 151.68
-5 -2 -7 389.96 41.4
5 2 7 480.95 39
5 2 7 519.55 40
5 2 7 418.36 40.8
-6 -2 -7 116.29 19.7
6 2 7 150.48 16.6
6 2 7 111.39 18.4
6 2 7 159.88 18
-7 -2 -7 1574.84 126.99
-7 -2 -7 1609.44 131.09
7 2 7 1292.37 119.19
10 -3 -7 660.43 56.89
10 -3 -7 654.03 53.29
-10 3 7 542.15 67.69
-10 3 7 677.23 54.39
-10 3 7 644.94 56.39
9 -3 -7 10.4 4.9
9 -3 -7 14.1 7.6
-9 3 7 14.2 12.6
-9 3 7 4.7 5.2
-9 3 7 -4 15.6
8 -3 -7 653.83 52.79
8 -3 -7 635.64 54.79
-8 3 7 550.44 62.59
-8 3 7 672.33 54.89
-8 3 7 720.23 55.79
7 -3 -7 599.94 53.39
7 -3 -7 707.83 52.09
-7 3 7 664.23 54.39
-7 3 7 586.84 60.79
6 -3 -7 79.79 12
6 -3 -7 69.09 9.3
6 -3 -7 76.89 11.1
6 -3 -7 27.2 46.8
-6 3 7 88.19 7.4
-6 3 7 76.89 36.8
-6 3 7 68.49 11.6
5 -3 -7 1561.54 119.79
5 -3 -7 1451.45 118.99
5 -3 -7 1495.25 118.19
-5 3 7 1641.34 116.99
-5 3 7 1409.36 120.69
4 -3 -7 664.93 56.49
4 -3 -7 704.13 55.19
4 -3 -7 725.23 55.99
-4 3 7 591.64 62.09
-4 3 7 741.53 54.09
-4 3 7 679.53 58.09
3 -3 -7 51.39 7.7
3 -3 -7 57.39 10
3 -3 -7 36.4 61.19
-3 3 7 60.49 10.7
-3 3 7 110.29 80.49
-3 3 7 60.69 6.4
-3 3 7 45.6 12.6
2 -3 -7 3190.08 232.88
2 -3 -7 2990.1 231.48
2 -3 -7 2776.52 232.08
-2 3 7 2886.61 237.68
-2 3 7 3083.29 230.68
-2 3 7 3034 230.68
-2 3 7 2972.4 234.48
1 -3 -7 826.02 64.89
1 -3 -7 817.62 63.19
1 -3 -7 613.24 130.59
-1 3 7 790.22 61.59
-1 3 7 787.02 61.29
-1 3 7 748.03 65.49
-1 3 7 722.53 61.79
-1 3 7 735.73 68.09
-1 3 7 862.61 60.79
0 -3 -7 191.18 19.4
0 -3 -7 218.98 21.1
0 -3 -7 199.88 84.89
0 3 7 227.98 66.29
0 3 7 235.58 17.9
0 3 7 221.38 18.3
0 3 7 218.98 22.5
0 3 7 221.58 19.3
-1 -3 -7 1737.83 124.49
-1 -3 -7 1710.83 123.69
-1 -3 -7 1226.68 196.98
1 3 7 1426.26 124.59
1 3 7 1293.57 174.58
1 3 7 1614.74 121.79
-2 -3 -7 163.98 18.7
-2 -3 -7 133.49 17.5
-2 -3 -7 104.99 93.29
2 3 7 108.69 17.1
2 3 7 131.39 14.1
2 3 7 137.79 13.3
2 3 7 172.28 70.99
-3 -3 -7 640.74 55.89
-3 -3 -7 700.33 152.88
3 3 7 640.74 52.09
3 3 7 697.83 52.19
3 3 7 571.54 54.59
3 3 7 511.25 118.69
4 3 7 477.05 48.9
4 3 7 581.74 47
4 3 7 616.44 47.4
-5 -3 -7 6.9 11.1
-5 -3 -7 0.8 11.6
5 3 7 11.7 9.2
5 3 7 -0.3 7.6
5 3 7 3.8 5.5
-6 -3 -7 1132.89 96.79
-6 -3 -7 1193.08 93.99
6 3 7 931.61 88.09
-7 -3 -7 273.97 41.3
7 3 7 191.58 27.7
7 3 7 200.98 28.4
10 -4 -7 189.68 23.8
10 -4 -7 184.08 19.2
-10 4 7 118.69 32.2
-10 4 7 174.28 24
-10 4 7 177.58 23.6
9 -4 -7 311.17 26.7
9 -4 -7 259.27 37.1
-9 4 7 317.87 29.1
-9 4 7 241.98 39.9
8 -4 -7 1617.74 130.69
8 -4 -7 1623.54 129.19
8 -4 -7 1869.61 131.19
-8 4 7 1610.14 131.69
-8 4 7 1458.35 143.39
7 -4 -7 250.67 24.9
7 -4 -7 279.97 23.3
-7 4 7 232.88 33.6
-7 4 7 252.87 26.4
6 -4 -7 840.32 65.19
6 -4 -7 786.82 63.49
6 -4 -7 786.92 64.99
-6 4 7 701.43 71.39
-6 4 7 867.71 61.89
-6 4 7 754.42 66.99
5 -4 -7 2262.87 158.48
5 -4 -7 2018 158.08
5 -4 -7 2054.79 156.88
-5 4 7 2193.78 155.68
-5 4 7 1837.62 160.28
-5 4 7 1698.03 163.18
4 -4 -7 104.39 13.1
4 -4 -7 22.1 61.79
4 -4 -7 94.89 11.3
4 -4 -7 99.09 12.8
-4 4 7 95.09 19.1
-4 4 7 236.98 83.99
-4 4 7 117.79 10
-4 4 7 101.19 15.4
3 -4 -7 1606.24 125.69
3 -4 -7 1635.04 124.89
-3 4 7 1580.64 128.79
-3 4 7 1454.05 130.29
-3 4 7 1679.43 123.79
2 -4 -7 1901.61 143.39
2 -4 -7 1725.33 142.39
-2 4 7 1716.73 146.09
-2 4 7 1867.71 148.09
-2 4 7 1897.51 141.59
1 -4 -7 184.88 18.1
1 -4 -7 179.38 103.89
-1 4 7 83.59 73.59
0 -4 -7 1559.94 113.59
0 -4 -7 1428.76 112.79
0 -4 -7 987.5 202.38
0 4 7 1522.65 110.49
0 4 7 1423.56 111.59
0 4 7 1296.07 115.49
-1 -4 -7 694.83 56.29
-1 -4 -7 504.85 158.98
-1 -4 -7 752.32 56.99
1 4 7 557.34 57.79
1 4 7 607.14 128.29
1 4 7 662.63 54.49
1 4 7 708.23 53.59
-2 -4 -7 269.57 130.79
-2 -4 -7 340.97 31
-2 -4 -7 348.57 31.4
2 4 7 258.07 31.5
2 4 7 247.88 90.09
2 4 7 296.97 28.1
2 4 7 334.57 27.4
-3 -4 -7 923.11 77.69
3 4 7 885.91 74.29
3 4 7 937.71 74.09
-4 -4 -7 -9.9 12.4
-4 -4 -7 11.2 10
4 4 7 12.5 9.9
4 4 7 8.5 6
-5 -4 -7 794.32 64.39
5 4 7 640.04 60.59
6 4 7 883.61 68.69
6 4 7 667.93 66.89
10 -5 -7 13.2 10.8
10 -5 -7 10.8 8.6
10 -5 -7 29.8 9.2
-10 5 7 6.1 20.7
-10 5 7 25.8 10.6
9 -5 -7 841.32 62.99
9 -5 -7 807.42 65.99
-9 5 7 699.53 74.99
-9 5 7 713.13 67.09
8 -5 -7 1565.74 115.99
8 -5 -7 1484.55 113.19
-8 5 7 1295.57 122.39
-8 5 7 1383.66 117.39
7 -5 -7 36.1 7.4
7 -5 -7 34.6 8.5
7 -5 -7 49.7 9
-7 5 7 22 14.3
-7 5 7 33 9.2
6 -5 -7 2423.86 164.58
6 -5 -7 2126.29 164.88
6 -5 -7 2067.49 162.98
-6 5 7 1845.42 169.78
-6 5 7 2270.97 161.38
-6 5 7 1782.42 166.88
5 -5 -7 1553.74 118.99
5 -5 -7 1662.73 121.09
5 -5 -7 1503.05 119.69
-5 5 7 1566.14 117.49
-5 5 7 1331.57 123.09
-5 5 7 1450.15 125.59
4 -5 -7 27.6 90.49
4 -5 -7 112.99 14.3
4 -5 -7 91.99 12.6
4 -5 -7 85.69 11.1
-4 5 7 77.09 15.8
-4 5 7 99.99 9.8
-4 5 7 81.19 18.5
-4 5 7 220.68 118.19
3 -5 -7 2168.38 191.98
3 -5 -7 2306.67 190.58
3 -5 -7 2582.14 191.28
-3 5 7 2657.03 196.48
-3 5 7 2649.83 189.78
-3 5 7 2336.47 195.48
2 -5 -7 393.06 105.99
2 -5 -7 430.46 33.5
-2 5 7 312.87 36.1
-2 5 7 370.96 31.6
-2 5 7 393.36 37.4
1 -5 -7 752.52 62.69
1 -5 -7 670.33 164.88
1 -5 -7 897.01 68.09
-1 5 7 716.13 61.59
-1 5 7 717.63 65.59
-1 5 7 777.82 60.09
0 -5 -7 1803.22 140.49
0 -5 -7 1852.01 140.59
0 -5 -7 1283.27 287.27
0 5 7 1524.35 143.79
0 5 7 1872.21 139.69
0 5 7 1942.11 138.89
-1 -5 -7 8.4 5.9
-1 -5 -7 7.2 9.1
-1 -5 -7 16.5 6.9
1 5 7 -7.1 4.1
1 5 7 -1.1 8
1 5 7 -35.7 109.29
1 5 7 4.4 3.8
-2 -5 -7 1380.86 111.89
2 5 7 1272.07 110.09
2 5 7 1489.85 109.69
-3 -5 -7 620.84 55.89
3 5 7 582.74 53.09
3 5 7 625.54 51.69
-4 -5 -7 225.78 28.9
-4 -5 -7 169.78 31.5
-4 -5 -7 250.97 34.8
4 5 7 216.88 24.1
-5 -5 -7 1196.28 114.89
5 5 7 1253.77 110.09
5 5 7 1551.44 110.89
9 -6 -7 1197.18 91.19
9 -6 -7 1200.48 92.29
9 -6 -7 1239.48 94.79
-9 6 7 996 95.49
-9 6 7 1031.9 102.19
8 -6 -7 251.17 24.4
8 -6 -7 300.37 26.2
-8 6 7 277.77 37.9
-8 6 7 224.58 30.8
7 -6 -7 418.96 34
7 -6 -7 352.16 35.6
7 -6 -7 409.56 33.1
-7 6 7 357.56 43.3
-7 6 7 295.77 48.1
6 -6 -7 1310.57 102.69
6 -6 -7 1256.47 103.09
6 -6 -7 1331.57 105.19
-6 6 7 1294.87 109.99
-6 6 7 1380.26 100.99
-6 6 7 1190.18 108.19
5 -6 -7 251.07 25.1
5 -6 -7 227.48 21.9
5 -6 -7 237.98 22.1
-5 6 7 234.88 19.9
-5 6 7 180.18 27.3
-5 6 7 222.68 28.8
4 -6 -7 699.33 58.79
4 -6 -7 705.43 58.89
4 -6 -7 672.83 60.99
-4 6 7 765.12 64.59
-4 6 7 660.43 64.29
-4 6 7 805.92 57.69
3 -6 -7 1280.57 101.49
3 -6 -7 1247.08 101.49
-3 6 7 1264.97 105.49
-3 6 7 1436.46 100.79
-3 6 7 1142.49 106.69
2 -6 -7 29.9 7.6
-2 6 7 10.8 4.8
-2 6 7 19.7 8.9
-2 6 7 4.4 9.4
1 -6 -7 952.6 87.19
1 -6 -7 1002.8 84.19
1 -6 -7 1001 83.69
-1 6 7 1174.18 82.39
-1 6 7 1066.39 83.59
0 -6 -7 456.35 39.9
0 -6 -7 441.66 38.6
0 6 7 348.17 43.1
0 6 7 435.06 38.2
0 6 7 490.65 36.5
-1 -6 -7 456.35 40.1
-1 -6 -7 441.76 40.2
1 6 7 463.95 37.8
1 6 7 402.76 39.3
-2 -6 -7 1090.09 91.19
-2 -6 -7 1198.58 92.39
2 6 7 1147.89 88.89
2 6 7 967 89.49
-3 -6 -7 171.58 23
-3 -6 -7 128.09 21
3 6 7 100.49 17.2
3 6 7 142.49 18.5
-4 -6 -7 823.12 76.89
-4 -6 -7 862.71 74.59
9 -7 -7 543.45 50.39
9 -7 -7 561.94 45.2
9 -7 -7 535.55 45.7
-9 7 7 488.75 57.89
-9 7 7 474.45 54.09
8 -7 -7 19.2 10.9
8 -7 -7 35.1 9.3
8 -7 -7 35.1 8.7
-8 7 7 45.1 18.1
-8 7 7 11.1 12.7
7 -7 -7 545.25 53.79
7 -7 -7 684.13 51.09
7 -7 -7 641.24 50.99
-7 7 7 559.04 57.89
-7 7 7 582.04 58.59
6 -7 -7 452.15 37.5
6 -7 -7 385.36 40
6 -7 -7 439.26 36.8
-6 7 7 358.06 43.9
-6 7 7 467.15 35
-6 7 7 419.26 43.9
5 -7 -7 108.59 13.9
5 -7 -7 103.69 13.5
5 -7 -7 94.59 18.3
-5 7 7 113.89 21.7
-5 7 7 120.69 12.3
-5 7 7 96.89 19.5
4 -7 -7 738.83 65.09
-4 7 7 839.82 64.79
-4 7 7 843.32 70.59
3 -7 -7 17.8 9.6
3 -7 -7 11.9 7.8
3 -7 -7 16.1 5.7
-3 7 7 8.3 5.1
-3 7 7 -3.8 10.1
-3 7 7 19.8 9.3
2 -7 -7 385.66 40.2
2 -7 -7 419.66 36.1
2 -7 -7 394.36 34.6
-2 7 7 417.86 35.1
-2 7 7 429.56 37.9
-2 7 7 321.07 41
1 -7 -7 404.36 41.9
1 -7 -7 359.26 44.3
1 -7 -7 435.86 36
-1 7 7 467.95 36.6
-1 7 7 327.67 42
0 -7 -7 21.9 7.2
0 -7 -7 34.2 10.4
0 7 7 11.8 8
-1 -7 -7 789.32 65.49
-1 -7 -7 729.03 67.99
1 7 7 711.13 64.59
1 7 7 827.62 63.29
-2 -7 -7 603.34 54.99
-2 -7 -7 643.84 53.79
2 7 7 516.55 52.79
2 7 7 612.54 51.29
-3 -7 -7 36 16.4
-3 -7 -7 58.29 13.4
3 7 7 29.4 12
3 7 7 13.3 16.8
3 7 7 43.7 11.5
8 -8 -7 411.66 37
8 -8 -7 401.46 42.8
7 -8 -7 583.04 57.89
7 -8 -7 681.73 52.89
7 -8 -7 620.64 54.29
-7 8 7 627.34 63.49
-7 8 7 646.84 61.99
6 -8 -7 8.1 5.5
6 -8 -7 10.4 8.2
6 -8 -7 12 11.7
-6 8 7 5.6 6.3
-6 8 7 -13.8 13.8
5 -8 -7 710.33 70.49
5 -8 -7 741.23 65.39
5 -8 -7 831.02 67.09
-5 8 7 841.92 71.69
-5 8 7 919.61 65.59
-5 8 7 808.62 74.79
4 -8 -7 222.18 22.3
4 -8 -7 183.88 29
4 -8 -7 254.17 25.1
-4 8 7 273.17 23.1
-4 8 7 196.28 32
-4 8 7 263.07 28.4
3 -8 -7 226.28 29.2
3 -8 -7 185.08 20.1
3 -8 -7 198.88 22.9
-3 8 7 163.68 28.2
-3 8 7 228.78 21.7
-3 8 7 216.38 24.8
2 -8 -7 633.64 62.29
2 -8 -7 702.53 56.39
2 -8 -7 674.53 57.79
-2 8 7 765.42 66.69
-2 8 7 684.73 58.29
-2 8 7 623.64 64.59
-1 8 7 92.89 16.2
-1 8 7 63.29 18
0 -8 -7 671.33 56.99
0 8 7 600.14 63.59
0 8 7 709.53 57.69
-1 -8 -7 1311.27 95.79
-1 -8 -7 1174.68 96.09
1 8 7 994.2 100.79
1 8 7 1145.79 96.39
-2 -8 -7 33.1 11
-2 -8 -7 16.4 13.9
2 8 7 -9.2 17.3
2 8 7 4.5 12
6 -9 -7 254.57 35.8
6 -9 -7 247.88 26.7
-6 9 7 254.17 35
-6 9 7 263.97 39.3
5 -9 -7 660.83 79.29
5 -9 -7 759.82 65.79
5 -9 -7 881.41 68.19
-5 9 7 874.01 77.19
-5 9 7 872.11 72.39
4 -9 -7 6.3 14.6
4 -9 -7 9.8 5.4
4 -9 -7 -0.4 9.8
-4 9 7 6.1 16.4
-4 9 7 9.9 7.2
3 -9 -7 716.63 74.89
3 -9 -7 760.32 64.79
3 -9 -7 800.92 67.49
-3 9 7 820.22 75.99
-3 9 7 889.01 66.79
2 -9 -7 1211.58 102.19
2 -9 -7 1294.77 102.49
-2 9 7 1166.58 109.09
-2 9 7 1364.86 102.49
0 -12 8 441.86 48.3
-1 12 -8 41.5 7.7
1 -12 8 27.4 12.8
1 -12 8 29.3 25.9
-2 12 -8 269.17 31.9
2 -12 8 296.67 35.3
3 11 -8 810.42 69.69
3 11 -8 858.91 72.19
-3 -11 8 903.51 72.29
-3 -11 8 893.31 89.29
-2 -11 8 100.09 30.3
1 11 -8 938.51 81.69
-1 -11 8 1064.49 82.89
-1 -11 8 1100.29 96.69
0 11 -8 645.84 58.99
0 11 -8 727.93 55.99
-1 11 -8 157.68 20.9
-1 11 -8 154.78 16.1
1 -11 8 107.09 23.4
1 -11 8 178.58 35.6
-2 11 -8 1595.34 132.99
-2 11 -8 1700.43 129.09
-3 11 -8 382.06 29.6
-3 11 -8 340.27 35.2
3 -11 8 255.97 34.2
3 -11 8 348.27 42
-4 11 -8 319.37 35.4
-4 11 -8 352.56 28.4
4 -11 8 265.37 32.7
-5 11 -8 976 88.29
-5 11 -8 1158.18 82.49
5 -11 8 1089.09 91.79
5 -11 8 916.11 86.19
4 10 -8 868.21 71.69
4 10 -8 775.32 67.69
-4 -10 8 883.11 70.39
-4 -10 8 856.41 86.89
3 10 -8 405.46 35.5
3 10 -8 306.67 33.5
3 10 -8 372.46 32
-3 -10 8 378.36 50.69
-3 -10 8 406.56 34.7
2 10 -8 216.18 23.4
2 10 -8 208.78 20.8
2 10 -8 198.08 23
-2 -10 8 265.27 23
-2 -10 8 257.37 39.3
1 10 -8 1236.28 110.09
1 10 -8 1342.47 107.99
-1 -10 8 1441.86 128.49
-1 -10 8 1509.25 108.89
0 10 -8 171.38 15.5
0 10 -8 137.99 18.4
0 10 -8 138.49 18.2
0 -10 8 147.89 15.7
0 -10 8 150.28 27.3
-1 10 -8 561.44 59.09
-1 10 -8 675.33 49.9
-1 10 -8 586.54 52.59
-2 10 -8 1208.58 105.29
-2 10 -8 1281.97 105.29
-2 10 -8 1396.26 101.99
-3 10 -8 -0.1 7.6
-3 10 -8 3.1 8.8
-3 10 -8 -0.8 4
3 -10 8 16.3 14.1
3 -10 8 7.7 7.2
-4 10 -8 712.33 70.99
-4 10 -8 847.72 65.39
-4 10 -8 839.82 70.19
4 -10 8 949.11 74.49
4 -10 8 751.32 68.79
-5 10 -8 679.83 61.19
-5 10 -8 703.03 55.09
5 -10 8 653.13 58.79
-6 10 -8 11.9 14.4
-6 10 -8 59.09 14.2
6 -10 8 18.5 14.5
6 -10 8 38.8 10.5
6 9 -8 7.2 5.9
6 9 -8 14.7 13.5
6 9 -8 22.9 16.3
-6 -9 8 12.1 15.4
-6 -9 8 9.9 12.1
5 9 -8 379.26 46.9
5 9 -8 450.45 38.7
5 9 -8 502.75 43.8
-5 -9 8 451.95 40.6
4 9 -8 630.84 51.79
4 9 -8 650.13 55.59
4 9 -8 578.54 52.89
-4 -9 8 641.14 53.89
-4 -9 8 724.03 67.39
3 9 -8 71.59 9.6
3 9 -8 75.39 11.9
3 9 -8 47.2 12.2
-3 -9 8 63.49 19.3
-3 -9 8 77.79 12.1
2 9 -8 859.71 67.99
2 9 -8 875.21 70.09
2 9 -8 727.53 68.99
2 9 -8 798.02 69.59
-2 -9 8 976.5 80.49
-2 -9 8 936.21 68.89
1 9 -8 669.33 59.59
1 9 -8 729.53 60.09
1 9 -8 774.22 57.99
0 9 -8 104.59 14.8
0 9 -8 106.59 15.2
0 9 -8 126.69 12.3
0 -9 8 119.59 12
0 -9 8 110.19 25.5
-1 9 -8 980.4 81.99
-1 9 -8 1054.19 79.49
-1 9 -8 901.31 82.09
1 -9 8 1150.28 106.39
-2 9 -8 293.57 28.7
-2 9 -8 335.57 25.5
-2 9 -8 284.37 29.2
2 -9 8 243.78 28.3
-3 9 -8 187.48 22.7
3 -9 8 134.49 22.4
3 -9 8 222.18 27.6
-4 9 -8 552.54 53.69
-4 9 -8 581.74 51.89
4 -9 8 578.74 47.6
4 -9 8 662.13 55.99
4 -9 8 578.34 50.79
-5 9 -8 52.69 14.9
-5 9 -8 46.8 11.3
5 -9 8 49.2 13.6
5 -9 8 35 6.5
5 -9 8 37.7 9.2
-6 9 -8 159.78 23.7
6 -9 8 157.98 15.6
6 -9 8 157.18 24.8
6 -9 8 114.29 19.6
-7 9 -8 412.26 41
7 -9 8 367.66 36.7
7 -9 8 372.36 33.3
7 8 -8 312.57 41.7
-7 -8 8 377.26 35.2
6 8 -8 392.16 43.5
6 8 -8 446.76 47.1
6 8 -8 489.05 38
-6 -8 8 461.15 40.7
5 8 -8 1010.3 95.59
5 8 -8 1235.68 89.19
4 8 -8 160.18 19.6
4 8 -8 148.89 16.9
4 8 -8 144.19 16.4
4 8 -8 160.48 15.3
-4 -8 8 180.88 28.6
-4 -8 8 166.98 17.2
3 8 -8 801.32 68.59
3 8 -8 930.71 70.29
3 8 -8 740.93 68.59
3 8 -8 847.32 67.39
-3 -8 8 945.81 68.59
2 8 -8 1313.67 99.69
2 8 -8 1414.16 98.19
2 8 -8 1129.09 100.89
2 8 -8 1298.37 100.09
-2 -8 8 1080.49 104.59
1 8 -8 43.9 9.9
1 8 -8 52.69 7.6
1 8 -8 52.69 9.5
1 8 -8 54.49 10.7
-1 -8 8 47.2 11.4
0 8 -8 1177.68 95.39
0 8 -8 1064.19 95.79
0 8 -8 1254.97 93.49
0 8 -8 1113.19 95.69
0 -8 8 1347.67 93.19
-1 8 -8 918.61 65.49
-1 8 -8 819.32 69.49
-1 8 -8 889.21 68.79
-1 8 -8 735.93 66.69
1 -8 8 750.32 69.39
1 -8 8 899.51 66.39
-2 8 -8 56.89 12.6
-2 8 -8 45.5 10.6
2 -8 8 36.3 8.6
2 -8 8 111.79 34.1
2 -8 8 63.49 7.8
2 -8 8 55.09 14.6
-3 8 -8 599.24 56.69
-3 8 -8 643.44 54.99
3 -8 8 613.64 51.59
3 -8 8 739.33 59.29
3 -8 8 653.53 54.69
-4 8 -8 357.06 36.5
-4 8 -8 338.57 33.4
4 -8 8 369.76 32.4
4 -8 8 342.57 36.3
4 -8 8 347.57 29.5
-5 8 -8 106.89 17.3
-5 8 -8 116.39 25.3
5 -8 8 118.09 16.2
5 -8 8 96.49 20.5
5 -8 8 137.89 15.9
-6 8 -8 445.96 40.7
-6 8 -8 339.67 45.3
6 -8 8 410.76 34.7
6 -8 8 445.66 38
-7 8 -8 139.19 23
7 -8 8 106.49 14.1
7 -8 8 134.29 19.8
7 -8 8 115.59 23.3
-8 -7 8 935.31 77.89
7 7 -8 16.6 13.2
7 7 -8 12.1 10.7
-7 -7 8 24.9 8.9
-7 -7 8 33.8 12.5
6 7 -8 1132.09 94.69
-6 -7 8 1144.99 96.49
-6 -7 8 1337.87 96.99
5 7 -8 1314.17 106.19
5 7 -8 1398.66 105.09
5 7 -8 1143.29 107.29
5 7 -8 1267.37 109.99
5 7 -8 1418.46 104.49
-5 -7 8 1448.46 105.89
4 7 -8 43.6 9.8
4 7 -8 57.49 8.6
4 7 -8 40.1 6.8
4 7 -8 33.3 10.2
4 7 -8 32.2 8.2
-4 -7 8 42.4 7.5
-4 -7 8 47.4 12
-4 -7 8 38 13.2
3 7 -8 1906.61 152.28
3 7 -8 1904.01 153.48
3 7 -8 1766.32 154.18
3 7 -8 2091.19 155.08
-3 -7 8 2166.98 153.28
2 7 -8 1223.28 113.39
2 7 -8 1437.16 112.99
2 7 -8 1492.45 111.99
2 7 -8 1509.05 110.49
1 7 -8 333.97 32.4
1 7 -8 355.26 31.5
1 7 -8 301.17 33.4
1 7 -8 381.26 30
-1 -7 8 418.86 29.9
-1 -7 8 373.66 30
0 7 -8 1644.64 135.59
0 7 -8 1521.15 135.39
0 7 -8 1890.01 132.29
0 7 -8 1798.32 134.49
0 -7 8 1604.14 136.29
0 -7 8 1764.92 132.49
-1 7 -8 358.06 30.5
-1 7 -8 323.97 31.9
-1 7 -8 354.76 27.1
1 -7 8 338.47 27.9
1 -7 8 364.86 55.99
1 -7 8 302.47 42.6
1 -7 8 319.07 31.2
-2 7 -8 627.64 54.79
-2 7 -8 604.14 56.69
2 -7 8 741.83 59.19
2 -7 8 646.34 52.39
2 -7 8 644.84 55.09
2 -7 8 748.33 80.49
-3 7 -8 1053.09 85.89
-3 7 -8 891.11 83.99
-3 7 -8 1039.6 88.69
3 -7 8 1058.09 83.19
3 -7 8 1224.28 116.69
3 -7 8 1103.09 85.59
3 -7 8 1141.29 89.19
-4 7 -8 1.8 8.4
-4 7 -8 21.8 5.7
-4 7 -8 17.7 7.1
4 -7 8 20.9 9.5
4 -7 8 11.2 5.8
4 -7 8 11.1 3.5
-5 7 -8 1060.99 90.19
-5 7 -8 1240.08 93.29
-5 7 -8 1041.1 96.59
5 -7 8 969 93.09
5 -7 8 1226.68 89.19
5 -7 8 1251.87 91.49
-6 7 -8 681.83 58.39
-6 7 -8 654.93 61.49
-6 7 -8 653.53 65.29
6 -7 8 649.24 54.09
6 -7 8 698.33 56.39
-7 7 -8 176.88 24.6
7 -7 8 163.28 16.8
7 -7 8 158.18 20
7 -7 8 160.48 27.4
-8 7 -8 1177.08 99.09
8 -7 8 1130.59 91.59
8 -7 8 1162.98 94.39
8 6 -8 471.05 52.39
-8 -6 8 612.74 57.09
-8 -6 8 527.55 47.9
-8 -6 8 586.04 53.69
7 6 -8 144.99 23.4
-7 -6 8 161.48 19
-7 -6 8 176.18 18.8
6 6 -8 1572.54 124.79
6 6 -8 1468.85 129.79
-6 -6 8 1533.95 126.09
-6 -6 8 1831.32 128.39
5 6 -8 613.64 49.7
5 6 -8 574.14 48.9
5 6 -8 548.45 53.49
-5 -6 8 600.24 50.19
-5 -6 8 735.33 52.89
4 6 -8 552.74 44
4 6 -8 534.05 48.4
4 6 -8 555.44 45.1
-4 -6 8 560.24 45
3 6 -8 1466.85 109.69
3 6 -8 1233.58 112.89
3 6 -8 1373.76 111.89
3 6 -8 1463.85 110.99
3 6 -8 1400.36 112.49
-3 -6 8 1517.75 110.39
2 6 -8 248.08 22.3
2 6 -8 238.28 23.9
-2 -6 8 249.28 20.9
1 6 -8 986.9 91.69
1 6 -8 1149.58 91.59
1 6 -8 1236.18 88.19
1 6 -8 1166.58 89.69
-1 -6 8 1206.38 88.19
-1 -6 8 1003.9 92.49
0 6 -8 1296.47 103.89
0 6 -8 1362.56 101.89
0 6 -8 1293.17 105.99
0 -6 8 1292.97 102.19
0 -6 8 1318.87 105.79
-1 6 -8 17.4 7.2
-1 6 -8 25.3 6
-1 6 -8 11.6 6.9
-1 6 -8 21.4 3.4
1 -6 8 16.6 3.5
1 -6 8 4.8 25.6
1 -6 8 35 9
1 -6 8 14.9 13.9
1 -6 8 28.3 6.7
-2 6 -8 1168.18 101.79
-2 6 -8 1237.78 99.09
2 -6 8 1212.98 96.89
2 -6 8 1437.36 122.99
2 -6 8 1148.89 106.99
2 -6 8 1303.07 99.19
-3 6 -8 543.35 45.9
-3 6 -8 521.35 49.4
3 -6 8 527.75 43.2
3 -6 8 552.34 45.1
3 -6 8 507.85 61.09
3 -6 8 538.55 47.9
3 -6 8 597.74 77.19
-4 6 -8 446.86 44.5
-4 6 -8 541.35 49.99
-4 6 -8 564.44 45.8
4 -6 8 518.65 47.2
4 -6 8 570.14 44.6
4 -6 8 524.75 42.6
-5 6 -8 1275.37 98.99
-5 6 -8 1079.09 97.59
-5 6 -8 1180.78 104.39
5 -6 8 1215.58 95.49
5 -6 8 1335.17 97.59
-6 6 -8 110.99 16.5
-6 6 -8 97.19 21.7
-6 6 -8 88.19 14.9
6 -6 8 83.39 10.9
6 -6 8 71.69 16.3
-7 6 -8 870.31 90.99
-7 6 -8 836.22 80.39
-7 6 -8 1071.59 83.09
7 -6 8 1044.9 77.89
7 -6 8 1054.09 80.29
-8 6 -8 645.14 63.49
8 -6 8 787.32 62.19
8 -6 8 753.12 59.19
9 5 -8 641.14 57.19
9 5 -8 602.44 62.69
-9 -5 8 697.53 59.79
-9 -5 8 743.93 64.99
8 5 -8 9.9 10.6
8 5 -8 12.2 7.8
8 5 -8 5.3 6.8
-8 -5 8 7.8 8.6
-8 -5 8 14.8 10.6
7 5 -8 1206.28 108.09
-7 -5 8 1431.86 107.89
6 5 -8 931.41 73.79
6 5 -8 860.01 73.19
6 5 -8 859.21 77.49
6 5 -8 969.7 75.29
-6 -5 8 920.91 74.59
-6 -5 8 1059.49 78.09
5 5 -8 13.5 4.2
5 5 -8 7.3 4.6
5 5 -8 11.9 2.9
5 5 -8 18.9 7.4
-5 -5 8 13.3 6.7
-5 -5 8 11.5 4.8
-5 -5 8 12.1 7.6
4 5 -8 779.92 66.89
4 5 -8 783.92 69.29
4 5 -8 807.22 65.89
-4 -5 8 991.8 70.99
-4 -5 8 856.51 66.99
3 5 -8 581.54 47.3
3 5 -8 551.94 49.3
3 5 -8 571.04 50.29
-3 -5 8 622.34 47.9
-3 -5 8 609.04 46.8
2 5 -8 105.09 14.2
2 5 -8 108.49 10.5
-2 -5 8 77.99 17.1
-2 -5 8 109.49 11.5
-2 -5 8 104.59 10
1 5 -8 992.6 86.89
1 5 -8 985.3 87.19
-1 -5 8 1022.2 87.39
-1 -5 8 1214.98 86.29
-1 -5 8 1117.49 84.79
-1 -5 8 1054.99 83.19
0 5 -8 140.99 17.5
0 5 -8 147.89 12.5
0 5 -8 134.89 14.7
0 5 -8 118.79 17.9
0 -5 8 156.98 35.4
0 -5 8 140.49 19.8
0 -5 8 134.59 12.8
0 -5 8 128.09 15.8
0 -5 8 154.98 18.1
0 -5 8 156.88 14.9
-1 5 -8 928.91 65.89
-1 5 -8 780.22 70.19
-1 5 -8 817.22 67.19
-1 5 -8 792.62 64.49
1 -5 8 748.43 74.29
1 -5 8 1006.8 92.19
1 -5 8 775.52 65.29
1 -5 8 871.61 67.59
-2 5 -8 1037.3 83.39
-2 5 -8 1041.7 87.29
2 -5 8 974.2 81.19
2 -5 8 1164.68 108.79
2 -5 8 951 91.89
2 -5 8 1103.09 83.09
-3 5 -8 8.1 5.8
-3 5 -8 13.6 5
-3 5 -8 17.5 8.7
3 -5 8 26.3 29.7
3 -5 8 20.4 14.4
3 -5 8 6.7 2.9
3 -5 8 8.5 4.3
3 -5 8 16.8 8.2
-4 5 -8 1060.29 89.29
-4 5 -8 1068.89 83.29
4 -5 8 1006.6 81.79
4 -5 8 1022.5 80.49
4 -5 8 964.3 85.09
-5 5 -8 368.36 40.6
-5 5 -8 393.76 34.4
-5 5 -8 346.47 35.1
5 -5 8 369.16 31.2
5 -5 8 389.56 32.9
-6 5 -8 99.49 15.3
-6 5 -8 85.89 16.1
6 -5 8 89.69 11
6 -5 8 91.79 13.5
6 -5 8 106.19 16.6
-7 5 -8 1273.57 101.29
-7 5 -8 1230.58 110.79
-7 5 -8 1033.3 97.69
7 -5 8 1174.68 95.49
7 -5 8 1234.68 93.69
-8 5 -8 187.28 44.4
8 -5 8 210.48 24.5
8 -5 8 227.38 20.9
9 4 -8 310.07 33.5
9 4 -8 390.06 35.4
9 4 -8 411.06 40.2
-9 -4 8 364.96 48.9
-9 -4 8 400.76 40.9
8 4 -8 411.46 41.9
8 4 -8 433.56 38.7
-8 -4 8 479.45 43.1
7 4 -8 1434.76 129.69
7 4 -8 1629.24 127.59
-7 -4 8 1750.82 131.29
-7 -4 8 1597.44 125.79
-7 -4 8 1684.93 131.59
6 4 -8 79.69 11.5
6 4 -8 99.99 14.3
6 4 -8 109.49 11.9
6 4 -8 91.29 9.6
-6 -4 8 73.59 15.3
-6 -4 8 107.59 16.1
-6 -4 8 88.79 9.8
5 4 -8 791.42 62.69
5 4 -8 707.73 64.19
5 4 -8 660.43 60.89
-5 -4 8 855.91 66.29
-5 -4 8 900.91 67.49
-5 -4 8 794.02 62.19
4 4 -8 1225.58 104.79
4 4 -8 1279.97 105.89
4 4 -8 1260.77 107.49
-4 -4 8 1555.24 111.09
-4 -4 8 1337.97 106.09
-4 -4 8 1487.85 109.69
3 4 -8 30.4 7.7
3 4 -8 57.99 10.9
3 4 -8 35 6.2
-3 -4 8 61.19 11.6
-3 -4 8 44.6 5.6
-3 -4 8 44.9 7
2 4 -8 1640.24 129.19
2 4 -8 1595.44 130.49
2 4 -8 1748.82 133.79
2 4 -8 1612.94 132.29
-2 -4 8 1724.63 128.99
-2 -4 8 1787.92 130.49
-2 -4 8 1543.65 134.39
1 4 -8 549.95 48.8
1 4 -8 607.34 48.7
1 4 -8 528.45 43.8
-1 -4 8 530.35 45.3
-1 -4 8 587.24 45.6
-1 -4 8 581.34 47.9
-1 -4 8 496.85 43.7
0 4 -8 517.65 50.49
0 4 -8 560.24 45.5
0 4 -8 573.34 51.29
0 -4 8 674.13 48.8
0 -4 8 595.64 77.69
0 -4 8 567.24 45.9
0 -4 8 617.34 47.2
0 -4 8 603.94 47.7
0 -4 8 496.25 50.89
-1 4 -8 2256.87 176.28
-1 4 -8 2258.87 177.88
-1 4 -8 2347.17 183.18
-1 4 -8 2385.06 175.98
1 -4 8 2334.77 202.08
1 -4 8 1987.3 185.18
1 -4 8 2478.85 178.58
1 -4 8 2257.17 178.58
1 -4 8 2124.19 176.78
1 -4 8 2451.25 177.78
-2 4 -8 65.79 15
2 -4 8 68.69 9.3
2 -4 8 50.69 8.2
2 -4 8 63.09 9.2
2 -4 8 49.8 7.1
2 -4 8 78.59 30.7
2 -4 8 55.79 18.7
-3 4 -8 1323.67 106.99
-3 4 -8 1285.57 100.89
3 -4 8 1235.28 98.69
3 -4 8 1041.6 111.69
3 -4 8 1241.48 99.69
3 -4 8 1269.07 129.19
3 -4 8 1416.86 100.49
-4 4 -8 1487.05 118.09
-4 4 -8 1405.96 110.19
4 -4 8 1358.86 108.79
4 -4 8 1115.39 123.79
4 -4 8 1345.37 109.89
4 -4 8 1619.14 145.79
4 -4 8 1397.06 107.89
-5 4 -8 9.1 13.4
-5 4 -8 17.4 6
-5 4 -8 28.6 9.3
5 -4 8 13.8 4.8
5 -4 8 24.5 8.3
5 -4 8 17.6 4.1
-6 4 -8 1145.79 98.79
-6 4 -8 1051.29 86.69
6 -4 8 1024.2 83.39
6 -4 8 1026 84.79
-7 4 -8 960.7 73.29
-7 4 -8 916.11 88.49
7 -4 8 800.12 69.89
7 -4 8 772.42 68.09
-8 4 -8 22.5 14.8
-8 4 -8 18.9 12.7
-8 4 -8 2.7 31.4
8 -4 8 9.3 5.6
8 -4 8 17.9 8.5
10 3 -8 1190.08 96.29
10 3 -8 1179.38 100.59
-10 -3 8 1210.98 101.19
-10 -3 8 1172.58 102.09
9 3 -8 41.5 8
9 3 -8 49.6 9.5
9 3 -8 44.5 12.6
-9 -3 8 49.3 13.5
8 3 -8 1085.29 95.69
8 3 -8 1230.98 93.29
-8 -3 8 1165.08 105.49
-8 -3 8 1175.48 98.69
7 3 -8 987.9 87.39
7 3 -8 1096.69 85.49
7 3 -8 952 110.29
-7 -3 8 1093.89 88.59
-7 -3 8 1175.48 84.39
-7 -3 8 1060.19 90.89
6 3 -8 38.7 8.3
6 3 -8 40.8 6
6 3 -8 43.8 8
6 3 -8 28.4 6.3
-6 -3 8 28.4 8.3
-6 -3 8 60.49 13
5 3 -8 1808.52 145.79
5 3 -8 1796.72 147.29
-5 -3 8 1950.6 145.99
-5 -3 8 1821.72 148.59
-5 -3 8 1989.7 151.88
4 3 -8 769.52 68.09
4 3 -8 831.42 67.09
-4 -3 8 837.02 70.19
-4 -3 8 896.61 66.29
-4 -3 8 856.41 67.59
-4 -3 8 900.31 73.09
3 3 -8 1083.99 86.79
3 3 -8 1030.1 87.59
3 3 -8 1056.89 89.49
-3 -3 8 1156.88 86.29
-3 -3 8 1278.97 93.59
-3 -3 8 1068.89 87.59
2 3 -8 2604.54 213.18
2 3 -8 2913.71 215.98
2 3 -8 2691.63 212.58
-2 -3 8 2765.12 217.68
-2 -3 8 2837.62 213.98
-2 -3 8 2734.23 212.38
1 3 -8 13.1 12.4
1 3 -8 9.3 6.7
1 3 -8 4.2 3
1 3 -8 10.1 3.2
-1 -3 8 15.4 25.8
-1 -3 8 9.6 3.5
0 3 -8 2726.43 228.08
0 3 -8 2897.01 228.08
0 3 -8 3268.37 235.68
0 3 -8 3244.88 230.08
0 3 -8 2950.3 232.88
0 -3 8 3008.5 230.08
0 -3 8 2616.04 256.47
0 -3 8 2950.6 228.48
-1 3 -8 2078.09 157.08
-1 3 -8 2237.88 165.98
-1 3 -8 1987.5 157.18
-1 3 -8 1927.01 162.88
-1 3 -8 1833.52 157.58
1 -3 8 1989.9 157.88
1 -3 8 2064.39 159.68
1 -3 8 2075.79 187.28
1 -3 8 2194.18 158.98
-2 3 -8 449.76 33.3
-2 3 -8 344.97 39.7
-2 3 -8 399.16 33.3
-2 3 -8 468.15 43.5
2 -3 8 425.46 35.3
2 -3 8 441.16 36.7
2 -3 8 460.35 70.99
2 -3 8 442.56 33.6
2 -3 8 427.26 34.7
-3 3 -8 2847.22 216.38
3 -3 8 2510.15 206.88
3 -3 8 2582.44 206.38
3 -3 8 2261.67 222.08
3 -3 8 2951.3 205.68
3 -3 8 2729.43 239.08
3 -3 8 2778.92 208.58
-4 3 -8 871.21 71.89
-4 3 -8 1011.2 82.49
4 -3 8 809.62 70.29
4 -3 8 933.91 70.09
4 -3 8 877.41 69.69
4 -3 8 770.42 90.19
-5 3 -8 464.15 46.7
-5 3 -8 374.56 34.8
5 -3 8 384.56 32.3
5 -3 8 359.56 33.1
-6 3 -8 1600.24 155.68
-6 3 -8 2175.78 166.28
-6 3 -8 2109.69 152.88
6 -3 8 1861.61 150.38
6 -3 8 1856.71 149.19
-7 3 -8 167.18 34
-7 3 -8 174.78 36
-7 3 -8 224.58 23.8
7 -3 8 188.78 18.4
7 -3 8 171.58 20.2
-8 3 -8 317.07 43.1
-8 3 -8 305.87 63.29
8 -3 8 345.87 33.3
8 -3 8 346.07 30.4
10 2 -8 366.36 40.1
10 2 -8 396.66 34.9
-10 -2 8 401.26 44.2
-10 -2 8 324.17 39.7
9 2 -8 109.99 15.2
9 2 -8 118.79 19.3
9 2 -8 87.99 14.1
-9 -2 8 135.79 21.1
-9 -2 8 117.29 27.7
8 2 -8 1033 82.79
8 2 -8 934.11 78.69
8 2 -8 1009.1 82.49
-8 -2 8 1018.9 87.49
7 2 -8 109.29 12.2
7 2 -8 139.59 14.5
7 2 -8 100.99 48.8
7 2 -8 130.79 16.4
-7 -2 8 111.89 21.3
-7 -2 8 150.08 13.3
-7 -2 8 118.89 17.7
6 2 -8 535.05 45.6
6 2 -8 453.95 42
6 2 -8 568.74 44.1
6 2 -8 592.54 59.79
-6 -2 8 536.65 50.99
-6 -2 8 509.05 46.6
-6 -2 8 588.44 44.1
5 2 -8 1186.28 124.39
5 2 -8 1320.57 109.29
5 2 -8 1337.07 108.19
-5 -2 8 1374.56 115.19
-5 -2 8 1569.24 107.09
-5 -2 8 1459.25 108.79
-5 -2 8 1379.46 110.99
4 2 -8 10.4 2.9
4 2 -8 8.5 16.9
4 2 -8 13.4 4
4 2 -8 11.3 5.2
-4 -2 8 16.1 8.7
-4 -2 8 14.8 7.6
3 2 -8 2155.78 185.78
3 2 -8 2369.16 198.68
3 2 -8 2381.56 188.08
3 2 -8 2379.46 185.58
-3 -2 8 2406.46 191.38
-3 -2 8 2561.74 185.08
-3 -2 8 2453.15 186.68
-3 -2 8 2497.95 192.88
2 2 -8 714.23 60.69
2 2 -8 705.03 60.69
2 2 -8 867.41 64.89
-2 -2 8 750.52 60.49
-2 -2 8 755.82 62.19
-2 -2 8 804.52 65.09
-2 -2 8 836.72 68.59
1 2 -8 634.44 52.59
1 2 -8 734.03 57.39
1 2 -8 672.83 67.59
1 2 -8 674.43 53.29
-1 -2 8 694.53 53.19
-1 -2 8 654.13 54.69
-1 -2 8 636.54 93.39
0 2 -8 3049.69 250.97
0 2 -8 3183.58 238.78
0 2 -8 3178.38 234.28
0 -2 8 3017.7 235.98
0 -2 8 2687.33 268.17
0 -2 8 3053.69 234.38
-1 2 -8 238.68 23.3
-1 2 -8 271.57 22.2
-1 2 -8 269.27 49.5
-1 2 -8 285.37 28.8
1 -2 8 280.97 23.2
1 -2 8 269.47 65.39
1 -2 8 269.17 22.7
1 -2 8 277.27 24.6
-2 2 -8 1229.68 96.39
-2 2 -8 1069.99 116.19
2 -2 8 1144.29 91.89
2 -2 8 1179.18 124.99
2 -2 8 1162.38 90.39
2 -2 8 1109.29 89.99
-3 2 -8 2400.56 170.08
-3 2 -8 2274.87 177.68
-3 2 -8 2084.29 203.38
3 -2 8 2173.08 170.88
3 -2 8 2101.69 171.18
3 -2 8 2159.88 172.78
-4 2 -8 269.57 35.9
-4 2 -8 423.76 43.4
4 -2 8 340.27 28.5
4 -2 8 322.57 28.9
4 -2 8 346.87 30.7
4 -2 8 371.46 87.49
-5 2 -8 1161.38 96.09
-5 2 -8 1082.79 82.89
5 -2 8 912.01 80.49
5 -2 8 935.21 79.79
-6 2 -8 1213.78 96.29
-6 2 -8 1036.8 102.09
6 -2 8 1251.47 93.29
6 -2 8 1191.78 94.19
-7 2 -8 -19.4 21.9
-7 2 -8 17.8 9.2
-7 2 -8 -11.9 14.2
7 -2 8 3 4.5
7 -2 8 3.9 5.5
-8 2 -8 942.11 96.69
-8 2 -8 741.23 80.59
8 -2 8 801.42 66.59
8 -2 8 826.82 69.19
10 1 -8 4.2 10.4
10 1 -8 4.7 8.8
-10 -1 8 -7.3 11.9
-10 -1 8 -2.4 15.2
9 1 -8 606.94 53.99
9 1 -8 655.33 51.29
-9 -1 8 500.25 58.99
-9 -1 8 663.93 54.79
8 1 -8 264.57 23.4
8 1 -8 225.18 21.5
8 1 -8 249.28 26
-8 -1 8 195.78 31.6
-8 -1 8 297.27 27.6
-8 -1 8 263.27 22.5
7 1 -8 162.48 17
7 1 -8 166.48 15.4
7 1 -8 188.98 19.1
7 1 -8 141.79 58.99
-7 -1 8 200.38 17.1
-7 -1 8 161.08 19.9
-7 -1 8 135.89 24.5
6 1 -8 703.73 55.69
6 1 -8 755.82 54.49
6 1 -8 616.94 52.19
6 1 -8 598.04 52.69
-6 -1 8 730.93 66.39
-6 -1 8 672.03 56.99
-6 -1 8 665.23 62.39
5 1 -8 50.79 6.1
5 1 -8 59.19 8.7
5 1 -8 33.4 42.2
5 1 -8 61.29 8.2
-5 -1 8 67.89 8.8
-5 -1 8 56.79 11.3
-5 -1 8 73.39 15.8
-5 -1 8 59.19 15.2
-5 -1 8 73.79 6.7
4 1 -8 1336.57 111.39
4 1 -8 1366.06 113.29
4 1 -8 1633.44 110.09
4 1 -8 1198.58 137.29
4 1 -8 1459.05 111.19
-4 -1 8 1491.95 120.59
-4 -1 8 1214.18 117.99
-4 -1 8 1523.75 110.29
-4 -1 8 1496.85 112.39
3 1 -8 1452.25 115.19
3 1 -8 1587.44 114.29
3 1 -8 1275.07 114.99
3 1 -8 1433.96 136.79
3 1 -8 1510.15 117.69
-3 -1 8 1602.24 114.69
-3 -1 8 1684.73 130.59
-3 -1 8 1492.75 116.59
-3 -1 8 1301.57 122.39
2 1 -8 92.69 13.5
1 1 -8 1289.07 104.19
1 1 -8 1246.88 104.59
1 1 -8 1476.35 108.99
1 1 -8 1345.27 126.19
1 1 -8 1297.47 105.29
-1 -1 8 1370.76 113.59
-1 -1 8 1392.06 105.29
-1 -1 8 1478.25 155.78
-1 -1 8 1372.06 107.09
0 1 -8 1163.48 112.69
0 1 -8 1110.09 87.99
0 1 -8 1210.98 92.09
0 -1 8 1113.39 89.59
0 -1 8 899.41 129.89
0 -1 8 1145.39 87.69
-1 1 -8 32.8 29.5
-1 1 -8 40.1 10.1
-1 1 -8 43.5 14.4
1 -1 8 39.5 5.8
1 -1 8 38.8 7.7
1 -1 8 22.9 37.1
-2 1 -8 1094.69 120.89
-2 1 -8 1004.1 87.79
2 -1 8 1167.08 86.29
2 -1 8 884.21 121.09
2 -1 8 1158.28 88.39
2 -1 8 1173.38 86.39
-3 1 -8 1249.38 105.59
-3 1 -8 1337.47 140.89
3 -1 8 1323.17 105.09
3 -1 8 1415.16 107.49
3 -1 8 1346.17 105.29
3 -1 8 1435.46 157.18
-4 1 -8 97.39 22
4 -1 8 63.49 8.7
4 -1 8 53.19 8.7
-5 1 -8 1687.33 139.79
-5 1 -8 1762.62 137.59
5 -1 8 1478.15 123.39
5 -1 8 1434.26 120.99
5 -1 8 1448.96 121.59
-6 1 -8 309.97 29.3
-6 1 -8 210.28 38.9
6 -1 8 274.87 26.2
6 -1 8 278.47 26
-7 1 -8 339.37 50.19
-7 1 -8 174.38 40.2
7 -1 8 233.48 23.5
7 -1 8 262.67 25.7
-8 1 -8 401.56 62.59
-8 1 -8 659.63 76.69
8 -1 8 533.55 47.2
8 -1 8 515.15 44.8
10 0 -8 396.86 38.4
10 0 -8 425.16 35.4
-10 0 8 306.47 46.9
-10 0 8 367.76 39.5
9 0 -8 849.52 71.79
-9 0 8 821.22 74.59
-9 0 8 989.6 71.79
8 0 -8 25.2 7.8
8 0 -8 17 5.9
-8 0 8 14.1 4.7
-8 0 8 39 14.5
-8 0 8 9.4 7.3
7 0 -8 1123.39 82.99
7 0 -8 1005 84.19
-7 0 8 1200.88 83.69
-7 0 8 865.91 91.19
-7 0 8 926.91 84.79
-7 0 8 1128.79 99.69
6 0 -8 624.44 51.19
6 0 -8 669.93 53.19
6 0 -8 653.73 54.19
-6 0 8 640.74 55.49
-6 0 8 749.13 54.39
-6 0 8 597.74 62.19
-6 0 8 666.23 66.99
5 0 -8 486.65 42.7
5 0 -8 473.95 40.3
5 0 -8 463.75 40.9
-5 0 8 563.44 39.2
-5 0 8 402.36 48.5
-5 0 8 543.55 55.69
-5 0 8 529.45 41.8
4 0 -8 2604.04 212.38
4 0 -8 2705.03 210.38
-4 0 8 2730.43 211.88
-4 0 8 2343.87 218.28
-4 0 8 2887.01 209.58
-4 0 8 3089.09 229.08
3 0 -8 297.27 26.6
3 0 -8 333.77 27
3 0 -8 306.87 69.09
-3 0 8 308.87 28.2
-3 0 8 293.87 35.4
-3 0 8 372.26 26.3
2 0 -8 861.81 66.59
2 0 -8 922.41 106.29
2 0 -8 906.71 67.19
2 0 -8 829.32 65.89
-2 0 8 724.53 73.79
-2 0 8 830.72 68.29
-2 0 8 858.71 66.09
1 0 -8 3188.98 236.58
1 0 -8 2970.6 233.58
1 0 -8 3166.98 266.37
-1 0 8 2960.3 235.28
-1 0 8 2880.01 241.78
-1 0 8 3015.7 233.18
0 0 -8 460.25 38.7
0 0 -8 341.77 73.29
0 0 -8 396.56 35
0 0 8 477.95 88.89
0 0 8 432.16 34.6
0 0 8 429.46 36.6
-1 0 -8 813.12 65.09
-1 0 -8 762.02 107.19
1 0 8 808.62 63.49
1 0 8 798.42 65.59
-2 0 -8 1613.84 164.18
2 0 8 1582.84 129.69
2 0 8 1681.63 127.59
2 0 8 1630.44 180.68
2 0 8 1661.53 127.39
-3 0 -8 20.4 43.3
-3 0 -8 46.8 17.4
3 0 8 30.5 5.5
3 0 8 -34.5 44.9
3 0 8 35.8 6.5
3 0 8 48.9 9.5
-4 0 -8 1405.56 120.49
4 0 8 1539.95 118.89
4 0 8 1565.04 121.49
4 0 8 1549.54 119.19
-5 0 -8 459.45 37.8
5 0 8 456.25 36.7
5 0 8 385.96 38.1
5 0 8 394.56 35.7
-6 0 -8 208.48 39.1
-6 0 -8 214.08 23.5
-6 0 -8 169.88 34.8
6 0 8 169.78 18.2
6 0 8 165.08 19.4
-7 0 -8 740.03 73.79
7 0 8 602.34 55.19
7 0 8 691.63 57.29
10 -1 -8 1081.99 80.39
10 -1 -8 1028 83.49
-10 1 8 869.21 93.09
-10 1 8 953.6 83.19
9 -1 -8 237.38 21.7
9 -1 -8 208.18 32.5
-9 1 8 189.78 24.9
-9 1 8 250.77 21.9
-9 1 8 171.58 34.8
8 -1 -8 604.94 51.19
8 -1 -8 611.54 49.3
-8 1 8 661.93 50.09
-8 1 8 514.45 58.79
-8 1 8 572.64 51.89
7 -1 -8 2103.99 156.88
7 -1 -8 2074.49 158.28
-7 1 8 2142.49 158.18
-7 1 8 1993.3 159.28
-7 1 8 1717.13 166.08
6 -1 -8 226.18 20.5
6 -1 -8 232.98 23.2
6 -1 -8 215.98 21.3
-6 1 8 200.68 43
-6 1 8 229.18 31.3
-6 1 8 257.27 22.1
-6 1 8 212.08 22.9
5 -1 -8 1589.34 148.09
5 -1 -8 1841.92 147.99
5 -1 -8 1867.51 149.99
-5 1 8 1896.31 149.69
-5 1 8 2181.48 171.18
-5 1 8 2110.59 146.79
4 -1 -8 2395.86 184.98
4 -1 -8 2405.86 186.98
-4 1 8 2525.15 187.08
-4 1 8 2209.98 193.78
3 -1 -8 -3.3 55.89
-3 1 8 17.7 3.1
-3 1 8 8.6 10.2
-3 1 8 -19.6 39.5
-3 1 8 32.8 7.5
2 -1 -8 3031.9 298.57
2 -1 -8 3206.08 245.38
2 -1 -8 3374.66 248.38
2 -1 -8 3260.77 245.98
2 -1 -8 3163.78 245.48
-2 1 8 3319.17 245.38
-2 1 8 3105.19 247.88
-2 1 8 2954.4 254.07
1 -1 -8 2689.73 252.87
1 -1 -8 2651.63 201.38
1 -1 -8 2594.44 198.98
-1 1 8 2217.28 205.88
-1 1 8 2721.63 198.48
-1 1 8 2566.74 200.98
0 -1 -8 208.48 66.29
0 -1 -8 205.68 20.7
0 -1 -8 244.78 23.8
0 1 8 224.78 22
0 1 8 231.18 19.6
-1 -1 -8 2865.81 217.48
-1 -1 -8 3221.98 220.38
-1 -1 -8 2732.63 260.77
1 1 8 2302.47 264.57
1 1 8 2674.53 216.38
1 1 8 2756.92 215.78
1 1 8 2818.52 218.48
-2 -1 -8 637.54 52.99
-2 -1 -8 569.44 107.29
2 1 8 629.44 49.9
2 1 8 646.14 52.99
2 1 8 618.84 120.49
2 1 8 589.24 50.09
-3 -1 -8 676.53 63.19
3 1 8 801.62 60.59
3 1 8 795.72 132.09
3 1 8 759.92 60.59
3 1 8 754.22 63.39
-4 -1 -8 1016 93.59
4 1 8 1228.38 92.29
4 1 8 1234.78 92.39
4 1 8 1155.18 94.79
-5 -1 -8 11.1 8.4
-5 -1 -8 53.69 18.2
5 1 8 29.7 8.9
5 1 8 27 6.4
5 1 8 18.4 7.9
6 1 8 598.44 60.89
6 1 8 756.62 59.09
6 1 8 789.72 64.39
7 1 8 625.14 51.79
7 1 8 533.25 49.8
10 -2 -8 645.74 57.79
10 -2 -8 712.53 54.89
-10 2 8 606.44 57.69
-10 2 8 527.35 70.49
-10 2 8 721.93 54.99
9 -2 -8 35.7 8.1
-9 2 8 29.2 19.3
-9 2 8 32.3 10
-9 2 8 45.9 8.4
8 -2 -8 927.71 84.09
8 -2 -8 1025.5 83.99
-8 2 8 1056.99 84.99
-8 2 8 1106.59 83.79
7 -2 -8 1055.79 86.29
7 -2 -8 1173.58 87.69
7 -2 -8 1123.09 85.09
-7 2 8 1132.29 86.89
-7 2 8 1011 87.19
-7 2 8 912.71 94.49
6 -2 -8 107.99 15.2
6 -2 -8 110.79 13.5
6 -2 -8 110.99 12.4
-6 2 8 135.19 10.5
-6 2 8 147.99 48.8
-6 2 8 114.69 14.2
-6 2 8 85.99 22
5 -2 -8 2554.74 199.68
5 -2 -8 2563.44 200.28
5 -2 -8 2737.93 201.78
-5 2 8 2307.47 208.38
-5 2 8 2705.83 202.28
4 -2 -8 1085.49 88.69
4 -2 -8 1033.9 90.29
4 -2 -8 1277.97 92.49
-4 2 8 1283.07 87.79
-4 2 8 993.6 96.59
-4 2 8 1072.69 90.99
3 -2 -8 409.16 33.6
3 -2 -8 242.58 98.29
3 -2 -8 384.26 31.5
3 -2 -8 366.36 31.3
-3 2 8 321.17 38.2
-3 2 8 366.76 33.5
-3 2 8 387.36 30.2
2 -2 -8 2893.41 248.18
2 -2 -8 3508.45 250.57
2 -2 -8 3226.28 248.48
-2 2 8 3285.17 247.68
-2 2 8 3228.28 251.07
-2 2 8 3141.29 256.37
1 -2 -8 125.29 14.4
1 -2 -8 150.38 16.9
1 -2 -8 191.48 105.29
-1 2 8 129.69 13
-1 2 8 143.99 16.6
-1 2 8 174.18 22.9
0 -2 -8 792.62 141.69
0 -2 -8 961.7 73.99
0 -2 -8 780.92 71.49
0 2 8 850.81 70.39
0 2 8 1001.4 69.89
0 2 8 873.11 73.79
0 2 8 934.51 144.79
-1 -2 -8 1465.65 104.79
-1 -2 -8 1303.07 102.69
-1 -2 -8 1259.27 175.58
1 2 8 1239.78 100.69
1 2 8 1263.07 103.99
1 2 8 1002 156.18
-2 -2 -8 -3.6 6.7
-2 -2 -8 0.6 65.89
-2 -2 -8 3.3 7.2
-2 -2 -8 6 13.9
2 2 8 3.1 2.7
2 2 8 0.9 3.4
2 2 8 8 6
2 2 8 -60.69 52.89
-3 -2 -8 1187.48 95.19
3 2 8 1090.49 91.39
3 2 8 1125.59 94.79
3 2 8 1213.28 91.49
4 2 8 334.57 31.2
4 2 8 340.07 34.5
4 2 8 383.26 31.5
-5 -2 -8 127.49 25.1
5 2 8 187.48 19.9
5 2 8 224.68 20.5
5 2 8 153.08 23.1
6 2 8 1489.85 109.99
6 2 8 1217.08 108.19
10 -3 -8 30.4 11.4
10 -3 -8 17.7 7.6
-10 3 8 18.9 8.7
-10 3 8 37 23.6
-10 3 8 28.8 11.1
9 -3 -8 388.86 39
9 -3 -8 396.36 33.8
-9 3 8 386.36 35
-9 3 8 302.57 47.7
-9 3 8 413.56 37.3
8 -3 -8 1161.28 89.99
8 -3 -8 1126.19 91.69
-8 3 8 1004.2 100.89
-8 3 8 1210.48 92.29
7 -3 -8 74.29 10.4
7 -3 -8 86.49 12.8
7 -3 -8 67.69 13.5
-7 3 8 64.19 19
-7 3 8 77.49 12.8
6 -3 -8 975.9 78.09
6 -3 -8 966 76.89
6 -3 -8 1022.7 78.99
-6 3 8 841.62 85.29
-6 3 8 1014.8 80.09
5 -3 -8 1350.66 103.29
5 -3 -8 1347.47 104.99
5 -3 -8 1288.67 103.89
-5 3 8 1253.97 106.09
-5 3 8 1438.26 101.89
-5 3 8 1172.88 111.49
4 -3 -8 5.7 5.3
4 -3 -8 7.8 80.69
4 -3 -8 0.1 4.1
4 -3 -8 2.3 4.1
-4 3 8 12.1 56.29
-4 3 8 6.5 9.9
-4 3 8 2.6 5.5
-4 3 8 0.3 2.1
3 -3 -8 1107.99 85.49
3 -3 -8 1103.59 86.09
3 -3 -8 1078.49 86.89
-3 3 8 1025 88.49
-3 3 8 1095.39 84.29
-3 3 8 1052.79 92.99
2 -3 -8 543.65 41.5
2 -3 -8 417.36 116.19
2 -3 -8 421.76 41.8
-2 3 8 479.15 40
-2 3 8 514.05 44.4
-2 3 8 550.04 49.3
1 -3 -8 -37.2 76.19
1 -3 -8 136.49 15.2
1 -3 -8 100.69 13.3
-1 3 8 122.99 16.1
-1 3 8 108.39 20.2
-1 3 8 105.99 11.4
0 -3 -8 609.04 50.49
0 -3 -8 524.15 48.9
0 -3 -8 396.16 127.79
0 3 8 560.24 51.69
0 3 8 663.73 46.8
0 3 8 794.22 134.79
0 3 8 571.34 47.7
-1 -3 -8 286.37 26.5
-1 -3 -8 303.47 27.7
-1 -3 -8 320.97 181.78
1 3 8 236.88 27.4
1 3 8 274.67 22.7
1 3 8 279.17 79.99
1 3 8 240.18 23.5
-2 -3 -8 356.16 31.3
2 3 8 330.07 27
2 3 8 286.87 27.5
2 3 8 285.07 31.4
-3 -3 -8 881.21 70.09
3 3 8 737.23 68.99
3 3 8 851.51 65.19
3 3 8 757.62 65.39
-4 -3 -8 -26 12.4
-4 -3 -8 16 13.9
-4 -3 -8 12.1 11.4
4 3 8 1.3 5.5
4 3 8 1.5 9.2
4 3 8 -3.3 4.7
5 3 8 692.13 62.29
5 3 8 790.62 62.99
6 3 8 682.73 66.09
6 3 8 879.41 67.89
10 -4 -8 90.09 14.3
10 -4 -8 100.09 20.3
10 -4 -8 67.49 14.5
-10 4 8 68.99 24.1
-10 4 8 89.29 17.1
9 -4 -8 972.9 78.09
9 -4 -8 984.1 75.49
-9 4 8 931.71 78.39
-9 4 8 824.12 87.09
8 -4 -8 751.72 62.19
8 -4 -8 794.02 60.19
-8 4 8 719.13 62.99
-8 4 8 661.43 71.39
7 -4 -8 364.26 31.9
7 -4 -8 381.46 33.4
7 -4 -8 359.86 32.8
-7 4 8 357.26 34.4
-7 4 8 297.67 41.7
6 -4 -8 1704.33 125.49
6 -4 -8 1572.34 124.99
6 -4 -8 1640.74 123.79
-6 4 8 1481.75 127.29
-6 4 8 1467.95 132.49
5 -4 -8 240.18 22.3
5 -4 -8 256.57 24.2
5 -4 -8 243.28 23.6
-5 4 8 249.88 20.5
-5 4 8 219.18 25.7
-5 4 8 252.17 31
4 -4 -8 367.46 31.2
4 -4 -8 330.27 31.9
4 -4 -8 388.76 32.8
-4 4 8 339.07 34.9
-4 4 8 354.16 38.7
-4 4 8 372.76 29.5
3 -4 -8 1064.49 82.09
3 -4 -8 1018.6 80.89
-3 4 8 938.81 84.69
-3 4 8 1016.6 79.59
-3 4 8 1023.8 87.59
2 -4 -8 95.09 12.6
-2 4 8 -5.1 91.19
1 -4 -8 657.13 53.19
1 -4 -8 599.04 52.19
-1 4 8 553.24 55.59
-1 4 8 691.23 57.89
-1 4 8 642.74 50.99
0 -4 -8 674.03 55.99
0 -4 -8 714.93 56.79
0 4 8 687.13 53.09
0 4 8 652.53 54.49
0 4 8 613.14 59.19
-1 -4 -8 325.97 28.8
-1 -4 -8 298.97 27.7
1 4 8 225.78 29.4
1 4 8 262.97 25.2
1 4 8 267.67 23.5
-2 -4 -8 1685.73 124.29
-2 -4 -8 1607.24 123.19
2 4 8 1313.97 120.59
2 4 8 1512.55 119.89
-3 -4 -8 152.58 25.6
3 4 8 158.18 19
3 4 8 195.28 18.2
3 4 8 116.29 23.9
-4 -4 -8 542.25 52.99
4 4 8 552.14 45.9
4 4 8 480.05 46.2
5 4 8 1197.28 90.29
5 4 8 968.8 89.79
9 -5 -8 1355.86 104.39
9 -5 -8 1450.75 106.49
9 -5 -8 1240.58 106.79
-9 5 8 1222.38 117.69
-9 5 8 1258.67 107.99
8 -5 -8 94.39 14.6
8 -5 -8 92.09 16.7
8 -5 -8 77.99 13.3
-8 5 8 83.69 22.7
-8 5 8 86.19 18
7 -5 -8 953.6 71.19
7 -5 -8 872.51 71.49
7 -5 -8 914.11 69.49
-7 5 8 707.73 82.39
-7 5 8 789.62 80.69
6 -5 -8 1151.08 90.89
6 -5 -8 1106.29 89.09
6 -5 -8 1156.98 88.59
-6 5 8 1153.68 85.29
-6 5 8 979.3 91.59
-6 5 8 998.1 94.79
5 -5 -8 27.4 8.6
5 -5 -8 14 6.1
5 -5 -8 22.8 6.3
-5 5 8 20.8 8.5
-5 5 8 20.4 12.7
-5 5 8 19.2 3.7
4 -5 -8 1376.86 110.09
4 -5 -8 1310.67 111.59
4 -5 -8 1422.26 110.89
-4 5 8 1304.27 115.09
-4 5 8 1476.95 108.79
-4 5 8 1459.85 116.99
3 -5 -8 623.84 49.7
-3 5 8 509.65 53.89
-3 5 8 613.34 48
-3 5 8 616.34 55.09
2 -5 -8 585.34 48.9
2 -5 -8 526.95 61.39
-2 5 8 530.55 53.59
-2 5 8 606.14 53.59
-2 5 8 638.44 47.9
1 -5 -8 1093.49 89.49
1 -5 -8 1180.28 89.99
-1 5 8 1187.88 88.69
-1 5 8 976.2 94.19
0 -5 -8 48.4 9.7
0 -5 -8 47.8 9.9
0 5 8 42.6 13.6
0 5 8 31.4 6.9
-1 -5 -8 1874.21 149.09
-1 -5 -8 1979.5 149.88
1 5 8 1924.91 146.49
1 5 8 1730.03 147.79
-2 -5 -8 1517.65 118.29
-2 -5 -8 1555.54 120.69
2 5 8 1422.46 115.09
2 5 8 1340.87 116.39
-3 -5 -8 42.5 12.7
-3 -5 -8 35.9 12.5
-3 -5 -8 46.1 24.7
3 5 8 19.1 7.2
3 5 8 12.7 8.5
3 5 8 0.1 13.1
-4 -5 -8 1685.03 132.19
4 5 8 1655.63 126.79
4 5 8 1375.26 126.69
9 -6 -8 790.12 62.39
9 -6 -8 715.43 60.69
9 -6 -8 752.72 64.69
-9 6 8 697.83 67.49
-9 6 8 690.33 72.79
8 -6 -8 102.59 14.4
8 -6 -8 74.09 17.9
-8 6 8 67.59 20.7
-8 6 8 79.29 17.5
7 -6 -8 634.34 57.29
7 -6 -8 706.43 60.19
7 -6 -8 665.73 54.89
-7 6 8 660.13 64.49
-7 6 8 636.44 61.29
6 -6 -8 232.18 21.6
6 -6 -8 225.58 21.7
6 -6 -8 192.18 24.1
-6 6 8 182.38 28.2
-6 6 8 188.28 33.5
5 -6 -8 484.55 44.9
5 -6 -8 495.05 42.3
5 -6 -8 502.05 42.6
-5 6 8 479.25 49
-5 6 8 467.45 48.8
-5 6 8 525.95 40.4
4 -6 -8 855.81 70.69
4 -6 -8 787.32 72.69
-4 6 8 931.91 76.39
-4 6 8 898.31 69.19
3 -6 -8 28.7 8.1
3 -6 -8 25.4 9.6
-3 6 8 9.7 10.3
-3 6 8 18.9 10
-3 6 8 18.8 5.3
2 -6 -8 777.52 71.19
2 -6 -8 888.81 71.39
-2 6 8 798.72 77.29
-2 6 8 935.01 70.69
-2 6 8 955.4 75.19
1 -6 -8 900.51 67.99
1 -6 -8 851.61 68.29
-1 6 8 689.23 72.99
-1 6 8 826.92 67.09
0 -6 -8 133.69 17.6
0 -6 -8 166.98 28.8
0 6 8 92.29 20.5
-1 -6 -8 1760.92 141.29
-1 -6 -8 1869.71 141.79
1 6 8 1667.23 140.49
-2 -6 -8 665.43 57.09
-2 -6 -8 648.74 57.49
2 6 8 575.94 55.09
-3 -6 -8 709.83 60.89
-3 -6 -8 683.43 61.89
3 6 8 589.84 56.09
8 -7 -8 452.45 39.2
8 -7 -8 417.16 44.2
-8 7 8 403.66 46.7
-8 7 8 485.25 54.29
7 -7 -8 260.77 24
7 -7 -8 221.28 25.2
-7 7 8 209.58 35.1
-7 7 8 229.18 35.3
6 -7 -8 58.19 10.5
6 -7 -8 55.09 13.2
6 -7 -8 39.2 9.1
-6 7 8 45.5 15.8
5 -7 -8 542.45 45.8
5 -7 -8 549.05 46.7
5 -7 -8 459.25 49.1
-5 7 8 496.45 53.89
-5 7 8 598.74 52.89
-5 7 8 577.04 44.5
4 -7 -8 94.29 19.2
4 -7 -8 66.49 12
4 -7 -8 71.59 11.9
-4 7 8 78.29 18.5
-4 7 8 40.3 15.5
-4 7 8 56.99 10.8
3 -7 -8 412.76 37.1
3 -7 -8 425.16 38.5
-3 7 8 484.85 42.4
-3 7 8 436.16 36.9
-3 7 8 354.96 45.2
2 -7 -8 742.53 59.69
2 -7 -8 761.82 60.89
-2 7 8 609.94 66.59
-2 7 8 739.03 62.89
1 -7 -8 129.19 19.2
-1 7 8 108.19 24.3
-1 7 8 104.09 17.3
0 -7 -8 1119.29 87.09
0 -7 -8 995.3 86.89
0 7 8 1060.29 87.29
-1 -7 -8 938.21 78.49
1 7 8 927.11 78.79
-2 -7 -8 14 16.2
-2 -7 -8 15.7 12.6
6 -8 -8 666.63 56.99
6 -8 -8 623.74 55.59
-6 8 8 648.64 65.99
-6 8 8 762.22 64.59
5 -8 -8 386.56 38.9
5 -8 -8 458.75 39.8
5 -8 -8 394.06 43.7
-5 8 8 428.06 49.4
-5 8 8 453.75 45.8
4 -8 -8 119.89 17.6
-4 8 8 111.79 22.1
-4 8 8 71.59 21.4
3 -8 -8 1040.5 88.79
3 -8 -8 988.7 89.19
-3 8 8 1027.3 96.29
-3 8 8 1204.18 88.09
-3 8 8 1143.99 91.09
2 -8 -8 556.14 48.7
2 -8 -8 591.14 46.2
-2 8 8 460.95 55.09
-2 8 8 497.85 46.8
1 -8 -8 315.87 30
1 -8 -8 326.47 32.9
-1 8 8 221.98 39.4
-1 8 8 307.07 31.9
0 -8 -8 1417.66 106.89
0 -8 -8 1327.47 106.89
0 8 8 1353.96 107.49
0 8 8 1137.29 113.49
2 11 -9 1042 81.59
2 11 -9 960.3 83.19
2 11 -9 914.31 83.89
-2 -11 9 1216.78 101.49
1 11 -9 997.3 75.79
1 11 -9 884.91 78.49
0 11 -9 44.8 10.8
0 11 -9 35.7 7.9
0 -11 9 64.59 24
0 -11 9 57.99 18.2
-1 11 -9 924.41 71.09
-1 11 -9 841.52 74.79
-2 11 -9 346.77 38.4
-2 11 -9 389.86 39.5
-2 11 -9 387.36 33.1
2 -11 9 426.96 48.5
-3 11 -9 90.29 18.8
-3 11 -9 69.69 16.9
-3 11 -9 74.19 11.5
4 10 -9 527.35 44.9
4 10 -9 523.05 49.99
-4 -10 9 556.04 47.4
-4 -10 9 551.44 67.89
3 10 -9 106.99 17.6
3 10 -9 85.39 15.8
3 10 -9 91.19 12.9
-3 -10 9 138.29 29
2 10 -9 1193.68 97.49
2 10 -9 1093.69 99.39
2 10 -9 1186.28 99.49
-2 -10 9 1377.06 111.19
-2 -10 9 1360.76 98.49
1 10 -9 478.75 42.9
-1 -10 9 519.55 43.1
-1 -10 9 592.84 58.49
0 10 -9 151.38 16.1
0 10 -9 169.28 19.9
0 10 -9 150.48 20.1
0 -10 9 167.68 32.3
-1 10 -9 852.91 71.49
-1 10 -9 789.22 71.39
-1 10 -9 910.11 68.19
-2 10 -9 164.58 17.1
-2 10 -9 156.98 22.7
-2 10 -9 165.08 22
2 -10 9 212.18 31.7
-3 10 -9 359.46 29.5
-3 10 -9 299.07 41.6
-3 10 -9 358.16 33.9
3 -10 9 307.57 33.4
-4 10 -9 691.93 60.49
-4 10 -9 603.94 61.59
-4 10 -9 678.73 54.49
4 -10 9 617.84 58.69
4 -10 9 759.42 64.79
-5 10 -9 -0.9 15.2
-5 10 -9 -0.1 9.7
5 -10 9 4.1 7.4
5 -10 9 -3.9 4.2
5 -10 9 -1.3 18.6
5 9 -9 686.73 56.19
5 9 -9 689.03 61.09
-5 -9 9 698.93 58.49
4 9 -9 60.39 16.5
4 9 -9 85.39 13.9
4 9 -9 94.99 17.2
-4 -9 9 93.99 22.7
3 9 -9 515.75 43.5
3 9 -9 439.26 42.1
-3 -9 9 505.45 71.49
-3 -9 9 515.85 41.7
2 9 -9 824.82 68.69
2 9 -9 768.42 68.19
2 9 -9 745.03 68.49
-2 -9 9 1005.6 67.49
1 9 -9 9.9 6.6
1 9 -9 -3.3 5.8
1 9 -9 8.6 7
-1 -9 9 4.2 10.1
-1 -9 9 7.5 14.1
-1 -9 9 3.2 4.5
0 9 -9 604.94 47.7
0 9 -9 566.44 48.2
0 -9 9 460.75 49.7
-1 9 -9 517.05 47.3
-1 9 -9 482.65 50.09
-1 9 -9 566.94 43.6
1 -9 9 575.64 74.59
-2 9 -9 16.1 7.7
-2 9 -9 31 10.6
2 -9 9 24.5 14.6
2 -9 9 22.4 4.9
2 -9 9 17.5 8.4
-3 9 -9 409.16 42.1
-3 9 -9 457.15 40.2
3 -9 9 426.26 40.1
3 -9 9 445.86 36.1
-4 9 -9 142.89 23.6
-4 9 -9 132.59 20
4 -9 9 121.79 18.6
4 -9 9 165.88 25.8
4 -9 9 135.99 14.6
-5 9 -9 234.98 28.8
-5 9 -9 230.38 33.8
5 -9 9 252.47 32.9
5 -9 9 259.07 22.6
5 -9 9 231.98 26.4
-6 9 -9 572.64 51.19
6 -9 9 516.25 44.3
6 -9 9 525.75 47.9
6 8 -9 1233.38 91.79
6 8 -9 1000.1 99.09
-6 -8 9 1235.48 94.09
5 8 -9 634.24 50.09
5 8 -9 566.14 54.09
5 8 -9 576.94 57.29
-5 -8 9 678.23 51.89
4 8 -9 171.58 25.9
4 8 -9 211.08 20.4
4 8 -9 203.08 18.7
4 8 -9 193.18 21.3
4 8 -9 194.48 23.1
-4 -8 9 221.98 20.3
3 8 -9 1247.58 94.49
3 8 -9 1107.99 95.69
3 8 -9 1325.67 97.29
3 8 -9 1043 97.99
3 8 -9 1105.49 96.49
-3 -8 9 1391.36 95.39
2 8 -9 167.28 20.6
2 8 -9 153.78 17.6
2 8 -9 134.19 16
2 8 -9 151.88 14.4
-2 -8 9 111.09 23.9
1 8 -9 589.04 51.89
1 8 -9 545.65 52.49
1 8 -9 677.93 49
1 8 -9 595.64 48.7
1 8 -9 615.24 50.89
0 8 -9 588.84 47.6
0 8 -9 566.14 48
0 8 -9 536.65 48.4
0 8 -9 579.84 44.4
0 -8 9 589.24 45
0 -8 9 453.05 48.9
-1 8 -9 9.8 5.3
-1 8 -9 7.3 6.9
-1 8 -9 4.4 5.3
1 -8 9 6.6 11.1
1 -8 9 65.19 46.5
1 -8 9 8.2 3.3
-2 8 -9 621.84 55.99
-2 8 -9 665.03 54.19
2 -8 9 651.73 50.89
2 -8 9 589.44 53.89
-3 8 -9 358.66 38.7
3 -8 9 444.56 40.3
3 -8 9 369.46 35.5
-4 8 -9 85.69 16
4 -8 9 89.09 14.3
4 -8 9 102.49 11.4
-5 8 -9 842.02 70.79
-5 8 -9 810.42 75.59
5 -8 9 815.32 65.99
5 -8 9 845.52 68.89
5 -8 9 816.02 72.09
-6 8 -9 166.88 33.9
-6 8 -9 151.18 24.1
6 -8 9 157.48 21.7
6 -8 9 152.78 16.6
7 7 -9 658.13 56.49
7 7 -9 585.34 60.79
-7 -7 9 718.33 56.39
6 7 -9 1303.87 114.49
6 7 -9 1274.97 110.69
6 7 -9 1433.06 108.39
-6 -7 9 1516.65 110.29
5 7 -9 49.8 10.5
5 7 -9 69.39 16.6
5 7 -9 62.89 8.8
5 7 -9 61.29 10.3
4 7 -9 1092.19 96.29
4 7 -9 1001.7 97.69
4 7 -9 1293.57 93.89
4 7 -9 1182.48 98.79
4 7 -9 1276.87 95.29
4 7 -9 1144.09 96.49
-4 -7 9 1379.56 95.09
3 7 -9 941.31 75.09
3 7 -9 927.71 77.39
3 7 -9 947.71 76.69
3 7 -9 991.6 75.99
3 7 -9 870.91 77.79
3 7 -9 871.31 79.19
-3 -7 9 1124.19 75.99
2 7 -9 45.3 11.1
2 7 -9 65.39 10.2
2 7 -9 69.69 12.1
2 7 -9 65.99 8.6
2 7 -9 59.49 8.1
-2 -7 9 40.5 12.8
1 7 -9 1313.47 102.79
1 7 -9 1301.47 100.69
1 7 -9 1198.78 104.09
-1 -7 9 1346.57 100.99
0 7 -9 282.67 25.2
0 7 -9 254.77 27.1
0 7 -9 287.27 22.4
0 7 -9 223.88 27.1
0 -7 9 280.37 22.7
0 -7 9 237.38 27
-1 7 -9 507.05 41.2
-1 7 -9 464.05 43.2
-1 7 -9 408.16 41.4
1 -7 9 481.65 38.4
1 -7 9 468.65 41.9
1 -7 9 589.84 84.59
-2 7 -9 1365.16 111.29
-2 7 -9 1314.07 113.99
2 -7 9 1334.97 108.59
2 -7 9 1654.13 145.19
2 -7 9 1402.06 111.49
-3 7 -9 25.1 6.8
-3 7 -9 46.7 12.6
-3 7 -9 28.3 6.8
3 -7 9 21.6 6.3
3 -7 9 24.4 4.5
-4 7 -9 1110.19 99.99
-4 7 -9 1292.87 106.89
4 -7 9 1365.76 100.99
-5 7 -9 797.12 73.89
-5 7 -9 952.2 75.69
-5 7 -9 868.31 81.19
5 -7 9 944.41 71.39
5 -7 9 914.71 73.59
-6 7 -9 57.59 13
-6 7 -9 60.39 19.8
6 -7 9 39.9 9.7
6 -7 9 61.99 10.2
-7 7 -9 1033.4 108.79
-7 7 -9 1337.47 101.99
7 -7 9 1212.68 97.19
7 -7 9 1182.48 94.79
8 6 -9 18.2 15.3
8 6 -9 7.4 9.2
8 6 -9 -2 8.7
-8 -6 9 -8.5 9.3
-8 -6 9 23.5 14.4
7 6 -9 975.4 84.89
7 6 -9 908.71 88.29
-7 -6 9 1143.19 86.79
-7 -6 9 1173.58 91.19
6 6 -9 724.43 55.09
6 6 -9 570.14 59.59
6 6 -9 617.54 53.29
6 6 -9 601.24 58.49
-6 -6 9 805.12 58.29
5 6 -9 66.89 10.2
5 6 -9 73.89 8.6
5 6 -9 78.29 15.4
5 6 -9 60.29 10.8
-5 -6 9 87.99 15.7
4 6 -9 1208.48 90.29
4 6 -9 1230.18 90.59
4 6 -9 974 92.89
4 6 -9 1124.99 93.09
4 6 -9 1201.28 88.99
4 6 -9 1079.79 92.39
3 6 -9 275.47 24.8
3 6 -9 275.57 23
3 6 -9 256.27 25
3 6 -9 273.77 26.7
3 6 -9 267.07 26.8
3 6 -9 281.07 23.8
2 6 -9 643.04 48.8
2 6 -9 556.94 51.89
2 6 -9 628.94 50.29
2 6 -9 497.25 52.39
-2 -6 9 608.54 48.5
-2 -6 9 703.63 53.09
1 6 -9 887.61 81.79
1 6 -9 1006.6 76.89
1 6 -9 988.4 81.39
1 6 -9 1068.79 79.19
-1 -6 9 1017 77.09
-1 -6 9 905.41 81.89
0 6 -9 -2.7 6.4
0 6 -9 2.4 3.2
0 6 -9 3.4 4.5
0 6 -9 -5.1 7.2
0 -6 9 5.8 5.9
0 -6 9 10.7 3.3
0 -6 9 -8.1 4.9
-1 6 -9 1527.15 129.49
-1 6 -9 1636.54 126.69
1 -6 9 1448.56 132.19
1 -6 9 1559.44 124.39
1 -6 9 1895.71 157.78
1 -6 9 1624.04 127.19
-2 6 -9 812.02 75.19
-2 6 -9 888.41 71.79
2 -6 9 920.11 71.69
2 -6 9 946.31 105.99
2 -6 9 855.31 69.29
-3 6 -9 179.48 19.5
-3 6 -9 178.88 24.6
-3 6 -9 139.89 19.8
3 -6 9 195.28 18.5
3 -6 9 183.98 16.4
-4 6 -9 1847.02 145.99
-4 6 -9 1818.12 151.78
4 -6 9 1881.51 144.79
4 -6 9 1801.02 142.89
-5 6 -9 251.57 33.3
-5 6 -9 212.98 25.2
5 -6 9 239.38 22.5
-6 6 -9 444.16 42.6
-6 6 -9 381.96 41.7
-6 6 -9 520.95 54.89
6 -6 9 476.85 40.3
6 -6 9 469.45 38
-7 6 -9 990.9 90.69
-7 6 -9 1075.29 106.49
-7 6 -9 1199.78 92.99
7 -6 9 1085.19 86.89
7 -6 9 1118.19 89.49
8 5 -9 233.28 25.2
8 5 -9 221.98 29.7
-8 -5 9 247.78 28
7 5 -9 663.63 60.89
-7 -5 9 775.32 67.29
-7 -5 9 788.82 64.49
6 5 -9 15.9 3.8
6 5 -9 8.7 5.8
6 5 -9 16.6 8
6 5 -9 18.6 6.2
6 5 -9 20.3 5.3
-6 -5 9 32.9 11.2
-6 -5 9 27 9.9
5 5 -9 717.23 60.69
5 5 -9 753.22 64.79
5 5 -9 759.12 62.29
-5 -5 9 857.11 62.19
4 5 -9 467.25 44.4
4 5 -9 478.15 43.1
4 5 -9 499.35 39.9
4 5 -9 518.35 41.1
-4 -5 9 524.15 41.3
3 5 -9 85.29 14
3 5 -9 72.29 11.7
3 5 -9 96.19 15
3 5 -9 84.69 10
-3 -5 9 100.19 9.4
-3 -5 9 90.89 10.7
2 5 -9 1069.39 87.59
2 5 -9 1068.59 90.29
2 5 -9 1083.59 90.19
2 5 -9 1141.29 85.99
-2 -5 9 1151.28 85.79
-2 -5 9 989.3 91.89
-2 -5 9 1159.28 87.49
1 5 -9 69.19 13.4
1 5 -9 62.69 7.6
1 5 -9 52.49 11.7
-1 -5 9 68.09 10.5
-1 -5 9 78.49 10
-1 -5 9 60.89 7.6
-1 -5 9 73.79 13.6
0 5 -9 467.65 37.9
0 5 -9 416.06 43.6
0 5 -9 468.15 44.1
0 -5 9 485.85 38.5
0 -5 9 496.15 40.5
0 -5 9 391.26 76.99
0 -5 9 428.66 44
0 -5 9 510.05 42
0 -5 9 547.25 41.2
-1 5 -9 1318.37 110.59
-1 5 -9 1475.65 113.59
-1 5 -9 1397.26 117.49
1 -5 9 1581.44 113.89
1 -5 9 1269.67 118.99
1 -5 9 1433.26 111.39
1 -5 9 1618.04 160.88
-2 5 -9 28.9 10.5
-2 5 -9 39.2 9
-2 5 -9 22.2 8.8
2 -5 9 38.7 8.4
2 -5 9 32.4 6
2 -5 9 42.7 39.6
-3 5 -9 950.7 78.19
-3 5 -9 993.2 84.59
3 -5 9 960.6 77.09
3 -5 9 936.91 75.59
-4 5 -9 1268.57 105.49
-4 5 -9 1179.58 97.59
4 -5 9 1193.88 96.19
4 -5 9 1202.98 94.99
-5 5 -9 3.6 8.4
-5 5 -9 9.5 6.3
5 -5 9 10.8 4.4
5 -5 9 10.2 5.2
-6 5 -9 695.93 58.79
-6 5 -9 757.12 71.59
-6 5 -9 547.45 59.09
6 -5 9 666.63 55.69
6 -5 9 684.23 54.09
-7 5 -9 443.86 41.2
-7 5 -9 347.67 55.19
-7 5 -9 426.36 64.39
7 -5 9 391.16 36.7
7 -5 9 384.46 34.4
9 4 -9 40.5 10.9
9 4 -9 41.9 16.1
-9 -4 9 75.19 16.4
-9 -4 9 45.3 14.2
8 4 -9 1003.2 89.89
8 4 -9 1104.99 86.99
-8 -4 9 1118.29 92.09
7 4 -9 135.99 18.4
7 4 -9 101.19 13.9
-7 -4 9 141.09 20.6
-7 -4 9 134.49 13.1
6 4 -9 458.15 42.3
6 4 -9 518.15 44.4
6 4 -9 508.05 46.4
-6 -4 9 548.35 48.9
-6 -4 9 606.74 49.9
-6 -4 9 576.14 43.9
5 4 -9 1000.8 83.79
5 4 -9 1002.3 86.89
5 4 -9 1019.5 85.19
-5 -4 9 1200.28 89.89
-5 -4 9 1208.58 90.99
-5 -4 9 1057.19 85.29
4 4 -9 86.39 10.2
4 4 -9 89.89 14.7
4 4 -9 81.39 11.6
-4 -4 9 92.79 8.9
-4 -4 9 81.79 10.6
-4 -4 9 89.49 16
3 4 -9 1443.56 124.09
3 4 -9 1541.95 120.99
3 4 -9 1517.65 122.19
-3 -4 9 1610.64 122.09
-3 -4 9 1643.44 120.49
2 4 -9 940.41 77.79
2 4 -9 873.01 72.19
2 4 -9 889.71 73.29
2 4 -9 975.5 76.79
-2 -4 9 935.41 72.09
-2 -4 9 970.7 73.89
-2 -4 9 845.62 77.69
1 4 -9 217.28 23.7
1 4 -9 199.18 23.2
1 4 -9 201.98 17.3
1 4 -9 190.58 18.1
-1 -4 9 201.68 22
-1 -4 9 204.98 19.2
-1 -4 9 191.28 17.4
0 4 -9 1581.74 124.29
0 4 -9 1731.13 131.59
0 4 -9 1606.44 123.89
0 4 -9 1544.55 129.59
0 -4 9 1438.46 130.39
0 -4 9 1616.94 124.29
0 -4 9 1671.13 126.29
-1 4 -9 535.45 47.2
-1 4 -9 648.84 55.79
-1 4 -9 530.65 53.59
1 -4 9 655.73 47.5
1 -4 9 646.54 49.4
1 -4 9 578.04 47.5
1 -4 9 511.75 91.39
1 -4 9 541.95 57.19
1 -4 9 624.84 49.8
-2 4 -9 569.54 50.89
2 -4 9 552.54 44.5
2 -4 9 403.66 54.79
2 -4 9 457.45 85.39
2 -4 9 491.95 42
2 -4 9 527.55 43.3
2 -4 9 561.14 41.6
-3 4 -9 1999.1 153.58
-3 4 -9 1762.22 144.89
3 -4 9 1810.02 142.69
3 -4 9 1789.22 143.59
-4 4 -9 217.88 22
-4 4 -9 219.48 31.8
-4 4 -9 153.88 25.9
4 -4 9 212.48 19.9
4 -4 9 210.68 18.9
-5 4 -9 316.77 30.2
5 -4 9 312.97 27.1
5 -4 9 301.77 27.9
-6 4 -9 986.2 93.59
-6 4 -9 973.5 80.49
6 -4 9 918.91 76.39
6 -4 9 909.71 75.19
-7 4 -9 14.9 14.3
-7 4 -9 27.8 30
-7 4 -9 36.2 12.1
7 -4 9 14.7 7.2
7 -4 9 13.8 5.6
9 3 -9 655.93 54.39
9 3 -9 585.44 57.29
-9 -3 9 694.23 60.89
-9 -3 9 614.24 60.29
8 3 -9 983.8 79.19
-8 -3 9 1008.9 83.39
-8 -3 9 938.61 88.09
7 3 -9 66.49 10.5
7 3 -9 64.69 13.7
7 3 -9 53.29 8.8
-7 -3 9 52.09 11.8
-7 -3 9 76.49 17.3
-7 -3 9 76.09 9.1
6 3 -9 1113.29 96.19
6 3 -9 1213.98 94.69
-6 -3 9 1249.07 94.69
-6 -3 9 1229.38 101.19
-6 -3 9 1174.78 98.09
5 3 -9 469.15 39.9
5 3 -9 464.05 41.3
-5 -3 9 456.15 43.4
-5 -3 9 501.15 40.4
-5 -3 9 504.85 38.7
-5 -3 9 513.25 46.8
4 3 -9 744.63 62.39
4 3 -9 767.32 61.59
4 3 -9 724.93 64.39
-4 -3 9 755.82 62.29
-4 -3 9 758.32 60.59
-4 -3 9 901.81 69.29
3 3 -9 2866.11 227.68
3 3 -9 2769.32 225.08
3 3 -9 2984.9 224.68
-3 -3 9 2967.1 225.88
-3 -3 9 2949.21 224.08
2 3 -9 174.08 17.2
2 3 -9 189.78 23.9
2 3 -9 232.38 22.4
2 3 -9 198.58 17.1
-2 -3 9 206.78 18.8
-2 -3 9 191.58 23.1
-2 -3 9 175.58 16.6
1 3 -9 1609.54 124.49
1 3 -9 1596.14 129.09
1 3 -9 1781.12 132.49
1 3 -9 1476.45 124.19
-1 -3 9 1601.64 124.49
-1 -3 9 1579.34 126.29
0 3 -9 3418.36 257.17
0 3 -9 2904.01 250.57
0 3 -9 3075.89 251.27
0 3 -9 3721.73 260.87
0 -3 9 3197.18 251.57
0 -3 9 3306.27 253.57
-1 3 -9 23.1 9.2
-1 3 -9 2.2 9.3
1 -3 9 6.7 3.2
1 -3 9 -42 39.7
1 -3 9 11.5 3.8
-2 3 -9 1595.44 137.39
-2 3 -9 1914.41 142.39
2 -3 9 1673.83 131.69
2 -3 9 1686.63 169.28
2 -3 9 1632.14 131.09
2 -3 9 1626.94 133.09
-3 3 -9 1237.58 113.19
3 -3 9 1381.86 106.39
3 -3 9 1371.26 106.99
3 -3 9 1431.66 108.99
-4 3 -9 86.49 12.9
-4 3 -9 87.09 20.9
4 -3 9 85.59 10.1
4 -3 9 63.09 10.1
-5 3 -9 1300.77 101.89
-5 3 -9 1442.46 117.19
-5 3 -9 1082.09 107.19
5 -3 9 1230.78 99.49
5 -3 9 1229.78 98.79
-6 3 -9 410.16 38.2
-6 3 -9 460.65 55.89
6 -3 9 375.36 35
6 -3 9 372.36 33.8
-7 3 -9 366.46 62.39
-7 3 -9 353.96 34.5
7 -3 9 292.87 28.2
7 -3 9 285.17 30.1
9 2 -9 566.64 48.5
9 2 -9 534.45 51.79
-9 -2 9 619.44 53.99
-9 -2 9 556.34 57.49
8 2 -9 137.09 19.4
8 2 -9 151.18 16.9
-8 -2 9 145.09 15
-8 -2 9 148.39 21.9
7 2 -9 281.57 67.99
7 2 -9 348.27 33.1
7 2 -9 421.56 36.1
7 2 -9 402.86 33.8
-7 -2 9 450.45 33.7
-7 -2 9 356.76 37.1
-7 -2 9 388.96 41.6
6 2 -9 1389.26 115.49
6 2 -9 1424.16 118.59
6 2 -9 1566.14 117.59
6 2 -9 1395.76 136.09
-6 -2 9 1520.35 120.69
-6 -2 9 1644.84 117.99
-6 -2 9 1505.55 125.39
5 2 -9 60.39 23
5 2 -9 43.1 7.5
5 2 -9 46.3 8.5
5 2 -9 26.7 5.4
5 2 -9 33.2 8.4
-5 -2 9 45.9 7.9
-5 -2 9 45.4 11.8
-5 -2 9 32.2 5.2
4 2 -9 1888.81 151.48
4 2 -9 1719.33 143.49
4 2 -9 1687.23 145.49
4 2 -9 1786.12 143.09
-4 -2 9 1982 151.78
-4 -2 9 1783.62 146.49
-4 -2 9 1933.11 142.19
-4 -2 9 1947.41 144.39
3 2 -9 2202.98 171.48
3 2 -9 1868.71 160.98
3 2 -9 2194.08 164.28
3 2 -9 2019.9 160.98
-3 -2 9 2025.5 162.28
-3 -2 9 2164.28 169.48
-3 -2 9 2075.89 167.58
-3 -2 9 2086.09 160.38
2 2 -9 143.39 14.8
2 2 -9 165.78 15.3
2 2 -9 155.58 31.3
2 2 -9 203.58 20.3
-2 -2 9 177.08 23.3
-2 -2 9 210.58 42.5
-2 -2 9 168.48 14.9
-2 -2 9 168.18 16.9
-2 -2 9 178.78 21
1 2 -9 2223.78 179.18
1 2 -9 2335.37 196.38
1 2 -9 2545.15 183.88
1 2 -9 2110.69 178.28
-1 -2 9 2551.74 224.88
-1 -2 9 2331.67 179.28
-1 -2 9 2232.78 181.08
0 2 -9 1379.06 121.29
0 2 -9 1727.53 126.19
0 2 -9 1501.45 141.59
0 -2 9 1563.44 122.69
0 -2 9 1577.54 120.69
-1 2 -9 287.47 26.7
-1 2 -9 296.07 31.8
-1 2 -9 294.37 59.69
1 -2 9 280.07 26.9
1 -2 9 319.37 25.8
1 -2 9 299.07 25.3
1 -2 9 346.57 70.59
-2 2 -9 2216.28 155.58
-2 2 -9 1744.83 177.08
2 -2 9 1873.71 189.88
2 -2 9 1858.41 147.89
2 -2 9 1875.61 149.79
2 -2 9 1800.82 147.59
-3 2 -9 697.33 63.19
3 -2 9 576.74 49.5
3 -2 9 558.84 47.3
3 -2 9 538.95 47
-4 2 -9 765.82 68.49
-4 2 -9 680.43 62.49
4 -2 9 591.04 51.29
4 -2 9 628.94 54.09
4 -2 9 577.64 51.69
-5 2 -9 997.5 101.19
-5 2 -9 1264.77 94.79
5 -2 9 1204.18 91.99
5 -2 9 1107.09 93.09
-6 2 -9 13.1 8.4
-6 2 -9 -18.2 15.7
-6 2 -9 2.8 24.7
6 -2 9 14.5 5.5
6 -2 9 6.6 5.2
-7 2 -9 554.74 70.99
7 -2 9 701.23 55.39
7 -2 9 697.23 56.79
10 1 -9 236.28 26.7
10 1 -9 271.97 34
-10 -1 9 321.97 33.8
-10 -1 9 197.78 41.6
9 1 -9 505.35 41.2
9 1 -9 464.05 44.4
-9 -1 9 423.36 51.59
-9 -1 9 489.35 45.6
8 1 -9 128.99 15.1
8 1 -9 123.09 17.1
-8 -1 9 127.59 14
-8 -1 9 107.29 19.2
7 1 -9 1218.78 96.79
7 1 -9 1245.18 95.29
-7 -1 9 1126.39 97.89
-7 -1 9 1040.5 102.99
-7 -1 9 1345.77 95.79
6 1 -9 571.94 47.2
6 1 -9 479.15 106.49
6 1 -9 570.04 48.4
-6 -1 9 507.65 55.09
-6 -1 9 581.44 50.49
-6 -1 9 575.54 58.29
-6 -1 9 666.73 48.4
5 1 -9 799.22 64.59
5 1 -9 651.63 60.19
5 1 -9 850.21 62.09
5 1 -9 688.43 103.09
5 1 -9 764.42 62.39
-5 -1 9 748.03 70.69
-5 -1 9 844.72 63.19
-5 -1 9 798.82 71.89
4 1 -9 1648.64 144.39
4 1 -9 1746.03 179.38
4 1 -9 1883.81 144.59
4 1 -9 1899.71 147.19
-4 -1 9 1851.31 153.88
-4 -1 9 2000.2 143.59
-4 -1 9 1913.41 145.99
-4 -1 9 1882.31 156.58
3 1 -9 137.79 13.9
3 1 -9 165.38 14.4
3 1 -9 224.58 44.4
-3 -1 9 184.68 36.9
-3 -1 9 134.89 13.1
-3 -1 9 175.08 23.7
-3 -1 9 137.79 15.5
2 1 -9 640.34 53.99
2 1 -9 635.24 50.69
2 1 -9 592.34 49.8
2 1 -9 608.74 76.49
-2 -1 9 629.14 52.39
-2 -1 9 622.64 50.19
-2 -1 9 716.73 53.39
-2 -1 9 616.34 59.79
1 1 -9 1700.23 136.29
1 1 -9 1598.14 159.78
1 1 -9 1822.12 140.19
-1 -1 9 1693.13 138.19
-1 -1 9 1818.22 136.19
-1 -1 9 1963.5 195.28
0 1 -9 228.58 23.4
0 1 -9 133.09 41
0 1 -9 194.48 18.2
0 -1 9 196.48 17.5
0 -1 9 121.89 58.19
0 -1 9 209.68 19.9
-1 1 -9 712.53 58.99
-1 1 -9 587.74 87.49
1 -1 9 715.33 53.19
1 -1 9 640.14 52.89
1 -1 9 646.34 55.19
1 -1 9 535.45 108.39
-2 1 -9 963.8 83.59
-2 1 -9 979.7 126.39
2 -1 9 1075.29 81.29
2 -1 9 1032.2 81.19
2 -1 9 1008.9 131.59
2 -1 9 1065.79 83.79
-3 1 -9 48.4 20.8
-3 1 -9 33.1 9
3 -1 9 37.3 8.3
3 -1 9 33.4 6.9
3 -1 9 20.3 4.7
4 -1 9 945.31 75.09
4 -1 9 942.21 77.99
4 -1 9 940.91 75.49
-5 1 -9 229.28 43.3
5 -1 9 133.39 17.2
5 -1 9 174.18 17.4
5 -1 9 171.88 20.8
-6 1 -9 393.76 51.99
-6 1 -9 421.56 37.6
6 -1 9 334.87 32.7
6 -1 9 331.27 31.9
-7 1 -9 436.36 67.59
7 -1 9 498.75 43.8
7 -1 9 536.75 45.5
10 0 -9 1018.5 77.29
10 0 -9 955.9 80.89
-10 0 9 963.6 80.99
-10 0 9 811.42 89.49
9 0 -9 16.8 8.8
9 0 -9 29.6 7.7
-9 0 9 13.6 9
-9 0 9 26.1 18.8
-9 0 9 29.3 6.6
8 0 -9 1562.94 117.49
8 0 -9 1486.45 119.19
-8 0 9 1277.47 126.89
-8 0 9 1433.86 120.09
-8 0 9 1643.24 118.09
7 0 -9 1508.05 108.49
7 0 -9 1318.57 109.29
-7 0 9 1555.44 109.39
-7 0 9 1200.48 110.29
-7 0 9 1257.27 117.99
6 0 -9 57.19 9
6 0 -9 52.29 9.4
6 0 -9 64.29 91.49
6 0 -9 37.3 9.1
-6 0 9 39.1 22.6
-6 0 9 70.49 6.8
-6 0 9 58.19 9.4
-6 0 9 43.5 16.9
5 0 -9 1865.61 147.59
5 0 -9 1810.82 147.89
5 0 -9 1872.11 149.99
-5 0 9 2060.49 164.78
-5 0 9 1825.12 157.78
-5 0 9 1957.4 149.19
4 0 -9 784.42 64.39
4 0 -9 837.72 66.99
4 0 -9 640.54 119.89
-4 0 9 852.91 63.39
-4 0 9 742.83 73.69
-4 0 9 907.51 86.39
-4 0 9 803.12 66.09
3 0 -9 130.19 52.99
3 0 -9 145.29 13.7
3 0 -9 133.49 13.3
-3 0 9 138.09 15.1
-3 0 9 203.38 45.1
-3 0 9 132.09 12.5
-3 0 9 144.19 24.5
2 0 -9 1452.25 114.89
2 0 -9 1429.36 110.79
2 0 -9 1360.86 151.38
2 0 -9 1423.56 111.89
-2 0 9 1407.26 113.89
-2 0 9 1494.65 111.39
-2 0 9 1422.46 121.59
1 0 -9 705.83 104.39
1 0 -9 789.02 62.09
1 0 -9 787.12 65.29
-1 0 9 768.82 63.89
-1 0 9 788.12 61.39
0 0 -9 685.83 53.39
0 0 -9 564.24 49.2
0 0 -9 514.65 94.29
0 0 9 611.24 50.99
0 0 9 586.14 48.3
-1 0 -9 1174.68 141.89
-1 0 -9 1169.78 95.39
1 0 9 1152.28 93.79
1 0 9 1025.5 149.09
1 0 9 1175.18 96.49
1 0 9 1356.36 93.89
-2 0 -9 54.99 19
-2 0 -9 41.3 10.2
2 0 9 38.3 6.5
2 0 9 47.6 7
2 0 9 60.59 10.8
3 0 9 949.4 78.19
3 0 9 1005.2 81.49
3 0 9 998.1 78.19
4 0 9 316.17 27.6
4 0 9 305.37 30.9
4 0 9 309.17 27.5
5 0 9 203.38 19.9
5 0 9 191.38 24.4
5 0 9 209.98 20.6
-6 0 -9 1064.19 83.19
6 0 9 877.21 78.69
10 -1 -9 691.43 53.39
10 -1 -9 618.14 56.49
-10 1 9 614.54 56.79
-10 1 9 567.94 67.29
9 -1 -9 416.06 35.6
9 -1 -9 381.06 37.4
-9 1 9 424.06 35.7
-9 1 9 335.17 49.8
-9 1 9 419.96 39.8
8 -1 -9 1674.93 137.89
8 -1 -9 1922.71 136.69
-8 1 9 1928.81 137.69
-8 1 9 1598.94 138.79
-8 1 9 1529.25 147.39
7 -1 -9 469.25 44.2
7 -1 -9 526.25 46.3
7 -1 -9 553.14 43.6
-7 1 9 555.14 44.8
-7 1 9 498.75 55.79
6 -1 -9 857.81 72.39
6 -1 -9 941.21 74.49
6 -1 -9 951.9 71.99
-6 1 9 823.32 82.39
-6 1 9 909.91 73.49
5 -1 -9 2112.39 179.58
5 -1 -9 2245.38 181.48
5 -1 -9 2233.88 179.38
-5 1 9 2352.76 181.48
-5 1 9 2686.13 178.28
-5 1 9 2213.68 189.68
4 -1 -9 353.86 30.5
4 -1 -9 426.16 33.9
4 -1 -9 216.28 89.99
-4 1 9 365.16 32.7
-4 1 9 346.37 29.2
-4 1 9 323.07 40
-4 1 9 394.66 71.29
3 -1 -9 752.62 149.69
3 -1 -9 990.1 78.99
3 -1 -9 971.6 75.99
3 -1 -9 997.9 76.49
-3 1 9 895.11 85.29
-3 1 9 1006.5 75.59
-3 1 9 968.2 78.69
2 -1 -9 1480.45 129.99
2 -1 -9 1572.04 190.48
2 -1 -9 1708.43 131.29
2 -1 -9 1835.32 134.09
-2 1 9 1729.53 130.49
-2 1 9 1707.13 133.69
-2 1 9 1684.23 141.09
1 -1 -9 71.59 10.5
1 -1 -9 75.49 61.59
1 -1 -9 94.49 14.1
-1 1 9 84.49 9.2
-1 1 9 83.19 12.2
-1 1 9 130.89 65.79
0 -1 -9 2007.8 158.28
0 -1 -9 2137.59 161.18
0 -1 -9 1992.7 220.28
0 1 9 1966.9 157.08
0 1 9 2069.59 218.18
0 1 9 1977.6 160.18
-1 -1 -9 467.15 40.5
-1 -1 -9 510.85 43.5
1 1 9 437.06 41
1 1 9 429.76 38.1
1 1 9 479.05 37.6
-2 -1 -9 763.92 60.29
2 1 9 709.53 56.69
2 1 9 687.93 57.09
2 1 9 677.93 60.29
-3 -1 -9 1365.66 120.39
3 1 9 1624.84 117.59
3 1 9 1484.35 117.59
3 1 9 1490.15 121.19
-4 -1 -9 -8.8 9.8
-4 -1 -9 31.7 21.2
-4 -1 -9 17.2 13.9
4 1 9 9.2 4.7
4 1 9 5.6 4.8
4 1 9 -0.3 7.4
5 1 9 828.22 66.59
5 1 9 881.11 67.19
5 1 9 724.13 69.99
6 1 9 767.12 64.29
10 -2 -9 84.29 20.1
10 -2 -9 55.69 10.7
-10 2 9 62.89 13.7
-10 2 9 49.7 27.6
9 -2 -9 686.13 54.69
9 -2 -9 654.83 56.79
-9 2 9 666.73 57.89
-9 2 9 659.23 55.49
-9 2 9 589.34 69.19
8 -2 -9 1097.29 88.59
8 -2 -9 1063.59 87.49
8 -2 -9 1090.09 85.89
-8 2 9 937.01 97.89
-8 2 9 1155.58 87.69
7 -2 -9 13.5 6.5
7 -2 -9 19.5 7.8
7 -2 -9 19.4 6.9
-7 2 9 15.3 6.4
6 -2 -9 1333.07 103.59
6 -2 -9 1323.47 105.69
6 -2 -9 1304.87 104.29
-6 2 9 1197.98 113.59
-6 2 9 1388.16 105.99
5 -2 -9 964.5 77.59
5 -2 -9 956.6 77.99
5 -2 -9 946.01 79.59
-5 2 9 936.21 87.89
-5 2 9 1074.69 76.19
-5 2 9 960.4 79.99
4 -2 -9 43.9 10.2
4 -2 -9 42.9 7.5
-4 2 9 50.19 6.2
-4 2 9 42.9 14.7
-4 2 9 50.09 72.99
3 -2 -9 1652.03 119.99
3 -2 -9 1131.59 286.17
3 -2 -9 1451.25 117.29
3 -2 -9 1504.95 117.49
-3 2 9 1488.35 120.29
-3 2 9 1444.56 126.39
-3 2 9 1501.45 116.39
2 -2 -9 485.25 39.1
2 -2 -9 415.66 36.3
2 -2 -9 346.57 138.59
-2 2 9 476.85 46.5
-2 2 9 395.06 35.1
-2 2 9 414.86 39
1 -2 -9 677.23 55.09
1 -2 -9 629.04 52.69
-1 2 9 635.74 55.49
-1 2 9 630.64 51.49
0 -2 -9 1061.79 80.59
0 -2 -9 977.9 78.19
0 2 9 898.81 76.59
0 2 9 941.31 80.49
-1 -2 -9 -1.5 14.2
-1 -2 -9 -3.6 6.7
-1 -2 -9 3.4 6.8
1 2 9 6.8 3.4
1 2 9 5.4 6.5
1 2 9 7.9 2.8
2 2 9 1477.05 125.29
2 2 9 1509.25 121.39
2 2 9 1640.34 120.89
-3 -2 -9 772.02 65.69
3 2 9 798.42 60.49
3 2 9 660.93 64.39
-4 -2 -9 46.4 16.2
4 2 9 81.99 12.3
4 2 9 91.19 13.2
4 2 9 70.99 15.4
5 2 9 956.5 86.69
5 2 9 1073.49 83.09
9 -3 -9 834.42 64.69
9 -3 -9 739.43 66.49
9 -3 -9 871.81 67.59
-9 3 9 737.53 65.59
-9 3 9 710.13 80.79
8 -3 -9 407.86 34
8 -3 -9 346.97 35.3
8 -3 -9 404.86 36.9
-8 3 9 379.66 48.5
7 -3 -9 272.67 23.8
7 -3 -9 266.77 25.4
-7 3 9 238.78 25.9
-7 3 9 225.38 35.9
6 -3 -9 625.44 50.39
6 -3 -9 603.34 51.29
6 -3 -9 643.54 52.59
-6 3 9 581.14 60.89
-6 3 9 602.34 53.19
5 -3 -9 35.3 7.4
5 -3 -9 19.9 7.4
5 -3 -9 21.3 6.2
-5 3 9 23 13.7
-5 3 9 30.1 8.6
-5 3 9 28.4 5.3
4 -3 -9 431.36 36.9
4 -3 -9 379.86 35.1
4 -3 -9 403.46 34.8
-4 3 9 396.56 33
-4 3 9 407.06 37.9
-4 3 9 437.86 44.9
3 -3 -9 629.34 48.7
3 -3 -9 554.94 49.1
-3 3 9 600.94 52.19
-3 3 9 565.14 47
-3 3 9 595.64 57.09
2 -3 -9 80.19 11
2 -3 -9 72.49 13
-2 3 9 72.19 13.9
-2 3 9 58.39 8.5
-2 3 9 91.89 19.8
1 -3 -9 796.32 65.39
1 -3 -9 865.51 67.19
-1 3 9 789.72 63.89
-1 3 9 750.12 68.49
0 -3 -9 343.37 30.3
0 -3 -9 279.87 28.2
0 3 9 254.37 30.4
0 3 9 321.77 25.7
0 3 9 281.47 25.9
-1 -3 -9 342.87 32.4
-1 -3 -9 371.16 33.7
1 3 9 367.16 28.4
1 3 9 305.57 34.4
1 3 9 297.77 29.3
2 3 9 1332.57 93.69
2 3 9 1080.39 97.99
2 3 9 1108.49 98.99
3 3 9 139.89 16.4
3 3 9 130.09 14.6
3 3 9 101.29 22.2
-4 -3 -9 287.47 42
4 3 9 368.06 33.9
4 3 9 419.06 33.5
4 3 9 313.67 39.3
5 3 9 1192.78 97.29
9 -4 -9 665.03 54.69
9 -4 -9 590.24 50.99
9 -4 -9 622.34 54.39
-9 4 9 611.44 54.29
-9 4 9 532.25 65.09
8 -4 -9 19.1 9.4
8 -4 -9 12.7 7.3
8 -4 -9 9.1 7.7
-8 4 9 18.4 16.7
-8 4 9 13.9 8.6
7 -4 -9 836.12 66.79
7 -4 -9 858.11 64.79
7 -4 -9 795.52 66.19
-7 4 9 729.03 75.49
-7 4 9 732.93 67.69
6 -4 -9 190.68 20.2
6 -4 -9 175.78 20.8
6 -4 -9 164.78 20.2
5 -4 -9 268.47 24.5
5 -4 -9 230.18 25.2
5 -4 -9 297.67 26.3
-5 4 9 259.67 33.6
-5 4 9 255.77 21.9
-5 4 9 244.48 27.7
4 -4 -9 844.12 69.39
4 -4 -9 839.12 70.49
4 -4 -9 974.5 71.49
-4 4 9 857.31 77.69
-4 4 9 842.52 67.89
-4 4 9 803.52 73.79
3 -4 -9 51.49 12.3
2 -4 -9 1037.2 79.39
2 -4 -9 867.21 77.69
-2 4 9 979 76.59
-2 4 9 1061.99 85.09
-2 4 9 885.31 81.89
1 -4 -9 785.22 60.79
1 -4 -9 700.83 59.59
-1 4 9 668.03 63.29
-1 4 9 711.93 58.09
0 -4 -9 30.8 8.8
0 -4 -9 10.4 6.9
0 -4 -9 39.1 15.8
0 4 9 14.8 10.2
0 4 9 11.5 5.1
1 4 9 1300.47 109.69
2 4 9 710.83 63.09
2 4 9 810.72 61.99
3 4 9 60.59 17.6
3 4 9 96.59 13.4
3 4 9 94.89 16.6
-4 -4 -9 1174.08 122.69
4 4 9 1414.46 104.59
4 4 9 1220.28 104.59
8 -5 -9 642.04 50.29
8 -5 -9 581.34 57.39
8 -5 -9 562.24 48.3
-8 5 9 509.25 52.39
-8 5 9 508.65 62.89
7 -5 -9 657.93 55.89
7 -5 -9 781.12 58.29
7 -5 -9 630.64 57.99
-7 5 9 673.13 67.29
-7 5 9 617.74 60.49
6 -5 -9 6.6 7
6 -5 -9 21.3 8.7
-6 5 9 3.2 13.2
-6 5 9 12.2 9.3
5 -5 -9 1184.38 94.49
5 -5 -9 1152.08 95.19
5 -5 -9 1194.08 93.49
-5 5 9 1064.19 98.19
-5 5 9 1247.58 101.99
-5 5 9 1173.08 91.59
4 -5 -9 684.73 51.69
4 -5 -9 521.55 56.39
-4 5 9 606.34 48.5
-4 5 9 621.94 57.59
-4 5 9 543.75 57.49
3 -5 -9 490.05 41.7
3 -5 -9 491.15 41.9
-3 5 9 446.76 39.3
-3 5 9 475.55 47.6
2 -5 -9 1800.52 147.29
2 -5 -9 1860.21 147.89
-2 5 9 1901.61 146.19
-2 5 9 1906.51 152.38
1 -5 -9 488.65 44.1
1 -5 -9 525.15 45
-1 5 9 489.15 42.5
0 -5 -9 987.5 79.59
0 -5 -9 967.2 78.59
0 5 9 892.41 77.49
-1 -5 -9 2207.38 172.38
1 5 9 2120.29 170.58
-2 -5 -9 54.59 13.9
-2 -5 -9 58.89 16
-2 -5 -9 55.09 13.9
-3 -5 -9 1536.05 112.49
3 5 9 1137.99 107.29
7 -6 -9 139.89 17.9
7 -6 -9 113.29 17.4
7 -6 -9 100.79 21.4
-7 6 9 72.59 19.9
-7 6 9 139.29 31.1
6 -6 -9 284.47 30.7
6 -6 -9 258.77 27.4
6 -6 -9 300.47 27.5
-6 6 9 291.17 37.7
-6 6 9 244.78 34.5
5 -6 -9 885.51 76.29
5 -6 -9 930.51 75.89
-5 6 9 1006.4 73.79
-5 6 9 915.11 84.19
-5 6 9 888.51 82.79
4 -6 -9 42.9 10.1
-4 6 9 30.5 6.1
-4 6 9 37.3 13.9
-4 6 9 42.8 13.8
3 -6 -9 1158.28 95.49
-3 6 9 1010.6 101.09
-3 6 9 1245.08 94.19
-3 6 9 1310.17 100.49
2 -6 -9 1415.56 107.69
2 -6 -9 1314.07 106.09
-2 6 9 1211.78 112.39
1 -6 -9 11 8.9
1 -6 -9 3.8 7.1
1 -6 -9 3.9 10.9
-1 6 9 -7 6.3
-1 6 9 -8.2 11.9
0 -6 -9 2127.39 164.48
0 -6 -9 2049.09 163.88
0 6 9 2027.6 163.48
-1 -6 -9 823.42 64.79
-1 -6 -9 720.33 63.79
1 6 9 649.14 62.89
6 -7 -9 770.52 60.99
6 -7 -9 697.63 60.79
-6 7 9 721.73 68.69
-6 7 9 689.83 68.99
5 -7 -9 409.16 37.3
5 -7 -9 384.06 35.6
-5 7 9 371.96 33.5
-5 7 9 352.36 46.1
-5 7 9 435.46 44
4 -7 -9 123.99 20.9
4 -7 -9 133.69 17.6
-4 7 9 138.29 19
-4 7 9 88.19 23.5
-4 7 9 130.79 30.2
3 -7 -9 1031 82.09
3 -7 -9 1019.6 83.09
-3 7 9 1037 81.39
-3 7 9 1063.49 86.49
-3 7 9 852.81 89.99
2 -7 -9 246.78 25
2 -7 -9 238.78 27.7
-2 7 9 181.98 35
-2 7 9 238.18 25.2
1 -7 -9 378.66 36.7
1 -7 -9 375.06 35
-1 7 9 290.17 44.6
-1 7 9 378.26 35.6
0 -7 -9 958.2 78.99
0 -7 -9 975.7 79.49
0 7 9 877.51 78.49
3 10 -10 580.14 56.09
3 10 -10 661.13 54.09
3 10 -10 674.23 57.79
-3 -10 10 726.23 55.79
2 10 -10 470.75 45.6
2 10 -10 529.65 45.5
2 10 -10 535.55 43
1 10 -10 36.2 10.2
-1 -10 10 11.8 12.6
-1 -10 10 54.99 18.9
0 10 -10 551.74 53.79
0 10 -10 610.64 53.79
0 10 -10 678.53 50.69
-1 10 -10 234.88 26.5
-1 10 -10 249.88 22.4
-1 10 -10 248.28 28.2
1 -10 10 177.78 28
-2 10 -10 167.98 23.3
-2 10 -10 164.68 17.4
-2 10 -10 155.98 24.1
2 -10 10 119.29 23.3
-3 10 -10 730.43 69.99
-3 10 -10 805.32 67.89
-3 10 -10 823.42 63.29
3 -10 10 762.62 62.79
4 9 -10 130.99 20.4
4 9 -10 146.39 25.6
4 9 -10 135.79 15.2
4 9 -10 116.59 17.6
-4 -9 10 135.69 17.4
3 9 -10 588.94 50.19
3 9 -10 594.94 47.9
3 9 -10 611.14 50.99
3 9 -10 543.35 48.6
2 9 -10 27.2 6
2 9 -10 25.2 6.7
2 9 -10 18 8.7
2 9 -10 13.6 12.2
-2 -9 10 28.9 15.9
-2 -9 10 19.7 14.5
1 9 -10 240.38 27.4
1 9 -10 250.47 27.8
1 9 -10 260.97 23.6
-1 -9 10 318.07 34.5
0 9 -10 563.54 43
0 9 -10 469.95 46.6
0 9 -10 517.65 45.7
-1 9 -10 2.4 4.4
-1 9 -10 7.2 7.5
-1 9 -10 12.8 9.2
1 -9 10 33.6 14.3
1 -9 10 7.5 4.2
1 -9 10 17.4 8.7
-2 9 -10 900.81 71.79
2 -9 10 866.21 67.59
2 -9 10 766.52 71.29
-3 9 -10 339.57 38
-3 9 -10 361.66 34.8
3 -9 10 368.96 30.3
3 -9 10 323.17 34.2
-4 9 -10 268.17 30.3
-4 9 -10 283.37 34.4
4 -9 10 236.78 23.4
4 -9 10 231.98 28.2
-5 9 -10 689.13 71.29
-5 9 -10 778.02 65.69
5 -9 10 719.53 59.29
5 -9 10 736.93 62.89
5 8 -10 69.49 14.1
5 8 -10 105.09 22.7
5 8 -10 89.19 15.3
5 8 -10 110.99 12.4
5 8 -10 67.29 17.4
4 8 -10 754.52 56.79
4 8 -10 616.04 62.29
4 8 -10 729.03 58.59
4 8 -10 695.83 59.79
4 8 -10 715.93 58.09
3 8 -10 206.28 19.1
3 8 -10 195.58 20.1
3 8 -10 208.88 21.5
3 8 -10 215.18 23.1
3 8 -10 192.98 25.9
3 8 -10 230.78 22.5
3 8 -10 190.78 25.1
2 8 -10 228.68 29.1
2 8 -10 269.67 25.5
2 8 -10 303.37 23.4
2 8 -10 266.77 27.1
2 8 -10 252.97 23.3
-2 -8 10 215.48 32.4
1 8 -10 554.94 52.29
1 8 -10 540.35 51.29
1 8 -10 679.33 48.1
1 8 -10 611.04 47.7
1 8 -10 633.94 50.29
-1 -8 10 477.95 53.09
0 8 -10 7.6 7.3
0 8 -10 13.6 8.6
0 8 -10 15.2 9.1
0 -8 10 10.4 10.3
0 -8 10 4.4 7.9
-1 8 -10 975.3 79.49
-1 8 -10 932.81 80.19
1 -8 10 856.31 78.79
1 -8 10 1018.7 75.29
-2 8 -10 746.83 59.19
-2 8 -10 614.34 61.09
2 -8 10 697.33 55.39
-3 8 -10 134.99 22.2
-3 8 -10 116.19 18.2
3 -8 10 117.89 17.3
3 -8 10 138.99 13.9
-4 8 -10 868.71 72.19
-4 8 -10 798.82 76.69
4 -8 10 868.21 70.69
4 -8 10 843.02 67.69
-5 8 -10 294.27 33
-5 8 -10 275.17 41.1
5 -8 10 296.37 30.4
5 -8 10 290.37 26.6
6 7 -10 27.6 8.8
6 7 -10 41 11.5
6 7 -10 33.6 13.1
5 7 -10 577.54 44
5 7 -10 475.15 50.09
5 7 -10 612.94 46
5 7 -10 504.55 55.19
5 7 -10 503.05 47.6
4 7 -10 752.82 65.79
4 7 -10 755.62 61.79
4 7 -10 733.03 63.69
4 7 -10 739.73 59.89
4 7 -10 777.52 61.29
4 7 -10 757.52 64.99
3 7 -10 86.59 12.6
3 7 -10 58.89 14.1
3 7 -10 72.49 14.2
3 7 -10 63.99 9.2
3 7 -10 79.49 10.4
3 7 -10 76.99 11.7
2 7 -10 1224.68 107.49
2 7 -10 1524.95 104.19
2 7 -10 1321.57 103.99
2 7 -10 1378.36 105.99
-2 -7 10 1364.66 103.99
-2 -7 10 1123.89 110.69
1 7 -10 567.94 44.9
1 7 -10 502.25 46.7
1 7 -10 519.45 41.8
-1 -7 10 547.75 42.2
-1 -7 10 440.46 47.7
0 7 -10 460.25 37.6
0 7 -10 350.66 39.6
0 7 -10 392.66 39.6
0 -7 10 460.05 34.8
0 -7 10 418.86 39.5
-1 7 -10 1676.23 123.09
-1 7 -10 1413.16 125.19
1 -7 10 1457.75 123.29
1 -7 10 1569.54 158.78
1 -7 10 1575.64 119.99
-2 7 -10 48.6 10.7
-2 7 -10 76.39 17.9
2 -7 10 61.09 12.4
-3 7 -10 771.42 63.79
3 -7 10 765.62 63.09
3 -7 10 724.83 60.19
-4 7 -10 841.62 80.89
-4 7 -10 995.2 88.69
-4 7 -10 1023.7 82.19
4 -7 10 1050.69 80.89
4 -7 10 1022.6 78.39
-5 7 -10 34.5 17.1
-5 7 -10 40.1 11.1
5 -7 10 33.1 6.3
5 -7 10 32.2 8.8
-6 7 -10 570.24 63.19
-6 7 -10 570.44 52.49
6 -7 10 529.15 45.8
6 -7 10 553.04 48.8
7 6 -10 434.66 45.8
7 6 -10 427.16 41.7
-7 -6 10 556.24 50.79
-7 -6 10 495.55 49.4
6 6 -10 16.4 7.8
6 6 -10 34.5 8.3
6 6 -10 20.8 7.3
-6 -6 10 41.4 10.8
-6 -6 10 35.6 13.3
5 6 -10 831.22 62.59
5 6 -10 782.72 60.59
5 6 -10 738.03 61.99
5 6 -10 706.23 66.29
5 6 -10 759.72 65.19
5 6 -10 752.62 65.19
4 6 -10 188.88 21.6
4 6 -10 203.98 19.7
4 6 -10 194.88 17.2
4 6 -10 182.88 22.4
4 6 -10 185.38 18.5
3 6 -10 504.25 38.8
3 6 -10 406.36 42.9
3 6 -10 477.35 41.3
3 6 -10 433.86 42.4
3 6 -10 396.96 39.6
3 6 -10 543.65 40.8
-3 -6 10 505.15 38.3
2 6 -10 1258.57 94.89
2 6 -10 1229.98 97.29
2 6 -10 1355.06 97.29
2 6 -10 1168.18 99.29
2 6 -10 1047.8 99.39
-2 -6 10 1287.47 94.79
-2 -6 10 1096.59 101.79
1 6 -10 74.29 8.8
1 6 -10 86.09 12.1
1 6 -10 72.09 15.3
1 6 -10 67.09 14.4
-1 -6 10 70.99 15.8
-1 -6 10 73.49 8.8
-1 -6 10 72.99 13.1
0 6 -10 1048.2 86.19
0 6 -10 1038.7 91.29
0 6 -10 1171.88 88.59
0 -6 10 1083.79 85.79
0 -6 10 1120.39 89.99
-1 6 -10 1353.36 117.59
-1 6 -10 1460.45 113.99
1 -6 10 1419.56 162.48
1 -6 10 1493.35 114.49
1 -6 10 1398.56 111.29
-2 6 -10 5.4 5.2
-2 6 -10 7.1 10.8
-2 6 -10 15.7 8.9
2 -6 10 5.2 4.7
2 -6 10 4.2 3.2
-3 6 -10 1155.48 98.69
-3 6 -10 950 92.49
3 -6 10 1267.27 90.99
-4 6 -10 874.31 71.69
-4 6 -10 815.22 78.39
4 -6 10 887.81 73.09
4 -6 10 826.32 67.89
-5 6 -10 60.39 14.1
-5 6 -10 83.39 16.3
-5 6 -10 76.79 22.3
5 -6 10 77.89 13.8
5 -6 10 78.99 11.3
-6 6 -10 999.2 77.39
-6 6 -10 893.41 90.09
-6 6 -10 737.43 76.19
6 -6 10 892.11 71.59
6 -6 10 922.31 73.69
8 5 -10 440.86 48
8 5 -10 459.05 43.7
-8 -5 10 577.94 54.69
-8 -5 10 521.15 47.9
7 5 -10 24.5 10
7 5 -10 16.4 7.5
-7 -5 10 29.2 14.7
-7 -5 10 10.6 12.3
6 5 -10 404.66 44.5
6 5 -10 441.56 42.7
-6 -5 10 544.35 45.4
-6 -5 10 481.95 39.5
5 5 -10 537.25 47
5 5 -10 507.05 42.9
5 5 -10 507.85 48.8
5 5 -10 548.65 44.7
-5 -5 10 580.14 44.8
4 5 -10 56.79 12
4 5 -10 47.9 8.9
4 5 -10 58.19 11.1
-4 -5 10 60.79 9.3
3 5 -10 1022 77.29
3 5 -10 878.71 81.09
3 5 -10 938.41 81.89
3 5 -10 954.2 78.89
-3 -5 10 1038.9 78.69
-3 -5 10 1016.6 76.79
2 5 -10 806.62 69.19
2 5 -10 786.12 64.89
2 5 -10 851.31 63.59
2 5 -10 765.42 68.69
-2 -5 10 803.82 63.39
-2 -5 10 858.51 65.49
-2 -5 10 722.23 69.89
1 5 -10 109.09 12.6
1 5 -10 116.99 11.2
1 5 -10 109.29 18.1
1 5 -10 88.29 18.6
-1 -5 10 129.09 13.8
-1 -5 10 113.99 11.4
-1 -5 10 107.19 18
0 5 -10 1717.03 137.19
0 5 -10 1724.53 143.49
0 5 -10 1451.15 141.79
0 5 -10 1716.83 136.29
0 -5 10 1898.21 140.59
0 -5 10 1958.9 153.28
0 -5 10 1887.71 139.29
0 -5 10 1752.92 136.79
-1 5 -10 517.45 45.3
-1 5 -10 501.75 49.8
1 -5 10 557.14 45.4
1 -5 10 456.95 85.39
1 -5 10 556.64 43.7
1 -5 10 559.14 45.3
1 -5 10 490.65 42.7
-2 5 -10 392.16 34.6
-2 5 -10 316.87 38.3
-2 5 -10 381.56 41.3
2 -5 10 422.46 34.1
2 -5 10 388.56 32
-3 5 -10 1224.38 100.29
-3 5 -10 1227.98 107.79
3 -5 10 1208.38 97.39
3 -5 10 1298.97 99.09
-4 5 -10 85.29 19.2
-4 5 -10 81.69 16.7
-4 5 -10 90.89 21.1
4 -5 10 87.99 12.3
4 -5 10 87.49 10.9
-5 5 -10 312.47 39
-5 5 -10 359.26 35
-5 5 -10 428.46 48.6
5 -5 10 355.36 32.2
5 -5 10 346.87 30.7
-6 5 -10 651.73 74.19
-6 5 -10 563.24 52.09
6 -5 10 541.95 48.6
6 -5 10 555.34 47.2
8 4 -10 230.48 25
8 4 -10 233.58 29.1
-8 -4 10 230.68 31.5
-8 -4 10 264.07 33.7
7 4 -10 410.16 41.5
7 4 -10 435.56 38.9
-7 -4 10 475.55 45.3
-7 -4 10 470.05 37.7
6 4 -10 1062.79 92.09
6 4 -10 1038.9 93.99
-6 -4 10 1190.88 97.49
-6 -4 10 1349.96 98.99
-6 -4 10 1182.18 92.19
5 4 -10 45.9 10.5
5 4 -10 42 5.9
5 4 -10 48.4 8.7
5 4 -10 37.4 10.2
5 4 -10 27.4 5.8
4 4 -10 1017.2 82.49
4 4 -10 915.01 84.49
4 4 -10 1026.9 81.19
-4 -4 10 1065.99 80.29
-4 -4 10 1093.49 82.29
3 4 -10 1579.44 132.69
3 4 -10 1560.74 127.99
3 4 -10 1664.03 127.19
3 4 -10 1566.24 130.99
-3 -4 10 1659.73 126.59
-3 -4 10 1746.23 128.79
2 4 -10 6.8 5
2 4 -10 2.8 7.2
2 4 -10 7.1 3.4
2 4 -10 5.6 8.2
-2 -4 10 5.5 2.8
-2 -4 10 15.1 8.6
1 4 -10 1756.72 135.79
1 4 -10 1604.94 127.89
1 4 -10 1716.53 127.79
1 4 -10 1555.54 133.09
-1 -4 10 1687.83 127.89
-1 -4 10 1480.55 130.29
-1 -4 10 1711.53 130.09
0 4 -10 1456.45 116.89
0 4 -10 1295.87 107.99
0 4 -10 1374.16 114.69
0 -4 10 1571.34 111.49
0 -4 10 1288.97 108.09
0 -4 10 1351.36 110.39
-1 4 -10 79.19 18.3
1 -4 10 73.09 9.4
1 -4 10 106.99 59.39
1 -4 10 82.89 11.5
1 -4 10 85.29 11.6
-2 4 -10 942.91 80.09
-2 4 -10 736.03 75.19
2 -4 10 848.42 68.49
2 -4 10 882.51 69.69
2 -4 10 901.91 71.19
-3 4 -10 313.27 37.9
-3 4 -10 257.67 26.4
3 -4 10 259.27 24.2
3 -4 10 255.87 23.3
-4 4 -10 185.58 23.6
-4 4 -10 229.88 34.1
4 -4 10 224.58 19.8
4 -4 10 192.58 20
-5 4 -10 661.03 72.19
-5 4 -10 611.34 54.99
5 -4 10 632.54 51.59
5 -4 10 626.04 54.19
-6 4 -10 58.99 13.4
-6 4 -10 56.49 20.1
-6 4 -10 76.69 33.5
6 -4 10 42.7 8.4
6 -4 10 58.89 12.8
9 3 -10 750.32 66.39
9 3 -10 799.22 70.99
-9 -3 10 795.02 72.29
-9 -3 10 868.11 75.59
8 3 -10 29.4 10.4
8 3 -10 30.6 8.1
-8 -3 10 40.6 14.2
-8 -3 10 11.4 11.3
7 3 -10 1604.84 131.69
7 3 -10 1653.43 129.69
-7 -3 10 1735.53 129.49
-7 -3 10 1579.44 133.59
6 3 -10 1285.37 103.49
6 3 -10 1214.28 106.69
6 3 -10 1234.38 104.99
-6 -3 10 1453.85 111.39
-6 -3 10 1367.66 103.89
5 3 -10 191.18 24.6
5 3 -10 189.28 20.9
5 3 -10 206.78 20
-5 -3 10 229.68 20.7
-5 -3 10 230.68 18.5
-5 -3 10 244.38 28.8
4 3 -10 2085.69 167.48
4 3 -10 2010.2 164.08
4 3 -10 2005.2 164.78
-4 -3 10 2207.68 163.28
-4 -3 10 2244.08 165.48
3 3 -10 786.12 64.39
3 3 -10 805.32 68.39
3 3 -10 799.12 64.69
-3 -3 10 800.92 63.79
-3 -3 10 859.81 66.09
2 3 -10 967 75.79
2 3 -10 842.42 66.79
2 3 -10 792.72 66.59
2 3 -10 794.52 71.09
-2 -3 10 826.32 66.39
-2 -3 10 851.81 71.79
-2 -3 10 839.72 68.59
-2 -3 10 860.31 75.49
1 3 -10 2033.7 173.28
1 3 -10 2192.98 178.48
1 3 -10 2109.29 173.38
1 3 -10 2458.85 183.08
-1 -3 10 2649.93 208.98
-1 -3 10 2186.78 173.48
-1 -3 10 2201.28 175.58
0 3 -10 241.08 29.2
0 3 -10 206.48 26
0 -3 10 200.18 18.6
0 -3 10 219.78 67.89
0 -3 10 203.08 20.6
-1 3 -10 1207.28 95.69
-1 3 -10 1132.69 90.89
1 -3 10 1094.99 84.39
1 -3 10 897.01 142.49
1 -3 10 959.1 82.99
1 -3 10 987.4 85.29
-2 3 -10 1118.59 93.69
2 -3 10 1034.9 87.49
2 -3 10 1090.59 85.89
2 -3 10 1080.39 85.19
-3 3 -10 34.6 13.4
-3 3 -10 0.5 14.9
3 -3 10 12.9 4.2
3 -3 10 16.5 4.8
-4 3 -10 991.5 100.19
-4 3 -10 874.81 72.49
-4 3 -10 702.03 78.79
4 -3 10 918.81 72.79
4 -3 10 873.21 69.99
4 -3 10 859.81 69.89
-5 3 -10 297.17 31.6
-5 3 -10 239.28 51.09
5 -3 10 293.67 26.2
-6 3 -10 290.17 50.29
-6 3 -10 434.36 69.09
-6 3 -10 443.96 40.6
6 -3 10 390.36 34.9
6 -3 10 399.26 35.8
9 2 -10 359.36 32.1
9 2 -10 295.77 35.4
-9 -2 10 394.96 45.9
-9 -2 10 338.97 38.3
8 2 -10 483.05 41.6
-8 -2 10 437.66 46.3
-8 -2 10 506.35 40.9
-8 -2 10 497.25 52.29
7 2 -10 1480.15 121.69
7 2 -10 1544.15 123.49
-7 -2 10 1683.93 122.19
-7 -2 10 1458.85 125.19
6 2 -10 320.37 33
6 2 -10 323.77 30.6
6 2 -10 336.37 29.5
-6 -2 10 376.46 39.7
-6 -2 10 339.77 30
5 2 -10 995.3 81.19
5 2 -10 980.2 81.89
5 2 -10 910.31 83.89
-5 -2 10 1095.59 91.09
-5 -2 10 1100.29 79.99
-5 -2 10 1062.09 82.39
4 2 -10 2062.99 160.98
4 2 -10 1836.62 160.88
4 2 -10 2102.59 164.18
4 2 -10 2163.28 170.28
-4 -2 10 2051.79 162.28
-4 -2 10 2291.17 171.28
-4 -2 10 1976.1 164.58
-4 -2 10 2103.09 159.98
3 2 -10 194.88 16.8
3 2 -10 161.88 39.2
3 2 -10 174.28 20.9
3 2 -10 157.98 16.6
-3 -2 10 187.98 27.5
-3 -2 10 191.28 18.4
-3 -2 10 172.08 31.4
-3 -2 10 168.68 15.6
2 2 -10 1066.89 90.09
2 2 -10 1126.49 95.09
2 2 -10 1134.99 109.49
2 2 -10 1114.99 90.89
-2 -2 10 1173.38 90.69
-2 -2 10 1128.89 92.89
-2 -2 10 1210.68 94.99
-2 -2 10 1355.86 102.69
1 2 -10 1280.87 126.69
1 2 -10 1321.37 104.39
1 2 -10 1359.06 109.09
-1 -2 10 1257.37 106.29
-1 -2 10 1633.54 159.08
-1 -2 10 1306.37 104.19
0 2 -10 110.59 18.2
0 2 -10 120.89 23.6
0 2 -10 76.99 11
0 2 -10 107.39 38.2
0 -2 10 55.39 59.39
0 -2 10 100.39 12.8
0 -2 10 83.49 10.1
-1 2 -10 1699.53 129.99
1 -2 10 1727.23 123.79
1 -2 10 1435.86 124.99
1 -2 10 1446.26 122.79
-2 2 -10 551.24 55.19
2 -2 10 423.16 36.6
2 -2 10 433.36 36.9
2 -2 10 414.06 39.3
-3 2 -10 687.73 65.89
3 -2 10 549.25 46.3
3 -2 10 545.45 49.1
3 -2 10 526.65 45.9
4 -2 10 925.31 78.39
4 -2 10 911.71 74.89
4 -2 10 976.2 75.59
-5 2 -10 2 18.7
-5 2 -10 -11.5 24.6
5 -2 10 5.6 4.8
-6 2 -10 826.22 91.59
6 -2 10 984.7 75.19
6 -2 10 891.81 73.99
9 1 -10 10.2 7.9
9 1 -10 13.6 9.9
-9 -1 10 16.5 10.9
-9 -1 10 11.1 20.8
8 1 -10 955.9 80.09
8 1 -10 1054.39 78.39
-8 -1 10 865.31 88.59
-8 -1 10 874.91 81.29
-8 -1 10 1047.5 78.19
7 1 -10 689.23 59.19
7 1 -10 678.53 60.09
7 1 -10 667.13 58.19
-7 -1 10 679.73 68.59
-7 -1 10 753.52 57.69
6 1 -10 52.99 11.9
6 1 -10 42.3 7.9
6 1 -10 52.09 10.3
-6 -1 10 51.79 16.1
-6 -1 10 64.19 9.7
-6 -1 10 24.5 20.1
5 1 -10 1320.67 106.69
5 1 -10 1197.48 103.99
5 1 -10 1158.98 135.59
5 1 -10 1360.06 103.89
-5 -1 10 1269.57 113.79
-5 -1 10 1396.06 114.99
-5 -1 10 1314.67 105.09
-5 -1 10 1470.65 102.59
4 1 -10 825.02 94.99
4 1 -10 773.22 62.49
4 1 -10 819.42 65.89
4 1 -10 721.63 62.19
-4 -1 10 773.92 61.39
-4 -1 10 785.62 77.29
-4 -1 10 829.62 73.39
-4 -1 10 759.52 63.99
3 1 -10 170.28 17.1
3 1 -10 188.28 17.7
3 1 -10 186.28 21.7
-3 -1 10 262.57 58.89
-3 -1 10 202.68 16.9
-3 -1 10 212.98 28.5
-3 -1 10 190.68 19.3
2 1 -10 1037.6 87.69
2 1 -10 967.7 111.69
2 1 -10 1044.3 84.19
-2 -1 10 1026.7 86.19
-2 -1 10 1237.68 97.09
-2 -1 10 1086.49 83.79
1 1 -10 142.59 45.7
1 1 -10 210.08 22.5
1 1 -10 176.88 17.2
-1 -1 10 176.18 19
-1 -1 10 179.48 16.5
-1 -1 10 247.78 72.79
0 1 -10 670.73 57.49
0 1 -10 837.72 63.29
0 -1 10 680.13 129.19
0 -1 10 698.43 56.79
0 -1 10 663.93 59.09
-1 1 -10 514.95 44
1 -1 10 504.25 44.8
1 -1 10 558.64 42.3
1 -1 10 474.05 41.8
-2 1 -10 39.3 10.6
-2 1 -10 52.89 22.4
-2 1 -10 67.99 15
3 -1 10 985.2 75.79
3 -1 10 898.31 75.59
3 -1 10 957.1 78.99
4 -1 10 388.36 32.8
4 -1 10 364.26 32.6
4 -1 10 374.06 36.7
-5 1 -10 256.97 51.89
5 -1 10 160.18 18.6
6 -1 10 1002.5 78.19
6 -1 10 892.71 76.79
9 0 -10 709.13 54.09
9 0 -10 640.04 55.99
-9 0 10 664.43 53.29
-9 0 10 569.24 69.99
-9 0 10 557.04 57.29
8 0 -10 1142.69 96.09
8 0 -10 1127.69 94.29
8 0 -10 1179.58 92.89
-8 0 10 1067.39 103.99
-8 0 10 1268.27 93.69
7 0 -10 99.69 12.4
7 0 -10 72.29 16.6
7 0 -10 77.59 13.3
-7 0 10 76.39 21.8
-7 0 10 104.49 13.2
6 0 -10 902.81 74.99
6 0 -10 927.11 77.39
6 0 -10 932.31 74.49
-6 0 10 966.4 75.99
-6 0 10 921.11 86.59
5 0 -10 852.51 64.59
5 0 -10 754.22 61.39
5 0 -10 693.13 61.19
-5 0 10 727.93 72.29
-5 0 10 743.83 62.79
-5 0 10 794.32 59.79
4 0 -10 7.1 4.5
-4 0 10 32 30.7
-4 0 10 10.2 5.3
-4 0 10 5.3 11.9
-4 0 10 6.6 2.7
3 0 -10 1041.6 82.39
3 0 -10 915.01 135.69
3 0 -10 1026.7 82.59
3 0 -10 1076.39 85.49
-3 0 10 996.1 84.19
-3 0 10 1111.29 94.09
-3 0 10 1044.8 81.49
2 0 -10 267.67 26
2 0 -10 220.08 22.1
2 0 -10 298.77 81.39
-2 0 10 245.98 24.2
-2 0 10 344.47 83.19
-2 0 10 265.47 35
-2 0 10 239.78 21.2
1 0 -10 316.77 29.8
1 0 -10 376.86 34
-1 0 10 454.55 121.19
-1 0 10 353.36 29.1
-1 0 10 338.07 32
0 0 -10 925.21 76.89
0 0 10 966.4 75.89
0 0 10 984 79.19
-1 0 -10 66.29 22.1
-1 0 -10 32.5 9.2
1 0 10 37.5 6.8
1 0 10 48.6 11.4
1 0 10 47.6 7.8
-2 0 -10 823.62 65.89
2 0 10 769.62 66.29
2 0 10 812.42 62.49
2 0 10 715.13 62.49
3 0 10 823.32 74.49
3 0 10 951.7 78.09
3 0 10 987.6 73.99
-4 0 -10 -14.5 15
-4 0 -10 -4.9 21.1
4 0 10 3.5 4.7
4 0 10 5.2 5
4 0 10 -3.3 8.1
5 0 10 908.91 69.19
5 0 10 818.42 67.79
5 0 10 739.63 72.59
9 -1 -10 1218.88 98.99
9 -1 -10 1223.68 97.99
9 -1 -10 1238.18 95.49
-9 1 10 1151.68 110.59
-9 1 10 1102.29 99.79
8 -1 -10 483.45 44.8
8 -1 -10 517.85 46.9
8 -1 -10 537.25 43.6
-8 1 10 509.85 44.3
-8 1 10 483.25 57.79
7 -1 -10 122.09 18.9
7 -1 -10 118.69 16
7 -1 -10 119.19 14.6
-7 1 10 127.79 15.7
-7 1 10 121.79 27.7
6 -1 -10 1183.68 94.99
6 -1 -10 1050.39 99.99
6 -1 -10 1297.67 94.69
-6 1 10 1218.18 96.39
5 -1 -10 138.79 15
5 -1 -10 133.19 17.8
5 -1 -10 132.29 14.6
-5 1 10 127.29 16.3
-5 1 10 139.99 12.5
-5 1 10 135.29 27.4
4 -1 -10 557.64 47.3
4 -1 -10 556.34 49.4
4 -1 -10 571.34 46.8
-4 1 10 574.84 45.4
-4 1 10 536.05 48.9
-4 1 10 636.54 58.69
3 -1 -10 1242.98 99.19
3 -1 -10 1326.67 102.09
-3 1 10 1239.08 98.09
-3 1 10 1193.18 101.49
-3 1 10 1286.27 110.59
2 -1 -10 -0.8 5.7
2 -1 -10 2.7 4.8
-2 1 10 1.3 12.2
-2 1 10 4.8 5.3
-2 1 10 7.1 3.2
1 -1 -10 1874.01 135.89
1 -1 -10 1599.34 132.29
-1 1 10 1619.44 131.29
-1 1 10 1657.23 134.99
0 -1 -10 720.43 56.29
0 -1 -10 647.04 52.79
0 1 10 552.14 54.19
0 1 10 611.84 50.89
-1 -1 -10 470.75 38
1 1 10 383.76 38.4
1 1 10 424.16 33.9
1 1 10 366.96 34.3
2 1 10 2005 169.18
2 1 10 2426.46 168.28
2 1 10 2037.6 172.28
-3 -1 -10 244.88 32.8
3 1 10 302.97 24.8
3 1 10 245.88 30.1
3 1 10 268.67 25.5
4 1 10 450.85 40.8
4 1 10 487.45 40.5
5 1 10 1148.19 105.29
5 1 10 1191.18 100.19
5 1 10 1396.36 100.99
9 -2 -10 635.44 59.29
9 -2 -10 695.23 56.69
9 -2 -10 677.33 60.19
-9 2 10 689.43 73.89
-9 2 10 704.23 58.29
8 -2 -10 130.49 20.9
8 -2 -10 150.98 17.5
8 -2 -10 124.69 18.7
-8 2 10 128.39 31.7
-8 2 10 147.19 18.2
7 -2 -10 322.27 30.8
7 -2 -10 325.47 32.6
7 -2 -10 345.37 30
-7 2 10 315.37 44.3
6 -2 -10 603.04 49
6 -2 -10 537.45 52.79
-6 2 10 574.14 50.59
-6 2 10 605.14 61.59
5 -2 -10 1.9 7
5 -2 -10 7.1 5.2
5 -2 -10 4.8 5.1
-5 2 10 5.8 2.8
-5 2 10 4.4 6.1
-5 2 10 -0.5 14.3
4 -2 -10 1433.76 112.99
4 -2 -10 1393.96 110.59
-4 2 10 1385.06 113.49
-4 2 10 1365.16 109.09
-4 2 10 1437.26 120.99
3 -2 -10 568.24 48.2
3 -2 -10 584.14 50.49
-3 2 10 638.84 59.59
-3 2 10 576.74 46.7
-3 2 10 556.64 50.89
2 -2 -10 590.64 51.59
2 -2 -10 634.74 54.09
-2 2 10 692.63 63.09
-2 2 10 600.94 50.19
-2 2 10 628.44 54.89
1 -2 -10 2140.89 159.58
1 -2 -10 1837.82 156.78
-1 2 10 2019.7 160.38
-1 2 10 2008.2 155.78
0 -2 -10 83.79 15.8
0 -2 -10 51.99 10
0 2 10 50.79 9
-1 -2 -10 1124.99 84.39
1 2 10 914.91 85.89
1 2 10 899.41 81.39
1 2 10 1166.38 84.09
2 2 10 1518.45 108.59
2 2 10 1292.97 109.09
2 2 10 1313.37 114.19
-3 -2 -10 -15.5 12.9
-3 -2 -10 -0.2 31.9
-3 -2 -10 17.3 12.5
3 2 10 5.3 5.9
3 2 10 5 4.9
4 2 10 920.01 78.79
4 2 10 1055.49 78.39
4 2 10 895.41 84.29
8 -3 -10 27.2 9.6
8 -3 -10 27.4 10.5
8 -3 -10 26.8 10.3
-8 3 10 46.5 26.3
-8 3 10 19.3 9
7 -3 -10 729.23 62.69
7 -3 -10 765.72 63.99
7 -3 -10 752.42 61.59
-7 3 10 793.92 75.79
-7 3 10 719.33 64.39
6 -3 -10 93.89 14.8
6 -3 -10 86.59 13.5
6 -3 -10 97.19 16.2
-6 3 10 116.59 25.6
-6 3 10 92.29 16.2
5 -3 -10 468.95 42.9
-5 3 10 411.66 33.6
-5 3 10 347.67 45.7
4 -3 -10 981.9 78.69
-4 3 10 1008.4 77.09
-4 3 10 1047.2 89.19
-4 3 10 872.51 86.09
3 -3 -10 78.19 15.2
3 -3 -10 106.39 13.4
-3 3 10 90.49 16
-3 3 10 79.49 10.3
-3 3 10 112.39 23
2 -3 -10 1477.85 111.79
2 -3 -10 1345.07 112.99
-2 3 10 1362.56 115.59
-2 3 10 1309.47 109.89
-2 3 10 1542.85 120.79
1 -3 -10 671.73 55.39
1 -3 -10 621.14 52.39
-1 3 10 579.14 56.39
-1 3 10 610.34 50.49
0 -3 -10 79.39 20.8
0 -3 -10 54.89 16.2
0 -3 -10 47.2 10.5
0 3 10 25.3 12.3
-1 -3 -10 1445.46 115.59
-1 -3 -10 1421.76 117.09
2 3 10 606.14 48.7
2 3 10 525.45 54.49
-3 -3 -10 124.69 24.1
-3 -3 -10 199.28 45.5
8 -4 -10 735.53 65.49
8 -4 -10 916.21 69.59
-8 4 10 753.32 69.59
-8 4 10 799.12 79.29
7 -4 -10 360.06 34.9
7 -4 -10 342.97 34.1
7 -4 -10 368.06 32.8
-7 4 10 351.66 36.5
-7 4 10 331.27 45.8
6 -4 -10 389.46 36.6
6 -4 -10 392.66 34.6
-6 4 10 366.16 38.7
-6 4 10 384.46 47.1
5 -4 -10 1330.17 102.49
5 -4 -10 1385.76 104.19
-5 4 10 1216.88 106.79
-5 4 10 1198.18 100.19
-5 4 10 1286.97 111.59
-4 4 10 93.39 19.3
-4 4 10 85.29 10.4
3 -4 -10 622.64 66.89
-3 4 10 707.63 65.99
-3 4 10 745.73 59.29
-3 4 10 865.51 70.39
2 -4 -10 1018.6 84.39
2 -4 -10 993.6 82.69
-2 4 10 966.1 80.79
-2 4 10 945.21 87.29
-2 4 10 1182.68 90.99
1 -4 -10 48 11
1 -4 -10 58.19 11.4
-1 4 10 38.6 12.7
-1 4 10 29.6 7.2
0 -4 -10 754.32 57.09
0 -4 -10 687.83 57.59
0 4 10 582.84 61.09
0 4 10 599.14 54.19
-1 -4 -10 1514.05 110.69
1 4 10 1149.89 104.99
-2 -4 -10 54.39 24.1
-3 -4 -10 779.42 66.99
3 4 10 615.44 59.59
7 -5 -10 20.7 8
7 -5 -10 20.3 10.1
-7 5 10 2.7 20.3
-7 5 10 31 13.8
6 -5 -10 1057.09 86.09
6 -5 -10 1005.3 84.79
-6 5 10 987.5 90.69
-6 5 10 1145.59 95.29
5 -5 -10 1058.09 84.79
5 -5 -10 1140.29 86.09
-5 5 10 1019.3 82.29
-5 5 10 888.81 89.89
-5 5 10 1108.59 93.29
4 -5 -10 90.89 15.9
4 -5 -10 96.19 15.9
-4 5 10 54.49 15.5
-4 5 10 69.49 10.7
-4 5 10 75.49 18.3
3 -5 -10 1494.45 113.69
3 -5 -10 1360.16 113.89
-3 5 10 1448.26 111.59
-3 5 10 1358.26 119.39
2 -5 -10 802.42 60.09
2 -5 -10 742.23 60.19
-2 5 10 652.13 65.89
-2 5 10 598.74 59.69
1 -5 -10 259.07 26.2
1 -5 -10 222.48 25.1
-1 5 10 199.48 22.1
-1 5 10 168.48 31.7
0 -5 -10 1681.13 123.99
0 -5 -10 1620.34 122.99
0 5 10 1508.85 121.69
0 5 10 1279.67 128.19
-1 -5 -10 379.36 42.8
-1 -5 -10 314.77 36.9
-1 -5 -10 285.27 34.6
6 -6 -10 1124.39 93.39
6 -6 -10 1168.08 94.29
-6 6 10 1285.77 103.79
-6 6 10 1037.1 100.19
5 -6 -10 403.06 38.4
5 -6 -10 428.86 38.2
-5 6 10 357.66 45
-5 6 10 433.56 46.6
4 -6 -10 535.15 44.2
4 -6 -10 527.25 45.4
-4 6 10 445.46 43
-4 6 10 458.35 50.39
-4 6 10 453.05 53.19
3 -6 -10 1128.89 91.49
3 -6 -10 1025.8 90.89
-3 6 10 1225.38 97.09
-3 6 10 1150.88 89.59
-3 6 10 1053.09 99.89
2 -6 -10 74.69 16.5
2 -6 -10 61.79 13.1
-2 6 10 49.1 21
-2 6 10 66.09 11
1 -6 -10 741.93 62.99
1 -6 -10 759.82 63.39
-1 6 10 684.83 61.79
0 10 -11 199.88 28.5
0 10 -11 248.38 28
0 10 -11 255.67 22.1
0 -10 11 157.88 33.6
3 9 -11 44.3 14.6
3 9 -11 70.69 11.3
3 9 -11 49.3 10.8
3 9 -11 67.39 12.5
2 9 -11 389.26 30.8
2 9 -11 310.77 34.9
2 9 -11 355.76 34
-2 -9 11 331.47 43.8
1 9 -11 515.15 40.4
1 9 -11 492.95 43.6
-1 -9 11 406.36 48.3
0 9 -11 22.9 12.3
0 9 -11 21.9 8.8
0 -9 11 9.5 10.7
0 -9 11 21.3 13.4
-1 9 -11 795.22 63.59
-1 9 -11 677.73 65.19
1 -9 11 649.14 63.99
1 -9 11 794.02 59.49
-2 9 -11 632.54 54.59
-2 9 -11 606.14 57.19
2 -9 11 623.54 49.6
2 -9 11 544.55 53.89
-3 9 -11 77.09 18.3
-3 9 -11 81.89 19.7
3 -9 11 89.49 12.3
4 8 -11 227.58 28.9
4 8 -11 221.18 25.3
4 8 -11 193.08 30.9
4 8 -11 247.78 21.4
4 8 -11 231.68 27.1
3 8 -11 251.87 28.7
3 8 -11 251.17 29.4
3 8 -11 234.58 27.7
3 8 -11 217.88 31.4
3 8 -11 285.87 22.8
3 8 -11 257.87 23.6
3 8 -11 223.18 28.2
2 8 -11 963.6 73.69
2 8 -11 830.22 74.89
2 8 -11 997.5 71.19
2 8 -11 849.61 74.79
2 8 -11 788.82 76.19
1 8 -11 145.39 26.3
1 8 -11 189.48 21.6
1 8 -11 177.08 24.6
-1 -8 11 223.38 25.7
-1 -8 11 187.88 18.1
0 8 -11 593.14 50.79
0 -8 11 566.84 47.2
-1 8 -11 839.02 65.69
-1 8 -11 741.53 68.09
1 -8 11 676.33 65.29
1 -8 11 811.12 61.79
-2 8 -11 2.6 7.4
-2 8 -11 9.7 11.9
2 -8 11 3.9 7.7
2 -8 11 3.3 4.6
-3 8 -11 580.84 49.8
-3 8 -11 493.95 54.09
3 -8 11 534.15 48.3
3 -8 11 550.14 45
-4 8 -11 412.66 40.4
-4 8 -11 401.06 50.09
4 -8 11 423.76 40.2
4 -8 11 418.46 35.4
6 7 -11 303.57 35
5 7 -11 757.22 61.29
5 7 -11 786.22 62.09
5 7 -11 753.92 59.69
5 7 -11 728.33 65.29
5 7 -11 710.33 69.49
5 7 -11 720.73 67.09
4 7 -11 6 4
4 7 -11 -0.9 8.6
4 7 -11 1.4 5.8
4 7 -11 6.5 8.6
4 7 -11 3.6 5.6
4 7 -11 4 6.2
4 7 -11 1 9.8
3 7 -11 1370.96 105.19
3 7 -11 1268.07 108.99
3 7 -11 1542.45 107.69
3 7 -11 1393.36 108.49
3 7 -11 1266.27 106.59
3 7 -11 1157.88 110.09
2 7 -11 787.22 60.69
2 7 -11 630.94 66.39
2 7 -11 762.72 63.69
2 7 -11 859.01 65.89
2 7 -11 709.63 65.39
-2 -7 11 707.93 69.19
-2 -7 11 826.52 60.79
1 7 -11 52.99 13.9
1 7 -11 58.59 13.9
-1 -7 11 55.29 13.8
-1 -7 11 78.39 13.1
0 7 -11 1319.27 122.69
0 7 -11 1715.53 121.19
0 7 -11 1414.56 123.69
0 -7 11 1578.14 117.89
0 -7 11 1480.25 122.49
-1 7 -11 387.26 34.3
-1 7 -11 296.57 35.6
1 -7 11 369.66 34.6
1 -7 11 364.66 30.4
-2 7 -11 180.08 28
-2 7 -11 166.48 20.8
2 -7 11 165.58 16.7
-3 7 -11 597.14 62.69
-3 7 -11 693.93 57.29
3 -7 11 637.64 52.89
3 -7 11 667.43 55.79
-4 7 -11 130.69 21.1
-4 7 -11 81.69 23.8
4 -7 11 123.89 15
4 -7 11 133.99 18
6 6 -11 831.22 70.99
6 6 -11 780.22 76.59
6 6 -11 1005 74.69
6 6 -11 859.81 74.49
5 6 -11 555.14 62.19
5 6 -11 634.84 58.49
5 6 -11 646.84 50.19
5 6 -11 642.14 54.89
4 6 -11 112.99 22.5
4 6 -11 156.58 14.8
4 6 -11 147.79 21.7
4 6 -11 159.48 19.5
4 6 -11 186.38 18.5
4 6 -11 137.29 16.2
3 6 -11 1605.04 117.19
3 6 -11 1489.05 114.89
3 6 -11 1235.58 119.49
3 6 -11 1423.06 119.69
3 6 -11 1430.66 116.89
-3 -6 11 1587.74 114.59
2 6 -11 288.07 36.8
2 6 -11 359.96 29.9
2 6 -11 357.26 31.9
2 6 -11 396.46 33
2 6 -11 342.77 35.8
-2 -6 11 373.36 29.7
-2 -6 11 317.87 38.8
1 6 -11 655.33 51.99
1 6 -11 581.34 51.19
1 6 -11 565.04 54.89
1 6 -11 635.44 51.49
-1 -6 11 612.14 48.7
-1 -6 11 567.24 54.69
0 6 -11 1435.56 126.79
0 6 -11 1504.85 125.59
0 -6 11 1584.74 122.89
0 -6 11 1529.85 118.39
-1 6 -11 134.19 23.1
-1 6 -11 133.59 29.5
-1 6 -11 86.29 14.6
1 -6 11 96.69 15.8
1 -6 11 89.59 15.1
-2 6 -11 513.75 54.39
-2 6 -11 567.54 48.6
2 -6 11 560.54 45.1
2 -6 11 550.74 47.5
-3 6 -11 803.92 68.29
-3 6 -11 794.32 76.59
3 -6 11 820.92 64.89
-4 6 -11 1.2 8.6
-4 6 -11 -8.1 18.6
-4 6 -11 -9.5 11.1
4 -6 11 10.3 4.6
4 -6 11 1.2 6
-5 6 -11 817.92 71.79
-5 6 -11 872.01 84.99
-5 6 -11 699.23 86.29
5 -6 11 880.31 69.29
5 -6 11 837.92 66.99
7 5 -11 300.57 33.7
7 5 -11 279.07 37.5
7 5 -11 325.67 29.8
6 5 -11 1096.49 86.99
6 5 -11 1073.99 89.59
6 5 -11 934.61 91.19
-6 -5 11 1211.98 86.99
5 5 -11 66.59 11.8
5 5 -11 73.69 9.4
5 5 -11 57.19 14.1
-5 -5 11 90.09 11.8
-5 -5 11 113.59 22.6
4 5 -11 975.5 79.09
4 5 -11 957.3 80.69
4 5 -11 909.61 83.99
-4 -5 11 1081.69 80.49
-4 -5 11 1037.6 78.29
3 5 -11 1058.49 94.49
3 5 -11 1055.69 90.09
3 5 -11 1121.19 88.99
3 5 -11 1079.59 94.19
-3 -5 11 1224.78 90.79
-3 -5 11 1214.78 88.59
2 5 -11 6.8 8.8
2 5 -11 12.4 10.3
2 5 -11 0.6 4
2 5 -11 -0.1 4.7
-2 -5 11 15.9 5.8
-2 -5 11 5.9 10.5
-2 -5 11 2 3
1 5 -11 1118.89 97.19
1 5 -11 1108.69 89.49
1 5 -11 1009.1 95.69
-1 -5 11 1211.98 95.49
-1 -5 11 1218.38 92.39
-1 -5 11 1183.88 89.89
0 5 -11 487.35 47.5
0 5 -11 429.16 46.2
0 -5 11 357.36 76.79
0 -5 11 452.35 38.3
0 -5 11 507.75 42.6
0 -5 11 494.75 41.3
-1 5 -11 63.59 17.4
-1 5 -11 68.29 15.3
1 -5 11 60.99 8.8
1 -5 11 40.9 8.7
-2 5 -11 954.6 85.39
-2 5 -11 930.11 77.49
2 -5 11 968.1 76.39
2 -5 11 897.31 74.39
-3 5 -11 197.88 24.2
-3 5 -11 221.58 36.5
3 -5 11 209.78 20.4
3 -5 11 238.18 22
-4 5 -11 315.07 44
-4 5 -11 382.66 37.7
-4 5 -11 427.16 52.79
4 -5 11 407.56 35.1
4 -5 11 411.26 33.8
-5 5 -11 521.65 62.39
-5 5 -11 674.83 75.09
-5 5 -11 624.94 57.29
5 -5 11 642.44 52.19
5 -5 11 674.53 53.69
7 4 -11 1212.78 113.59
7 4 -11 1401.86 109.69
-7 -4 11 1500.95 109.39
6 4 -11 449.46 43.6
6 4 -11 428.56 46.6
6 4 -11 467.85 41.4
-6 -4 11 585.34 49.7
-6 -4 11 524.35 41.9
5 4 -11 530.95 46.5
5 4 -11 533.55 48.1
-5 -4 11 641.04 61.79
-5 -4 11 581.34 47.6
4 4 -11 1396.66 118.09
4 4 -11 1376.36 121.09
4 4 -11 1538.15 117.29
-4 -4 11 1601.74 118.79
-4 -4 11 1551.14 116.39
3 4 -11 99.99 11.3
3 4 -11 87.19 18.1
3 4 -11 88.59 11.7
3 4 -11 93.99 19.8
-3 -4 11 90.69 10.2
-3 -4 11 102.99 13
2 4 -11 614.64 58.29
2 4 -11 688.23 61.39
2 4 -11 648.44 52.69
-2 -4 11 598.04 58.49
-2 -4 11 660.03 52.39
-2 -4 11 715.73 55.19
1 4 -11 774.12 67.49
1 4 -11 693.23 60.59
1 4 -11 796.92 70.29
-1 -4 11 738.83 63.09
-1 -4 11 898.61 66.69
-1 -4 11 715.53 60.69
0 4 -11 11.8 11.6
0 4 -11 20.8 10.9
0 -4 11 10.5 3.7
0 -4 11 19 6.1
0 -4 11 -31.9 67.09
0 -4 11 12.8 6.3
-1 4 -11 624.64 61.89
-1 4 -11 580.24 58.39
1 -4 11 586.04 49.6
1 -4 11 603.54 52.59
1 -4 11 669.53 51.89
-2 4 -11 376.06 47
-2 4 -11 348.77 42.3
2 -4 11 408.66 40.1
2 -4 11 369.06 33.1
-3 4 -11 210.58 38.5
-3 4 -11 158.68 32.1
-3 4 -11 217.78 24.1
3 -4 11 204.18 20
3 -4 11 229.78 21.2
-4 4 -11 811.62 81.29
-4 4 -11 744.03 64.49
4 -4 11 713.43 60.59
-5 4 -11 30.4 11.4
-5 4 -11 1.7 19.9
-5 4 -11 11.8 32
5 -4 11 28.6 8.4
5 -4 11 25.3 7.8
8 3 -11 942.51 82.29
8 3 -11 978.9 79.69
8 3 -11 892.01 84.09
-8 -3 11 975 84.79
-8 -3 11 1108.29 90.19
7 3 -11 1339.57 114.29
7 3 -11 1405.56 112.59
7 3 -11 1312.77 116.39
-7 -3 11 1570.44 121.89
-7 -3 11 1469.75 112.59
6 3 -11 8.2 9.1
6 3 -11 18.4 7.7
6 3 -11 11.9 10
-6 -3 11 24.3 6.3
-6 -3 11 23.5 12.9
5 3 -11 1352.36 115.09
5 3 -11 1420.56 123.29
5 3 -11 1436.46 114.39
-5 -3 11 1486.85 113.09
-5 -3 11 1539.75 115.69
-5 -3 11 1485.55 136.39
4 3 -11 705.03 59.39
4 3 -11 682.73 59.59
4 3 -11 769.12 63.99
-4 -3 11 758.62 58.49
-4 -3 11 777.32 61.19
3 3 -11 101.89 18.9
3 3 -11 138.19 13.4
3 3 -11 132.59 22.4
-3 -3 11 111.89 12
-3 -3 11 128.49 14.9
2 3 -11 1271.87 100.09
2 3 -11 1056.19 89.99
2 3 -11 1138.09 95.29
-2 -3 11 1131.49 94.59
-2 -3 11 1214.88 102.19
-2 -3 11 1133.49 92.29
-2 -3 11 1105.29 89.79
1 3 -11 92.59 10.6
1 3 -11 65.49 14.1
1 3 -11 105.89 22.9
-1 -3 11 104.19 15.5
-1 -3 11 84.39 12.6
-1 -3 11 92.69 50.39
-1 -3 11 75.79 9.8
0 3 -11 604.44 53.19
0 3 -11 764.32 65.79
0 3 -11 723.93 61.09
0 -3 11 619.04 55.29
0 -3 11 629.74 52.99
-1 3 -11 1133.59 96.49
-1 3 -11 1119.99 90.59
1 -3 11 942.71 84.09
1 -3 11 1092.49 83.19
1 -3 11 915.11 81.49
-2 3 -11 10.1 28.6
2 -3 11 13.6 5.1
-3 3 -11 1205.58 102.99
3 -3 11 1011.4 86.49
3 -3 11 1091.19 90.09
3 -3 11 1087.39 87.19
-4 3 -11 536.75 59.99
-4 3 -11 607.34 67.79
-4 3 -11 474.95 46.5
4 -3 11 490.15 43.1
4 -3 11 493.05 42.6
-5 3 -11 115.99 21.1
-5 3 -11 94.59 41.4
-5 3 -11 59.89 25.4
5 -3 11 79.99 14.3
5 -3 11 117.19 15.3
8 2 -11 954.5 84.99
8 2 -11 989.5 81.19
8 2 -11 917.51 82.79
-8 -2 11 1080.19 93.69
-8 -2 11 1045.5 80.69
7 2 -11 419.16 37
7 2 -11 402.56 38.5
7 2 -11 391.16 41.3
-7 -2 11 450.55 37.2
-7 -2 11 445.66 48.5
6 2 -11 198.38 25.5
6 2 -11 186.48 21.5
-6 -2 11 270.17 33.5
-6 -2 11 214.18 21.4
5 2 -11 1173.88 92.59
5 2 -11 1087.29 92.79
-5 -2 11 1203.28 93.99
-5 -2 11 1206.08 91.19
4 2 -11 199.28 19.9
4 2 -11 238.98 25.4
4 2 -11 221.08 20.1
-4 -2 11 217.38 18.7
-4 -2 11 161.38 28.8
-4 -2 11 234.48 22
3 2 -11 644.64 58.09
3 2 -11 684.23 76.29
3 2 -11 640.74 53.79
-3 -2 11 688.23 56.09
-3 -2 11 686.63 53.19
-3 -2 11 657.03 66.39
2 2 -11 880.91 80.29
2 2 -11 978.9 105.09
2 2 -11 913.71 75.99
-2 -2 11 939.41 75.59
-2 -2 11 913.61 78.09
-2 -2 11 1053.09 80.99
-2 -2 11 1136.39 110.79
1 2 -11 21.1 14.6
1 2 -11 18.4 15.6
-1 -2 11 13.4 4.2
-1 -2 11 23.8 7.6
-1 -2 11 12.5 5.8
0 2 -11 937.71 79.09
0 2 -11 1058.19 85.59
0 -2 11 985.6 81.39
0 -2 11 994.1 78.59
1 -2 11 460.35 40.9
1 -2 11 483.25 44.2
1 -2 11 551.14 42.2
-2 2 -11 546.75 80.09
2 -2 11 426.26 39.7
2 -2 11 423.36 37.1
3 -2 11 1559.34 128.49
3 -2 11 1720.33 128.99
3 -2 11 1628.54 132.19
4 -2 11 271.67 25.1
4 -2 11 274.87 30.2
4 -2 11 248.48 24.6
-5 2 -11 669.83 56.19
5 -2 11 535.65 49.5
5 -2 11 579.14 50.29
8 1 -11 692.83 63.79
8 1 -11 720.53 59.99
-8 -1 11 740.03 74.89
7 1 -11 81.89 18.4
7 1 -11 78.59 13.4
7 1 -11 82.99 14.2
-7 -1 11 73.09 23
-7 -1 11 78.79 13
6 1 -11 421.36 41.2
6 1 -11 536.15 45.3
6 1 -11 447.66 44.7
-6 -1 11 526.35 54.59
-6 -1 11 507.15 42.3
5 1 -11 402.06 36.9
5 1 -11 467.75 37.3
-5 -1 11 420.56 35.2
-5 -1 11 443.76 57.29
-5 -1 11 454.05 38.6
4 1 -11 90.39 17.4
4 1 -11 118.69 12.8
-4 -1 11 127.79 26.8
-4 -1 11 101.39 13.9
-4 -1 11 97.69 10.7
3 1 -11 1011.9 84.69
3 1 -11 982.8 80.89
-3 -1 11 1039.4 80.09
-3 -1 11 1039.3 83.29
2 1 -11 130.99 14.5
2 1 -11 146.49 19.6
-2 -1 11 134.19 13.2
-2 -1 11 128.29 15.8
1 1 -11 469.05 40.3
1 1 -11 354.16 34.2
-1 -1 11 400.76 33.7
-1 -1 11 409.76 36.9
0 1 -11 1130.79 92.79
0 1 -11 1363.16 98.69
0 -1 11 1107.79 91.59
0 -1 11 1070.09 94.39
-1 1 -11 137.99 33.1
-1 1 -11 163.48 20.6
2 -1 11 1207.68 89.19
2 -1 11 1031.2 88.79
3 -1 11 1026 85.69
3 -1 11 948.71 81.29
3 -1 11 1076.99 81.59
-4 1 -11 49.3 24.1
-4 1 -11 20.2 31.2
4 -1 11 27.2 12.2
4 -1 11 17.6 6.3
4 -1 11 22.1 7
5 -1 11 1210.38 91.29
5 -1 11 1120.39 96.09
5 -1 11 1038.2 90.39
8 0 -11 155.58 24.3
8 0 -11 156.58 19.9
8 0 -11 141.99 23.5
-8 0 11 144.29 18.1
-8 0 11 143.19 34.4
7 0 -11 292.17 33
7 0 -11 312.27 29.2
7 0 -11 299.47 29.9
-7 0 11 334.47 32.5
-7 0 11 367.16 44.3
6 0 -11 736.83 58.09
6 0 -11 633.14 57.99
6 0 -11 722.73 61.29
-6 0 11 795.32 72.09
-6 0 11 674.73 64.19
5 0 -11 16.4 8.8
5 0 -11 18.1 5.8
-5 0 11 13.4 3.4
-5 0 11 8.7 15.6
-5 0 11 21.8 7.2
4 0 -11 834.92 78.89
4 0 -11 869.01 71.59
-4 0 11 896.31 70.29
-4 0 11 1057.89 99.89
-4 0 11 870.31 73.79
3 0 -11 374.96 33.2
3 0 -11 377.16 36.7
-3 0 11 381.66 32
-3 0 11 481.45 48.8
-3 0 11 364.46 35.1
2 0 -11 259.97 27.7
2 0 -11 258.27 23.6
-2 0 11 251.37 25.9
-2 0 11 244.98 22.1
1 0 -11 1417.76 118.59
1 0 -11 1696.23 123.19
-1 0 11 1473.15 117.69
-1 0 11 1442.66 121.19
0 0 -11 358.86 31.8
0 0 11 345.37 34.5
0 0 11 331.47 29.4
-1 0 -11 565.54 52.79
-1 0 -11 617.64 61.79
1 0 11 639.24 51.49
2 0 11 1374.66 115.49
2 0 11 1564.64 111.19
2 0 11 1280.77 110.99
3 0 11 64.19 11.4
3 0 11 69.49 10.9
3 0 11 57.59 14.2
4 0 11 452.65 46
4 0 11 474.75 39.1
4 0 11 404.46 39.1
8 -1 -11 63.49 13.8
8 -1 -11 84.79 15.2
8 -1 -11 82.19 14.3
-8 1 11 73.69 24.2
-8 1 11 86.79 15
7 -1 -11 1015.8 81.59
7 -1 -11 1026.1 84.79
7 -1 -11 959.5 82.39
-7 1 11 979.3 83.19
-7 1 11 1111.29 97.89
6 -1 -11 206.28 25.4
6 -1 -11 210.78 21.6
-6 1 11 259.97 39.2
-6 1 11 201.38 22.9
5 -1 -11 539.55 52.59
5 -1 -11 645.64 53.69
-5 1 11 528.95 55.99
-5 1 11 677.33 64.39
-5 1 11 634.04 48.3
4 -1 -11 1579.24 121.89
4 -1 -11 1453.25 125.59
-4 1 11 1572.94 150.38
-4 1 11 1582.94 120.49
3 -1 -11 4.6 5.4
-3 1 11 4.3 17.4
-3 1 11 8.2 10.5
-3 1 11 5.3 3.5
2 -1 -11 1312.57 104.69
-2 1 11 1325.97 103.49
1 -1 -11 1462.45 112.89
-1 1 11 1377.56 111.29
0 -1 -11 53.79 9.9
0 1 11 34.5 6.7
0 1 11 36.4 13.8
-1 -1 -11 1504.25 110.99
1 1 11 1241.08 107.79
1 1 11 1368.76 112.89
-2 -1 -11 793.92 71.39
2 1 11 711.73 63.59
2 1 11 638.54 57.29
3 1 11 86.79 16
3 1 11 106.79 24
-4 -1 -11 2247.18 174.58
-4 -1 -11 1652.53 162.58
8 -2 -11 353.86 32.6
8 -2 -11 341.87 42.3
8 -2 -11 345.17 35.9
-8 2 11 369.26 53.89
-8 2 11 347.27 34.8
7 -2 -11 917.31 76.79
7 -2 -11 960.9 79.99
-7 2 11 942.41 79.19
-7 2 11 968.8 92.79
6 -2 -11 11.3 9.1
6 -2 -11 13.4 7.1
-6 2 11 2.6 17.9
-6 2 11 12.7 8.3
5 -2 -11 1409.36 107.49
5 -2 -11 1333.27 104.59
-5 2 11 1153.88 106.79
-5 2 11 1298.17 102.59
-5 2 11 1394.46 117.09
4 -2 -11 900.41 71.19
4 -2 -11 791.92 69.49
-4 2 11 833.42 66.39
-4 2 11 826.52 71.49
3 -2 -11 253.17 28.3
3 -2 -11 289.77 26.2
-3 2 11 242.48 51.29
-3 2 11 289.27 29.8
-3 2 11 271.77 23.7
2 -2 -11 1740.73 137.19
2 -2 -11 1851.81 139.79
-2 2 11 1685.53 140.59
-2 2 11 1672.53 135.49
1 -2 -11 516.15 48.2
1 -2 -11 632.84 51.69
-1 2 11 527.25 46.3
-1 2 11 585.64 52.29
0 -2 -11 422.06 37.2
0 -2 -11 384.86 34.1
0 2 11 319.47 30.6
0 2 11 298.87 36.3
-1 -2 -11 1907.31 135.09
-1 -2 -11 1831.62 132.29
1 2 11 1476.25 134.69
1 2 11 1378.46 128.99
-2 -2 -11 191.48 26.8
2 2 11 141.19 18
2 2 11 101.19 25.1
3 2 11 435.06 39.1
3 2 11 434.36 48.1
7 -3 -11 203.68 27.1
7 -3 -11 208.78 22.8
-7 3 11 210.78 41.1
-7 3 11 196.38 26.9
6 -3 -11 543.15 47.9
6 -3 -11 587.94 50.99
-6 3 11 504.65 51.29
-6 3 11 637.74 63.39
5 -3 -11 1245.38 97.19
5 -3 -11 1324.67 99.59
-5 3 11 1302.27 109.39
-5 3 11 1092.19 95.99
-5 3 11 1101.49 100.29
4 -3 -11 79.89 14.2
4 -3 -11 63.39 12.6
-4 3 11 76.29 20.7
-4 3 11 79.69 18.6
-4 3 11 72.49 9.6
3 -3 -11 614.14 50.09
3 -3 -11 550.74 49.99
-3 3 11 529.05 45.3
-3 3 11 491.95 50.99
-3 3 11 605.04 58.79
2 -3 -11 809.32 78.69
2 -3 -11 1045.6 79.19
-2 3 11 913.71 74.79
-2 3 11 968.7 81.79
1 -3 -11 32.8 17.4
1 -3 -11 3.5 8.6
1 -3 -11 19.9 9.7
-1 3 11 5.4 10.2
0 -3 -11 836.22 65.69
0 -3 -11 799.82 63.49
0 3 11 654.43 60.59
0 3 11 683.23 67.89
-1 -3 -11 1010.9 73.29
1 3 11 757.72 76.19
1 3 11 775.22 68.89
-2 -3 -11 82.29 18.8
-2 -3 -11 100.19 26.2
6 -4 -11 1111.39 90.19
6 -4 -11 1056.69 87.89
-6 4 11 1205.28 101.69
-6 4 11 974 91.99
5 -4 -11 558.74 47.6
5 -4 -11 626.64 49.8
-5 4 11 448.06 52.79
-5 4 11 535.75 58.79
4 -4 -11 173.38 23.3
4 -4 -11 212.78 22.8
-4 4 11 209.58 34.4
-4 4 11 185.68 18.3
-4 4 11 196.08 28.4
3 -4 -11 846.62 65.09
3 -4 -11 747.13 65.59
-3 4 11 871.81 74.79
-3 4 11 732.13 63.09
-3 4 11 672.03 69.29
2 -4 -11 246.38 26.3
2 -4 -11 262.67 27.3
-2 4 11 188.68 31.6
-2 4 11 215.68 22.2
1 -4 -11 268.97 29.1
1 -4 -11 261.07 28
-1 4 11 206.68 23.6
0 -4 -11 673.13 52.09
0 -4 -11 653.33 53.89
0 4 11 486.25 58.29
0 4 11 478.55 48.7
-1 -4 -11 135.99 25
-1 -4 -11 76.79 23.9
5 -5 -11 24.8 11.1
5 -5 -11 23.4 9.5
-5 5 11 26.8 22.5
-5 5 11 10.3 14.1
4 -5 -11 803.22 63.69
4 -5 -11 736.43 64.09
-4 5 11 610.64 63.39
-4 5 11 839.92 72.39
-4 5 11 711.63 69.49
3 -5 -11 623.74 53.29
3 -5 -11 581.84 53.39
-3 5 11 649.93 61.29
-3 5 11 540.95 58.79
-3 5 11 577.94 49.5
2 -5 -11 22.2 15.6
2 -5 -11 7.1 9.8
2 -5 -11 8 10.7
-2 5 11 -11.1 6.4
-2 5 11 0.6 14.4
1 -5 -11 794.32 61.39
1 -5 -11 663.63 59.59
-1 5 11 602.44 67.19
3 8 -12 855.41 65.79
3 8 -12 731.73 64.49
3 8 -12 683.43 67.29
3 8 -12 802.22 62.09
2 8 -12 258.67 32.7
2 8 -12 275.17 29.3
2 8 -12 290.27 25.8
-2 -8 12 310.37 39.6
1 8 -12 39.8 11.7
1 8 -12 35.3 14.5
-1 -8 12 44.4 7.5
-1 -8 12 46.7 15.4
0 8 -12 787.72 76.09
0 8 -12 935.11 73.69
0 -8 12 803.32 75.09
0 -8 12 916.71 69.39
-1 8 -12 156.68 28
-1 8 -12 149.88 21.5
1 -8 12 148.59 16.4
1 -8 12 122.79 22.5
-2 8 -12 296.67 31.4
-2 8 -12 287.07 40.4
2 -8 12 259.47 30.9
2 -8 12 291.37 25.7
4 7 -12 461.55 54.49
4 7 -12 599.34 46
4 7 -12 549.74 51.09
4 7 -12 642.74 49.9
4 7 -12 516.75 52.29
3 7 -12 887.51 89.79
3 7 -12 1151.88 88.19
3 7 -12 1114.39 84.79
3 7 -12 1129.99 90.19
2 7 -12 19 13.1
2 7 -12 14.7 8.4
2 7 -12 8.5 11.8
-2 -7 12 11.2 4.5
-2 -7 12 1.5 13.4
1 7 -12 717.33 74.69
1 7 -12 982.9 72.09
1 7 -12 800.02 74.89
-1 -7 12 927.11 68.09
-1 -7 12 790.12 74.69
0 7 -12 592.74 48.4
0 7 -12 512.55 52.59
0 7 -12 461.05 52.39
0 -7 12 600.34 44.3
0 -7 12 460.35 54.19
-1 7 -12 123.29 18.8
-1 7 -12 92.69 19.4
-1 7 -12 85.29 20.2
1 -7 12 140.79 14.2
1 -7 12 123.49 18.6
-2 7 -12 611.44 53.19
-2 7 -12 524.35 59.59
2 -7 12 590.54 51.99
2 -7 12 602.54 48.7
-3 7 -12 49.4 12.1
-3 7 -12 56.89 19.6
3 -7 12 53.49 11.1
3 -7 12 37.5 7.3
5 6 -12 -8 8.9
5 6 -12 7.5 12.5
5 6 -12 8.8 8
5 6 -12 19.1 13.2
5 6 -12 13.8 7.3
4 6 -12 1318.67 115.09
4 6 -12 1329.77 114.59
4 6 -12 1456.95 108.19
4 6 -12 1404.56 109.09
3 6 -12 449.26 37.7
3 6 -12 385.66 44.1
3 6 -12 510.05 41.3
-3 -6 12 432.06 37.8
2 6 -12 104.69 22.2
2 6 -12 71.89 17.8
2 6 -12 120.89 17.1
-2 -6 12 115.89 15.8
-2 -6 12 74.99 17.9
1 6 -12 786.22 80.39
1 6 -12 1045.6 77.59
1 6 -12 870.41 81.39
-1 -6 12 979.9 73.59
-1 -6 12 920.51 79.79
0 6 -12 24.2 9.6
0 6 -12 44.6 16.5
0 -6 12 44.7 10.6
0 -6 12 34.3 6.2
-1 6 -12 272.47 39.6
-1 6 -12 359.66 34.2
-1 6 -12 385.66 43.1
1 -6 12 355.36 30.4
1 -6 12 373.66 34.2
-2 6 -12 617.14 66.99
-2 6 -12 701.03 59.79
2 -6 12 692.23 61.49
2 -6 12 711.03 55.89
-3 6 -12 7.8 9.8
-3 6 -12 8.3 25.1
-3 6 -12 7.4 20.6
3 -6 12 7 5
3 -6 12 3.7 6.7
6 5 -12 141.89 24.6
6 5 -12 141.59 18.4
-6 -5 12 196.98 28.9
-6 -5 12 152.78 17.6
5 5 -12 493.55 49.99
5 5 -12 505.95 43.6
5 5 -12 486.05 50.19
5 5 -12 521.65 49.1
-5 -5 12 560.74 44.7
4 5 -12 655.93 64.19
4 5 -12 719.53 57.49
4 5 -12 631.04 63.19
-4 -5 12 733.03 56.39
-4 -5 12 761.72 59.09
3 5 -12 10.7 5.5
3 5 -12 1 11.4
-3 -5 12 14.8 4
-3 -5 12 16.7 6.6
2 5 -12 284.37 26
2 5 -12 287.97 35.1
2 5 -12 307.77 35.4
-2 -5 12 266.07 34.3
-2 -5 12 319.27 28.8
-2 -5 12 303.97 25.7
1 5 -12 474.25 50.59
1 5 -12 475.65 50.09
-1 -5 12 529.05 44.7
-1 -5 12 541.85 48.1
0 5 -12 22.7 14.1
0 5 -12 17 13.9
0 -5 12 19.6 8.7
0 -5 12 12.3 4.4
0 -5 12 23 8.3
-1 5 -12 632.74 57.19
-1 5 -12 554.14 62.69
-1 5 -12 705.73 67.39
1 -5 12 722.93 57.19
1 -5 12 646.84 53.79
1 -5 12 710.43 57.49
-2 5 -12 295.17 31.1
-2 5 -12 313.27 44
2 -5 12 292.67 26.5
2 -5 12 302.37 28.9
-3 5 -12 436.46 43.5
-3 5 -12 458.65 60.19
3 -5 12 447.16 38.8
3 -5 12 467.85 40.2
-4 5 -12 1098.09 93.69
-4 5 -12 1162.38 109.99
4 -5 12 1155.78 91.39
4 -5 12 1092.29 89.79
6 4 -12 152.98 18.9
6 4 -12 131.39 21.2
6 4 -12 185.78 27.3
-6 -4 12 178.98 18.5
5 4 -12 522.85 49.9
-5 -4 12 535.55 45.2
-5 -4 12 502.65 42.2
4 4 -12 55.69 16.4
4 4 -12 57.59 10.3
4 4 -12 37.3 12
-4 -4 12 49 9.5
-4 -4 12 43.5 7.7
3 4 -12 171.58 18.1
3 4 -12 160.88 27.9
-3 -4 12 175.88 17
-3 -4 12 219.28 20.7
2 4 -12 681.23 56.09
2 4 -12 724.53 63.79
2 4 -12 678.23 65.59
-2 -4 12 614.84 62.49
-2 -4 12 726.83 55.89
-2 -4 12 737.63 58.89
1 4 -12 7 13.8
1 4 -12 13.8 11.8
-1 -4 12 4 9.2
-1 -4 12 8.7 6.4
-1 -4 12 7.4 4.1
0 4 -12 611.04 60.19
0 4 -12 641.54 64.49
0 -4 12 520.35 50.89
0 -4 12 621.44 53.89
0 -4 12 735.63 54.89
-1 4 -12 703.03 68.59
-1 4 -12 669.43 73.29
1 -4 12 592.24 52.59
1 -4 12 693.73 55.29
1 -4 12 615.74 55.79
-2 4 -12 137.59 34
-2 4 -12 142.19 27.1
2 -4 12 190.88 21.7
2 -4 12 135.99 16.4
2 -4 12 150.38 18
-3 4 -12 870.31 90.79
-3 4 -12 1133.69 103.19
-3 4 -12 953.5 81.99
3 -4 12 940.31 78.09
3 -4 12 1009.1 84.99
-4 4 -12 179.68 25.9
-4 4 -12 232.58 45.8
-4 4 -12 145.09 33.7
4 -4 12 208.08 20.8
4 -4 12 217.28 22.1
7 3 -12 11.6 11.6
7 3 -12 25.9 10.1
7 3 -12 25.4 17.7
-7 -3 12 19.6 7.4
6 3 -12 527.45 50.29
6 3 -12 646.04 56.39
-6 -3 12 581.44 51.19
-6 -3 12 700.93 62.79
5 3 -12 441.06 44.1
-5 -3 12 474.85 39.8
-5 -3 12 430.66 36.6
4 3 -12 68.99 14.9
4 3 -12 66.29 10.9
4 3 -12 61.29 16.8
-4 -3 12 53.79 11.9
-4 -3 12 85.19 20.3
-4 -3 12 67.39 8.9
3 3 -12 843.02 81.49
3 3 -12 875.41 71.89
3 3 -12 956 82.89
-3 -3 12 913.91 74.49
-3 -3 12 910.51 71.19
2 3 -12 363.06 42.1
2 3 -12 339.97 29.7
-2 -3 12 339.07 32.1
-2 -3 12 342.97 28.9
-2 -3 12 320.77 56.19
1 3 -12 659.43 63.19
1 3 -12 710.83 66.29
1 3 -12 575.94 52.29
-1 -3 12 640.54 54.99
-1 -3 12 654.23 51.99
0 3 -12 1323.87 108.29
0 -3 12 1083.69 94.69
0 -3 12 1123.99 95.19
-1 3 -12 104.09 28.1
1 -3 12 74.39 15.8
1 -3 12 103.49 13.6
1 -3 12 76.59 11.5
-2 3 -12 1306.07 100.59
2 -3 12 1016.5 90.49
2 -3 12 1137.19 88.09
2 -3 12 966 86.79
-3 3 -12 993.5 84.79
3 -3 12 835.32 68.09
3 -3 12 772.72 67.49
3 -3 12 782.02 71.69
-4 3 -12 4.7 11.8
-4 3 -12 14.9 26.5
-4 3 -12 -26.7 28.8
4 -3 12 6.5 6.7
4 -3 12 -1.2 5.5
7 2 -12 119.39 22.8
7 2 -12 103.69 17.1
-7 -2 12 106.59 25
-7 -2 12 98.19 15.5
6 2 -12 663.03 57.09
6 2 -12 677.13 61.59
-6 -2 12 797.32 71.49
-6 -2 12 657.53 58.09
5 2 -12 223.38 26.1
-5 -2 12 175.28 20.6
-5 -2 12 169.78 18.1
-5 -2 12 226.58 35.7
4 2 -12 487.35 48.1
4 2 -12 541.85 43.6
-4 -2 12 523.35 45.4
-4 -2 12 521.85 42.1
3 2 -12 1210.78 100.09
3 2 -12 1158.18 95.19
-3 -2 12 1191.08 94.39
-3 -2 12 1255.57 97.89
2 2 -12 12.5 5.5
2 2 -12 13 15.6
2 2 -12 12.3 10.5
-2 -2 12 5.5 3.8
-2 -2 12 11.2 6.4
1 2 -12 1180.58 98.29
1 2 -12 1237.28 107.59
-1 -2 12 1257.27 97.79
-1 -2 12 1289.77 101.29
0 -2 12 1263.97 100.39
0 -2 12 1185.48 97.79
-1 2 -12 88.19 28.9
1 -2 12 77.19 16.3
1 -2 12 65.29 10.9
1 -2 12 76.49 14.9
2 -2 12 1684.73 120.49
2 -2 12 1378.96 119.29
2 -2 12 1486.55 123.39
3 -2 12 460.55 47.6
3 -2 12 461.95 42.8
3 -2 12 566.94 43.1
7 1 -12 458.35 42.3
7 1 -12 481.65 46.3
-7 -1 12 466.35 42.8
-7 -1 12 539.65 58.79
6 1 -12 507.45 47.9
6 1 -12 482.35 43
-6 -1 12 467.95 44.2
-6 -1 12 599.74 61.29
5 1 -12 21.2 7.2
5 1 -12 14 10.2
-5 -1 12 20.5 7.7
-5 -1 12 26.9 19.9
4 1 -12 995.6 85.99
4 1 -12 1018.4 82.09
-4 -1 12 1023.3 84.39
-4 -1 12 1059.49 80.69
3 1 -12 489.25 40.8
3 1 -12 457.55 45
-3 -1 12 480.55 39.4
-3 -1 12 491.75 43.3
2 1 -12 496.65 43.7
2 1 -12 433.46 38.1
-2 -1 12 408.36 36.7
-2 -1 12 455.05 41
1 1 -12 1923.11 141.39
1 1 -12 1594.44 135.59
-1 -1 12 1653.43 134.79
-1 -1 12 1749.32 138.79
0 1 -12 445.06 36.8
0 -1 12 366.86 36.5
0 -1 12 354.06 32.6
1 -1 12 673.33 55.59
1 -1 12 684.13 59.99
2 -1 12 979.9 81.39
2 -1 12 911.71 76.09
-3 1 -12 119.69 45.5
-3 1 -12 101.69 28.9
3 -1 12 39.3 8.9
3 -1 12 65.99 16.6
7 0 -12 811.12 67.19
7 0 -12 794.12 70.19
-7 0 12 763.62 67.99
-7 0 12 901.81 83.79
6 0 -12 23.4 7.9
6 0 -12 19.3 11.5
-6 0 12 37.6 27.5
-6 0 12 31.8 9.4
5 0 -12 980.5 81.39
5 0 -12 961.9 77.89
-5 0 12 945.81 79.89
4 0 -12 873.41 78.29
4 0 -12 965.5 80.79
-4 0 12 989.4 80.09
-4 0 12 999.6 75.79
3 0 -12 29.8 7.7
3 0 -12 29.5 11.7
-3 0 12 50.69 24.8
-3 0 12 30.2 5.5
-3 0 12 37.3 9.5
2 0 -12 1188.18 96.69
2 0 -12 1293.37 100.99
-2 0 12 1194.08 99.79
-2 0 12 1180.78 95.49
1 0 -12 555.54 46.2
-1 0 12 519.15 48.7
0 0 -12 191.58 21.2
0 0 12 141.39 21.6
0 0 12 130.19 15.7
1 0 12 954.4 76.79
1 0 12 810.62 70.79
2 0 12 214.58 28.8
2 0 12 175.78 21.4
7 -1 -12 356.66 32.8
7 -1 -12 355.66 37.8
-7 1 12 370.96 54.69
-7 1 12 331.87 35.6
6 -1 -12 456.25 41.1
6 -1 -12 475.15 45.7
-6 1 12 433.36 43.2
-6 1 12 527.05 60.69
5 -1 -12 1787.72 135.19
5 -1 -12 1674.83 137.89
-5 1 12 1663.93 137.49
4 -1 -12 176.58 23.9
4 -1 -12 205.68 20.5
-4 1 12 228.08 39.4
-4 1 12 153.18 17
-4 1 12 199.38 23.4
3 -1 -12 502.55 45.8
3 -1 -12 559.94 48.7
-3 1 12 543.35 48.8
-3 1 12 497.65 42.8
2 -1 -12 1158.08 86.09
2 -1 -12 956.5 81.59
-2 1 12 919.51 80.39
-2 1 12 1020 85.59
-1 1 12 35.9 6.7
-1 1 12 58.19 13.6
0 -1 -12 677.73 56.89
0 -1 -12 762.82 60.99
0 1 12 624.94 59.49
0 1 12 565.04 53.29
1 1 12 462.15 47
1 1 12 463.05 40.1
-2 -1 -12 33 31.8
-2 -1 -12 16.5 15.4
2 1 12 15.2 6.6
2 1 12 20.2 16.7
6 -2 -12 800.42 67.79
6 -2 -12 890.21 70.79
-6 2 12 747.03 70.39
-6 2 12 824.32 81.39
5 -2 -12 954 80.89
5 -2 -12 983.4 77.99
-5 2 12 918.91 81.59
4 -2 -12 21.8 9
4 -2 -12 14.5 9.8
-4 2 12 15.6 4.7
-4 2 12 8.1 20.6
-4 2 12 16.9 9.9
3 -2 -12 888.81 73.69
3 -2 -12 994.2 76.99
-3 2 12 786.42 71.19
-3 2 12 1039.1 89.39
-3 2 12 827.02 77.49
2 -2 -12 840.92 72.89
2 -2 -12 826.72 71.09
-2 2 12 821.22 67.69
-2 2 12 890.81 74.89
1 -2 -12 101.69 23
1 -2 -12 138.59 30.9
0 -2 -12 1085.39 82.89
0 -2 -12 1006.5 79.89
0 2 12 867.91 83.79
0 2 12 838.72 76.09
1 2 12 116.69 17.4
1 2 12 137.09 25.1
5 -3 -12 465.65 44.1
5 -3 -12 452.35 42.7
-5 3 12 538.35 56.39
-5 3 12 439.06 45.7
4 -3 -12 179.58 21.3
4 -3 -12 157.78 22.7
-4 3 12 171.88 35
-4 3 12 124.89 15.5
-4 3 12 131.09 24.4
3 -3 -12 902.91 72.09
3 -3 -12 895.61 74.39
-3 3 12 848.82 76.99
-3 3 12 808.02 68.99
2 -3 -12 137.29 23
2 -3 -12 106.09 20.6
-2 3 12 120.99 15.4
1 -3 -12 477.65 43.5
1 -3 -12 465.75 42.3
-1 3 12 403.06 47
-1 3 12 412.96 38.3
3 6 -13 74.89 14.4
3 6 -13 73.79 20.2
3 6 -13 66.89 19.2
-3 -6 13 81.89 11.4
2 6 -13 892.11 68.59
2 6 -13 705.83 72.69
2 6 -13 754.12 73.19
-2 -6 13 780.82 63.29
1 6 -13 183.28 33.7
1 6 -13 165.78 24.5
-1 -6 13 179.68 27
-1 -6 13 160.48 17.5
0 6 -13 461.05 53.19
0 6 -13 409.76 50.89
0 6 -13 469.65 43
0 -6 13 449.66 44.6
0 -6 13 450.15 38.4
-1 6 -13 645.44 66.79
-1 6 -13 642.14 58.09
-1 6 -13 594.84 65.99
1 -6 13 699.93 58.09
1 -6 13 682.03 53.89
4 5 -13 5.3 13.4
4 5 -13 7.6 17
-4 -5 13 21.2 8.5
-4 -5 13 16.2 5.4
3 5 -13 367.06 44
3 5 -13 396.76 45.8
-3 -5 13 391.46 33.4
-3 -5 13 419.36 37.4
2 5 -13 659.23 65.69
2 5 -13 695.33 68.19
-2 -5 13 695.13 56.79
-2 -5 13 754.72 60.59
1 5 -13 18 16.7
-1 -5 13 26.1 10
-1 -5 13 14.4 5.5
0 5 -13 699.03 72.49
0 5 -13 766.82 77.49
0 -5 13 717.23 64.49
0 -5 13 895.51 69.59
0 -5 13 719.93 61.09
-1 5 -13 497.05 58.19
-1 5 -13 518.65 48
-1 5 -13 523.95 60.59
1 -5 13 559.94 48
1 -5 13 543.85 47.6
1 -5 13 507.85 44.4
5 4 -13 93.89 19.3
5 4 -13 97.69 21.7
5 4 -13 109.79 15.9
4 4 -13 156.28 33.9
4 4 -13 150.78 27.8
-4 -4 13 157.68 20
-4 -4 13 148.29 15.4
3 4 -13 652.63 53.39
3 4 -13 644.14 65.09
3 4 -13 610.44 60.59
-3 -4 13 711.63 56.39
-3 -4 13 610.94 53.59
2 4 -13 51.79 15.3
2 4 -13 89.99 24.4
-2 -4 13 57.49 10.2
-2 -4 13 74.49 15.4
1 4 -13 762.02 69.89
1 4 -13 743.23 74.69
-1 -4 13 756.72 63.59
-1 -4 13 708.73 59.69
0 4 -13 963.1 81.89
0 4 -13 883.41 88.59
0 -4 13 861.81 74.19
0 -4 13 809.72 69.89
-1 4 -13 63.19 21.6
-1 4 -13 25.8 24.4
1 -4 13 50.99 11.6
1 -4 13 36.3 8.4
-2 4 -13 825.82 80.89
-2 4 -13 819.52 88.59
2 -4 13 843.62 69.99
2 -4 13 762.12 68.29
2 -4 13 708.73 63.49
5 3 -13 2.2 7.1
5 3 -13 15.4 12.8
-5 -3 13 8.3 7.8
-5 -3 13 9.4 18.1
4 3 -13 925.51 84.09
4 3 -13 1081.19 92.29
-4 -3 13 917.31 76.59
-4 -3 13 982 80.39
3 3 -13 841.32 76.49
3 3 -13 726.33 67.69
3 3 -13 731.33 61.49
-3 -3 13 738.33 63.99
2 3 -13 270.87 42.4
2 3 -13 251.77 32.9
-2 -3 13 236.28 26
-2 -3 13 223.78 21.7
1 3 -13 1604.74 127.79
1 3 -13 1672.63 135.89
-1 -3 13 1496.05 122.79
-1 -3 13 1342.07 118.89
0 3 -13 414.26 54.09
0 -3 13 306.87 28.9
0 -3 13 316.87 34.1
-1 3 -13 550.54 64.69
-1 3 -13 592.54 57.69
1 -3 13 424.86 41.1
1 -3 13 451.45 45.2
-2 3 -13 1093.19 103.29
2 -3 13 882.51 76.99
2 -3 13 803.72 72.19
5 2 -13 283.57 36
5 2 -13 314.27 30.1
-5 -2 13 351.46 32.5
4 2 -13 1712.73 141.29
4 2 -13 1774.92 145.69
-4 -2 13 1878.21 143.29
-4 -2 13 1784.42 139.19
3 2 -13 185.08 19.5
3 2 -13 163.48 27
3 2 -13 252.47 40.4
-3 -2 13 200.78 22.9
-3 -2 13 137.29 18.1
2 2 -13 992.8 88.39
2 2 -13 1183.18 94.99
-2 -2 13 1106.49 87.59
-2 -2 13 1158.28 91.89
1 2 -13 1276.37 95.69
-1 -2 13 1038.7 90.49
-1 -2 13 985.2 86.29
0 2 -13 -6.3 13
0 2 -13 37.6 30.7
0 -2 13 3.4 10.5
0 -2 13 0.9 4.8
1 -2 13 817.92 68.79
1 -2 13 878.21 73.59
5 1 -13 1192.18 101.19
5 1 -13 1218.88 97.29
-5 -1 13 1227.18 99.89
4 1 -13 822.02 72.09
4 1 -13 833.62 66.99
-4 -1 13 778.12 64.89
-4 -1 13 831.52 69.89
3 1 -13 87.29 15.4
3 1 -13 71.09 16.3
-3 -1 13 84.49 18.1
2 1 -13 816.22 73.29
2 1 -13 1043.1 79.99
-2 -1 13 870.31 71.99
-2 -1 13 898.41 76.89
-1 -1 13 295.37 26.9
-1 -1 13 304.07 33.4
0 -1 13 64.19 14.4
0 -1 13 64.69 12
1 -1 13 652.83 56.19
1 -1 13 710.33 61.89
5 0 -13 1031.2 89.89
5 0 -13 1082.19 86.39
-5 0 13 1076.69 88.79
4 0 -13 20.5 11.3
4 0 -13 14 8.9
-4 0 13 1 22.1
-4 0 13 9.8 4.7
-4 0 13 5.9 10.1
3 0 -13 323.27 32.2
3 0 -13 360.36 37.9
-3 0 13 363.36 36.8
-3 0 13 329.77 29.9
2 0 -13 353.66 35
-2 0 13 360.66 38.2
-2 0 13 380.36 31.9
1 0 -13 31.9 13.6
1 0 -13 37.3 13.9
1 0 -13 41.6 29.7
0 0 -13 508.05 47.4
0 0 13 388.86 38.4
0 0 13 442.76 44.3
4 -1 -13 117.89 19.7
4 -1 -13 123.89 24.1
-4 1 13 201.58 39.3
-4 1 13 133.39 22
3 -1 -13 650.93 55.39
3 -1 -13 627.04 57.99
-3 1 13 623.14 52.49
-3 1 13 680.03 59.29
2 -1 -13 138.69 21.4
2 -1 -13 175.18 24.6
-2 1 13 132.19 16.3
-2 1 13 132.09 23.9
1 -1 -13 265.47 33.7
1 -1 -13 283.57 30.2
-1 1 13 227.68 24.9
-1 1 13 257.27 33.2
