#------------------------------------------------------------------------------
#$Date: 2019-11-26 00:15:43 +0200 (Tue, 26 Nov 2019) $
#$Revision: 242137 $
#$URL: file:///home/coder/svn-repositories/cod/cif/4/51/71/4517128.cif $
#------------------------------------------------------------------------------
#
# This file is available in the Crystallography Open Database (COD),
# http://www.crystallography.net/
#
# All data on this site have been placed in the public domain by the
# contributors.
#
data_4517128
loop_
_publ_author_name
'Xia, Honglei'
'Zhang, Wenquan'
'Jin, Yunhe'
'Song, Siwei'
'Wang, Kangcai'
'Zhang, Qinghua'
_publ_section_title
;
 Synthesis of Thermally Stable and Insensitive Energetic Materials by
 Incorporating the Tetrazole Functionality into Fused Ring
 3,6-Dinitropyrazolo-[4,3-c]Pyrazole Framework.
;
_journal_name_full               'ACS applied materials &amp; interfaces'
_journal_paper_doi               10.1021/acsami.9b17384
_journal_year                    2019
_chemical_formula_moiety         'C6 N14 O4, H10 N4'
_chemical_formula_sum            'C6 H10 N18 O4'
_chemical_formula_weight         398.32
_space_group_crystal_system      monoclinic
_space_group_IT_number           14
_space_group_name_Hall           '-P 2ybc'
_space_group_name_H-M_alt        'P 1 21/c 1'
_atom_sites_solution_hydrogens   difmap
_atom_sites_solution_primary     dual
_audit_creation_date             2019-09-04
_audit_creation_method
;
Olex2 1.3-alpha
(compiled 2019.08.16 svn.r3652 for OlexSys, GUI svn.r5895)
;
_cell_angle_alpha                90
_cell_angle_beta                 100.827(2)
_cell_angle_gamma                90
_cell_formula_units_Z            2
_cell_length_a                   9.1689(4)
_cell_length_b                   5.5698(2)
_cell_length_c                   14.9671(7)
_cell_measurement_reflns_used    2256
_cell_measurement_temperature    173.0
_cell_measurement_theta_max      26.845
_cell_measurement_theta_min      2.261
_cell_volume                     750.75(6)
_computing_cell_refinement       'SAINT V8.38A (?, 2016)'
_computing_data_reduction        'SAINT V8.38A (?, 2016)'
_computing_molecular_graphics    'Olex2 1.3-alpha (Dolomanov et al., 2009)'
_computing_publication_material  'Olex2 1.3-alpha (Dolomanov et al., 2009)'
_computing_structure_refinement  'ShelXL 2018/3 (Sheldrick, 2015)'
_computing_structure_solution    'ShelXT 2018/3 (Sheldrick, 2015)'
_diffrn_ambient_temperature      173.0
_diffrn_measured_fraction_theta_full 0.998
_diffrn_measured_fraction_theta_max 0.998
_diffrn_measurement_device_type  'Bruker APEX-II CCD'
_diffrn_measurement_method       '\f and \w scans'
_diffrn_radiation_type           MoK\a
_diffrn_radiation_wavelength     0.71073
_diffrn_reflns_av_R_equivalents  0.0657
_diffrn_reflns_av_unetI/netI     0.0523
_diffrn_reflns_Laue_measured_fraction_full 0.998
_diffrn_reflns_Laue_measured_fraction_max 0.998
_diffrn_reflns_limit_h_max       11
_diffrn_reflns_limit_h_min       -11
_diffrn_reflns_limit_k_max       6
_diffrn_reflns_limit_k_min       -7
_diffrn_reflns_limit_l_max       19
_diffrn_reflns_limit_l_min       -19
_diffrn_reflns_number            8798
_diffrn_reflns_point_group_measured_fraction_full 0.998
_diffrn_reflns_point_group_measured_fraction_max 0.998
_diffrn_reflns_theta_full        25.242
_diffrn_reflns_theta_max         27.497
_diffrn_reflns_theta_min         2.771
_diffrn_standards_number         0
_exptl_absorpt_coefficient_mu    0.149
_exptl_absorpt_correction_T_max  0.7456
_exptl_absorpt_correction_T_min  0.6886
_exptl_absorpt_correction_type   multi-scan
_exptl_absorpt_process_details
'SADABS-2016/2 (Bruker,2016/2) was used for absorption correction. wR2(int) was 0.1121 before and 0.0640 after correction. The Ratio of minimum to maximum transmission is 0.9236. The \l/2 correction factor is Not present.'
_exptl_crystal_colour            yellow
_exptl_crystal_colour_primary    yellow
_exptl_crystal_density_diffrn    1.762
_exptl_crystal_description       block
_exptl_crystal_F_000             408
_exptl_crystal_size_max          0.20
_exptl_crystal_size_mid          0.20
_exptl_crystal_size_min          0.20
_refine_diff_density_max         0.258
_refine_diff_density_min         -0.290
_refine_diff_density_rms         0.063
_refine_ls_extinction_method     none
_refine_ls_goodness_of_fit_ref   0.947
_refine_ls_hydrogen_treatment    refall
_refine_ls_matrix_type           full
_refine_ls_number_parameters     147
_refine_ls_number_reflns         1711
_refine_ls_number_restraints     0
_refine_ls_restrained_S_all      0.947
_refine_ls_R_factor_all          0.0755
_refine_ls_R_factor_gt           0.0443
_refine_ls_shift/su_max          0.000
_refine_ls_shift/su_mean         0.000
_refine_ls_structure_factor_coef Fsqd
_refine_ls_weighting_details
'w=1/[\s^2^(Fo^2^)+(0.1000P)^2^] where P=(Fo^2^+2Fc^2^)/3'
_refine_ls_weighting_scheme      calc
_refine_ls_wR_factor_gt          0.1176
_refine_ls_wR_factor_ref         0.1450
_reflns_Friedel_coverage         0.000
_reflns_number_gt                1239
_reflns_number_total             1711
_reflns_threshold_expression     'I > 2\s(I)'
_iucr_refine_instructions_details
;
TITL xhl_a.res in P2(1)/c
    xhl.res
    created by SHELXL-2018/3 at 11:15:51 on 04-Sep-2019
REM Old TITL xhl in P2(1)/c
REM SHELXT solution in P2(1)/c: R1 0.145, Rweak 0.006, Alpha 0.020
REM <I/s> 0.410 for 166 systematic absences, Orientation as input
REM Formula found by SHELXT: C13 O
CELL 0.71073 9.1689 5.5698 14.9671 90 100.827 90
ZERR 2 0.0004 0.0002 0.0007 0 0.002 0
LATT 1
SYMM -X,0.5+Y,0.5-Z
SFAC C H N O
UNIT 12 20 36 8

L.S. 4 0 0
PLAN  20
SIZE 0.19 0.24 0.08
TEMP -100.15
BOND
list 4
fmap 2 53
ACTA
REM <olex2.extras>
REM <HklSrc "%.\\xhl.hkl">
REM </olex2.extras>

WGHT    0.100000
FVAR       1.01879
O1    4    0.795643    1.195554    0.250211    11.00000    0.03045    0.02826 =
         0.01594   -0.00001   -0.00377    0.00538
O2    4    0.982519    1.408042    0.317480    11.00000    0.03321    0.03637 =
         0.04084    0.02026   -0.00317   -0.01301
N2    3    0.823037    0.904664    0.391548    11.00000    0.02050    0.01971 =
         0.01685    0.00413    0.00068    0.00067
N8    3    0.462131    0.001534    0.331774    11.00000    0.02454    0.02012 =
         0.01532   -0.00097    0.00183   -0.00332
N3    3    0.856383    0.800646    0.474520    11.00000    0.01783    0.01837 =
         0.01499    0.00117   -0.00011   -0.00251
N1    3    0.898989    1.236682    0.312946    11.00000    0.01997    0.02235 =
         0.02035    0.00389    0.00320    0.00183
N7    3    0.715507    0.449202    0.427028    11.00000    0.02794    0.02059 =
         0.01902   -0.00204    0.00611   -0.00420
N4    3    0.725860    0.565629    0.570532    11.00000    0.02404    0.02591 =
         0.01921    0.00012    0.00405   -0.00682
N9    3    0.382024    0.183612    0.273490    11.00000    0.02468    0.02060 =
         0.02027   -0.00051   -0.00051    0.00023
N5    3    0.646036    0.362044    0.554559    11.00000    0.02350    0.02483 =
         0.02066    0.00199    0.00147   -0.00590
N6    3    0.638758    0.295155    0.469818    11.00000    0.02533    0.02097 =
         0.02348    0.00008    0.00411   -0.00326
C1    1    0.977983    0.910677    0.526414    11.00000    0.01631    0.01647 =
         0.01722    0.00044    0.00198   -0.00098
C2    1    0.920936    1.077591    0.390408    11.00000    0.02014    0.01732 =
         0.01458    0.00287    0.00266    0.00160
C3    1    0.766730    0.606376    0.491769    11.00000    0.01738    0.01779 =
         0.01897    0.00152    0.00272   -0.00024
H8A   2    0.402694   -0.112785    0.355686    11.00000    0.02876
H8B   2    0.518262    0.077423    0.377599    11.00000    0.02798
H9A   2    0.326688    0.260716    0.302530    11.00000    0.02886
H8C   2    0.513757   -0.095850    0.297355    11.00000    0.03313
H9B   2    0.322165    0.106906    0.230852    11.00000    0.03134
HKLF 4




REM  xhl_a.res in P2(1)/c
REM wR2 = 0.1450, GooF = S = 0.947, Restrained GooF = 0.947 for all data
REM R1 = 0.0443 for 1239 Fo > 4sig(Fo) and 0.0755 for all 1711 data
REM 147 parameters refined using 0 restraints

END  
     
WGHT      0.0462      0.2590 

REM Highest difference peak  0.258,  deepest hole -0.290,  1-sigma level  0.063
Q1    1   0.7446  0.1825  0.6157  11.00000  0.05    0.26
Q2    1   0.5366  0.2381  0.4007  11.00000  0.05    0.23
Q3    1   0.5748  0.3593  0.6225  11.00000  0.05    0.22
Q4    1   0.8044  0.1007  0.5658  11.00000  0.05    0.21
Q5    1   0.8553  0.2371  0.6182  11.00000  0.05    0.19
Q6    1   0.6329  0.2649  0.6027  11.00000  0.05    0.19
Q7    1   0.7329  0.8421  0.5978  11.00000  0.05    0.19
Q8    1   0.6051  0.4675  0.3701  11.00000  0.05    0.19
Q9    1   0.5880  0.1441  0.4480  11.00000  0.05    0.19
Q10   1   0.9249  1.1383  0.3502  11.00000  0.05    0.18
Q11   1   0.6074  0.0179  0.5176  11.00000  0.05    0.18
Q12   1   1.0680  1.6686  0.3838  11.00000  0.05    0.18
Q13   1   1.0156  0.8758  0.5642  11.00000  0.05    0.18
Q14   1   0.8220  0.4272  0.3988  11.00000  0.05    0.17
Q15   1   0.5158  0.3303  0.3456  11.00000  0.05    0.17
Q16   1   0.4974  0.3786  0.3634  11.00000  0.05    0.17
Q17   1   0.7600  0.8638  0.3413  11.00000  0.05    0.17
Q18   1   0.9017  1.5825  0.2403  11.00000  0.05    0.17
Q19   1   0.5934  0.7021  0.5809  11.00000  0.05    0.17
Q20   1   0.5003  0.2249  0.2721  11.00000  0.05    0.17

  REM The information below was added by Olex2.
  REM
  REM R1 = 0.0443 for 1239 Fo > 4sig(Fo) and 0.0755 for all 9362 data
  REM n/a parameters refined using n/a restraints
  REM Highest difference peak 0.26, deepest hole -0.29
  REM Mean Shift 0, Max Shift 0.000.

  REM +++ Tabular Listing of Refinement Information +++
  REM R1_all = 0.0755
  REM R1_gt = 0.0443
  REM wR_ref = 0.1450
  REM GOOF = 0.947
  REM Shift_max = 0.000
  REM Shift_mean = 0
  REM Reflections_all = 9362
  REM Reflections_gt = 1239
  REM Parameters = n/a
  REM Hole = -0.29
  REM Peak = 0.26
  REM Flack = n/a

  
;
_cod_data_source_file            am9b17384_si_004.cif
_cod_data_source_block           xhl
_cod_database_code               4517128
_shelx_shelxl_version_number     2018/3
_shelx_space_group_comment
;
The symmetry employed for this shelxl refinement is uniquely defined
by the following loop, which should always be used as a source of
symmetry information in preference to the above space-group names.
They are only intended as comments.
;
_shelx_estimated_absorpt_t_max   0.988
_shelx_estimated_absorpt_t_min   0.965
_olex2_refinement_description
;
;
_olex2_submission_special_instructions 'No special instructions were received'
loop_
_space_group_symop_operation_xyz
'x, y, z'
'-x, y+1/2, -z+1/2'
'-x, -y, -z'
'x, -y-1/2, z-1/2'
loop_
_atom_site_label
_atom_site_type_symbol
_atom_site_fract_x
_atom_site_fract_y
_atom_site_fract_z
_atom_site_U_iso_or_equiv
_atom_site_adp_type
_atom_site_occupancy
_atom_site_site_symmetry_order
_atom_site_calc_flag
O1 O 0.79564(16) 1.1956(3) 0.25021(9) 0.0259(4) Uani 1 1 d
O2 O 0.98252(19) 1.4080(3) 0.31748(12) 0.0381(5) Uani 1 1 d
N2 N 0.82304(19) 0.9047(3) 0.39155(11) 0.0194(4) Uani 1 1 d
N8 N 0.4621(2) 0.0015(3) 0.33177(12) 0.0202(4) Uani 1 1 d
N3 N 0.85638(18) 0.8006(3) 0.47452(10) 0.0175(4) Uani 1 1 d
N1 N 0.89899(19) 1.2367(3) 0.31295(12) 0.0210(4) Uani 1 1 d
N7 N 0.7155(2) 0.4492(3) 0.42703(11) 0.0223(4) Uani 1 1 d
N4 N 0.7259(2) 0.5656(3) 0.57053(11) 0.0231(4) Uani 1 1 d
N9 N 0.3820(2) 0.1836(3) 0.27349(13) 0.0225(4) Uani 1 1 d
N5 N 0.6460(2) 0.3620(3) 0.55456(11) 0.0233(4) Uani 1 1 d
N6 N 0.6388(2) 0.2952(3) 0.46982(11) 0.0233(4) Uani 1 1 d
C1 C 0.9780(2) 0.9107(3) 0.52641(13) 0.0168(4) Uani 1 1 d
C2 C 0.9209(2) 1.0776(3) 0.39041(13) 0.0174(4) Uani 1 1 d
C3 C 0.7667(2) 0.6064(4) 0.49177(13) 0.0181(5) Uani 1 1 d
H8A H 0.403(3) -0.113(4) 0.3557(16) 0.029(6) Uiso 1 1 d
H8B H 0.518(3) 0.077(4) 0.3776(17) 0.028(7) Uiso 1 1 d
H9A H 0.327(3) 0.261(5) 0.3025(16) 0.029(7) Uiso 1 1 d
H8C H 0.514(3) -0.096(5) 0.2974(17) 0.033(7) Uiso 1 1 d
H9B H 0.322(3) 0.107(5) 0.2309(18) 0.031(7) Uiso 1 1 d
loop_
_atom_site_aniso_label
_atom_site_aniso_U_11
_atom_site_aniso_U_22
_atom_site_aniso_U_33
_atom_site_aniso_U_23
_atom_site_aniso_U_13
_atom_site_aniso_U_12
O1 0.0305(9) 0.0283(9) 0.0159(7) 0.0000(6) -0.0038(6) 0.0054(7)
O2 0.0332(10) 0.0364(10) 0.0408(10) 0.0203(8) -0.0032(7) -0.0130(8)
N2 0.0205(9) 0.0197(9) 0.0169(9) 0.0041(7) 0.0007(7) 0.0007(7)
N8 0.0245(10) 0.0201(9) 0.0153(9) -0.0010(8) 0.0018(7) -0.0033(8)
N3 0.0178(9) 0.0184(9) 0.0150(8) 0.0012(7) -0.0001(6) -0.0025(7)
N1 0.0200(9) 0.0223(9) 0.0203(9) 0.0039(7) 0.0032(7) 0.0018(7)
N7 0.0279(10) 0.0206(9) 0.0190(9) -0.0020(7) 0.0061(7) -0.0042(8)
N4 0.0240(9) 0.0259(10) 0.0192(9) 0.0001(7) 0.0040(7) -0.0068(8)
N9 0.0247(10) 0.0206(9) 0.0203(9) -0.0005(8) -0.0005(8) 0.0002(8)
N5 0.0235(10) 0.0248(10) 0.0207(9) 0.0020(7) 0.0015(7) -0.0059(7)
N6 0.0253(10) 0.0210(9) 0.0235(9) 0.0001(7) 0.0041(7) -0.0033(8)
C1 0.0163(10) 0.0165(9) 0.0172(10) 0.0004(7) 0.0020(7) -0.0010(8)
C2 0.0201(10) 0.0173(10) 0.0146(9) 0.0029(7) 0.0027(8) 0.0016(8)
C3 0.0174(10) 0.0178(10) 0.0190(10) 0.0015(8) 0.0027(8) -0.0002(8)
loop_
_atom_type_symbol
_atom_type_description
_atom_type_scat_dispersion_real
_atom_type_scat_dispersion_imag
_atom_type_scat_source
C C 0.0033 0.0016 'International Tables Vol C Tables 4.2.6.8 and 6.1.1.4'
H H 0.0000 0.0000 'International Tables Vol C Tables 4.2.6.8 and 6.1.1.4'
N N 0.0061 0.0033 'International Tables Vol C Tables 4.2.6.8 and 6.1.1.4'
O O 0.0106 0.0060 'International Tables Vol C Tables 4.2.6.8 and 6.1.1.4'
loop_
_geom_angle_atom_site_label_1
_geom_angle_atom_site_label_2
_geom_angle_atom_site_label_3
_geom_angle
_geom_angle_site_symmetry_1
_geom_angle_site_symmetry_3
C2 N2 N3 106.72(16) . .
N2 N3 C1 110.29(15) . .
N2 N3 C3 117.22(16) . .
C1 N3 C3 132.49(16) . .
O1 N1 C2 118.20(17) . .
O2 N1 O1 125.29(18) . .
O2 N1 C2 116.44(17) . .
C3 N7 N6 102.62(16) . .
C3 N4 N5 102.82(16) . .
N6 N5 N4 109.76(16) . .
N5 N6 N7 110.06(16) . .
N3 C1 C1 106.9(2) . 3_776
N3 C1 C2 148.06(18) . 3_776
C1 C1 C2 105.0(2) 3_776 3_776
N2 C2 N1 117.80(17) . .
N2 C2 C1 111.05(17) . 3_776
C1 C2 N1 130.67(18) 3_776 .
N7 C3 N3 120.75(17) . .
N4 C3 N3 124.54(18) . .
N4 C3 N7 114.70(18) . .
loop_
_geom_bond_atom_site_label_1
_geom_bond_atom_site_label_2
_geom_bond_distance
_geom_bond_site_symmetry_2
O1 N1 1.224(2) .
O2 N1 1.218(2) .
N2 N3 1.352(2) .
N2 C2 1.319(3) .
N8 N9 1.445(3) .
N3 C1 1.377(3) .
N3 C3 1.412(3) .
N1 C2 1.443(2) .
N7 N6 1.346(2) .
N7 C3 1.325(3) .
N4 N5 1.346(2) .
N4 C3 1.322(3) .
N5 N6 1.312(2) .
C1 C1 1.378(4) 3_776
C1 C2 1.407(3) 3_776
loop_
_refln_index_h
_refln_index_k
_refln_index_l
_refln_F_squared_meas
_refln_F_squared_sigma
2 0 0 738.33 27
-2 0 0 734.53 27.3
3 0 0 625.14 28.9
-3 0 0 657.33 30
4 0 0 44 11.6
-5 0 0 294.67 23.8
-5 0 0 297.37 25.5
5 0 0 302.07 24.6
6 0 0 185.48 15.8
-6 0 0 169.18 20.8
-6 0 0 180.68 21.4
6 0 0 179.08 20.8
7 0 0 51.69 10.2
-7 0 0 40.8 12.4
8 0 0 237.28 18.7
8 0 0 233.98 40.4
-8 0 0 263.87 30.5
8 0 0 197.68 18.9
-9 0 0 26.1 12.3
9 0 0 4.2 6
10 0 0 6.5 7
-10 0 0 -2.7 8
10 0 0 0.9 7
11 0 0 350.06 25.6
11 0 0 346.57 26.1
-11 0 0 334.17 46.2
0 -1 0 0.7 1.4
0 1 0 0.2 1
1 -1 0 194.68 12.2
-1 -1 0 161.78 9.6
1 -1 0 196.58 11.3
-1 1 0 159.98 11.5
1 1 0 161.38 9.9
-1 1 0 180.38 11.1
-2 -1 0 45.5 5.9
2 -1 0 33.9 7.3
2 -1 0 36.6 6.4
-2 1 0 34.8 7.5
2 1 0 49.6 6.2
-2 1 0 44.1 7.4
3 -1 0 281.77 18
3 -1 0 271.77 20
-3 -1 0 284.27 18
3 1 0 333.07 19.5
-3 1 0 307.17 22
-3 1 0 263.37 18.1
-4 -1 0 617.54 31.8
4 -1 0 659.73 35.6
-4 1 0 613.34 34.9
-4 1 0 589.54 35.6
4 1 0 626.64 32.4
-5 -1 0 7.4 3.8
5 -1 0 6.2 5.1
-5 1 0 1.9 3.8
5 1 0 3 4.6
5 1 0 2.5 0.9
5 1 0 1.2 1.1
-5 1 0 10.1 6.1
-6 -1 0 171.48 19.7
6 -1 0 131.79 22.5
-6 1 0 162.18 22
6 1 0 160.38 8.3
6 1 0 151.48 7.5
-6 1 0 172.28 20.5
6 1 0 184.18 19.9
-7 -1 0 -5 6.7
7 -1 0 1.9 6.6
-7 1 0 14.8 9.3
7 1 0 4.3 1.9
7 1 0 0.6 1.7
7 1 0 6.6 7.5
-7 1 0 4.6 5.8
-8 -1 0 661.03 49
8 -1 0 664.03 42.3
8 1 0 657.83 19.9
8 1 0 681.83 48.8
8 1 0 702.33 21.1
-8 1 0 697.43 49.1
9 -1 0 70.49 16.6
-9 -1 0 92.79 22.3
-9 1 0 60.59 20
9 1 0 72.09 4.7
9 1 0 77.39 4.8
10 -1 0 -16.2 9.8
-10 -1 0 3.4 9.3
-10 1 0 -13.6 8
11 -1 0 25.5 14.7
11 -1 0 8.2 10.9
-11 -1 0 5.3 16.8
-11 1 0 -5.8 10.8
0 -2 0 1.2 1.9
0 2 0 4.9 2.6
-1 -2 0 40 8.7
1 -2 0 34 7.5
1 -2 0 32.7 7.3
-1 -2 0 36.7 7.1
-1 2 0 39.9 7.9
-2 -2 0 317.17 16.3
-2 -2 0 321.87 24.4
2 -2 0 349.87 21
2 -2 0 344.97 22.7
-2 -2 0 315.57 18.6
-2 2 0 306.87 20.9
2 2 0 317.97 20.1
3 -2 0 98.99 11.5
-3 -2 0 102.99 11.3
-3 -2 0 110.39 6.6
3 -2 0 105.69 13.6
-3 2 0 103.69 13.9
-3 2 0 99.79 12.6
3 2 0 93.39 11.7
4 -2 0 3696.23 109.29
-4 -2 0 3677.33 97.99
4 -2 0 3537.55 98.39
-4 2 0 3578.34 112.69
4 2 0 3726.03 102.59
-4 2 0 3840.32 106.29
5 -2 0 152.88 20.2
5 -2 0 199.18 18.8
-5 -2 0 157.28 17.3
-5 2 0 174.88 19.6
-5 2 0 194.58 23.3
5 2 0 168.78 18.8
-6 -2 0 15.2 7.7
6 2 0 -3.5 6.4
-6 2 0 13.2 9
-6 2 0 15.5 10
-7 -2 0 299.57 28.2
7 -2 0 369.26 34.6
-7 2 0 306.07 34.8
7 2 0 317.47 30.7
-7 2 0 322.27 34.3
8 -2 0 112.49 23.6
-8 -2 0 129.99 23.8
8 2 0 128.39 25.2
-8 2 0 84.09 20.8
-8 2 0 126.29 28.9
-9 -2 0 27.1 13.2
9 -2 0 31.8 16.1
-9 2 0 35.8 18
-10 -2 0 -11.5 9.1
10 -2 0 -14.9 10.4
-10 2 0 -20 12.6
11 -2 0 40.6 18.1
-11 -2 0 31.6 20.9
-11 2 0 4.9 16.6
0 -3 0 1.7 3
0 3 0 -0.6 3.2
-1 -3 0 560.84 30.2
-1 -3 0 554.74 35
1 -3 0 563.64 31.6
1 -3 0 612.94 33.7
-1 3 0 615.64 34.5
-2 -3 0 189.78 16.3
2 -3 0 183.28 17.5
-2 -3 0 206.68 16.9
-2 -3 0 200.88 27.3
2 -3 0 194.88 19.3
-2 3 0 192.88 19.5
-3 -3 0 426.46 25.4
3 -3 0 474.85 29.9
-3 -3 0 401.76 21.5
3 -3 0 404.46 30.2
-3 -3 0 420.96 34.6
3 3 0 404.56 27.9
-3 3 0 431.86 30.1
-4 -3 0 250.47 28.2
-4 -3 0 280.47 12.9
4 -3 0 266.27 25.7
-4 -3 0 265.37 21.2
4 -3 0 270.47 23.3
-4 -3 0 266.17 12.5
4 3 0 239.88 22.4
-4 3 0 251.37 24
-5 -3 0 4.9 4.2
5 -3 0 22.8 9.3
5 -3 0 10.2 6.5
-5 3 0 8.3 8.3
5 3 0 10.7 7.9
6 -3 0 27.4 10.1
6 -3 0 24.2 8.3
-6 -3 0 38.5 11.9
6 3 0 31.5 11
-6 3 0 36 11.5
-7 -3 0 -3.6 5.4
-7 3 0 -6 7.2
7 3 0 6 8.1
-7 3 0 12.9 8.9
-8 -3 0 29.5 11.7
8 -3 0 20.7 13.1
8 3 0 26.4 13.1
-8 3 0 27.5 14.5
-9 -3 0 -5.4 9.2
9 -3 0 9.7 11.9
-9 3 0 -12.7 18.3
-10 -3 0 11.3 17.3
10 -3 0 -6 9.5
0 -4 0 131.79 17.9
0 4 0 104.79 18.9
-1 -4 0 150.08 17.1
-1 -4 0 149.49 18.2
1 -4 0 162.58 19.4
1 -4 0 198.18 20.2
-1 -4 0 149.29 20.5
-1 4 0 157.38 19.9
-2 -4 0 16.4 7.5
2 -4 0 10.2 6.4
-2 -4 0 11.8 8.9
-2 -4 0 9.2 7.2
2 -4 0 34.8 11.4
-2 4 0 22.3 9.3
3 -4 0 293.77 25.5
-3 -4 0 326.07 23.9
-3 -4 0 272.77 30.9
-3 -4 0 278.67 21.9
3 -4 0 250.97 25.7
-3 4 0 251.57 26
-4 -4 0 86.59 21.4
-4 -4 0 72.89 11.1
-4 -4 0 84.99 18.3
4 -4 0 81.29 16.4
4 -4 0 65.19 16.8
-4 4 0 76.59 17.4
5 -4 0 366.96 35
-5 -4 0 381.86 15.1
-5 -4 0 415.06 29.5
5 -4 0 399.66 31.2
-5 -4 0 412.76 15.2
-5 -4 0 401.36 42.6
5 4 0 481.45 36.9
-5 4 0 357.96 33.3
-6 -4 0 57.39 19.6
-6 -4 0 57.19 14.7
6 -4 0 47.4 12.6
-6 4 0 72.79 20.2
6 4 0 45.3 13.7
-7 -4 0 15.4 10
7 -4 0 0.7 7.4
7 -4 0 6.6 9.2
-7 -4 0 23.4 16.3
-7 4 0 -2.1 11.8
7 4 0 -4.8 11
8 -4 0 31.8 14.1
-8 -4 0 26.6 19.7
-8 -4 0 -7.5 10.4
8 4 0 -10.2 11.5
-9 -4 0 16.2 15.2
9 -4 0 3.2 13.7
-9 -4 0 -3.5 10.7
0 -5 0 7.3 7.8
0 -5 0 -10.1 5.2
0 -5 0 5.4 7.7
0 -5 0 -16.8 7.5
-1 -5 0 24.4 10.7
1 -5 0 31.8 11.1
1 -5 0 10.5 8.3
-1 -5 0 6.9 7.4
1 -5 0 17.8 12
-1 -5 0 7.2 8.4
-1 5 0 24.2 11.2
-2 -5 0 61.09 15.7
2 -5 0 65.89 15.1
2 -5 0 62.99 16.6
-2 -5 0 37.8 15.9
-2 5 0 45.2 13.8
3 -5 0 69.49 16.5
-3 -5 0 78.39 15.8
-3 -5 0 81.69 15.3
-3 -5 0 65.39 21.2
-3 5 0 84.19 18.9
4 -5 0 26 14.8
-4 -5 0 9.4 13
-4 -5 0 32 12.8
4 -5 0 47.6 16.6
-4 -5 0 44.3 11.3
4 -5 0 45.3 14
-4 5 0 28.9 15.7
5 -5 0 7.2 10.4
-5 -5 0 1.6 12.4
5 -5 0 20.7 10.1
-5 -5 0 10.5 8.6
-5 -5 0 1.8 5.1
-5 -5 0 5.8 5
6 -5 0 -3.1 9.9
-6 -5 0 12.6 9.5
6 -5 0 6.4 14
-6 -5 0 13.4 16.5
-6 5 0 34.1 15.7
-7 -5 0 40.9 20.4
-7 -5 0 14.6 12.6
7 -5 0 17.3 10.8
-8 -5 0 44.2 23.6
-8 -5 0 13.8 11.7
8 -5 0 -8.4 16.6
0 -6 0 174.68 23.7
0 -6 0 194.48 25.1
0 -6 0 165.18 31
0 -6 0 166.78 31
-1 -6 0 556.04 50.99
1 -6 0 524.05 46.7
-1 -6 0 580.54 39.9
1 -6 0 477.65 38.8
1 -6 0 612.74 53.49
-1 -6 0 536.85 47.7
-1 -6 0 575.54 38.9
2 -6 0 -13.1 11.5
-2 -6 0 -1.8 9.6
2 -6 0 6.4 13.7
2 -6 0 4.4 9.8
-2 -6 0 6.5 7.2
-2 6 0 7.7 13.7
-3 -6 0 11.3 9.4
3 -6 0 39.9 13.7
-3 -6 0 31.6 18.4
3 -6 0 37.9 16.5
-3 -6 0 2.5 9.5
-3 6 0 13.3 15
-4 -6 0 46.4 15.9
4 -6 0 91.59 20.8
-4 -6 0 109.49 18.7
4 -6 0 74.59 23.4
-4 -6 0 110.99 27
-4 -6 0 60.09 14.7
-4 6 0 79.89 25.8
-5 -6 0 13.7 7.4
-5 -6 0 19.7 18.4
-5 -6 0 26.4 9.2
-5 -6 0 9.5 9.8
5 -6 0 7 11.3
6 -6 0 1 14.9
-6 -6 0 -8.3 10.4
-6 -6 0 -2.5 16.6
6 -6 0 19 13.3
0 -7 0 25.1 17.8
0 -7 0 -5.6 10.8
0 -7 0 27.1 15.9
1 -7 0 4.7 16.8
1 -7 0 24.6 18.6
1 -7 0 40.1 19.6
-1 -7 0 26.8 18.1
-1 -7 0 -1.3 12.3
1 -7 0 32.2 17.4
-1 -7 0 24.9 19.4
-2 -7 0 17.1 16.7
-2 -7 0 26.4 15.9
2 -7 0 24.1 15.7
-2 -7 0 10.7 11.6
11 0 -1 4.1 9.6
-11 0 1 -1.3 15.7
11 0 -1 5.5 9.2
10 0 -1 21.2 7.8
-10 0 1 -21 7.9
10 0 -1 -7.2 6.4
9 0 -1 -0.8 4.8
-9 0 1 11.6 11.9
9 0 -1 -4 4.4
8 0 -1 -5.9 9.4
-8 0 1 4.1 10.1
8 0 -1 -0.2 3.1
-8 0 1 5.3 5.5
8 0 -1 5.6 4.8
-7 0 1 9.7 5.9
7 0 -1 3.5 4.2
-6 0 1 -3.8 2.1
6 0 -1 -4.7 4.4
6 0 -1 2.4 2.9
-6 0 1 0.1 2.5
5 0 -1 -5.8 3
-5 0 1 5.2 4.3
-5 0 1 2.2 3.2
4 0 -1 -3.2 2.4
-4 0 1 2.8 2.7
-3 0 1 2.1 2.2
3 0 -1 -0.9 2
-2 0 1 -0.1 1.4
2 0 -1 -0.2 0.7
2 0 -1 1.4 1.4
-2 0 1 -0.7 0.9
-1 0 1 0.2 0.4
1 0 -1 1.4 1.1
-1 0 1 -0.9 0.5
1 0 -1 -0.3 0.4
-1 0 1 -0.4 0.6
1 0 -1 0.1 0.5
-1 0 -1 0.9 0.8
1 0 1 -1.2 0.6
1 0 1 0.3 0.6
-1 0 -1 0.7 0.7
-2 0 -1 2.9 2.1
2 0 1 -0.5 1.2
2 0 1 2.5 1.4
-3 0 -1 0.7 2.2
3 0 1 1.4 1.8
3 0 1 2.7 1.9
4 0 1 6.9 2.7
-4 0 -1 1.4 2.8
4 0 1 2.4 3.2
5 0 1 -1.6 2.7
-5 0 -1 1.1 4.3
5 0 1 1.7 2.9
-6 0 -1 10.2 5.6
6 0 1 0.1 2.4
6 0 1 2.2 3.6
7 0 1 6.6 5.4
-7 0 -1 -3.3 6.2
-7 0 -1 -1.1 5
7 0 1 -5.7 2.7
-8 0 -1 -6.4 7.8
8 0 1 5.7 4.8
-9 0 -1 -20.7 8.4
9 0 1 -2.3 5.6
9 0 1 3.6 6.5
-10 0 -1 12.6 14.9
10 0 1 -7.9 5.3
10 0 1 3.9 8.2
11 0 1 -18.4 10.5
11 0 1 5.7 9
-11 -1 1 56.09 27.2
11 -1 -1 49.99 15.7
11 -1 -1 93.39 20.9
-11 1 1 27.5 18
10 -1 -1 10.4 9.6
-10 -1 1 27.2 14.6
-10 1 1 12.3 9.6
-9 -1 1 174.08 31.2
9 -1 -1 127.09 21.2
9 -1 -1 64.79 17.1
9 1 -1 121.19 7.5
-9 1 1 112.59 26.1
9 1 -1 109.59 8
-8 -1 1 280.37 30.5
-8 1 1 281.67 33.8
8 1 -1 272.67 12.2
-8 1 1 228.88 28.1
8 1 -1 227.88 28.9
8 1 -1 259.17 13.6
-7 -1 1 40.5 13.6
-7 -1 1 53.49 16
7 -1 -1 62.49 14.7
7 1 -1 54.19 6.4
-7 1 1 45.3 15.2
7 1 -1 88.09 19
7 1 -1 62.99 5.6
-7 1 1 70.79 17.7
-6 -1 1 236.88 23.6
6 -1 -1 264.87 25.6
6 1 -1 276.67 11.3
6 1 -1 251.27 12.8
-6 1 1 290.97 28.4
6 1 -1 286.77 26.3
-6 1 1 248.68 24.6
-5 -1 1 18.2 7.4
5 -1 -1 21.9 7.9
-5 1 1 23.4 9.4
5 1 -1 31.7 9.6
5 1 -1 23.4 2.7
-5 1 1 28.1 9.2
4 -1 -1 476.85 27.7
-4 -1 1 505.45 28.5
4 -1 -1 441.86 28.4
4 1 -1 490.85 36.1
-4 1 1 434.66 29.9
-4 1 1 456.75 30.1
4 1 -1 494.25 13.4
3 -1 -1 3834.62 96.39
-3 -1 1 3917.31 96.49
3 -1 -1 3956.5 99.69
-3 -1 1 3714.33 74.79
-3 1 1 3914.61 99.59
-3 1 1 3888.31 101.19
3 1 -1 3877.51 97.79
3 1 -1 3959.9 74.99
-2 -1 1 9612.74 181.68
2 1 -1 9999 200.88
1 -1 -1 2111.19 50.79
-1 -1 1 2086.99 54.59
1 -1 -1 2115.39 55.39
-1 -1 1 2076.59 47.9
1 1 -1 2031.4 48.6
-1 1 1 2116.39 51.39
-1 1 1 2025.1 55.39
1 1 -1 2096.79 55.59
0 -1 -1 267.77 15.4
0 -1 1 268.77 11.2
0 -1 1 249.48 13.8
0 1 -1 246.68 10.8
0 1 1 251.07 14.9
1 -1 1 388.56 14.1
-1 -1 -1 379.76 12.5
-1 -1 -1 375.96 20.7
-1 -1 -1 385.06 13
-1 1 -1 385.36 14.9
1 1 1 381.36 13.2
2 -1 1 768.22 26.4
2 -1 1 784.92 33.5
-2 -1 -1 783.02 17.5
-2 -1 -1 734.93 25.7
-2 1 -1 774.72 27.3
-2 1 -1 779.62 34.4
2 1 1 795.82 26.7
3 -1 1 707.23 34.7
-3 -1 -1 663.93 28.7
3 1 1 677.13 29
-3 1 -1 665.53 29.1
-3 1 -1 631.34 34.5
4 -1 1 175.88 18.6
-4 -1 -1 206.08 17.6
4 1 1 215.98 17.6
-4 1 -1 174.08 16.3
-4 1 -1 162.68 27.4
4 1 1 189.68 6.1
5 -1 1 491.85 31.2
5 -1 1 488.65 33.8
-5 -1 -1 480.95 31.3
5 1 1 498.75 14.2
-5 1 -1 500.65 36.5
-5 1 -1 510.95 32
5 1 1 522.65 32
6 -1 1 46.3 13
-6 -1 -1 35.1 12.5
6 -1 1 67.29 13.9
-6 1 -1 49.2 13.5
6 1 1 56.99 14.5
6 1 1 43.3 4.2
-6 1 -1 34.2 12.4
6 1 1 32.1 3.7
7 -1 1 23.7 10.7
7 -1 1 22.9 10
-7 -1 -1 11.1 8.7
7 1 1 29.7 3.8
7 1 1 19 3.5
-7 1 -1 18.6 10.4
-7 1 -1 39 12.6
7 1 1 6.6 8.8
8 -1 1 52.99 13.5
-8 -1 -1 49.8 15
8 1 1 39.3 4.3
-8 1 -1 52.19 15.6
8 1 1 44.4 4.5
8 1 1 47.7 14.7
-8 1 -1 50.39 17.4
9 -1 1 148.89 23.4
-9 -1 -1 139.29 29.1
-9 1 -1 152.58 31.6
-10 -1 -1 -1.2 8.4
10 -1 1 34.6 12.8
-10 1 -1 -7.9 13.6
11 -1 1 40.6 17.9
11 -1 1 25.3 14.4
-11 -1 -1 48.7 24.4
-11 1 -1 63.89 20.8
11 -2 -1 10.9 14.8
-11 -2 1 -3.1 9.1
-11 2 1 -9 21.6
10 -2 -1 4.2 11.8
-10 -2 1 -4.2 14
-10 2 1 1.9 12.9
-9 -2 1 246.18 29.6
9 -2 -1 244.08 30.6
-9 2 1 214.68 38
-8 -2 1 113.99 22.6
-8 2 1 88.59 22.7
8 2 -1 108.99 24.2
-7 -2 1 9.4 6.4
7 -2 -1 -3.5 6.5
7 2 -1 12 9.8
-7 2 1 2.8 3.3
-7 2 1 30 15
-6 -2 1 -1.2 5
6 -2 -1 5.8 5.5
6 -2 -1 8.1 6.8
-6 2 1 6.2 8
6 2 -1 4.1 4.6
-6 2 1 0.8 5.4
-5 -2 1 967.1 45.9
5 -2 -1 827.22 46.7
5 -2 -1 901.41 45
-5 2 1 896.11 51.49
-5 2 1 977.4 50.49
5 2 -1 966.4 48.8
-4 -2 1 509.05 30
-4 -2 1 515.35 12.1
4 -2 -1 551.24 33.9
4 -2 -1 563.84 32
4 2 -1 539.55 32.7
-4 2 1 538.15 35.8
-4 2 1 568.04 35
-3 -2 1 276.07 12.2
-3 -2 1 297.27 20.5
3 -2 -1 242.08 32.2
3 -2 -1 286.87 20.9
-3 2 1 311.57 23.9
3 2 -1 297.77 22.3
-3 2 1 317.97 23.8
2 -2 -1 306.47 21.3
2 -2 -1 321.47 20.7
-2 -2 1 322.07 20.7
-2 -2 1 286.17 15.6
-2 2 1 302.97 22
-2 2 1 279.97 20.4
2 2 -1 290.17 21
1 -2 -1 14.4 5.3
-1 -2 1 19.4 5.5
1 -2 -1 10.6 3.8
-1 -2 1 22.1 5.9
-1 -2 1 20.1 6.2
-1 2 1 11.5 4.9
0 -2 1 10.4 4
0 -2 -1 9.2 4.5
0 -2 1 7.5 3.3
0 2 1 15.8 5.8
0 2 -1 7.8 3.3
-1 -2 -1 1530.95 56.29
-1 -2 -1 1538.85 41.7
1 -2 1 1507.05 45.7
1 2 1 1598.44 57.09
-1 2 -1 1493.15 46.5
2 -2 1 6.7 3.4
-2 -2 -1 6.5 2.8
2 -2 1 6.6 5
-2 -2 -1 8.2 4.6
2 2 1 4.1 3
-2 2 -1 8.5 4
-3 -2 -1 581.84 16.9
3 -2 1 585.04 34.8
3 -2 1 596.24 28
-3 -2 -1 642.24 27.5
-3 2 -1 607.14 31.1
3 2 1 635.64 29.4
4 -2 1 398.76 24.7
-4 -2 -1 460.45 26.1
4 -2 1 403.36 30.6
4 2 1 451.35 27
-4 2 -1 376.26 31.6
-4 2 -1 383.66 33.4
5 -2 1 954.9 51.79
-5 2 -1 899.31 54.49
-5 2 -1 865.41 45.4
5 2 1 956.4 45.4
6 -2 1 483.05 38.5
-6 -2 -1 522.85 34.8
6 -2 1 518.35 38.8
6 2 1 520.85 35.7
-6 2 -1 571.94 45.7
-6 2 -1 430.16 34.6
-7 -2 -1 1447.06 67.49
7 2 1 1381.66 66.79
-7 2 -1 1376.56 67.49
-7 2 -1 1304.07 76.59
-8 -2 -1 160.38 27.9
8 -2 1 109.89 21.5
-8 2 -1 138.89 28.8
-8 2 -1 110.69 22.7
8 2 1 120.29 24
9 -2 1 69.69 17.9
-9 -2 -1 57.39 19.4
-9 2 -1 68.29 22.5
10 -2 1 -0.6 10.9
-10 -2 -1 -16.7 10.8
-10 2 -1 14.7 16.5
-11 -2 -1 64.99 28.5
11 -2 1 12.7 17.8
-11 2 -1 2 13.1
10 -3 -1 21.3 16.2
-10 -3 1 29.4 17.2
-10 3 1 45.2 26.9
-9 -3 1 131.49 26.5
9 -3 -1 54.49 18.7
-9 3 1 109.99 28.3
-8 -3 1 113.59 23.2
-8 3 1 146.19 29.8
8 3 -1 103.39 25.2
-7 -3 1 1034.8 56.49
7 -3 -1 1046.4 56.99
7 3 -1 833.32 71.59
-7 3 1 982.5 62.39
6 -3 -1 106.19 19.7
6 -3 -1 79.79 18.4
-6 -3 1 78.39 16.4
-6 3 1 117.19 23.6
6 3 -1 108.29 21.3
-6 3 1 118.59 24.1
5 -3 -1 8 5.4
-5 -3 1 1.1 5.2
5 -3 -1 5.1 7.3
-5 3 1 7.8 7.5
4 -3 -1 73.79 14.4
-4 -3 1 100.59 13.4
-4 -3 1 73.39 6.8
4 -3 -1 71.99 15
4 3 -1 92.59 16.8
-4 3 1 53.99 13.4
-3 -3 1 414.76 33.5
3 -3 -1 401.16 38
-3 -3 1 447.96 28.2
-3 -3 1 466.25 23
3 -3 -1 388.96 28.5
3 3 -1 427.26 30.5
-3 3 1 429.06 31.5
2 -3 -1 23.6 8.7
2 -3 -1 36 9.8
-2 -3 1 46.1 9.8
-2 -3 1 40.8 9.1
-2 -3 1 49.4 12.1
-2 3 1 43 10.9
1 -3 -1 1393.96 57.39
1 -3 -1 1336.47 48.7
-1 -3 1 1364.46 53.79
-1 -3 1 1336.27 54.19
-1 -3 1 1395.46 55.79
-1 3 1 1467.15 70.79
0 -3 1 13.1 5.4
0 -3 1 14.3 6.3
0 -3 -1 12.5 4.9
0 3 -1 15.3 5.7
0 3 1 15.2 7.2
-1 -3 -1 66.59 8.7
-1 -3 -1 69.69 14.9
1 -3 1 72.09 12.3
1 3 1 87.39 16.3
-1 3 -1 87.29 11.3
2 -3 1 594.34 30.8
-2 -3 -1 615.94 27.2
2 -3 1 611.54 36.6
-2 -3 -1 614.24 40.9
-2 3 -1 609.94 33
-3 -3 -1 52.59 6.9
-3 -3 -1 49.7 9.1
-3 -3 -1 64.29 15.1
3 -3 1 37.2 11.2
3 -3 1 56.19 10.7
-3 -3 -1 36.4 7.3
-3 3 -1 66.19 13.2
3 3 1 41.1 9.9
-4 -3 -1 217.78 10.3
4 -3 1 207.78 19
4 -3 1 209.88 24.1
-4 -3 -1 225.68 18.1
-4 -3 -1 223.28 11.4
-4 -3 -1 263.57 29.7
-4 3 -1 195.68 21.1
4 3 1 242.88 21.1
5 -3 1 198.18 25
-5 -3 -1 208.68 28.6
5 -3 1 228.78 21
5 3 1 189.88 21.3
-5 3 -1 214.58 23.8
6 -3 1 24.4 10
6 -3 1 25.1 13.7
-6 -3 -1 11.1 6.8
-6 3 -1 31.6 11.2
6 3 1 6.5 7.1
7 -3 1 22.6 13.2
-7 -3 -1 10.7 7.8
7 3 1 33.5 12.5
8 -3 1 41.7 16
-8 -3 -1 38 15
8 3 1 28.4 14.3
-8 3 -1 68.19 20.7
9 -3 1 11.6 14.7
-9 -3 -1 35.1 16.9
10 -3 1 -3.4 16.7
-10 -3 -1 -19 11
-9 -4 1 15.7 11.9
9 -4 -1 -6.8 13
-8 -4 1 26.9 14.2
-7 -4 1 120.89 28.1
-7 -4 1 93.59 19.7
7 -4 -1 173.48 23.4
-7 4 1 114.79 33.5
7 4 -1 106.09 22.6
6 -4 -1 17.6 9.2
-6 -4 1 -1.7 7.7
-6 -4 1 11 10.3
6 4 -1 4.5 9.7
-6 4 1 -1.2 12
5 -4 -1 5.5 6.7
-5 -4 1 10.7 3.3
-5 -4 1 15.4 7.5
-5 -4 1 7.6 3.4
-5 -4 1 8.3 7.3
5 -4 -1 19.6 8
5 4 -1 -4.4 6.1
-5 4 1 12.8 9.9
4 -4 -1 15 10.4
4 -4 -1 35.4 11.1
-4 -4 1 32.7 9.1
-4 -4 1 26 6.9
-4 -4 1 26.4 13.8
-4 4 1 35.3 13.1
3 -4 -1 59.39 14.6
-3 -4 1 39.1 13.4
3 -4 -1 54.09 13.7
-3 -4 1 63.09 12.5
-3 4 1 76.69 16.8
-2 -4 1 225.38 22.2
-2 -4 1 267.37 23.7
-2 -4 1 304.37 29.4
2 -4 -1 250.27 23.1
2 -4 -1 257.47 25.6
-2 4 1 258.87 27
-1 -4 1 236.48 24.2
-1 -4 1 233.78 24.1
1 -4 -1 199.58 22.7
1 -4 -1 218.98 20.3
-1 -4 1 232.78 24
-1 4 1 224.38 24.8
0 -4 -1 962.1 41.7
0 -4 -1 889.71 51.69
0 -4 1 923.51 49.3
0 -4 1 925.11 52.19
0 4 -1 969.1 48.9
0 4 1 990.9 54.09
-1 -4 -1 244.38 19.7
1 -4 1 215.78 22.2
1 -4 1 228.68 25.9
1 -4 1 229.18 22.5
-1 -4 -1 224.98 25.8
-1 4 -1 207.08 21.5
2 -4 1 61.89 13.4
2 -4 1 35.1 13.3
-2 -4 -1 65.19 11.4
2 -4 1 78.19 17.1
-2 -4 -1 41.8 13.8
-2 4 -1 66.09 14.6
3 -4 1 10.6 8.4
-3 -4 -1 21.8 12.5
-3 -4 -1 19.8 6.6
3 -4 1 32.3 10.6
-3 -4 -1 25 7.1
3 -4 1 17.4 11
-3 4 -1 13.9 6.9
4 -4 1 2.2 5.8
4 -4 1 -4.2 6.3
-4 -4 -1 1.7 5.1
-4 -4 -1 0.2 7.7
-4 -4 -1 10 5
4 -4 1 16.4 11.2
-4 -4 -1 4.5 4.7
-4 4 -1 6.3 8.6
-5 -4 -1 484.45 30.7
5 -4 1 486.45 41.8
-5 -4 -1 451.95 14.9
5 -4 1 417.36 44.1
-5 -4 -1 410.76 43.3
-5 -4 -1 466.05 14.6
5 -4 1 498.75 33.9
5 4 1 466.25 35.1
-5 4 -1 514.95 39
-6 -4 -1 -11.9 8
-6 -4 -1 13.3 8.9
6 -4 1 15.3 6.9
6 4 1 25.6 12.9
-6 4 -1 23.3 12.4
-7 -4 -1 103.19 27.5
7 -4 1 109.29 28.3
7 4 1 59.39 19.6
-7 4 -1 64.79 19.5
-8 -4 -1 107.49 22
-8 -4 -1 166.18 35.8
8 -4 1 72.89 23.4
8 4 1 101.09 25
-9 -4 -1 62.69 21.7
9 -4 1 71.59 22.9
-9 -4 -1 105.79 28.2
8 -5 -1 63.19 24.6
-8 -5 1 72.79 22
8 -5 -1 66.69 20.9
7 -5 -1 48.4 20.7
-7 -5 1 51.09 15.3
-7 -5 1 60.59 22.8
7 -5 -1 32.4 15.1
-6 -5 1 13.7 9
6 -5 -1 7.2 11.1
-6 -5 1 40 16.8
5 -5 -1 26.3 10.6
-5 -5 1 18.3 5.8
-5 -5 1 5.5 11.2
-5 -5 1 29.6 7.3
-5 -5 1 16.5 8.6
-5 5 1 -0.4 12.4
-4 -5 1 36.1 16.2
4 -5 -1 39.5 13.1
-4 -5 1 37 11
4 -5 -1 38.8 15
-4 -5 1 49.3 11.2
3 -5 -1 332.47 32.7
-3 -5 1 313.47 36.3
-3 -5 1 376.16 30.5
-3 -5 1 353.26 28
3 -5 -1 375.56 33.5
-3 5 1 341.57 36.1
-2 -5 1 20.6 11.6
2 -5 -1 23.8 12.5
2 -5 -1 24.3 11.6
-2 -5 1 28.3 11.3
-2 -5 1 24.7 8.6
-2 5 1 26.2 12.1
1 -5 -1 33.5 11.7
-1 -5 1 27.2 11.1
-1 -5 1 26.3 12.3
1 -5 -1 33.6 13.6
-1 -5 1 27.7 12
-1 5 1 29.9 12.9
0 -5 -1 9.2 9.9
0 -5 1 8.9 7.7
0 -5 1 -1.6 6
0 -5 -1 11.6 8.5
0 -5 1 15.1 6.8
0 -5 -1 23.8 8.4
0 5 1 36.6 12.6
1 -5 1 2.1 6.9
-1 -5 -1 10.1 10.6
-1 -5 -1 9.1 6.1
1 -5 1 -2.7 6
1 -5 1 -4.9 7.5
-1 5 -1 0.4 7.1
-2 -5 -1 393.96 40.4
-2 -5 -1 409.16 26.5
-2 -5 -1 396.96 34.1
2 -5 1 434.46 37
2 -5 1 401.96 43.4
2 -5 1 377.66 32.2
-2 5 -1 393.56 33.5
-3 -5 -1 8.1 5.6
-3 -5 -1 11.3 9.4
-3 -5 -1 6.1 5
3 -5 1 -23.6 9.3
3 -5 1 -10 5.4
-3 5 -1 -9 7
-4 -5 -1 -14.9 8.8
4 -5 1 9.9 9.4
-4 -5 -1 4.8 6.5
-4 -5 -1 15.8 6.2
4 -5 1 -0.9 4.7
-4 5 -1 12.3 10.8
-5 -5 -1 43.7 7.8
-5 -5 -1 42.2 7.9
5 -5 1 30.8 16.8
-5 -5 -1 40.2 17.4
5 -5 1 87.39 17
-5 -5 -1 61.99 13.1
-5 5 -1 26.7 13.9
-6 -5 -1 105.19 17
6 -5 1 75.89 21.3
6 -5 1 43.9 15.5
-6 -5 -1 80.49 25
-6 5 -1 59.39 19.6
-7 -5 -1 53.59 15.8
-7 -5 -1 30.9 18.9
7 -5 1 15.9 19.5
-8 -5 -1 33.7 16.1
8 -5 1 55.39 22
-8 -5 -1 29.6 21.9
6 -6 -1 35.5 15.4
-6 -6 1 12 17.5
-6 -6 1 -2.1 3.7
-6 -6 1 23.1 12.7
6 -6 -1 6.2 20.3
5 -6 -1 25.3 16.6
-5 -6 1 18.7 18
-5 -6 1 22.4 10.1
-5 -6 1 3.2 7.1
-5 -6 1 8.6 10.5
-4 -6 1 12.2 15.3
-4 -6 1 -1.3 8
4 -6 -1 4 10.1
4 -6 -1 -15.6 10.3
-4 -6 1 8.2 9.8
-3 -6 1 23.1 12.9
3 -6 -1 65.89 20.7
-3 -6 1 56.49 14
3 -6 -1 16.2 16.4
-3 -6 1 67.79 21.8
-3 6 1 79.29 20.7
-2 -6 1 -8.7 8.4
-2 -6 1 10.3 7.8
2 -6 -1 -20.3 10.5
2 -6 -1 18.9 14.2
-2 -6 1 16.1 13.7
2 -6 -1 -13.7 13.7
-2 6 1 2.3 12.4
-1 -6 1 138.79 25.3
1 -6 -1 135.69 21.9
-1 -6 1 128.19 26.7
1 -6 -1 144.09 28.6
1 -6 -1 112.89 27.8
-1 6 1 82.59 23.1
0 -6 -1 29.5 10.3
0 -6 1 37.2 13.8
0 -6 1 35.3 15
0 -6 -1 30.6 14.4
0 -6 -1 50.59 13.7
0 -6 1 25.7 12.5
0 -6 -1 35.5 15.8
0 -6 1 35.8 15.1
1 -6 1 -6.3 4.1
-1 -6 -1 23 14.8
-1 -6 -1 11.6 12.1
1 -6 1 24.3 12.5
-1 -6 -1 -8.4 9
-1 -6 -1 2 7.4
1 -6 1 -7.1 12.5
-2 -6 -1 -7.1 7
2 -6 1 0.5 8.9
-2 -6 -1 -0.2 6.5
-2 -6 -1 -16.8 7.6
2 -6 1 5.1 8.6
2 -6 1 10 16
-2 -6 -1 26.6 13.9
-2 6 -1 3 12
-3 -6 -1 17.9 17.5
3 -6 1 14.9 9.6
-3 -6 -1 18.3 11.6
3 -6 1 37.8 16.8
-3 -6 -1 -1.3 9.5
-3 -6 -1 19.7 8.1
-3 6 -1 2.6 11.4
4 -6 1 -0.2 13.6
-4 -6 -1 13.8 10.5
4 -6 1 -8 7.1
-4 -6 -1 15 12.1
-4 -6 -1 -28.1 15.2
-4 -6 -1 13.4 11
-4 6 -1 8.1 17.5
-5 -6 -1 75.49 28.6
5 -6 1 82.29 24.6
5 -6 1 47.7 16.6
-5 -6 -1 53.29 13.3
-5 -6 -1 51.99 11.6
-5 6 -1 57.39 23.6
6 -6 1 -17.6 15.1
6 -6 1 0.2 12
-6 -6 -1 -10.1 10
-3 -7 1 -15.3 11.2
-3 -7 1 29.7 16.2
-3 -7 1 -14.7 16
3 -7 -1 23.2 16.5
3 -7 -1 14.4 20.2
2 -7 -1 88.79 32
-2 -7 1 136.99 24.9
-2 -7 1 107.29 23.1
-2 -7 1 152.38 32.5
2 -7 -1 150.68 30.6
1 -7 -1 127.89 27.8
-1 -7 1 218.98 35.3
-1 -7 1 198.48 35.5
1 -7 -1 224.78 39.5
-1 -7 1 144.59 31.1
-1 -7 1 231.98 29.5
1 -7 -1 186.98 37.4
0 -7 -1 0 17
0 -7 -1 15.5 17.6
0 -7 1 21.3 15.6
0 -7 -1 -15.3 10.5
0 -7 1 10.9 18.1
0 -7 1 16.6 14.5
1 -7 1 -6.7 16
-1 -7 -1 13 20.8
1 -7 1 20.7 15.9
1 -7 1 25.2 22.5
-1 -7 -1 28.8 12.4
-1 -7 -1 13.6 16.2
2 -7 1 28.6 20.5
-2 -7 -1 35.2 17.4
-2 -7 -1 -17.2 15.7
2 -7 1 -7.2 13.4
11 0 -2 3.2 9.6
11 0 -2 -6.9 8.3
-11 0 2 6.8 17.7
-10 0 2 468.65 48
10 0 -2 459.05 32.4
10 0 -2 481.75 29
9 0 -2 366.76 24.7
-9 0 2 435.06 42.6
-8 0 2 290.57 31.4
8 0 -2 246.58 19.4
8 0 -2 240.88 42.3
7 0 -2 109.99 18
-7 0 2 101.39 19.8
-7 0 2 138.59 30.3
6 0 -2 157.58 19.4
-6 0 2 147.19 18.7
-6 0 2 120.39 16.9
6 0 -2 122.79 11.9
-5 0 2 537.45 33.6
5 0 -2 547.55 24.9
-5 0 2 554.24 34
5 0 -2 515.15 33.5
-4 0 2 115.99 13.6
4 0 -2 121.19 10.1
4 0 -2 108.69 13.6
-4 0 2 106.09 13
3 0 -2 1932.31 58.89
-3 0 2 1991.7 59.79
-3 0 2 1998.6 59.99
3 0 -2 2012.8 50.39
3 0 -2 1932.21 59.79
-2 0 2 727.13 23.6
-2 0 2 714.63 27.9
2 0 -2 704.03 27.9
-2 0 2 748.83 28.2
2 0 -2 740.13 23.1
2 0 -2 720.83 27.3
1 0 -2 1478.65 38.6
-1 0 2 1481.55 36
-1 0 2 1482.85 39.1
1 0 -2 1498.65 40.6
-1 0 2 1445.96 39.6
1 0 -2 1506.55 35.8
0 0 -2 1358.26 32.7
0 0 -2 1371.16 34.2
0 0 2 1323.77 32.5
0 0 2 1354.46 34.1
1 0 2 902.11 29.1
1 0 2 885.21 25.3
-1 0 -2 879.01 25.8
3 0 2 265.67 18.9
3 0 2 287.07 15.7
-3 0 -2 250.77 19.4
-4 0 -2 317.17 24.8
4 0 2 266.27 21.1
4 0 2 297.87 17.6
-5 0 -2 74.09 15.5
5 0 2 65.89 8.8
5 0 2 75.09 15
6 0 2 23.2 6.5
6 0 2 12.2 7.2
-6 0 -2 12 9.4
-7 0 -2 106.69 19.8
-7 0 -2 112.59 23.1
7 0 2 125.09 13.3
7 0 2 99.09 20
8 0 2 52.99 11.1
-8 0 -2 39.5 14.9
9 0 2 29.6 9.1
-9 0 -2 40.2 16.1
10 0 2 247.38 21.9
10 0 2 249.97 20.6
-10 0 -2 219.08 40.5
-11 0 -2 49.3 25.3
11 -1 -2 82.09 20.5
-11 -1 2 84.39 25.8
11 -1 -2 75.29 20.2
-11 1 2 15.6 21.3
10 -1 -2 436.76 34.8
-10 -1 2 399.46 44.1
10 -1 -2 449.46 38.6
-10 1 2 413.26 48.9
10 1 -2 432.16 16.5
10 1 -2 427.96 15.3
-9 -1 2 -1.6 3.1
9 -1 -2 -2.7 8.5
-9 1 2 18.4 12.1
9 1 -2 0.8 3.1
9 1 -2 6.7 3.5
8 -1 -2 124.59 19.9
-8 -1 2 101.79 21
8 1 -2 98.29 9.5
8 1 -2 94.79 8.2
8 1 -2 85.19 18.3
-8 1 2 83.19 21.2
-8 1 2 87.19 22.5
-7 -1 2 35.1 11.8
-7 -1 2 37.4 11
7 -1 -2 23.4 8.8
7 -1 -2 26 9.5
7 1 -2 25.7 10.6
7 1 -2 34.4 5.5
-7 1 2 27.7 12
-6 -1 2 703.43 43.1
6 -1 -2 666.63 43.2
-6 -1 2 699.93 41.9
6 1 -2 606.44 40.6
-6 1 2 694.23 43.6
6 1 -2 643.94 21.6
-6 1 2 562.94 40.7
5 -1 -2 103.09 17.7
5 -1 -2 97.39 13.6
-5 -1 2 98.79 13.4
-5 -1 2 97.29 13.3
5 1 -2 99.29 17.4
-5 1 2 98.69 17.3
-5 1 2 98.29 17.5
5 1 -2 97.39 6.9
4 -1 -2 290.17 21.9
-4 -1 2 274.87 21.2
4 -1 -2 264.67 21.4
4 1 -2 259.87 21.7
4 1 -2 268.67 11.4
-4 1 2 258.67 21.9
-4 1 2 218.58 19.9
-3 -1 2 12.1 4.6
3 -1 -2 10.4 4.6
-3 -1 2 12.6 2.7
3 1 -2 14.1 5
-3 1 2 5.8 3.4
-3 1 2 5 3.5
3 1 -2 14.8 2.8
-1 -1 2 1743.43 43.3
1 -1 -2 1651.73 50.69
1 -1 -2 1698.93 41.7
1 -1 -2 1622.74 45.9
-1 -1 2 1673.03 51.29
-1 1 2 1638.24 50.89
1 1 -2 1716.53 52.49
1 1 -2 1711.33 44.1
-1 1 2 1681.63 41.8
0 -1 2 1119.79 35.7
0 -1 -2 1193.08 23.9
0 -1 2 1111.29 25.2
0 -1 -2 1227.08 41.1
0 -1 -2 1197.48 33.3
0 1 2 1089.89 23.7
0 1 2 1151.88 39.9
0 1 -2 1163.38 36.9
-1 -1 -2 11.6 2.2
-1 -1 -2 15.3 3.1
1 -1 2 20.6 5.3
-1 -1 -2 10.2 4.5
-1 1 -2 16.7 4.9
1 1 2 11.5 2.1
1 1 2 14.5 3.1
1 1 2 11.9 4.6
-1 1 -2 16.5 2.8
2 -1 2 5473.15 133.29
2 -1 2 5322.27 129.39
-2 -1 -2 5785.92 110.39
-2 -1 -2 5832.62 119.89
2 1 2 5825.62 110.99
2 1 2 5712.93 117.69
-2 1 -2 5749.52 118.09
-3 -1 -2 2408.06 67.09
-3 -1 -2 2296.37 51.99
3 -1 2 2425.16 72.79
-3 1 -2 2467.25 65.39
3 1 2 2327.37 64.39
3 1 2 2392.36 50.29
-3 1 -2 2399.56 78.99
4 -1 2 786.32 38.8
-4 -1 -2 821.32 38.4
4 -1 2 822.32 42.9
4 1 2 809.02 36.7
-4 1 -2 811.12 36.4
4 1 2 843.22 21.9
-4 1 -2 817.02 45.2
5 -1 2 1064.89 52.99
-5 -1 -2 1140.59 51.49
5 -1 2 1074.19 49
5 1 2 1076.29 27.7
-5 1 -2 1032.4 46.9
5 1 2 1040.2 47.5
-5 1 -2 1118.19 57.99
-6 -1 -2 5.6 7.2
6 -1 2 28.2 10.5
6 -1 2 7 4.6
-6 1 -2 -10.4 6
-6 1 -2 9.6 5.5
6 1 2 11.1 6.7
6 1 2 21.3 3.7
7 -1 2 1.9 5.5
-7 -1 -2 11 6.6
7 -1 2 36.7 15.1
-7 1 -2 36.2 13.5
7 1 2 20.2 9.7
-7 1 -2 21.7 11.1
8 -1 2 -11.2 5.6
-8 -1 -2 1.8 7.7
8 1 2 2.7 2.3
8 1 2 4.5 2.7
8 1 2 -14.1 7.6
-8 1 -2 -2.9 8.9
-8 1 -2 9.9 10.3
9 -1 2 23.1 10.9
-9 -1 -2 36.9 16.4
9 1 2 28.7 3.1
-9 1 -2 36.3 17.1
9 1 2 39.4 3.6
-10 -1 -2 28.9 19
10 -1 2 34.6 12.3
-10 1 -2 -15.4 15.2
-11 -1 -2 -20 13.8
11 -1 2 14.6 11.5
-11 1 -2 14.1 17.6
11 -2 -2 -15.4 11.4
-11 -2 2 1.6 14.7
-11 2 2 -1.2 14
10 -2 -2 217.08 29
-10 -2 2 196.48 33.9
-10 2 2 200.78 39
-9 -2 2 92.59 21.3
-9 2 2 103.59 26.3
-8 -2 2 40.3 14.8
8 2 -2 65.09 17.6
-8 2 2 13.2 9
7 -2 -2 3.2 10.1
-7 2 2 -6.9 3.8
-7 2 2 -0.5 9.5
6 -2 -2 13.7 7.6
-6 -2 2 12.9 6.5
6 -2 -2 20.2 9
-6 2 2 6.7 7.2
-6 2 2 18.6 10.2
6 2 -2 11.3 7.5
5 -2 -2 7.9 4.7
5 -2 -2 1.4 5.6
-5 -2 2 6.8 4.3
5 2 -2 -5.2 4.2
-5 2 2 0.4 4
-5 2 2 3.1 5.1
4 -2 -2 626.94 35.6
4 -2 -2 630.54 35.9
-4 -2 2 608.44 34.7
-4 -2 2 593.84 18.7
-4 2 2 649.93 39.3
4 2 -2 631.04 37.9
-4 2 2 583.74 36.2
-3 -2 2 83.79 14.2
-3 -2 2 94.59 7.6
3 -2 -2 118.59 13.3
3 -2 -2 91.29 12.3
3 2 -2 89.89 15.9
-3 2 2 82.79 15.9
-3 2 2 112.39 13.8
2 -2 -2 694.33 30.3
-2 -2 2 707.33 35
2 -2 -2 732.13 36.5
-2 -2 2 684.53 26.9
2 2 -2 683.43 36.1
-2 2 2 693.53 31.7
-2 2 2 707.03 36.9
-1 -2 2 270.37 17.5
-1 -2 2 265.47 17.6
1 -2 -2 262.07 14.9
1 -2 -2 270.07 20.8
-1 -2 2 276.17 20.8
-1 2 2 262.67 20.8
0 -2 2 597.14 23.8
0 -2 -2 637.04 33.9
0 -2 2 591.74 30.3
0 -2 -2 610.64 19.5
0 2 2 595.24 32.5
-1 -2 -2 284.47 22.9
1 -2 2 232.58 20.1
-1 -2 -2 278.17 15.7
1 -2 2 271.57 14.1
-1 -2 -2 287.37 10.5
-1 2 -2 262.17 14.6
1 2 2 281.87 22.8
-2 -2 -2 645.14 22.2
2 -2 2 655.43 24.8
2 -2 2 628.94 36.2
-2 -2 -2 652.43 23.1
2 -2 2 655.23 39.4
-2 -2 -2 692.43 39.8
-2 2 -2 679.23 27.5
2 2 2 683.23 24.8
-3 -2 -2 155.18 19.9
3 -2 2 173.58 19.3
-3 -2 -2 175.98 13.3
3 -2 2 190.48 20.5
3 -2 2 186.78 13.9
-3 -2 -2 183.68 9
3 2 2 192.08 14.3
-3 2 -2 193.08 15.5
4 -2 2 8.8 5.2
4 -2 2 23.7 8.8
-4 -2 -2 14.3 5.4
-4 2 -2 16.2 6.5
4 2 2 17.3 5.8
5 -2 2 53.89 14.1
5 -2 2 55.69 14.1
-5 -2 -2 37.4 9.6
-5 2 -2 40.7 11.1
5 2 2 42.1 10.2
6 -2 2 841.02 50.89
6 -2 2 803.52 51.39
-6 -2 -2 797.52 44.9
-6 2 -2 782.92 45
-6 2 -2 866.91 59.09
6 2 2 823.22 44.9
-7 -2 -2 75.99 16.7
7 -2 2 41.7 13.4
-7 2 -2 25.9 11.8
7 2 2 49 12.9
-7 2 -2 38.4 16.6
8 -2 2 106.79 22.2
-8 -2 -2 98.49 20.9
-8 2 -2 93.19 23.9
8 2 2 115.39 23.7
-8 2 -2 114.09 22.5
-9 -2 -2 12.4 12.5
9 -2 2 8.7 12.2
-9 2 -2 14.6 14.8
10 -2 2 226.98 30.5
-10 -2 -2 254.17 35.2
10 -3 -2 33.2 16.7
-10 -3 2 33.6 15.7
-9 -3 2 69.59 19.9
-9 3 2 13.6 18
-8 -3 2 79.99 19.1
-8 3 2 83.29 23.8
7 -3 -2 306.77 30.4
-7 -3 2 263.27 27.5
-7 3 2 279.87 32.4
-7 3 2 285.87 34.6
7 3 -2 253.17 30.8
-6 -3 2 88.59 18.4
6 -3 -2 86.79 17.7
6 -3 -2 73.89 18.2
6 3 -2 66.09 18.3
-6 3 2 65.09 17.6
-6 3 2 76.19 18.6
-5 -3 2 17.1 8.2
-5 -3 2 17 2.9
5 -3 -2 15.7 8.9
5 -3 -2 0.8 4.9
-5 3 2 14.7 7.8
-5 3 2 5.8 8.1
5 3 -2 13.7 8.4
-4 -3 2 1076.39 50.59
4 -3 -2 1037 50.59
4 -3 -2 1086.09 52.69
-4 -3 2 1018.5 33
4 3 -2 1011.3 54.29
-4 3 2 1078.29 57.19
-4 3 2 1055.09 54.39
3 -3 -2 257.57 23.9
3 -3 -2 285.17 22.4
-3 -3 2 219.78 21.2
-3 -3 2 265.57 17.5
-3 -3 2 260.37 25.4
-3 3 2 221.08 23.5
-2 -3 2 64.29 13.7
2 -3 -2 57.79 11.2
-2 -3 2 46.5 9.4
-2 -3 2 60.59 13.1
-2 3 2 66.59 15.2
-1 -3 2 223.48 20.1
-1 -3 2 236.78 20
1 -3 -2 235.48 16.8
1 -3 -2 212.38 21.6
-1 -3 2 202.28 20.9
-1 3 2 246.08 23.4
0 -3 -2 144.49 11.4
0 -3 2 155.08 26.1
0 -3 2 173.18 15.5
0 3 2 160.68 19.6
1 -3 2 191.98 20.8
-1 -3 -2 189.68 12.4
1 -3 2 213.88 16.3
-1 -3 -2 169.38 20.6
-1 3 -2 202.08 16.3
1 3 2 222.08 23.6
2 -3 2 675.53 42.9
-2 -3 -2 671.43 24.3
2 -3 2 667.53 30.1
2 -3 2 637.04 39.6
-2 -3 -2 678.53 29.3
-2 -3 -2 640.44 42.9
-2 3 -2 641.04 31.7
-3 -3 -2 772.82 50.89
3 -3 2 789.32 48.9
3 -3 2 826.12 47.9
-3 -3 -2 830.92 30.9
-3 -3 -2 815.82 29.2
3 -3 2 794.22 34.2
-3 3 -2 799.22 38.2
3 3 2 793.12 34.8
-4 -3 -2 451.55 16.1
4 -3 2 401.86 35.7
4 -3 2 448.16 35.5
-4 -3 -2 470.55 25.7
-4 -3 -2 485.25 41.5
-4 -3 -2 402.66 17.9
4 -3 2 451.25 26.7
4 3 2 452.75 27.7
-4 3 -2 395.86 30.4
5 -3 2 469.05 40
-5 -3 -2 504.45 46.3
-5 -3 -2 508.25 30.4
5 -3 2 451.15 38.3
-5 3 -2 419.36 32
5 3 2 400.36 29.6
-6 -3 -2 554.04 35.9
-6 -3 -2 528.95 49.7
6 -3 2 469.75 41.3
-6 3 -2 541.15 39.8
6 3 2 554.34 37.2
-7 -3 -2 51.79 15.2
-7 3 -2 76.89 18.8
7 3 2 72.29 15.5
8 -3 2 25.2 13.4
-8 -3 -2 18 12.7
8 3 2 19.3 14.2
-8 3 -2 43 14
-9 -3 -2 230.08 30.1
9 -3 2 283.77 36
10 -3 2 7.7 13.6
-10 -3 -2 29.5 18.6
-9 -4 2 19.1 16.4
8 -4 -2 -7.5 8.3
-8 -4 2 -0.1 14.1
-7 -4 2 16.6 9.3
7 -4 -2 5.1 7.8
7 4 -2 -11.3 11.8
6 -4 -2 32.1 12.7
-6 -4 2 18.5 9
-6 -4 2 50.69 12.8
-6 4 2 -0.6 14.2
6 4 -2 8.3 12.4
-5 -4 2 69.19 7.9
5 -4 -2 59.19 17.1
-5 -4 2 45.1 13.4
5 -4 -2 71.09 17.9
-5 -4 2 80.59 22.5
-5 4 2 85.49 21
5 4 -2 85.09 19.2
-4 -4 2 112.49 22.7
4 -4 -2 126.99 22.5
-4 -4 2 117.99 12.3
-4 -4 2 141.69 18.8
4 -4 -2 126.59 22.2
-4 4 2 118.29 24.2
3 -4 -2 61.49 15.2
3 -4 -2 53.09 13.2
-3 -4 2 56.79 15.7
-3 -4 2 66.19 14.6
-3 -4 2 40.2 10.2
-3 4 2 64.09 17.2
-2 -4 2 11.9 7.8
-2 -4 2 14 8.1
-2 -4 2 3.6 5.1
2 -4 -2 3 4.8
2 -4 -2 -6.9 4.5
-2 4 2 -3 5.7
-1 -4 2 7.6 5.6
-1 -4 2 15.4 7.5
1 -4 -2 6.1 4.4
-1 -4 2 6.9 6.4
1 -4 -2 8.2 7.3
-1 4 2 -6.8 4.1
0 -4 -2 323.57 31.6
0 -4 2 384.06 28.3
0 -4 -2 325.47 21.1
0 -4 2 379.46 31.8
0 4 2 355.96 32.4
-1 -4 -2 11.3 4.9
-1 -4 -2 9.6 8
1 -4 2 -1.5 3.5
1 -4 2 8.3 5.5
1 4 2 12.3 9.3
-1 4 -2 6.7 5
-2 -4 -2 80.79 18.9
-2 -4 -2 43 7.6
2 -4 2 67.59 17
-2 -4 -2 42 10.3
2 -4 2 67.99 17.1
2 -4 2 54.19 11.1
-2 4 -2 82.69 14.6
3 -4 2 24 10.6
-3 -4 -2 24.6 10.3
-3 -4 -2 14.9 5.3
3 -4 2 8.3 10.1
-3 -4 -2 19.4 11.2
3 -4 2 12.5 6
-3 4 -2 25.6 9.3
4 -4 2 265.17 23.7
-4 -4 -2 235.68 17.8
-4 -4 -2 260.97 33
4 -4 2 271.27 30.3
-4 -4 -2 241.58 17.8
4 -4 2 268.37 32.5
-4 -4 -2 251.17 16.1
-4 4 -2 258.97 24.4
-5 -4 -2 72.69 5.4
5 -4 2 75.69 14.4
-5 -4 -2 76.09 13.9
5 -4 2 76.69 19.9
-5 -4 -2 63.29 4.7
-5 4 -2 70.79 16.4
5 4 2 75.19 15.7
-6 -4 -2 9.6 8.2
-6 -4 -2 2 9.8
6 -4 2 24.4 12.4
-6 4 -2 25 12.2
6 4 2 31.8 12.2
7 -4 2 305.47 38.1
-7 -4 -2 320.07 43.5
-7 -4 -2 304.37 29
7 4 2 255.07 29.6
-7 4 -2 282.97 34
8 -4 2 -13.6 13
-8 -4 -2 -2.5 15.2
8 4 2 2.7 14.3
-9 -4 -2 12.7 19.3
9 -4 2 -21.3 15.2
-9 -4 -2 59.39 22.4
-8 -5 2 -18.7 12.3
8 -5 -2 6 13
-8 -5 2 -18.2 16.7
7 -5 -2 -12.8 10.4
-7 -5 2 -18.8 13.6
-7 -5 2 -0.1 7.7
-6 -5 2 11 4.1
-6 -5 2 2.2 2.9
-6 -5 2 -3.2 9.7
-6 -5 2 8.1 10.8
5 -5 -2 177.18 24.7
-5 -5 2 217.98 39.7
-5 -5 2 196.08 24.1
-5 -5 2 168.38 15.7
-5 5 2 164.68 32.3
-4 -5 2 41.8 16.2
-4 -5 2 18 11.4
4 -5 -2 23.7 11.6
-4 -5 2 24.5 8.8
4 -5 -2 34.6 13
-4 5 2 -9.9 10.9
3 -5 -2 310.07 32.9
3 -5 -2 329.47 29.4
-3 -5 2 321.17 29.3
-3 -5 2 361.86 28.5
-3 -5 2 330.27 35.4
-3 5 2 284.97 33.2
-2 -5 2 24.4 10.6
-2 -5 2 47.5 15.7
2 -5 -2 20.2 8.4
-2 -5 2 19.1 9.3
2 -5 -2 28.6 12.7
1 -5 -2 81.29 14.2
-1 -5 2 63.79 16
-1 -5 2 47.3 15.1
1 -5 -2 63.79 17.9
-1 -5 2 63.19 16.1
-1 5 2 65.49 25.1
0 -5 -2 465.35 28.2
0 -5 2 438.96 39.2
0 -5 -2 487.75 42.7
0 -5 2 461.55 35.4
0 -5 -2 430.26 29.9
0 5 2 425.76 40.3
-1 -5 -2 6.2 4.4
-1 -5 -2 15.9 5.9
-1 -5 -2 0.7 9.1
1 -5 2 -2.4 6.8
1 -5 2 9.8 9.4
1 -5 2 4.7 8.8
-2 -5 -2 6 9.4
2 -5 2 1.9 9.8
2 -5 2 21.8 12.6
-2 -5 -2 1.3 3.8
2 -5 2 11.8 7.2
-2 -5 -2 13.2 9.1
-2 5 -2 -5.8 6.6
-3 -5 -2 5 7.4
-3 -5 -2 10.6 6.8
3 -5 2 -0.1 5.5
-3 -5 -2 8.1 4.1
-3 -5 -2 14.6 10.2
3 -5 2 7.3 8.4
3 -5 2 3.6 5.2
-3 5 -2 1.7 8.7
-4 -5 -2 3.8 9.2
-4 -5 -2 -0.6 5.2
4 -5 2 10.2 9.4
-4 -5 -2 4.4 6.4
4 -5 2 13.2 7.7
-4 -5 -2 7.2 11.3
-4 5 -2 5.6 9.2
-5 -5 -2 27 7.5
5 -5 2 67.59 21.7
-5 -5 -2 28.4 9.8
5 -5 2 44.2 12.5
-5 -5 -2 44.6 7.7
-5 -5 -2 29.3 18.5
-5 5 -2 16.4 15.6
6 -5 2 104.79 28
-6 -5 -2 74.99 14.8
-6 -5 -2 105.59 30.2
-6 5 -2 101.49 21.2
-7 -5 -2 15.4 11.1
7 -5 2 43.4 22.9
-7 -5 -2 17.4 21.7
-7 5 -2 28.5 23
8 -5 2 21.1 17.1
-8 -5 -2 10.5 11.4
-8 -5 -2 -15.1 10.9
6 -6 -2 16.9 13.5
-6 -6 2 1 5.1
-6 -6 2 -5.1 16.5
-6 -6 2 -18.2 11.4
-5 -6 2 79.99 13.4
-5 -6 2 93.99 27.4
5 -6 -2 60.59 17.3
-4 -6 2 95.29 18
-4 -6 2 77.89 26.4
4 -6 -2 66.99 18.7
-4 -6 2 76.59 18.2
3 -6 -2 104.79 19.9
-3 -6 2 136.89 30
-3 -6 2 135.79 22.7
-3 -6 2 128.79 23.1
2 -6 -2 6.5 11
-2 -6 2 31 11.2
-2 -6 2 5 9.1
-2 -6 2 -1.6 10
2 -6 -2 7.7 12.5
1 -6 -2 33.9 12
-1 -6 2 10.2 13.1
-1 -6 2 42.6 16
-1 -6 2 26.8 12.5
1 -6 -2 13.6 14.7
1 -6 -2 44.1 12.9
0 -6 2 117.29 25.8
0 -6 2 113.79 22.3
0 -6 -2 109.79 18.4
0 -6 -2 93.79 16.7
0 -6 -2 101.89 33
0 -6 2 123.59 26
0 -6 2 140.59 28.8
1 -6 2 166.58 26.6
-1 -6 -2 106.99 24.5
-1 -6 -2 119.99 15.2
1 -6 2 161.08 31.5
-1 -6 -2 145.79 15.8
-1 -6 -2 183.58 33.1
1 -6 2 128.99 29.3
2 -6 2 93.59 20.1
-2 -6 -2 92.79 20.1
-2 -6 -2 90.19 12.4
2 -6 2 82.49 23.1
-2 -6 -2 94.29 11.1
-2 -6 -2 53.39 19.3
-2 -6 -2 94.19 26.7
-3 -6 -2 132.39 33.5
-3 -6 -2 76.09 18.1
3 -6 2 97.89 19.6
-3 -6 -2 95.49 21.7
3 -6 2 83.19 25.2
-3 -6 -2 78.89 11.9
-3 -6 -2 84.49 10.3
-3 6 -2 53.49 17.2
-4 -6 -2 130.39 34.2
-4 -6 -2 89.59 17.9
4 -6 2 108.59 18.4
-4 -6 -2 111.49 11.9
4 -6 2 121.69 29.5
-4 -6 -2 69.59 15.7
-4 6 -2 96.49 23.4
-5 -6 -2 12.6 7.3
5 -6 2 21.3 11.4
-5 -6 -2 8.2 22.6
-5 -6 -2 3.8 8.1
5 -6 2 1.9 15.4
-5 6 -2 -0.6 17.6
-6 -6 -2 19.9 9.8
-6 -6 -2 5.1 22.3
6 -6 2 15.6 13.7
2 -7 -2 5.9 14.6
2 -7 -2 9.8 19.4
2 -7 -2 54.29 23.8
-2 -7 2 23.4 19.7
-2 -7 2 1.5 13.3
-2 -7 2 45.7 19.2
-1 -7 2 118.29 26.6
1 -7 -2 100.09 21.6
1 -7 -2 139.69 32.3
1 -7 -2 77.19 30.3
-1 -7 2 115.19 26
0 -7 2 -3.2 14.5
0 -7 2 -2.5 15.1
0 -7 -2 -2 13.8
0 -7 -2 19.3 17.7
1 -7 2 -26 15.9
-1 -7 -2 -15.5 15.8
1 -7 2 2.1 13.4
-1 -7 -2 4 19
-1 -7 -2 -4.9 7.1
1 -7 2 29.9 15.7
-2 -7 -2 154.98 29.3
2 -7 2 116.99 24.3
-2 -7 -2 154.88 34.3
2 -7 2 142.19 34.7
11 0 -3 1.9 9.1
11 0 -3 7.9 9.2
-11 0 3 7.3 18.1
-10 0 3 -13.1 9.5
10 0 -3 4.5 7.9
9 0 -3 8.6 6
-9 0 3 6.1 7.9
-8 0 3 -3.2 2
8 0 -3 -7 4.7
-7 0 3 10.9 7
7 0 -3 -2.6 3.5
-7 0 3 6.7 5.9
7 0 -3 -12.7 5.3
6 0 -3 0.7 2.7
-6 0 3 -0.6 3.8
6 0 -3 5.2 4.2
5 0 -3 4.9 3.7
5 0 -3 -3.8 1.8
-5 0 3 5.8 5
-5 0 3 1.4 2.2
-4 0 3 1.8 3
-4 0 3 -2.4 2
4 0 -3 7.2 3.4
4 0 -3 8.5 4.4
4 0 -3 -3.1 2.1
-3 0 3 -1.7 3
-3 0 3 -0.6 1.8
3 0 -3 -1 1.3
3 0 -3 0.9 1.8
-3 0 3 -0.2 1.8
-2 0 3 0.8 1.5
2 0 -3 1.6 1.7
-2 0 3 0.2 2.2
2 0 -3 5.7 3.1
2 0 -3 1 1.1
-2 0 3 -0.2 1.4
-1 0 3 0.6 1.8
-1 0 3 -1.1 0.9
1 0 -3 -1.5 1.7
1 0 -3 0.7 1.2
1 0 -3 1.3 1.6
0 0 -3 -0.6 1
0 0 3 2.9 1.8
0 0 -3 0.9 1.6
0 0 3 0.2 1.4
1 0 3 2 1.7
-1 0 -3 1 1.9
-1 0 -3 0.2 0.9
-2 0 -3 -2.3 1.5
2 0 3 2.9 2
2 0 3 2.8 2.7
3 0 3 3.5 2.2
-3 0 -3 1.8 3
3 0 3 1.4 1.2
4 0 3 3.1 2
4 0 3 -1.4 2.2
-4 0 -3 6 3.1
5 0 3 0.9 3.3
-5 0 -3 0.8 5.3
5 0 3 0.5 2.9
-6 0 -3 1.5 4.8
6 0 3 1 3.4
6 0 3 3.6 5.3
7 0 3 -2.8 3.7
7 0 3 5 9.1
8 0 3 2.3 6.3
-8 0 -3 -1.3 6.8
-9 0 -3 -7.4 11
9 0 3 -4.6 4.5
-10 0 -3 1 9.4
10 0 3 11.2 7.4
11 0 3 15.5 10.1
-11 0 -3 20.5 18.6
11 -1 -3 201.08 26.7
11 -1 -3 198.28 25.9
-11 -1 3 206.78 40.5
-11 1 3 113.79 42.9
-10 -1 3 8.6 12.1
10 -1 -3 8.9 11.4
10 1 -3 36.1 7
-10 1 3 29 14.6
10 1 -3 20.5 5.8
-9 -1 3 -9.1 8.7
9 -1 -3 11.5 9
9 1 -3 3.3 3.7
9 1 -3 3 4.4
-9 1 3 -2.9 5.9
-8 -1 3 2.8 5.4
8 -1 -3 8.3 6.3
-8 1 3 29.1 13.2
8 1 -3 11 4
8 1 -3 -6.4 12.4
7 -1 -3 278.87 23.3
-7 -1 3 299.57 29.3
-7 -1 3 270.47 28.4
7 -1 -3 233.88 26.8
7 1 -3 256.37 42.3
-7 1 3 333.07 30.8
7 1 -3 244.78 14.2
-7 1 3 228.78 27.4
6 -1 -3 402.36 33.4
-6 -1 3 417.56 33.4
6 -1 -3 449.36 28.3
6 -1 -3 394.76 31.8
-6 -1 3 397.46 31.3
6 1 -3 404.06 18.1
6 1 -3 419.16 33.8
-6 1 3 454.35 35
-6 1 3 392.56 32.9
-5 -1 3 39.6 10.5
-5 -1 3 48.7 11.4
5 -1 -3 24 7.9
5 -1 -3 39.2 9.7
5 -1 -3 29.7 9.3
5 1 -3 42.4 11.4
-5 1 3 37.6 11.1
5 1 -3 41.7 5.4
-5 1 3 26.3 9.4
-4 -1 3 92.39 12.5
-4 -1 3 89.99 14.9
-4 -1 3 99.09 8.3
4 -1 -3 60.79 12.1
4 -1 -3 86.69 15
-4 1 3 88.09 12.1
4 1 -3 97.09 7.7
4 1 -3 101.79 17.1
-4 1 3 77.79 14.6
-3 -1 3 2667.43 73.69
-3 -1 3 2702.13 61.29
-3 -1 3 2537.35 77.39
3 -1 -3 2620.14 74.69
3 -1 -3 2492.15 71.39
3 -1 -3 2500.85 76.49
3 1 -3 2757.92 81.79
-3 1 3 2598.74 74.39
3 1 -3 2656.13 61.19
-3 1 3 2670.23 80.39
2 -1 -3 1224.68 41.1
2 -1 -3 1202.68 45.1
-2 -1 3 1257.67 39.2
-2 -1 3 1182.38 34.3
-2 -1 3 1205.18 45.9
2 -1 -3 1214.48 39.8
-2 1 3 1286.27 47.5
-2 1 3 1225.18 39.5
2 1 -3 1233.18 47.5
2 1 -3 1218.88 35.5
-1 -1 3 7116.39 156.28
1 -1 -3 7060.59 154.38
-1 -1 3 7021 141.79
1 -1 -3 6917.01 144.49
-1 1 3 6723.13 137.09
1 1 -3 6984.3 143.39
-1 1 3 6606.84 144.59
-1 1 3 6739.83 153.58
0 -1 -3 1555.94 52.69
0 -1 3 1652.83 47.6
0 -1 -3 1600.54 43.6
0 1 3 1592.84 44.6
0 1 3 1646.54 53.49
0 1 3 1607.04 35.5
0 1 -3 1652.93 48.8
-1 -1 -3 1160.28 32.8
-1 -1 -3 1209.68 45.9
1 -1 3 1210.58 41.5
1 1 3 1153.28 44.7
1 1 3 1135.89 29.2
-1 1 -3 1202.88 42.6
-1 1 -3 1171.18 26.7
1 1 3 1158.18 33.6
-2 -1 -3 463.45 29
-2 -1 -3 461.95 17.3
-2 -1 -3 493.95 21.4
2 -1 3 409.66 24.2
2 -1 3 445.46 27.8
-2 1 -3 372.46 24
2 1 3 455.75 17.3
2 1 3 476.25 19.7
-2 1 -3 467.75 18.7
-3 -1 -3 105.59 8.2
-3 -1 -3 111.09 11.7
3 -1 3 107.09 12.5
3 -1 3 111.99 14.7
-3 1 -3 127.79 11.6
3 1 3 121.69 8
3 1 3 111.39 11.1
4 -1 3 50.09 12.1
-4 -1 -3 26.9 5.1
4 -1 3 23.2 7.6
-4 -1 -3 18.6 6.9
4 1 3 25.9 7.6
-4 1 -3 46.2 9.4
4 1 3 34.7 4.2
5 -1 3 525.55 32.8
-5 -1 -3 546.55 35.3
5 -1 3 484.85 35.7
5 1 3 525.95 19.1
-5 1 -3 433.96 36.9
-5 1 -3 471.65 30.4
5 1 3 559.54 33.3
6 -1 3 122.59 15.3
-6 -1 -3 91.89 18.6
6 -1 3 103.59 20.5
-6 1 -3 137.09 25.5
-6 1 -3 98.19 18.6
6 1 3 93.29 7.9
6 1 3 130.69 17.4
7 -1 3 277.87 31.1
-7 -1 -3 219.78 27.2
7 -1 3 279.07 24.7
7 1 3 270.37 28
-7 1 -3 294.07 34.2
7 1 3 243.78 12.9
-7 1 -3 352.46 31.3
-8 -1 -3 20.8 12.1
8 -1 3 21.5 10
8 1 3 20.4 4.2
-8 1 -3 23.5 12.4
-8 1 -3 -7.1 11
8 1 3 6.4 8.7
9 -1 3 1.1 8.2
-9 -1 -3 -2.3 8.2
-9 1 -3 -2.6 12
9 1 3 -4 2.2
9 1 3 -2.7 2.8
-10 -1 -3 270.37 44.4
10 -1 3 252.27 27.1
-10 1 -3 168.58 34.7
11 -1 3 -16 11.3
-11 -1 -3 -27.6 14.6
11 -2 -3 -11.3 12.2
-11 -2 3 3 16
-11 2 3 2.5 13.7
-10 -2 3 49.1 17.1
-10 2 3 73.29 21.7
-9 -2 3 252.47 31.7
-9 2 3 192.38 34.3
-8 -2 3 -0.2 7.1
8 -2 -3 4.6 8.9
-8 2 3 -9.2 7.9
7 -2 -3 86.99 20.9
7 -2 -3 76.19 17.4
-7 -2 3 63.79 15.9
-7 -2 3 51.59 16.8
-7 2 3 72.79 18.7
-7 2 3 52.49 16.4
7 2 -3 58.19 16.9
6 -2 -3 18.8 6.6
-6 -2 3 8 6.1
6 -2 -3 23.2 11.2
-6 2 3 38.3 11.3
6 2 -3 19.4 3.9
6 2 -3 17.2 9.2
-6 2 3 43.5 13.2
5 -2 -3 567.84 37.1
-5 -2 3 540.55 19.6
-5 -2 3 593.84 37.7
5 -2 -3 516.15 35.2
5 2 -3 508.45 37.3
5 2 -3 537.85 21.1
-5 2 3 499.95 38.1
-5 2 3 529.05 36.9
4 -2 -3 234.28 22
-4 -2 3 242.68 22
4 -2 -3 200.38 19.9
-4 -2 3 243.88 12.7
4 2 -3 195.18 21.6
-4 2 3 201.28 22.8
-4 2 3 214.48 20.7
4 2 -3 211.58 13.7
-3 -2 3 2193.58 55.59
3 -2 -3 2194.98 67.69
-3 -2 3 2234.38 74.59
3 -2 -3 2146.69 74.69
3 2 -3 2007 58.59
-3 2 3 2160.58 77.39
-3 2 3 2255.17 70.29
3 2 -3 2071.69 76.29
-2 -2 3 2091.29 71.49
2 -2 -3 2121.29 59.79
2 -2 -3 2121.49 72.79
-2 -2 3 2168.58 58.79
-2 2 3 2098.29 61.49
2 2 -3 2048 61.29
1 -2 -3 172.28 18
1 -2 -3 168.78 15.2
1 -2 -3 201.08 11.6
-1 -2 3 173.88 14.5
-1 -2 3 168.28 17.6
-1 2 3 206.98 19.7
-1 2 3 183.28 11.9
1 2 -3 163.18 15.2
0 -2 -3 1090.89 24.3
0 -2 3 1109.99 31.2
0 -2 -3 1035.8 48.2
0 -2 -3 1106.99 39.6
0 -2 3 1160.68 45
0 2 -3 1056.59 44.7
0 2 3 1158.98 49.7
-1 -2 -3 97.79 17
1 -2 3 106.99 13.6
1 -2 3 126.09 7
-1 -2 -3 111.79 10.3
1 2 3 108.29 18.4
-1 2 -3 127.69 8.1
-2 -2 -3 2608.84 62.19
2 -2 3 2109.89 94.69
-2 -2 -3 2773.62 59.19
-2 -2 -3 2474.55 105.29
2 2 3 2682.43 59.19
-2 2 -3 2518.75 62.69
-3 -2 -3 4.7 1.7
-3 -2 -3 1.9 5.1
-3 -2 -3 2.2 2.7
3 -2 3 9 6.1
-3 2 -3 1.2 2.8
3 2 3 -4.2 2.4
4 -2 3 171.08 20.8
-4 -2 -3 168.78 22.9
-4 -2 -3 152.88 8.3
4 -2 3 147.39 17.9
-4 -2 -3 150.98 14.7
-4 2 -3 143.29 14.8
4 2 3 146.99 14.3
5 -2 3 57.29 14
5 -2 3 70.89 17
-5 -2 -3 77.69 14.6
-5 2 -3 100.69 13.6
5 2 3 67.79 12.3
-6 -2 -3 13.3 8.3
6 -2 3 22 9.5
6 -2 3 20.1 9.2
6 2 3 36 11.4
-6 2 -3 29.1 10
-7 -2 -3 93.79 20.2
7 -2 3 100.89 20.8
-7 2 -3 90.89 18.3
7 2 3 108.89 20.3
-8 -2 -3 4.6 10.3
8 -2 3 9 9.8
-8 2 -3 35.1 11.9
8 2 3 12 9.6
-9 -2 -3 36.7 20.3
9 -2 3 87.69 24.7
10 -2 3 37.8 14.5
-10 -2 -3 40.6 16.8
-10 -3 3 -13.4 14.2
-10 3 3 21.2 17.2
-9 -3 3 47 15.8
-9 3 3 45.3 19.3
8 -3 -3 -2 5.7
-8 -3 3 16 12.4
-8 3 3 1.2 11.4
-7 -3 3 216.88 26.6
7 -3 -3 198.58 25.1
-7 3 3 229.08 30.2
7 3 -3 202.08 33.4
-7 3 3 223.48 30.8
-6 -3 3 -1.4 6.7
6 -3 -3 15.9 9.1
6 -3 -3 6.9 6
-6 3 3 14.1 8.2
-6 3 3 10.7 7.5
6 3 -3 0.9 8.5
-5 -3 3 498.35 35.8
-5 -3 3 445.06 18.4
5 -3 -3 425.46 34.1
5 -3 -3 488.55 35.6
-5 3 3 459.75 39.2
-5 3 3 468.65 37
5 3 -3 454.35 37.7
-4 -3 3 465.95 33.4
4 -3 -3 546.85 34.7
-4 -3 3 514.85 23
4 -3 -3 506.75 36.7
4 3 -3 527.55 39
-4 3 3 483.85 35
-4 3 3 525.45 40
3 -3 -3 82.09 16.7
3 -3 -3 78.99 13.3
-3 -3 3 57.99 14
-3 -3 3 53.59 9.7
-3 3 3 72.59 14.3
-3 3 3 66.19 16
2 -3 -3 4.7 3.6
-2 -3 3 11.1 5
-2 -3 3 3.7 3.5
-2 -3 3 2.5 3.9
-2 3 3 -5.1 5
-1 -3 3 116.59 14.3
-1 -3 3 97.49 18.4
1 -3 -3 119.89 20.9
-1 -3 3 111.39 12.9
1 -3 -3 118.69 10.6
-1 3 3 93.19 18.3
0 -3 -3 3.9 1.9
0 -3 3 7.4 5.6
0 -3 -3 -7.7 3.3
0 3 3 2.2 4.2
-1 -3 -3 -0.1 1
-1 -3 -3 -4.4 2.9
1 -3 3 7.3 3.4
-1 -3 -3 -0.2 0.8
1 -3 3 0 2.3
-1 -3 -3 -2 1.7
-1 3 -3 -1.5 1.8
1 3 3 1 3.1
2 -3 3 848.92 48.9
2 -3 3 1013.6 53.89
-2 -3 -3 959.8 25.8
2 -3 3 936.01 32.8
-2 -3 -3 948.41 36.5
-2 -3 -3 952.1 54.99
-2 3 -3 952.5 36.5
3 -3 3 967.4 35.8
3 -3 3 912.41 52.69
-3 -3 -3 944.71 32.9
-3 -3 -3 944.61 32.1
3 -3 3 1019.5 56.39
-3 -3 -3 1026.5 60.39
3 3 3 942.41 35.3
-3 3 -3 977.5 40
4 -3 3 36.1 12
-4 -3 -3 36.4 8.3
4 -3 3 24.7 11.4
-4 -3 -3 32.2 5.1
-4 -3 -3 17 10.4
-4 3 -3 23.3 8.2
4 3 3 32.9 8.7
5 -3 3 -4.5 7.1
-5 -3 -3 16.3 7.9
5 -3 3 1.8 7.1
-5 -3 -3 31.5 14.3
-5 3 -3 1.4 7.9
5 3 3 15.8 7.8
-6 -3 -3 49.99 13.1
6 -3 3 67.59 18.5
-6 3 -3 81.79 16.9
6 3 3 37.2 11.4
-7 -3 -3 225.58 25.9
-7 -3 -3 205.88 38.1
7 -3 3 236.38 30.6
7 3 3 245.88 26
-7 3 -3 238.78 27.6
-8 -3 -3 116.19 31
-8 -3 -3 130.59 24.7
8 -3 3 135.09 28.3
-8 3 -3 177.68 29.2
8 3 3 118.79 24.8
-9 -3 -3 5.4 11.8
-9 -3 -3 -6.8 15
9 -3 3 -13.5 13.8
10 -3 3 18.1 16.9
-10 -3 -3 -20.8 17.7
-10 -3 -3 13.8 14.1
-9 -4 3 -22.7 12.1
-9 4 3 5.6 18
-8 -4 3 33.9 15.7
8 -4 -3 24.3 15.6
-8 4 3 25.6 18
7 -4 -3 248.68 30.7
-7 -4 3 249.88 29.7
-7 4 3 301.77 37.2
7 4 -3 293.37 36.8
-6 -4 3 -1.2 2.2
-6 -4 3 -5.7 6.8
6 -4 -3 7.8 10
6 -4 -3 -4.6 7.7
-6 4 3 -11.7 10.4
6 4 -3 -12.5 9.7
-5 -4 3 595.54 48.5
5 -4 -3 600.14 44.4
-5 -4 3 524.95 39.4
5 -4 -3 654.73 53.39
-5 -4 3 528.95 24.4
-5 4 3 505.05 45
4 -4 -3 141.59 25.1
-4 -4 3 106.69 20.9
-4 -4 3 109.39 21.5
4 -4 -3 136.09 21.9
-4 -4 3 116.99 13.3
-4 4 3 137.09 26.2
-3 -4 3 2.6 7.1
3 -4 -3 15.6 10.1
-3 -4 3 9.4 6.4
3 -4 -3 21.1 8.2
-3 -4 3 10.1 7.2
-3 4 3 48.7 13.6
2 -4 -3 110.79 14.3
-2 -4 3 94.89 19.3
-2 -4 3 104.69 18.6
2 -4 -3 105.39 20.7
-2 -4 3 102.09 18.2
-2 4 3 122.99 23.2
-1 -4 3 80.99 18
-1 -4 3 48.1 11.7
1 -4 -3 77.59 9.6
-1 -4 3 31.8 10.7
1 -4 -3 45.9 14.1
-1 4 3 102.39 21.3
0 -4 -3 190.78 24.4
0 -4 -3 191.28 14.9
0 -4 3 183.28 18
0 -4 -3 166.78 12.6
0 -4 3 203.48 23.2
0 4 3 224.08 27.3
-1 -4 -3 631.44 48
-1 -4 -3 544.05 20.3
-1 -4 -3 555.04 20.6
-1 -4 -3 549.65 32.9
1 -4 3 667.73 46.1
1 -4 3 564.34 30.3
-1 4 -3 548.95 30.8
1 4 3 536.05 43.3
2 -4 3 509.35 41.6
2 -4 3 497.55 39.5
-2 -4 -3 468.05 16.8
-2 -4 -3 486.65 42.7
-2 -4 -3 456.05 27.8
2 -4 3 502.45 27.1
-2 4 -3 494.45 29.3
-3 -4 -3 26.5 12.8
3 -4 3 11.4 4.8
3 -4 3 42.4 13.3
3 -4 3 9.1 9.8
-3 -4 -3 29.9 7.8
-3 -4 -3 21.5 4.9
-3 4 -3 24.7 8.9
-4 -4 -3 318.57 37
-4 -4 -3 308.67 18
4 -4 3 285.17 34.1
4 -4 3 279.37 21.3
-4 -4 -3 286.27 18.4
4 -4 3 287.87 32
-4 4 -3 294.37 25.3
-5 -4 -3 33.8 15.8
-5 -4 -3 37.3 4.9
5 -4 3 29.5 12.1
-5 -4 -3 29.8 9.7
-5 -4 -3 33.5 4
-5 4 -3 31.9 11.4
5 4 3 35.1 10.9
-6 -4 -3 -7.7 5
6 -4 3 -4.5 6.8
-6 -4 -3 1.5 11.6
6 4 3 2.2 8.7
-6 4 -3 16.8 10.2
7 -4 3 177.28 35.2
-7 -4 -3 265.77 27.1
-7 -4 -3 206.88 42
-7 4 -3 184.38 31.5
7 4 3 234.18 28
-8 -4 -3 16.6 15
8 -4 3 32.4 18
-8 -4 -3 5 12.2
8 4 3 23 18
-8 4 -3 2.4 18
-9 -4 -3 127.79 27.9
-9 -4 -3 144.79 37.7
-8 -5 3 -0.2 16.1
-8 -5 3 4.9 12
8 -5 -3 -1.7 12.4
-7 -5 3 48.5 20.9
-7 -5 3 47.6 15.7
7 -5 -3 19.3 14.8
-6 -5 3 97.09 22.3
-6 -5 3 118.09 28.2
6 -5 -3 127.69 25.7
-6 -5 3 118.19 10.6
5 -5 -3 17.4 11.4
-5 -5 3 3.8 9.3
-5 -5 3 7.1 8
5 -5 -3 21.8 13.2
4 -5 -3 4.2 10.9
-4 -5 3 22.6 10.3
4 -5 -3 2.1 8.6
-4 -5 3 12.5 6.6
-4 -5 3 12.7 10.4
-4 5 3 19.1 14.2
3 -5 -3 130.39 26.7
-3 -5 3 92.09 20.5
3 -5 -3 139.99 22.5
-3 -5 3 138.49 18.4
-3 -5 3 168.08 22.4
-3 5 3 132.39 25.8
-2 -5 3 820.32 49.6
-2 -5 3 810.42 52.89
2 -5 -3 874.21 58.59
-2 -5 3 833.52 51.99
2 -5 -3 882.41 43.7
-2 5 3 804.62 57.29
1 -5 -3 102.69 23.4
-1 -5 3 66.79 18.4
-1 -5 3 85.79 18.2
1 -5 -3 69.59 12.9
-1 -5 3 88.19 18.1
-1 5 3 54.29 18.9
0 -5 -3 74.09 20.8
0 -5 -3 51.09 10.3
0 -5 3 28.8 11
0 -5 3 31.7 13.7
0 -5 -3 72.29 9.8
0 5 3 53.19 18
-1 -5 -3 236.88 24.5
1 -5 3 352.46 27.6
-1 -5 -3 315.77 16.7
1 -5 3 327.27 34.6
-1 -5 -3 363.06 38.7
-1 -5 -3 340.77 17.3
-2 -5 -3 157.08 33
2 -5 3 195.08 34.4
-2 -5 -3 214.88 11.2
2 -5 3 206.08 32.3
2 -5 3 235.58 21.3
-2 -5 -3 162.68 19.5
-2 -5 -3 202.58 10.1
-2 5 -3 194.18 21.7
3 -5 3 371.86 26.1
-3 -5 -3 391.86 27.1
-3 -5 -3 391.86 42.9
3 -5 3 372.66 41.6
-3 -5 -3 395.96 15.6
-3 5 -3 406.26 30.8
4 -5 3 20.3 13.5
-4 -5 -3 29.4 6
-4 -5 -3 27.7 8
4 -5 3 41.7 11.4
-4 -5 -3 46.5 18
-4 5 -3 18.6 11.5
5 -5 3 14.3 12.7
-5 -5 -3 12.5 5.2
-5 -5 -3 6.4 5.8
-5 -5 -3 22.2 12.9
-5 -5 -3 15.5 6.8
-5 5 -3 17.9 12.7
-6 -5 -3 -3.9 7.8
-6 -5 -3 11.5 17.3
6 -5 3 20.6 14.3
-6 5 -3 19 14.1
-7 -5 -3 16.4 11.1
7 -5 3 -24.6 11.4
-7 5 -3 10.1 16.3
-6 -6 3 2.9 6.6
-6 -6 3 0.4 14.2
-6 -6 3 19.1 17.5
6 -6 -3 8.3 13.3
5 -6 -3 26 14.8
-5 -6 3 30 14.3
-5 -6 3 16.5 9.4
-5 -6 3 42.2 17.7
-4 -6 3 -6.4 8.7
4 -6 -3 4.2 15.3
4 -6 -3 -14.7 10.5
-4 -6 3 7.8 11.2
-4 -6 3 1.4 14.7
-3 -6 3 77.69 20.8
-3 -6 3 38.2 18.8
3 -6 -3 77.39 22.7
-3 -6 3 40.9 15.5
3 -6 -3 39.7 14.5
-2 -6 3 230.08 30.8
2 -6 -3 195.18 36.5
-2 -6 3 267.77 30.4
2 -6 -3 221.68 23.1
-2 -6 3 230.38 29
1 -6 -3 129.99 17.6
1 -6 -3 188.18 24.3
-1 -6 3 163.48 28.2
1 -6 -3 123.69 29.2
-1 -6 3 151.78 26.4
-1 -6 3 160.48 30.5
0 -6 -3 468.25 26
0 -6 3 445.36 45.9
0 -6 3 530.65 46.3
0 -6 -3 477.45 27.8
0 -6 3 498.35 37.6
0 -6 -3 487.05 49.7
1 -6 3 43.9 17.6
-1 -6 -3 37.9 6
-1 -6 -3 30.2 16.7
-1 -6 -3 45.4 7.1
1 -6 3 45.4 13.3
-2 -6 -3 2 11.7
-2 -6 -3 -12.7 12.1
2 -6 3 -26.4 11.4
-2 -6 -3 1.3 14.2
2 -6 3 4.5 7.7
-3 -6 -3 44.8 15.8
-3 -6 -3 31.8 14
-3 -6 -3 36.9 21.5
3 -6 3 32.5 15.1
3 -6 3 32 11.5
-3 6 -3 25.6 13.9
4 -6 3 -2 8.1
-4 -6 -3 -2.5 8.6
-4 -6 -3 -10.9 12.6
4 -6 3 32.3 18.6
-4 -6 -3 8.7 10.1
-4 6 -3 29.9 13.2
-5 -6 -3 1.2 22.1
5 -6 3 37.5 20
-5 -6 -3 10.3 8.6
-5 6 -3 -26.7 14.9
-2 -7 3 168.98 30.1
-2 -7 3 163.28 31.7
2 -7 -3 167.08 36.7
2 -7 -3 105.09 23.3
1 -7 -3 6.5 18.2
-1 -7 3 29 19.4
-1 -7 3 -18.3 13.5
1 -7 -3 -6.1 16.6
-1 -7 3 9.8 17.2
0 -7 3 8.6 13.5
0 -7 3 -22.8 12.9
0 -7 -3 33.1 18.9
0 -7 -3 6.5 6.2
0 -7 -3 13 15.3
0 -7 3 -4.3 15.4
-1 -7 -3 -1.8 14.4
1 -7 3 16.2 13.1
-1 -7 -3 2.3 18
1 -7 3 0.3 19.3
2 -7 3 20.4 19.8
2 -7 3 11 11.3
-2 -7 -3 39.7 26
-2 -7 -3 15 17.9
11 0 -4 225.68 22.5
-11 0 4 177.38 37
10 0 -4 235.38 21
-10 0 4 232.88 40.3
9 0 -4 73.69 13
-9 0 4 68.09 18.7
-8 0 4 458.75 40.1
8 0 -4 419.36 26.5
7 0 -4 56.39 16.5
-7 0 4 29.6 12.6
-7 0 4 40 13.3
7 0 -4 44.2 10
-6 0 4 -3.2 6.4
6 0 -4 9.9 4.4
-6 0 4 9.4 6.2
6 0 -4 19.6 9.2
-5 0 4 629.94 38
-5 0 4 685.93 39.7
5 0 -4 667.73 29.6
5 0 -4 721.63 41.5
-4 0 4 2504.65 79.19
4 0 -4 2369.46 65.29
4 0 -4 2514.15 80.69
-4 0 4 2395.46 67.69
-4 0 4 2537.25 79.59
4 0 -4 2528.55 77.79
-3 0 4 237.98 18.9
3 0 -4 243.98 15.3
3 0 -4 260.47 18.8
-3 0 4 267.37 16.6
3 0 -4 267.07 20.3
-3 0 4 247.78 19.3
2 0 -4 2531.05 73.09
2 0 -4 2596.84 63.59
-2 0 4 2540.15 71.39
-2 0 4 2565.94 64.49
2 0 -4 2456.25 68.19
-2 0 4 2539.25 70.19
1 0 -4 127.59 12.6
1 0 -4 119.29 10.8
-1 0 4 132.79 12.2
-1 0 4 138.59 10.4
-1 0 4 130.39 11.4
1 0 -4 118.49 9.6
0 0 -4 2521.05 62.09
0 0 4 2558.84 64.89
0 0 4 2451.05 61.49
0 0 -4 2503.25 64.59
-1 0 -4 367.36 18.6
1 0 4 372.56 20.1
-1 0 -4 367.26 20.1
1 0 4 350.76 17.7
2 0 4 114.49 10.2
2 0 4 139.79 13.5
-2 0 -4 112.19 10.8
-2 0 -4 117.99 12.5
3 0 4 205.78 14.6
-3 0 -4 196.08 15.8
3 0 4 205.38 18.2
4 0 4 577.14 34.1
4 0 4 516.25 25.9
-4 0 -4 426.76 41.2
-4 0 -4 516.15 28.4
-5 0 -4 1818.32 76.59
5 0 4 1810.52 57.39
5 0 4 1735.33 68.99
-6 0 -4 252.77 29.1
6 0 4 296.27 20.7
6 0 4 316.97 28.7
7 0 4 178.68 28.3
-7 0 -4 229.58 28.6
-8 0 -4 362.16 60.39
8 0 4 403.76 26.1
9 0 4 111.39 14.3
-9 0 -4 76.59 24
-10 0 -4 43 19.1
10 0 4 62.69 13.4
-11 -1 4 23.9 13.6
-11 1 4 22.6 17.9
11 1 -4 3.3 5.2
11 1 -4 10.5 5.8
-10 -1 4 -3 12
10 -1 -4 25.4 10.8
-10 1 4 8.4 8
10 1 -4 3.2 4.9
-9 -1 4 7.8 7.7
9 -1 -4 -1.6 5.9
9 1 -4 -6.6 4.1
-9 1 4 2.3 6.7
-8 -1 4 3.8 6.9
8 -1 -4 5.8 7.1
-8 1 4 9.6 5.7
8 1 -4 13.5 5.2
7 -1 -4 132.69 23.4
-7 -1 4 97.99 19.9
-7 -1 4 102.69 21.2
7 -1 -4 129.69 19.6
-7 1 4 127.39 22.4
-7 1 4 106.49 21.3
7 1 -4 85.59 20.2
7 1 -4 96.59 10.1
-6 -1 4 267.97 26.8
6 -1 -4 269.27 22.6
-6 -1 4 291.87 27.2
6 -1 -4 312.17 28.6
6 -1 -4 269.97 25.8
-6 1 4 288.67 28.8
-6 1 4 263.97 26.1
6 1 -4 284.17 28.1
6 1 -4 282.17 16.1
-5 -1 4 17.8 6.5
5 -1 -4 28.9 7.8
5 -1 -4 11.8 8.3
-5 -1 4 16.8 4.7
5 -1 -4 26.8 8.1
-5 -1 4 21.7 8.1
5 1 -4 22.8 8.7
-5 1 4 28.8 10.6
5 1 -4 18.6 4.9
-5 1 4 11.1 6
-4 -1 4 1628.34 59.19
4 -1 -4 1591.94 61.79
-4 -1 4 1547.55 65.79
-4 -1 4 1711.23 47.8
4 -1 -4 1648.94 56.39
4 -1 -4 1669.33 61.39
-4 1 4 1557.74 59.09
4 1 -4 1763.82 47.1
4 1 -4 1664.83 66.09
-4 1 4 1607.54 64.69
-3 -1 4 1117.29 35.3
3 -1 -4 1147.49 42.5
-3 -1 4 1097.09 47.6
-3 -1 4 1053.99 41.5
3 -1 -4 1125.09 43.8
3 -1 -4 1114.79 47.4
-3 1 4 1113.69 43.1
3 1 -4 1151.58 35.9
-2 -1 4 110.89 9.3
2 -1 -4 81.59 9.4
-2 -1 4 118.39 10.4
-2 -1 4 125.89 14.2
2 -1 -4 104.39 12.4
2 -1 -4 115.49 11.3
2 1 -4 125.59 10.4
2 1 -4 109.89 14
-2 1 4 97.89 10.8
-2 1 4 99.69 10
-2 1 4 101.99 12.3
-1 -1 4 862.11 40.3
-1 -1 4 891.71 27.7
1 -1 -4 969.7 33.8
1 -1 -4 890.51 30.8
1 -1 -4 913.91 39.7
-1 -1 4 866.91 31.7
1 1 -4 887.71 26.9
-1 1 4 916.11 40
1 1 -4 906.21 33.3
-1 1 4 973 30
-1 1 4 910.51 34.2
0 -1 -4 1515.45 43.9
0 -1 4 1542.85 34.1
0 -1 -4 1540.15 54.49
0 -1 4 1551.94 47.7
0 1 4 1477.45 38.8
0 1 4 1495.05 44.9
0 1 4 1427.46 52.79
0 1 -4 1496.05 48.5
0 1 -4 1534.95 32.9
1 -1 4 338.77 20.7
-1 -1 -4 307.37 15.9
-1 -1 -4 310.87 22.9
-1 1 -4 346.57 21.9
1 1 4 328.57 15
1 1 4 345.57 23.8
-1 1 -4 321.47 12.7
1 1 4 330.57 16.8
-2 -1 -4 207.68 12.4
2 -1 4 174.68 15.5
-2 -1 -4 209.48 19.7
-2 1 -4 171.18 16.7
2 1 4 199.28 12.2
2 1 4 204.98 13.3
3 -1 4 212.78 18.5
-3 -1 -4 183.08 16.2
3 -1 4 203.78 20.9
-3 -1 -4 205.18 13.2
-3 -1 -4 196.38 21.3
-3 1 -4 215.08 19.8
3 1 4 216.38 12.6
3 1 4 211.98 15.8
4 -1 4 95.49 17.3
-4 -1 -4 117.59 14.7
-4 -1 -4 87.39 9.6
4 1 4 94.69 8.3
4 1 4 93.19 17.5
-5 -1 -4 124.79 20.6
5 -1 4 99.09 16.5
5 -1 4 99.09 18.3
5 1 4 120.69 9.4
5 1 4 103.09 16.9
-5 1 -4 91.89 15.9
-6 -1 -4 35.4 11.7
6 -1 4 38.5 11.2
6 -1 4 33.2 12.2
6 1 4 27.6 9.7
-6 1 -4 17.8 8.4
6 1 4 25.2 5.8
-7 -1 -4 123.09 24.1
7 -1 4 180.88 19.9
7 1 4 165.38 11.6
-7 1 -4 131.19 23.4
8 -1 4 269.97 26.5
-8 -1 -4 261.97 31.8
8 1 4 255.77 46.3
-8 1 -4 223.98 28.4
8 1 4 222.58 13.6
-9 -1 -4 186.78 36.1
9 -1 4 217.68 23.6
9 1 4 197.38 11.4
10 -1 4 28.5 12.4
-10 -1 -4 14.7 12.9
-11 -2 4 -3.8 18.4
-11 2 4 9.8 18.2
-10 -2 4 -0.7 12.7
-10 2 4 -1.6 14.6
-9 -2 4 30.5 13.3
-9 2 4 35.3 16.7
8 -2 -4 196.78 24.5
-8 -2 4 221.58 27.7
8 2 -4 177.48 8.7
-8 2 4 196.78 33.4
7 -2 -4 29.7 12.7
7 -2 -4 55.19 15.2
-7 -2 4 43.1 15.1
-7 -2 4 41.8 13.9
-7 2 4 61.59 16.6
7 2 -4 40.3 6.4
-7 2 4 32.2 14.9
7 2 -4 26.9 14
6 -2 -4 684.23 44.7
-6 -2 4 600.24 40.8
6 -2 -4 684.33 44.6
6 -2 -4 636.04 39.8
-6 -2 4 614.44 24.2
-6 -2 4 577.34 41.2
6 2 -4 616.74 24.8
6 2 -4 659.03 46.8
-6 2 4 649.14 44.7
-6 2 4 562.64 43.9
-5 -2 4 51.99 12.6
5 -2 -4 23.9 9.8
-5 -2 4 43.1 7
5 -2 -4 35.3 12
-5 -2 4 29.5 9.8
5 -2 -4 22.2 8.6
-5 2 4 45.6 11.6
5 2 -4 32 6.5
5 2 -4 20.8 9.7
-5 2 4 35.1 11.6
-4 -2 4 161.58 19.6
4 -2 -4 152.68 17.8
4 -2 -4 182.88 20
-4 -2 4 175.88 12.4
4 -2 -4 187.88 18.9
-4 2 4 160.38 17.7
-4 2 4 142.79 19.2
4 2 -4 174.38 13.7
4 2 -4 154.78 19.7
-3 -2 4 384.86 19.7
3 -2 -4 338.77 27.1
3 -2 -4 370.16 23.6
3 -2 -4 349.37 25.4
-3 -2 4 322.27 33.5
3 2 -4 397.56 22.4
3 2 -4 351.46 29.5
-3 2 4 335.47 23.4
-3 2 4 350.76 28.9
-2 -2 4 475.65 32.3
2 -2 -4 531.35 24.8
2 -2 -4 516.45 29.2
2 -2 -4 543.15 34.4
-2 -2 4 519.95 25.2
-2 2 4 501.45 24.9
-2 2 4 554.04 35.6
2 2 -4 515.75 27.7
-1 -2 4 23.9 8
1 -2 -4 41.3 10.1
1 -2 -4 40.3 5.1
1 -2 -4 40.1 11.3
-1 -2 4 31.2 7.8
1 2 -4 32.1 8.4
-1 2 4 51.39 12.3
-1 2 4 42.7 5.5
0 -2 -4 4104.39 99.39
0 -2 4 4077.89 79.69
0 -2 4 4096.69 106.69
0 -2 -4 4167.48 118.09
0 2 -4 3586.04 111.49
0 2 4 4334.77 118.39
-1 -2 -4 20.6 7.8
-1 -2 -4 45.4 8
1 -2 4 28.5 8.6
-1 2 -4 14.8 7.3
1 2 4 18.2 7.7
2 -2 4 -2.8 2.2
-2 -2 -4 -0.9 3.5
2 2 4 1.5 1.3
-2 2 -4 -0.2 1.5
-3 -2 -4 37.3 6
3 -2 4 37.2 11.7
-3 -2 -4 36.7 12.4
-3 -2 -4 36.3 7.1
3 -2 4 57.79 12.8
3 2 4 36.3 6.9
3 2 4 29.2 6.1
-3 2 -4 44.9 8
-4 -2 -4 239.68 19.7
4 -2 4 196.48 24
-4 -2 -4 250.07 13.4
4 -2 4 268.97 26.3
-4 -2 -4 241.18 28.4
4 2 4 265.37 13.8
4 2 4 269.57 19
-4 2 -4 245.58 18.6
-5 -2 -4 274.57 24.2
5 -2 4 297.57 27.9
5 -2 4 260.77 54.49
-5 -2 -4 243.58 30.8
-5 -2 -4 295.67 13.8
5 2 4 251.87 21.5
-5 2 -4 275.07 22.9
6 -2 4 176.98 29.3
6 -2 4 174.38 22.4
-6 -2 -4 156.48 20.5
6 2 4 163.18 19.3
-6 2 -4 166.98 19.7
-7 -2 -4 22 12.5
7 -2 4 26.3 11.2
-7 2 -4 24.6 11.2
7 2 4 31.1 12
-8 -2 -4 224.78 28.5
8 -2 4 147.39 24.8
-8 2 -4 219.28 26.7
8 2 4 198.58 24.7
9 -2 4 213.18 33.2
-9 -2 -4 175.98 34.1
-10 -2 -4 -2.9 15.4
10 -2 4 25.8 16.8
-10 -3 4 150.98 31.6
-10 3 4 123.59 36.1
-9 -3 4 22.1 10.3
-9 3 4 3.1 10.8
8 -3 -4 75.09 19.6
-8 -3 4 64.19 19.3
-8 3 4 82.49 21.6
-7 -3 4 66.79 20.2
7 -3 -4 51.49 16
7 3 -4 49 17.5
-7 3 4 57.79 17.1
6 -3 -4 15.9 8.8
6 -3 -4 42.7 12.3
-6 -3 4 45.3 5.8
6 -3 -4 27.1 12.1
-6 -3 4 44.5 12.9
-6 3 4 20 11.9
6 3 -4 66.49 28.8
-6 3 4 21.7 10.7
5 -3 -4 80.69 18
-5 -3 4 82.19 8.6
5 -3 -4 102.59 19.4
-5 -3 4 86.19 18.7
-5 3 4 78.89 17.5
-5 3 4 61.49 16.8
5 3 -4 79.09 19.1
-4 -3 4 266.97 26.3
-4 -3 4 247.98 16.7
4 -3 -4 233.28 25.1
4 -3 -4 218.48 22.1
-4 3 4 205.78 21.7
-4 3 4 268.87 28.5
4 3 -4 214.28 26.1
3 -3 -4 27.8 8.3
-3 -3 4 30.9 10.3
-3 -3 4 27.7 7.3
3 -3 -4 21 9.3
-3 3 4 30.2 9
-3 3 4 39.2 11.8
2 -3 -4 202.08 23
-2 -3 4 204.48 18.9
-2 -3 4 185.88 21.4
-2 -3 4 179.88 17.1
2 -3 -4 171.58 14.6
2 -3 -4 184.58 20.2
-2 3 4 194.58 16.5
-2 3 4 206.08 23.6
-1 -3 4 264.07 21.9
-1 -3 4 202.28 16.2
1 -3 -4 213.08 24.2
1 -3 -4 215.18 19.9
1 -3 -4 228.58 13.4
-1 -3 4 205.08 23.6
-1 3 4 231.78 24.7
0 -3 -4 376.26 24.9
0 -3 -4 356.36 9.6
0 -3 -4 371.06 10.5
0 -3 4 352.96 27.7
0 -3 4 355.06 18.3
0 -3 -4 346.97 31.2
0 3 4 348.17 30.8
-1 -3 -4 14.1 5.7
1 -3 4 9.2 6.3
1 -3 4 8.4 3
-1 -3 -4 6.1 5.5
1 3 4 7.1 7.2
-2 -3 -4 123.89 12.4
2 -3 4 128.29 8.8
-2 -3 -4 87.89 20.1
2 -3 4 110.19 20.4
-2 3 -4 118.09 10.1
-3 -3 -4 22.5 4.8
-3 -3 -4 22.2 11
3 -3 4 25.1 10.5
-3 -3 -4 22.4 6.3
3 -3 4 17.1 10.1
3 3 4 27.6 5.6
-3 3 -4 8.2 5.3
-4 -3 -4 116.69 9.4
-4 -3 -4 131.69 13.2
4 -3 4 104.79 21.2
-4 -3 -4 100.19 23.8
4 -3 4 106.69 22.4
4 3 4 87.69 11.4
-4 3 -4 122.59 13.8
-5 -3 -4 1843.72 64.69
5 -3 4 1781.42 85.69
-5 -3 -4 1926.71 97.39
5 -3 4 1858.41 85.69
-5 -3 -4 1759.32 41.1
-5 3 -4 1859.91 68.29
5 3 4 1805.52 66.99
-6 -3 -4 684.43 41.4
-6 -3 -4 746.03 61.99
6 -3 4 740.63 52.79
-6 3 -4 747.03 44.1
6 3 4 760.92 42.2
-7 -3 -4 95.29 24.8
-7 -3 -4 168.08 21.8
7 -3 4 132.29 26.9
-7 3 -4 130.69 21.6
7 3 4 118.29 21.3
8 -3 4 110.89 24.3
-8 -3 -4 45.6 20.2
-8 -3 -4 69.79 17.8
-8 3 -4 98.09 22.9
8 3 4 61.29 21.3
9 -3 4 4.8 15.2
9 -4 -4 21.5 17.1
-9 -4 4 5.9 13
-9 4 4 19.4 21.3
8 -4 -4 27.5 15
-8 -4 4 30.1 15.5
-8 4 4 53.39 21.1
-7 -4 4 116.19 23.4
7 -4 -4 126.39 25.1
-7 4 4 181.48 33.4
6 -4 -4 45.8 16.5
-6 -4 4 53.49 15.5
6 -4 -4 24.5 13
-6 -4 4 30.2 6.1
6 4 -4 28.8 15.2
-6 4 4 24.8 12.9
-5 -4 4 -8 7.2
5 -4 -4 -3.1 7.2
5 -4 -4 -4.3 7.7
-5 -4 4 -0.3 3.6
-5 4 4 15.5 9.6
-4 -4 4 120.09 23.2
-4 -4 4 96.89 19.9
4 -4 -4 122.49 19.7
-4 -4 4 114.49 19.4
4 -4 -4 123.99 24.6
-4 4 4 131.19 26.7
-3 -4 4 14.9 8.9
3 -4 -4 13.1 9.6
3 -4 -4 24.8 8.4
-3 -4 4 16.9 7.1
-3 -4 4 31.6 10.6
-3 4 4 19 12.2
-2 -4 4 637.44 38.4
-2 -4 4 596.64 37.2
2 -4 -4 573.34 44.1
2 -4 -4 644.94 31.6
-2 -4 4 552.24 42.4
-2 4 4 616.14 46.9
1 -4 -4 137.29 17.8
-1 -4 4 140.29 16.3
1 -4 -4 146.89 12
-1 -4 4 106.99 19.5
1 -4 -4 129.29 24.8
-1 -4 4 127.39 23.7
-1 4 4 133.29 24.9
0 -4 -4 -1.4 5.1
0 -4 -4 3.3 2.2
0 -4 -4 10.8 2.6
0 -4 4 11.4 5
0 -4 -4 3 5.1
0 -4 4 11.6 7.5
0 4 4 7.3 10.6
-1 -4 -4 -5.3 4.5
1 -4 4 -4.2 5.4
1 -4 4 -4.7 2.8
-1 -4 -4 -4.3 4.7
1 4 4 0.9 7.2
2 -4 4 263.97 30.1
2 -4 4 296.47 31.8
-2 -4 -4 237.18 20.2
2 -4 4 257.77 16.1
-2 -4 -4 211.28 35.7
-2 4 -4 262.67 18.3
3 -4 4 80.09 20.1
3 -4 4 48.6 15.9
-3 -4 -4 86.79 22.8
3 -4 4 84.39 9.9
-3 -4 -4 71.39 11.7
-3 4 -4 55.59 11.2
4 -4 4 142.79 36.1
-4 -4 -4 171.28 12.6
-4 -4 -4 135.69 30.9
-4 -4 -4 201.68 14.7
-4 4 -4 212.48 19.3
-5 -4 -4 6.9 5.6
-5 -4 -4 0.3 9.2
5 -4 4 3.6 9.9
-5 -4 -4 1.4 3
-5 -4 -4 1.1 2.5
5 4 4 -12.4 5.4
-5 4 -4 -10.1 7.4
6 -4 4 27.4 13.5
-6 -4 -4 18.5 12.3
-6 -4 -4 10.6 9.2
-6 4 -4 -1 8.4
6 4 4 -7.7 9.8
-7 -4 -4 136.49 22.6
-7 -4 -4 80.89 28.9
7 -4 4 194.78 35.8
7 4 4 112.19 21.2
-7 4 -4 145.99 25.3
-8 -4 -4 67.99 17.9
-8 -4 -4 21.1 30.2
8 -4 4 19.3 18.7
8 4 4 57.09 20.9
-8 4 -4 38.2 20.2
-8 -5 4 -15.2 9.9
8 -5 -4 -8.1 12.2
-8 -5 4 7.5 17
-7 -5 4 -20.1 11.8
-7 -5 4 23.8 13.4
7 -5 -4 16.1 11.2
6 -5 -4 -9.7 9.7
-6 -5 4 -2.2 10.4
-6 -5 4 -5.3 4
-6 -5 4 18.7 13.5
5 -5 -4 16.1 12
-5 -5 4 28.8 12.9
-5 -5 4 6.5 8.2
5 -5 -4 -2.7 10.2
-5 -5 4 12.8 5.6
-4 -5 4 95.99 16.3
4 -5 -4 118.89 23.1
-4 -5 4 101.89 23.9
-4 -5 4 65.09 18.4
4 -5 -4 89.89 21.5
-3 -5 4 230.68 27.8
-3 -5 4 217.78 22.7
3 -5 -4 255.37 23.5
3 -5 -4 188.48 31.8
-3 -5 4 191.98 25.5
-3 5 4 233.88 38.1
-2 -5 4 80.99 18.2
2 -5 -4 58.09 11.7
2 -5 -4 68.39 22.4
-2 -5 4 67.99 19.7
-2 -5 4 71.19 15.4
-2 5 4 28.5 12.5
-1 -5 4 73.59 20.2
-1 -5 4 115.59 19.5
1 -5 -4 103.99 23.9
1 -5 -4 111.19 12.2
1 -5 -4 68.59 17.3
-1 -5 4 97.49 21.5
-1 5 4 75.19 21.9
0 -5 4 197.18 19.9
0 -5 -4 173.48 11.5
0 -5 -4 170.28 10.5
0 -5 -4 158.18 24.3
0 -5 -4 185.98 32.8
0 -5 4 190.28 25.2
0 5 4 128.69 26.8
1 -5 4 100.79 13.4
-1 -5 -4 112.29 26.2
-2 -5 -4 193.38 35.4
2 -5 4 241.88 18.2
2 -5 4 289.67 35.2
-2 -5 -4 218.78 23.4
3 -5 4 72.89 21.4
3 -5 4 66.49 11.1
-3 -5 -4 85.09 25.4
-3 -5 -4 100.09 16.2
-3 5 -4 68.19 13.3
4 -5 4 12.9 12.4
-4 -5 -4 -14.3 6
-4 -5 -4 -2.2 11.9
-5 -5 -4 17.4 5.5
5 -5 4 24.9 12.3
-5 -5 -4 30.9 8.1
-5 5 -4 13.5 11.8
6 -5 4 36.4 16.6
-6 -5 -4 2.3 13
-6 -5 -4 -12.2 6.8
-6 5 -4 -17.9 12.3
7 -5 4 5.5 9.4
-7 -5 -4 12.8 18.4
-7 5 -4 1 18.3
-6 -6 4 29.1 21.6
-6 -6 4 7.9 8.1
-6 -6 4 -11.7 12.2
6 -6 -4 13.5 16
5 -6 -4 66.69 22.2
-5 -6 4 80.09 20.5
-5 -6 4 22.8 15.3
-4 -6 4 74.59 16.3
4 -6 -4 76.29 24.4
-4 -6 4 74.79 21.2
4 -6 -4 98.19 21.7
-4 -6 4 79.39 22.9
-3 -6 4 19.8 10.7
3 -6 -4 31.4 12.9
3 -6 -4 25.9 16.8
-3 -6 4 36.3 14.1
-3 -6 4 37.6 15.3
-2 -6 4 -0.6 14.1
2 -6 -4 21.7 9.9
-2 -6 4 5.9 10.9
2 -6 -4 17.7 10.6
-2 -6 4 16.7 12.3
1 -6 -4 34 9.4
1 -6 -4 24.5 14
1 -6 -4 38.9 9
-1 -6 4 40.8 14.5
-1 -6 4 39 18.1
-1 -6 4 19.9 11.3
0 -6 -4 86.09 5.8
0 -6 -4 133.79 32.2
0 -6 4 107.19 43.7
0 -6 -4 75.69 6.1
0 -6 4 88.39 23.1
0 -6 4 70.99 16.8
1 -6 4 -21 8.5
-1 -6 -4 -12.9 10.6
2 -6 4 18.9 8.5
-2 -6 -4 42 16.1
2 -6 4 11.7 14.6
-2 -6 -4 -0.7 15.3
-3 -6 -4 120.49 23
-3 -6 -4 103.79 19.3
3 -6 4 142.59 15.5
-3 -6 -4 132.39 35.9
3 -6 4 126.59 29
-4 -6 -4 119.09 20.3
-4 -6 -4 103.99 17.4
-4 -6 -4 78.19 29.7
-4 6 -4 97.19 18.7
-5 -6 -4 19.8 11.1
5 -6 4 32.9 15.4
-5 -6 -4 14.8 22.5
2 -7 -4 40.6 25.1
-2 -7 4 45.9 19.3
-2 -7 4 40.1 19.8
-2 -7 4 31.4 17
-1 -7 4 31.2 17.1
1 -7 -4 11.6 20.9
-1 -7 4 16.3 14.1
-1 -7 4 -2.5 17
0 -7 4 21.1 19.6
0 -7 4 44.5 23.2
0 -7 -4 59.49 24.9
0 -7 4 55.49 16.8
1 -7 4 2.4 20
-1 -7 -4 15.8 16.9
1 -7 4 18.6 20
1 -7 4 23 13
-1 -7 -4 1.1 19.4
11 0 -5 -11.2 8.5
-11 0 5 -12.1 11.4
10 0 -5 -2.9 8
-10 0 5 -20.2 8.7
-9 0 5 0.6 8.9
9 0 -5 14.1 7.3
-8 0 5 -8 7.3
8 0 -5 -8.4 5.1
-7 0 5 5.5 6.6
-7 0 5 -4.4 2.3
7 0 -5 -6.9 4.9
7 0 -5 0.2 4.7
6 0 -5 2.1 3.3
-6 0 5 4.8 5.3
6 0 -5 2.7 3.5
-6 0 5 -2.1 5.4
-5 0 5 0.7 3.2
5 0 -5 1.1 2.5
-5 0 5 -1.7 3
5 0 -5 0.3 1.9
5 0 -5 -1.1 3.8
-4 0 5 1.9 2.2
4 0 -5 -2.6 2
-4 0 5 2.9 2.4
-4 0 5 3.8 3.1
-3 0 5 -1 2.2
-3 0 5 1.7 1.7
-3 0 5 0.3 3
3 0 -5 1.2 2.1
3 0 -5 -1.7 2
3 0 -5 -0.1 1
-2 0 5 1.8 2.5
2 0 -5 0.1 1.5
2 0 -5 1.6 2
-2 0 5 -0.3 1.9
-2 0 5 4.8 3.4
2 0 -5 -0.1 1.7
1 0 -5 -1.3 1.7
1 0 -5 0.9 2
-1 0 5 -1.5 0.9
1 0 -5 1.5 1.7
-1 0 5 0.3 1.1
0 0 5 -0.4 2.5
0 0 5 -0.1 1.8
0 0 -5 1.9 2.1
0 0 -5 0.4 1.8
1 0 5 -0.1 1.7
-1 0 -5 0 2.2
-1 0 -5 0.4 2
1 0 5 0.3 2.1
-2 0 -5 2 2.4
-2 0 -5 1.1 3
2 0 5 -0.7 1.8
-3 0 -5 -4.3 1.9
3 0 5 0.6 1.9
-3 0 -5 -4.4 2.1
3 0 5 -1.8 3.2
4 0 5 1.8 3
-4 0 -5 2.4 4.2
4 0 5 3.4 4.1
5 0 5 3.7 3.4
5 0 5 4.2 3.3
6 0 5 0.8 4.6
6 0 5 0.7 4.1
7 0 5 -8 3.7
7 0 5 1.9 6
8 0 5 -3.9 5.2
9 0 5 6.9 6.8
10 0 5 -11.8 7.4
-11 -1 5 -1.2 12.9
-11 1 5 6.9 15.5
11 1 -5 -2.7 6.6
10 -1 -5 29.9 11.4
-10 -1 5 -0.3 9.9
-10 1 5 -3.9 10.5
10 1 -5 5.4 6.3
-9 -1 5 -0.3 6.3
9 -1 -5 -7.8 7.8
9 1 -5 8 6
-9 1 5 1.8 8.9
-8 -1 5 -0.6 6.4
8 -1 -5 0.9 6.1
7 -1 -5 445.56 39.2
7 -1 -5 489.65 39.2
7 -1 -5 478.35 31.8
-7 -1 5 460.65 38.4
-7 -1 5 480.35 39.1
7 1 -5 454.85 23.7
-7 1 5 524.05 40.6
7 1 -5 462.15 41.4
-7 1 5 407.96 37.8
6 -1 -5 75.59 13.7
-6 -1 5 49.5 13.1
6 -1 -5 97.09 19.2
6 -1 -5 66.89 15.5
-6 -1 5 70.29 16
-6 1 5 71.99 18.4
6 1 -5 70.89 8.9
-6 1 5 69.39 14.9
6 1 -5 63.19 16.1
-5 -1 5 206.08 20.9
5 -1 -5 235.88 19.9
-5 -1 5 182.18 20.8
5 -1 -5 220.98 22.8
5 -1 -5 247.88 23.8
-5 -1 5 216.98 16.1
5 1 -5 203.48 14.7
-5 1 5 220.28 23.8
5 1 -5 199.78 23.4
-5 1 5 226.78 21.9
4 -1 -5 82.79 14.8
-4 -1 5 70.49 8.4
4 -1 -5 88.49 14
4 -1 -5 71.49 14.1
-4 -1 5 84.79 15.5
-4 -1 5 61.49 12.8
4 1 -5 89.89 17.7
-4 1 5 60.29 14.1
4 1 -5 75.69 8.7
3 -1 -5 148.09 14
3 -1 -5 131.89 15.6
-3 -1 5 141.79 11.8
-3 -1 5 125.79 13.1
3 -1 -5 156.58 15.6
-3 -1 5 160.58 17.7
3 1 -5 138.39 12
-3 1 5 166.68 15.8
-3 1 5 154.98 14.9
-3 1 5 131.79 16.4
3 1 -5 122.29 16.4
-2 -1 5 117.89 11
2 -1 -5 129.89 12.5
-2 -1 5 128.79 15.3
2 -1 -5 111.39 11.7
2 -1 -5 99.59 13.5
-2 -1 5 134.29 11.6
-2 1 5 107.39 14.3
-2 1 5 111.69 11.4
2 1 -5 140.79 16.9
-2 1 5 117.09 12.4
2 1 -5 139.89 12
2 1 -5 127.59 11.2
-1 -1 5 808.02 32.3
-1 -1 5 798.62 41.3
1 -1 -5 825.32 32.6
1 -1 -5 823.02 32.7
1 -1 -5 887.01 40.9
-1 -1 5 839.02 28.8
-1 1 5 831.22 34.2
1 1 -5 850.61 27.2
-1 1 5 766.92 38.7
-1 1 5 841.22 30.6
1 1 -5 847.42 34.1
0 -1 5 13 3.2
0 -1 5 18.7 5.5
0 -1 -5 17.1 6.1
0 -1 -5 24.1 5.5
0 1 -5 15.1 3.1
0 1 -5 14.6 4.9
0 1 5 22.6 5.1
0 1 5 16 4.8
0 1 5 27.4 7.8
-1 -1 -5 1690.53 63.49
-1 -1 -5 1710.83 49.5
1 -1 5 1727.73 56.29
1 1 5 1685.23 61.99
-1 1 -5 1706.53 58.49
1 1 5 1688.63 49.99
-1 1 -5 1715.33 43.7
2 -1 5 4.7 4.1
-2 -1 -5 14.5 6.6
-2 -1 -5 6.2 3.1
-2 1 -5 5.9 3.2
2 1 5 6.1 3.4
-2 1 -5 6.3 4.6
2 1 5 5.6 3.4
-3 -1 -5 28.1 8.9
3 -1 5 21.4 10.4
-3 -1 -5 34.3 6.7
-3 1 -5 44.8 10.7
3 1 5 34.9 6.6
3 1 5 34.8 8
-4 -1 -5 212.28 24.2
4 -1 5 220.88 20
-4 -1 -5 192.48 15.4
4 -1 5 252.37 25.5
4 1 5 214.48 18.5
4 1 5 221.98 14.5
-4 1 -5 236.08 23
-5 -1 -5 339.37 29.6
5 -1 5 351.96 31.8
5 -1 5 389.76 28.3
-5 -1 -5 323.07 21.4
5 1 5 338.67 25.9
5 1 5 360.66 18.9
-6 -1 -5 10.1 8.4
6 -1 5 8.6 6.8
6 -1 5 -1.5 4.7
6 1 5 18.3 7.4
-6 1 -5 9.8 7.7
6 1 5 20.6 5.7
-7 -1 -5 58.89 17.5
7 -1 5 47.3 13.3
-7 1 -5 84.69 21.3
7 1 5 51.69 8.4
7 1 5 78.49 17.9
-8 -1 -5 106.19 24
8 -1 5 115.89 21
-8 1 -5 86.59 24.8
8 1 5 120.89 11.2
9 -1 5 100.29 18.6
-9 -1 -5 93.79 26
9 1 5 79.59 8.7
10 -1 5 -15.8 9.2
10 1 5 4.6 3.6
10 1 5 -0.3 2.8
-11 -2 5 -9.4 16.4
-11 2 5 -6 22.8
-10 -2 5 0.2 13.5
-10 2 5 -2 9
-9 -2 5 265.67 33.6
9 2 -5 210.98 11.7
-9 2 5 277.97 35.4
-8 -2 5 100.59 22.3
8 -2 -5 121.79 23.4
8 -2 -5 101.09 20
8 2 -5 91.39 9.9
-8 2 5 99.39 23.9
-7 -2 5 148.19 26
-7 -2 5 196.08 26.3
7 -2 -5 145.19 25.8
7 -2 -5 193.38 25.1
7 -2 -5 164.68 21.8
-7 2 5 201.58 24.5
7 2 -5 158.28 29.1
7 2 -5 191.78 14.3
-7 2 5 191.68 32.6
6 -2 -5 269.97 28.4
6 -2 -5 253.97 25.5
-6 -2 5 311.77 30.9
-6 -2 5 272.17 17.4
6 -2 -5 287.87 28.8
-6 -2 5 252.67 26.9
6 2 -5 301.07 31.9
-6 2 5 275.87 38.4
-6 2 5 259.77 27.9
6 2 -5 293.67 18.4
5 -2 -5 1158.68 56.79
5 -2 -5 1279.87 57.59
-5 -2 5 1304.17 42.3
5 -2 -5 1307.77 62.59
-5 -2 5 1366.46 59.29
-5 -2 5 1317.67 63.09
-5 2 5 1243.38 58.59
5 2 -5 1329.27 67.49
-5 2 5 1263.27 66.29
5 2 -5 1299.97 44.5
4 -2 -5 398.16 32.3
4 -2 -5 412.56 29.5
-4 -2 5 434.06 22.2
-4 -2 5 473.35 34.8
4 -2 -5 417.96 28.9
-4 -2 5 419.76 28.3
4 2 -5 426.86 35.4
-4 2 5 456.95 30
4 2 -5 413.86 23.7
-4 2 5 472.75 37.2
-3 -2 5 1866.61 74.09
-3 -2 5 1888.71 55.89
-3 -2 5 1852.91 59.99
3 -2 -5 1879.71 73.49
3 -2 -5 1843.12 65.89
3 -2 -5 1889.91 61.89
3 2 -5 1782.62 76.39
3 2 -5 1857.41 59.69
-3 2 5 1870.11 61.39
-3 2 5 1813.32 75.39
-2 -2 5 6.8 7.5
-2 -2 5 25.9 6.1
-2 -2 5 20.5 5.6
2 -2 -5 28.6 9.2
2 -2 -5 7.5 4.9
2 -2 -5 23.8 6.2
-2 2 5 18.8 8
2 2 -5 21.6 7.4
-2 2 5 23 6.1
1 -2 -5 -1.4 1.8
1 -2 -5 -1.4 2.6
-1 -2 5 0 2
-1 -2 5 1.8 1.8
-1 2 5 -4.8 2.3
1 2 -5 -1 3
-1 2 5 1.5 1.7
0 -2 5 639.94 34
0 -2 -5 614.14 49.8
0 2 5 636.94 31.5
0 2 5 633.74 39.1
0 2 -5 621.14 35.5
0 2 5 652.43 15.7
-1 -2 -5 109.49 11.1
-1 -2 -5 94.29 18
1 -2 5 124.39 15.2
1 2 5 91.59 17
1 2 5 93.69 10.9
-1 2 -5 92.59 16.6
-2 -2 -5 186.28 22.7
-2 -2 -5 215.08 14.6
2 -2 5 161.68 18.9
-2 2 -5 150.08 19
2 2 5 205.18 15.3
2 2 5 193.38 9.9
-2 2 -5 212.18 10.1
-3 -2 -5 311.37 30.8
-3 -2 -5 296.97 16.9
3 -2 5 274.67 25.1
3 -2 5 299.87 28.9
3 2 5 286.07 16.6
3 2 5 284.97 17.4
-3 2 -5 307.67 16.9
-4 -2 -5 283.17 31.4
4 -2 5 289.07 29.9
4 -2 5 293.87 27
-4 -2 -5 299.77 16.9
-4 2 -5 268.27 19.1
4 2 5 291.97 16.7
4 2 5 283.87 19.8
5 -2 5 585.04 40.8
-5 -2 -5 530.45 23.5
-5 -2 -5 551.74 35.4
-5 -2 -5 555.24 46.9
5 -2 5 489.25 41.6
5 2 5 557.74 32.1
5 2 5 546.45 22.3
-5 2 -5 528.45 32
6 -2 5 61.99 15.6
-6 -2 -5 42.6 16.8
-6 -2 -5 49.3 12.5
6 2 5 64.69 13.9
-6 2 -5 49.4 13.7
6 2 5 59.99 6
-7 -2 -5 127.89 28.5
-7 -2 -5 170.68 27.5
7 -2 5 118.69 22.5
7 2 5 145.99 24.2
-7 2 -5 103.99 20.8
8 -2 5 11.6 19.2
-8 -2 -5 -12 11.9
-8 -2 -5 39.1 15.8
-8 2 -5 -6.4 10.9
8 2 5 15.1 12.5
9 -2 5 -4.7 9.9
-9 -2 -5 13.9 13.8
-9 -2 -5 -5.5 14
-10 -2 -5 26.3 23.8
-10 -2 -5 -21.5 18.3
-10 -3 5 62.19 21.3
-10 3 5 23.8 22.8
9 -3 -5 45.6 18.6
-9 -3 5 47.6 19.5
-9 3 5 54.99 24.2
-8 -3 5 11.8 7.3
8 -3 -5 34 14
-8 3 5 15.1 13.1
-7 -3 5 -13.1 4.9
-7 -3 5 6.3 4.2
-7 3 5 -4.5 5.1
-6 -3 5 0.7 4.8
-6 -3 5 6.5 4
6 -3 -5 -10 6.1
6 -3 -5 8.4 9
-6 -3 5 -6.1 7.1
6 -3 -5 -13.1 6.9
-6 3 5 -6 6.2
6 3 -5 -4.8 7
-6 3 5 -6 5.8
6 3 -5 1.1 3.5
-5 -3 5 74.79 9.1
5 -3 -5 55.09 15.4
5 -3 -5 58.29 14.9
5 -3 -5 96.29 19.1
5 3 -5 73.59 19.6
5 3 -5 72.69 12.4
-5 3 5 67.99 19.9
-5 3 5 79.69 17.5
-4 -3 5 372.36 22.2
-4 -3 5 413.06 34.6
4 -3 -5 301.47 28.5
4 -3 -5 331.77 31.9
4 -3 -5 346.27 26.9
-4 3 5 332.27 27.5
4 3 -5 350.06 25.4
4 3 -5 344.47 34.1
-4 3 5 317.77 33.1
-3 -3 5 295.27 28.8
3 -3 -5 318.77 24.4
-3 -3 5 331.37 23.1
3 -3 -5 391.66 33.5
3 -3 -5 301.77 27.5
-3 3 5 370.06 25.9
3 3 -5 325.17 25.4
-3 3 5 358.96 33.7
2 -3 -5 460.55 24
2 -3 -5 503.85 38.4
-2 -3 5 446.06 36
2 -3 -5 421.56 30.7
-2 -3 5 445.46 28.6
-2 3 5 444.06 24.6
2 3 -5 430.26 30.8
-2 3 5 426.46 36.7
-1 -3 5 332.07 32
1 -3 -5 335.47 15.5
1 -3 -5 332.07 31.3
-1 -3 5 296.97 18.2
1 -3 -5 296.27 24.3
-1 -3 5 327.77 25.2
1 3 -5 292.47 26.3
-1 3 5 267.37 28.6
0 -3 5 64.09 14.2
0 -3 5 41.5 4.7
0 -3 -5 48.6 14.2
0 -3 -5 49.8 11
0 3 -5 36.4 11.2
0 3 5 53.69 15.3
-1 -3 -5 16 7.3
1 -3 5 9.2 5
-1 -3 -5 6 4.4
1 3 5 10 5.9
-2 -3 -5 151.78 13.7
2 -3 5 167.78 21.1
-2 -3 -5 133.79 25.2
-2 3 -5 151.98 7.2
3 -3 5 127.49 23.9
3 -3 5 99.39 20.7
-3 -3 -5 108.89 11.2
-3 -3 -5 134.49 26.7
-3 3 -5 108.39 10.1
3 3 5 109.69 7.7
-4 -3 -5 274.67 16.1
4 -3 5 305.47 31.9
-4 -3 -5 292.37 34.3
4 -3 5 241.78 28
-4 3 -5 275.37 19.9
4 3 5 276.07 18.3
5 -3 5 91.49 21.1
-5 -3 -5 62.79 7.4
-5 -3 -5 46.9 17.1
-5 -3 -5 53.09 12.3
-5 3 -5 81.19 17.3
5 3 5 55.19 11
-6 -3 -5 3.6 7.4
6 -3 5 1 8.1
-6 3 -5 2.4 6.5
6 3 5 0.4 6.2
7 -3 5 0 10.9
-7 -3 -5 -5 6.9
-7 -3 -5 12 10.1
-7 3 -5 20.8 13
7 3 5 11.2 11.4
-8 -3 -5 12.1 12.4
8 -3 5 3.8 9.4
-8 -3 -5 -24.6 11.1
8 3 5 5 14.6
-8 3 -5 21.2 14.3
9 -3 5 -11.7 13.8
-9 -3 -5 -15.3 12.1
9 -4 -5 1.3 13.1
-9 -4 5 8 12.6
-9 4 5 12.6 18.4
-8 -4 5 0 11.8
8 -4 -5 2.9 13.8
-8 4 5 19.9 13.5
7 -4 -5 50.09 19.4
-7 -4 5 42.1 6.6
-7 -4 5 36.3 15.1
-7 4 5 23.8 16.1
-6 -4 5 87.79 10
6 -4 -5 102.89 23.2
6 -4 -5 132.89 24.2
-6 -4 5 112.69 23
-6 4 5 65.89 17.8
6 4 -5 89.39 26.3
5 -4 -5 457.25 41.3
5 -4 -5 449.56 36.3
-5 -4 5 456.85 40.3
-5 4 5 499.05 40
-5 4 5 443.46 49.7
-4 -4 5 54.79 11.5
-4 -4 5 52.19 13.7
4 -4 -5 84.19 16.5
4 -4 -5 74.09 19.3
-4 -4 5 32.1 11.6
-4 4 5 77.69 20.7
3 -4 -5 58.09 14.9
3 -4 -5 51.09 14.5
-3 -4 5 60.59 14.4
-3 -4 5 45.6 14.8
-3 -4 5 53.79 12.8
3 -4 -5 58.59 12.2
-3 4 5 58.19 15.8
-2 -4 5 839.62 55.09
-2 -4 5 898.01 43.9
-2 -4 5 724.93 42.6
2 -4 -5 873.31 56.59
2 -4 -5 841.42 49.6
2 -4 -5 837.42 35.4
-2 4 5 684.13 85.19
-1 -4 5 -0.6 5.5
-1 -4 5 4.6 4.5
1 -4 -5 4.5 6.7
-1 -4 5 2.3 4.7
1 -4 -5 3.5 5
0 -4 -5 60.69 13.7
0 -4 5 81.89 17
0 -4 5 78.89 9.3
0 -4 -5 94.29 21.8
0 4 5 41.6 17.6
1 -4 5 582.14 43.9
-1 -4 -5 599.94 49.3
1 -4 5 545.85 19.9
-1 -4 -5 548.05 33.8
1 4 5 577.34 48.3
2 -4 5 157.68 26.6
-2 -4 -5 127.39 15.3
-2 -4 -5 154.98 30
-3 -4 -5 37.8 13.1
3 -4 5 53.59 16.2
-3 -4 -5 27.2 8
3 -4 5 40.7 16.4
-3 4 -5 19.8 6.5
4 -4 5 388.46 40.7
-4 -4 -5 408.26 44.9
-4 4 -5 398.66 24.7
-5 -4 -5 150.48 34.4
5 -4 5 171.78 30.8
-5 -4 -5 159.68 11.3
5 4 5 154.98 15.1
-6 -4 -5 93.69 26
6 -4 5 135.39 29.8
-6 4 -5 114.09 20
7 -4 5 17.9 13.8
-7 -4 -5 22.7 16.1
-7 -4 -5 26.4 11.9
-7 4 -5 9.5 13.3
8 -4 5 28.9 17.1
-8 -4 -5 46.5 26.6
-8 -4 -5 65.99 19.5
8 4 5 27.9 18.4
-8 4 -5 36.3 23.7
-8 -5 5 19 16.6
-8 -5 5 -10.2 12.1
8 -5 -5 3.3 13.9
-7 -5 5 74.69 8.8
-7 -5 5 67.19 23.8
7 -5 -5 36.4 20.9
-7 -5 5 77.99 23.8
-6 -5 5 43.7 12.3
6 -5 -5 48 19.9
-6 -5 5 71.19 20.4
-6 -5 5 56.49 19.2
-5 -5 5 109.69 16.5
5 -5 -5 118.39 23.4
-5 -5 5 121.79 25.9
-5 -5 5 102.09 24.1
5 -5 -5 173.28 32
4 -5 -5 220.38 37.1
-4 -5 5 184.88 31.1
4 -5 -5 168.78 22.2
-4 -5 5 180.18 29.9
-4 -5 5 232.88 22.7
-3 -5 5 287.77 26.2
-3 -5 5 269.97 32.8
3 -5 -5 276.97 24.5
-3 -5 5 284.57 30.2
-2 -5 5 388.66 32.9
2 -5 -5 320.07 22.6
2 -5 -5 269.97 34.5
-2 -5 5 282.37 26.9
-2 -5 5 368.16 38.7
1 -5 -5 132.19 28
1 -5 -5 169.38 13.5
-1 -5 5 154.28 26.2
-1 -5 5 183.58 19.6
1 -5 -5 187.48 12.2
-1 -5 5 162.88 32.4
0 -5 5 561.84 30.2
0 -5 5 526.25 50.69
0 -5 5 582.84 45
0 -5 -5 463.75 57.09
0 -5 -5 515.65 38.6
-1 -5 -5 11.7 10.2
-1 -5 -5 29.6 12.7
1 -5 5 17.7 12.8
1 -5 5 19.1 5.5
2 -5 5 320.07 16.2
2 -5 5 305.07 36.9
-2 -5 -5 313.17 39.9
-2 -5 -5 259.87 24.9
-3 -5 -5 88.99 15.6
-3 -5 -5 93.49 25.3
3 -5 5 69.09 19.5
-4 -5 -5 61.09 24.1
-4 -5 -5 76.09 13.4
4 -5 5 109.99 26.8
-4 5 -5 99.49 12.4
-5 -5 -5 25.9 7.1
5 -5 5 14.6 16.6
-5 -5 -5 25.4 22.8
-5 -5 -5 13 8.8
-5 5 -5 43.8 12.3
-6 -5 -5 13 19.5
6 -5 5 -19.6 16.9
-6 5 -5 -0.5 13.6
-7 -5 -5 116.39 34.5
7 -5 5 77.79 27.3
6 -6 -5 45.6 20.8
-6 -6 5 18.2 19.1
-6 -6 5 23.8 16.7
-6 -6 5 -8.3 8.8
-5 -6 5 7.6 8.7
5 -6 -5 47.8 18.4
-5 -6 5 6.2 13
-5 -6 5 -3.7 11.5
4 -6 -5 -1.4 13.1
4 -6 -5 -9.9 11.4
-4 -6 5 2.9 12.6
-4 -6 5 0.3 11.5
-4 -6 5 -13.1 9
-3 -6 5 13.8 14
3 -6 -5 41.1 16.8
-3 -6 5 88.19 27.9
3 -6 -5 37.8 12.9
-3 -6 5 61.99 20.5
2 -6 -5 19.4 14.9
-2 -6 5 23.4 9.4
-2 -6 5 8.8 10.4
-2 -6 5 7.3 12.7
-1 -6 5 144.09 19.8
1 -6 -5 93.39 8.6
-1 -6 5 165.28 28.8
-1 -6 5 51.59 19.1
1 -6 -5 105.99 8
1 -6 -5 84.99 24.9
0 -6 -5 179.58 34.3
0 -6 5 172.68 19.2
0 -6 5 211.78 37.7
0 -6 5 185.58 33.8
-1 -6 -5 51.79 20.6
1 -6 5 40 9.7
1 -6 5 13.7 14.2
2 -6 5 16.3 6.1
2 -6 5 34.2 18.8
-2 -6 -5 3 18.1
-3 -6 -5 38.8 13.5
3 -6 5 50.29 21.3
-3 -6 -5 96.19 31.5
-4 -6 -5 60.19 25
4 -6 5 75.39 23.6
-4 -6 -5 101.39 20.1
-4 -6 -5 88.69 15.6
-5 -6 -5 33 32
5 -6 5 41.2 25.3
-11 0 6 58.19 28.4
-10 0 6 11.3 9.9
10 0 -6 -2.2 7.3
9 0 -6 758.52 39.2
-9 0 6 781.42 58.79
8 0 -6 153.98 17
7 0 -6 20.1 9.4
-7 0 6 8.2 9
7 0 -6 10.8 6.2
-7 0 6 2.3 8
6 0 -6 88.29 18.8
-6 0 6 108.69 19.9
-6 0 6 77.19 17.5
6 0 -6 119.09 13.7
6 0 -6 126.79 23.9
5 0 -6 19.3 7.5
5 0 -6 17.9 6
-5 0 6 9.6 7.1
-5 0 6 25 10.3
5 0 -6 3.5 6.5
-4 0 6 29.7 9
4 0 -6 38.9 11.1
-4 0 6 25.6 7.7
-4 0 6 34.1 11.1
4 0 -6 28.5 7.5
4 0 -6 31.7 9
-3 0 6 71.59 11.6
-3 0 6 73.29 14.6
-3 0 6 78.29 14.4
3 0 -6 81.29 10.8
3 0 -6 82.29 11.4
3 0 -6 76.99 15
2 0 -6 7542.05 168.78
-2 0 6 7369.06 162.58
2 0 -6 7525.85 162.08
-2 0 6 7271.07 172.38
-2 0 6 7554.14 171.48
2 0 -6 7532.25 178.18
1 0 -6 171.88 15.4
-1 0 6 224.08 18.8
-1 0 6 203.88 15.6
1 0 -6 193.38 14.9
-1 0 6 199.38 16.5
0 0 -6 34.7 8.1
0 0 -6 37.3 7.6
0 0 6 44.3 9
0 0 6 30.4 7
1 0 6 642.14 29.1
-1 0 -6 611.04 29.3
-1 0 -6 650.63 32.3
1 0 6 614.64 31.1
-2 0 -6 2542.15 79.29
2 0 6 2600.54 72.19
3 0 6 2.5 3.4
3 0 6 3.8 4
-3 0 -6 7.4 5.4
-3 0 -6 2.7 3.7
4 0 6 40.9 11.2
-4 0 -6 26.6 8
4 0 6 44.6 9.2
-4 0 -6 35.2 10.7
-5 0 -6 -2.4 4.5
5 0 6 12.2 6.4
5 0 6 11 5.6
6 0 6 444.66 28.1
7 0 6 197.08 26.3
7 0 6 172.68 17.5
8 0 6 197.68 19.3
9 0 6 199.28 20.1
-11 -1 6 -15.1 12.1
-11 1 6 59.29 24.3
11 1 -6 17.5 10.1
10 -1 -6 235.88 28.4
-10 -1 6 290.47 37.7
10 1 -6 264.17 19.7
-10 1 6 267.67 44.8
-9 -1 6 1.7 6.4
9 -1 -6 1 8.8
-9 1 6 -1.1 8.5
9 1 -6 16.2 6.5
-8 -1 6 4.4 5.4
8 -1 -6 -2.8 5.5
-8 1 6 9.5 7.6
8 1 -6 -1.7 4.6
-7 -1 6 49.7 12.8
7 -1 -6 43.4 14.4
7 -1 -6 39.5 14.7
7 -1 -6 34.1 10.5
-7 -1 6 40.8 14.2
7 1 -6 25.2 7.7
-7 1 6 64.49 15.8
-7 1 6 34.1 13.4
7 1 -6 52.29 15.4
-6 -1 6 15.9 8.3
-6 -1 6 -4.1 7.4
6 -1 -6 17.2 8.4
6 -1 -6 8.9 6.1
6 -1 -6 16.4 6.6
-6 -1 6 24.5 7.2
6 1 -6 25.1 11.7
-6 1 6 12.2 8.6
6 1 -6 24.2 7.3
-6 1 6 18 9
-5 -1 6 326.27 21.5
-5 -1 6 347.17 28.2
5 -1 -6 397.26 27.1
5 -1 -6 347.87 29.2
-5 -1 6 316.47 28.4
5 -1 -6 364.56 30
-5 1 6 410.96 30.8
5 1 -6 295.97 29.7
5 1 -6 322.67 20.9
-5 1 6 359.86 31.8
4 -1 -6 289.87 25.4
4 -1 -6 273.47 23.7
-4 -1 6 281.57 22.9
-4 -1 6 274.67 18.8
4 -1 -6 288.77 21.5
-4 -1 6 263.07 25.4
-4 1 6 304.97 27.7
4 1 -6 221.38 24.7
-4 1 6 280.57 23.1
-3 -1 6 21.2 6.5
3 -1 -6 11.8 6.6
-3 -1 6 22.7 6.4
3 -1 -6 3.8 4.5
3 -1 -6 3.6 4.4
-3 -1 6 6.6 4.5
3 1 -6 2.9 5.8
-3 1 6 9.1 4.8
3 1 -6 12.6 5.4
-3 1 6 15.1 6.4
3 1 -6 13.3 5.2
-3 1 6 15.3 6.1
2 -1 -6 647.24 32.7
2 -1 -6 574.14 35.2
2 -1 -6 618.24 30.2
-2 -1 6 671.53 39
-2 -1 6 661.43 29.7
-2 -1 6 611.14 28.8
2 1 -6 605.64 31.6
-2 1 6 628.64 37.2
-2 1 6 611.84 31.7
2 1 -6 628.24 39.7
2 1 -6 575.84 26.7
-2 1 6 626.84 30.1
1 -1 -6 235.78 17.5
-1 -1 6 198.68 20.9
-1 -1 6 219.88 16.7
1 -1 -6 215.78 17.1
1 -1 -6 244.58 21.8
-1 -1 6 223.98 14.8
-1 1 6 238.28 26.7
-1 1 6 214.58 15.7
-1 1 6 253.27 18.5
1 1 -6 246.38 14.2
0 -1 -6 860.01 34.5
0 -1 6 868.01 37.1
0 -1 -6 861.11 43.6
0 -1 6 856.11 28.7
0 1 6 872.81 44.1
0 1 -6 876.61 28
0 1 6 844.72 33.6
0 1 6 932.41 36.8
0 1 -6 897.11 39.4
-1 -1 -6 181.78 19.8
-1 -1 -6 189.68 14.6
1 -1 6 210.68 17.5
-1 1 -6 180.58 17.2
1 1 6 168.98 18.7
1 1 6 211.28 15.8
-1 1 -6 188.98 12.4
-2 -1 -6 53.29 9.3
-2 -1 -6 53.29 13.9
2 -1 6 71.69 12.8
-2 1 -6 72.39 14.4
2 1 6 70.79 8.8
-2 1 -6 79.59 9.2
2 1 6 94.39 10.5
-3 -1 -6 1599.54 52.69
3 -1 6 1675.73 70.59
3 -1 6 1675.53 61.69
-3 -1 -6 1677.83 71.99
-3 1 -6 1596.34 64.99
3 1 6 1683.63 51.59
-3 1 -6 1776.82 59.39
3 1 6 1673.83 57.19
4 -1 6 184.28 18.9
4 -1 6 219.38 24.3
-4 -1 -6 133.29 24.1
-4 -1 -6 164.48 15.4
4 1 6 148.89 13
4 1 6 186.28 18.5
-4 1 -6 194.98 21.5
5 -1 6 18.7 9.4
5 -1 6 42.2 10.5
-5 -1 -6 36 8.2
-5 -1 -6 35 12.3
5 1 6 50.49 11.5
5 1 6 41.8 8.3
-6 -1 -6 21.1 12.1
6 -1 6 20.2 10.2
6 -1 6 13 7.8
6 1 6 27.5 6.6
-6 1 -6 25.2 9.3
6 1 6 22.7 9.9
7 -1 6 72.59 15.1
7 1 6 53.09 9.4
7 1 6 44.7 14.4
-7 1 -6 51.49 17.8
8 -1 6 65.59 14.8
8 1 6 56.99 9.8
9 -1 6 -1.3 9.4
9 1 6 3.8 5
10 1 6 8.1 5.3
-11 -2 6 -14.4 10.8
-11 2 6 17.3 18.9
-10 -2 6 -12.6 8.3
-10 2 6 -27.7 12.7
10 2 -6 2 4.7
-9 -2 6 18.6 11.6
-9 2 6 42.5 16.9
9 2 -6 35.3 7.6
-8 -2 6 -14.9 7.3
8 -2 -6 7.8 9
8 2 -6 10.6 5.2
-7 -2 6 92.09 11.6
7 -2 -6 56.39 16.3
-7 -2 6 110.49 21
7 -2 -6 51.79 14.5
-7 -2 6 62.79 16.7
7 -2 -6 76.79 17.8
7 2 -6 75.69 19.7
-7 2 6 84.39 19.7
7 2 -6 73.19 11.1
-6 -2 6 159.38 19.3
6 -2 -6 128.79 23.5
6 -2 -6 160.28 28.6
6 -2 -6 176.18 22.6
-6 -2 6 132.39 24.5
-6 -2 6 165.18 14.4
6 2 -6 197.18 32.8
6 2 -6 179.28 16.8
-6 2 6 170.88 23.8
-6 2 6 183.18 22.9
5 -2 -6 1131.19 54.39
-5 -2 6 1235.58 62.79
-5 -2 6 1194.18 42.9
5 -2 -6 1116.89 55.89
5 -2 -6 1151.48 60.29
-5 -2 6 1120.59 53.99
-5 2 6 1243.08 57.49
-5 2 6 1085.19 62.99
5 2 -6 1269.57 67.99
-4 -2 6 182.78 15.2
-4 -2 6 184.38 18.7
4 -2 -6 182.58 21.5
4 -2 -6 161.38 18.4
4 -2 -6 184.98 20.1
-4 -2 6 170.38 20.7
-4 2 6 178.18 18.3
4 2 -6 208.28 24.9
-4 2 6 209.98 26
4 2 -6 190.68 16.9
3 -2 -6 627.54 41.3
-3 -2 6 620.94 29.9
3 -2 -6 626.94 32.8
-3 -2 6 615.14 41.3
3 -2 -6 619.94 35.2
-3 -2 6 565.84 29.7
-3 2 6 618.54 31.6
3 2 -6 566.44 42.2
-3 2 6 581.74 41.1
3 2 -6 538.55 30.8
-2 -2 6 2.4 2.4
2 -2 -6 -7.3 2.8
-2 -2 6 7 4.1
2 -2 -6 -0.7 2.2
2 -2 -6 -1.5 2.8
-2 -2 6 -0.2 2.9
-2 2 6 -6.5 4.7
2 2 -6 1 2.3
-2 2 6 -0.9 2.2
-1 -2 6 1118.29 32.6
-1 -2 6 1247.28 61.39
1 -2 -6 1107.79 44.9
1 -2 -6 1105.19 37.7
-1 -2 6 1156.68 47
1 -2 -6 1048 55.09
1 2 -6 1176.68 50.09
-1 2 6 1137.49 57.09
-1 2 6 1112.69 47.3
-1 2 6 1080.69 33.8
0 -2 -6 5.8 4.6
0 -2 6 0.5 1.8
0 -2 -6 2.8 3.3
0 2 6 -1.3 0.9
0 2 6 2.3 4.6
0 2 -6 3.4 3.7
0 2 6 1.5 1.3
-1 -2 -6 4.4 3.7
1 -2 6 18.3 6.1
-1 -2 -6 9.2 6.7
1 2 6 8.1 2
1 2 6 12.2 6.7
1 2 6 13.4 5.4
1 2 6 11.5 2.2
-1 2 -6 6.5 5.4
-2 -2 -6 1622.44 55.59
-2 -2 -6 1767.42 77.89
2 -2 6 1760.72 68.09
-2 2 -6 1592.74 69.29
2 2 6 1725.53 55.69
-2 2 -6 1694.43 37.7
-2 2 -6 1699.33 38.7
2 2 6 1688.13 42.8
-3 -2 -6 26.7 7
3 -2 6 16.7 8.9
-3 -2 -6 12.8 8.2
3 -2 6 12.7 6.6
-3 2 -6 12.2 6.7
3 2 6 19.4 5.8
-3 2 -6 18.6 4.9
3 2 6 19.2 5.1
4 -2 6 294.77 27.2
-4 -2 -6 308.57 33.5
4 -2 6 290.47 32.8
-4 -2 -6 304.87 19
-4 2 -6 297.37 19.9
4 2 6 324.37 21.3
4 2 6 283.57 18.2
5 -2 6 405.06 33.8
-5 -2 -6 380.56 39
-5 -2 -6 343.37 20.9
5 -2 6 326.77 34
5 2 6 338.87 19.3
5 2 6 322.77 24.6
-5 2 -6 398.86 26.8
-6 -2 -6 14.9 5.7
-6 -2 -6 14.7 8.6
6 -2 6 15.5 8
6 2 6 2 3.1
6 2 6 11.8 6.4
-6 2 -6 11.1 9.2
-7 -2 -6 99.19 26.1
7 -2 6 89.09 19.1
7 2 6 69.99 7.2
-7 2 -6 119.09 20.9
7 2 6 119.19 21.4
8 -2 6 13.6 11.9
-8 -2 -6 -2.2 9.5
-8 2 -6 19.2 14.4
8 2 6 5 13.3
9 -2 6 71.09 20.7
-9 -2 -6 36 21.7
-10 -3 6 -10.6 11.3
-10 3 6 -2.3 13.7
-9 -3 6 37.3 14.9
9 -3 -6 32.9 14.7
-9 3 6 19 14.3
8 -3 -6 182.18 30.8
-8 -3 6 164.58 29.5
-8 3 6 184.28 32.6
-7 -3 6 131.09 12.6
7 -3 -6 122.69 26.8
-7 3 6 102.89 22.8
7 3 -6 130.59 14.2
-6 -3 6 213.58 16.2
6 -3 -6 225.68 26
-6 -3 6 219.68 25.4
6 -3 -6 209.68 26.6
-6 -3 6 181.28 30.7
6 3 -6 170.48 30.9
-6 3 6 212.98 26.9
5 -3 -6 292.37 31.5
5 -3 -6 319.77 30.6
-5 -3 6 338.07 28.9
-5 -3 6 324.37 21.1
-5 -3 6 289.27 31
5 -3 -6 266.77 26.7
-5 3 6 297.67 28.1
-5 3 6 260.27 32.9
5 3 -6 327.07 24.9
5 3 -6 297.87 34.8
-4 -3 6 1208.98 52.99
4 -3 -6 1210.88 54.19
4 -3 -6 1237.08 60.59
-4 -3 6 1327.67 67.79
-4 -3 6 1291.77 47.9
4 -3 -6 1199.68 65.59
4 3 -6 1201.58 52.99
-4 3 6 1253.37 56.19
-4 3 6 1298.67 74.89
-3 -3 6 28.3 8.5
-3 -3 6 17.4 9.9
3 -3 -6 34.8 11.7
-3 -3 6 39.6 9.1
3 -3 -6 43.1 11
-3 3 6 41 13.7
3 3 -6 33.4 10.4
-3 3 6 43 10.7
-2 -3 6 82.19 10
2 -3 -6 92.99 10.4
2 -3 -6 82.59 15.9
-2 -3 6 92.29 15.1
2 -3 -6 85.69 19.4
-2 -3 6 112.19 22.2
-2 3 6 113.09 21
2 3 -6 61.69 14.4
-2 3 6 106.59 11
-1 -3 6 323.67 15.2
1 -3 -6 406.46 35.9
-1 -3 6 397.06 28.6
1 -3 -6 352.56 16.4
-1 -3 6 363.76 18.1
1 -3 -6 322.37 25.3
-1 -3 6 329.87 33.3
-1 3 6 351.66 33.5
1 3 -6 339.17 29.3
0 -3 -6 16.5 8.8
0 -3 6 6.1 3.2
0 -3 -6 -0.4 3.9
0 3 -6 2.5 5.3
0 3 6 1.5 5.7
-1 -3 -6 178.78 17
-1 -3 -6 189.48 25.5
1 -3 6 165.88 20.2
-1 3 -6 151.78 24.8
1 3 6 166.68 23.5
-2 -3 -6 24.6 7.1
-2 -3 -6 31 12.9
-3 -3 -6 154.68 30.4
-3 -3 -6 158.08 14.2
3 -3 6 140.29 24.6
3 -3 6 149.39 27.3
-3 3 -6 164.98 9.7
-4 -3 -6 31 7.5
4 -3 6 26.3 10.9
4 -3 6 36.7 12.7
-4 -3 -6 24.8 13.7
-4 3 -6 32.1 7.6
4 3 6 31.3 7.4
5 -3 6 44.9 14.9
-5 -3 -6 72.29 21.8
-5 -3 -6 32.7 6.8
-5 3 -6 47.1 10.9
5 3 6 47.4 9.9
-6 -3 -6 182.58 10.5
-6 -3 -6 224.88 39.9
6 -3 6 238.48 28.9
-6 3 -6 214.08 21.7
6 3 6 190.08 20.4
7 -3 6 1024.5 64.99
7 3 6 908.11 50.29
-7 3 -6 959.4 52.79
8 -3 6 68.09 21.2
-8 -3 -6 57.29 21.5
-8 3 -6 79.39 20.4
8 3 6 57.59 18.9
9 -3 6 -22.6 11.5
-9 -3 -6 40 26.3
-9 -4 6 14.5 13.4
9 -4 -6 -11.3 12.4
-9 4 6 25.2 18.5
8 -4 -6 74.39 22.7
-8 -4 6 28.6 15.4
-8 4 6 33.9 18
-7 -4 6 14.4 5.4
-7 -4 6 6.9 12.4
7 -4 -6 4.7 9.6
-7 4 6 -3.9 11.9
6 -4 -6 9.8 12.9
-6 -4 6 -3 10.2
-6 -4 6 8 11.2
6 -4 -6 30.5 14.1
-6 4 6 2.2 9.8
-5 -4 6 443.76 35.1
5 -4 -6 460.05 52.99
-5 -4 6 448.26 27.4
-5 -4 6 389.46 38.2
5 -4 -6 434.26 35.9
-5 4 6 510.15 39.3
-4 -4 6 104.29 16.4
4 -4 -6 114.29 19.7
4 -4 -6 108.59 25.2
-4 -4 6 113.19 23.7
-4 4 6 129.79 17.7
-4 4 6 93.19 21.4
-3 -4 6 12.4 6.8
-3 -4 6 1 5.9
3 -4 -6 2.2 7
3 -4 -6 6.8 7.3
-3 -4 6 5 7.3
3 -4 -6 9.9 5.6
-3 4 6 13 10.9
2 -4 -6 106.79 11.6
2 -4 -6 96.29 19.7
-2 -4 6 98.79 23.1
-2 -4 6 131.89 17.2
-2 -4 6 98.79 13.5
2 -4 -6 138.89 27.2
-2 4 6 118.29 24.1
-1 -4 6 24.3 6.6
1 -4 -6 31.3 4.2
-1 -4 6 18.4 11.8
1 -4 -6 16.7 11.2
-1 -4 6 21.6 8.7
-1 4 6 21.2 10
0 -4 -6 81.09 22.4
0 -4 -6 58.59 13.6
0 -4 6 54.59 15.4
0 -4 6 72.99 5.5
0 4 6 84.09 21.8
-1 -4 -6 514.85 47.1
-1 -4 -6 588.84 35.4
1 -4 6 493.95 39.8
1 4 6 539.05 46.9
-2 -4 -6 -0.9 6.4
-2 -4 -6 4.6 9.5
2 -4 6 7.1 6.2
-3 -4 -6 325.67 23
3 -4 6 375.16 37
-3 -4 -6 342.87 43.2
-4 -4 -6 283.87 40.1
-4 -4 -6 313.97 20.9
4 -4 6 323.27 35.6
-4 4 -6 344.47 18.3
-5 -4 -6 -5.4 4.4
5 -4 6 -1.6 8.7
-5 -4 -6 0.7 6.7
-5 4 -6 -5 6.2
-6 -4 -6 20.2 19
6 -4 6 10.3 11.2
-6 4 -6 -15.1 8.2
6 4 6 0.4 7.8
7 -4 6 -23.4 12.5
-7 -4 -6 34.1 24
-7 4 -6 6.1 14.5
7 4 6 28 12.5
-8 -4 -6 1.7 14.8
8 -4 6 -11.8 21
-8 -5 6 8.3 19.5
8 -5 -6 45.9 20.2
-8 -5 6 29.3 18.8
-7 -5 6 14.5 6.2
-7 -5 6 31.8 18.5
-7 -5 6 18.5 14.5
7 -5 -6 13 16.2
-6 -5 6 -4.5 4.9
-6 -5 6 -6.9 8.3
6 -5 -6 12.5 12.8
-6 -5 6 0.8 14.8
-5 -5 6 13.5 7.6
5 -5 -6 -2.4 9.4
-5 -5 6 0.9 11.1
-5 -5 6 6.1 10.6
5 -5 -6 10.4 12
-4 -5 6 5.2 8.7
-4 -5 6 -3.8 8.6
4 -5 -6 -1.3 6.9
4 -5 -6 2 8.8
-4 -5 6 1.2 8.6
3 -5 -6 15 13
-3 -5 6 13.2 10.5
-3 -5 6 31.6 10.7
3 -5 -6 -3.4 6.5
-3 -5 6 32.7 10.8
-2 -5 6 156.48 20.8
2 -5 -6 108.79 12.1
2 -5 -6 132.99 29.5
-2 -5 6 115.69 19.4
-2 -5 6 117.29 26.2
-1 -5 6 21.6 9.4
-1 -5 6 19 7.6
1 -5 -6 3.7 9.1
-1 -5 6 11.2 14
0 -5 6 87.19 9.3
0 -5 6 108.89 26.6
0 -5 -6 74.89 18.6
0 -5 6 116.99 24.8
0 -5 -6 51.79 20.1
1 -5 6 -1.1 10.6
-1 -5 -6 0.5 9.6
-1 -5 -6 3.5 10
2 -5 6 4.1 9.3
-2 -5 -6 0.3 7
3 -5 6 7.6 12
-3 -5 -6 19.5 9.1
-3 -5 -6 5.5 13.3
-4 -5 -6 20.4 17.8
-4 -5 -6 -6.2 7.2
4 -5 6 4.8 14.2
-5 -5 -6 24.4 19.9
5 -5 6 35.8 15.1
-6 -5 -6 34.2 23.1
6 -5 6 38.4 16.8
-6 5 -6 22.4 11.8
-6 -6 6 6 14.7
-6 -6 6 -17.8 17
-6 -6 6 34 11.5
6 -6 -6 10.7 17.2
5 -6 -6 27.5 20.9
-5 -6 6 30.9 12.1
-5 -6 6 60.69 18.8
5 -6 -6 59.39 18.4
-5 -6 6 25.9 15.7
-4 -6 6 -3.7 9.9
-4 -6 6 9.8 12.7
-4 -6 6 -2.3 13.8
4 -6 -6 10.4 11.3
4 -6 -6 -7 12.5
3 -6 -6 30.9 24.8
-3 -6 6 90.49 20.2
-3 -6 6 53.49 16.2
-3 -6 6 78.39 22.1
3 -6 -6 68.09 14
-2 -6 6 35.8 14.1
2 -6 -6 43.8 17.6
-2 -6 6 41.6 14.2
-2 -6 6 30.4 17.1
2 -6 -6 33.7 7.8
2 -6 -6 26.6 7
-1 -6 6 33.6 17.4
-1 -6 6 56.89 17.9
1 -6 -6 46.2 18.2
0 -6 6 11.4 11.3
0 -6 6 -14 11.6
0 -6 -6 -10.5 15.5
0 -6 6 7.3 6.2
1 -6 6 79.09 23.1
-1 -6 -6 92.09 26.8
-2 -6 -6 79.29 27.9
2 -6 6 75.19 25.9
3 -6 6 82.29 28.7
-3 -6 -6 83.49 28.3
4 -6 6 -30.9 14.9
-4 -6 -6 22.2 24.4
-11 0 7 5 14.9
11 0 -7 5.7 12.7
-10 0 7 -13 10.1
9 0 -7 0.4 7.6
-9 0 7 -0.3 7.4
-8 0 7 9.4 9
8 0 -7 -7.1 4.8
-7 0 7 -13.4 8.8
7 0 -7 10.1 6.8
7 0 -7 -2.4 4.8
-7 0 7 2.9 6.5
6 0 -7 2.4 4.1
6 0 -7 -4.5 4.8
-6 0 7 -10.8 6.3
-6 0 7 4.9 4.6
5 0 -7 -3 2.8
5 0 -7 0.9 3.5
-5 0 7 5.5 6.2
5 0 -7 -6 4.4
-5 0 7 -0.9 2.3
-5 0 7 2.2 2.7
-4 0 7 -2.1 1.9
-4 0 7 0.9 3.6
4 0 -7 2.5 3.8
4 0 -7 -2.4 2.3
4 0 -7 2.7 5.2
-4 0 7 -0.9 2.4
3 0 -7 1.2 3.2
-3 0 7 0.9 3.8
3 0 -7 -0.3 3.3
3 0 -7 -0.1 2.5
-2 0 7 8.9 5
2 0 -7 -1.3 2.8
2 0 -7 1.5 3.1
-2 0 7 -0.2 2.2
2 0 -7 -2.6 2.8
-2 0 7 -2 2.4
-1 0 7 -1.1 2.9
-1 0 7 1.7 1.9
-1 0 7 -3.4 1.9
1 0 -7 0.4 2.4
0 0 -7 1.8 2.6
0 0 7 -1.2 1.9
0 0 -7 -0.1 3.4
0 0 7 2.7 3.8
0 0 7 -0.7 2.5
-1 0 -7 -0.8 2.5
1 0 7 1.8 2.5
-1 0 -7 0.9 2.1
1 0 7 -0.3 1.9
-2 0 -7 1.2 2.7
3 0 7 -3.2 3.9
-3 0 -7 -5.9 2.6
3 0 7 0.9 1.8
-3 0 -7 -1.5 3.6
-4 0 -7 4.5 3.9
4 0 7 -3.1 5.3
-4 0 -7 2.5 4.6
4 0 7 0.5 3.5
-5 0 -7 5.4 6.2
5 0 7 0.3 5.9
5 0 7 -6.9 3.2
-5 0 -7 -1 4.2
6 0 7 2.5 5
7 0 7 0.1 5.7
8 0 7 4.1 5.8
9 0 7 4.7 7.3
10 0 7 6 9.8
-11 -1 7 15.8 12.5
11 1 -7 20.3 11.9
-11 1 7 35.9 20.6
-10 -1 7 17 14.2
-10 1 7 -18.5 11.8
10 1 -7 -1.1 7.6
9 -1 -7 116.79 21.2
-9 -1 7 87.19 23.2
9 1 -7 81.09 14.5
-9 1 7 67.99 18.3
-8 -1 7 8.5 7.7
8 -1 -7 -6.5 6.3
8 -1 -7 -6.4 4.8
-8 1 7 4.2 6
8 1 -7 -2.1 4.9
-7 -1 7 -2.1 7
7 -1 -7 -5.4 5.4
7 -1 -7 10.6 8.7
7 -1 -7 23.7 11.4
-7 -1 7 3.4 9.6
-7 -1 7 -1.1 4.1
7 1 -7 11.5 11.4
7 1 -7 4.4 4.4
-7 1 7 10.6 10
-7 1 7 2.7 7.2
6 -1 -7 17.9 9
6 -1 -7 27.4 10.7
-6 -1 7 39.3 10.7
-6 -1 7 35.8 8.7
6 -1 -7 38.6 10.5
-6 -1 7 27.3 10.6
6 1 -7 33.1 8.9
-6 1 7 29 12.2
-6 1 7 33.9 10.8
6 1 -7 1.2 10.7
5 -1 -7 1564.14 60.49
-5 -1 7 1627.64 57.89
5 -1 -7 1524.05 68.39
5 -1 -7 1551.74 69.39
-5 -1 7 1664.23 68.29
-5 -1 7 1668.73 73.49
5 1 -7 1528.35 74.99
-5 1 7 1620.84 67.89
-5 1 7 1596.54 74.99
5 1 -7 1704.23 56.09
-4 -1 7 405.76 32.7
-4 -1 7 404.66 29
4 -1 -7 408.16 30.7
4 -1 -7 413.66 27.1
4 -1 -7 431.66 32.5
-4 1 7 445.86 35.1
4 1 -7 412.36 24.8
4 1 -7 401.56 27.9
4 1 -7 420.46 35.5
-4 1 7 387.46 28.3
-4 1 7 419.66 29.5
3 -1 -7 18.6 6.3
-3 -1 7 25.9 7.7
-3 -1 7 9.3 6.5
-3 -1 7 19.8 8.4
3 -1 -7 7 5.4
3 -1 -7 24.6 7.8
3 1 -7 27.2 7.6
-3 1 7 7.4 4.8
-3 1 7 20.2 9.2
-3 1 7 22.3 7.3
3 1 -7 22.4 6.9
-2 -1 7 883.01 48
2 -1 -7 819.82 53.89
2 -1 -7 849.12 38
2 -1 -7 800.12 40.1
-2 -1 7 818.62 38.9
-2 -1 7 851.71 36.9
-2 1 7 820.92 39.3
-2 1 7 830.72 37.5
-2 1 7 915.01 47.6
2 1 -7 787.72 36.6
2 1 -7 859.51 34.6
1 -1 -7 673.13 39.3
-1 -1 7 660.73 29.2
1 -1 -7 612.34 30.6
1 1 -7 652.93 26.9
-1 1 7 623.24 38.2
1 1 -7 640.44 33.2
-1 1 7 674.83 31.8
0 -1 7 1236.68 40
0 -1 -7 1369.36 58.99
0 -1 -7 1360.56 47.6
0 -1 7 1307.57 49.5
0 1 -7 1202.78 49.8
0 1 -7 1234.48 39.1
0 1 7 1320.17 47.5
0 1 7 1246.78 55.79
0 1 7 1199.38 46.6
-1 -1 -7 212.98 24.4
1 -1 7 262.77 20.6
-1 -1 -7 192.28 16.1
-1 1 -7 184.08 18.8
-1 1 -7 211.28 14.6
1 1 7 210.28 17.1
1 1 7 207.38 21.4
2 -1 7 199.28 18.9
-2 -1 -7 181.68 21.1
-2 -1 -7 169.58 15.1
-2 1 -7 174.38 15.2
2 1 7 182.38 16.4
2 1 7 176.78 15.3
-2 1 -7 184.48 20.3
-3 -1 -7 436.26 35.7
-3 -1 -7 506.55 28.2
3 -1 7 535.95 32.8
3 -1 7 514.15 38.1
3 1 7 514.55 27
-3 1 -7 513.65 35.3
3 1 7 497.05 31.7
-3 1 -7 548.35 30.7
4 -1 7 12.4 8.5
-4 -1 -7 17.8 7.6
4 -1 7 9.6 6
-4 -1 -7 8.5 6.1
-4 1 -7 22.2 9
4 1 7 8.8 7.2
4 1 7 6.5 5
-4 1 -7 3.5 5.4
5 -1 7 22.7 12.8
5 -1 7 42.2 10.5
-5 -1 -7 26.4 8.1
-5 -1 -7 18.1 10.4
5 1 7 15.6 7.3
5 1 7 33.9 8.2
-5 1 -7 28.9 11.8
-6 -1 -7 105.19 24.5
-6 -1 -7 134.89 16.8
6 -1 7 168.68 18.9
6 -1 7 136.29 30.2
6 1 7 100.99 18.6
-7 -1 -7 654.03 59.29
7 -1 7 815.92 46.7
7 1 7 712.23 47.8
-7 1 -7 736.13 47
7 1 7 898.81 43
8 -1 7 9 9
-8 -1 -7 29.1 17.7
9 -1 7 17 12.2
-9 -1 -7 37 22.8
9 1 7 25.2 13
-11 -2 7 8.8 17.7
-11 2 7 8.6 14.1
-10 -2 7 21.3 17.7
-10 2 7 0.9 13.6
10 2 -7 -0.1 7.5
9 -2 -7 20.5 12.9
-9 -2 7 18.7 13.1
-9 2 7 5 10.4
9 2 -7 12.4 7.3
-8 -2 7 -0.3 11.1
8 -2 -7 36.3 13.6
8 2 -7 20.1 7.6
-8 2 7 31.9 14.5
7 -2 -7 60.09 21.1
7 -2 -7 81.19 21
-7 -2 7 87.29 19.4
7 -2 -7 77.19 17.9
-7 -2 7 105.49 22
-7 2 7 106.99 21.7
7 2 -7 72.09 12.6
6 -2 -7 22.2 10.3
-6 -2 7 19.3 10.2
6 -2 -7 31.3 12.2
6 -2 -7 38 11.5
-6 -2 7 31.9 12.2
6 2 -7 46.2 16.9
-6 2 7 37.1 14.4
-6 2 7 23.1 8.9
6 2 -7 28 8.9
5 -2 -7 0 6.4
-5 -2 7 -3.4 5.3
5 -2 -7 -1.5 4.6
-5 -2 7 9 6.3
5 -2 -7 4 6.2
5 2 -7 7.4 6.4
5 2 -7 3.6 5.2
-5 2 7 6.6 6.6
4 -2 -7 22.1 7.2
-4 -2 7 12 4.9
-4 -2 7 16 6.2
4 -2 -7 6.1 6.8
4 -2 -7 22.4 7.7
-4 -2 7 12.3 6.9
4 2 -7 12.6 6.4
-4 2 7 -2.8 8.2
4 2 -7 1.6 6.9
-4 2 7 20.6 7.1
-3 -2 7 27.1 6.4
-3 -2 7 29.3 10.8
-3 -2 7 19.1 6.5
3 -2 -7 28.1 9
3 -2 -7 23.5 9.6
3 -2 -7 29.8 10.8
3 2 -7 22.7 7.9
-3 2 7 15.3 10.1
-3 2 7 22.9 7.2
2 -2 -7 44.2 10.2
2 -2 -7 40.3 12.7
-2 -2 7 70.49 12.5
-2 -2 7 57.49 9.6
2 -2 -7 44.9 10.9
-2 -2 7 43.8 12.9
-2 2 7 34 7.6
-2 2 7 55.49 14.2
2 2 -7 51.49 12.2
-2 2 7 41.8 11.5
-1 -2 7 378.26 26.1
1 -2 -7 389.26 22.1
1 -2 -7 399.76 26.1
-1 -2 7 343.67 16.7
-1 -2 7 385.96 34.3
1 -2 -7 383.86 32.8
-1 2 7 372.56 32.9
-1 2 7 357.66 26.5
-1 2 7 357.56 18.4
1 2 -7 360.96 27.4
0 -2 -7 241.28 19.3
0 -2 -7 251.47 26.9
0 -2 7 245.28 21.7
0 2 -7 214.88 22.2
0 2 7 257.57 21
0 2 7 225.98 12.3
0 2 7 240.18 25.4
-1 -2 -7 30.3 7.5
1 -2 7 23.1 8.9
-1 -2 -7 42.3 13.3
-1 2 -7 22.8 8.1
1 2 7 49.3 10.5
1 2 7 28.7 5.2
1 2 7 48.1 13.8
1 2 7 30 5.5
2 -2 7 476.85 33.8
-2 -2 -7 562.14 28.7
-2 -2 -7 563.24 43
-2 2 -7 498.05 15.2
-2 2 -7 525.35 38.1
-2 2 -7 519.85 14.8
2 2 7 531.55 30.1
2 2 7 579.04 22.2
2 2 7 522.35 40.6
-3 -2 -7 12.7 5.8
-3 -2 -7 5.5 5.1
3 -2 7 11.1 5.9
3 -2 7 -6.7 5.7
-3 2 -7 4.6 3.2
3 2 7 1.4 4.1
3 2 7 6.9 3.8
-3 2 -7 0.2 6.7
-3 2 -7 5 3.1
-4 -2 -7 5.6 4.5
-4 -2 -7 2.4 6.7
4 -2 7 6.2 5.8
4 -2 7 -3.5 5.3
4 2 7 3.8 4.3
4 2 7 -4.6 3.3
-5 -2 -7 2.9 7.9
5 -2 7 11.3 7.2
-5 2 -7 5 5.4
6 -2 7 226.08 26.5
-6 -2 -7 185.28 34.5
-6 -2 -7 196.48 17.6
6 2 7 179.68 20.8
6 2 7 209.88 15.8
-6 2 -7 197.98 21.3
7 -2 7 22.5 10.8
-7 -2 -7 0.4 12.9
-7 2 -7 -6.5 9.4
7 2 7 6.2 4.8
7 2 7 7 10.1
-8 -2 -7 90.99 26.2
8 -2 7 73.89 17.5
-8 2 -7 114.09 22.5
8 2 7 74.99 19.8
9 -2 7 0 10.3
-10 -3 7 16.5 12.7
10 -3 -7 19.9 16.6
-10 3 7 23.4 19.3
-9 -3 7 161.58 30.9
9 -3 -7 136.59 31.5
-9 3 7 146.19 28.6
-8 -3 7 -19.5 9
-8 -3 7 2.8 5.2
8 -3 -7 8.4 11.9
8 3 -7 3.3 5.8
-8 3 7 20.3 11.4
-7 -3 7 -10 5.8
-7 -3 7 -10.5 4.5
7 -3 -7 -11.5 4.8
-7 3 7 12.3 8.7
7 3 -7 9.3 6.9
-6 -3 7 11.8 9.3
6 -3 -7 20.3 12.3
6 -3 -7 5.6 9.8
-6 -3 7 19.4 6.7
-6 -3 7 18.7 11.1
6 3 -7 5 5.9
-6 3 7 9 10.3
-5 -3 7 -4.9 4.9
5 -3 -7 -2.3 8.3
-5 -3 7 -0.7 7.3
5 -3 -7 3.5 7.3
5 -3 -7 13.1 8.8
-5 -3 7 -1.6 4.5
-5 3 7 -7.7 5
5 3 -7 -1.4 6.3
5 3 -7 13.1 10.6
-5 3 7 3.7 9.6
4 -3 -7 12.3 10.7
4 -3 -7 1 9
-4 -3 7 8.2 9.7
-4 -3 7 19.2 7.1
4 -3 -7 20.8 8.2
-4 -3 7 10.7 5.9
-4 3 7 27.6 10.1
-4 3 7 20.5 9.6
4 3 -7 1.7 5.9
-3 -3 7 319.27 33.3
3 -3 -7 309.27 32.5
3 -3 -7 325.77 53.69
-3 -3 7 333.87 24.7
3 3 -7 289.97 26
-3 3 7 261.77 32.5
-3 3 7 293.77 22.4
-2 -3 7 7.4 5.2
2 -3 -7 0.3 2.8
-2 -3 7 0 2.8
2 -3 -7 1.7 3.6
-2 -3 7 4.3 6.1
2 -3 -7 -3.9 5.4
-2 3 7 5.4 3
2 3 -7 9.1 5.7
-2 3 7 3 6.2
-1 -3 7 118.99 24.4
-1 -3 7 110.29 8.2
-1 -3 7 93.99 7.2
1 -3 -7 97.09 22.1
-1 -3 7 122.89 16.1
1 -3 -7 98.19 16.9
1 -3 -7 122.09 9.5
1 3 -7 85.39 17.2
-1 3 7 114.19 8.6
-1 3 7 113.49 22.9
0 -3 -7 203.68 20
0 -3 -7 168.68 29.9
0 -3 7 198.28 21.1
0 3 7 207.28 27
0 3 -7 218.18 24.6
-1 -3 -7 125.79 25.8
1 -3 7 145.09 23.7
-1 -3 -7 139.29 15.8
1 3 7 113.49 24
-1 3 -7 131.09 22.8
2 -3 7 82.89 18
-2 -3 -7 83.19 10.5
-2 -3 -7 67.39 20
2 3 7 68.09 19.4
-2 3 -7 56.49 15.1
-3 -3 -7 331.07 22.3
-3 -3 -7 363.26 38.6
3 -3 7 346.77 32.9
3 -3 7 346.07 36
-4 -3 -7 29.9 14.9
4 -3 7 16.7 12
-4 -3 -7 51.49 9.5
4 3 7 43.4 7.9
-4 3 -7 42.3 8
5 -3 7 19.4 11.3
-5 -3 -7 14.8 11.6
-5 -3 -7 8.3 5.2
-5 3 -7 -0.4 6.3
5 3 7 14.8 7
-6 -3 -7 516.25 53.19
-6 -3 -7 491.55 23.7
6 -3 7 523.05 44.4
6 3 7 456.55 30.6
-6 3 -7 489.25 32.4
-7 -3 -7 -16.9 13.1
7 -3 7 6.1 10.9
-7 3 -7 22.5 11.5
7 3 7 -3.7 9.4
-8 -3 -7 -16.5 19.5
8 -3 7 -6.6 12.1
8 3 7 19.5 14.3
-8 3 -7 7.5 15.4
-9 -4 7 29.7 16.2
-9 4 7 11 17.3
8 -4 -7 43.4 21.4
-8 -4 7 25.9 18
-8 -4 7 50.69 8.8
-8 4 7 31 16.8
-7 -4 7 -18.7 7.4
7 -4 -7 7.5 12.6
-7 4 7 4 10.6
-6 -4 7 311.27 22.1
-6 -4 7 309.47 35.4
-6 -4 7 236.08 28.9
6 -4 -7 297.77 35
6 -4 -7 361.76 34.9
-6 4 7 287.07 32.2
-5 -4 7 308.77 34.7
-5 -4 7 302.67 29.5
-5 -4 7 303.37 23.4
5 -4 -7 309.27 29.6
5 -4 -7 310.47 37
-5 4 7 329.17 31.4
4 -4 -7 20.4 9.8
-4 -4 7 40.2 12
-4 -4 7 44.8 14.5
-4 -4 7 33.2 10.6
4 -4 -7 11.5 10.1
-4 4 7 54.49 12.8
-3 -4 7 49.8 17.1
-3 -4 7 26.5 9.2
3 -4 -7 85.69 20.4
3 -4 -7 56.09 12.1
-3 -4 7 50.29 11.8
-3 -4 7 48.7 12.5
3 4 -7 50.49 15.1
2 -4 -7 596.84 27.8
-2 -4 7 652.03 40.5
-2 -4 7 597.94 31.8
2 -4 -7 573.84 48.7
2 -4 -7 630.54 42.7
-2 -4 7 652.53 29.3
-2 -4 7 629.94 51.79
-2 4 7 501.25 47.4
1 -4 -7 12.1 8.4
-1 -4 7 58.69 16.7
1 -4 -7 42.6 11.9
-1 -4 7 31.8 11.2
-1 -4 7 25.3 5.7
-1 -4 7 31 5.3
-1 4 7 18.7 11.6
0 -4 7 409.36 34.6
0 -4 -7 345.37 38.3
0 -4 -7 343.17 28.6
0 4 7 362.36 39.7
1 -4 7 14.9 8.1
-1 -4 -7 0.8 5.7
-1 -4 -7 6.1 6.6
-2 -4 -7 41.3 10.3
-3 -4 -7 116.09 28.1
-3 -4 -7 118.09 14.8
3 -4 7 91.09 22.7
-4 -4 -7 54.49 22.8
4 -4 7 57.69 15.9
-4 -4 -7 31 7.9
5 -4 7 300.17 36
-5 -4 -7 264.67 46
-5 4 -7 278.07 17.2
6 -4 7 25.9 15.3
-6 -4 -7 13.5 14.3
-6 -4 -7 20.3 4.8
-6 4 -7 12.2 10
6 4 7 16.6 8.5
7 -4 7 16.4 10.6
-7 -4 -7 1.8 14.2
-7 4 -7 -13.7 12.4
7 4 7 6.5 11.5
8 -5 -7 109.59 28.2
-8 -5 7 130.49 31.5
-7 -5 7 7.6 11.9
7 -5 -7 11.7 11.7
-7 -5 7 0.8 14.1
-7 -5 7 -8 6.1
-6 -5 7 27.3 13.2
6 -5 -7 18.7 14.1
-5 -5 7 9.2 10.9
-5 -5 7 13.3 11
-5 -5 7 6.2 6.6
-5 -5 7 10.4 12.4
5 -5 -7 11.7 9.3
5 -5 -7 7.7 15.1
-4 -5 7 103.19 21.7
4 -5 -7 121.99 20.1
4 -5 -7 143.19 29.9
-4 -5 7 119.79 20.2
-4 -5 7 161.28 20.3
-4 -5 7 155.98 31.3
-3 -5 7 44.7 12.6
-3 -5 7 34.6 10.9
-3 -5 7 51.99 18
3 -5 -7 27.7 9.6
3 -5 -7 42.9 14.4
-3 -5 7 55.39 15.4
-2 -5 7 222.48 26.9
-2 -5 7 313.47 38.7
2 -5 -7 245.38 15.4
2 -5 -7 226.68 39.7
-2 -5 7 256.07 23
-2 -5 7 234.78 28.3
-1 -5 7 40.7 7
-1 -5 7 21.4 6
-1 -5 7 17.2 9.7
1 -5 -7 29.8 16.6
-1 -5 7 -0.2 10.9
0 -5 7 -5.8 7.5
0 -5 -7 22.5 13.3
0 -5 7 21.8 14
-1 -5 -7 2.3 5.6
1 -5 7 34.5 12.7
-1 -5 -7 2.1 8.2
-2 -5 -7 429.16 32.1
2 -5 7 468.75 45.4
-2 -5 -7 490.15 52.49
3 -5 7 387.16 43.1
-3 -5 -7 324.87 43.5
4 -5 7 -10.7 7.7
-4 -5 -7 20 17
-4 -5 -7 15 9
5 -5 7 7.5 13.2
-5 -5 -7 -22 11
-5 -5 -7 2.5 7.5
-6 -5 -7 -26.1 17.6
6 -5 7 -17.7 13.7
5 -6 -7 23.5 20
-5 -6 7 22.9 19
5 -6 -7 37.8 25.1
-5 -6 7 13.7 17.2
-5 -6 7 75.59 16.5
-4 -6 7 52.89 18.5
-4 -6 7 11.2 14.7
-4 -6 7 29.3 13.5
4 -6 -7 4.2 15.8
-4 -6 7 57.59 16.5
4 -6 -7 56.09 15
-3 -6 7 -11.3 10.3
-3 -6 7 6.9 12.9
-3 -6 7 -7.3 10.3
-3 -6 7 -2 10.5
3 -6 -7 -24.7 15.4
-2 -6 7 71.69 13
-2 -6 7 54.59 24.4
-2 -6 7 54.99 17.9
2 -6 -7 100.29 29.7
-1 -6 7 2.8 15
-1 -6 7 5.7 13
1 -6 -7 26.4 17.6
-1 -6 7 4.4 6.2
-1 -6 7 28.4 8.8
0 -6 -7 283.17 49.7
0 -6 7 231.98 38.3
0 -6 7 311.87 43.3
-1 -6 -7 -8.9 19.2
1 -6 7 4.2 12.4
2 -6 7 25.5 18.5
-2 -6 -7 57.99 22.2
-3 -6 -7 -20 18.4
-3 -6 -7 25.6 16.5
3 -6 7 5.6 14.5
4 -6 7 54.69 25
-4 -6 -7 29.8 24.2
-11 0 8 214.18 39.5
11 0 -8 240.48 25
10 0 -8 9 10.3
-10 0 8 23.1 13.9
9 0 -8 85.99 16.9
-9 0 8 102.79 23.1
8 0 -8 30.4 10.6
-8 0 8 41.1 13.9
-7 0 8 1746.93 85.59
7 0 -8 1764.62 81.19
-7 0 8 1729.43 82.49
7 0 -8 1700.23 86.89
7 0 -8 1794.72 65.59
-6 0 8 58.59 15.8
6 0 -8 32.3 10.9
-6 0 8 53.79 11.5
6 0 -8 42 15.3
6 0 -8 39.5 10.2
-5 0 8 66.79 15.7
5 0 -8 111.19 21.5
-5 0 8 65.79 13.9
-5 0 8 73.09 16.6
5 0 -8 120.19 20.4
5 0 -8 79.59 14.2
4 0 -8 78.69 18.6
-4 0 8 107.89 19.7
4 0 -8 66.69 13.9
-4 0 8 81.69 14.2
4 0 -8 98.29 12.5
-4 0 8 59.49 14.2
-3 0 8 1893.41 71.89
3 0 -8 1775.12 74.99
3 0 -8 1805.42 66.79
3 0 -8 1734.83 60.59
-3 0 8 1783.42 62.89
-3 0 8 1738.93 69.19
2 0 -8 1102.69 55.69
-2 0 8 1225.88 48.1
2 0 -8 1157.18 46.2
2 0 -8 1115.19 49.1
-2 0 8 1014.9 61.49
-2 0 8 1170.98 51.99
1 0 -8 464.65 29.3
-1 0 8 513.35 33.8
-1 0 8 466.85 27.6
1 0 -8 432.06 26.6
-1 0 8 443.76 29.3
0 0 -8 183.78 18.1
0 0 -8 170.68 16.3
0 0 8 201.08 21.7
0 0 8 200.68 18.9
0 0 8 177.08 16.2
1 0 8 -4.9 2
-1 0 -8 -2.2 3.9
1 0 8 1.6 2.1
-2 0 -8 65.19 13.5
-2 0 -8 62.19 13
2 0 8 50.29 10.4
-3 0 -8 1248.88 54.79
-3 0 -8 1360.46 60.79
3 0 8 1355.56 52.19
3 0 8 1244.88 59.09
-4 0 -8 13 6.6
4 0 8 8.4 9.3
-4 0 -8 18.3 9.1
4 0 8 27.2 7.6
-5 0 -8 2070.29 90.29
-5 0 -8 1999.9 78.69
5 0 8 2146.59 71.99
5 0 8 2044.3 84.89
6 0 8 37.5 12.4
6 0 8 63.59 13.8
-6 0 -8 59.59 17
-6 0 -8 44.6 14
7 0 8 -0.5 5.7
-7 0 -8 -4.3 10.2
8 0 8 153.88 18.3
-8 0 -8 141.99 32
9 0 8 94.59 16.7
-9 0 -8 59.69 24.2
-11 -1 8 6.5 17.2
11 1 -8 39.7 15.3
-11 1 8 34.9 21.6
-10 -1 8 -0.3 8.2
10 1 -8 9.8 9.4
-10 1 8 25.6 18.3
-9 -1 8 160.98 32.6
9 1 -8 118.19 18.1
-9 1 8 191.08 33.7
8 -1 -8 9.6 9.5
8 -1 -8 9.1 10.7
-8 -1 8 19.6 11.8
8 1 -8 31.1 9.1
-8 1 8 35.6 14.7
-7 -1 8 116.79 23.5
-7 -1 8 147.69 25.7
7 -1 -8 95.99 17.4
7 -1 -8 131.29 24.6
7 -1 -8 143.09 26.9
-7 -1 8 119.69 18.5
7 1 -8 131.69 15.2
-7 1 8 133.99 24.3
-6 -1 8 56.79 12.6
-6 -1 8 56.49 14.6
-6 -1 8 38.6 12.8
6 -1 -8 40.1 12.6
6 -1 -8 52.29 14
6 1 -8 15.8 14.5
-6 1 8 34.3 10.8
6 1 -8 67.49 12.9
-6 1 8 40.1 14.2
5 -1 -8 13.3 7.8
-5 -1 8 4.4 8.3
5 -1 -8 20.4 7.9
-5 -1 8 5.2 4
5 -1 -8 -1.9 3.2
-5 -1 8 8.7 6.3
5 1 -8 1 6.3
-5 1 8 0 7.4
-5 1 8 2.3 6.2
-5 1 8 5.9 4
5 1 -8 8.8 5.5
4 -1 -8 469.95 35.5
4 -1 -8 459.45 30
-4 -1 8 430.86 31.5
-4 -1 8 449.36 36.2
-4 -1 8 465.45 28.5
4 -1 -8 444.06 34
4 1 -8 435.26 27.2
-4 1 8 488.55 33.2
4 1 -8 466.05 30.5
-4 1 8 528.05 39
-4 1 8 414.36 30.2
4 1 -8 476.45 40
3 -1 -8 835.72 40.1
3 -1 -8 915.01 47.3
-3 -1 8 779.62 37.7
3 -1 -8 801.52 46.5
-3 -1 8 866.11 41.8
-3 -1 8 878.61 50.69
3 1 -8 904.81 40.1
3 1 -8 781.52 51.39
3 1 -8 835.52 39.3
-3 1 8 814.02 49
-3 1 8 757.52 41.2
-2 -1 8 72.39 12.6
2 -1 -8 80.69 16.3
-2 -1 8 87.89 11.4
2 -1 -8 80.79 18.5
2 -1 -8 84.29 11.3
-2 -1 8 56.49 14.4
-2 1 8 61.19 15.6
2 1 -8 90.69 14.9
2 1 -8 80.59 9.8
-2 1 8 84.29 14.3
-2 1 8 90.19 15
1 -1 -8 222.68 18.7
1 -1 -8 222.98 22.8
-1 -1 8 162.48 21.4
-1 -1 8 186.58 17.8
-1 -1 8 196.68 16.3
-1 1 8 214.28 19.1
-1 1 8 193.58 21.7
1 1 -8 217.98 15.6
1 1 -8 200.38 18.9
-1 1 8 193.48 17.4
0 -1 -8 154.88 19.5
0 -1 -8 150.18 15
0 -1 8 136.59 12.5
0 -1 8 116.29 14.2
0 1 8 157.58 19
0 1 8 164.48 16.4
0 1 -8 127.19 11.7
0 1 8 169.68 16.3
0 1 -8 141.69 16.5
1 -1 8 118.79 14.5
-1 -1 -8 105.29 18.8
-1 -1 -8 105.49 12.8
-1 1 -8 107.79 14.5
-1 1 -8 114.09 11.6
1 1 8 114.79 20
1 1 8 94.59 12.3
-2 -1 -8 44.2 10.5
2 -1 8 44.5 10.5
-2 -1 -8 34.8 11.9
2 1 8 52.89 11.6
2 1 8 54.59 10.9
-2 1 -8 23.7 7.3
-2 1 -8 22.1 8.5
3 -1 8 96.09 18.8
-3 -1 -8 90.79 19.8
-3 -1 -8 76.69 13.3
3 -1 8 84.29 15.9
-3 1 -8 84.29 17.7
3 1 8 94.39 12
-3 1 -8 92.69 12.7
3 1 8 104.59 14.3
4 -1 8 7.9 4.5
-4 -1 -8 0.4 5.1
-4 -1 -8 -14.3 5.3
4 -1 8 1.4 6.6
4 1 8 -2.6 3.3
-4 1 -8 -5.7 4.5
4 1 8 7.9 6.1
-4 1 -8 10.3 7
5 -1 8 133.49 24.7
-5 -1 -8 115.39 18.4
5 -1 8 150.78 19
-5 -1 -8 132.39 26.5
-5 1 -8 166.78 21.5
5 1 8 123.99 21
-5 1 -8 105.79 20.9
5 1 8 152.68 15.1
6 -1 8 93.09 17
-6 -1 -8 79.39 16.8
-6 -1 -8 81.19 21.9
6 1 8 86.59 13.4
6 1 8 77.89 17.3
-6 1 -8 65.99 16.8
7 -1 8 3 6.1
-7 -1 -8 8.1 11.4
-7 1 -8 5.9 9.8
7 1 8 5.9 5.6
7 1 8 -12.7 10.1
-8 -1 -8 20.2 12.8
8 -1 8 66.49 15.5
8 1 8 18.4 8
-9 -1 -8 -19.5 13.5
9 -1 8 21 14.1
9 1 8 13.9 8.6
-11 -2 8 46.9 24.8
-11 2 8 1 16.1
-10 -2 8 88.59 25.4
-10 2 8 72.89 22.3
10 2 -8 80.99 15.3
9 -2 -8 9.8 8.7
-9 -2 8 -1 7.4
-9 2 8 -13.6 10.4
9 2 -8 8.7 7
8 -2 -8 -4.1 8.4
-8 -2 8 -1.5 8.6
-8 -2 8 8 6.1
-8 2 8 2 7.2
8 2 -8 -1.1 6.7
7 -2 -8 131.79 27.8
-7 -2 8 164.18 18
-7 -2 8 202.08 27.7
-7 -2 8 161.58 27.7
7 -2 -8 176.18 29.8
7 2 -8 173.08 17.9
-7 2 8 203.88 26.2
-6 -2 8 9.7 6.1
6 -2 -8 13 8.3
-6 -2 8 29.2 11.6
-6 -2 8 34.5 12.5
6 -2 -8 13.2 12
6 -2 -8 12.2 7.5
6 2 -8 22.7 8
6 2 -8 36.6 15.4
-6 2 8 18.5 13.3
-6 2 8 1.4 6.9
5 -2 -8 2.9 6
5 -2 -8 10.1 6.2
-5 -2 8 1.5 6.7
5 -2 -8 -2.1 3.3
-5 -2 8 -0.6 7
-5 -2 8 -2.3 2.6
5 2 -8 -5 3.3
-5 2 8 5.7 4.4
-5 2 8 -1.7 7.3
5 2 -8 4.5 4.8
4 -2 -8 275.97 29
-4 -2 8 221.08 26.8
4 -2 -8 249.38 24.1
-4 -2 8 246.38 20
-4 -2 8 255.27 22
4 -2 -8 247.98 23.6
4 2 -8 239.68 29.7
-4 2 8 310.77 32.4
4 2 -8 237.28 21.3
-4 2 8 259.57 22.7
3 -2 -8 478.25 31.9
-3 -2 8 462.35 28.9
3 -2 -8 476.85 31.8
-3 -2 8 460.05 27.9
-3 -2 8 435.06 38.3
3 -2 -8 450.85 37.7
3 2 -8 510.15 32.6
-3 2 8 478.65 40.3
-3 2 8 482.65 29.1
-2 -2 8 435.86 37.8
2 -2 -8 412.26 27.1
-2 -2 8 386.86 26.8
2 -2 -8 378.96 34.1
2 -2 -8 397.76 27.8
-2 -2 8 376.16 22.2
-2 2 8 390.96 23.4
-2 2 8 445.46 38
-2 2 8 401.86 30.3
2 2 -8 455.65 31.1
-1 -2 8 127.89 23.8
1 -2 -8 125.79 23.8
-1 -2 8 131.79 10.6
1 -2 -8 108.69 14.1
-1 -2 8 121.49 15.3
-1 2 8 118.39 11
-1 2 8 105.39 21.6
1 2 -8 138.99 18
-1 2 8 112.89 18.1
0 -2 -8 320.87 23.1
0 -2 8 315.87 26
0 -2 -8 290.27 30
0 2 8 317.57 25
0 2 8 313.17 17.1
0 2 -8 321.57 27.8
0 2 8 339.87 32.1
-1 -2 -8 1294.37 68.69
-1 -2 -8 1364.16 51.79
1 -2 8 1437.76 60.59
1 2 8 1323.37 53.79
1 2 8 1327.17 41.9
1 2 8 1329.77 40.7
1 2 8 1292.27 66.69
-1 2 -8 1345.37 63.79
-2 -2 -8 50.19 15.6
2 -2 8 55.89 13
-2 -2 -8 86.59 10.5
-2 2 -8 64.39 4.7
2 2 8 59.59 7.9
2 2 8 56.29 11.5
-2 2 -8 43.6 13.6
2 2 8 55.09 15.8
-2 2 -8 58.39 4.2
-3 -2 -8 297.97 21.6
-3 -2 -8 273.77 31.9
3 -2 8 254.77 26.3
3 2 8 264.37 18.1
-3 2 -8 281.57 17.4
-3 2 -8 297.27 15.6
3 2 8 277.37 21.3
4 -2 8 409.36 39.3
4 -2 8 371.76 32.2
-4 -2 -8 515.65 46.2
-4 -2 -8 434.76 27.1
-4 2 -8 461.85 27.5
-4 2 -8 443.06 39.2
-4 2 -8 438.56 23.9
4 2 8 425.16 26.3
-5 -2 -8 211.28 19.9
5 -2 8 208.58 24.9
-5 -2 -8 221.18 31.2
-5 2 -8 249.88 23.5
5 2 8 238.08 21.3
-5 2 -8 212.08 19.2
5 2 8 204.88 22.1
-6 -2 -8 12.3 18.1
-6 -2 -8 41.8 11.1
-6 2 -8 50.99 14
6 2 8 29.9 11.9
6 2 8 37 8.5
-7 -2 -8 16.7 13.3
7 -2 8 26.5 9.5
-7 2 -8 7.1 10.6
7 2 8 10 6.1
-8 -2 -8 -4.8 14.2
8 -2 8 9.1 10.2
8 2 8 -8.4 4.2
-8 2 -8 -24.2 12.8
9 -2 8 139.19 28.4
-9 -2 -8 122.69 35.1
-10 -3 8 79.29 25.1
10 -3 -8 65.79 23.5
9 -3 -8 24.1 14.3
-9 -3 8 32.7 17.7
-9 3 8 76.89 21.8
-8 -3 8 0.8 6.4
8 -3 -8 -7.4 7.3
-8 -3 8 17.5 12.8
8 3 -8 12.8 8.4
-8 3 8 25.5 12.6
-7 -3 8 592.04 32.1
-7 -3 8 619.94 51.39
7 -3 -8 639.24 51.89
7 3 -8 583.24 35.9
-7 3 8 520.75 44.3
-6 -3 8 840.32 74.59
-6 -3 8 956.2 42.5
6 -3 -8 958.7 57.79
6 -3 -8 951 62.69
-6 -3 8 947.31 54.49
-6 3 8 1042.5 59.09
6 3 -8 898.51 47.2
5 -3 -8 131.59 25.9
5 -3 -8 150.08 23.9
-5 -3 8 135.29 18.5
-5 -3 8 152.58 16.6
-5 -3 8 157.78 28.6
-5 3 8 204.08 23.7
5 3 -8 114.39 27.1
5 3 -8 130.29 21.3
4 -3 -8 88.99 17.5
4 -3 -8 64.79 17.7
-4 -3 8 64.89 14.2
-4 -3 8 78.99 13.6
-4 -3 8 68.69 19
4 -3 -8 82.19 15.8
4 3 -8 88.09 18.2
-4 3 8 47.8 16
-4 3 8 52.49 13.7
3 -3 -8 643.64 40.9
3 -3 -8 547.55 33
3 -3 -8 540.35 45.5
-3 -3 8 626.84 34
-3 -3 8 669.13 50.69
-3 -3 8 648.84 36.9
3 3 -8 641.94 40.7
-3 3 8 596.34 49
-3 3 8 625.04 33.4
-2 -3 8 33.2 10.8
2 -3 -8 29.9 10.9
2 -3 -8 15.7 6.1
-2 -3 8 34.9 6.5
-2 -3 8 -2.2 5.6
2 -3 -8 39.8 11.1
-2 3 8 -0.4 11.6
2 3 -8 18.5 10
-2 3 8 34.5 7.3
1 -3 -8 562.44 35.4
1 -3 -8 556.24 46.5
-1 -3 8 540.05 13.3
-1 -3 8 527.65 47
-1 -3 8 579.54 37.5
1 3 -8 507.45 39.4
-1 3 8 545.85 20.4
-1 3 8 534.65 48.3
0 -3 8 3.4 4.6
0 -3 -8 -1.7 5.1
0 -3 -8 7.7 7
0 3 -8 8 8.9
0 3 8 13.7 9.9
1 -3 8 5.3 5.8
-1 -3 -8 5.3 6.2
-1 -3 -8 0.3 5.1
-1 3 -8 8.4 8.4
1 3 8 5.1 6.7
-2 -3 -8 211.48 29
-2 -3 -8 211.48 19.6
2 -3 8 221.98 26.1
-2 3 -8 179.18 30
2 3 8 151.78 28.7
-3 -3 -8 66.39 20.6
-3 -3 -8 62.29 12.4
3 -3 8 60.49 16.2
-4 -3 -8 113.69 14.1
4 -3 8 103.89 22.3
-4 -3 -8 126.99 30.6
-4 3 -8 120.29 9.1
-4 3 -8 124.69 9.1
4 3 8 123.09 10.8
-5 -3 -8 152.48 15.7
-5 -3 -8 176.08 34.2
5 -3 8 172.98 29.7
-5 3 -8 152.78 15.6
5 3 8 126.99 14.3
-5 3 -8 150.28 15.1
-6 -3 -8 13.7 7.2
-6 -3 -8 -3.8 12.9
6 3 8 13.5 8
-6 3 -8 -7.7 7.4
-7 -3 -8 1.9 14.5
7 -3 8 17.5 9.2
-7 3 -8 -20.2 10.6
7 3 8 -0.1 11.2
8 -3 8 13.1 15.9
-8 -3 -8 -1.2 10.5
8 3 8 -16 13.4
9 -4 -8 5.3 12.5
-8 -4 8 70.29 23
8 -4 -8 36.1 17.8
-8 4 8 42.8 16.8
7 -4 -8 14.6 10
-7 -4 8 15.9 10.6
-7 -4 8 5.1 6.5
-7 4 8 22.5 14.9
6 -4 -8 319.67 37.6
-6 -4 8 410.26 41.4
-6 -4 8 371.46 35.2
-6 -4 8 392.66 26.7
6 -4 -8 376.36 36
-6 4 8 435.06 38.6
5 -4 -8 5.9 8.8
5 -4 -8 12.3 9.8
-5 -4 8 -10.2 8
-5 -4 8 1.5 6.9
-5 -4 8 8.3 6.4
5 4 -8 20.9 10.6
-5 4 8 2 7.4
-4 -4 8 10.8 6.6
-4 -4 8 20.9 8.7
-4 -4 8 11.8 10.1
4 -4 -8 -0.4 6.6
4 -4 -8 -0.9 11.2
4 4 -8 0.9 10.5
-4 4 8 1.5 6
-3 -4 8 342.47 28.8
-3 -4 8 367.26 39.9
-3 -4 8 314.47 25.6
-3 -4 8 347.07 23.8
3 4 -8 296.27 32.2
-3 4 8 321.37 24
-2 -4 8 44.4 12
-2 -4 8 66.69 20.6
2 -4 -8 53.89 9
-2 -4 8 65.99 8.7
-2 -4 8 55.79 10
2 -4 -8 41.9 14.2
2 4 -8 55.89 15.7
-1 -4 8 20.2 11.5
1 -4 -8 12.6 7.7
1 -4 -8 11.5 8
-1 -4 8 -0.2 6.5
1 4 -8 -9.5 9.6
0 -4 8 85.09 18
0 -4 -8 130.19 30.4
0 -4 -8 96.59 17.6
-1 -4 -8 42.5 18.2
-1 -4 -8 45.3 11.8
-2 -4 -8 1.9 8.6
2 -4 8 12.8 10.4
-2 -4 -8 3.5 6.8
3 -4 8 86.89 19.9
-3 -4 -8 74.09 14.2
-3 -4 -8 67.39 23.1
-4 -4 -8 49.6 10.4
-4 -4 -8 68.29 23.8
4 -4 8 42.8 14.9
-5 -4 -8 252.47 19.9
-5 -4 -8 287.17 50.09
5 -4 8 248.08 39.3
-6 -4 -8 -15.1 17.3
6 -4 8 4.8 9.8
-6 -4 -8 -2.5 6.3
6 4 8 -0.5 5.9
-6 4 -8 -0.2 5.5
-6 4 -8 12 7.5
7 -4 8 14.6 17.3
-7 -4 -8 34.9 22.8
-7 -5 8 15.4 13.3
-7 -5 8 3.8 8.3
7 -5 -8 -2.3 14.4
-7 -5 8 -21.1 10
-6 -5 8 11.5 12.4
-6 -5 8 -6.9 7.6
-6 -5 8 -33.9 12.7
6 -5 -8 -7.1 16.2
-5 -5 8 110.39 23.1
5 -5 -8 102.09 25.7
-5 -5 8 170.68 22.9
-5 -5 8 122.19 19.7
5 -5 -8 107.19 23.1
-5 -5 8 144.69 30.6
-4 -5 8 5.2 9.1
4 -5 -8 -4.7 9.3
-4 -5 8 7.4 9.5
4 -5 -8 12.7 13.1
-4 -5 8 2.4 7.8
-4 -5 8 -17.9 8
3 -5 -8 17.5 10.2
3 -5 -8 0.1 8
-3 -5 8 7.8 8.7
-3 -5 8 18.5 9.1
-3 -5 8 42.6 18.5
-2 -5 8 152.28 15.6
-2 -5 8 149.49 13.1
-2 -5 8 105.69 25.4
-2 -5 8 138.29 24.5
2 -5 -8 157.48 34
-1 -5 8 1.6 12.8
1 -5 -8 3.4 10.7
-1 -5 8 10 8.1
0 -5 -8 2.7 6.1
0 -5 8 15.9 10.7
0 -5 8 13 11.3
1 -5 8 -6.7 5.4
-1 -5 -8 -4.4 13.4
2 -5 8 -5.6 9.2
-2 -5 -8 5 12.7
-2 -5 -8 21.4 10
3 -5 8 9.8 6.6
-3 -5 -8 -5.4 9.4
-3 -5 -8 16.3 12.4
4 -5 8 36.2 17.7
-4 -5 -8 16.9 9
-4 -5 -8 11.1 15.1
-5 -5 -8 41.7 18.4
5 -5 8 18.2 16.6
-5 -5 -8 31.3 10.4
-6 -5 -8 93.19 35.6
6 -5 8 69.89 20.6
-5 -6 8 29.3 16.6
-5 -6 8 -4.6 12.5
-5 -6 8 7.3 18.7
5 -6 -8 43.4 23.4
4 -6 -8 14.6 16.7
-4 -6 8 -3.6 13.1
-4 -6 8 -5.6 14.6
-4 -6 8 21.3 14.5
-4 -6 8 -4.1 9.9
3 -6 -8 72.99 26
3 -6 -8 104.69 12.7
-3 -6 8 72.59 19.1
-3 -6 8 97.29 29.4
-3 -6 8 85.39 15.5
-3 -6 8 86.29 20
-2 -6 8 24.3 19.5
-2 -6 8 34.7 15.1
2 -6 -8 24 17.4
-2 -6 8 13.7 6.6
-2 -6 8 7.6 7.3
-1 -6 8 33.5 16.3
-1 -6 8 95.09 28.2
1 -6 -8 94.89 27.2
0 -6 -8 -20.8 17.2
0 -6 8 43.9 17.2
0 -6 8 16.3 18.6
-1 -6 -8 -3.2 20.8
1 -6 8 -10.8 7.8
1 -6 8 13.2 16.6
2 -6 8 107.79 26.6
-2 -6 -8 54.99 27
-3 -6 -8 -4.2 21.1
3 -6 8 -13 12.2
-11 0 9 -17.6 13.1
10 0 -9 -14.5 8.3
-10 0 9 -7.2 9.6
-9 0 9 -12.7 6.9
9 0 -9 5.1 9.1
8 0 -9 4.6 7.5
-8 0 9 3.1 6.6
7 0 -9 -7.7 6.5
7 0 -9 13.9 6.4
-7 0 9 -9 4.4
-6 0 9 1.1 7.6
-6 0 9 3.5 5.4
6 0 -9 5.7 5.2
6 0 -9 -6.8 5.4
6 0 -9 1.3 8.6
5 0 -9 -4.8 2.3
-5 0 9 13.3 8.6
-5 0 9 3.2 2.3
5 0 -9 -5.4 2.6
5 0 -9 1.5 6.3
-5 0 9 1.8 2.8
4 0 -9 0.2 3.8
-4 0 9 -1.9 4.7
4 0 -9 -10.7 4.7
-4 0 9 -2.1 5.6
4 0 -9 4.1 4.2
-4 0 9 0.8 3.4
-3 0 9 -1.6 3
3 0 -9 2.2 3.5
3 0 -9 -3 5.2
3 0 -9 -1.4 3.4
-3 0 9 3.5 3.7
-3 0 9 6.8 5.2
-2 0 9 3.1 5
2 0 -9 -5.8 3.4
-2 0 9 -0.2 2.1
2 0 -9 1.8 4
-1 0 9 -0.1 2.1
-1 0 9 -2.8 4.4
1 0 -9 -0.9 4.1
-1 0 9 4.1 3.9
0 0 -9 0.6 4.3
0 0 9 -0.3 3.3
0 0 9 -3.2 2
0 0 -9 2.4 3.6
0 0 9 2.1 4.5
-1 0 -9 -4.2 3.1
1 0 9 -0.9 2.9
1 0 9 1.2 2.7
-1 0 -9 1.9 4.9
-2 0 -9 -1.9 4.8
2 0 9 0.5 2.9
-3 0 -9 6.5 5.2
3 0 9 4.3 4.2
-3 0 -9 -3.5 5.3
3 0 9 -4.6 4.5
-4 0 -9 1.7 5.9
4 0 9 -1.6 3.1
-4 0 -9 -3.4 6.1
4 0 9 3.5 7.1
5 0 9 0.6 4.6
-5 0 -9 4.6 7.3
-5 0 -9 -5.1 5.6
-6 0 -9 -13.6 6.5
6 0 9 0.7 8.9
6 0 9 4.4 5.5
-6 0 -9 -10.7 8.4
7 0 9 18.2 8.2
8 0 9 -17.8 6.8
-8 0 -9 32.2 17.1
-9 0 -9 15.5 18.1
9 0 9 10.7 9.9
-11 -1 9 63.29 21.9
-11 1 9 78.09 24.3
-10 -1 9 21.8 15
-10 1 9 8.5 10.7
-9 -1 9 312.07 37.9
9 1 -9 338.47 26.9
-9 1 9 298.67 38
-8 -1 9 -1.2 6.3
8 -1 -9 6.5 14.4
8 -1 -9 -6.6 8.1
-8 1 9 3.9 7.4
8 1 -9 -9.5 5.3
-7 -1 9 36.4 14
-7 -1 9 10.4 7.7
7 -1 -9 21.6 11.6
-7 -1 9 29.3 12.4
7 1 -9 41.4 10
-7 1 9 24.2 12
-6 -1 9 -8.6 4.6
6 -1 -9 -0.6 4.8
-6 -1 9 -0.4 6.8
6 -1 -9 14.3 9.4
6 1 -9 -8.8 4.3
-6 1 9 -1.6 3.1
-6 1 9 2.7 6.9
6 1 -9 -0.9 5.5
-5 -1 9 5.3 6.2
5 -1 -9 9.5 6.3
5 -1 -9 0.8 8
-5 -1 9 8.2 8.2
-5 -1 9 1.8 4.5
5 -1 -9 2.6 6.9
-5 1 9 3.3 5
5 1 -9 5.2 5.2
-5 1 9 10.6 6.9
5 1 -9 3.8 10.3
4 -1 -9 175.88 18.4
-4 -1 9 183.58 18.3
4 -1 -9 163.28 21
-4 -1 9 173.68 20.2
-4 -1 9 178.18 23.2
4 -1 -9 152.78 20.1
4 1 -9 188.48 19.8
4 1 -9 182.78 18.3
-4 1 9 166.58 19.9
-4 1 9 153.88 18.7
4 1 -9 179.18 24.4
-4 1 9 160.48 21.8
3 -1 -9 275.07 23
3 -1 -9 346.07 30.4
-3 -1 9 298.67 24.6
3 -1 -9 303.77 27.4
-3 -1 9 311.77 24.4
-3 -1 9 310.87 29.7
-3 1 9 300.37 25.4
3 1 -9 303.77 23.7
-3 1 9 301.87 30.3
-3 1 9 281.87 24.9
3 1 -9 301.87 32.7
3 1 -9 298.97 22.9
-2 -1 9 39.2 10.2
-2 -1 9 29.6 10.7
2 -1 -9 20.3 8
-2 -1 9 47.9 10.3
2 -1 -9 20.9 7.8
2 -1 -9 30.3 9
-2 1 9 42.9 11
-2 1 9 26.3 8
2 1 -9 16.6 7.2
2 1 -9 28.3 7.8
-2 1 9 15.5 8.7
1 -1 -9 314.87 28.6
-1 -1 9 323.67 31.4
1 -1 -9 294.67 22.7
-1 -1 9 297.17 21.9
-1 -1 9 323.97 24.4
1 1 -9 257.87 23.1
1 1 -9 305.87 20.3
-1 1 9 322.27 24.6
-1 1 9 303.77 28.6
-1 1 9 323.97 25.1
0 -1 9 933.01 44.8
0 -1 9 936.01 38.6
0 -1 -9 999.1 44.3
0 -1 -9 1023.7 54.69
0 1 -9 936.71 47.4
0 1 9 872.81 49.99
0 1 -9 911.71 37.3
0 1 9 954.6 45.2
0 1 9 984.4 45.2
1 -1 9 286.67 24.1
-1 -1 -9 345.17 24.8
-1 -1 -9 286.17 28.8
-1 1 -9 263.37 19.4
1 1 9 327.27 24.3
-1 1 -9 304.07 26.9
1 1 9 290.77 25
1 1 9 270.67 26.4
2 -1 9 185.98 20
-2 -1 -9 165.78 17.4
-2 -1 -9 184.38 23.4
2 1 9 166.58 17.6
-2 1 -9 166.38 20.3
2 1 9 179.68 17.9
-2 1 -9 174.78 16.4
-3 -1 -9 326.17 25.9
-3 -1 -9 317.47 32.4
3 -1 9 325.47 32.3
3 -1 9 339.97 27.6
3 1 9 312.87 24.4
3 1 9 342.67 26.7
-3 1 -9 350.16 32.2
-3 1 -9 385.16 27.4
4 -1 9 20.7 12.5
-4 -1 -9 28.4 10.4
4 -1 9 33.4 11.2
-4 -1 -9 35.8 12.4
4 1 9 35.9 9.1
-4 1 -9 23.9 9.5
4 1 9 36.8 10.7
-5 -1 -9 20 9
5 -1 9 1.7 12.2
5 -1 9 10.9 7.1
-5 -1 -9 16.5 7.5
5 1 9 6.8 5.5
-5 1 -9 -0.4 9.5
-5 1 -9 11.9 7.3
5 1 9 4 9.4
6 -1 9 70.99 15.4
-6 -1 -9 66.59 16.2
-6 -1 -9 56.39 25.4
6 1 9 55.29 14.9
-6 1 -9 50.39 16
6 1 9 70.39 12.6
-7 -1 -9 -19.8 9.9
7 -1 9 0.7 6.5
7 1 9 2.5 5.9
-7 1 -9 3.3 12.6
-7 1 -9 -10.3 8.4
8 -1 9 5.5 9.3
-8 -1 -9 -3.9 9.4
8 1 9 6.5 7.6
-9 -1 -9 49.1 28.8
9 -1 9 47.9 15.8
9 1 9 50.19 11.7
-9 1 -9 30.3 23.6
10 2 -9 -7.8 11.3
-10 2 9 -26.9 13.2
9 -2 -9 5.2 11.1
-9 -2 9 -4.4 6.7
9 2 -9 18.4 9.7
-9 2 9 8.3 10
-8 -2 9 202.98 34.9
-8 -2 9 156.88 18.6
8 -2 -9 187.88 34.2
-8 2 9 183.98 25.3
8 2 -9 155.18 19.8
7 -2 -9 83.29 20.7
-7 -2 9 43.4 11.8
-7 -2 9 22.5 17.2
-7 -2 9 25 13.5
-7 2 9 57.59 15
7 2 -9 59.89 13.4
6 -2 -9 4 8.2
-6 -2 9 2 4.4
6 -2 -9 -3.1 8
-6 -2 9 6.1 10.7
-6 2 9 4.6 5.8
6 2 -9 12 7.2
5 -2 -9 6.6 7.7
-5 -2 9 11.6 8.1
-5 -2 9 6.4 7.5
5 -2 -9 1.6 6.4
-5 -2 9 -4.5 4.7
5 -2 -9 -7.2 4.8
-5 2 9 -5.3 10.2
5 2 -9 22.7 12
-5 2 9 7.2 4.6
5 2 -9 -1.5 6.3
4 -2 -9 180.18 21.7
-4 -2 9 234.58 20.7
4 -2 -9 159.68 19.5
-4 -2 9 187.68 26
-4 -2 9 178.38 20.6
4 -2 -9 208.98 26
-4 2 9 193.08 20.5
4 2 -9 230.18 29.4
-4 2 9 200.18 26.5
4 2 -9 162.58 19.3
-3 -2 9 104.39 13.2
-3 -2 9 99.49 21.8
3 -2 -9 107.69 22
3 -2 -9 96.89 17
3 -2 -9 130.09 16.5
3 2 -9 99.69 17.1
-3 2 9 105.59 20.6
-3 2 9 101.99 18.6
-3 2 9 94.19 21.4
2 -2 -9 -2.9 4
2 -2 -9 -0.2 4.7
-2 -2 9 0.8 4.2
-2 -2 9 3.7 4.1
2 -2 -9 -3.8 2.9
2 2 -9 3 4.7
-2 2 9 -4.8 4.3
-2 2 9 3.8 3.6
-2 2 9 -0.5 3.4
-1 -2 9 56.09 7.7
1 -2 -9 55.19 15.2
1 -2 -9 33.1 9.4
-1 -2 9 84.89 15.7
-1 -2 9 62.39 17.7
-1 2 9 63.59 17.7
1 2 -9 65.59 14.9
-1 2 9 59.69 13.6
-1 2 9 41.6 8.8
0 -2 -9 650.03 47.9
0 -2 9 639.14 39
0 -2 -9 642.64 35.6
0 2 -9 615.74 41.5
0 2 9 615.34 37.5
0 2 9 684.73 29
0 2 9 648.44 46.9
-1 -2 -9 197.48 18.7
1 -2 9 212.68 22.3
-1 -2 -9 211.68 27.3
1 2 9 223.48 26.2
-1 2 -9 224.58 26
1 2 9 203.68 19.9
1 2 9 194.58 15.8
2 -2 9 37.8 12.3
-2 -2 -9 10 10.8
-2 -2 -9 30.7 9
2 2 9 45.4 14.1
2 2 9 20.1 6.9
2 2 9 16.8 6.6
-2 2 -9 43.4 12.9
-2 2 -9 33.4 3.6
-2 2 -9 36.1 4
2 2 9 28.2 8.1
3 -2 9 132.39 22.1
-3 -2 -9 109.69 17
-3 -2 -9 97.59 22.9
-3 2 -9 89.29 20.1
3 2 9 134.99 14.2
3 2 9 108.19 14.1
-3 2 -9 127.59 10.3
-3 2 -9 110.89 11.3
-4 -2 -9 1468.75 82.79
-4 -2 -9 1423.36 56.09
4 -2 9 1494.15 69.99
-4 2 -9 1326.47 51.79
-4 2 -9 1446.06 48
4 2 9 1389.86 52.89
-4 2 -9 1453.55 76.99
4 2 9 1443.06 55.39
5 -2 9 305.97 38.4
-5 -2 -9 320.07 24.3
-5 -2 -9 293.67 38.2
5 2 9 266.87 21.7
-5 2 -9 303.27 26.3
5 2 9 307.87 25.2
-5 2 -9 317.97 23.3
-6 -2 -9 2.1 9.4
6 -2 9 2.5 8.2
-6 -2 -9 33.9 9.3
6 2 9 20.6 10.8
-6 2 -9 24.7 9.5
6 2 9 18.1 8
-6 2 -9 47.8 12.9
-7 -2 -9 -9.3 7.8
-7 -2 -9 -3.1 7.6
7 -2 9 3.6 7.5
-7 2 -9 21.2 12.1
7 2 9 -6.2 5.9
7 2 9 16.4 12.5
-7 2 -9 6.5 9.8
8 -2 9 106.59 23
-8 -2 -9 157.08 38.7
-8 2 -9 93.69 22.3
-8 2 -9 103.29 24.4
8 2 9 112.19 13.9
-10 -3 9 -16.9 14.5
10 -3 -9 0.3 16.4
-10 3 9 -14.4 18.3
-9 -3 9 9.5 17.9
9 -3 -9 10 12.2
9 3 -9 9.5 11.1
-9 3 9 -22.8 9.6
-8 -3 9 43.6 11.3
8 -3 -9 11.6 13.2
-8 -3 9 -14.1 10.9
-8 3 9 16.7 12.2
8 3 -9 19.2 10.2
-7 -3 9 13.4 10.2
7 -3 -9 0.8 10.1
-7 -3 9 -3.9 6.2
7 3 -9 -4.3 7.9
-7 3 9 1.2 11.2
6 -3 -9 38.7 16.6
-6 -3 9 44.5 16.6
6 -3 -9 47.8 16.5
-6 -3 9 69.99 18.5
-6 -3 9 55.59 12.5
-6 3 9 52.49 15.5
6 3 -9 42 12.9
-5 -3 9 16.8 11.5
-5 -3 9 24.1 8.2
5 -3 -9 20 10.1
-5 -3 9 50.59 14
5 -3 -9 29 12.3
5 3 -9 18.7 9.6
-5 3 9 22.1 10.9
4 -3 -9 542.65 46.1
-4 -3 9 582.14 35.1
-4 -3 9 535.25 46.7
-4 -3 9 560.54 34.3
4 -3 -9 566.54 37.8
-4 3 9 532.75 34.5
4 3 -9 522.25 38
-3 -3 9 32.7 9.7
3 -3 -9 45.5 16.5
-3 -3 9 41.9 14.3
3 -3 -9 65.39 13.3
-3 -3 9 31.5 10.2
3 -3 -9 54.29 13.9
-3 3 9 34.8 8.7
-3 3 9 32.2 13.9
3 3 -9 38.1 12.6
2 -3 -9 627.44 33.2
2 -3 -9 610.54 49.7
-2 -3 9 598.54 27.2
2 -3 -9 632.14 40.2
-2 -3 9 618.34 38.5
-2 -3 9 597.44 50.79
-2 3 9 592.84 48.9
-2 3 9 646.94 29.2
2 3 -9 569.04 44.4
-1 -3 9 227.58 22.9
1 -3 -9 171.08 31.1
-1 -3 9 165.28 31.5
-1 3 9 159.58 10.7
-1 3 9 188.38 25.8
1 3 -9 178.18 23.9
0 -3 -9 199.58 20.7
0 -3 -9 211.38 35.5
0 -3 9 289.97 28
0 3 9 207.18 27.9
0 3 -9 207.68 26.2
-1 -3 -9 355.66 26.5
1 -3 9 374.16 33.5
-1 -3 -9 403.26 40.1
-1 3 -9 299.47 32.6
1 3 9 351.76 29.2
1 3 9 369.96 38.8
-2 -3 -9 55.89 19.1
2 -3 9 32.1 12.2
-2 -3 -9 50.69 12.7
2 3 9 35.7 11.4
3 -3 9 42.2 14.1
-3 -3 -9 36.8 11.3
-3 -3 -9 54.99 21
3 3 9 43.7 12.3
-4 -3 -9 -2.1 6.1
-4 -3 -9 -5.3 10.2
4 -3 9 0.6 7.1
4 3 9 8.2 5.7
4 3 9 2.5 3.8
5 -3 9 25.4 11.6
-5 -3 -9 31.4 15.8
-5 -3 -9 27.4 8.5
-5 3 -9 25.2 7.2
-5 3 -9 32.1 7.9
5 3 9 18.1 7.6
-6 -3 -9 55.89 12.5
-6 -3 -9 54.09 23.9
6 -3 9 67.39 18.7
6 3 9 62.79 13.6
-6 3 -9 47.3 12.6
7 -3 9 54.89 18.8
-7 -3 -9 88.29 30.8
-7 3 -9 46.6 17.1
-7 3 -9 69.19 18.9
7 3 9 51.99 18.6
8 -3 9 -13.7 14.2
-8 3 -9 12.2 15
9 -4 -9 -16.1 15.9
-9 -4 9 3.2 21.6
-9 4 9 17.2 21.7
-8 -4 9 100.19 15.7
-8 -4 9 133.19 33.3
8 -4 -9 44.2 20.3
-8 4 9 77.89 22.8
7 -4 -9 342.47 40.3
-7 -4 9 350.96 42.5
-7 -4 9 369.76 27.7
7 4 -9 302.17 30.7
-6 -4 9 13.7 7.3
-6 -4 9 5.8 11.5
6 -4 -9 3.2 10.8
6 -4 -9 -2.2 12.7
-6 -4 9 -19.2 11
-6 4 9 -18.1 6.7
6 4 -9 -0.6 10
5 -4 -9 224.18 31.1
-5 -4 9 215.28 22.4
-5 -4 9 167.88 23.1
5 -4 -9 170.58 28
-5 -4 9 160.58 33.4
-5 4 9 204.38 23.6
5 4 -9 202.38 27.2
-4 -4 9 35.1 11.6
-4 -4 9 27 15.9
-4 -4 9 10.2 8.9
4 -4 -9 25.6 11.5
4 -4 -9 56.39 18
4 4 -9 2.4 11.1
-4 4 9 32.5 10.3
-3 -4 9 -2 4.1
-3 -4 9 10.4 8
3 -4 -9 8.8 9.4
-3 -4 9 6.3 7.4
-3 -4 9 -6.2 5.3
-3 4 9 -5.1 5.1
2 -4 -9 -0.6 3.9
-2 -4 9 -4.4 8.9
2 -4 -9 -8.7 6.7
-2 -4 9 -5 3.2
-2 -4 9 -3.8 5.3
-2 -4 9 -1.8 3.2
2 4 -9 10.1 9.7
-1 -4 9 4.1 7.9
1 -4 -9 8.8 9.9
0 -4 -9 439.26 33.7
0 -4 -9 483.45 49.6
0 -4 9 568.54 54.89
0 -4 9 451.35 38.9
-1 -4 -9 52.29 13.6
1 -4 9 101.49 22.5
-1 -4 -9 74.39 20.2
2 -4 9 -3.9 4.7
3 -4 9 344.47 36.5
-3 -4 -9 326.47 43.4
-3 -4 -9 383.66 28.8
-4 -4 -9 36.3 23.8
-4 -4 -9 44.4 11.2
4 -4 9 55.49 19.7
5 -4 9 19.6 13.6
-5 -4 -9 -3.7 15.4
-5 -4 -9 7.9 8.3
6 -4 9 49.5 20.3
-6 -4 -9 52.49 27.3
-7 -4 -9 8.1 21.7
7 -4 9 32.7 21.8
-7 -5 9 27.1 18.1
-7 -5 9 -11.2 8.3
7 -5 -9 -4.9 13.9
-7 5 9 -6.7 15
6 -5 -9 18 19.3
6 -5 -9 74.59 22.5
-6 -5 9 31 17.3
-6 -5 9 53.19 21.8
-6 -5 9 27.5 11.7
5 -5 -9 73.99 18.7
5 -5 -9 98.19 29.7
-5 -5 9 68.79 15.4
-5 -5 9 48.1 18.9
-5 -5 9 57.69 18.7
4 -5 -9 81.39 26.2
-4 -5 9 68.69 16.8
4 -5 -9 74.59 14.8
-4 -5 9 81.39 16.5
-4 -5 9 85.99 24.9
-3 -5 9 10.8 7.2
-3 -5 9 20.4 15.4
-3 -5 9 7.2 8.1
3 -5 -9 14.9 11.7
3 -5 -9 5.1 6.1
-2 -5 9 -19.6 9.4
-2 -5 9 20.7 4.7
2 -5 -9 5.1 13.7
-2 -5 9 9.6 10.2
-2 -5 9 9.7 4.1
-1 -5 9 29 13.3
-1 -5 9 18.6 12.8
1 -5 -9 35.9 17.1
0 -5 9 89.59 23.7
0 -5 -9 107.59 26.9
0 -5 9 108.79 30.4
1 -5 9 159.88 29.8
-1 -5 -9 173.58 37.8
2 -5 9 359.16 40
-2 -5 -9 384.96 47.8
-3 -5 -9 72.49 18.2
3 -5 9 133.39 30.6
-3 -5 -9 113.09 32
-4 -5 -9 -7.1 15.1
4 -5 9 7.3 12
-4 -5 -9 44 13
5 -5 9 6.3 13.8
-5 -5 -9 -3.3 16
4 -6 -9 124.49 35
-4 -6 9 80.19 28.8
-4 -6 9 69.39 17.2
-4 -6 9 49.6 16.9
-3 -6 9 42.1 20
3 -6 -9 -2.9 25.3
-3 -6 9 8.9 10.2
-3 -6 9 26.6 16.4
-2 -6 9 108.09 24.8
-2 -6 9 108.99 34.3
-1 -6 9 11.5 14.5
-1 -6 9 -16.4 17.1
0 -6 9 63.49 27.4
0 -6 9 31.9 16.5
0 -6 -9 0 21
-1 -6 -9 82.49 29.9
1 -6 9 32.3 26.7
1 -6 9 33.2 21.1
2 -6 9 17.4 12.5
-2 -6 -9 2.8 14.3
-11 0 10 232.58 43.5
-10 0 10 19.1 19.6
-9 0 10 32.9 16.9
-8 0 10 166.98 30.9
8 0 -10 204.18 23.2
-7 0 10 68.09 18
7 0 -10 64.49 15.5
-7 0 10 52.79 14.1
6 0 -10 437.36 36.6
6 0 -10 412.66 39.3
-6 0 10 404.36 32.6
-6 0 10 380.76 36.7
-6 0 10 408.96 39.4
5 0 -10 209.58 21.3
-5 0 10 257.47 28.1
5 0 -10 289.37 28.2
-5 0 10 308.07 27.7
5 0 -10 220.18 41
-5 0 10 249.18 28.7
-4 0 10 279.57 28.8
4 0 -10 304.47 33.2
4 0 -10 289.17 24.7
-4 0 10 341.67 31.8
-4 0 10 297.37 25.6
4 0 -10 283.27 26.8
-3 0 10 283.87 28
3 0 -10 220.98 27.8
3 0 -10 251.77 22.6
3 0 -10 277.87 25
-3 0 10 232.58 25.8
-3 0 10 259.47 23.8
-2 0 10 186.08 19.5
-2 0 10 189.78 22.2
2 0 -10 171.98 18.6
-2 0 10 163.68 20.3
2 0 -10 180.18 19.8
1 0 -10 2310.37 78.29
1 0 -10 2200.08 96.89
-1 0 10 2301.87 78.29
-1 0 10 2303.97 83.19
-1 0 10 2301.57 88.59
0 0 10 -0.9 4.1
0 0 10 6.1 4.5
0 0 -10 2.2 5.6
-1 0 -10 107.99 23.2
-1 0 -10 114.89 19.2
1 0 10 98.19 17.3
1 0 10 119.39 15.4
-2 0 -10 79.49 15.4
2 0 10 79.69 15
-2 0 -10 44.4 12.7
-3 0 -10 15.7 8.3
3 0 10 4.6 5
-3 0 -10 -7.7 3.8
3 0 10 2.7 6.7
4 0 10 294.87 29.9
-4 0 -10 307.17 28.7
-4 0 -10 332.87 32.7
4 0 10 284.97 25
-5 0 -10 7 8.9
5 0 10 6.3 9.2
5 0 10 4.6 7
-5 0 -10 -0.5 8.2
6 0 10 -7.4 6.2
-6 0 -10 -0.2 11.4
-7 0 -10 5.4 13.9
7 0 10 -12 5.4
8 0 10 61.29 16.4
-8 0 -10 121.39 28.2
-11 -1 10 2.4 11.2
-11 1 10 -6.5 14
10 1 -10 19.5 12.9
-10 1 10 26.9 17.4
9 -1 -10 9 12
-9 -1 10 -1.8 12.2
9 1 -10 -9.2 8.7
-9 1 10 -2.6 12.2
8 -1 -10 16.5 10.8
-8 -1 10 0.2 9.3
-8 -1 10 19.6 10.1
8 1 -10 -10.5 6.8
-8 1 10 6.6 7.6
-7 -1 10 69.89 19.2
7 -1 -10 127.29 24.8
-7 -1 10 113.49 19.4
7 1 -10 84.49 16.9
-7 1 10 96.89 26.8
6 -1 -10 291.57 32.5
6 -1 -10 310.27 28
-6 -1 10 324.67 34.4
-6 -1 10 312.17 26.7
6 -1 -10 235.98 30.2
-6 -1 10 356.76 34.2
-6 1 10 362.16 33.9
-6 1 10 308.27 51.09
6 1 -10 296.27 25.5
-5 -1 10 32.9 12.3
-5 -1 10 48.4 11.7
5 -1 -10 34 9.9
5 -1 -10 7.1 11.3
5 -1 -10 41.5 13.3
-5 -1 10 30 12.3
-5 1 10 53.09 14
5 1 -10 50.19 13.3
-5 1 10 39.4 11.7
-5 1 10 19.8 13
5 1 -10 18.2 10.9
5 1 -10 49 11
-4 -1 10 625.44 37
4 -1 -10 547.85 42.6
-4 -1 10 614.84 45.7
4 -1 -10 565.54 42
4 -1 -10 620.84 45.9
-4 -1 10 588.54 39.8
-4 1 10 598.14 46.2
-4 1 10 588.94 39.2
4 1 -10 581.74 36.3
4 1 -10 624.44 37.1
-4 1 10 613.14 40.5
-3 -1 10 35.8 10.8
-3 -1 10 34.4 10.4
3 -1 -10 43.3 12.2
3 -1 -10 36 11.2
3 -1 -10 44.9 13.6
-3 -1 10 32.7 9.1
3 1 -10 45.5 10.3
-3 1 10 30.8 9.4
-3 1 10 24.6 11.1
3 1 -10 35.4 9.9
-3 1 10 39 11.2
-2 -1 10 4.7 5.1
2 -1 -10 5.5 5.9
-2 -1 10 3.6 2.7
-2 -1 10 8.1 6
2 -1 -10 10.4 5.7
-2 1 10 4.3 4
2 1 -10 3 4.3
-2 1 10 -1.8 6.4
-2 1 10 3.5 3.3
2 1 -10 -7.8 3.6
-1 -1 10 6.2 5.6
1 -1 -10 -1.1 3.9
-1 -1 10 7.7 6.6
-1 -1 10 7.3 5
1 -1 -10 11.4 6.9
-1 1 10 -0.3 6
-1 1 10 3.1 4.2
1 1 -10 5.6 5.8
1 1 -10 7.4 4
-1 1 10 21.5 7.7
0 -1 10 53.19 14.9
0 -1 10 50.09 10.2
0 -1 -10 57.69 12.7
0 -1 10 63.29 13.5
0 -1 -10 42.3 13
0 1 -10 49.3 9.7
0 1 -10 54.39 14.4
0 1 10 36.5 10.5
0 1 10 68.39 14.2
0 1 10 42.2 13
-1 -1 -10 1649.04 76.69
-1 -1 -10 1653.03 63.99
1 -1 10 1692.23 67.09
1 1 10 1769.92 66.09
-1 1 -10 1626.74 70.29
-1 1 -10 1719.93 58.79
1 1 10 1724.93 76.39
1 1 10 1690.03 69.19
-2 -1 -10 229.18 21.8
2 -1 10 217.88 22.4
-2 -1 -10 243.88 27.9
-2 1 -10 164.88 31.2
2 1 10 197.38 20.2
-2 1 -10 179.88 18
-3 -1 -10 1185.08 67.19
-3 -1 -10 1099.39 52.19
3 -1 10 1199.08 56.49
-3 1 -10 1067.69 59.59
3 1 10 1037.2 48.7
3 1 10 1046.8 52.09
-3 1 -10 1071.99 50.99
4 -1 10 54.49 14.9
4 -1 10 50.69 13.4
-4 -1 -10 37.9 11.5
-4 -1 -10 40.4 16.8
-4 1 -10 43.5 13.2
-4 1 -10 51.49 15.7
4 1 10 56.59 13.4
4 1 10 52.39 12.4
-5 -1 -10 271.97 26.9
-5 -1 -10 280.47 35.1
5 -1 10 316.47 29.1
5 1 10 295.97 25.1
-5 1 -10 286.37 29.3
-5 1 -10 286.77 33.7
5 1 10 297.47 29.3
6 -1 10 146.59 23.9
-6 -1 -10 105.69 27.3
-6 -1 -10 151.68 23
6 1 10 140.69 17
6 1 10 93.89 22.8
-6 1 -10 132.69 24.5
-7 -1 -10 359.06 33.6
7 -1 10 409.86 34.6
-7 -1 -10 406.86 45.4
7 1 10 405.66 29.3
-7 1 -10 384.16 41.2
-7 1 -10 380.46 34.2
8 -1 10 32.8 13.7
-8 -1 -10 10.3 20.7
8 1 10 48.4 10.8
-8 1 -10 34.8 16.3
-10 -2 10 62.99 26.2
10 -2 -10 33.5 13.5
10 2 -10 73.49 18.2
-9 -2 10 77.19 24.4
9 -2 -10 66.89 20.3
9 2 -10 79.99 16.8
-9 2 10 36 18.9
-8 -2 10 217.88 23.7
8 -2 -10 278.37 34.8
-8 -2 10 231.78 39.7
8 2 -10 206.38 23.9
-8 2 10 305.17 35.1
-7 -2 10 336.17 37.9
7 -2 -10 300.67 33.7
-7 -2 10 262.27 23.8
-7 2 10 217.98 42.5
7 2 -10 219.28 23.2
6 -2 -10 2.9 8.4
-6 -2 10 -4.8 4.8
-6 -2 10 -7.5 8.2
6 -2 -10 5.3 7.9
6 2 -10 8.9 8
-6 2 10 -8.1 4.9
-5 -2 10 674.53 43.5
5 -2 -10 618.64 48.4
-5 -2 10 612.44 37.2
5 -2 -10 616.54 45.5
-5 -2 10 641.74 50.59
5 -2 -10 595.04 50.09
-5 2 10 628.24 41.3
5 2 -10 618.64 38.9
4 -2 -10 41.9 16
4 -2 -10 59.69 14.5
4 -2 -10 40.1 13.6
-4 -2 10 58.19 13.4
-4 -2 10 54.89 17.9
-4 -2 10 47 11.5
-4 2 10 66.59 15
-4 2 10 62.09 15.6
4 2 -10 60.49 14.7
-4 2 10 47.1 16.7
-3 -2 10 25.2 8.5
-3 -2 10 28 9.2
3 -2 -10 9 6.9
3 -2 -10 24.3 10.2
-3 -2 10 10.1 10
3 -2 -10 18.1 9.3
-3 2 10 6.8 4.8
-3 2 10 27.9 10.6
3 2 -10 2.8 8.5
-3 2 10 1.4 7.2
-2 -2 10 126.09 16.3
-2 -2 10 93.09 22
-2 -2 10 114.99 13.6
2 -2 -10 141.19 25.5
-2 2 10 120.39 21
2 2 -10 93.39 18.8
-2 2 10 98.79 13
-2 2 10 122.19 30.1
1 -2 -10 1.2 6.5
1 -2 -10 9.1 6.4
-1 -2 10 9.8 5.8
-1 -2 10 4.3 3.9
-1 -2 10 8.5 8.4
1 2 -10 13 6.5
-1 2 10 15.6 7.6
-1 2 10 8.3 5
-1 2 10 -5.5 6.1
0 -2 10 74.49 16.1
0 -2 -10 59.39 12.6
0 -2 -10 57.89 16.7
0 2 -10 57.39 14.8
0 2 10 48 12.5
0 2 10 38.4 11.1
0 2 10 43.3 9
1 -2 10 25.3 8.9
-1 -2 -10 7.4 9
-1 -2 -10 18.6 7.5
1 2 10 19.8 10.4
1 2 10 4 6.7
-1 2 -10 24.6 10.3
1 2 10 21.3 7.3
2 -2 10 75.69 16.6
-2 -2 -10 82.39 21.5
-2 -2 -10 71.89 13.9
2 2 10 70.29 14
-2 2 -10 72.99 6.3
2 2 10 73.99 13.5
2 2 10 70.69 20.1
2 2 10 64.39 11.9
-2 2 -10 71.89 17.9
-3 -2 -10 72.79 14.9
3 -2 10 95.89 20.5
-3 -2 -10 89.09 24.6
3 2 10 86.79 12.1
3 2 10 84.69 15.3
-3 2 -10 84.79 8.8
-3 2 -10 102.19 10.8
-4 -2 -10 29.2 13.4
-4 -2 -10 24.4 9.3
-4 2 -10 27.2 8.7
4 2 10 21.2 8.2
-4 2 -10 29.6 7.8
4 2 10 29.8 8.9
5 -2 10 -0.6 7.6
-5 -2 -10 -7.4 8.7
-5 -2 -10 -16.4 9.1
-5 2 -10 -5 5.9
5 2 10 -2.9 6.9
5 2 10 1.5 5.6
-5 2 -10 -7.2 6
-6 -2 -10 56.19 15.3
-6 -2 -10 60.19 20.4
6 -2 10 76.39 18.1
-6 2 -10 74.69 18.2
6 2 10 44.6 11.8
-6 2 -10 76.89 15
6 2 10 51.09 15.1
-7 -2 -10 15.3 19
-7 -2 -10 -6.5 10.3
7 -2 10 -3.8 10.6
-7 2 -10 -6.5 13.4
-7 2 -10 24.7 12.3
7 2 10 -2.7 7
7 2 10 13 13.9
-8 -2 -10 78.99 29.5
8 -2 10 10.4 15.1
-8 2 -10 27.6 15.8
-8 2 -10 4.2 18.9
8 2 10 47.5 12
-9 -3 10 113.09 34.8
-9 -3 10 107.09 19
9 -3 -10 91.29 26.1
-9 3 10 117.39 28.2
9 3 -10 104.49 21.3
8 -3 -10 27.6 16.5
-8 -3 10 20 14.4
-8 -3 10 20.3 9.5
8 3 -10 -2.3 11.9
-8 3 10 -5.6 9.6
-7 -3 10 71.19 18.4
-7 -3 10 58.09 13.5
7 -3 -10 31.7 15.7
-7 3 10 72.19 18.6
7 3 -10 37.6 15.4
6 -3 -10 9.6 12.1
6 -3 -10 33.7 14.1
-6 -3 10 -8.4 4.8
-6 -3 10 0.4 9.5
-6 -3 10 11.2 11.2
-6 3 10 5.6 7.4
6 3 -10 1.1 11
-5 -3 10 127.39 17.2
-5 -3 10 98.19 22.7
5 -3 -10 172.58 22
-5 -3 10 121.79 20.5
5 -3 -10 131.89 27.8
-5 3 10 163.48 20.5
4 -3 -10 351.86 42.2
-4 -3 10 406.16 29.9
4 -3 -10 411.36 33.5
-4 -3 10 334.57 28.1
-4 3 10 360.86 28
4 3 -10 341.87 32
3 -3 -10 161.68 20.1
-3 -3 10 153.38 19.4
3 -3 -10 153.48 30.4
-3 -3 10 144.59 30.1
-3 -3 10 168.88 17
3 3 -10 125.49 23.9
-3 3 10 192.68 18.1
-2 -3 10 362.36 20.5
-2 -3 10 392.66 31.2
2 -3 -10 384.36 30.5
2 -3 -10 410.86 41.7
-2 -3 10 295.77 36.4
2 3 -10 382.66 35
-2 3 10 323.37 56.29
-2 3 10 370.36 22
-1 -3 10 407.16 44.7
-1 -3 10 426.16 33.8
1 -3 -10 373.06 30.5
1 -3 -10 479.15 45.4
-1 3 10 441.36 43.8
-1 3 10 374.06 18.1
1 3 -10 376.16 35.6
0 -3 10 112.19 20.5
0 -3 -10 80.39 21
0 -3 -10 114.99 19.2
0 3 -10 107.09 23
0 3 10 140.69 22.4
0 3 10 98.19 28.5
-1 -3 -10 44.4 16.8
1 -3 10 42.1 13.4
1 3 10 38.6 12.3
2 -3 10 318.47 32.1
-2 -3 -10 223.68 31.1
-2 -3 -10 217.38 22.1
2 3 10 253.27 25.3
-3 -3 -10 64.79 14.2
-3 -3 -10 23.4 14
3 -3 10 44.3 14.3
3 3 10 33.5 11.1
-4 -3 -10 18.5 10.1
4 -3 10 23.7 11
-4 -3 -10 2.7 10.1
4 3 10 21.3 8.1
4 3 10 22.7 6.3
5 -3 10 3.2 7.9
-5 -3 -10 -3.2 8.6
-5 -3 -10 3.3 12.3
-5 3 -10 -4.4 4
-5 3 -10 -2.4 4.2
5 3 10 -7 6.4
5 3 10 6.5 6.3
6 -3 10 1.9 7.9
-6 -3 -10 -23.1 8.3
-6 -3 -10 1.7 12.1
-6 3 -10 -5.6 7.6
-6 3 -10 -4.6 7
6 3 10 13.7 9.8
-7 -3 -10 -0.7 16.1
7 -3 10 -0.1 14.8
-7 3 -10 16.4 12.3
-7 3 -10 -4.4 17.2
8 -4 -10 14.1 13
-8 -4 10 11.8 9.8
-8 -4 10 -10.8 17.5
-8 4 10 23 19.5
8 4 -10 29.4 17.2
-7 -4 10 49.1 13
7 -4 -10 48.2 18
-7 -4 10 49 17.5
7 4 -10 3.3 15.5
-7 4 10 21.9 16.6
-6 -4 10 -7 6.9
-6 -4 10 24.3 12.4
6 -4 -10 -14.8 12.2
-6 -4 10 -8.5 11.9
6 -4 -10 4.3 8.4
-6 4 10 5.9 7.2
6 4 -10 1.9 9.6
-5 -4 10 10.2 9.1
-5 -4 10 9.8 11.4
5 -4 -10 0 11.2
5 -4 -10 5.9 12.6
-5 -4 10 8.7 10.7
5 4 -10 -3.8 11.7
-5 4 10 2.8 8.3
-4 -4 10 177.18 34.5
4 -4 -10 236.08 26.3
-4 -4 10 249.78 24.5
4 -4 -10 244.08 41.2
-4 -4 10 209.28 21.9
4 4 -10 184.88 30.6
-4 4 10 210.38 22.9
-3 -4 10 180.48 21.9
-3 -4 10 177.88 17.1
-3 -4 10 279.77 36.1
3 -4 -10 223.98 38.5
-3 -4 10 217.38 18.7
3 -4 -10 165.08 22.5
-3 4 10 197.38 18.4
-2 -4 10 24.7 5.2
-2 -4 10 18.4 12.6
2 -4 -10 13.7 10.6
-2 -4 10 32.4 3.5
-1 -4 10 78.89 18.1
1 -4 -10 16.8 17.8
-1 -4 10 54.39 19.4
0 -4 10 67.09 22
0 -4 10 31.5 12
0 -4 -10 37.2 18.1
-1 -4 -10 -5.7 8.1
-1 -4 -10 6.2 11.2
1 -4 10 7.3 8.5
-2 -4 -10 73.49 20.6
2 -4 10 38.9 13
-2 -4 -10 44.9 13.4
-3 -4 -10 -16.1 6.9
3 -4 10 27.3 13.5
-3 -4 -10 -0.2 14.7
-4 -4 -10 37.4 12.9
4 -4 10 39.8 15.6
-4 -4 -10 54.19 20.6
-5 -4 -10 59.29 29.7
5 -4 10 99.89 28.1
-5 -4 -10 105.79 17
-6 -4 -10 11.3 22
6 -4 10 16.8 16.3
-7 -5 10 18 17.9
7 -5 -10 3.4 13.8
-7 -5 10 -2.9 11.2
-7 5 10 37 19.6
-6 -5 10 5.1 15.5
-6 -5 10 35.4 14
-6 -5 10 -13.7 11.5
6 -5 -10 -11 18.4
6 -5 -10 -3.8 10.1
-6 5 10 -2.3 12.7
5 -5 -10 24.4 15.7
-5 -5 10 28.8 14.1
-5 -5 10 27.4 22.2
5 -5 -10 18.4 11.7
-5 -5 10 34.8 11.4
-5 -5 10 34.4 14.1
-4 -5 10 76.49 23.3
-4 -5 10 14.9 10.9
4 -5 -10 31.5 12.3
4 -5 -10 36.5 18.6
-4 -5 10 9.4 11.4
-4 -5 10 21.6 11.5
-3 -5 10 73.69 26.1
-3 -5 10 52.29 11.5
3 -5 -10 83.69 11.2
-3 -5 10 92.59 18.9
3 -5 -10 84.29 26.4
-3 -5 10 67.19 11.8
-2 -5 10 54.49 16
2 -5 -10 27.9 15.1
-2 -5 10 34.1 18
1 -5 -10 3.2 13
-1 -5 10 19.9 9.4
-1 -5 10 33.8 18
0 -5 10 104.09 23
0 -5 -10 180.98 38.7
0 -5 10 119.59 31.8
1 -5 10 88.79 22.1
-1 -5 -10 70.59 24.6
2 -5 10 54.29 18.4
-2 -5 -10 61.89 26
3 -5 10 -16.4 8.6
-4 -5 -10 -17.1 14.1
-4 -5 -10 -2.3 12.2
4 -5 10 9.8 15
-3 -6 10 88.89 23.4
3 -6 -10 135.09 37.5
2 -6 -10 12.5 18.7
-2 -6 10 28.4 15.5
-2 -6 10 16.5 28.9
1 -6 -10 16.7 18.8
-1 -6 10 36.5 17.3
0 -6 -10 227.18 42.8
0 -6 10 197.78 42.5
0 -6 10 255.87 40.8
-1 -6 -10 -1.8 22.5
1 -6 10 18.7 17.4
1 -6 10 -19.7 18.2
-10 0 11 -13.3 14.2
-9 0 11 8.1 10.2
-8 0 11 6.3 7.7
-7 0 11 0.6 5.5
7 0 -11 -1.3 7.1
7 0 -11 14.6 9.5
-7 0 11 5.8 7.1
-6 0 11 1 5.9
-6 0 11 0.8 5.1
6 0 -11 5.2 6.5
6 0 -11 6.8 6.6
-6 0 11 2.2 11.7
-5 0 11 -3.1 9
5 0 -11 1.3 5.6
5 0 -11 -3.4 9.9
-5 0 11 -4.1 4.9
5 0 -11 -3.2 4.9
-4 0 11 6.5 5.1
4 0 -11 -9.1 8.3
4 0 -11 6.5 6.4
-4 0 11 7 6.6
-4 0 11 -7.7 6.3
4 0 -11 1 4.8
3 0 -11 -1 4.4
-3 0 11 -9.1 5.1
3 0 -11 -1.8 8.3
-3 0 11 6.3 6.1
-3 0 11 -0.2 5.4
2 0 -11 1.3 5.2
-2 0 11 8.7 7.2
2 0 -11 1.1 4
-2 0 11 4.7 5.8
-1 0 11 6.3 6
-1 0 11 -3 1.7
-1 0 11 -6.2 3.8
1 0 -11 -4.3 4.8
1 0 -11 0.7 5.8
0 0 11 -3.3 6
0 0 11 4.9 4.9
0 0 -11 15.8 6.7
0 0 -11 1.1 6.6
0 0 11 0.3 4.1
-1 0 -11 -2.5 5.6
1 0 11 3.9 6.3
1 0 11 -8.4 4.1
-1 0 -11 2 4.9
2 0 11 -3.2 5
-2 0 -11 -1.1 5.9
-2 0 -11 10.1 9.6
3 0 11 2.8 7.8
-3 0 -11 8.6 6.8
3 0 11 -1.3 4.4
-3 0 -11 -7.8 6.7
-4 0 -11 -7.7 7.7
4 0 11 17.8 9.6
-4 0 -11 10.1 8.7
-5 0 -11 3.2 10.2
5 0 11 14.6 14.6
5 0 11 1.3 5
-5 0 -11 1.9 9.6
6 0 11 18.9 10
-7 0 -11 7.5 13.7
-8 0 -11 -13.8 16.3
8 0 11 -9 9.6
-10 -1 11 172.68 37.5
-9 -1 11 61.99 21.1
9 -1 -11 74.09 21.8
-9 1 11 42.4 20.8
9 1 -11 70.79 19.6
-8 -1 11 92.49 24.1
-8 -1 11 73.09 17.3
8 -1 -11 69.79 19.6
-8 1 11 50.09 17
8 1 -11 60.69 17.3
7 -1 -11 8.9 9.3
-7 -1 11 6.9 8.4
-7 1 11 0.1 8.4
7 1 -11 -8.3 8
-6 -1 11 132.19 26.4
-6 -1 11 141.69 18.6
-6 -1 11 110.59 21.7
6 -1 -11 81.39 21.3
6 -1 -11 115.99 27
-6 1 11 100.49 20.9
-6 1 11 99.39 21.9
6 1 -11 98.69 18.2
-5 -1 11 77.79 15.4
-5 -1 11 40.2 15.7
5 -1 -11 23.2 11.4
5 -1 -11 76.69 19.2
-5 -1 11 92.59 21.5
5 -1 -11 56.59 13.8
-5 1 11 44.6 18.4
-5 1 11 49.9 14.7
-5 1 11 45.8 13.7
5 1 -11 57.59 13.7
5 1 -11 81.39 17.8
5 1 -11 58.49 21.4
-4 -1 11 345.27 28.7
4 -1 -11 372.56 34.9
4 -1 -11 359.36 35.4
4 -1 -11 321.37 27.8
-4 -1 11 364.96 32.2
-4 -1 11 351.96 34.8
4 1 -11 316.07 34.7
-4 1 11 370.66 31.4
4 1 -11 341.67 28.1
-4 1 11 319.17 34.4
4 1 -11 308.77 36.1
-4 1 11 356.36 31.5
3 -1 -11 2.5 5.9
-3 -1 11 5.6 5.1
3 -1 -11 7.4 6.9
-3 -1 11 2.4 7.3
3 -1 -11 20.2 9.8
-3 -1 11 3.6 5.7
3 1 -11 5.7 10.9
3 1 -11 8.9 5.1
-3 1 11 2.9 6.8
-3 1 11 1.6 2.9
-3 1 11 -0.1 5
-2 -1 11 131.99 16.9
2 -1 -11 116.99 22.6
2 -1 -11 132.29 21.4
-2 -1 11 113.39 19
-2 -1 11 118.39 24.9
2 1 -11 131.39 15.2
-2 1 11 120.99 20.4
-2 1 11 110.19 19.6
2 1 -11 114.39 32
-2 1 11 141.39 25.9
-1 -1 11 67.39 18.1
1 -1 -11 93.99 20.2
1 -1 -11 77.69 17.9
-1 -1 11 76.59 15.9
-1 -1 11 76.59 19.3
-1 1 11 93.79 20.8
-1 1 11 76.79 16.3
1 1 -11 64.59 12.8
-1 1 11 73.19 15.8
0 -1 11 17.1 7.8
0 -1 -11 9 7.5
0 -1 -11 21.4 8
0 -1 11 17.5 8.1
0 -1 11 12.1 6.9
0 1 -11 17 8
0 1 11 28.1 8.9
0 1 11 21.1 9.5
0 1 11 17.5 9
0 1 -11 25.2 9.5
-1 -1 -11 134.59 21.5
-1 -1 -11 135.99 24.5
1 -1 11 116.39 19.6
1 1 11 102.69 21.6
-1 1 -11 118.99 14
1 1 11 117.79 20.7
1 1 11 137.99 17.5
-1 1 -11 115.49 21.1
-2 -1 -11 33.7 12.9
-2 -1 -11 56.89 13.5
2 -1 11 64.59 13.8
-2 1 -11 48.1 15
2 1 11 77.79 15.1
-2 1 -11 41.8 11.5
3 -1 11 338.77 29.6
-3 -1 -11 311.97 30
-3 -1 -11 414.96 39
-3 1 -11 358.56 34.6
-3 1 -11 306.27 29.4
3 1 11 355.06 30.6
3 1 11 355.46 28.4
4 -1 11 16.2 9.1
-4 -1 -11 20.9 12.5
4 1 11 45.9 11.6
4 1 11 14 12
-4 1 -11 20.7 10.3
-5 -1 -11 44.7 14.7
5 -1 11 28.4 12.5
5 1 11 37.1 11.1
5 1 11 7.8 19.5
-5 1 -11 40.1 14.5
-6 -1 -11 176.78 28.7
-6 -1 -11 212.38 39.3
6 -1 11 230.48 27
6 1 11 232.88 28.6
6 1 11 260.37 24
-6 1 -11 230.78 28.7
-7 -1 -11 57.99 21.6
7 -1 11 97.49 20.7
-7 -1 -11 53.39 18.3
7 1 11 103.99 18.1
-7 1 -11 115.69 26.3
-8 -1 -11 -16.8 17.1
8 -1 11 21.6 13.2
8 1 11 11.6 11.3
-8 1 -11 -2.2 15.9
-10 -2 11 16.9 14.4
10 -2 -11 16.5 17.9
10 2 -11 34.3 20.1
-10 2 11 25 18.6
9 -2 -11 82.09 22.8
-9 -2 11 65.79 16.6
-9 -2 11 32.6 19.2
-9 2 11 70.79 21.4
9 2 -11 61.39 16.9
8 -2 -11 115.49 27.3
-8 -2 11 115.59 27.7
-8 -2 11 161.78 21.1
8 2 -11 80.59 19
-8 2 11 114.69 24.7
7 -2 -11 320.47 35.3
-7 -2 11 235.18 26
-7 -2 11 243.28 33.1
-7 2 11 216.08 28.7
7 2 -11 313.37 28.6
-6 -2 11 632.94 52.49
6 -2 -11 711.93 54.29
-6 -2 11 658.73 41.7
-6 -2 11 687.33 48.9
6 -2 -11 689.23 51.29
6 2 -11 653.23 42.2
-6 2 11 545.55 42.7
-5 -2 11 72.79 15.5
-5 -2 11 81.09 18.6
5 -2 -11 70.79 19.7
5 -2 -11 106.09 30.3
-5 -2 11 81.89 21.2
5 2 -11 78.99 16.9
-5 2 11 104.39 19.7
4 -2 -11 289.37 30.7
-4 -2 11 263.77 24.6
4 -2 -11 238.38 31.3
-4 -2 11 263.17 25.4
-4 -2 11 241.88 31.5
-4 2 11 250.47 28.1
-4 2 11 238.78 23.6
-4 2 11 249.08 41.1
4 2 -11 237.78 25.5
3 -2 -11 120.69 21.4
-3 -2 11 144.19 29.4
-3 -2 11 141.19 17.7
3 -2 -11 154.18 19.1
-3 -2 11 121.09 16.6
3 -2 -11 133.39 25.9
3 2 -11 119.59 22
-3 2 11 136.59 27.9
-3 2 11 125.89 16
-3 2 11 130.99 23
-2 -2 11 289.77 26.6
-2 -2 11 324.67 36.5
-2 -2 11 285.87 22.8
2 -2 -11 307.97 27
2 -2 -11 276.07 33.7
-2 2 11 333.47 35.2
2 2 -11 321.77 30.1
-2 2 11 300.77 29.1
-2 2 11 287.87 29.5
-1 -2 11 45.6 8.8
-1 -2 11 50.79 13.2
1 -2 -11 55.39 17
-1 -2 11 60.39 22.1
1 -2 -11 31.5 9.6
-1 2 11 57.69 12
-1 2 11 58.09 18.1
-1 2 11 62.29 14.8
1 2 -11 37 14.9
0 -2 -11 -2.2 4.2
0 -2 -11 9.6 6.7
0 -2 11 1.7 5.7
0 -2 11 20 11
0 2 11 -2.3 4.3
0 2 -11 1.1 2.2
0 2 11 -5 10.3
0 2 -11 -4.7 8.2
0 2 11 -1.8 5.1
-1 -2 -11 259.97 32.7
-1 -2 -11 230.68 28.8
1 -2 11 334.37 29.7
-1 2 -11 274.67 11.2
1 2 11 268.47 31.8
1 2 11 274.37 26.2
1 2 11 287.47 22.2
-1 2 -11 300.57 31.8
-2 -2 -11 7.3 7.4
2 -2 11 2.9 6.4
-2 -2 -11 13 9.2
-2 2 -11 7.2 3.2
2 2 11 8.7 6.4
2 2 11 3.5 5.5
2 2 11 16 7.6
3 -2 11 278.57 28.8
-3 -2 -11 244.38 32.6
-3 -2 -11 255.27 25.4
-3 2 -11 275.27 18
3 2 11 263.97 22.1
-3 2 -11 290.97 16.1
3 2 11 301.37 26.2
-4 -2 -11 289.97 39.2
-4 -2 -11 263.27 24.7
4 -2 11 245.48 28.2
4 2 11 295.67 24
-4 2 -11 265.77 18.9
4 2 11 291.27 25.7
-4 2 -11 259.47 21.3
5 -2 11 246.48 29.7
-5 -2 -11 268.97 26.7
-5 -2 -11 169.98 35.1
5 2 11 268.97 23.9
-5 2 -11 237.88 20.4
5 2 11 219.68 23.1
6 -2 11 106.99 23.6
-6 -2 -11 67.79 17.6
-6 -2 -11 48 23.1
6 2 11 49.8 16.6
6 2 11 75.99 15
-6 2 -11 72.19 18.2
-6 2 -11 54.89 14.2
7 -2 11 -8.2 12
-7 -2 -11 16.2 13.5
-7 -2 -11 -20.4 16.5
7 2 11 11.2 9
7 2 11 21.7 14.5
-7 2 -11 34.3 14.6
-7 2 -11 -5.5 14
-9 -3 11 -0.6 9.8
9 -3 -11 -5 8.5
-9 -3 11 -6.8 10.1
-9 3 11 -21.2 14.5
9 3 -11 31.6 17
8 -3 -11 46.5 20.2
-8 -3 11 57.09 21
-8 -3 11 62.79 15.8
-8 3 11 71.39 19.3
8 3 -11 58.49 16.7
7 -3 -11 23.9 11.1
-7 -3 11 74.29 15.3
-7 -3 11 51.79 19.3
-7 3 11 21.4 11.8
7 3 -11 56.39 15.3
6 -3 -11 15.2 11.7
-6 -3 11 13.1 8.9
-6 -3 11 40.8 14.4
6 -3 -11 11.7 14.1
-6 -3 11 11.9 11.2
6 3 -11 -6.8 9.3
5 -3 -11 169.48 27.9
5 -3 -11 180.78 33.1
-5 -3 11 162.98 20.8
-5 -3 11 156.98 32.2
-5 -3 11 192.88 22.8
-5 3 11 129.59 22.1
5 3 -11 111.79 21.9
-4 -3 11 43 18.8
-4 -3 11 10.9 7.8
-4 -3 11 -6.9 9.1
4 -3 -11 15.3 10.3
4 -3 -11 22.2 10
4 3 -11 17.8 11
-4 3 11 -2.5 6.4
3 -3 -11 23.8 12.9
3 -3 -11 26.1 11.9
-3 -3 11 40 15.8
-3 -3 11 56.39 11.2
-3 -3 11 43.1 12.1
-3 3 11 48.6 12.6
3 3 -11 18.9 13.4
2 -3 -11 43.6 21.1
-2 -3 11 43.5 8.2
-2 -3 11 29.2 15.9
-2 -3 11 46.4 14.7
-2 3 11 51.49 10.3
-1 -3 11 23.3 16.8
-1 -3 11 52.29 14.1
1 -3 -11 47.5 15.5
-1 3 11 40.9 7.3
-1 3 11 24.9 11.9
0 -3 11 25.4 13
0 -3 11 29.6 12.3
0 -3 -11 21.9 9.2
0 -3 -11 8.7 11.2
0 3 11 13.9 8.3
0 3 11 18.1 3.7
0 3 11 22.6 3.8
-1 -3 -11 135.99 29.2
1 -3 11 157.38 26.3
-1 -3 -11 187.28 21.6
1 3 11 172.48 21.7
-2 -3 -11 265.67 26.6
2 -3 11 292.37 30.5
-2 -3 -11 290.57 38.5
2 3 11 239.68 25.4
3 -3 11 14.5 10.8
-3 -3 -11 24 19
-3 -3 -11 33.9 10.4
3 3 11 17 3.5
3 3 11 18.2 10.6
3 3 11 20 3.4
4 -3 11 -0.9 9.4
-4 -3 -11 -2 7.9
4 3 11 8.2 5
4 3 11 15.5 6.2
4 3 11 11.6 9
-5 -3 -11 -10.1 16.2
5 -3 11 -17.2 8.9
-5 -3 -11 -8.4 10.3
5 3 11 9.9 8.5
5 3 11 2.9 7.6
6 -3 11 67.39 20.2
-6 -3 -11 95.99 28.1
-6 -3 -11 87.19 19.6
-6 3 -11 67.39 13.1
-6 3 -11 115.19 14.5
6 3 11 90.29 16.9
-7 -3 -11 7 17.9
7 -3 11 2.6 13.9
-8 -4 11 56.09 13.6
-8 -4 11 59.89 26.3
8 -4 -11 19.1 15.4
8 4 -11 29.5 32.4
-8 4 11 49.1 19.1
-7 -4 11 13.8 10.2
-7 -4 11 5.5 12.7
7 -4 -11 -6.6 22.1
-7 4 11 -0.7 11.9
7 4 -11 10 14.1
6 -4 -11 38.1 16.3
6 -4 -11 -20 15
-6 -4 11 19.3 13.3
-6 -4 11 -27.8 11.9
-6 -4 11 -2.5 8.7
-6 4 11 -0.7 10.8
5 -4 -11 157.18 26.8
5 -4 -11 119.99 29.8
-5 -4 11 98.79 24.1
-5 -4 11 101.49 19
-5 -4 11 91.99 27.4
-5 4 11 88.39 18.3
4 -4 -11 16 17.3
4 -4 -11 15.9 11.5
-4 -4 11 20.5 11.8
-4 -4 11 64.59 23.8
-4 -4 11 61.79 13.9
-4 4 11 13.1 9.2
-3 -4 11 239.28 18.4
-3 -4 11 233.38 26.6
3 -4 -11 210.38 39.7
-3 -4 11 252.27 19
-3 -4 11 233.88 41.1
-3 4 11 226.78 19.7
2 -4 -11 224.38 41.1
-2 -4 11 181.38 36.8
-2 -4 11 217.08 25.2
1 -4 -11 217.48 41.5
-1 -4 11 225.38 27.4
-1 -4 11 237.88 43.5
0 -4 11 899.81 76.89
0 -4 -11 943.91 74.39
0 -4 11 1034.5 61.39
-1 -4 -11 -1.5 9.8
1 -4 11 3.6 7.1
-2 -4 -11 -0.4 12
2 -4 11 -10.8 7.4
3 -4 11 5.7 9.9
-3 -4 -11 -3.9 12.9
-3 -4 -11 -9.6 10.3
-4 -4 -11 30.1 15.4
-4 -4 -11 21 11.3
4 -4 11 40.3 18
5 -4 11 28 19.7
-5 -4 -11 46.4 26.7
-5 -4 -11 49.1 13.8
6 -5 -11 152.88 33.5
-6 -5 11 114.59 30.8
-6 -5 11 123.19 22
-6 -5 11 70.49 20.3
-6 5 11 46.9 20.2
-5 -5 11 41.4 14.7
-5 -5 11 34.4 15.5
-5 -5 11 17.1 22.6
5 -5 -11 23.7 16.5
5 -5 -11 51.79 18.4
-5 -5 11 34 14.6
-4 -5 11 129.79 24.3
-4 -5 11 208.78 42.5
4 -5 -11 185.08 38.4
4 -5 -11 197.08 24.3
-4 -5 11 163.98 20.8
-3 -5 11 5 4.2
-3 -5 11 11.7 5
-3 -5 11 10 16.4
-3 -5 11 3.8 10.8
3 -5 -11 -17.5 17.3
-2 -5 11 -8.8 12.9
-2 -5 11 5.8 11.3
2 -5 -11 22.6 18.5
1 -5 -11 7.5 19.2
-1 -5 11 -6.2 11.5
-1 -5 11 31.9 14.5
0 -5 11 46.8 18.1
0 -5 -11 31.4 20.6
0 -5 11 9.2 13.3
1 -5 11 22.9 15.6
1 -5 11 60.29 17.7
-1 -5 -11 20.3 22.5
-2 -5 -11 10.7 15
2 -5 11 -3.6 17.8
3 -5 11 3.9 14.9
-3 -5 -11 11.3 20.4
4 -5 11 43.4 24.4
-4 -5 -11 26 24.6
-10 0 12 30.2 15.9
-9 0 12 40.3 21.9
-8 0 12 140.69 30.2
8 0 -12 144.09 27.2
7 0 -12 33 14.2
-7 0 12 54.29 18
6 0 -12 3.2 7.3
-6 0 12 6.4 10
-6 0 12 12.7 8.7
5 0 -12 296.77 27.7
-5 0 12 274.47 28.5
5 0 -12 292.27 37.6
5 0 -12 317.97 31.4
-5 0 12 322.47 32.6
-5 0 12 306.37 34
-4 0 12 758.62 52.49
4 0 -12 755.72 57.29
4 0 -12 832.62 50.29
-4 0 12 856.01 54.99
-4 0 12 823.92 48.6
4 0 -12 832.22 47.6
-3 0 12 39.4 13.5
-3 0 12 36.9 14.1
-3 0 12 34.5 11.4
3 0 -12 56.29 14.1
3 0 -12 51.59 14.9
-2 0 12 24.6 9
2 0 -12 15.9 7.8
-2 0 12 18.4 9.5
-2 0 12 -1.7 7.6
2 0 -12 31.2 9.6
-1 0 12 1132.79 56.29
-1 0 12 1242.18 67.09
-1 0 12 1181.68 61.09
1 0 -12 1159.58 57.39
1 0 -12 1254.87 60.29
0 0 -12 204.38 22.5
0 0 12 138.89 18.8
0 0 12 200.68 26.5
0 0 12 167.98 21.7
0 0 -12 180.48 21.2
1 0 12 1439.96 64.19
-1 0 -12 1521.15 69.89
1 0 12 1369.16 74.79
-1 0 -12 1604.94 70.39
1 0 12 1384.66 66.09
-2 0 -12 386.26 33.2
-2 0 -12 388.66 34.3
2 0 12 366.36 30.5
-3 0 -12 821.62 53.39
3 0 12 793.62 53.49
-3 0 -12 708.13 49.3
3 0 12 768.82 45.5
-4 0 -12 653.93 49.6
4 0 12 678.93 49.99
4 0 12 600.34 41.1
5 0 12 172.48 32.4
-5 0 -12 182.88 33.5
6 0 12 214.08 24.6
7 0 12 144.29 23.2
-7 0 -12 100.49 27.1
-10 -1 12 1.2 19.8
-10 1 12 2.6 17.5
-9 -1 12 254.37 43.8
9 -1 -12 255.17 33.6
-9 1 12 260.47 35.5
8 -1 -12 22.7 11.8
-8 -1 12 13.7 10.5
-8 -1 12 20.1 14.1
-8 1 12 17.1 14.4
-7 -1 12 304.77 29.8
-7 -1 12 283.17 33.9
7 -1 -12 264.17 32.4
-7 1 12 263.87 31.5
-6 -1 12 -1.6 6.8
-6 -1 12 -3.6 8.8
6 -1 -12 -0.6 5.5
-6 -1 12 -2.8 7.1
-6 1 12 -9.5 4
-6 1 12 -12.6 5.7
6 1 -12 0.4 5.3
6 1 -12 -19.3 7
-5 -1 12 52.09 21.6
5 -1 -12 96.99 23.8
-5 -1 12 82.59 21.8
5 -1 -12 12.8 12
-5 -1 12 42.4 13.5
5 1 -12 78.89 17.2
-5 1 12 33.2 13.5
-5 1 12 40.2 13.1
5 1 -12 62.19 15.5
4 -1 -12 69.49 18.6
-4 -1 12 37.6 13.6
-4 -1 12 86.69 17.4
-4 -1 12 70.69 20
4 -1 -12 81.49 19.6
-4 1 12 67.99 19.8
-4 1 12 38.4 12.9
-4 1 12 48.1 14.7
4 1 -12 60.99 13.7
4 1 -12 60.89 15.2
-3 -1 12 413.76 32.3
-3 -1 12 417.86 39.8
3 -1 -12 450.15 40.2
3 -1 -12 473.25 34.7
-3 -1 12 364.86 32.7
3 1 -12 484.05 36.2
3 1 -12 498.25 32.7
-3 1 12 512.55 38.4
-3 1 12 507.15 43.6
-3 1 12 398.86 34.2
-2 -1 12 7.3 6.6
-2 -1 12 24.7 8.1
-2 -1 12 44.3 11.1
2 -1 -12 11.7 8.2
2 -1 -12 22.8 12.4
-2 1 12 21.1 9.6
-2 1 12 21.3 8
2 1 -12 13.8 7.1
-2 1 12 27.6 13.6
2 1 -12 6.7 7.3
1 -1 -12 19.1 9.9
-1 -1 12 28.3 8.6
-1 -1 12 17.2 12
-1 -1 12 19.5 10.2
1 -1 -12 18.3 8.9
1 1 -12 24.8 8.3
-1 1 12 1.8 6.2
1 1 -12 26.3 12.2
-1 1 12 12.1 6.8
-1 1 12 7.8 10
0 -1 -12 -0.9 6.2
0 -1 12 7.4 5.9
0 -1 -12 7.5 8
0 -1 12 8.5 10.7
0 -1 12 13.2 7.4
0 1 -12 22.8 10.5
0 1 -12 12.5 7.2
0 1 12 5.8 7.6
0 1 12 -2 8
0 1 12 5.6 5.5
1 -1 12 109.99 19.6
-1 -1 -12 127.29 25.9
-1 -1 -12 108.09 21.1
1 1 12 91.09 20.1
-1 1 -12 123.89 22.6
-1 1 -12 141.09 15.9
1 1 12 107.19 21.4
1 1 12 106.99 19
-2 -1 -12 793.62 55.39
2 -1 12 736.03 46.2
-2 -1 -12 680.73 43.7
2 1 12 757.62 44.3
-2 1 -12 791.02 42.1
-3 -1 -12 118.19 21.6
-3 -1 -12 137.09 25.8
-3 1 -12 146.49 18.8
3 1 12 147.69 20.3
3 1 12 138.49 22.1
-4 -1 -12 52.39 18.3
4 -1 12 109.29 20.1
-4 -1 -12 94.79 20.6
-4 1 -12 99.89 21.1
4 1 12 78.49 18.4
4 1 12 92.99 17.5
-5 -1 -12 23.3 16.6
5 -1 12 4.2 7.9
-5 -1 -12 25.4 14.4
5 1 12 -1.1 12.2
5 1 12 38.9 10.7
-5 1 -12 3.5 12.1
6 -1 12 11.2 8.6
-6 -1 -12 3.6 10.4
-6 1 -12 -18.9 9.9
6 1 12 -9.3 7.4
7 -1 12 12.3 10.9
-7 -1 -12 47.6 20.3
7 1 12 9.7 10.1
-7 1 -12 14.4 16.2
-10 -2 12 54.29 22.8
10 -2 -12 60.69 23.3
-10 2 12 102.89 30
-9 -2 12 62.49 17.5
9 -2 -12 74.19 20.6
-9 -2 12 89.09 26.6
-9 2 12 34.7 14.3
-8 -2 12 24.7 15.5
8 -2 -12 80.59 23.4
-8 -2 12 26.7 12
-7 -2 12 165.98 25.3
-7 -2 12 88.69 23.1
7 -2 -12 144.39 30.1
-7 2 12 121.19 25.5
-6 -2 12 14.7 8.8
-6 -2 12 4.1 7.7
6 -2 -12 -0.8 12.7
-6 -2 12 22 13
6 -2 -12 23 11.2
-6 2 12 36.1 13.5
6 2 -12 0.1 11.6
-5 -2 12 8.5 7.2
5 -2 -12 16.9 9.5
5 -2 -12 -5.6 10.4
-5 -2 12 -3.9 9.2
-5 -2 12 10.9 12.5
-5 2 12 20.5 9.5
5 2 -12 9.5 10.2
4 -2 -12 4.3 10.6
-4 -2 12 4.7 7.9
-4 -2 12 -4.9 5.7
-4 2 12 1.7 6.1
4 2 -12 -4 8.2
-4 2 12 4.2 5.1
-3 -2 12 29.3 11.1
3 -2 -12 45.3 14.4
-3 -2 12 39.4 16.5
3 -2 -12 26.4 13.6
-3 -2 12 26.5 10.4
-3 2 12 26.3 9.3
3 2 -12 72.59 16.1
-3 2 12 17.6 8
-2 -2 12 29.1 11.9
-2 -2 12 23.6 15.4
-2 -2 12 48.9 11.3
2 -2 -12 25.4 13.1
2 2 -12 36.2 17.2
-2 2 12 31.7 11.5
-2 2 12 55.09 20.5
-2 2 12 45.8 11
1 -2 -12 460.35 43.4
-1 -2 12 537.35 50.29
-1 -2 12 539.45 39
1 -2 -12 487.95 35.3
-1 -2 12 490.45 26.2
-1 2 12 504.55 31.6
1 2 -12 452.85 22.2
-1 2 12 401.96 39.7
-1 2 12 394.16 34.5
0 -2 12 185.48 22.1
0 -2 12 123.39 28.9
0 -2 -12 195.78 22.2
0 -2 -12 219.98 30.2
0 2 12 155.78 17
0 2 12 180.18 22.4
0 2 12 160.28 30.2
0 2 -12 153.48 10.6
-1 -2 -12 -2.4 6.6
1 -2 12 9.2 5.6
-1 -2 -12 12.5 8.4
1 2 12 -9.7 5.3
1 2 12 4.3 8.7
1 2 12 9.7 5.8
-1 2 -12 3 2.4
2 -2 12 4.5 7.1
-2 -2 -12 -3.4 7.9
-2 -2 -12 10.1 10.7
-2 2 -12 -0.3 3
2 2 12 3.8 7.5
2 2 12 8.1 5.8
-3 -2 -12 221.08 38.9
3 -2 12 274.17 30.3
-3 -2 -12 297.87 28.7
3 2 12 272.57 24.4
3 2 12 309.57 28.3
3 2 12 283.07 27.2
-3 2 -12 288.77 18.4
4 -2 12 -4.7 9
-4 -2 -12 0 10.5
-4 -2 -12 32.6 13
4 2 12 -10.5 7.2
4 2 12 7.6 6.4
-4 2 -12 5.2 5.8
-4 2 -12 18.5 8.7
5 -2 12 275.47 31.5
-5 -2 -12 239.58 42.9
-5 -2 -12 299.27 32.1
5 2 12 273.57 26.3
5 2 12 242.28 24.9
-5 2 -12 255.67 22
-6 -2 -12 -18.5 13.7
-6 -2 -12 19.5 17.4
6 -2 12 -17.3 9
6 2 12 11.1 13.8
6 2 12 -10.5 7.1
-6 2 -12 20 12
-6 2 -12 7.1 11.8
-7 2 -12 -0.9 15.1
7 2 12 18.2 10.9
-9 -3 12 -11.2 11.4
9 -3 -12 -1.5 14
-9 -3 12 4.7 10.6
-9 3 12 28 16
-8 -3 12 28.5 11.6
8 -3 -12 3.9 14.2
-8 3 12 8.8 14
7 -3 -12 32.6 17.6
-7 -3 12 54.19 18.8
-7 -3 12 31.3 13.2
-7 3 12 51.89 16.5
-6 -3 12 52.39 17.4
6 -3 -12 39.5 17.5
6 -3 -12 35.1 20.4
-6 -3 12 46.2 15.5
-6 -3 12 43.4 18
-6 3 12 52.19 14.4
-5 -3 12 138.89 30.9
-5 -3 12 92.79 20.8
-5 -3 12 147.39 19.4
5 -3 -12 150.38 34.4
5 -3 -12 180.28 34.8
-5 3 12 127.19 22.3
4 -3 -12 43.9 16.6
-4 -3 12 23.9 10.8
4 -3 -12 44.7 13.8
-4 -3 12 18.9 11.8
-4 -3 12 14.7 9.8
-4 3 12 27.5 10.5
-3 -3 12 43.4 11.4
-3 -3 12 37.1 14.1
-3 -3 12 39.9 19.8
3 -3 -12 25.3 15.1
-3 3 12 32.2 9.8
-2 -3 12 681.53 60.59
-2 -3 12 664.33 27.3
2 -3 -12 650.73 56.89
-2 -3 12 762.62 48.3
-2 3 12 659.33 32.7
-1 -3 12 211.58 40.1
1 -3 -12 171.38 34.9
-1 -3 12 212.08 25.7
-1 3 12 290.17 30.6
-1 3 12 208.38 15.2
0 -3 -12 3.5 13.3
0 -3 12 12.7 11.9
0 -3 12 -4 5.9
0 3 12 5.3 4.2
0 3 12 0.1 2.9
0 3 12 3.4 7.8
1 -3 12 -0.3 5.2
-1 -3 -12 15.2 8
1 3 12 13.4 7.1
-2 -3 -12 298.47 30
2 -3 12 339.37 35.4
-2 -3 -12 294.07 38.9
2 3 12 235.18 26.8
-3 -3 -12 131.79 32.6
3 -3 12 171.08 29.8
-3 -3 -12 140.49 22.8
3 3 12 192.18 23.2
3 3 12 190.18 10.2
4 -3 12 12.9 12.2
-4 -3 -12 23.3 13.2
-4 -3 -12 30.2 19
4 3 12 8.4 5.6
4 3 12 1.6 8.9
4 3 12 8.6 6.1
-5 -3 -12 17.6 13.2
5 -3 12 24.2 16.4
-5 -3 -12 22.2 24.6
5 3 12 39.6 13
5 3 12 3.7 8.5
6 -3 12 16.8 17.3
-6 -3 -12 8.8 15.3
6 3 12 10.2 10.9
-7 -4 12 -0.3 9.7
7 -4 -12 -1.6 14.1
-7 -4 12 10.3 13
-7 4 12 10.7 13
-6 -4 12 9.5 10.3
6 -4 -12 -10.7 12.6
6 -4 -12 -10.5 19.7
-6 -4 12 -10.4 12.1
-6 -4 12 13.4 14.4
-6 4 12 16 12.8
-5 -4 12 12.1 11.7
5 -4 -12 -6.3 14.6
-5 -4 12 2.7 10.1
5 -4 -12 12.5 12.2
-5 -4 12 9 10.7
-5 4 12 26.9 11.5
-4 -4 12 20.2 10.8
-4 -4 12 46.6 17.4
4 -4 -12 -6.6 9.5
-4 -4 12 6.6 9.5
4 -4 -12 32.9 16.9
-4 4 12 10.7 9.3
-3 -4 12 14.1 6
3 -4 -12 -10.1 16.2
-3 -4 12 37.3 13.3
-3 -4 12 51.49 17.3
-3 -4 12 18.1 6.2
-3 4 12 17.6 7.2
-2 -4 12 161.88 26.8
2 -4 -12 184.08 37.8
-2 -4 12 113.59 30.1
-1 -4 12 97.19 21.3
-1 -4 12 78.09 26.6
1 -4 -12 68.59 24.5
0 -4 -12 52.59 24.3
0 -4 12 62.79 27.3
0 -4 12 65.79 19.3
1 -4 12 15.1 12.4
-1 -4 -12 21.6 18.7
-2 -4 -12 -6.7 7.4
2 -4 12 3.6 11.5
3 -4 12 14 13.7
-3 -4 -12 28.8 18.9
4 -4 12 -4.5 10.9
-4 -4 -12 -20.5 17.9
5 -4 12 9.8 15.3
-5 -4 -12 7.8 20.2
-5 -5 12 -10.3 21.9
-5 -5 12 -14.5 10.8
5 -5 -12 -10.3 13.4
-4 -5 12 107.99 22.4
-4 -5 12 87.69 13.9
4 -5 -12 98.39 29.7
-3 -5 12 12.3 21
3 -5 -12 2.8 12.4
-3 -5 12 1 13.5
-2 -5 12 146.79 33.8
-2 -5 12 135.99 27.5
-1 -5 12 71.79 30.7
-1 -5 12 61.79 19.8
0 -5 12 13.9 13.7
0 -5 12 -34.5 18.7
0 -5 -12 -6.2 15.6
1 -5 12 59.79 30
-1 -5 -12 83.69 25.9
1 -5 12 83.39 22.8
2 -5 12 78.49 22.3
-2 -5 -12 37.4 26.1
-3 -5 -12 41.4 20
-10 0 13 -9.1 8.3
-9 0 13 -6.8 12.7
-8 0 13 -8.6 8
-8 0 13 -5.5 14.5
8 0 -13 -11.4 8.3
7 0 -13 0.6 8.3
-7 0 13 -5 5.2
-7 0 13 -16.8 8.3
-6 0 13 6.6 8
6 0 -13 7.5 6.5
-6 0 13 3.4 8
5 0 -13 0.1 7.5
-5 0 13 -0.4 4.8
-5 0 13 6.7 7.3
-5 0 13 -21.6 8.6
4 0 -13 -1.5 6.4
-4 0 13 1.3 7.1
-4 0 13 -3.9 5.3
-4 0 13 0.8 9.9
-3 0 13 0.1 2.8
-3 0 13 12.2 8.5
3 0 -13 5.1 6.5
-3 0 13 0.4 5.7
-2 0 13 -5.4 6.2
-2 0 13 -0.7 3.9
-2 0 13 8.1 8.6
2 0 -13 5.7 6.2
-1 0 13 6.6 8.8
-1 0 13 -3.3 3
1 0 -13 -3.4 7.2
-1 0 13 7.6 6.8
0 0 -13 -9.1 4.9
0 0 13 9.4 7.9
0 0 13 4.5 4.7
0 0 13 1.1 7.7
1 0 13 -8.5 6.6
1 0 13 -12.8 8.3
-1 0 -13 3.1 9.5
2 0 13 4.8 6.3
-2 0 -13 -4.1 7.4
3 0 13 27.2 13
3 0 13 7.5 7.2
-3 0 -13 4.2 8.5
-4 0 -13 -2.3 9.7
4 0 13 0.6 7.3
5 0 13 -10.2 8.3
-5 0 -13 13.5 13.3
-6 0 -13 9 15.5
6 0 13 -7.3 7.7
-7 0 -13 -34 18.3
7 0 13 -20.8 8.7
-10 -1 13 24 18.4
-10 1 13 45 22.3
-9 -1 13 22 13.7
-9 -1 13 34.6 16.9
9 -1 -13 30.9 29.3
-9 1 13 13.8 19.9
-8 -1 13 48.6 17.9
8 -1 -13 80.79 21.9
-8 -1 13 35.2 16.4
-8 1 13 20.1 15.2
-7 -1 13 105.69 25.1
7 -1 -13 79.29 22.2
-7 -1 13 88.99 19.7
-7 1 13 63.59 18.4
-6 -1 13 58.19 15.4
6 -1 -13 38.5 15.8
-6 -1 13 13.1 13.4
-6 1 13 17.4 11.4
6 1 -13 46.5 14.6
-6 1 13 17.5 11.9
-5 -1 13 -10.8 7.5
5 -1 -13 13.7 10.3
-5 -1 13 -6.8 8.6
-5 -1 13 -20.6 9.5
5 -1 -13 -2.3 11.6
-5 1 13 -4 6.5
5 1 -13 9.7 7.4
4 -1 -13 152.68 27.7
-4 -1 13 156.18 20.2
4 -1 -13 131.39 26.1
-4 -1 13 144.49 27.3
-4 -1 13 136.39 33.7
-4 1 13 115.99 28.8
4 1 -13 185.98 22.1
-4 1 13 168.98 22.9
-4 1 13 193.98 24
-3 -1 13 -2.9 3.8
3 -1 -13 16.8 10.4
-3 -1 13 0.7 8.1
-3 -1 13 6.8 10.7
3 1 -13 2.5 6.2
-3 1 13 34.6 15.8
-3 1 13 -8.7 4.8
2 -1 -13 850.31 56.49
-2 -1 13 781.42 47.2
-2 -1 13 828.82 59.69
-2 -1 13 802.32 47.9
-2 1 13 724.03 47.9
-2 1 13 751.12 55.29
2 1 -13 787.12 42.3
-2 1 13 753.22 48.2
-1 -1 13 128.79 21.9
-1 -1 13 128.09 27.2
-1 -1 13 134.69 21.3
1 -1 -13 113.49 23
-1 1 13 163.68 21.1
1 1 -13 134.69 17
-1 1 13 133.49 26.3
-1 1 13 105.29 21.4
0 -1 13 257.47 34.6
0 -1 -13 260.87 32.5
0 -1 13 283.37 25.6
0 -1 13 319.47 39.7
0 1 13 259.57 31.5
0 1 13 311.87 30.7
0 1 -13 263.37 29.5
0 1 13 282.97 28.4
1 -1 13 68.69 16.5
1 -1 13 61.69 20.5
-1 -1 -13 56.99 17.2
1 1 13 51.89 14.2
1 1 13 62.89 18.6
1 1 13 74.89 17.9
-1 1 -13 72.59 19
-2 -1 -13 34.6 14.7
2 -1 13 10.4 6.8
-2 1 -13 22.4 8.2
2 1 13 27.7 10.2
2 1 13 10.7 10.5
-3 -1 -13 72.89 19.5
3 -1 13 25.6 10.2
3 1 13 15.1 12.9
3 1 13 33.3 10.2
-3 1 -13 39.6 12.5
-4 -1 -13 24.2 12.2
4 -1 13 11.6 8.1
-4 1 -13 -3.1 10.1
4 1 13 17.6 14.5
-5 -1 -13 242.28 42.4
5 -1 13 237.78 27.6
5 1 13 219.18 28.6
-5 1 -13 247.08 29.9
5 1 13 215.38 25.5
6 -1 13 24.3 13.4
-6 -1 -13 -4.9 21.3
6 1 13 27.9 10.8
-6 1 -13 29.3 16.6
-7 -1 -13 -7.4 17.1
7 -1 13 5 13.7
7 1 13 1.3 11.7
-7 1 -13 -11 15.9
-9 -2 13 -3.5 18.8
-9 -2 13 9.7 14.6
9 -2 -13 42.9 19.6
-9 2 13 32.8 18.4
-8 -2 13 63.79 17.1
8 -2 -13 37.1 15.6
-8 -2 13 48.6 18.9
-8 2 13 74.29 20.8
-7 -2 13 37.4 19.7
7 -2 -13 26.5 17.7
-7 -2 13 43.8 14
-7 2 13 69.59 18.6
-6 -2 13 284.07 33.5
-6 -2 13 318.97 39.6
6 -2 -13 364.96 39.5
-6 -2 13 275.17 29.8
-6 2 13 257.37 34.1
5 -2 -13 -3 13.1
-5 -2 13 -5.2 10.8
5 -2 -13 14.5 9.5
-5 -2 13 6.3 11.7
-5 -2 13 0.6 6.2
-5 2 13 0.6 6.7
-5 2 13 18.2 10
-4 -2 13 564.74 51.39
-4 -2 13 565.34 41.7
-4 -2 13 512.55 39.1
4 -2 -13 501.95 44.1
4 -2 -13 576.04 50.09
-4 2 13 542.85 39.8
-4 2 13 514.05 45
-3 -2 13 25.3 12.4
-3 -2 13 15.7 10.9
3 -2 -13 25.1 12.4
-3 -2 13 37.4 12
-3 2 13 24.4 11.1
-3 2 13 15.2 10.1
-2 -2 13 70.19 21.1
-2 -2 13 64.19 15.2
2 -2 -13 71.19 23.6
-2 2 13 38.7 12.4
-2 2 13 53.49 12.4
1 -2 -13 2.3 10.8
-1 -2 13 7.7 6.9
-1 -2 13 20.6 8.9
-1 -2 13 13.4 5.7
-1 2 13 3.1 6
1 2 -13 13.5 5
-1 2 13 3.9 6.6
0 -2 13 14.5 9.5
0 -2 -13 -4.5 9.7
0 -2 13 6.2 12.1
0 2 13 -0.9 6.2
0 2 -13 1.1 3
-1 -2 -13 177.78 52.29
1 -2 13 216.28 25.3
1 2 13 205.88 24.8
-1 2 -13 204.88 12.1
2 -2 13 9 8.8
-2 -2 -13 9.2 12.3
2 2 13 -5 5
2 2 13 18 7.6
2 2 13 -7.6 4.3
-2 2 -13 2.8 3.2
3 -2 13 64.49 17.7
-3 -2 -13 67.69 24.7
3 2 13 122.39 21.6
3 2 13 112.39 20.2
-3 2 -13 105.99 11.6
3 2 13 119.59 19.5
4 -2 13 110.69 23.8
-4 -2 -13 136.19 29.3
4 2 13 93.99 19.7
-4 2 -13 98.19 13
-4 2 -13 81.29 13.9
4 2 13 76.49 16.9
5 -2 13 -6.4 8.9
-5 -2 -13 0.9 16.8
-5 2 -13 -4.3 7.9
5 2 13 7.4 12.2
5 2 13 12.6 10.7
6 -2 13 5.4 14.5
-6 -2 -13 25.8 23.6
6 2 13 27.4 17
-6 2 -13 33.3 15.8
6 2 13 49.99 14
-8 -3 13 -0.5 12.9
-8 -3 13 12.1 19.5
8 -3 -13 50.49 20
-8 3 13 8.9 17.3
7 -3 -13 -8 7.5
-7 -3 13 22.5 17.8
-7 -3 13 11.5 10.4
-7 3 13 -0.3 10.4
-6 -3 13 4 13.4
-6 -3 13 35.1 14.2
6 -3 -13 78.49 22.2
-6 -3 13 63.59 20.3
-6 3 13 32.1 12
5 -3 -13 30.6 16.5
-5 -3 13 71.59 17
-5 -3 13 86.19 26.2
5 -3 -13 69.29 22.6
-5 -3 13 67.79 18
-5 3 13 60.89 15.9
-4 -3 13 209.08 23.8
-4 -3 13 197.28 24.1
-4 -3 13 256.37 43.7
4 -3 -13 183.18 37.7
4 -3 -13 274.27 31.4
-4 3 13 241.78 24.6
-3 -3 13 182.98 36.8
3 -3 -13 269.67 37.1
-3 -3 13 275.07 23.1
-3 -3 13 277.27 30.1
-3 3 13 274.07 23.8
-2 -3 13 38.7 13.4
-2 -3 13 50.49 19.8
-2 -3 13 29 6.2
2 -3 -13 45.1 17.4
-2 3 13 9.1 12.2
-2 3 13 38.7 9.5
-1 -3 13 -0.2 6
-1 -3 13 5.7 6
1 -3 -13 -3.3 8.9
-1 3 13 6 4.9
0 -3 13 40.4 13.8
0 -3 13 48.1 19.7
0 -3 -13 64.49 21.9
0 3 13 48.5 8.3
0 3 13 13.1 12.6
0 3 13 47 8.1
1 -3 13 124.29 25.3
-1 -3 -13 131.89 31.1
1 3 13 84.99 7.5
1 3 13 63.89 17.1
1 3 13 93.29 7.5
2 -3 13 125.79 26.3
-2 -3 -13 79.39 26.5
2 3 13 95.39 6.8
2 3 13 91.89 18.4
2 3 13 102.79 6.9
3 -3 13 152.98 30.2
-3 -3 -13 196.08 39.6
3 3 13 155.98 10.6
3 3 13 148.69 11
3 3 13 155.78 31.2
4 -3 13 84.39 23.8
-4 -3 -13 21.9 18.1
4 3 13 51.09 10.4
4 3 13 55.29 9.8
4 3 13 59.79 20.1
5 -3 13 -1.5 13.2
5 3 13 -2.1 10.2
5 3 13 14.8 11.3
-7 -4 13 10.7 13.2
7 -4 -13 11 20.8
-7 -4 13 -10.2 16.9
-7 4 13 14.1 14.7
-6 -4 13 38 18.4
-6 -4 13 25.3 16.9
-6 -4 13 63.69 17.2
6 -4 -13 56.49 24.3
-6 4 13 32.9 17
5 -4 -13 69.89 27
-5 -4 13 126.89 31
5 -4 -13 92.29 23.3
-5 -4 13 93.19 20.1
-5 4 13 67.19 18
4 -4 -13 -6.5 9
-4 -4 13 12.5 9.8
-4 -4 13 -10.9 9.5
-4 -4 13 -22 14.7
4 -4 -13 -8.3 9.7
-4 4 13 3.9 8.5
-3 -4 13 74.89 7.7
-3 -4 13 76.69 26.4
-3 -4 13 95.29 7.3
-3 -4 13 87.39 20.2
3 -4 -13 98.89 28.4
-3 4 13 79.09 12.6
-2 -4 13 14.1 6.7
2 -4 -13 6.9 13.8
-2 -4 13 1.6 11.7
1 -4 -13 -3.6 10.5
-1 -4 13 5.9 10.1
-1 -4 13 2.1 11.8
0 -4 -13 68.39 23.4
0 -4 13 67.49 19.2
0 -4 13 74.09 29
1 -4 13 -8.9 10.3
1 -4 13 -9.4 10.2
-1 -4 -13 -12.7 16.9
-2 -4 -13 4.6 12.8
2 -4 13 -5.5 5.2
-3 -4 -13 -7.9 15.2
3 -4 13 -10.6 13.6
-4 -4 -13 130.39 34
4 -4 13 120.29 27.9
4 -5 -13 21.8 22.6
-4 -5 13 32.3 14.1
3 -5 -13 10.4 16.6
-3 -5 13 -6.9 11.6
-3 -5 13 1 17.9
-2 -5 13 15.4 15.6
2 -5 -13 16.1 17.2
-1 -5 13 -1.5 10.9
-1 -5 13 -6.5 16.9
1 -5 -13 3.3 18.4
0 -5 13 233.08 48.9
0 -5 13 128.89 29.8
0 -5 -13 153.08 42.4
1 -5 13 117.39 37.6
1 -5 13 80.59 25.4
-1 -5 -13 92.89 36.1
-9 0 14 28.8 15.5
-8 0 14 15 12.4
-8 0 14 -3.9 13
8 0 -14 22.5 15.9
7 0 -14 68.89 19.4
-7 0 14 39.5 14.9
-7 0 14 85.69 22.2
-6 0 14 146.99 26.6
6 0 -14 175.88 24.7
-6 0 14 190.78 33
-5 0 14 633.94 46.7
-5 0 14 565.44 48.5
5 0 -14 633.44 47
-4 0 14 138.29 27.5
-4 0 14 183.88 32.4
-4 0 14 126.79 23.9
4 0 -14 195.28 24
3 0 -14 -4 5.8
-3 0 14 10.2 6.9
-3 0 14 13.9 12.1
-3 0 14 12.4 7.1
-2 0 14 423.76 39.1
2 0 -14 444.16 37.8
-2 0 14 471.55 42.4
-2 0 14 457.15 37.9
1 0 -14 223.88 26.2
-1 0 14 248.08 31
-1 0 14 234.18 27.9
-1 0 14 214.18 25.4
0 0 14 667.33 45.5
0 0 14 661.83 48
0 0 14 555.34 48.2
0 0 -14 649.04 45.4
1 0 14 732.03 47.9
-1 0 -14 674.63 48.3
1 0 14 680.93 47.6
1 0 14 721.53 56.99
-2 0 -14 159.58 28.1
2 0 14 175.48 31.6
2 0 14 208.58 25.6
3 0 14 632.74 44.1
-3 0 -14 537.65 47
4 0 14 90.59 19.8
-4 0 -14 103.09 23.5
5 0 14 0.2 8.4
-6 0 -14 83.59 26.4
6 0 14 129.49 24.9
-9 -1 14 35.8 17.6
-9 -1 14 63.99 21
9 -1 -14 8.7 17
-8 -1 14 116.59 23.3
8 -1 -14 129.79 28
-8 -1 14 138.09 30.3
-8 1 14 159.98 33.7
7 -1 -14 231.68 39.4
-7 -1 14 261.17 30.6
-7 -1 14 234.98 40.1
-7 1 14 231.98 37.1
-7 1 14 295.87 36.3
6 -1 -14 141.39 29.8
-6 -1 14 251.77 29
-6 -1 14 198.28 35.7
-6 1 14 188.98 32.2
-6 1 14 199.58 27.4
6 1 -14 166.98 42.9
5 -1 -14 200.18 33.2
-5 -1 14 177.78 31.8
-5 -1 14 183.08 33.4
-5 -1 14 161.78 26.9
-5 1 14 201.78 27.5
5 1 -14 173.58 22
-5 1 14 157.68 28.1
-4 -1 14 2.9 11.3
-4 -1 14 3.4 8.4
-4 -1 14 -4.6 6.5
-4 1 14 -7.5 5.7
-4 1 14 3.7 3.4
4 1 -14 -5.8 5.1
3 -1 -14 246.78 32
-3 -1 14 288.17 29
-3 -1 14 302.97 37
-3 -1 14 300.67 30.3
-3 1 14 313.17 32.4
-3 1 14 250.47 28.5
3 1 -14 245.78 24.9
-2 -1 14 1 7.8
-2 -1 14 0.9 5.7
-2 -1 14 -6.1 8.3
2 -1 -14 0.6 6.3
-2 1 14 -1.7 11.1
2 1 -14 2.1 6
-2 1 14 -1.7 8.5
-2 1 14 10.1 7.5
-1 -1 14 5.2 6.9
-1 -1 14 1.1 7.9
-1 -1 14 3.2 7.5
-1 1 14 10.1 7.2
-1 1 14 3.8 7.4
1 1 -14 -5.4 5.5
-1 1 14 -14.4 7.9
0 -1 14 3.6 7.3
0 -1 14 -14.2 9.2
0 -1 -14 28.5 11.3
0 -1 14 4.1 6.5
0 1 14 -13.2 8.5
0 1 14 -10.3 4.9
0 1 14 8.8 9.4
1 -1 14 504.35 53.99
1 -1 14 633.54 44.9
-1 -1 -14 565.24 48.5
1 1 14 644.84 51.19
-1 1 -14 588.64 38
1 1 14 595.64 45.6
1 1 14 660.23 45.7
-2 -1 -14 -7.3 8.8
2 -1 14 14.5 8.6
-2 1 -14 10 6.7
2 1 14 12.1 7.4
2 1 14 13.2 11.5
3 -1 14 116.89 22.4
-3 1 -14 105.89 19.4
3 1 14 75.09 18.1
3 1 14 109.29 23.5
4 -1 14 34.9 13.9
-4 -1 -14 12.1 15.2
-4 1 -14 43.5 15.9
4 1 14 36.6 15.5
4 1 14 33.4 14.2
5 -1 14 12.4 12.7
-5 -1 -14 -17 11.6
-5 1 -14 -3.4 14.3
5 1 14 4.9 9
6 -1 14 18.4 14.3
-6 -1 -14 43.9 24.7
6 1 14 9.6 11.4
-6 1 -14 48.9 21.2
9 -2 -14 44.8 21.6
-9 -2 14 41.7 23.7
-9 -2 14 60.09 18.3
8 -2 -14 27.5 19.9
-8 -2 14 50.19 21.7
-8 -2 14 40 17.4
-8 2 14 41.8 18.2
7 -2 -14 53.59 21.8
-7 -2 14 18.3 16.9
-7 -2 14 37.6 14.5
-7 2 14 69.59 19.7
6 -2 -14 -8.2 5.9
-6 -2 14 17.9 10.6
-6 -2 14 -20.3 9.3
-6 2 14 3.6 9.2
5 -2 -14 60.19 19.2
-5 -2 14 48 16
-5 -2 14 49.6 17.4
-5 -2 14 14.5 9.6
5 -2 -14 49.4 19.9
-5 2 14 25.6 14.2
-5 2 14 31.3 11.2
-4 -2 14 0.6 9.2
-4 -2 14 -0.3 12.7
-4 -2 14 6.7 9.7
4 -2 -14 12.5 9.8
-4 2 14 -5.8 6.7
-4 2 14 2.5 6
-3 -2 14 25.2 14.2
-3 -2 14 11.7 8.6
-3 -2 14 21.9 9.4
3 -2 -14 7.2 11.6
-3 2 14 -8 6.4
-3 2 14 29.9 9.6
2 -2 -14 380.06 41.7
-2 -2 14 372.16 43.8
-2 -2 14 356.46 27.7
-2 -2 14 320.87 32
-2 2 14 341.67 35.3
2 2 -14 350.66 23.6
-2 2 14 352.66 29.7
1 -2 -14 10.3 12.5
-1 -2 14 -14.3 7.4
-1 -2 14 5.6 5.4
-1 -2 14 4.4 5.5
1 2 -14 5.6 4.3
-1 2 14 6 7
-1 2 14 -6.3 5.5
0 -2 14 68.59 26.7
0 -2 14 115.79 23.5
0 -2 -14 112.89 28
0 2 14 128.09 17.7
0 2 -14 117.89 10.4
0 2 14 130.89 25.4
1 -2 14 -10.8 5.4
-1 -2 -14 10.6 11.2
1 -2 14 -0.4 8.7
-1 2 -14 8.4 3.4
1 2 14 8.3 8.2
1 2 14 0.8 5.4
2 -2 14 260.57 30.8
-2 -2 -14 347.77 42
-2 2 -14 282.97 15.5
2 2 14 276.87 29.7
2 2 14 327.37 27.7
2 2 14 321.77 30.1
3 -2 14 2 10
-3 -2 -14 -13 13.8
3 2 14 10.1 7.3
3 2 14 6.2 10.3
-3 2 -14 5 4.9
4 -2 14 23.2 15.1
-4 -2 -14 37.8 20
-4 2 -14 22.3 8.9
4 2 14 77.69 17
4 2 14 35.4 13.2
-4 2 -14 41.2 10.3
4 2 14 41.3 16.4
5 -2 14 14.9 12.5
-5 -2 -14 22.4 20.6
5 2 14 33.4 13.5
-5 2 -14 -17.4 11.1
8 -3 -14 -0.2 13.9
-8 -3 14 17.4 19.1
-8 -3 14 -25.4 10.3
-8 3 14 4.7 18
-7 -3 14 -15.8 10.9
7 -3 -14 -17.7 15.5
-7 -3 14 12 13.2
-7 3 14 5.9 13.9
-6 -3 14 -10.3 16.1
6 -3 -14 -7.1 13.5
-6 -3 14 9.5 16.1
-6 -3 14 23.4 12.2
-6 3 14 26.9 11.6
-5 -3 14 35.1 20.6
5 -3 -14 38.2 18.7
5 -3 -14 38.5 15.7
-5 -3 14 60.79 17.8
-5 -3 14 17.4 11.4
-5 3 14 20.4 10.7
4 -3 -14 17 11
-4 -3 14 18.1 10.7
-4 -3 14 8.6 8.7
-4 -3 14 12.6 13.7
-4 3 14 12.6 8.6
3 -3 -14 1.5 11.3
-3 -3 14 -6.9 9.2
-3 -3 14 -9 7
-3 -3 14 -7.4 9.1
2 -3 -14 21.6 18.3
-2 -3 14 24.5 4.9
-2 -3 14 44.2 15.5
-2 -3 14 37.6 14.1
-2 3 14 20.4 12.1
1 -3 -14 -10.9 11.4
-1 -3 14 -1.3 9.5
-1 -3 14 28.8 15.6
-1 3 14 -6.5 8.1
-1 3 14 0.5 5.5
0 -3 14 3.8 8.9
0 -3 -14 59.29 22.3
0 -3 14 18.5 15.3
0 3 14 17.9 5.7
0 3 14 22.5 7.5
0 3 14 20.1 12.7
1 -3 14 120.59 31.9
-1 -3 -14 109.89 32.4
1 -3 14 125.79 27.7
1 3 14 120.29 10.7
1 3 14 92.29 9
1 3 14 116.69 24.1
-2 -3 -14 -9.2 14.4
2 -3 14 7.3 10.7
2 3 14 4.5 4.5
2 3 14 -9.8 7.9
2 3 14 2.2 4
3 -3 14 7.9 12.5
-3 -3 -14 13 20.3
3 3 14 6.5 4.8
3 3 14 -1.1 5.1
3 3 14 1.9 10.2
4 -3 14 105.09 26.2
-4 -3 -14 52.19 22.3
4 3 14 49.99 15.4
4 3 14 70.99 13
4 3 14 144.59 24.3
-6 -4 14 60.09 25
-6 -4 14 53.09 17.2
6 -4 -14 34.9 23.3
-6 4 14 43 19.2
5 -4 -14 6.8 13.5
-5 -4 14 15.5 11.8
-5 -4 14 3.8 12.6
-5 -4 14 -28.6 16.2
-5 4 14 -11.5 10.1
-4 -4 14 23.1 24.8
-4 -4 14 22.1 13.8
-4 4 14 16.8 11.2
3 -4 -14 -7.6 9.3
-3 -4 14 18.7 19.4
-3 -4 14 -5 10.5
-3 4 14 -14 6.2
-2 -4 14 19 15
2 -4 -14 1.2 16.7
-2 -4 14 23.7 14.5
1 -4 -14 3.4 14.5
-1 -4 14 9.2 10.7
-1 -4 14 28.7 19
0 -4 14 14.2 18.2
0 -4 -14 20 18.9
0 -4 14 15.8 14.6
1 -4 14 143.39 41
1 -4 14 108.89 34.5
2 -4 14 3.2 8.9
-2 -4 -14 -1.2 16.4
-3 -4 -14 58.29 26.7
3 -4 14 13.4 17.1
2 -5 -14 30.5 29.5
-2 -5 14 22.4 14.1
-2 -5 14 -8.4 15.6
1 -5 -14 36.8 28
-1 -5 14 9.5 22.1
-1 -5 14 -17.8 13
-9 0 15 8.4 15.8
-8 0 15 13.4 11.8
8 0 -15 6.9 14.2
-8 0 15 6.6 12.8
7 0 -15 -9.8 9
-7 0 15 -10.4 11.2
-7 0 15 1.1 11.6
6 0 -15 -4.9 9.3
-6 0 15 -8.7 7.8
-5 0 15 18.1 11.5
-5 0 15 10.3 10.3
5 0 -15 -7.2 7.7
-4 0 15 4.9 9.1
-4 0 15 -7.4 5.9
4 0 -15 1.1 7.8
3 0 -15 4 7.7
-3 0 15 -4.3 6.4
-3 0 15 18 14.8
-2 0 15 -12.4 10
2 0 -15 11.9 8.4
-2 0 15 -9.6 6.8
-2 0 15 8.2 8.9
-1 0 15 -11.5 6.6
1 0 -15 3.8 8.6
-1 0 15 2.6 7.7
-1 0 15 12.4 21.8
0 0 -15 -0.7 9.2
0 0 15 -5.1 8.7
0 0 15 8.2 4.2
0 0 15 -6.5 10.3
-1 0 -15 9.3 11
1 0 15 6.3 11
1 0 15 3.5 7.5
-2 0 -15 4.2 10.9
2 0 15 1.3 8.1
-3 0 -15 11.5 12.8
3 0 15 7 8.7
4 0 15 1.9 8.4
-4 0 -15 -8.6 12.3
5 0 15 0.4 11
-5 0 -15 18 15.6
-8 -1 15 6.7 20.1
8 -1 -15 -11.2 15
-8 -1 15 33 18.4
-8 1 15 29 17.5
-7 -1 15 29.4 11.4
7 -1 -15 31.6 17.7
-7 -1 15 2.8 15
-7 1 15 12.9 13.6
-7 1 15 16.1 17.1
-6 -1 15 17.9 12.9
6 -1 -15 -10.2 11.1
-6 -1 15 38.8 18
-6 1 15 2.6 10.3
6 1 -15 3.5 12.9
-6 1 15 9.6 11.2
-5 -1 15 11.2 10.1
-5 -1 15 28.1 16.5
5 -1 -15 -11.1 9.1
-5 -1 15 14.8 12.6
-5 1 15 14.3 11.1
-5 1 15 7.3 11
5 1 -15 15.9 9.3
-4 -1 15 113.89 23.4
4 -1 -15 113.79 25.4
-4 -1 15 82.39 21.9
-4 -1 15 102.89 21.2
4 1 -15 88.39 18.5
-4 1 15 86.99 20.3
-4 1 15 100.19 21.2
-3 -1 15 -8.6 8.1
-3 -1 15 -11.6 8.3
-3 -1 15 -14.9 10.9
-3 1 15 -8.4 3.9
-3 1 15 -1.9 7.9
3 1 -15 -14.2 5.8
-2 -1 15 14.4 12.1
2 -1 -15 32.9 13.7
-2 -1 15 3.8 9.1
-2 -1 15 22.6 15.8
-2 1 15 2.5 6.3
-2 1 15 -3 8.1
2 1 -15 16.4 8.1
1 -1 -15 125.49 25.3
-1 -1 15 129.99 25.8
-1 -1 15 164.28 21.9
-1 -1 15 131.69 28.9
1 1 -15 150.88 19.7
-1 1 15 136.09 25.5
-1 1 15 140.19 25.8
0 -1 15 820.02 65.69
0 -1 15 753.62 45.5
0 -1 -15 763.32 57.29
0 -1 15 770.02 51.49
0 1 15 764.02 52.99
0 1 15 726.83 50.89
0 1 -15 699.93 42
-1 -1 -15 173.98 32.7
1 -1 15 160.18 34
1 -1 15 160.18 27.5
1 1 15 169.38 28
1 1 15 126.79 25.7
-1 1 -15 243.48 24.1
2 -1 15 21 12.2
-2 -1 -15 89.49 24.3
-2 1 -15 -1.9 8.9
2 1 15 29.5 14.2
2 1 15 29 10.7
2 1 15 -5.1 13.8
-3 -1 -15 -3.9 11.9
3 -1 15 -14.8 7.3
3 1 15 -3.6 11.1
3 1 15 11.2 15.5
3 1 15 4.3 8.6
-3 1 -15 6.3 10.3
4 -1 15 94.59 23.2
4 1 15 73.79 16.6
-4 1 -15 58.89 18.4
-5 -1 -15 5 18.8
5 -1 15 -10.5 10.8
5 1 15 -16.5 8.8
-5 1 -15 -13.4 13.4
-8 -2 15 21.7 17.4
8 -2 -15 -11.6 14
-8 -2 15 4.4 15.7
-8 2 15 -17.6 12.9
-7 -2 15 43.2 27.5
-7 -2 15 31.5 13.8
7 -2 -15 73.29 24.2
-7 2 15 -4.5 10.7
-6 -2 15 1.4 11.7
-6 -2 15 2.1 11.5
6 -2 -15 5.5 9.8
-6 2 15 -14.3 8.4
-5 -2 15 130.39 30.3
-5 -2 15 157.58 27.3
5 -2 -15 132.09 30.6
-5 -2 15 103.39 25.6
-5 2 15 163.78 28.9
-5 2 15 139.49 27.5
-4 -2 15 212.58 39.1
4 -2 -15 193.88 35
-4 -2 15 220.48 29.2
-4 -2 15 212.48 27.4
-4 2 15 231.58 27.3
-4 2 15 242.28 32.5
-3 -2 15 24.2 16.3
-3 -2 15 16.4 11.2
3 -2 -15 4.1 8.1
-3 -2 15 14.2 9.1
-3 2 15 2.1 9.8
-3 2 15 -6.5 7
2 -2 -15 14.7 10.8
-2 -2 15 19.7 10.5
-2 -2 15 3 6.6
-2 -2 15 20.5 14.8
-2 2 15 9 9.1
-2 2 15 19.7 8.7
-1 -2 15 45.2 18.3
-1 -2 15 20.1 10.3
1 -2 -15 32.6 13.9
-1 -2 15 19.2 9.6
1 2 -15 29.4 7.6
-1 2 15 27.9 10.1
-1 2 15 28.3 11.8
0 -2 15 40.6 19.8
0 -2 -15 35.7 16.3
0 2 15 23.7 9.1
1 -2 15 199.48 32.8
1 -2 15 197.88 41.5
-1 -2 -15 254.67 44.2
1 2 15 224.68 25.4
1 2 15 233.38 27.6
-1 2 -15 205.78 12.8
2 -2 15 23.4 13.4
-2 -2 -15 49.5 20.3
2 2 15 41.3 15.4
2 2 15 47.7 16.4
2 2 15 45.8 15.1
-2 2 -15 46.4 7.1
-3 -2 -15 11.3 18.3
3 -2 15 7.3 8.5
3 2 15 -2.5 11.2
3 2 15 -1.9 10.8
3 2 15 14.9 9.1
-3 2 -15 10.2 5.2
4 -2 15 -7.1 13.3
-4 -2 -15 9.6 19.2
-4 2 -15 0.1 9.4
-4 2 -15 -0.1 9.2
4 2 15 13.1 14.4
4 2 15 22.3 17
4 2 15 21.6 13.2
-7 -3 15 13.3 12.9
7 -3 -15 -13.6 14.1
-7 -3 15 -16.6 16.8
-7 3 15 -23.1 13.9
-6 -3 15 204.18 27.3
6 -3 -15 105.39 29.1
-6 -3 15 148.19 31.1
-6 -3 15 184.28 40.9
-6 3 15 163.48 29.5
-5 -3 15 31 23.4
-5 -3 15 30 15.6
5 -3 -15 25.6 17.1
-5 -3 15 57.29 16.7
5 -3 -15 42.6 18.6
-5 3 15 17.4 11.3
-4 -3 15 79.09 20
-4 -3 15 65.69 24
4 -3 -15 55.29 23.8
-4 -3 15 76.49 18.8
-4 3 15 72.39 17.2
-3 -3 15 -14.9 7.7
-3 -3 15 -9.4 8
3 -3 -15 -20.3 7.8
-3 -3 15 28.8 22.3
-3 3 15 6.2 8.3
2 -3 -15 67.59 25.5
-2 -3 15 14.9 14.3
-2 -3 15 27.6 12.7
-2 3 15 12 13.9
-2 3 15 32.8 11.6
1 -3 -15 261.17 47
-1 -3 15 279.27 32.6
-1 -3 15 190.88 42
-1 3 15 219.88 19.2
-1 3 15 203.28 34.4
0 -3 15 -3.9 7.2
0 -3 -15 -6.8 11.1
0 -3 15 3.3 15.1
0 3 15 0.7 5.4
0 3 15 -2.7 10
0 3 15 4.6 7.5
1 -3 15 3.6 6.9
-1 -3 -15 0.6 16.4
1 -3 15 19.7 15.1
1 3 15 12 5.7
1 3 15 3.5 6.5
1 3 15 -12.5 9.2
-2 -3 -15 26.8 15.7
2 3 15 2.4 6
2 3 15 7.2 15.9
2 3 15 16.1 5.9
3 -3 15 7.4 13.7
-3 -3 -15 -31 15.9
3 3 15 17.3 15
3 3 15 0.2 5.6
5 -4 -15 19.5 19.1
-5 -4 15 3.8 15.8
-5 -4 15 -8.1 11.2
-5 4 15 1.9 12.2
4 -4 -15 33.6 17.7
-4 -4 15 25.9 13.3
-4 -4 15 28.1 20.1
-4 4 15 12.1 10.9
3 -4 -15 9.9 14.9
-3 -4 15 8.6 13.3
-3 -4 15 10.2 15.2
-3 4 15 2.8 8.2
-2 -4 15 33.2 21.6
2 -4 -15 43.8 19
-2 -4 15 23.1 13.3
1 -4 -15 83.09 29.1
-1 -4 15 149.19 32.7
-1 -4 15 116.59 33.4
0 -4 -15 39.7 21.5
0 -4 15 80.49 20.9
0 -4 15 73.59 32.9
1 -4 15 2.9 14
1 -4 15 29.3 20.5
-1 -4 -15 7.5 15.2
8 0 -16 84.09 25.4
-8 0 16 94.59 25.5
-8 0 16 59.79 23.6
-7 0 16 50.39 23
7 0 -16 41.1 20.1
-7 0 16 72.29 21.7
-6 0 16 248.98 32.1
-6 0 16 198.78 35.6
6 0 -16 237.78 31.6
5 0 -16 87.99 21.8
-5 0 16 53.49 21
-5 0 16 51.49 16
-4 0 16 41 17.1
-4 0 16 43.3 14.9
4 0 -16 47.5 16.2
-3 0 16 -0.1 6.4
-3 0 16 -1.3 4
3 0 -16 4.1 8.4
-2 0 16 889.41 60.39
-2 0 16 831.72 57.09
2 0 -16 878.21 55.69
-2 0 16 746.33 59.19
-1 0 16 133.29 28.3
1 0 -16 111.39 23.9
-1 0 16 141.89 26
-1 0 16 113.79 25.7
0 0 -16 68.79 19.3
0 0 16 46.5 18.8
0 0 16 81.79 23.5
0 0 16 77.79 18.8
-1 0 -16 2.8 10
1 0 16 12 11.1
1 0 16 12.6 12.5
2 0 16 14 15
-2 0 -16 17.9 14.3
2 0 16 1.8 9
3 0 16 -2.3 15.4
3 0 16 21.3 13.2
-3 0 -16 8.1 13.6
4 0 16 216.28 34.4
-4 0 -16 180.18 34.9
8 -1 -16 -9.6 15.1
-8 -1 16 12 11.7
-8 -1 16 29.8 18.9
-7 -1 16 16.2 23
-7 -1 16 20.3 13.8
7 -1 -16 -1.8 14.2
-7 1 16 8.1 13.6
-7 1 16 6 10.1
6 -1 -16 43.5 17.9
-6 -1 16 14.5 17
-6 -1 16 25.2 15.3
-6 1 16 2.7 14.8
6 1 -16 35.1 13.6
-6 1 16 23.5 18.3
-5 -1 16 12.4 12.7
5 -1 -16 12.2 11.9
-5 -1 16 9.6 11.5
5 1 -16 0 9.7
-5 1 16 24.1 15.7
-5 1 16 31.5 14.8
4 -1 -16 20.7 13.8
-4 -1 16 26.7 18.6
-4 -1 16 44.9 17.6
-4 -1 16 25.2 18.2
4 1 -16 15.6 8.1
-4 1 16 35 14
-4 1 16 29.3 14.1
3 -1 -16 27.5 13.4
-3 -1 16 23.1 13.5
-3 -1 16 -14.3 10.1
-3 1 16 6 11.7
3 1 -16 19.8 9
-3 1 16 14.9 11.9
-2 -1 16 144.89 27.9
-2 -1 16 180.58 30
2 -1 -16 200.38 34.9
-2 -1 16 224.78 40.6
2 1 -16 198.78 23.1
-2 1 16 141.39 27
-2 1 16 220.58 28.2
1 -1 -16 120.19 27.4
-1 -1 16 153.88 33.3
-1 -1 16 173.08 28.8
-1 -1 16 140.29 25.2
-1 1 16 133.69 25.7
-1 1 16 142.49 26.6
1 1 -16 162.68 20.8
0 -1 16 -8.7 11.9
0 -1 -16 33.7 16.1
0 -1 16 8.4 10.6
0 1 -16 8.3 9.1
0 1 16 3 9.2
1 -1 16 66.49 19.1
1 -1 16 39.8 21
-1 -1 -16 65.79 20.6
1 1 16 86.79 21.9
1 1 16 61.29 19.8
-1 1 -16 101.09 19.7
2 -1 16 58.39 18.5
-2 -1 -16 27.2 18.9
2 -1 16 38.3 17.1
2 1 16 89.59 22.8
2 1 16 33.6 17.8
-2 1 -16 29.7 13.3
2 1 16 36.1 17.3
-3 -1 -16 112.59 28
3 -1 16 70.59 19.1
-3 1 -16 85.09 18.5
3 1 16 96.29 21.6
3 1 16 69.69 22.1
4 -1 16 -13.9 7.4
-4 -1 -16 -6.5 16
4 1 16 26.4 18.3
-4 1 -16 -33.5 12.8
4 1 16 4.4 13.7
-7 -2 16 37.4 20.2
7 -2 -16 49.1 22.8
-7 -2 16 29.2 14.9
-7 2 16 36.9 19.6
6 -2 -16 39.1 20.7
-6 -2 16 26.8 15.4
-6 2 16 36.9 14.6
-5 -2 16 31 19.2
-5 -2 16 12 12.6
-5 -2 16 47.9 20.9
5 -2 -16 37.3 16.8
-5 2 16 48.5 15.9
-5 2 16 25.9 14.6
-4 -2 16 44.6 23.8
-4 -2 16 49 16
-4 -2 16 52.09 16.5
4 -2 -16 52.79 21.3
-4 2 16 40.4 13.3
-4 2 16 39.4 18
-3 -2 16 11.1 13.3
3 -2 -16 51.89 17.4
-3 -2 16 -4.7 6.2
-3 -2 16 17 10.5
-3 2 16 16.5 10.6
-3 2 16 26.3 15.5
2 -2 -16 53.19 20.8
-2 -2 16 130.69 18.1
-2 -2 16 110.49 32.3
-2 -2 16 108.89 23.2
-2 2 16 139.89 27.6
-2 2 16 95.69 19.4
2 2 -16 110.79 14.7
-1 -2 16 131.59 32
1 -2 -16 120.29 29.4
-1 -2 16 109.69 23
1 2 -16 126.09 13.9
-1 2 16 78.79 21.8
-1 2 16 111.99 22.1
0 -2 -16 -13.3 12.5
0 -2 16 13.5 11
0 -2 16 10.9 9.1
0 2 -16 3.4 5.2
0 2 16 2.1 10.1
0 2 16 3.5 9.4
1 -2 16 32.4 21.8
-1 -2 -16 21.9 14.1
1 -2 16 -0.1 9
1 2 16 -15.2 10.3
-1 2 -16 2.3 3.9
1 2 16 10.7 10.5
1 2 16 -17.1 12.2
2 -2 16 19.8 12.8
-2 -2 -16 -15.2 17.6
2 -2 16 12.7 12.7
-2 2 -16 2.6 4.1
2 2 16 -0.4 12.4
2 2 16 10.8 12.8
2 2 16 -3.2 14.2
3 -2 16 103.59 25.8
-3 -2 -16 133.49 33.4
3 2 16 125.19 24.5
3 2 16 82.19 19.8
-3 2 -16 95.89 10.1
-3 2 -16 73.59 12.1
3 2 16 122.09 24.1
-6 -3 16 17.7 18.2
6 -3 -16 13.1 12.4
-6 -3 16 11.8 13.7
-6 3 16 8.3 13.6
-5 -3 16 31.7 18.2
-5 -3 16 10.5 14.4
-5 -3 16 -15.6 11.7
5 -3 -16 -27.6 14
-5 3 16 -4.4 9.9
4 -3 -16 21.1 28.6
-4 -3 16 -1.8 11
-4 -3 16 3.6 13.1
-4 -3 16 28.6 24.1
-4 3 16 43.5 13.9
-3 -3 16 8.6 9.2
-3 -3 16 3 10.7
3 -3 -16 0.1 10.6
-3 3 16 14.2 9.7
-3 3 16 9.6 9.4
-2 -3 16 39.8 15.6
2 -3 -16 8.7 13.7
-2 3 16 -3.3 10.6
-2 3 16 -3.6 8.8
1 -3 -16 -6.2 17.8
-1 -3 16 1.6 12.1
-1 -3 16 -0.2 11.1
-1 3 16 0.7 8.6
0 -3 -16 31.8 20.4
0 -3 16 2.1 16.1
0 3 16 33 18.1
0 3 16 44.9 16.8
0 3 16 48.2 10.9
-1 -3 -16 33.8 24
1 -3 16 26.1 18.9
1 -3 16 86.09 23.8
1 3 16 68.39 12.8
1 3 16 83.59 22.3
1 3 16 56.59 10.1
2 -3 16 207.38 44
-2 -3 -16 334.37 59.79
2 -3 16 352.86 39.7
2 3 16 193.28 35.5
2 3 16 240.68 16.3
-3 -4 16 0.5 17.7
3 -4 -16 -8.3 12.9
-3 -4 16 -15 10.5
-3 4 16 15.3 11.1
-2 -4 16 18.5 17.6
2 -4 -16 9.5 19.2
-2 -4 16 6.6 16.3
-1 -4 16 81.89 33.3
1 -4 -16 89.99 32.8
-1 -4 16 84.89 21
-7 0 17 9.3 16.5
7 0 -17 -18.7 12.5
6 0 -17 -15.5 11.1
-6 0 17 -12.1 11.8
-6 0 17 -8 9.7
5 0 -17 -0.1 12.8
-5 0 17 -1.1 12.2
-4 0 17 26 15.2
-4 0 17 16.3 12.9
3 0 -17 -20.6 9.3
-3 0 17 15.2 12.5
-3 0 17 15.9 9.6
2 0 -17 3.1 10.7
-2 0 17 10.2 12
-2 0 17 7.5 9.3
-1 0 17 5.2 10.9
-1 0 17 -9.3 10.5
-1 0 17 1.2 21.1
1 0 -17 -11.6 10.3
0 0 17 -12.1 12
0 0 17 18.7 11.9
0 0 -17 -12.4 11.9
0 0 17 4 17
-1 0 -17 -16.5 10.6
1 0 17 -6.9 5.8
1 0 17 -2.6 14.5
2 0 17 17.8 16.9
-2 0 -17 27.6 16.7
2 0 17 25.7 13.4
3 0 17 -16.6 19.2
-3 0 -17 -12.8 16.1
3 0 17 7.6 13.6
7 -1 -17 2 16.7
-7 -1 17 -21.3 14.3
-7 1 17 38.1 18.2
-7 1 17 22.4 17.2
-6 -1 17 35.6 28.5
6 -1 -17 96.19 26.4
-6 -1 17 108.99 23.6
-6 1 17 66.69 22.2
-6 1 17 20.8 20.2
6 1 -17 64.89 19.1
-5 -1 17 33.5 18.1
-5 -1 17 42.8 18.6
5 -1 -17 20.5 13.1
-5 1 17 30.1 15
5 1 -17 30.3 12
-5 1 17 20.1 16.3
4 -1 -17 149.99 31.7
-4 -1 17 100.79 27.8
-4 -1 17 111.49 25
-4 1 17 130.19 27.9
4 1 -17 163.88 27
-4 1 17 110.29 26.2
3 -1 -17 37.1 16.2
-3 -1 17 53.79 17.7
-3 -1 17 77.59 27.2
-3 -1 17 45.2 21.4
3 1 -17 49.4 14.2
-3 1 17 71.59 18.6
-3 1 17 62.09 18.6
-2 -1 17 44.2 22.1
2 -1 -17 -4.1 13.9
-2 -1 17 25.1 13.6
-2 -1 17 2.4 10.1
2 1 -17 18.4 11.6
-2 1 17 11.1 17.1
-2 1 17 16.8 7.7
-1 -1 17 90.89 22.8
-1 -1 17 59.19 20
1 -1 -17 108.59 26.6
-1 -1 17 80.39 25.9
1 1 -17 79.09 17.2
-1 1 17 98.99 22.3
-1 1 17 95.89 23.3
0 -1 -17 2.6 14.2
0 -1 17 -12 16.4
0 -1 17 19.2 12.5
0 1 17 -17.7 9.4
0 1 -17 8.3 9.9
0 1 17 10.1 13.3
-1 -1 -17 28.1 15.9
1 -1 17 6.4 11.5
1 -1 17 -22.8 12.3
1 1 17 1.8 13.3
-1 1 -17 -1.4 9.8
1 1 17 1.3 13.3
2 -1 17 37.8 21.5
2 -1 17 14 17.6
-2 -1 -17 29.8 21.8
2 1 17 45 19.6
2 1 17 12.9 15.3
-2 1 -17 67.79 18.6
3 -1 17 38.6 27.3
-3 -1 -17 153.98 33.6
3 -1 17 65.49 19.1
3 1 17 113.69 26.2
-3 1 -17 45.6 18.9
3 1 17 98.39 27.8
-6 -2 17 28 17.1
-6 -2 17 40.3 20.7
6 -2 -17 22.8 20.9
-6 2 17 8.6 13.8
-5 -2 17 -15 23.2
-5 -2 17 -1.1 17.1
-5 -2 17 36.5 16.2
5 -2 -17 -21 15.8
-5 2 17 6.1 14.6
-5 2 17 22 13.1
-4 -2 17 10.8 15.8
4 -2 -17 19.9 19.6
-4 -2 17 20.7 10.6
-4 2 17 -0.5 14
-4 2 17 2.6 10.1
-3 -2 17 142.39 24.7
3 -2 -17 72.89 23.2
-3 -2 17 160.28 35.9
-3 -2 17 131.29 26.5
-3 2 17 142.19 25.3
-3 2 17 104.79 27.6
-2 -2 17 83.39 26.7
-2 -2 17 106.79 22.6
-2 -2 17 111.99 17.9
2 -2 -17 83.99 26.1
-2 2 17 103.19 25.2
-2 2 17 87.29 21
1 -2 -17 33.4 18
-1 -2 17 2.7 14.4
-1 -2 17 -15.7 10.9
1 2 -17 5.8 6.9
-1 2 17 -15.1 10.6
-1 2 17 -3.5 9.4
0 -2 17 17.8 15.6
0 -2 17 -0.1 14.9
0 -2 -17 4.1 16.4
0 2 -17 17.2 6.6
0 2 17 15.2 11.9
0 2 17 22.3 13.1
1 -2 17 39.4 23.1
1 -2 17 39.2 17.2
-1 -2 -17 48.5 23.4
1 2 17 44.5 18.2
-1 2 -17 21 5.7
1 2 17 11.9 16.5
1 2 17 35.4 15.5
2 -2 17 -0.7 14.1
-2 -2 -17 13.1 15.4
2 -2 17 -1.3 22.8
2 2 17 26.4 14.3
2 2 17 1.7 13.7
-4 -3 17 19.7 15.3
4 -3 -17 3.3 19.2
-4 -3 17 8 20.5
-4 3 17 9.5 12.7
-3 -3 17 28 17.3
-3 -3 17 39.8 19.3
3 -3 -17 62.79 26.1
-3 3 17 22.2 17.7
-3 3 17 11.2 11.4
2 -3 -17 -23 15.6
-2 -3 17 3.9 11.3
-2 -3 17 5 20
-2 3 17 10.3 10.4
-2 3 17 -5.6 15.8
-1 -3 17 25.8 22.4
-1 -3 17 10.5 16.2
1 -3 -17 -13.4 18.5
-1 3 17 8.5 9.4
-1 3 17 32.2 19.1
0 -3 17 8.1 14.9
0 -3 17 16.5 26.8
0 -3 -17 17.3 16.4
0 3 17 -1.8 8.9
1 -3 17 36.4 17.6
-1 -3 -17 13.5 22.9
1 -3 17 4.5 22.4
6 0 -18 19.9 16
-6 0 18 34.2 19.6
-5 0 18 8.3 9.4
-5 0 18 -2.4 14.4
5 0 -18 -4.6 12.9
4 0 -18 -14.6 11.9
-4 0 18 -0.4 14.1
-4 0 18 2.1 11.2
3 0 -18 11.7 12.6
-3 0 18 15.2 17.3
-3 0 18 24.9 17.6
-2 0 18 119.19 39.2
2 0 -18 106.59 24.3
-2 0 18 72.59 26
1 0 -18 102.29 25.9
-1 0 18 137.49 48.4
-1 0 18 58.69 24.3
0 0 18 -24.1 10.2
1 0 18 116.99 30
1 0 18 172.68 32.9
-1 0 -18 157.18 34
2 0 18 16.6 21.5
2 0 18 -22.7 12.8
-2 0 -18 17.1 16.7
-6 -1 18 0.7 20.9
-6 -1 18 46.2 20.4
-6 1 18 26.6 20.3
6 1 -18 27.9 16.1
-6 1 18 33.1 18.6
5 -1 -18 7.6 13.3
-5 -1 18 43.2 19.1
-5 1 18 -23 12.4
5 1 -18 -9.3 12.2
4 -1 -18 6.9 17.9
-4 -1 18 51.69 20.6
-4 -1 18 21.7 17.4
4 1 -18 37.4 16.2
-4 1 18 50.59 17.9
-4 1 18 81.39 24.5
-3 -1 18 7.5 20.1
-3 -1 18 -20.3 15
3 -1 -18 22.6 12.5
-3 -1 18 -3.6 12.8
-3 1 18 2.3 11.1
-3 1 18 0.6 12
3 1 -18 31.6 12.4
-2 -1 18 4 8.8
-2 -1 18 15.1 17.3
2 -1 -18 1.1 13.5
-2 -1 18 -4.5 13.6
2 1 -18 13 10.3
-2 1 18 18.8 15.6
-1 -1 18 81.69 29.8
-1 -1 18 102.09 22.7
1 -1 -18 104.79 24.9
-1 1 18 121.39 27.3
1 1 -18 92.19 18.9
0 -1 18 8.8 15
0 -1 18 25.2 18.3
0 -1 -18 -2.5 16.9
0 1 -18 8.4 13.7
0 1 18 34 21.4
1 -1 18 14.3 19.3
-1 -1 -18 14.4 18.1
1 -1 18 12.9 15.6
1 1 18 6.1 14
-1 1 -18 31.7 13.9
1 1 18 33 21.4
2 -1 18 30.3 19.7
-2 -1 -18 12.7 18.2
2 -1 18 50.99 23.7
-2 1 -18 3.3 13.8
2 1 18 4.5 15.2
2 1 18 -11.2 20.1
-5 -2 18 -15.1 16.1
-5 -2 18 8.4 15.7
5 -2 -18 -21.7 15.4
-5 2 18 -0.4 14.6
-4 -2 18 23.3 18.9
-4 -2 18 20.1 15.9
-4 2 18 10.2 14.1
-4 2 18 13 11.3
-3 -2 18 135.39 35.8
-3 -2 18 191.08 32.1
3 -2 -18 199.28 42.4
-3 2 18 178.58 35
-3 2 18 217.08 33.9
-2 -2 18 27.9 24.5
2 -2 -18 25.8 23
-2 -2 18 -0.3 12.9
-2 2 18 9.9 12.7
-2 2 18 37.7 19.8
-1 -2 18 -0.2 12.9
1 -2 -18 -12.8 18.9
-1 -2 18 -37.3 17.1
-1 2 18 13.5 12.9
-1 2 18 -0.1 10.8
0 -2 18 179.58 32.1
0 -2 18 218.08 44.7
0 -2 -18 179.28 41.5
0 2 18 193.28 34.2
0 2 18 208.38 28.1
-4 0 19 1.1 11
-4 0 19 -5.5 16.2
-3 0 19 -3.9 17.2
3 0 -19 -28.4 11.5
-3 0 19 -8.5 8.6
-2 0 19 -2.9 16.2
2 0 -19 -23 11.8
-1 0 19 -17.3 17
1 0 -19 -15.9 13.8
-1 0 19 -9.3 9.8
0 0 19 6.5 9
0 0 -19 2.5 14.5
0 0 19 -4.7 20.7
-4 -1 19 58.19 21.3
-4 -1 19 124.89 32.7
4 -1 -19 71.89 25.5
-4 1 19 58.19 20.6
4 1 -19 76.19 19.6
-4 1 19 37.1 18.3
3 -1 -19 16.4 19.8
-3 -1 19 17.9 22.3
-3 -1 19 3.4 14.3
3 1 -19 -29.9 12.4
-3 1 19 3.7 11.6
-3 1 19 14.1 16.3
2 -1 -19 -5.9 16.4
-2 -1 19 -17.5 12.6
2 1 -19 -1.4 11.6
-2 1 19 7.4 13.4
-2 1 19 -4.8 14
-1 -1 19 2.6 26.9
-1 -1 19 7.8 13.3
1 -1 -19 10 15.6
1 1 -19 -11 11.7
-1 1 19 19.7 14.4
-1 1 19 19.3 17.7
