#------------------------------------------------------------------------------
#$Date: 2020-05-05 22:48:24 +0300 (Tue, 05 May 2020) $
#$Revision: 251749 $
#$URL: file:///home/coder/svn-repositories/cod/cif/4/51/76/4517640.cif $
#------------------------------------------------------------------------------
#
# This file is available in the Crystallography Open Database (COD),
# http://www.crystallography.net/
#
# All data on this site have been placed in the public domain by the
# contributors.
#
data_4517640
loop_
_publ_author_name
'Jadhav, Prakash D.'
'Chen, Jia-Xuan'
'Liu, Rai-Shung'
_publ_section_title
;
 Gold(I)-Catalyzed Highly Enantioselective [4 + 2]-Annulations of
 Cyclopentadienes with Nitrosoarenes via Nitroso-Povarov versus Oxidative
 Nitroso-Povarov Reactions
;
_journal_name_full               'ACS Catalysis'
_journal_page_first              5840
_journal_paper_doi               10.1021/acscatal.0c01293
_journal_year                    2020
_chemical_absolute_configuration rm
_chemical_formula_sum            'C19 H18 Br N O'
_chemical_formula_weight         356.25
_space_group_crystal_system      monoclinic
_space_group_IT_number           4
_space_group_name_Hall           'P 2yb'
_space_group_name_H-M_alt        'P 1 21 1'
_atom_sites_solution_hydrogens   mixed
_audit_creation_method           SHELXL-2014/6
_cell_angle_alpha                90
_cell_angle_beta                 95.532(2)
_cell_angle_gamma                90
_cell_formula_units_Z            2
_cell_length_a                   6.6642(4)
_cell_length_b                   7.7286(5)
_cell_length_c                   15.5866(10)
_cell_measurement_reflns_used    3916
_cell_measurement_temperature    100(2)
_cell_measurement_theta_max      26.3642
_cell_measurement_theta_min      2.9446
_cell_volume                     799.05(9)
_computing_cell_refinement       'SAINT V8.34A (Bruker AXS Inc., 2013)'
_computing_data_collection       'APEX2 (Bruker AXS, 2010)'
_computing_data_reduction        'SAINT V8.34A (Bruker AXS Inc., 2013)'
_computing_molecular_graphics    'SHELXTL (Sheldrick, 2008)'
_computing_publication_material  SHELXTL
_computing_structure_refinement  'SHELXL-2014/6 (Sheldrick, 2014)'
_diffrn_ambient_temperature      100(2)
_diffrn_detector_area_resol_mean 8.3333
_diffrn_measured_fraction_theta_full 0.999
_diffrn_measured_fraction_theta_max 0.999
_diffrn_measurement_device_type  'Bruker APEX-II CCD'
_diffrn_measurement_method       '\f and \w scans'
_diffrn_radiation_type           MoK\a
_diffrn_radiation_wavelength     0.71073
_diffrn_reflns_av_R_equivalents  0.0251
_diffrn_reflns_av_unetI/netI     0.0515
_diffrn_reflns_Laue_measured_fraction_full 0.999
_diffrn_reflns_Laue_measured_fraction_max 0.999
_diffrn_reflns_limit_h_max       7
_diffrn_reflns_limit_h_min       -8
_diffrn_reflns_limit_k_max       9
_diffrn_reflns_limit_k_min       -9
_diffrn_reflns_limit_l_max       16
_diffrn_reflns_limit_l_min       -19
_diffrn_reflns_number            6972
_diffrn_reflns_point_group_measured_fraction_full 0.977
_diffrn_reflns_point_group_measured_fraction_max 0.975
_diffrn_reflns_theta_full        25.242
_diffrn_reflns_theta_max         26.368
_diffrn_reflns_theta_min         2.626
_exptl_absorpt_coefficient_mu    2.574
_exptl_absorpt_correction_T_max  0.7454
_exptl_absorpt_correction_T_min  0.6705
_exptl_absorpt_correction_type   multi-scan
_exptl_absorpt_process_details   'SADABS V2014/4 (Bruker AXS Inc.)'
_exptl_crystal_colour            colorless
_exptl_crystal_density_diffrn    1.481
_exptl_crystal_density_meas      ?
_exptl_crystal_density_method    'not measured'
_exptl_crystal_description       lump
_exptl_crystal_F_000             364
_exptl_crystal_size_max          0.15
_exptl_crystal_size_mid          0.12
_exptl_crystal_size_min          0.11
_refine_diff_density_max         0.528
_refine_diff_density_min         -0.210
_refine_diff_density_rms         0.055
_refine_ls_abs_structure_details
;
 Flack x determined using 1223 quotients [(I+)-(I-)]/[(I+)+(I-)]
 (Parsons, Flack and Wagner, Acta Cryst. B69 (2013) 249-259).
;
_refine_ls_abs_structure_Flack   0.026(6)
_refine_ls_extinction_method     none
_refine_ls_goodness_of_fit_ref   0.998
_refine_ls_hydrogen_treatment    constr
_refine_ls_matrix_type           full
_refine_ls_number_parameters     201
_refine_ls_number_reflns         3189
_refine_ls_number_restraints     1
_refine_ls_restrained_S_all      0.998
_refine_ls_R_factor_all          0.0307
_refine_ls_R_factor_gt           0.0263
_refine_ls_shift/su_max          0.012
_refine_ls_shift/su_mean         0.000
_refine_ls_structure_factor_coef Fsqd
_refine_ls_weighting_details
'w=1/[\s^2^(Fo^2^)+(0.0059P)^2^] where P=(Fo^2^+2Fc^2^)/3'
_refine_ls_weighting_scheme      calc
_refine_ls_wR_factor_gt          0.0529
_refine_ls_wR_factor_ref         0.0540
_reflns_Friedel_coverage         0.810
_reflns_Friedel_fraction_full    0.952
_reflns_Friedel_fraction_max     0.946
_reflns_number_gt                2918
_reflns_number_total             3189
_reflns_threshold_expression     'I > 2\s(I)'
_cod_data_source_file            cs0c01293_si_002.cif
_cod_data_source_block           190912lt_0m
_cod_depositor_comments
;
The following automatic conversions were performed:

data item '_exptl_crystal_density_meas' value 'not measured' was
changed to '?' -- the value is perceived as not measured.

Automatic conversion script
Id: cif_fix_values 7556 2019-12-06 15:28:31Z antanas 
;
_cod_original_sg_symbol_H-M      'P 21'
_cod_database_code               4517640
_shelx_space_group_comment
;
The symmetry employed for this shelxl refinement is uniquely defined
by the following loop, which should always be used as a source of
symmetry information in preference to the above space-group names.
They are only intended as comments.
;
_shelxl_version_number           2014/6
_shelx_res_file
;
TITL 190912lt_0m in P2(1)
CELL 0.71073 6.6642 7.7286 15.5866 90.000 95.532 90.000
ZERR 2.00 0.0004 0.0005 0.0010 0.000 0.002 0.000
LATT -1
SYMM -x, y+1/2, -z
SFAC C  H  N  O  Br
UNIT 38  36  2  2  2
L.S. 4
ACTA
BOND $H
FMAP 2
PLAN 5
TEMP -173.000
WGHT    0.005900
FVAR       0.81933
BR1   5    0.549431    0.749590   -0.199152    11.00000    0.03226    0.03139 =
         0.02301   -0.00057    0.00826   -0.00130
O1    4   -0.182596    0.888706    0.236809    11.00000    0.02180    0.03086 =
         0.02373    0.00220    0.00555    0.00444
N1    3   -0.213907    0.957371    0.320663    11.00000    0.02567    0.03294 =
         0.02932    0.00165    0.01244    0.01050
C1    1    0.416324    0.762631   -0.096377    11.00000    0.02748    0.01837 =
         0.01823    0.00243    0.00421    0.00176
C2    1    0.523751    0.831212   -0.023876    11.00000    0.02299    0.02667 =
         0.02635   -0.00007    0.00604   -0.00367
AFIX  43
H19   2    0.654651    0.878099   -0.026913    11.00000   -1.20000
AFIX   0
C3    1    0.436859    0.830042    0.052765    11.00000    0.02677    0.02870 =
         0.01981   -0.00371    0.00079   -0.00414
AFIX  43
H18   2    0.509509    0.877762    0.102654    11.00000   -1.20000
AFIX   0
C4    1    0.246103    0.761236    0.059507    11.00000    0.01721    0.01633 =
         0.02295   -0.00368    0.00085    0.00257
C5    1    0.163837    0.749453    0.143731    11.00000    0.01758    0.02071 =
         0.02301   -0.00306    0.00256    0.00276
C6    1    0.257034    0.792613    0.219584    11.00000    0.01506    0.02138 =
         0.02612   -0.00193    0.00352   -0.00101
AFIX  43
H5    2    0.389169    0.839994    0.225965    11.00000   -1.20000
AFIX   0
C7    1    0.136581    0.760491    0.294836    11.00000    0.01680    0.02254 =
         0.02086    0.00267    0.00335    0.00210
C8    1    0.141098    0.916726    0.354411    11.00000    0.02071    0.02327 =
         0.01874    0.00180    0.00565   -0.00299
C9    1    0.320513    0.969745    0.400830    11.00000    0.02506    0.03954 =
         0.02219   -0.00001    0.00328   -0.00412
AFIX  43
H11   2    0.440653    0.906410    0.395078    11.00000   -1.20000
AFIX   0
C10   1    0.327670    1.109967    0.454153    11.00000    0.04295    0.04487 =
         0.02510   -0.00525    0.00262   -0.01182
AFIX  43
H9    2    0.451876    1.143021    0.484813    11.00000   -1.20000
AFIX   0
C11   1    0.154215    1.204628    0.463826    11.00000    0.07138    0.03273 =
         0.02164   -0.00383    0.01145   -0.01007
AFIX  43
H4    2    0.158854    1.301308    0.501605    11.00000   -1.20000
AFIX   0
C12   1    0.140667    0.697159   -0.015942    11.00000    0.01519    0.02685 =
         0.02699   -0.00126   -0.00032    0.00236
AFIX  43
H3    2    0.008418    0.652557   -0.013764    11.00000   -1.20000
AFIX   0
C13   1    0.225478    0.697564   -0.093653    11.00000    0.02457    0.02686 =
         0.01737   -0.00553   -0.00310    0.00310
AFIX  43
H2    2    0.152561    0.653429   -0.144335    11.00000   -1.20000
AFIX   0
C14   1   -0.041018    0.675566    0.155738    11.00000    0.02168    0.03390 =
         0.02589   -0.00537    0.00293   -0.00670
AFIX  23
H16   2   -0.041466    0.548246    0.148743    11.00000   -1.20000
H17   2   -0.145513    0.726004    0.113599    11.00000   -1.20000
AFIX   0
C15   1   -0.078235    0.725807    0.248094    11.00000    0.01913    0.02957 =
         0.02536    0.00083    0.00594    0.00087
C16   1   -0.029900    1.014245    0.363065    11.00000    0.02905    0.02638 =
         0.01935    0.00591    0.00895   -0.00057
C17   1    0.219550    0.600642    0.345496    11.00000    0.02881    0.03280 =
         0.02740   -0.00106    0.00715    0.00390
AFIX 137
H6    2    0.204835    0.498328    0.308280    11.00000   -1.50000
H8    2    0.144175    0.583313    0.395778    11.00000   -1.50000
H7    2    0.362441    0.618557    0.364669    11.00000   -1.50000
AFIX   0
C18   1   -0.024710    1.157203    0.418184    11.00000    0.04970    0.02474 =
         0.02684    0.00786    0.01622    0.00743
AFIX  43
H10   2   -0.144116    1.221426    0.424152    11.00000   -1.20000
AFIX   0
C19   1   -0.208560    0.595284    0.290229    11.00000    0.02225    0.03187 =
         0.03766    0.00281    0.00570   -0.00744
AFIX 137
H13   2   -0.225588    0.632428    0.349205    11.00000   -1.50000
H15   2   -0.143237    0.481580    0.291617    11.00000   -1.50000
H14   2   -0.340829    0.587742    0.257016    11.00000   -1.50000
AFIX   1
H1    2   -0.308500    1.040200    0.306500    11.00000    0.05000
AFIX   0
HKLF 4 1 1 0 0 0 1 0 0 0 1

REM  190912lt_0m in P2(1)
REM R1 =  0.0263 for    2918 Fo > 4sig(Fo)  and  0.0307 for all    3189 data
REM    201 parameters refined using      1 restraints

END

WGHT      0.0059      0.0000

REM Highest difference peak  0.528,  deepest hole -0.210,  1-sigma level  0.055
Q1    1   0.4240  0.8274 -0.2198  11.00000  0.05    0.39
Q2    1   0.4279  0.6777 -0.2207  11.00000  0.05    0.37
Q3    1   0.5835  0.6203 -0.1928  11.00000  0.05    0.34
Q4    1   0.0382  0.7410  0.2784  11.00000  0.05    0.32
Q5    1   0.1440  0.6881  0.3185  11.00000  0.05    0.30
;
_shelx_res_checksum              635
_shelx_hkl_file
;
  -1   0   0 120.758 6.97886   2
   1   0   0 119.322 7.03159   1
  -1   0   0 118.058 7.03589   1
  -1   0   0 122.128 7.08492   1
  -2   0   0 108.094 7.61833   1
  -2   0   0 96.9642 6.99631   2
   2   0   0 94.3416 6.91795   1
  -2   0   0 92.4383 7.14729   1
   3   0   0 2792.93 142.648   1
  -3   0   0 2728.60 142.897   1
  -3   0   0 2672.21 142.636   2
  -3   0   0 2806.18 143.075   1
  -4   0   0 223.455 15.5748   1
  -4   0   0 241.476 15.8835   1
  -6   0   0 5.97775 6.11006   1
  -7   0   0 91.9326 12.9661   1
  -8   0   0 110.040 16.0551   1
   0  -1   0 -12.657 0.93369   2
   0  -1   0 -14.045 1.03417   1
   0  -1   0 -13.918 0.95000   1
   0   1   0 -13.308 1.06965   1
   0   1   0 -13.226 0.89028   2
   0   1   0 -13.118 1.02114   1
  -1  -1   0 192.170 10.2620   1
   1  -1   0 167.979 10.8312   1
  -1  -1   0 175.557 10.2425   1
  -1  -1   0 190.622 10.2248   2
   1  -1   0 182.359 11.0385   1
   1   1   0 187.159 10.0800   1
   1   1   0 191.144 10.2484   2
  -1   1   0 185.723 10.9861   1
   1   1   0 168.859 10.0642   1
  -1   1   0 175.651 10.9162   1
  -2  -1   0 1066.20 51.1228   1
  -2  -1   0 1016.78 51.0466   1
   2  -1   0 1041.85 51.8203   1
  -2  -1   0 1035.74 50.9317   2
   2   1   0 916.896 50.7251   2
  -2   1   0 884.878 51.6577   1
   2   1   0 939.985 50.6147   1
  -2   1   0 863.586 51.5726   1
   3  -1   0 1191.79 63.2131   1
  -3  -1   0 1258.33 62.7798   1
  -3  -1   0 1216.96 62.7739   1
   3   1   0 1161.32 62.2459   2
  -3   1   0 1143.63 63.3612   1
   3   1   0 1134.55 61.9828   1
   4  -1   0 290.562 19.9841   1
  -4  -1   0 295.440 19.7169   1
  -4  -1   0 307.124 19.7489   1
   4   1   0 382.872 18.9393   1
  -5  -1   0 503.528 32.6125   1
  -5  -1   0 563.666 32.8562   1
   5  -1   0 548.335 32.7401   1
   5   1   0 557.508 31.0074   1
  -5   1   0 612.566 33.9805   1
  -6  -1   0 220.473 16.6846   1
  -6   1   0 172.396 17.0718   1
  -7  -1   0 346.172 25.0572   1
  -7   1   0 340.641 25.9040   1
  -8  -1   0 127.345 16.5503   1
  -8   1   0 138.509 17.5048   1
   0  -2   0 9234.35 450.579   1
   0  -2   0 8523.03 451.157   1
   0  -2   0 8527.42 449.390   2
   0   2   0 8419.86 450.916   2
   0   2   0 8857.44 451.768   1
   1  -2   0 1974.76 114.945   1
  -1  -2   0 2069.94 114.154   2
  -1  -2   0 2017.33 114.308   1
  -1  -2   0 2142.79 114.340   1
   1   2   0 2510.71 114.218   1
  -1   2   0 2346.97 115.074   1
   1   2   0 2422.76 114.257   2
   2  -2   0 1392.34 73.5301   1
  -2  -2   0 1317.74 72.0341   2
  -2  -2   0 1374.18 72.3004   1
  -2  -2   0 1421.01 72.3511   1
  -2   2   0 1342.64 73.2794   1
   2   2   0 1475.04 71.6952   1
   2   2   0 1368.74 72.0544   2
  -3  -2   0 1535.83 82.9438   1
   3  -2   0 1555.37 84.2695   1
  -3  -2   0 1538.62 82.9687   1
  -3   2   0 1633.13 84.3395   1
   3   2   0 1650.75 82.6304   2
   4  -2   0 50.9960 7.65579   1
  -4  -2   0 63.5405 7.07280   1
  -4  -2   0 53.8356 6.90559   1
   4   2   0 37.9552 5.46405   2
  -4   2   0 45.2468 7.80495   1
  -5  -2   0 13.8875 6.07069   1
  -5  -2   0 12.3306 5.89462   1
   5  -2   0 19.7458 6.58546   1
  -5   2   0 15.1655 6.89753   1
  -6  -2   0 127.083 13.0976   1
  -6   2   0 137.825 15.4973   1
  -7  -2   0 176.457 16.9031   1
  -7   2   0 175.544 18.6172   1
  -8  -2   0 31.1894 10.3066   1
  -8   2   0 27.9153 11.5783   1
   0  -3   0 -0.7969 2.81637   1
   0  -3   0 -0.0870 3.03016   1
   0  -3   0 -1.6288 2.24593   2
   0   3   0 -1.9315 2.84973   1
   0   3   0 -1.8105 2.48717   2
   1  -3   0 285.327 16.7898   1
  -1  -3   0 250.536 15.4118   1
  -1  -3   0 260.531 15.6981   1
  -1  -3   0 263.852 15.1518   2
  -1   3   0 268.633 16.7272   1
  -1   3   0 251.823 15.8667   2
   1   3   0 245.532 15.0695   2
  -2  -3   0 493.146 26.4979   1
   2  -3   0 488.681 28.0706   1
  -2  -3   0 490.134 26.5292   1
   2   3   0 471.280 25.4532   1
  -2   3   0 457.943 27.0840   2
   2   3   0 457.713 25.9937   2
  -2   3   0 462.744 27.7010   1
   3  -3   0 1461.89 75.1926   1
  -3  -3   0 1381.80 73.2387   1
  -3  -3   0 1330.55 73.1251   1
  -3   3   0 1407.13 74.3608   2
   3   3   0 1369.82 72.6444   2
  -3   3   0 1367.54 74.7645   1
  -4  -3   0 113.122 10.4342   1
  -4  -3   0 98.0369 9.75931   1
   4  -3   0 106.237 12.3263   1
  -4   3   0 121.732 12.6240   1
   4   3   0 134.590 9.64717   2
  -5  -3   0 535.051 30.7331   1
   5  -3   0 524.225 32.5110   1
  -5   3   0 474.573 32.1567   1
   5   3   0 503.664 29.2059   2
  -6  -3   0 298.078 21.6083   1
  -6   3   0 320.363 23.9442   1
  -7  -3   0 122.723 15.3242   1
  -7   3   0 155.323 17.8783   1
   0  -4   0 1870.91 96.8226   1
   0   4   0 1807.13 96.1762   2
   0   4   0 1819.27 96.5301   1
  -1  -4   0 928.172 55.1744   1
   1  -4   0 921.013 55.9370   1
  -1  -4   0 922.352 55.1667   1
   1   4   0 1173.78 55.0353   2
  -1   4   0 1197.93 55.9923   2
   2  -4   0 540.411 33.0350   1
  -2  -4   0 540.859 31.2886   1
  -2  -4   0 539.174 31.5601   1
   2   4   0 559.682 30.8525   2
   2   4   0 566.722 30.1386   1
  -2   4   0 561.437 33.2763   1
  -2   4   0 596.210 32.3981   2
  -3  -4   0 269.050 17.4239   1
   3  -4   0 290.184 20.2129   1
  -3  -4   0 280.484 17.7932   1
   3   4   0 280.726 16.9534   2
  -3   4   0 250.828 18.4150   2
  -3   4   0 263.580 19.4632   1
  -3   4   0 277.243 20.8262   1
  -4  -4   0 44.1914 6.85692   1
  -4  -4   0 51.0370 7.79943   1
   4  -4   0 41.7460 9.30641   1
  -4   4   0 57.1919 8.75281   2
   4   4   0 62.5753 6.96897   2
  -4   4   0 63.4124 10.1694   1
  -5  -4   0 13.0799 6.19899   1
   5  -4   0 12.5439 7.83471   1
  -5   4   0 14.0853 7.96100   1
   5   4   0 16.6955 4.92123   2
  -5   4   0 14.2005 6.60001   2
  -6  -4   0 88.1811 11.3655   1
  -6   4   0 97.5822 13.9909   1
  -6   4   0 87.4370 12.2032   2
  -7  -4   0 101.965 13.4052   1
  -7   4   0 117.909 16.2523   1
   0  -5   0 -1.2742 4.84549   1
   0   5   0 5.07186 4.18408   2
   0   5   0 0.75192 3.89952   1
  -1  -5   0 31.1466 6.13061   1
  -1  -5   0 28.9575 6.44290   1
   1  -5   0 30.8000 7.13145   1
  -1   5   0 12.7137 5.95069   1
   1   5   0 12.2780 4.55358   2
  -1   5   0 19.4339 5.59477   2
  -2  -5   0 240.577 17.0788   1
  -2  -5   0 267.901 18.0821   1
   2  -5   0 252.740 19.3691   1
   2   5   0 252.732 16.4641   2
  -2   5   0 265.417 18.2620   2
  -2   5   0 264.491 19.7229   1
   2   5   0 233.950 15.8950   1
   3  -5   0 336.344 24.3565   1
  -3  -5   0 349.350 21.9764   1
  -3  -5   0 298.039 20.8484   1
  -3   5   0 346.187 22.9456   2
  -3   5   0 326.917 24.6448   1
   3   5   0 338.132 20.4588   2
  -4  -5   0 296.047 20.6072   1
   4  -5   0 304.986 23.7381   1
   4   5   0 307.127 18.9894   2
  -4   5   0 288.594 21.7757   2
  -4   5   0 311.066 23.1212   1
  -4   5   0 287.734 24.3393   1
  -5  -5   0 400.178 25.7586   1
   5  -5   0 402.471 29.0541   1
   5   5   0 404.930 23.8707   2
  -5   5   0 371.158 30.4978   1
  -5   5   0 372.580 26.9218   2
  -5   5   0 414.306 28.8718   1
  -6  -5   0 78.2086 11.7810   1
  -6   5   0 90.8993 15.0621   1
  -6   5   0 103.664 13.7996   2
   6   5   0 98.1321 10.4633   2
  -7  -5   0 48.6595 10.7597   1
  -7   5   0 42.4948 13.0584   1
   0  -6   0 811.723 46.8226   1
   0   6   0 760.388 45.4393   1
   0   6   0 840.741 45.5595   2
   1  -6   0 439.562 30.4398   1
  -1  -6   0 429.844 29.5013   1
   1   6   0 504.449 28.4100   2
  -1   6   0 475.009 30.0987   1
  -1   6   0 501.688 29.5241   2
  -2  -6   0 73.8825 10.0985   1
   2   6   0 30.8735 6.74723   2
  -2   6   0 35.4543 8.60122   2
  -2   6   0 28.0350 8.75194   1
  -3  -6   0 402.679 26.6809   1
   3  -6   0 439.782 29.7106   1
   3   6   0 423.821 25.4390   2
  -3   6   0 425.740 28.4322   2
  -3   6   0 393.338 29.6198   1
  -4  -6   0 22.5201 7.66940   1
   4  -6   0 38.3802 10.9045   1
  -4   6   0 40.5387 9.89087   2
   4   6   0 39.2366 7.09064   2
  -4   6   0 37.5914 11.2433   1
   5  -6   0 4.25934 8.86376   1
  -5  -6   0 -1.5306 6.90891   1
  -5   6   0 -1.2542 7.97813   2
  -5   6   0 -1.8027 10.1278   1
   5   6   0 4.73065 5.22367   2
  -6  -6   0 15.3217 8.85794   1
  -6   6   0 22.4369 11.1722   1
  -6   6   0 27.2631 13.4251   1
  -6   6   0 18.8846 10.2909   2
   6   6   0 26.0310 6.25783   2
   0  -7   0 -1.3122 7.35959   1
   0   7   0 3.13684 6.18317   2
  -1  -7   0 63.8393 11.2835   1
   1  -7   0 57.9486 11.4025   1
   1   7   0 34.2834 8.02892   2
  -1   7   0 45.4310 9.48911   2
  -2  -7   0 179.701 18.1545   1
   2  -7   0 165.106 19.7792   1
  -2   7   0 221.844 20.0925   1
  -2   7   0 216.184 18.4316   2
   2   7   0 222.065 16.3642   2
  -3  -7   0 200.207 17.0628   1
   3  -7   0 176.378 20.0375   1
  -3   7   0 133.890 16.4706   2
   3   7   0 160.262 14.4521   2
  -3   7   0 150.317 18.6558   1
  -4  -7   0 74.6134 11.8980   1
   4  -7   0 88.8227 15.5959   1
  -4   7   0 118.474 15.1380   2
   4   7   0 85.8296 10.0931   2
  -4   7   0 77.6475 14.8148   1
   5  -7   0 115.140 17.7330   1
  -5  -7   0 149.939 16.4929   1
  -5   7   0 97.0814 15.6809   2
  -5   7   0 94.2113 17.6354   1
   5   7   0 108.570 11.7295   2
   0  -8   0 300.166 25.4117   1
   0   8   0 291.873 22.4753   2
   1  -8   0 210.224 21.8587   1
  -1  -8   0 210.840 21.0543   1
  -1   8   0 188.959 18.9747   2
   1   8   0 199.269 18.0457   2
  -2  -8   0 79.9099 14.0187   1
   2  -8   0 106.130 16.6231   1
   2   8   0 117.920 13.6715   2
  -2   8   0 110.416 14.5680   2
  -3  -8   0 48.9714 11.0891   1
   3  -8   0 55.8636 14.0662   1
  -3   8   0 54.2057 12.3375   2
   3   8   0 50.7804 9.37178   2
   4  -8   0 9.23474 11.8302   1
  -4  -8   0 14.6316 9.73499   1
  -4   8   0 -3.0696 9.56398   2
   4   8   0 7.17828 7.17177   2
   0  -9   0 9.26131 11.4204   1
   0   9   0 5.23243 8.56274   2
   1  -9   0 19.0533 12.2713   1
  -1  -9   0 28.6818 12.3020   1
  -1   9   0 27.0295 10.3252   2
   1   9   0 9.87244 9.15046   2
  -2  -9   0 43.0913 12.5673   1
   2  -9   0 25.2806 13.6400   1
   2   9   0 35.5745 9.81556   2
  -2   9   0 17.5807 10.8905   2
   3  -9   0 27.0851 14.1675   1
  -3  -9   0 23.7116 11.6750   1
  -3   9   0 23.6387 11.9174   2
   3   9   0 38.4392 9.77446   2
  -8   0   1 33.1887 11.2529   1
  -7   0   1 138.554 15.9340   1
  -6   0   1 1525.81 83.6763   1
  -5   0   1 239.741 17.5077   1
   5   0  -1 225.261 16.1437   1
   4   0  -1 389.246 23.0241   1
  -4   0   1 384.023 23.6075   1
  -3   0   1 8.96008 3.83488   1
   3   0  -1 10.1346 3.57989   1
  -3   0   1 10.5801 3.77353   1
  -3   0   1 10.6248 3.51364   2
   2   0  -1 278.745 16.2592   1
  -2   0   1 284.356 16.4887   1
   2   0  -1 281.354 16.0341   2
  -2   0   1 275.147 16.0838   2
  -2   0   1 270.494 16.4272   1
  -1   0   1 704.045 36.7584   2
  -1   0   1 673.066 36.8346   1
  -1   0   1 732.188 36.9324   1
   1   0  -1 700.171 36.7366   2
   1   0  -1 695.831 36.8818   1
   1   0   1 3027.23 155.736   1
  -1   0  -1 3030.53 156.383   1
  -1   0  -1 2996.97 155.806   1
  -2   0  -1 3778.12 202.298   1
  -2   0  -1 3887.20 200.871   2
  -2   0  -1 4048.79 201.070   1
  -3   0  -1 1996.06 107.411   1
  -3   0  -1 2117.22 107.411   1
   4   0   1 1163.45 61.9980   1
  -4   0  -1 1150.90 62.9174   1
  -4   0  -1 1186.25 62.8642   1
  -5   0  -1 161.432 13.7367   1
   5   0   1 162.078 11.8073   1
  -5   0  -1 147.449 13.1717   1
  -6   0  -1 461.461 29.4311   1
  -7   0  -1 2.31117 7.08081   1
  -8   0  -1 10.5969 9.35492   1
  -8  -1   1 28.0112 10.4683   1
  -8   1   1 32.3994 11.3178   1
  -7  -1   1 14.8689 8.18912   1
  -7   1   1 15.6072 8.89742   1
  -6  -1   1 5.30713 5.83495   1
  -6   1   1 2.53494 6.50692   1
  -5  -1   1 149.838 12.9147   1
  -5  -1   1 139.336 12.4493   1
   5  -1  -1 156.147 12.8820   1
  -5   1   1 127.462 13.3500   1
   5   1  -1 115.834 10.8146   1
  -4  -1   1 70.3198 7.98481   1
  -4  -1   1 65.2897 7.70433   1
   4  -1  -1 60.2066 7.54963   1
   4   1  -1 57.1291 6.70745   2
  -4   1   1 59.2593 8.07875   1
  -3  -1   1 495.326 27.4786   1
   3  -1  -1 503.649 27.9293   1
  -3  -1   1 524.113 27.5946   1
  -3   1   1 461.512 27.9872   1
  -3   1   1 468.799 28.3641   2
   3   1  -1 464.138 26.9228   2
  -2  -1   1 3966.83 200.047   1
  -2  -1   1 3826.99 199.819   2
  -2  -1   1 3790.17 199.980   1
   2  -1  -1 3807.29 200.448   1
  -2   1   1 3869.68 200.220   2
  -2   1   1 3891.51 200.554   1
   2   1  -1 3926.90 201.324   2
  -2   1   1 3966.06 201.317   1
   1  -1  -1 2118.65 112.194   1
  -1  -1   1 1975.13 111.794   1
  -1  -1   1 2114.32 111.840   1
  -1  -1   1 2041.19 111.690   2
   1   1  -1 2151.54 111.796   1
   1   1  -1 2285.89 111.817   1
  -1   1   1 2227.87 112.211   1
  -1   1   1 2319.81 112.275   1
   1   1  -1 2243.36 113.047   2
   0   1  -1 560.600 28.9845   1
   0   1   1 531.492 28.5564   1
   0   1  -1 539.580 28.9580   1
   0   1  -1 556.694 28.8002   2
   1  -1   1 8682.42 485.590   1
   1  -1   1 9388.15 485.266   1
  -1   1  -1 9999.99 486.126   2
  -1   1  -1 9409.39 485.184   1
  -1   1  -1 9418.73 485.510   1
  -2  -1  -1 1824.74 91.4929   1
  -2  -1  -1 1804.01 91.4684   1
   2  -1   1 1709.63 92.3195   1
  -2  -1  -1 1813.41 91.4403   2
  -2   1  -1 1777.82 92.4661   1
   2   1   1 1721.10 91.3154   2
  -2   1  -1 1735.63 92.4928   1
  -3  -1  -1 56.8753 5.64990   1
  -3  -1  -1 55.3770 5.94742   2
   3  -1   1 55.8918 6.53364   1
  -3  -1  -1 53.4939 5.98767   1
  -3   1  -1 52.6960 6.53552   1
  -3   1  -1 53.0724 6.47786   1
  -4  -1  -1 147.209 10.9330   1
   4  -1   1 147.064 11.3879   1
  -4  -1  -1 138.481 11.0348   1
  -4   1  -1 149.403 12.2269   1
  -5  -1  -1 150.625 12.8819   1
   5  -1   1 159.082 12.8244   1
  -5  -1  -1 159.528 12.8609   1
  -5   1  -1 148.141 13.9925   1
  -6  -1  -1 126.821 13.6787   1
  -6   1  -1 176.074 15.3301   1
  -7  -1  -1 222.701 19.0327   1
  -7   1  -1 222.233 19.9494   1
  -8  -1  -1 113.449 15.5519   1
  -8   1  -1 136.095 17.6369   1
  -8  -2   1 51.2008 12.1925   1
  -8   2   1 52.0977 12.9035   1
  -7  -2   1 193.202 17.9906   1
  -7   2   1 182.979 19.1292   1
  -6  -2   1 365.998 25.1168   1
  -6   2   1 386.223 26.5273   1
   5  -2  -1 548.293 34.9137   1
  -5  -2   1 526.638 33.7289   1
   5   2  -1 600.692 32.9840   2
  -5   2   1 625.804 35.6239   1
  -4  -2   1 842.562 45.5485   1
  -4  -2   1 867.364 45.6642   1
   4  -2  -1 866.597 46.6473   1
   4   2  -1 793.099 44.5920   2
   4   2  -1 771.562 44.0418   1
  -4   2   1 805.149 46.5388   1
  -3  -2   1 78.5084 7.81770   1
   3  -2  -1 88.3238 9.32077   1
  -3  -2   1 82.7369 7.44362   1
  -2  -2   1 200.859 11.6480   1
  -2  -2   1 189.282 11.7572   1
   2  -2  -1 181.417 12.6921   1
  -2  -2   1 192.095 11.2034   2
  -2   2   1 155.686 12.2112   1
   2   2  -1 161.869 11.1782   2
  -1  -2   1 232.358 14.2866   1
  -1  -2   1 237.941 13.8229   2
  -1  -2   1 240.247 14.1350   1
   1  -2  -1 227.335 14.7225   1
  -1   2   1 227.877 14.4746   1
   1   2  -1 256.218 13.9076   2
   1   2  -1 240.535 13.9615   1
   0  -2   1 4457.33 237.559   2
   0  -2   1 4298.02 236.368   1
   0  -2  -1 4460.96 236.127   1
   0  -2  -1 4544.64 236.767   2
   0  -2   1 4650.98 238.219   1
   0  -2  -1 4752.41 237.296   1
   0   2  -1 4849.32 236.542   1
   0   2  -1 4533.27 238.702   2
   0   2   1 4630.49 237.006   1
   0   2   1 4746.52 237.108   2
   1  -2   1 2397.31 134.244   1
  -1  -2  -1 2669.30 133.263   1
  -1  -2  -1 2472.49 133.191   1
  -1  -2  -1 2573.87 133.160   2
   1  -2   1 2481.38 133.983   2
   1   2   1 2625.83 133.138   2
  -1   2  -1 2732.56 134.128   2
  -1   2  -1 2752.89 134.675   1
   2  -2   1 256.727 16.8747   1
  -2  -2  -1 255.662 15.1112   1
  -2  -2  -1 237.449 14.9294   2
  -2  -2  -1 254.119 15.1461   1
   2   2   1 307.483 15.1140   2
  -2   2  -1 301.149 16.5981   2
  -2   2  -1 317.221 17.1913   1
  -3  -2  -1 657.633 36.7865   1
   3  -2   1 657.993 38.3281   1
  -3  -2  -1 685.423 36.8638   1
  -3   2  -1 708.170 38.5000   1
   3   2   1 714.933 36.4481   2
  -4  -2  -1 1646.61 85.8014   1
   4  -2   1 1692.96 87.2872   1
  -4  -2  -1 1586.20 85.7995   1
  -4   2  -1 1583.33 87.2628   1
  -5  -2  -1 281.794 19.0451   1
   5  -2   1 287.528 20.1751   1
  -5  -2  -1 263.785 18.6850   1
  -5   2  -1 316.702 21.1654   1
  -6  -2  -1 172.528 14.9179   1
  -6   2  -1 182.393 16.8508   1
  -7  -2  -1 53.1049 9.66780   1
  -7   2  -1 47.6348 10.8287   1
  -8  -2  -1 5.06000 8.65613   1
  -8   2  -1 -2.3286 9.26887   1
  -7  -3   1 16.6773 8.18890   1
  -7   3   1 6.71963 9.27073   1
  -6  -3   1 6.55307 6.46072   1
  -6   3   1 5.31611 7.74336   1
   5  -3  -1 27.2484 8.32079   1
  -5  -3   1 29.9065 7.44170   1
   5   3  -1 16.1593 5.30337   2
  -5   3   1 14.7552 7.70759   1
   4  -3  -1 170.725 15.4082   1
  -4  -3   1 155.553 13.0228   1
  -4  -3   1 155.166 13.4147   1
   4   3  -1 206.990 12.8309   2
  -4   3   1 191.621 15.4529   1
  -3  -3   1 1324.14 66.9224   1
  -3  -3   1 1244.91 66.7415   1
   3  -3  -1 1348.07 68.4529   1
  -3   3   1 1225.72 67.9047   1
   3   3  -1 1188.46 66.0808   2
   3   3  -1 1183.77 65.5604   1
  -2  -3   1 922.807 49.2572   1
   2  -3  -1 916.550 50.2318   1
  -2  -3   1 940.406 49.2709   1
   2   3  -1 908.243 48.5054   1
   2   3  -1 891.147 48.6982   2
  -2   3   1 905.929 49.9871   1
  -1  -3   1 744.120 40.7656   1
   1  -3  -1 713.178 41.0618   1
  -1  -3   1 755.877 40.6749   1
  -1  -3   1 700.612 40.1519   2
   1   3  -1 773.868 40.4340   1
   1   3  -1 776.525 40.2738   2
  -1   3   1 763.379 41.2262   1
  -1   3   1 764.036 40.5796   2
   0  -3  -1 2507.56 131.944   2
   0  -3  -1 2557.67 132.434   1
   0  -3   1 2476.01 132.624   1
   0  -3  -1 2463.18 132.290   1
   0  -3   1 2552.39 132.247   2
   0  -3   1 2607.93 132.787   1
   0   3   1 2606.33 132.223   1
   0   3   1 2521.51 131.921   2
   0   3  -1 2600.76 132.673   1
   0   3  -1 2573.90 132.260   2
   1  -3   1 3501.32 176.072   2
  -1  -3  -1 3453.24 175.445   1
  -1  -3  -1 3344.81 175.318   1
  -1  -3  -1 3388.81 175.116   2
   1  -3   1 3408.04 176.440   1
  -1   3  -1 3345.92 176.026   2
  -1   3  -1 3368.86 176.636   1
   1   3   1 3397.96 174.787   1
   1   3   1 3375.46 175.071   2
  -2   3  -1 355.586 22.0387   1
  -2   3  -1 348.456 21.5011   2
   2   3   1 366.136 19.9499   2
  -2   3  -1 372.736 22.7349   1
  -3  -3  -1 359.553 20.7141   1
  -3  -3  -1 364.268 20.5987   1
   3  -3   1 379.633 23.1500   1
   3   3   1 335.880 19.9088   2
  -3   3  -1 367.450 22.8779   1
  -3   3  -1 352.343 21.9191   2
  -4  -3  -1 87.9467 8.76964   1
   4  -3   1 88.7211 10.6235   1
  -4  -3  -1 69.9848 7.90135   1
  -4   3  -1 84.5174 9.84710   2
  -4   3  -1 85.2193 10.6636   1
   4   3   1 80.0719 7.35772   2
  -5  -3  -1 230.195 16.3471   1
   5  -3   1 223.409 18.2912   1
  -5   3  -1 209.692 17.2603   2
  -5   3  -1 226.347 18.7781   1
  -6  -3  -1 44.1553 8.11800   1
  -6   3  -1 44.2722 9.94778   1
  -6   3  -1 45.2844 9.36955   2
  -7  -3  -1 73.6650 11.0188   1
  -7   3  -1 77.1932 13.6588   1
  -7  -4   1 176.744 18.1726   1
  -7   4   1 179.377 21.5598   1
  -6  -4   1 365.092 25.2737   1
  -6   4   1 340.665 25.6103   2
   6   4  -1 373.129 23.0509   2
  -6   4   1 355.295 27.4519   1
   5  -4  -1 261.940 22.2447   1
  -5  -4   1 243.957 20.0588   1
   5   4  -1 322.387 18.9336   2
  -5   4   1 302.927 22.6665   1
  -5   4   1 286.400 21.3005   2
   4  -4  -1 531.716 32.2974   1
  -4  -4   1 446.859 29.2595   1
  -4  -4   1 491.415 29.8289   1
  -4   4   1 498.516 30.8213   2
   4   4  -1 512.528 28.7375   2
  -4   4   1 501.132 31.7144   1
  -3  -4   1 107.168 9.41878   1
   3  -4  -1 100.230 12.1560   1
  -3  -4   1 106.044 10.2276   1
   3   4  -1 73.1608 8.56001   2
  -3   4   1 70.9656 9.34349   2
  -3   4   1 76.1642 10.1200   1
   2  -4  -1 236.100 16.3162   1
  -2  -4   1 236.735 14.8528   1
  -2  -4   1 234.735 14.5226   1
   2   4  -1 195.244 13.7148   2
  -2   4   1 210.317 15.2586   1
  -2   4   1 187.214 14.5139   2
  -2   4   1 198.809 15.9059   1
   2   4  -1 194.817 13.3472   1
  -1  -4   1 66.6678 7.76671   1
   1  -4  -1 55.7771 7.53312   1
  -1  -4   1 59.6428 7.39018   1
   1   4  -1 70.0941 7.01773   1
  -1   4   1 69.8214 7.57572   2
  -1   4   1 60.1955 7.84708   1
   1   4  -1 61.0794 6.82250   2
   0  -4  -1 402.140 24.6528   1
   0  -4   1 384.455 24.8324   1
   0  -4  -1 413.779 24.7547   1
   0   4  -1 414.444 24.2810   2
   0   4   1 434.910 24.1298   2
   0   4   1 450.641 24.4556   1
   0   4  -1 423.900 24.7134   1
   1  -4   1 1060.82 63.6943   1
  -1  -4  -1 1096.28 62.7936   1
  -1  -4  -1 1134.62 62.8020   1
   1   4   1 1216.52 62.3520   2
   1   4   1 1247.77 62.1361   1
  -1   4  -1 1238.84 64.2285   1
  -1   4  -1 1252.18 63.5068   2
  -2  -4  -1 97.8353 8.71497   1
   2  -4   1 95.2327 10.6119   1
  -2  -4  -1 86.0473 7.76651   1
   2   4   1 90.0441 7.54876   2
  -2   4  -1 85.6047 9.32797   2
  -2   4  -1 88.9290 10.9329   1
  -3  -4  -1 373.914 22.1232   1
  -3  -4  -1 360.795 21.7799   1
   3  -4   1 369.424 24.5991   1
  -3   4  -1 378.133 24.3746   1
  -3   4  -1 381.017 25.3177   1
   3   4   1 361.432 21.0132   2
  -3   4  -1 360.726 23.4403   2
  -4  -4  -1 684.002 40.4165   1
   4  -4   1 715.605 43.4526   1
  -4  -4  -1 729.373 40.7660   1
  -4   4  -1 752.313 43.7035   1
   4   4   1 764.200 39.5647   2
  -4   4  -1 734.879 42.3677   2
   5  -4   1 125.149 15.6327   1
  -5  -4  -1 131.115 13.7861   1
  -5   4  -1 198.456 17.5152   1
   5   4   1 210.220 12.4933   2
  -5   4  -1 190.471 15.7890   2
  -6  -4  -1 122.490 13.1756   1
  -6   4  -1 99.9134 12.8908   2
  -6   4  -1 119.037 15.5256   1
  -7  -4  -1 86.5521 11.7162   1
  -7   4  -1 79.2889 14.7890   1
  -7  -5   1 12.3041 9.04632   1
  -7   5   1 18.8525 11.7948   1
  -6  -5   1 22.0516 8.72313   1
  -6   5   1 25.7395 10.8850   1
  -6   5   1 20.8668 8.89408   2
   6   5  -1 27.7858 6.70517   2
  -5  -5   1 0.33254 6.03656   1
   5  -5  -1 -1.3558 8.01032   1
   5   5  -1 6.02823 5.46434   2
  -5   5   1 -2.9731 7.46183   1
  -5   5   1 -0.9957 6.53953   2
   4  -5  -1 136.762 16.2428   1
  -4  -5   1 137.124 13.5250   1
   4   5  -1 116.961 11.5795   2
  -4   5   1 121.693 15.4989   1
  -4   5   1 128.562 15.0121   1
  -4   5   1 130.258 13.8085   2
  -3  -5   1 223.330 17.5344   1
   3  -5  -1 265.822 20.6484   1
  -3  -5   1 240.809 17.9629   1
  -3   5   1 248.307 18.3774   2
   3   5  -1 238.646 16.3919   2
  -3   5   1 235.852 20.5701   1
  -3   5   1 246.991 19.2084   1
   2  -5  -1 1024.90 59.3677   1
  -2  -5   1 965.752 57.8671   1
  -2  -5   1 1084.18 58.3415   1
  -2   5   1 1088.58 59.6916   1
  -2   5   1 1028.70 58.3556   2
   2   5  -1 1122.65 57.4083   2
   2   5  -1 1087.60 56.9305   1
   1  -5  -1 1011.68 56.8117   1
  -1  -5   1 1029.15 56.5610   1
  -1   5   1 1038.29 56.5968   1
  -1   5   1 1042.62 55.9365   2
   1   5  -1 1000.03 55.3981   2
   1   5  -1 1001.94 55.4862   1
   0  -5  -1 311.335 19.0960   1
   0  -5   1 325.916 19.8580   1
   0   5  -1 264.585 17.9026   2
   0   5  -1 246.275 18.2558   1
   0   5   1 268.504 17.7025   2
   0   5   1 241.281 17.5093   1
   1  -5   1 1068.56 57.3155   1
  -1  -5  -1 1014.29 55.9001   1
  -1  -5  -1 1028.84 56.0306   1
   1   5   1 998.118 54.6650   1
   1   5   1 1030.54 55.0598   2
  -1   5  -1 1007.25 57.0829   1
  -1   5  -1 1007.07 56.2361   2
   2  -5   1 481.884 32.0960   1
  -2  -5  -1 489.116 30.3975   1
  -2  -5  -1 438.498 29.7264   1
  -2   5  -1 593.633 31.7891   2
   2   5   1 553.843 29.4302   2
  -2   5  -1 569.752 32.8563   1
  -3  -5  -1 16.6086 4.89823   1
  -3  -5  -1 11.5681 5.70405   1
   3  -5   1 19.1285 7.89949   1
  -3   5  -1 20.9307 7.14721   2
   3   5   1 28.0587 5.29869   2
  -3   5  -1 32.5775 9.19676   1
  -4  -5  -1 109.139 11.7478   1
   4  -5   1 122.066 15.0606   1
  -4   5  -1 121.954 14.4712   1
  -4   5  -1 106.453 13.0104   2
   4   5   1 109.389 9.50287   2
  -4   5  -1 113.840 15.3436   1
  -5  -5  -1 41.8243 8.09108   1
   5  -5   1 48.8069 11.1275   1
  -5   5  -1 41.9280 12.0947   1
   5   5   1 44.3186 5.90335   2
  -5   5  -1 31.6837 9.28586   2
  -5   5  -1 36.5094 10.7491   1
  -6  -5  -1 123.697 14.1425   1
  -6   5  -1 134.146 15.9926   2
  -6   5  -1 107.659 17.9193   1
  -6   5  -1 130.283 16.9312   1
  -7  -5  -1 74.8015 11.8037   1
  -7   5  -1 69.6653 17.4326   1
  -7   5  -1 101.349 16.5472   1
  -6  -6   1 157.589 18.1654   1
  -6   6   1 150.877 21.5268   1
  -6   6   1 179.484 21.4224   1
  -6   6   1 154.005 18.6718   2
   6   6  -1 176.875 14.3216   2
   5  -6  -1 187.539 21.5818   1
  -5  -6   1 187.430 17.6420   1
  -5   6   1 192.719 19.8449   1
  -5   6   1 171.676 21.8349   1
  -5   6   1 174.990 18.9871   2
   5   6  -1 192.365 15.2288   2
  -4  -6   1 132.900 14.4558   1
   4  -6  -1 133.505 16.8150   1
  -4   6   1 113.289 14.3544   2
  -4   6   1 108.938 15.8055   1
   4   6  -1 117.758 12.1164   2
  -3  -6   1 287.176 21.8778   1
   3  -6  -1 305.320 24.3406   1
  -3   6   1 316.305 24.2435   1
  -3   6   1 293.270 22.4436   2
   3   6  -1 304.438 20.2093   2
  -2  -6   1 63.1447 9.81613   1
   2  -6  -1 77.4861 11.8099   1
  -2   6   1 49.7356 9.14117   2
   2   6  -1 52.6773 8.31144   2
  -2   6   1 47.1700 9.63806   1
  -1  -6   1 76.2889 11.0276   1
   1  -6  -1 74.4886 11.0111   1
  -1   6   1 63.3023 9.75299   1
  -1   6   1 69.7651 9.61257   2
   1   6  -1 71.7177 9.11424   2
   1   6  -1 67.4001 8.61468   1
   0  -6   1 76.9431 10.8566   1
   0  -6  -1 65.1134 9.96887   1
   0   6  -1 58.3969 8.87868   2
   0   6   1 59.2812 8.45133   2
   0   6   1 59.9492 8.52535   1
   0   6  -1 48.7985 8.31693   1
   1  -6   1 183.431 18.8569   1
  -1  -6  -1 208.248 17.5873   1
  -1   6  -1 240.320 18.7803   1
   1   6   1 255.124 16.6522   2
  -1   6  -1 254.060 18.2387   2
  -2  -6  -1 80.9836 10.6123   1
   2  -6   1 82.0644 12.6728   1
  -2   6  -1 76.2753 12.0813   1
   2   6   1 94.8381 10.0299   2
  -2   6  -1 97.8718 11.7406   2
   3  -6   1 193.964 19.3824   1
  -3  -6  -1 192.587 16.1002   1
   3   6   1 198.901 14.3622   2
  -3   6  -1 209.146 18.0628   2
  -3   6  -1 187.645 19.3153   1
  -4  -6  -1 276.642 20.1385   1
   4  -6   1 286.087 24.0698   1
  -4   6  -1 285.574 22.7373   2
  -4   6  -1 258.090 24.4111   1
   4   6   1 274.109 17.9145   2
   5  -6   1 76.2092 14.0141   1
  -5  -6  -1 70.6302 10.4390   1
  -5   6  -1 74.5210 12.9659   2
  -5   6  -1 80.0538 15.0633   1
  -6  -6  -1 70.9108 11.2698   1
  -6   6  -1 32.2014 14.4814   1
  -6   6  -1 61.2783 13.9168   2
   5  -7  -1 35.9990 12.2444   1
  -5  -7   1 27.2962 9.72090   1
  -5   7   1 16.4428 11.8052   1
  -5   7   1 43.5633 11.6903   2
   5   7  -1 17.8864 7.23660   2
   4  -7  -1 179.023 21.8309   1
  -4  -7   1 173.076 18.0949   1
  -4   7   1 146.800 19.5700   1
   4   7  -1 178.915 15.7822   2
  -4   7   1 191.345 20.1958   2
   3  -7  -1 19.9773 10.1629   1
  -3  -7   1 23.7607 8.99313   1
  -3   7   1 23.7898 10.2173   1
  -3   7   1 30.0898 9.42718   2
   3   7  -1 19.6514 7.17634   2
  -2  -7   1 278.402 22.3123   1
   2  -7  -1 286.577 23.8260   1
   2   7  -1 261.959 19.9303   2
  -2   7   1 278.395 26.6418   1
  -2   7   1 297.926 22.1971   2
   1  -7  -1 607.415 38.8009   1
  -1  -7   1 606.539 38.3328   1
  -1   7   1 609.622 36.9908   2
   1   7  -1 594.231 36.1756   2
   0  -7  -1 130.821 15.6971   1
   0  -7   1 118.965 14.9956   1
   0   7   1 114.442 12.9489   2
   0   7  -1 133.638 13.7709   2
  -1  -7  -1 486.901 31.6377   1
   1  -7   1 502.508 33.3079   1
  -1   7  -1 503.845 31.3838   2
   1   7   1 465.292 29.4134   2
  -1   7  -1 459.840 31.3577   1
  -2  -7  -1 423.890 29.2497   1
   2  -7   1 428.254 31.1783   1
   2   7   1 450.923 27.0986   2
  -2   7  -1 428.727 30.7207   1
  -2   7  -1 448.154 29.8473   2
   3  -7   1 46.0080 11.8408   1
  -3  -7  -1 45.5878 9.09605   1
  -3   7  -1 11.4016 9.73448   1
  -3   7  -1 20.4726 9.42665   2
   3   7   1 13.5113 6.51168   2
  -4  -7  -1 9.32691 7.74513   1
   4  -7   1 14.5626 10.8307   1
   4   7   1 17.3882 6.13220   2
  -4   7  -1 2.06510 9.78020   1
  -4   7  -1 5.95990 8.89203   2
  -5  -7  -1 10.2235 7.96815   1
   5  -7   1 -1.4759 9.86736   1
  -5   7  -1 -0.0939 9.27858   2
  -5   7  -1 1.23765 11.4223   1
  -4  -8   1 87.3647 14.1705   1
   4  -8  -1 94.4362 17.6566   1
   4   8  -1 115.632 13.0614   2
  -4   8   1 101.986 16.2362   2
  -3  -8   1 20.9224 10.0457   1
   3  -8  -1 31.0737 13.2116   1
  -3   8   1 40.5990 11.1054   2
   3   8  -1 25.3850 8.59209   2
   2  -8  -1 20.0820 11.1871   1
  -2  -8   1 22.2957 10.0121   1
  -2   8   1 14.3283 9.19934   2
   2   8  -1 32.1252 8.61913   2
   1  -8  -1 -0.9985 9.20484   1
  -1  -8   1 -2.8448 8.87933   1
   1   8  -1 -1.3640 7.11993   2
  -1   8   1 7.50137 8.07753   2
   0  -8   1 10.0103 9.99379   1
   0  -8  -1 6.88683 9.28687   1
   0   8   1 9.11146 7.79896   2
  -1  -8  -1 125.471 16.0121   1
   1  -8   1 93.9781 15.6998   1
   1   8   1 127.089 14.3587   2
  -1   8  -1 119.430 14.9964   2
   2  -8   1 157.334 19.1326   1
  -2  -8  -1 153.531 17.9904   1
   2   8   1 101.377 12.3963   2
  -2   8  -1 104.864 15.7254   2
   3  -8   1 146.847 19.7599   1
  -3  -8  -1 157.805 18.0788   1
  -3   8  -1 152.115 18.2670   2
   3   8   1 144.144 14.5052   2
   4  -8   1 94.9431 17.5639   1
  -4  -8  -1 86.8516 13.2721   1
   4   8   1 90.7479 10.5274   2
  -4   8  -1 114.599 16.5634   2
  -3  -9   1 42.1779 13.2140   1
   3  -9  -1 55.4346 16.1809   1
  -3   9   1 44.0916 13.7670   2
   3   9  -1 34.9299 10.2818   2
   2  -9  -1 119.191 19.0496   1
  -2  -9   1 123.933 17.4439   1
  -2   9   1 125.541 16.7047   2
   2   9  -1 126.191 15.1919   2
   1  -9  -1 112.248 18.0129   1
  -1  -9   1 127.767 18.3667   1
   1   9  -1 136.267 15.9138   2
  -1   9   1 176.885 18.2840   2
   0  -9   1 148.646 19.4090   1
   0  -9  -1 137.037 18.7760   1
   0   9  -1 156.433 17.4733   2
   0   9   1 135.136 16.0441   2
   1  -9   1 76.1687 16.2924   1
  -1  -9  -1 73.8721 14.8694   1
   1   9   1 91.4281 12.7353   2
  -1   9  -1 81.4662 14.0900   2
   2  -9   1 93.5596 17.3605   1
  -2  -9  -1 86.5648 15.3274   1
   2   9   1 83.3231 12.0029   2
  -2   9  -1 84.9575 14.9930   2
  -8   0   2 36.1445 11.9060   1
  -7   0   2 39.7287 10.2036   1
  -6   0   2 2.24777 6.36867   1
   5   0  -2 291.826 19.5635   1
  -5   0   2 300.258 20.8331   1
   4   0  -2 802.217 43.3800   1
  -4   0   2 752.260 43.4805   1
  -3   0   2 1303.97 69.6871   2
   3   0  -2 1331.68 69.8093   1
  -3   0   2 1316.71 69.9772   1
   3   0  -2 1301.67 69.5157   2
  -2   0   2 560.907 30.5454   1
   2   0  -2 566.961 30.4624   1
  -2   0   2 540.585 30.1716   2
   2   0  -2 537.747 30.1257   2
  -2   0   2 558.364 30.5534   1
  -1   0   2 19.0939 3.17068   1
   1   0  -2 18.4999 3.01571   1
  -1   0   2 17.9037 2.76100   2
   1   0  -2 16.2142 2.97508   1
   1   0  -2 15.5226 2.63270   2
  -1   0   2 15.1058 2.76191   1
   0   0  -2 2248.87 119.123   1
   0   0  -2 2390.73 120.451   1
   0   0   2 2401.75 119.642   1
   0   0   2 2231.14 119.535   1
  -1   0  -2 232.673 12.5852   1
   1   0   2 229.039 12.4741   1
  -1   0  -2 239.425 12.5564   2
   1   0   2 212.358 12.4380   2
  -1   0  -2 236.388 12.6991   1
   1   0   2 233.239 12.4540   1
  -2   0  -2 56.0974 5.11113   1
   2   0   2 56.6664 4.76441   1
  -2   0  -2 59.6384 5.37104   1
  -3   0  -2 254.695 15.3190   1
  -3   0  -2 244.608 15.4241   1
   3   0   2 257.580 14.7153   1
  -4   0  -2 113.422 9.89803   1
   4   0   2 109.132 8.34761   1
  -4   0  -2 106.197 9.52363   1
  -5   0  -2 702.412 39.3686   1
  -5   0  -2 666.197 39.3850   1
  -6   0  -2 195.915 16.2911   1
  -7   0  -2 89.0768 12.3284   1
  -8   0  -2 138.869 16.9551   1
  -8  -1   2 112.997 16.4913   1
  -8   1   2 149.242 18.7268   1
  -7  -1   2 191.602 18.8385   1
  -7   1   2 235.291 20.3181   1
  -6  -1   2 289.801 20.4924   1
  -6   1   2 230.558 20.5745   1
   5  -1  -2 657.991 39.8705   1
  -5  -1   2 700.217 39.9800   1
  -5   1   2 699.589 40.6772   1
   5   1  -2 685.294 38.8993   2
  -4  -1   2 543.116 32.6492   1
  -4  -1   2 570.424 32.6516   1
   4  -1  -2 541.209 32.7853   1
   4   1  -2 585.097 32.0922   1
   4   1  -2 556.973 31.9424   2
  -4   1   2 591.911 33.3831   1
  -3  -1   2 76.0127 8.05309   1
   3  -1  -2 79.2870 8.99981   1
  -3  -1   2 81.9847 8.66596   1
  -3   1   2 110.592 8.77694   2
  -3   1   2 108.809 9.56632   1
   3   1  -2 110.950 8.23616   2
   3   1  -2 112.590 8.40106   1
  -2  -1   2 46.0422 5.61187   1
  -2  -1   2 48.2727 5.27855   2
   2  -1  -2 43.4493 5.60924   1
  -2  -1   2 46.6188 5.64318   1
  -2   1   2 52.7246 5.67468   2
   2   1  -2 49.3845 5.55169   1
   2   1  -2 43.8362 5.26203   2
  -2   1   2 57.5673 6.63760   1
   1  -1  -2 1290.06 62.7883   2
  -1  -1   2 1233.74 62.8937   1
  -1  -1   2 1214.18 62.8203   1
  -1  -1   2 1212.91 62.6507   2
   1  -1  -2 1198.15 62.9872   1
   1  -1  -2 1227.83 62.9704   1
   1   1  -2 1137.23 62.5845   2
  -1   1   2 1154.18 62.6784   2
  -1   1   2 1117.72 62.8526   1
   1   1  -2 1202.86 62.7852   1
   0  -1   2 1209.37 66.6694   1
   0  -1  -2 1127.42 66.0723   1
   0  -1   2 1228.55 66.6967   1
   0  -1  -2 1211.08 66.0919   2
   0  -1  -2 1255.57 66.1708   1
   0  -1   2 1206.86 66.4839   2
   0   1  -2 1376.89 66.8557   1
   0   1  -2 1465.45 66.6412   2
   0   1   2 1440.46 66.1122   1
   1  -1   2 3859.01 198.775   1
   1  -1   2 3948.27 201.059   2
  -1   1  -2 4050.54 200.595   1
  -1   1  -2 3677.74 198.591   1
  -1   1  -2 3711.85 198.761   1
  -1   1  -2 3927.47 200.843   2
  -2  -1  -2 724.689 39.3389   1
   2  -1   2 684.878 40.4451   1
  -2  -1  -2 720.425 39.3929   2
  -2  -1  -2 667.598 39.2563   1
  -2   1  -2 830.912 40.7894   1
  -2   1  -2 847.711 40.9878   1
  -2   1  -2 834.282 40.4731   2
  -3  -1  -2 2662.57 133.008   1
   3  -1   2 2620.77 133.688   1
  -3  -1  -2 2681.69 132.873   1
  -3  -1  -2 2696.24 133.330   2
  -3   1  -2 2372.30 133.897   1
  -3   1  -2 2366.84 133.761   1
   4  -1   2 625.998 35.6461   1
  -4  -1  -2 615.900 35.3371   1
  -4  -1  -2 612.464 35.2356   1
  -4   1  -2 661.034 36.3977   1
  -4   1  -2 677.435 36.6014   1
  -5  -1  -2 499.892 29.9161   1
  -5  -1  -2 523.088 29.9511   1
  -5   1  -2 496.330 30.7655   1
  -6  -1  -2 16.9088 6.49835   1
  -6   1  -2 28.0727 7.64078   1
  -7  -1  -2 30.3187 8.64338   1
  -7   1  -2 38.5938 9.84837   1
  -8  -1  -2 0.66901 8.23644   1
  -8   1  -2 9.54019 9.49726   1
  -8  -2   2 27.3382 11.0149   1
  -8   2   2 28.1445 11.8724   1
  -7  -2   2 6.82024 7.86647   1
  -7   2   2 11.3706 8.84022   1
  -6  -2   2 94.0864 11.8126   1
  -6   2   2 98.8307 13.2768   1
   5  -2  -2 265.311 20.9062   1
  -5  -2   2 290.172 20.7072   1
   5   2  -2 306.246 19.4015   2
  -5   2   2 310.191 22.0042   1
   4  -2  -2 360.696 22.2902   1
  -4  -2   2 321.105 20.6821   1
  -4  -2   2 342.233 21.2210   1
   4   2  -2 309.431 19.4421   1
  -4   2   2 334.868 22.1432   1
   4   2  -2 308.416 19.9148   2
  -3  -2   2 225.854 14.4442   1
   3  -2  -2 227.523 15.2984   1
  -3  -2   2 214.706 14.2096   1
   3   2  -2 197.047 13.5371   2
  -3   2   2 201.127 15.1698   1
   2  -2  -2 2846.68 142.369   1
  -2  -2   2 2737.77 141.681   1
  -2  -2   2 2773.38 141.320   2
  -2  -2   2 2789.72 141.724   1
  -2   2   2 2579.40 141.669   2
   2   2  -2 2618.63 141.299   1
  -2   2   2 2710.76 142.133   1
   2   2  -2 2760.10 141.355   2
  -1  -2   2 1831.06 93.3639   1
  -1  -2   2 1791.58 93.3429   1
   1  -2  -2 1889.55 93.6197   1
  -1  -2   2 1858.01 93.0555   2
   1  -2  -2 1769.38 93.3584   1
   1   2  -2 1723.60 93.1318   1
  -1   2   2 1679.74 93.1318   1
   1   2  -2 1754.67 92.9513   2
   0  -2  -2 371.827 22.3485   1
   0  -2   2 422.383 23.4409   1
   0  -2   2 386.171 22.7856   2
   0  -2  -2 401.134 22.6352   1
   0  -2   2 388.881 23.3341   1
   0   2   2 507.590 22.5417   2
   1  -2   2 1234.36 59.8335   2
  -1  -2  -2 1203.69 58.5079   1
   1  -2   2 1158.53 60.2051   1
  -1  -2  -2 1265.08 58.5288   1
  -1  -2  -2 1186.55 58.5213   2
  -1   2  -2 1026.78 60.1162   1
   1   2   2 979.491 58.3783   2
  -1   2  -2 998.068 59.5641   2
   2  -2   2 449.424 23.4190   1
  -2   2  -2 365.754 22.9065   1
  -2   2  -2 371.144 22.5112   2
  -3  -2  -2 85.3067 6.60962   1
   3  -2   2 76.9206 8.48937   1
  -3  -2  -2 84.3826 6.41209   1
  -3   2  -2 85.1664 7.94709   2
  -3   2  -2 84.6693 8.96307   1
  -4  -2  -2 130.864 10.1471   1
   4  -2   2 134.282 11.8851   1
  -4  -2  -2 131.990 10.4550   1
  -4   2  -2 153.304 12.6070   1
  -4   2  -2 144.205 11.6018   2
  -5  -2  -2 41.6404 6.94738   1
  -5  -2  -2 40.5553 6.89464   1
   5  -2   2 45.6870 8.19396   1
  -5   2  -2 75.0462 9.77348   1
  -6  -2  -2 470.104 27.9672   1
  -6   2  -2 425.011 29.2809   1
  -7  -2  -2 169.073 15.8709   1
  -7   2  -2 167.158 18.3179   1
  -7  -3   2 143.779 16.7680   1
  -7   3   2 153.657 19.1727   1
  -6  -3   2 366.417 25.2932   1
   6   3  -2 370.115 23.6018   2
  -6   3   2 352.918 26.6239   1
  -5  -3   2 415.415 25.9306   1
   5  -3  -2 409.273 27.4668   1
  -5   3   2 387.222 27.2220   1
   5   3  -2 370.019 24.2029   2
  -4  -3   2 84.2992 10.2945   1
  -4  -3   2 86.1135 10.9682   1
   4  -3  -2 96.0522 11.9230   1
   4   3  -2 142.673 10.4992   2
   4   3  -2 128.914 9.33049   1
  -4   3   2 139.425 13.1464   1
   3  -3  -2 666.357 37.6869   1
  -3  -3   2 615.852 36.1338   1
  -3  -3   2 633.415 36.3249   1
  -3   3   2 661.457 37.2996   1
   3   3  -2 664.407 35.4394   1
   3   3  -2 629.463 35.6255   2
  -2  -3   2 138.213 10.1937   1
   2  -3  -2 132.517 11.3084   1
  -2  -3   2 125.594 10.3207   1
  -2   3   2 127.951 10.7746   1
   2   3  -2 120.761 9.43965   2
   2   3  -2 129.265 9.51385   1
  -1  -3   2 887.758 50.2162   1
  -1  -3   2 903.772 49.7719   2
   1  -3  -2 919.039 50.4874   1
  -1  -3   2 925.684 50.3406   1
  -1   3   2 1001.70 50.6492   1
   1   3  -2 973.650 50.1820   1
  -1   3   2 905.055 50.0172   1
  -1   3   2 964.232 50.0386   2
   1   3  -2 910.541 49.7368   2
   0   3  -2 139.053 9.69816   2
   0   3   2 130.801 8.91366   2
   0   3  -2 127.094 9.94138   1
  -1  -3  -2 1211.54 61.1588   2
  -1  -3  -2 1207.53 61.4790   1
  -1  -3  -2 1217.08 61.4845   1
   1  -3   2 1222.31 63.0912   1
   1  -3   2 1163.42 62.3390   2
   1   3   2 1114.95 61.0931   2
  -1   3  -2 1134.50 62.4138   2
  -1   3  -2 1100.94 62.9243   1
  -2  -3  -2 3500.14 187.707   2
   2  -3   2 3486.70 189.977   1
  -2  -3  -2 3731.08 187.971   1
  -2  -3  -2 3511.45 187.876   1
  -2   3  -2 3726.35 189.652   2
   2   3   2 3763.83 187.638   2
  -2   3  -2 3849.50 190.632   1
   3  -3   2 705.325 39.8350   1
  -3  -3  -2 708.407 37.2383   1
  -3  -3  -2 709.686 37.2244   1
  -3   3  -2 650.332 38.8993   2
  -3   3  -2 688.501 39.7587   1
   4  -3   2 159.169 14.6860   1
  -4  -3  -2 173.630 12.1834   1
  -4  -3  -2 171.936 12.0047   1
  -4   3  -2 170.021 13.8576   2
  -4   3  -2 182.534 15.2578   1
  -5  -3  -2 419.874 24.9084   1
   5  -3   2 436.237 27.5302   1
  -5   3  -2 397.091 26.1888   2
  -5   3  -2 396.588 27.4021   1
  -6  -3  -2 81.1702 10.1108   1
  -6   3  -2 103.420 13.1473   1
  -7  -3  -2 8.94428 6.98058   1
  -7   3  -2 -2.3867 8.23573   1
  -7  -4   2 6.96508 8.50621   1
  -7   4   2 -1.1843 9.42419   1
   6  -4  -2 9.19242 13.1117   1
  -6  -4   2 8.29616 7.32449   1
   6   4  -2 16.7341 6.31592   2
  -6   4   2 21.2937 9.55389   1
   5  -4  -2 338.200 25.1005   1
  -5  -4   2 324.543 23.3056   1
   5   4  -2 328.002 21.5021   2
  -5   4   2 348.146 25.0905   1
   4  -4  -2 345.391 24.8712   1
  -4  -4   2 339.911 22.8146   1
   4   4  -2 341.182 21.5982   2
  -4   4   2 353.717 24.5564   1
  -3  -4   2 203.001 16.3473   1
   3  -4  -2 222.684 17.8280   1
  -3  -4   2 209.757 15.9226   1
   3   4  -2 228.804 14.8216   1
   3   4  -2 250.395 15.6737   2
  -3   4   2 253.098 17.8187   1
  -2  -4   2 1179.72 63.2730   1
   2  -4  -2 1241.83 64.2975   1
  -2  -4   2 1299.74 63.5990   1
  -2   4   2 1108.70 63.4054   1
   2   4  -2 1128.16 62.5120   2
  -2   4   2 1133.92 63.1672   2
  -2   4   2 1095.31 64.0143   1
  -1  -4   2 1446.73 78.0809   1
   1  -4  -2 1401.66 77.9956   1
  -1   4   2 1480.48 77.4303   2
   1   4  -2 1452.14 77.2891   2
   1   4  -2 1533.63 77.7633   1
  -1   4   2 1439.13 77.9708   1
   0  -4   2 848.066 46.5141   1
   0  -4  -2 806.625 45.6918   1
   0  -4  -2 763.247 45.1043   1
   0  -4  -2 851.329 45.7448   1
   0   4   2 830.125 44.9827   2
   0   4  -2 877.345 46.2395   1
   0   4  -2 870.849 45.8364   2
  -1  -4  -2 442.065 22.8762   1
   1  -4   2 462.794 24.7434   1
  -1  -4  -2 459.194 22.8608   1
   1   4   2 356.234 21.8337   2
  -1   4  -2 332.823 23.0253   2
  -1   4  -2 352.069 24.1398   1
   1   4   2 337.662 21.0558   1
   2  -4   2 800.891 44.6104   1
  -2  -4  -2 775.653 42.1866   1
  -2  -4  -2 772.629 42.1142   1
   2   4   2 759.210 41.5198   2
  -2   4  -2 815.747 45.0606   1
  -2   4  -2 770.984 43.6598   2
  -3  -4  -2 2.93521 4.01314   1
  -3  -4  -2 2.51027 3.44543   1
   3  -4   2 3.05087 5.87885   1
  -3   4  -2 1.66406 6.14091   1
   3   4   2 8.35851 3.16003   2
  -3   4  -2 1.20578 5.11424   2
   4  -4   2 90.3059 12.1928   1
  -4  -4  -2 66.6752 8.31503   1
  -4  -4  -2 83.1739 8.65943   1
  -4   4  -2 80.0647 11.2955   1
  -4   4  -2 75.2880 12.1745   1
  -4   4  -2 86.7469 10.4835   2
   5  -4   2 16.0962 7.66358   1
  -5  -4  -2 21.3024 6.18627   1
  -5   4  -2 22.5576 7.35715   2
  -5   4  -2 30.9059 9.02364   1
  -6  -4  -2 72.8856 9.92011   1
  -6   4  -2 82.4173 13.1395   1
  -7  -4  -2 143.500 15.6718   1
  -7   4  -2 191.253 21.5907   1
  -7  -5   2 124.996 16.1254   1
  -7   5   2 125.070 18.6114   1
   7   5  -2 119.609 13.9998   2
  -6  -5   2 155.679 16.9169   1
  -6   5   2 145.859 17.9877   1
  -6   5   2 131.649 16.4269   2
   6   5  -2 157.339 14.1628   2
   5  -5  -2 312.541 26.2678   1
  -5  -5   2 327.694 23.9035   1
  -5   5   2 319.548 25.7985   1
  -5   5   2 357.942 25.0171   2
   5   5  -2 360.886 22.3538   2
  -4  -5   2 159.340 14.5733   1
   4  -5  -2 138.229 16.9049   1
  -4   5   2 109.467 13.5456   2
   4   5  -2 145.100 12.6971   2
  -4   5   2 125.432 15.9242   1
   3  -5  -2 44.8091 9.64307   1
  -3  -5   2 42.3630 8.32448   1
   3   5  -2 52.9880 7.56069   2
  -3   5   2 36.1786 9.58796   1
  -3   5   2 44.4444 8.01352   2
  -3   5   2 51.8707 9.11522   1
  -2  -5   2 3.19644 5.35927   1
   2  -5  -2 9.62604 6.55916   1
  -2   5   2 -2.5036 5.02950   2
   2   5  -2 2.11233 4.72094   2
   2   5  -2 -0.6977 0.94342   1
  -2   5   2 -0.4854 5.65862   1
  -1  -5   2 80.1204 10.1881   1
   1  -5  -2 91.9819 11.3182   1
  -1   5   2 99.1858 9.82592   2
  -1   5   2 92.3244 10.2513   1
   1   5  -2 88.3964 9.39468   2
   1   5  -2 84.0817 9.39748   1
   0  -5   2 633.019 37.7906   1
   0  -5  -2 616.861 37.0013   1
   0  -5  -2 606.602 36.2359   1
   0  -5  -2 601.734 36.7767   1
   0   5   2 669.052 36.1315   2
   0   5  -2 667.304 37.3702   1
   0   5  -2 697.408 37.0328   2
  -1  -5  -2 828.355 41.7674   1
  -1  -5  -2 757.417 41.5860   1
   1  -5   2 827.655 43.6139   1
   1   5   2 707.834 40.5431   2
   1   5   2 697.330 39.8792   1
  -1   5  -2 692.317 41.9078   2
  -1   5  -2 691.144 42.7967   1
  -2  -5  -2 1000.15 56.2348   1
   2  -5   2 979.122 58.4294   1
  -2  -5  -2 973.023 56.0380   1
  -2   5  -2 1120.45 59.2505   1
  -2   5  -2 1095.96 57.9669   2
   2   5   2 1067.39 55.3538   2
  -3  -5  -2 253.537 17.6524   1
   3  -5   2 321.245 22.4515   1
  -3  -5  -2 291.796 18.5360   1
  -3   5  -2 272.748 20.4913   2
   3   5   2 276.871 16.9464   2
  -3   5  -2 267.666 22.2806   1
  -4  -5  -2 219.521 16.1831   1
   4  -5   2 227.236 20.0192   1
  -4   5  -2 235.871 18.7575   2
  -4   5  -2 237.855 21.3172   1
   5  -5   2 216.453 20.5867   1
  -5  -5  -2 202.722 15.8728   1
  -5   5  -2 200.948 22.4009   1
  -5   5  -2 224.698 20.4227   1
  -5   5  -2 199.270 18.3114   2
  -6  -5  -2 40.2683 8.31908   1
  -6   5  -2 32.0828 12.7334   1
  -6   5  -2 32.9009 10.9387   1
  -6  -6   2 28.5293 10.4639   1
   6   6  -2 27.7215 7.69914   2
  -6   6   2 18.9642 13.0323   1
  -6   6   2 30.1446 11.6810   1
  -6   6   2 22.0189 10.0928   2
  -5  -6   2 70.7304 11.6347   1
   5  -6  -2 78.9273 14.5017   1
  -5   6   2 79.6897 12.4356   2
  -5   6   2 73.4096 14.7390   1
  -5   6   2 86.0691 14.1568   1
   5   6  -2 72.6344 10.0912   2
   4  -6  -2 114.916 16.2562   1
  -4  -6   2 122.002 14.4911   1
  -4   6   2 160.201 18.7674   1
  -4   6   2 153.188 16.4902   2
   4   6  -2 152.348 13.9568   2
   3  -6  -2 392.624 28.0701   1
  -3  -6   2 352.152 25.6451   1
  -3   6   2 397.980 26.5365   2
  -3   6   2 365.916 27.6134   1
   3   6  -2 391.686 24.4851   2
  -2  -6   2 653.758 35.7787   1
   2  -6  -2 638.675 36.8736   1
  -2   6   2 534.455 34.6267   2
  -2   6   2 516.709 35.2728   1
   2   6  -2 524.616 33.4784   2
   1  -6  -2 330.317 24.2600   1
  -1  -6   2 354.635 24.9699   1
   1   6  -2 360.174 22.9783   1
   1   6  -2 325.517 22.6559   2
  -1   6   2 349.524 23.5740   1
  -1   6   2 385.012 23.6079   2
   0  -6  -2 855.151 49.8808   1
   0  -6   2 917.868 51.2964   1
   0   6  -2 889.593 49.5569   2
   0   6   2 885.515 48.7965   2
   0   6  -2 827.579 49.6007   1
  -1  -6  -2 155.710 14.4312   1
   1  -6   2 167.041 16.5251   1
  -1   6  -2 145.928 14.4825   2
   1   6   2 136.251 12.2476   2
  -1   6  -2 131.388 15.1028   1
  -2  -6  -2 85.3675 10.5191   1
   2  -6   2 88.2409 13.1143   1
  -2   6  -2 93.0635 13.2480   1
  -2   6  -2 87.0670 11.7726   2
   2   6   2 84.3765 9.55133   2
   3  -6   2 282.003 23.1170   1
  -3  -6  -2 268.497 19.2124   1
  -3   6  -2 291.911 21.5420   2
  -3   6  -2 261.229 22.8801   1
   3   6   2 262.386 17.1959   2
   4  -6   2 32.3859 10.5115   1
  -4  -6  -2 19.6716 6.76121   1
  -4   6  -2 23.2921 10.4758   1
  -4   6  -2 35.0308 9.59700   2
   5  -6   2 47.1678 12.3803   1
  -5  -6  -2 59.3622 9.26713   1
  -5   6  -2 67.8880 15.0306   1
  -5   6  -2 60.7843 11.9892   2
  -6  -6  -2 24.6257 8.56683   1
  -6   6  -2 16.6456 12.9616   1
  -5  -7   2 220.789 20.8797   1
   5  -7  -2 209.199 23.9258   1
  -5   7   2 169.524 22.6998   1
  -5   7   2 203.039 22.2467   2
   5   7  -2 211.393 17.4951   2
   4  -7  -2 110.308 17.5653   1
  -4  -7   2 158.053 17.5598   1
  -4   7   2 139.562 17.1012   2
  -4   7   2 132.270 18.3919   1
   4   7  -2 150.658 15.0031   2
   3  -7  -2 48.8417 12.3329   1
  -3  -7   2 43.4891 10.5851   1
  -3   7   2 30.1598 9.74642   2
   3   7  -2 38.4256 8.62821   2
  -2  -7   2 63.4852 11.0056   1
   2  -7  -2 65.5597 12.2903   1
   2   7  -2 59.2408 9.62810   2
  -2   7   2 62.3702 10.9650   2
   1  -7  -2 43.1035 10.1943   1
  -1  -7   2 36.6201 9.87308   1
   1   7  -2 54.6121 9.13324   2
  -1   7   2 58.2696 9.73393   2
   0  -7   2 181.090 19.1944   1
   0  -7  -2 194.039 18.0356   1
   0   7   2 184.208 15.6801   2
   0   7  -2 160.054 15.9578   2
  -1  -7  -2 201.910 17.0463   1
   1  -7   2 174.633 18.9099   1
  -1   7  -2 143.963 16.2045   1
  -1   7  -2 152.886 15.8459   2
   1   7   2 155.325 14.1912   2
  -2  -7  -2 557.610 34.3586   1
   2  -7   2 569.823 36.9809   1
  -2   7  -2 472.242 35.3582   1
   2   7   2 532.408 31.8175   2
  -2   7  -2 579.270 35.2001   2
  -3  -7  -2 132.933 15.0737   1
   3  -7   2 125.180 17.3175   1
  -3   7  -2 134.954 17.8723   1
  -3   7  -2 137.948 16.0511   2
   3   7   2 151.076 12.5995   2
   4  -7   2 244.099 23.8366   1
  -4  -7  -2 262.677 19.4280   1
  -4   7  -2 209.554 21.3515   2
  -4   7  -2 186.066 23.7389   1
  -5  -7  -2 93.9531 12.3926   1
  -5   7  -2 88.2150 17.3684   1
  -5   7  -2 109.124 15.7094   2
  -4  -8   2 73.5805 13.4738   1
   4  -8  -2 76.2474 15.9113   1
   4   8  -2 42.7744 10.0473   2
  -4   8   2 69.4521 13.7498   2
   3  -8  -2 333.912 28.1858   1
  -3  -8   2 296.827 26.1145   1
  -3   8   2 303.956 25.8874   2
   3   8  -2 290.088 22.7210   2
  -2  -8   2 101.055 15.3173   1
   2  -8  -2 114.661 16.6557   1
   2   8  -2 110.570 13.3987   2
  -2   8   2 123.596 15.2149   2
  -1  -8   2 192.767 21.5338   1
   1  -8  -2 198.756 21.4536   1
  -1   8   2 213.267 19.1557   2
   1   8  -2 205.828 18.6310   2
   0  -8   2 245.418 24.2612   1
   0  -8  -2 264.012 23.7418   1
   0   8   2 270.769 21.2399   2
   0   8  -2 292.722 22.1074   2
   1  -8   2 20.6986 11.3981   1
  -1  -8  -2 25.9226 9.98042   1
  -1   8  -2 22.9604 9.77530   2
   1   8   2 23.5225 8.10164   2
  -2  -8  -2 102.087 14.1646   1
   2  -8   2 135.307 18.1569   1
   2   8   2 91.8890 11.3058   2
  -2   8  -2 100.202 14.9138   2
  -3  -8  -2 56.2455 11.5254   1
   3  -8   2 57.3129 14.3519   1
  -3   8  -2 56.0426 13.1585   2
   3   8   2 56.2247 8.87209   2
  -4  -8  -2 31.4637 9.85952   1
   4  -8   2 32.7255 13.3925   1
   4   8   2 28.6014 6.63146   2
  -2  -9   2 4.61977 10.3972   1
   2  -9  -2 9.97270 12.6348   1
  -2   9   2 8.64629 9.76233   2
   2   9  -2 -5.2396 8.39828   2
   1  -9  -2 47.0429 13.7187   1
  -1  -9   2 35.3885 12.6763   1
  -1   9   2 44.6501 11.3059   2
   1   9  -2 45.6039 10.9550   2
   0  -9  -2 25.2946 11.9106   1
   0  -9   2 27.4849 12.9514   1
   0   9   2 11.0065 9.04208   2
   0   9  -2 13.1702 9.55764   2
  -1  -9  -2 204.551 23.3019   1
   1  -9   2 188.099 23.6127   1
   1   9   2 221.364 19.2081   2
  -1   9  -2 208.324 21.7078   2
  -2  -9  -2 194.389 22.1543   1
   2  -9   2 175.132 23.2717   1
   2   9   2 218.962 18.3766   2
  -2   9  -2 183.120 21.7986   2
  -8   0   3 110.567 16.4616   1
  -7   0   3 89.2847 13.4156   1
  -6   0   3 240.323 19.8474   1
   5   0  -3 315.652 21.2248   1
  -5   0   3 318.002 22.1334   1
   4   0  -3 76.6159 8.24182   2
  -4   0   3 77.7891 9.23876   1
   4   0  -3 72.4730 8.80048   1
   3   0  -3 310.737 18.6974   1
  -3   0   3 328.381 19.0989   1
  -3   0   3 275.606 18.9907   2
   3   0  -3 283.998 18.1463   2
  -2   0   3 365.303 21.1291   2
   2   0  -3 365.799 21.1972   2
   2   0  -3 367.077 21.4734   1
  -2   0   3 378.869 21.5658   1
   1   0  -3 3601.67 188.082   1
  -1   0   3 3774.50 188.168   1
   1   0  -3 3559.80 188.114   1
  -1   0   3 3679.10 187.925   2
   1   0  -3 3693.72 189.400   2
  -1   0   3 3583.51 188.075   1
   0   0  -3 100.731 6.46065   1
   0   0   3 90.3266 6.35832   1
   0   0  -3 101.297 6.36712   1
   0   0   3 99.5637 6.17791   2
   0   0  -3 96.3741 6.18500   2
   0   0   3 90.5385 6.19206   1
  -1   0  -3 373.972 20.2252   1
  -1   0  -3 396.812 20.0757   2
  -1   0  -3 358.637 20.0611   1
   1   0   3 345.559 19.8967   2
   1   0   3 366.176 19.8910   1
  -1   0  -3 387.514 20.2819   1
  -2   0  -3 2535.82 133.424   1
  -2   0  -3 2663.38 133.563   1
   2   0   3 2592.93 132.977   1
  -2   0  -3 2547.01 133.278   2
  -3   0  -3 540.326 29.7851   1
  -3   0  -3 508.877 29.6337   1
   3   0   3 553.473 28.9173   1
  -3   0  -3 552.803 29.4223   2
  -4   0  -3 241.057 15.7313   1
  -4   0  -3 232.343 15.4890   1
  -5   0  -3 377.628 23.9081   1
  -6   0  -3 16.2852 6.76720   1
  -7   0  -3 29.3038 8.56917   1
  -8   0  -3 137.553 16.6667   1
  -8  -1   3 10.9680 9.85776   1
  -8   1   3 15.2478 10.7836   1
  -7  -1   3 19.5347 8.57073   1
  -7   1   3 19.9101 9.46936   1
  -6  -1   3 219.981 19.3408   1
  -6   1   3 266.298 20.2859   1
  -5  -1   3 374.481 23.8146   1
   5  -1  -3 357.736 23.6420   1
   5   1  -3 339.694 22.6149   1
  -5   1   3 345.859 24.2579   1
   5   1  -3 358.758 22.7359   2
  -4  -1   3 724.685 43.0008   1
   4  -1  -3 776.751 43.6232   1
   4   1  -3 783.647 42.5175   2
  -4   1   3 793.557 43.8174   1
   4   1  -3 755.599 42.6763   1
  -3  -1   3 1873.33 96.9965   1
   3  -1  -3 1841.40 96.7503   2
   3  -1  -3 1943.18 97.3463   1
  -3   1   3 1818.03 97.3245   1
   3   1  -3 1828.86 96.6345   1
  -3   1   3 1804.53 96.8294   2
   3   1  -3 1753.68 96.3423   2
   2  -1  -3 920.602 50.8273   1
  -2  -1   3 916.629 50.6286   1
  -2  -1   3 915.998 50.7416   1
   2  -1  -3 920.528 50.4632   2
  -2  -1   3 920.467 50.3400   2
   2   1  -3 1003.84 50.6904   1
   2   1  -3 954.842 50.4207   2
  -2   1   3 982.330 50.5982   2
  -2   1   3 960.405 50.9951   1
   1  -1  -3 5136.94 260.622   1
   1  -1  -3 5211.88 261.682   2
   1  -1  -3 5010.14 260.628   1
  -1  -1   3 5355.05 262.299   2
  -1  -1   3 4995.61 263.829   1
   1   1  -3 4847.54 263.987   1
  -1   1   3 5016.01 262.019   1
  -1   1   3 4977.54 260.344   2
   1   1  -3 5018.97 264.046   2
   0  -1   3 622.058 35.8464   1
   0  -1  -3 623.197 35.1079   1
   0  -1  -3 630.931 35.0683   2
   0  -1  -3 594.959 35.1137   1
   0  -1   3 613.534 35.4801   2
   0   1   3 736.977 35.0180   1
   0   1  -3 746.277 36.0488   1
   0   1  -3 795.266 35.8009   2
   1  -1   3 298.754 18.7964   1
   1  -1   3 307.064 18.4533   2
  -1   1  -3 345.304 18.6213   2
  -1   1  -3 343.346 19.1044   1
  -1   1  -3 355.165 19.2202   1
   2  -1   3 271.351 16.3934   1
  -2   1  -3 289.148 16.1818   2
  -2   1  -3 270.349 16.4578   1
  -2   1  -3 279.060 16.6031   1
  -3  -1  -3 691.176 37.5472   1
  -3  -1  -3 693.613 37.6027   1
  -3   1  -3 734.298 38.3967   2
  -3   1  -3 684.029 38.7107   1
  -3   1  -3 726.122 39.0284   1
  -4  -1  -3 147.931 11.2169   1
  -4  -1  -3 143.881 11.0623   1
  -4   1  -3 164.696 11.5838   2
  -4   1  -3 154.955 12.1768   1
  -4   1  -3 171.183 12.6223   1
  -5  -1  -3 240.479 15.3560   1
  -5  -1  -3 241.530 15.4768   1
  -5   1  -3 169.509 14.4584   2
  -5   1  -3 167.694 15.5956   1
  -6  -1  -3 285.349 20.7455   1
  -6   1  -3 330.726 22.1820   1
  -7  -1  -3 212.346 18.5255   1
  -7   1  -3 235.902 20.1613   1
  -8  -1  -3 47.2998 11.0445   1
  -8   1  -3 36.2392 11.0925   1
  -8  -2   3 178.808 20.1219   1
  -8   2   3 163.199 20.2767   1
  -7  -2   3 177.279 18.0661   1
  -7   2   3 129.871 17.3404   1
   6  -2  -3 226.431 21.0002   1
  -6  -2   3 196.310 18.2804   1
  -6   2   3 236.482 19.9418   1
   6   2  -3 220.134 17.0916   2
   5  -2  -3 251.964 20.1499   1
  -5  -2   3 244.666 19.6896   1
   5   2  -3 281.815 18.3391   2
  -5   2   3 269.856 21.0520   1
   4  -2  -3 125.701 12.2110   1
  -4  -2   3 144.198 12.1434   1
   4   2  -3 109.928 10.0128   1
  -4   2   3 117.211 12.5647   1
   4   2  -3 106.430 10.2161   2
  -3  -2   3 59.2252 7.14952   1
   3  -2  -3 60.8540 8.31664   1
  -3  -2   3 51.7480 7.03044   1
  -3   2   3 66.6900 8.57864   2
  -3   2   3 48.5627 7.55113   1
   3   2  -3 58.7625 6.89978   1
   3   2  -3 63.5451 7.01855   2
   2  -2  -3 433.868 22.8797   1
  -2  -2   3 440.524 22.4983   1
  -2  -2   3 399.795 22.1011   1
  -2  -2   3 406.524 21.6840   2
  -2   2   3 344.352 22.2437   1
   2   2  -3 328.719 21.4715   2
  -2   2   3 337.271 21.7829   2
   2   2  -3 329.939 21.5627   1
  -1  -2   3 32.4711 4.63499   1
  -1  -2   3 30.4564 4.87276   1
   1  -2  -3 24.2464 4.34407   1
  -1  -2   3 22.7811 3.78366   2
   1  -2  -3 23.8033 4.35661   1
   1   2  -3 28.6392 4.34711   1
  -1   2   3 23.0160 4.00925   1
   1   2  -3 28.1311 4.11855   2
  -1   2   3 25.8300 4.09997   2
   0  -2   3 4117.83 216.844   1
   0  -2  -3 4355.40 216.081   1
   0  -2   3 4448.71 216.595   2
   0  -2  -3 3967.04 215.823   1
   0   2  -3 4198.93 216.893   1
   0   2  -3 4000.80 216.435   2
   0   2   3 4313.45 215.795   1
   1  -2   3 2008.32 100.829   1
   1  -2   3 2013.74 100.342   2
  -1   2  -3 1821.08 100.711   1
  -1   2  -3 1844.25 100.247   2
   2  -2   3 1175.23 62.2051   1
  -2   2  -3 1178.79 61.8235   2
  -2   2  -3 1178.75 62.6125   1
  -2   2  -3 1114.36 62.0015   1
   3  -2   3 658.605 37.7128   1
  -3  -2  -3 693.602 35.5261   1
  -3   2  -3 648.364 37.2680   2
  -3   2  -3 685.105 37.9468   1
  -4  -2  -3 813.075 43.1871   1
  -4  -2  -3 827.176 43.1175   1
   4  -2   3 796.367 44.8345   1
  -4   2  -3 770.805 44.4073   2
  -4   2  -3 789.922 45.3043   1
  -5   2  -3 18.7980 5.94463   2
  -5   2  -3 10.5873 6.41802   1
  -6  -2  -3 44.6362 7.63123   1
  -6   2  -3 37.7446 8.78367   1
  -7  -2  -3 9.51030 7.00094   1
  -7   2  -3 12.8498 8.57927   1
  -7  -3   3 28.4650 9.89443   1
  -7   3   3 33.4038 11.3091   1
  -6  -3   3 249.475 20.2818   1
   6  -3  -3 259.572 21.0714   1
  -6   3   3 227.039 21.3122   1
   6   3  -3 240.117 18.2047   2
   5  -3  -3 184.196 17.6803   1
  -5  -3   3 174.368 16.5411   1
  -5   3   3 195.912 18.0390   1
   5   3  -3 203.054 15.2757   2
   4  -3  -3 986.929 55.5339   1
  -4  -3   3 948.639 54.2996   1
  -4  -3   3 870.789 53.9972   1
   4   3  -3 1017.49 53.5120   2
  -4   3   3 1065.90 55.8698   1
   3  -3  -3 888.197 49.2724   1
  -3  -3   3 834.715 48.1722   1
  -3  -3   3 861.577 48.3790   1
  -3   3   3 886.502 49.0371   1
   3   3  -3 871.261 47.6855   1
   3   3  -3 902.221 47.7800   2
  -2  -3   3 421.623 26.1103   1
  -2  -3   3 415.396 26.0596   1
   2  -3  -3 441.603 26.8793   1
  -2   3   3 450.934 26.0663   2
   2   3  -3 463.024 25.6774   2
  -2   3   3 467.430 26.4989   1
   2   3  -3 463.730 25.9006   1
   1  -3  -3 800.839 43.0978   1
  -1  -3   3 803.434 43.4416   1
   1  -3  -3 868.495 43.5394   1
  -1  -3   3 812.861 42.9520   2
  -1   3   3 733.968 42.6673   1
   1   3  -3 766.436 43.1222   1
   1   3  -3 748.839 42.7056   2
   0  -3   3 292.068 18.9410   1
   0  -3   3 278.826 17.9693   2
   0  -3  -3 259.947 17.3776   1
   0  -3  -3 285.749 17.8227   1
   0   3   3 320.486 17.3521   2
   0   3  -3 334.355 18.9758   1
   0   3  -3 327.462 18.3943   2
   0   3   3 333.367 17.4443   1
   1  -3   3 184.681 13.4799   1
  -1  -3  -3 182.811 11.0025   1
  -1  -3  -3 177.609 11.0396   1
   1  -3   3 182.078 12.3178   2
  -1   3  -3 188.724 13.4864   1
   1   3   3 183.947 10.6479   2
  -1   3  -3 176.757 12.4280   2
   2  -3   3 22.4831 5.62532   1
  -2   3  -3 40.0092 6.87343   1
  -2   3  -3 25.6799 5.24188   2
  -3  -3  -3 96.3656 6.68956   1
   3  -3   3 103.018 10.5839   1
  -3   3  -3 79.9544 10.2895   1
  -3   3  -3 86.5737 9.28276   2
  -3   3  -3 91.9053 10.3433   1
   4  -3   3 87.0667 10.7582   1
  -4  -3  -3 90.3988 8.15270   1
  -4  -3  -3 85.5827 8.19437   1
  -4   3  -3 112.034 12.3312   1
  -4   3  -3 98.1594 10.4404   2
   5  -3   3 462.088 36.7444   1
  -5  -3  -3 443.584 27.0862   1
  -5   3  -3 503.393 30.6554   1
  -5   3  -3 459.882 29.0903   2
  -6  -3  -3 102.908 11.2409   1
  -6   3  -3 116.620 14.5915   1
  -7  -3  -3 53.1264 9.41585   1
  -7   3  -3 50.6293 11.8895   1
  -7  -4   3 170.384 19.2879   1
   7   4  -3 174.117 16.1383   2
  -7   4   3 145.171 18.8920   1
  -6  -4   3 171.720 17.9248   1
   6  -4  -3 176.480 19.0599   1
  -6   4   3 183.008 19.1455   1
   6   4  -3 191.170 15.8172   2
   5  -4  -3 147.134 16.2896   1
  -5  -4   3 147.319 14.9741   1
  -5   4   3 113.863 14.5437   1
   5   4  -3 121.406 12.5125   2
  -4  -4   3 231.048 18.3311   1
   4  -4  -3 242.989 20.4727   1
   4   4  -3 235.772 17.2610   2
  -4   4   3 265.349 20.2621   1
   3  -4  -3 42.7528 8.59212   1
  -3  -4   3 41.3348 7.84898   1
  -3   4   3 39.9621 8.10656   1
   3   4  -3 37.4807 6.62232   2
   2  -4  -3 86.3582 10.0625   1
  -2  -4   3 88.1916 9.93726   1
  -2   4   3 70.7752 8.87370   1
   2   4  -3 61.3550 7.50788   2
   2   4  -3 64.5679 7.98285   1
  -1  -4   3 277.266 17.9981   1
   1  -4  -3 270.401 17.8378   1
  -1   4   3 266.073 17.3720   1
  -1   4   3 253.752 16.5559   2
   1   4  -3 255.596 17.2130   1
   1   4  -3 264.961 16.8096   2
   0  -4  -3 785.896 42.4546   1
   0  -4   3 783.650 43.4643   1
   0  -4  -3 758.038 41.9170   1
   0   4   3 764.708 41.5689   1
   0   4   3 746.277 41.5994   2
   0   4  -3 767.786 43.1210   1
   0   4  -3 780.975 42.5895   2
   1  -4   3 1825.04 95.8997   1
  -1  -4  -3 1751.76 93.9057   1
  -1  -4  -3 1781.22 93.9408   1
  -1   4  -3 1803.69 95.0716   2
   1   4   3 1788.92 93.3370   2
  -1   4  -3 1812.47 95.9663   1
  -2  -4  -3 920.924 48.3932   1
   2  -4   3 965.054 51.5224   1
  -2  -4  -3 958.911 48.4851   1
  -2   4  -3 833.182 50.2238   2
   2   4   3 872.426 47.7395   2
   3  -4   3 968.280 54.2859   1
  -3  -4  -3 931.466 50.8679   1
  -3  -4  -3 950.898 50.9525   1
  -3   4  -3 958.654 53.5131   2
  -3   4  -3 988.591 55.1079   1
  -4  -4  -3 655.466 37.1596   1
  -4  -4  -3 697.205 37.3481   1
   4  -4   3 749.658 41.4477   1
  -4   4  -3 657.481 40.0264   2
  -4   4  -3 666.107 40.7483   1
  -4   4  -3 647.406 41.8744   1
  -5  -4  -3 63.4731 7.69991   1
  -5   4  -3 47.9589 11.3133   1
  -5   4  -3 51.6012 10.3963   1
  -5   4  -3 59.3557 9.83445   2
  -6  -4  -3 9.74547 5.96802   1
  -6   4  -3 21.3729 9.49205   1
  -6   4  -3 11.5462 10.3469   1
  -7  -4  -3 12.6285 7.07095   1
  -7   4  -3 12.4273 10.1014   1
  -7   4  -3 16.4617 12.3527   1
  -7  -5   3 19.4013 10.3885   1
   7   5  -3 12.4191 7.67249   2
  -7   5   3 16.2785 11.1745   1
   6  -5  -3 270.042 25.0230   1
  -6  -5   3 290.298 23.5021   1
  -6   5   3 293.866 24.1848   2
   6   5  -3 279.976 20.6818   2
  -6   5   3 281.556 24.9338   1
   5  -5  -3 158.752 18.6590   1
  -5  -5   3 153.708 16.2505   1
   5   5  -3 162.546 14.4994   2
  -5   5   3 164.261 17.4321   2
  -5   5   3 155.247 18.2167   1
  -4  -5   3 416.042 27.6666   1
   4  -5  -3 418.589 29.8642   1
  -4   5   3 420.729 27.9990   2
  -4   5   3 421.494 28.9464   1
   4   5  -3 406.545 26.0448   2
   3  -5  -3 531.022 33.8204   1
  -3  -5   3 532.197 32.5253   1
  -3   5   3 526.998 32.4401   2
   3   5  -3 518.764 31.2200   2
  -3   5   3 529.178 32.9579   1
  -3   5   3 509.960 33.9293   1
   2  -5  -3 367.193 26.8597   1
  -2  -5   3 352.370 26.2923   1
  -2   5   3 443.624 26.1834   2
   2   5  -3 466.409 25.8737   2
   2   5  -3 466.680 25.9427   1
  -2   5   3 410.093 27.0967   1
  -1   5   3 391.050 23.8932   2
   1   5  -3 414.643 24.6087   1
   1   5  -3 379.121 23.9181   2
  -1   5   3 367.517 24.1735   1
   0  -5  -3 360.351 24.2955   1
   0  -5  -3 343.721 23.5712   1
   0  -5   3 367.952 25.5177   1
   0   5  -3 413.965 25.2541   1
   0   5   3 437.231 23.6995   2
   0   5   3 414.502 23.1612   1
   0   5  -3 408.549 24.4830   2
  -1  -5  -3 71.8658 8.66211   1
  -1  -5  -3 63.7097 7.99383   1
   1  -5   3 76.0869 10.7852   1
   1   5   3 63.2798 7.64105   2
  -1   5  -3 79.1400 9.57116   2
  -1   5  -3 68.6823 10.0093   1
   2  -5   3 116.034 14.4319   1
  -2  -5  -3 121.832 10.4197   1
  -2  -5  -3 122.793 10.8599   1
  -2   5  -3 103.036 12.2348   2
   2   5   3 132.132 9.41355   2
  -2   5  -3 117.391 14.1845   1
  -3  -5  -3 148.714 11.3227   1
  -3  -5  -3 150.281 12.2532   1
   3  -5   3 164.150 16.4406   1
  -3   5  -3 127.586 14.2820   2
  -3   5  -3 133.363 16.4713   1
  -4  -5  -3 32.1237 6.03817   1
   4  -5   3 23.5782 8.69980   1
  -4   5  -3 14.5536 9.11589   1
  -4   5  -3 13.2070 7.65595   2
  -5  -5  -3 95.4893 10.8128   1
  -5   5  -3 128.081 14.8626   2
  -5   5  -3 109.227 16.2820   1
  -6  -5  -3 113.051 12.4079   1
  -6   5  -3 99.8512 17.1040   1
  -6   5  -3 123.463 16.1296   1
   6  -6  -3 135.859 19.7071   1
  -6  -6   3 125.293 16.6898   1
  -6   6   3 160.707 19.6627   1
  -6   6   3 133.311 17.1109   2
   6   6  -3 153.707 15.0225   2
  -6   6   3 119.885 19.8616   1
   5  -6  -3 55.4284 13.5273   1
  -5  -6   3 50.5963 10.7766   1
  -5   6   3 50.4553 11.7273   1
   5   6  -3 47.8107 8.79158   2
  -5   6   3 25.3942 12.2034   1
  -5   6   3 36.8617 10.5665   2
   4  -6  -3 53.1986 12.4455   1
  -4  -6   3 52.5198 10.5406   1
  -4   6   3 61.9687 12.5616   1
  -4   6   3 62.1337 11.0916   2
   4   6  -3 78.2923 10.2824   2
  -4   6   3 66.1232 11.6250   1
   3  -6  -3 69.1808 12.2586   1
  -3  -6   3 79.3158 11.4367   1
  -3   6   3 78.5876 11.4228   2
  -3   6   3 79.5496 12.6168   1
   3   6  -3 67.4842 9.59356   2
   2  -6  -3 78.8538 12.2105   1
  -2  -6   3 68.0336 11.0017   1
   2   6  -3 98.6603 11.0625   2
  -2   6   3 110.618 12.6786   2
  -2   6   3 99.9635 12.1722   1
  -1  -6   3 613.613 37.3129   1
   1  -6  -3 608.636 37.1632   1
   1   6  -3 604.581 35.7585   2
  -1   6   3 607.415 35.8219   2
  -1   6   3 591.606 35.9242   1
   1   6  -3 592.172 35.9216   1
   0  -6   3 388.768 26.2173   1
   0  -6  -3 404.224 24.9224   1
   0   6   3 361.682 22.9719   2
   0   6  -3 332.336 24.2012   1
   0   6  -3 326.690 23.6863   2
   1  -6   3 412.543 28.2296   1
  -1  -6  -3 371.322 25.2785   1
  -1   6  -3 375.970 27.2077   1
   1   6   3 414.005 24.2377   2
  -1   6  -3 408.744 26.2821   2
   2  -6   3 1143.54 63.6716   1
  -2  -6  -3 1080.63 60.4812   1
  -2   6  -3 1125.99 62.2613   2
   2   6   3 1099.32 59.0493   2
  -2   6  -3 1064.26 63.4900   1
  -3  -6  -3 475.453 28.4235   1
   3  -6   3 452.545 31.9556   1
   3   6   3 458.085 26.0838   2
  -3   6  -3 474.024 30.7224   2
  -3   6  -3 444.620 32.2359   1
   4  -6   3 202.238 20.2038   1
  -4  -6  -3 181.046 14.9061   1
  -4   6  -3 167.159 20.7729   1
  -4   6  -3 184.633 18.2535   2
  -5  -6  -3 64.5905 9.19077   1
  -5   6  -3 63.1253 11.9345   2
  -5   6  -3 57.4362 14.1937   1
  -6  -6  -3 97.6345 11.9569   1
  -6   6  -3 96.8023 18.4679   1
   5  -7  -3 106.946 17.8855   1
  -5  -7   3 85.4305 14.2409   1
   5   7  -3 96.4212 12.3112   2
  -5   7   3 80.9842 14.3024   2
  -4  -7   3 446.344 31.2840   1
   4  -7  -3 463.841 34.2161   1
  -4   7   3 427.779 31.7876   2
   4   7  -3 432.031 29.0324   2
  -3  -7   3 153.675 17.8029   1
   3  -7  -3 130.377 17.8093   1
   3   7  -3 189.786 16.1660   2
  -3   7   3 185.505 18.1466   2
   2  -7  -3 298.460 24.1729   1
  -2  -7   3 275.747 22.5014   1
  -2   7   3 262.214 21.6060   2
   2   7  -3 266.731 20.6202   2
  -1  -7   3 210.206 19.3827   1
   1  -7  -3 202.849 19.0578   1
  -1   7   3 204.140 17.2326   2
   1   7  -3 176.724 16.6016   2
   0  -7   3 72.4337 12.4553   1
   0  -7  -3 59.6096 10.6708   1
   0   7   3 66.7037 9.78780   2
   0   7  -3 79.9656 11.4015   2
  -1  -7  -3 0.26643 6.85599   1
   1  -7   3 4.62504 8.60208   1
  -1   7  -3 -1.3733 6.99229   1
  -1   7  -3 -2.7397 6.98351   2
   1   7   3 -1.7486 5.48439   2
   2  -7   3 5.87996 9.49084   1
  -2  -7  -3 11.5009 7.26167   1
  -2   7  -3 8.64189 8.19844   2
  -2   7  -3 10.6994 8.76746   1
   2   7   3 10.9692 5.74386   2
  -3  -7  -3 9.36169 7.50985   1
   3  -7   3 19.8023 10.6146   1
  -3   7  -3 12.4518 8.58153   2
  -3   7  -3 0.51996 9.63119   1
   3   7   3 6.54037 5.06997   2
  -4  -7  -3 18.3788 7.49215   1
   4  -7   3 19.3873 10.8285   1
  -4   7  -3 11.6208 11.0995   1
  -4   7  -3 15.5735 9.44079   2
  -5  -7  -3 96.9478 12.0509   1
  -5   7  -3 91.1499 15.3560   2
  -5   7  -3 86.8007 17.4363   1
  -4  -8   3 87.6690 14.9394   1
   4  -8  -3 81.8511 16.9172   1
  -4   8   3 93.5807 16.0674   2
   4   8  -3 74.6252 12.0887   2
   3  -8  -3 0.85330 11.0526   1
  -3  -8   3 2.45076 9.63684   1
  -3   8   3 1.30865 9.35217   2
   3   8  -3 2.67949 7.91545   2
  -2  -8   3 15.8474 10.0645   1
   2  -8  -3 14.0569 10.6681   1
   2   8  -3 8.49315 7.97171   2
  -2   8   3 12.3638 8.90193   2
   1  -8  -3 245.165 22.6624   1
  -1  -8   3 242.040 23.8576   1
  -1   8   3 226.061 20.5172   2
   1   8  -3 265.305 20.7267   2
   0  -8   3 150.526 19.2568   1
   0  -8  -3 165.352 19.2988   1
   0   8   3 176.287 16.6546   2
   0   8  -3 197.197 18.4807   2
  -1  -8  -3 169.033 19.5712   1
   1  -8   3 154.413 20.0405   1
   1   8   3 222.030 17.0381   2
  -1   8  -3 219.878 20.2649   2
  -2  -8  -3 230.731 21.4335   1
   2  -8   3 234.776 25.2751   1
  -2   8  -3 232.271 22.0723   2
   2   8   3 227.826 17.4392   2
  -3  -8  -3 426.047 30.7658   1
   3  -8   3 458.884 35.5700   1
  -3   8  -3 457.235 33.3738   2
   3   8   3 465.771 27.5391   2
   4  -8   3 34.8774 13.8722   1
  -4  -8  -3 22.5194 9.23646   1
  -4   8  -3 62.7165 14.1768   2
  -4   8  -3 33.4780 20.1342   1
  -2  -9   3 62.9532 14.5686   1
   2  -9  -3 88.5697 17.0205   1
  -2   9   3 59.8808 13.0359   2
   2   9  -3 60.0038 12.3120   2
   1  -9  -3 72.2453 14.8661   1
  -1  -9   3 52.9745 14.1347   1
   1   9  -3 28.3457 10.9368   2
  -1   9   3 58.8813 11.9445   2
   0  -9   3 79.3918 15.9986   1
   0  -9  -3 56.5174 13.5775   1
   0   9  -3 86.0124 13.8614   2
   0   9   3 72.1717 12.2184   2
  -1  -9  -3 18.1255 11.2777   1
   1  -9   3 34.5071 13.9373   1
  -1   9  -3 49.0351 12.0409   2
   1   9   3 32.8257 9.43564   2
   2  -9   3 77.3576 17.4301   1
  -2  -9  -3 87.1790 14.8703   1
  -2   9  -3 86.4872 15.6690   2
   2   9   3 71.9484 10.8848   2
  -8   0   4 49.9917 13.4179   1
  -7   0   4 96.0283 14.2018   1
  -6   0   4 151.352 15.8656   1
   5   0  -4 663.843 39.6940   1
  -5   0   4 690.183 40.3547   1
   5   0  -4 673.181 39.2169   2
   4   0  -4 756.270 41.8165   2
   4   0  -4 741.357 42.2593   1
  -4   0   4 735.026 42.4995   1
  -3   0   4 1207.46 66.8264   1
   3   0  -4 1276.81 66.5090   2
   3   0  -4 1242.86 66.8661   1
  -2   0   4 1252.02 67.6790   1
   2   0  -4 1276.08 67.4294   2
   2   0  -4 1294.99 67.7469   1
  -2   0   4 1274.61 67.4695   2
  -1   0   4 2997.42 152.790   2
   1   0  -4 3010.43 152.785   2
  -1   0   4 2871.09 152.876   1
   1   0  -4 2883.98 153.018   1
   1   0  -4 3013.50 153.007   1
   0   0  -4 160.509 10.4730   1
   0   0  -4 169.684 10.3462   1
   0   0  -4 167.704 10.0696   2
   0   0   4 159.223 10.0164   2
   0   0   4 157.667 10.3017   1
  -1   0  -4 123.275 7.88157   1
  -1   0  -4 116.787 7.48412   2
  -1   0  -4 117.927 7.76682   1
   1   0   4 115.358 7.36481   1
  -2   0  -4 599.023 32.7100   1
   2   0   4 598.340 31.9869   1
  -2   0  -4 619.183 32.5964   2
  -2   0  -4 631.101 32.9084   1
  -3   0  -4 29.4699 4.51995   1
  -3   0  -4 30.3267 4.52750   1
  -3   0  -4 29.9129 3.91101   2
  -4   0  -4 678.713 37.0658   2
  -4   0  -4 687.719 38.0076   1
  -4   0  -4 672.739 37.7606   1
  -5   0  -4 102.578 9.22208   2
  -5   0  -4 95.2764 10.6788   1
  -6   0  -4 202.398 16.3942   1
  -7   0  -4 112.768 13.5786   1
  -8  -1   4 171.430 20.2158   1
  -8   1   4 143.439 19.2531   1
  -7  -1   4 265.718 23.1177   1
  -7   1   4 289.582 24.5867   1
  -6  -1   4 91.1544 13.1423   1
   6   1  -4 146.445 14.0266   2
  -6   1   4 153.441 16.0251   1
   5  -1  -4 93.3697 11.4790   1
  -5  -1   4 81.8356 10.8259   1
   5   1  -4 60.7563 8.85243   1
   5   1  -4 69.9842 9.42225   2
  -5   1   4 57.4215 10.1715   1
  -4  -1   4 83.2020 9.88717   1
   4  -1  -4 81.1274 10.1073   1
   4   1  -4 82.1114 9.01321   2
  -4   1   4 76.8608 9.89622   1
   4   1  -4 78.6041 9.12776   1
   3  -1  -4 158.722 11.6204   2
  -3  -1   4 132.465 11.7922   1
   3  -1  -4 140.426 11.9998   1
  -3   1   4 154.522 11.6513   2
   3   1  -4 154.756 11.3317   2
  -3   1   4 148.998 12.2541   1
   3   1  -4 154.582 11.6448   1
   2  -1  -4 747.721 42.2712   2
  -2  -1   4 736.759 42.6348   1
   2  -1  -4 720.680 42.6049   1
  -2  -1   4 764.138 42.2599   2
  -2   1   4 820.123 42.4557   2
   2   1  -4 801.875 42.5990   1
  -2   1   4 812.996 42.8674   1
   2   1  -4 838.106 42.4356   2
   1  -1  -4 164.979 11.1047   1
  -1  -1   4 165.508 10.8441   2
  -1  -1   4 159.951 11.4246   1
   1  -1  -4 165.829 11.1912   1
   1  -1  -4 169.954 10.8127   2
   0  -1   4 3725.95 194.977   1
   0  -1   4 3839.18 194.763   2
   0  -1  -4 3755.89 194.385   1
   0  -1  -4 3816.66 194.289   2
   0  -1  -4 4006.90 195.420   1
   0   1  -4 3679.78 195.053   1
   0   1   4 3614.71 194.112   1
   0   1  -4 3905.06 195.089   1
   0   1  -4 3665.00 194.727   2
   1  -1   4 3763.91 196.415   2
   1  -1   4 3808.81 196.698   1
  -1   1  -4 3819.47 196.846   1
  -1   1  -4 3856.92 196.883   1
  -1   1  -4 3808.15 196.518   2
   2  -1   4 551.211 33.6702   1
   2  -1   4 574.482 33.6119   2
  -2   1  -4 657.697 33.8583   2
  -2   1  -4 630.686 34.0617   1
  -2   1  -4 676.249 34.5738   1
  -2   1  -4 652.045 34.3368   1
  -3  -1  -4 1005.33 53.8993   1
  -3  -1  -4 1052.09 53.9026   1
  -3  -1  -4 941.659 53.4849   2
  -3   1  -4 1090.39 55.3546   1
  -3   1  -4 1054.86 54.8544   2
  -3   1  -4 1026.32 55.4749   1
  -4  -1  -4 442.893 25.4842   2
   4  -1   4 457.368 26.6101   1
  -4  -1  -4 477.234 26.3476   1
  -4  -1  -4 431.031 26.1418   1
  -4   1  -4 493.347 27.6892   1
  -4   1  -4 465.038 26.8073   2
  -4   1  -4 486.111 27.9012   1
  -5  -1  -4 94.0419 9.88313   1
  -5  -1  -4 83.7109 7.94731   2
  -5  -1  -4 85.3274 10.5377   1
  -5   1  -4 71.8927 8.81456   2
  -5   1  -4 80.1400 9.99541   1
  -6  -1  -4 13.2214 6.19387   1
  -6   1  -4 5.83948 6.20943   1
  -7  -1  -4 5.50315 6.68443   1
  -7   1  -4 1.23584 6.68003   1
  -8  -2   4 31.6319 11.6466   1
  -8   2   4 8.92093 10.7445   1
  -7  -2   4 37.4769 10.2742   1
  -7   2   4 42.8918 11.5582   1
   6  -2  -4 299.940 23.0760   1
  -6  -2   4 316.276 22.9228   1
   6   2  -4 290.079 20.9032   2
  -6   2   4 286.149 23.5631   1
   5  -2  -4 640.326 39.2684   1
  -5  -2   4 664.526 39.1294   1
   5   2  -4 600.170 37.3684   1
   5   2  -4 666.256 37.7272   2
  -5   2   4 674.973 40.0515   1
  -4  -2   4 1007.78 56.3831   1
   4  -2  -4 1007.06 57.0553   1
   4   2  -4 1013.69 55.5366   2
   4   2  -4 1025.80 55.6879   1
  -4   2   4 1021.63 57.0689   1
  -3  -2   4 957.314 53.2720   1
   3  -2  -4 946.931 53.5541   1
   3   2  -4 937.149 52.5907   2
   3   2  -4 1024.53 53.0318   1
  -3   2   4 978.529 53.6977   1
  -3   2   4 970.034 53.1091   2
  -2  -2   4 1083.69 59.0189   2
  -2  -2   4 1132.90 59.6886   1
   2  -2  -4 1128.76 59.9024   1
  -2   2   4 1088.66 59.7090   1
   2   2  -4 1077.67 59.1346   2
   2   2  -4 1162.12 59.5453   1
  -2   2   4 1070.45 59.1906   2
  -1   2   4 180.579 12.1625   1
  -1   2   4 192.064 12.0693   2
   1   2  -4 191.129 12.3083   2
   1   2  -4 183.982 12.4899   1
   0  -2   4 1062.79 60.0158   1
   0  -2  -4 1119.92 59.0779   1
   0  -2  -4 1054.28 58.9302   1
   0  -2   4 1138.49 59.6804   2
   0   2   4 1107.40 58.4793   1
   0   2  -4 1178.61 59.7654   2
   0   2   4 1214.47 58.7348   1
   1  -2   4 78.5074 7.95740   1
  -1   2  -4 90.8328 7.43003   2
  -1   2  -4 91.0463 8.35977   1
   2  -2   4 71.0382 6.66755   2
   2  -2   4 62.2627 7.69743   1
  -2   2  -4 63.9314 6.84850   2
  -2   2  -4 68.2131 8.06239   1
   3  -2   4 407.094 24.0405   1
  -3   2  -4 394.018 24.0159   1
  -3   2  -4 399.557 23.5756   2
  -3   2  -4 388.234 24.7535   1
  -4  -2  -4 838.188 42.7755   1
  -4  -2  -4 850.597 42.6731   1
   4  -2   4 858.299 44.9413   1
  -4   2  -4 678.371 43.9575   2
  -4   2  -4 740.776 44.8593   1
  -5  -2  -4 131.996 10.8755   1
  -5  -2  -4 122.699 10.8556   1
  -6  -2  -4 292.255 19.5523   1
  -6   2  -4 274.581 21.5071   1
  -7  -2  -4 130.173 14.0777   1
  -7   2  -4 118.177 15.3413   1
  -7  -3   4 164.902 19.7399   1
  -7   3   4 200.154 21.0812   1
   7   3  -4 183.760 17.1648   2
   6  -3  -4 60.2822 11.7020   1
  -6  -3   4 69.5597 11.5940   1
  -6   3   4 81.7205 12.8683   1
   6   3  -4 80.1330 10.3724   2
  -5  -3   4 33.1112 8.54747   1
   5  -3  -4 36.9427 9.16869   1
  -5   3   4 26.8347 8.66538   1
   5   3  -4 23.1631 6.92139   2
   4  -3  -4 55.9541 9.74199   1
  -4  -3   4 51.3342 8.59430   1
   4   3  -4 56.9249 7.87558   2
   4   3  -4 51.3100 7.27105   1
  -4   3   4 38.5385 8.86496   1
  -3  -3   4 71.9397 8.57639   1
   3   3  -4 36.8428 6.39873   2
   3   3  -4 36.5463 6.16981   1
  -3   3   4 46.2600 7.65137   1
   2  -3  -4 532.560 32.8309   1
  -2  -3   4 507.146 32.3740   1
  -2   3   4 619.772 32.4194   2
  -2   3   4 569.241 32.4297   1
   2   3  -4 563.284 31.9459   2
   2   3  -4 598.127 32.3969   1
  -1  -3   4 1705.46 94.1629   1
  -1  -3   4 1814.08 94.6059   2
   1  -3  -4 1763.32 93.8197   1
   1  -3  -4 1668.75 93.6417   1
  -1   3   4 1746.85 93.2601   1
  -1   3   4 1885.31 93.4448   2
   1   3  -4 1852.90 94.1447   1
   1   3  -4 1797.87 93.6002   2
   0  -3  -4 717.338 38.6319   1
   0  -3   4 775.769 40.3143   1
   0  -3   4 737.098 39.5034   2
   0  -3  -4 769.938 39.0398   1
   0   3  -4 659.538 39.2736   2
   0   3   4 688.003 38.1687   1
   0   3  -4 679.850 39.9008   1
  -1  -3  -4 446.900 23.3891   1
  -1  -3  -4 453.266 23.4197   1
   1  -3   4 424.973 24.8578   2
   1  -3   4 422.201 25.7011   1
  -1   3  -4 420.085 25.8360   1
  -1   3  -4 402.865 24.8615   2
   1   3   4 411.367 22.9638   2
   1   3   4 432.515 22.9519   2
   2  -3   4 1584.60 85.2244   2
   2  -3   4 1612.56 86.0727   1
  -2   3  -4 1621.86 86.4328   1
  -2   3  -4 1615.60 85.4732   2
   3  -3   4 712.773 42.0131   1
  -3   3  -4 765.633 41.4354   2
  -3   3  -4 722.256 42.6392   1
   4  -3   4 98.4122 11.8209   1
  -4  -3  -4 88.0542 7.65108   1
  -4  -3  -4 97.7127 7.95041   1
  -4   3  -4 84.3724 11.9478   1
  -4   3  -4 91.5513 10.4806   2
  -4   3  -4 86.9870 11.1420   1
  -5  -3  -4 178.273 13.2074   1
  -5   3  -4 208.647 16.0475   2
  -5   3  -4 194.034 17.0158   1
  -6  -3  -4 0.92756 5.08350   1
  -6   3  -4 1.49459 7.35583   1
  -7  -3  -4 62.5505 9.97540   1
  -7   3  -4 54.0595 12.4098   1
  -7  -4   4 131.552 16.4821   1
  -7   4   4 117.749 16.8230   1
   7   4  -4 129.005 14.8099   2
   6  -4  -4 63.2539 12.4666   1
  -6  -4   4 48.4679 10.7018   1
   6   4  -4 44.7270 8.98244   2
  -6   4   4 43.9189 11.3024   1
   5  -4  -4 616.767 40.5354   1
  -5  -4   4 647.966 39.6777   1
   5   4  -4 658.221 37.8828   2
  -5   4   4 642.066 40.0862   1
  -4  -4   4 632.262 39.1024   1
   4  -4  -4 666.279 40.6665   1
   4   4  -4 656.932 38.1247   2
  -4   4   4 674.122 40.0525   1
   3  -4  -4 791.829 46.2868   1
  -3  -4   4 822.485 45.8742   1
  -3   4   4 818.956 46.0799   1
   3   4  -4 774.203 44.4593   1
   3   4  -4 776.990 44.5474   2
  -2  -4   4 583.507 33.6129   1
   2  -4  -4 565.370 33.6450   1
   2   4  -4 554.983 32.3363   2
  -2   4   4 538.153 32.6558   1
   2   4  -4 562.758 32.5965   1
  -2   4   4 562.200 32.5399   2
   1  -4  -4 252.185 16.7726   1
  -1  -4   4 243.397 17.1552   1
  -1   4   4 241.220 15.7562   2
  -1   4   4 233.163 16.1247   1
   1   4  -4 252.532 16.7188   1
   1   4  -4 230.626 15.9502   2
   0  -4  -4 46.9122 6.70935   1
   0  -4  -4 49.0767 6.28964   1
   0  -4   4 46.0509 7.82287   1
   0   4  -4 71.6763 8.14501   2
   0   4  -4 85.1605 9.03991   1
   0   4   4 69.2847 6.63320   2
  -1  -4  -4 208.193 13.7797   1
  -1  -4  -4 203.819 13.6342   1
   1  -4   4 203.350 16.2522   1
   1   4   4 217.304 12.9532   2
  -1   4  -4 228.531 16.5873   1
  -1   4  -4 227.779 15.3237   2
  -2  -4  -4 38.8190 4.75441   1
   2  -4   4 42.8993 8.29667   1
  -2  -4  -4 39.1329 4.75762   1
  -2   4  -4 52.7804 7.76552   2
  -2   4  -4 42.5622 7.93042   1
   3  -4   4 349.172 24.3095   1
  -3  -4  -4 342.750 20.0896   1
  -3   4  -4 363.698 25.1880   1
  -3   4  -4 381.393 23.5458   2
   4  -4   4 634.305 36.5516   1
  -4  -4  -4 585.548 31.8179   1
  -4  -4  -4 635.720 31.9881   1
  -4   4  -4 493.023 36.3785   1
  -4   4  -4 522.181 34.8293   2
  -5  -4  -4 152.433 11.6714   1
  -5   4  -4 150.442 15.1679   2
  -5   4  -4 125.532 16.4298   1
  -5   4  -4 162.402 16.3514   1
  -6  -4  -4 251.633 17.5261   1
  -6   4  -4 269.919 23.1915   1
  -6   4  -4 228.344 24.3547   1
  -7  -4  -4 148.178 14.4434   1
  -7   4  -4 125.237 19.7440   1
  -7   4  -4 158.359 19.2379   1
  -7  -5   4 84.5505 14.5404   1
  -7   5   4 48.1690 13.6326   1
   7   5  -4 54.1385 10.3339   2
  -6  -5   4 58.5427 12.2768   1
   6  -5  -4 56.7750 13.1128   1
  -6   5   4 52.3983 12.5004   1
   6   5  -4 68.7265 10.5223   2
  -5  -5   4 11.9830 7.83575   1
   5  -5  -4 16.1006 9.39221   1
   5   5  -4 22.1635 7.40802   2
  -5   5   4 22.3575 9.28421   1
   4  -5  -4 30.4630 9.48718   1
  -4  -5   4 24.5605 8.27092   1
  -4   5   4 31.2272 9.19600   1
   4   5  -4 30.2719 7.33941   2
  -3  -5   4 76.1678 10.9738   1
   3  -5  -4 69.4750 11.8691   1
  -3   5   4 84.6121 11.2575   1
   3   5  -4 70.8206 9.81641   1
   3   5  -4 81.5469 9.81097   2
  -2  -5   4 243.376 17.4365   1
   2   5  -4 161.049 14.2777   1
  -2   5   4 164.825 15.5451   1
  -2   5   4 182.803 14.7176   2
   2   5  -4 178.214 14.5991   2
   1  -5  -4 194.295 16.7769   1
  -1  -5   4 185.593 16.7938   1
   1   5  -4 223.695 15.6655   2
  -1   5   4 215.239 15.6412   1
  -1   5   4 231.193 15.5117   2
   1   5  -4 221.310 16.3295   1
   0  -5  -4 748.048 45.4674   1
   0  -5   4 790.082 47.4547   1
   0  -5  -4 789.986 46.0560   1
   0   5   4 849.965 44.8161   1
   0   5  -4 873.872 47.3323   1
   0   5  -4 834.510 46.5915   2
   0   5   4 887.191 45.4056   2
  -1  -5  -4 670.640 36.2203   1
   1  -5   4 713.529 39.6079   1
  -1  -5  -4 683.682 36.8427   1
  -1  -5  -4 635.564 36.5900   1
  -1   5  -4 606.166 38.6741   1
  -1   5  -4 621.941 37.7599   2
   1   5   4 619.611 35.5576   2
  -2  -5  -4 253.170 17.0902   1
   2  -5   4 260.083 20.9683   1
  -2  -5  -4 231.349 16.7311   1
   2   5   4 274.175 15.8367   2
  -2   5  -4 308.164 21.9501   1
  -2   5  -4 311.376 20.1449   2
  -3  -5  -4 804.771 42.8793   1
  -3  -5  -4 708.356 42.3928   1
   3  -5   4 799.294 47.2200   1
  -3   5  -4 821.864 46.0586   2
  -3   5  -4 802.315 47.6363   1
   4  -5   4 127.514 15.8160   1
  -4  -5  -4 118.709 10.3243   1
  -4   5  -4 115.813 15.8256   1
  -4   5  -4 129.994 14.5723   2
  -5  -5  -4 42.5674 6.83163   1
  -5   5  -4 19.0376 10.8915   1
  -5   5  -4 34.0524 9.20952   2
  -6  -5  -4 2.06070 5.60740   1
  -6   5  -4 3.73476 11.0162   1
   6  -6  -4 82.5511 16.1419   1
  -6  -6   4 74.0483 13.9845   1
   6   6  -4 62.3259 10.8746   2
  -6   6   4 79.7868 14.8653   1
  -6   6   4 73.8819 14.3256   2
  -5  -6   4 249.673 22.6789   1
   5  -6  -4 248.381 24.7821   1
  -5   6   4 271.645 23.4286   1
  -5   6   4 249.058 25.2994   1
   5   6  -4 270.106 20.3096   2
  -5   6   4 263.470 22.9400   2
  -4  -6   4 417.874 30.1866   1
   4  -6  -4 431.603 32.0227   1
  -4   6   4 443.222 29.9262   2
  -4   6   4 412.843 31.7789   1
  -4   6   4 467.946 30.6318   1
   4   6  -4 445.271 28.5406   2
   3  -6  -4 310.937 24.2173   1
  -3  -6   4 325.464 22.8536   1
   3   6  -4 276.924 20.3120   2
  -3   6   4 262.350 21.3079   2
  -3   6   4 231.625 21.9910   1
   2  -6  -4 498.026 34.2884   1
  -2  -6   4 533.256 34.5079   1
  -2   6   4 533.103 33.6905   1
  -2   6   4 552.592 33.2329   2
   2   6  -4 556.559 32.7621   2
   1  -6  -4 19.6664 8.23845   1
  -1  -6   4 16.5574 8.19761   1
   1   6  -4 58.5502 8.33112   2
  -1   6   4 46.9617 8.24312   2
  -1   6   4 47.9135 9.82816   1
   1   6  -4 42.7858 8.19871   1
   0  -6  -4 54.6936 9.38819   1
   0  -6   4 71.0128 11.6927   1
   0   6  -4 45.4967 9.24448   1
   0   6  -4 56.6008 9.28737   2
   0   6   4 54.5359 8.05604   2
  -1  -6  -4 20.5536 6.90475   1
   1  -6   4 20.7723 8.84863   1
  -1   6  -4 17.3944 7.38528   2
   1   6   4 22.9216 5.96951   2
  -1   6  -4 32.3148 8.91361   1
  -2  -6  -4 114.009 12.2432   1
   2  -6   4 129.494 15.9319   1
  -2   6  -4 130.362 14.7247   2
   2   6   4 118.134 10.0207   2
  -2   6  -4 111.333 14.8480   1
  -3  -6  -4 535.428 31.1903   1
   3  -6   4 500.740 35.1980   1
  -3   6  -4 511.578 35.7358   1
  -3   6  -4 554.386 34.2867   2
  -4  -6  -4 177.164 13.5167   1
   4  -6   4 176.554 19.6570   1
  -4   6  -4 107.732 16.9649   1
  -4   6  -4 125.607 15.9435   2
  -5  -6  -4 221.573 16.2110   1
  -5   6  -4 182.725 20.3940   2
  -5   6  -4 202.908 24.0866   1
  -6  -6  -4 88.1785 10.6766   1
  -6   6  -4 95.0552 18.0763   1
   5  -7  -4 12.9895 12.1983   1
  -5  -7   4 13.1753 10.1129   1
   5   7  -4 13.6603 8.37955   2
  -5   7   4 13.0376 9.98269   2
  -4  -7   4 0.81377 8.85527   1
   4  -7  -4 0.29616 10.3632   1
  -4   7   4 9.51991 9.18508   2
   4   7  -4 11.8182 7.90723   2
  -3  -7   4 29.5931 10.6336   1
   3  -7  -4 31.2206 11.4789   1
  -3   7   4 27.0999 9.53323   2
   3   7  -4 23.7324 8.33005   2
   2  -7  -4 109.781 15.0000   1
  -2  -7   4 100.839 14.2151   1
  -2   7   4 94.8525 12.8674   2
   2   7  -4 107.798 12.8943   2
   1  -7  -4 45.0161 10.4596   1
  -1  -7   4 41.5854 10.2460   1
  -1   7   4 46.0174 9.20340   2
   1   7  -4 54.8569 9.17602   2
   0  -7  -4 499.737 31.9552   1
   0  -7   4 500.793 33.6768   1
   0   7  -4 495.296 31.5944   2
   0   7  -4 443.361 31.5704   1
   0   7   4 495.723 30.0467   2
   1  -7   4 550.718 35.1931   1
  -1  -7  -4 536.460 32.0563   1
  -1   7  -4 501.393 32.7559   2
   1   7   4 479.509 29.6724   2
  -1   7  -4 431.410 32.7419   1
   2  -7   4 61.6458 12.8643   1
  -2  -7  -4 38.3159 8.74744   1
  -2   7  -4 50.8206 10.6307   2
   2   7   4 46.1867 7.29378   2
  -2   7  -4 46.1912 11.5917   1
  -3  -7  -4 130.391 14.7105   1
   3  -7   4 126.726 17.5438   1
  -3   7  -4 153.953 19.1539   1
  -3   7  -4 164.574 18.6820   2
  -4  -7  -4 172.702 15.2816   1
   4  -7   4 166.081 20.7161   1
  -4   7  -4 144.268 19.7402   1
  -4   7  -4 152.618 18.2199   2
  -5  -7  -4 23.5710 7.92821   1
  -5   7  -4 21.0331 13.4503   1
  -5   7  -4 19.1893 10.5093   2
   4  -8  -4 103.337 18.6542   1
  -4  -8   4 97.1415 16.0917   1
  -4   8   4 107.686 17.1374   2
   4   8  -4 116.429 14.5402   2
   3  -8  -4 253.092 26.3790   1
  -3  -8   4 264.901 25.4229   1
   3   8  -4 265.006 22.1390   2
  -3   8   4 274.668 24.2486   2
  -2  -8   4 195.294 21.7771   1
   2  -8  -4 178.921 22.0263   1
  -2   8   4 161.956 18.8847   2
   2   8  -4 186.455 17.9517   2
   1  -8  -4 34.0265 11.1402   1
  -1  -8   4 27.8012 10.7705   1
  -1   8   4 18.3001 8.39177   2
   1   8  -4 -5.6236 7.49990   2
   0  -8   4 17.7962 10.9173   1
   0  -8  -4 27.4671 9.88728   1
   0   8   4 16.2218 7.83632   2
   0   8  -4 28.2660 9.49035   2
   1  -8   4 54.2134 13.5423   1
  -1  -8  -4 56.8684 11.6715   1
   1   8   4 49.7069 9.08721   2
  -1   8  -4 47.9686 10.8453   2
  -2  -8  -4 211.145 19.7973   1
   2  -8   4 174.852 21.8713   1
  -2   8  -4 223.179 21.6366   2
   2   8   4 196.109 15.7268   2
   3  -8   4 150.812 20.0169   1
  -3  -8  -4 157.545 17.3719   1
  -3   8  -4 109.220 23.1496   1
  -3   8  -4 140.549 17.9579   2
   4  -8   4 40.7284 13.9890   1
  -4  -8  -4 57.5832 10.5218   1
  -4   8  -4 43.3087 13.1398   2
  -4   8  -4 36.6122 14.9729   1
  -2  -9   4 20.2352 12.6851   1
   2  -9  -4 16.8633 12.6111   1
   2   9  -4 17.3973 9.91141   2
  -1  -9   4 60.0989 14.9461   1
   1  -9  -4 54.9943 14.5490   1
  -1   9   4 57.9484 12.3435   2
   1   9  -4 62.9146 12.3685   2
   0  -9   4 159.579 20.8282   1
   0  -9  -4 162.153 19.8757   1
   0   9   4 152.926 17.7398   2
   0   9  -4 169.991 19.8318   2
   1  -9   4 132.237 19.4353   1
   1   9   4 92.7704 12.5378   2
  -1   9  -4 91.1850 15.4283   2
  -2  -9  -4 88.3224 15.0261   1
   2  -9   4 78.2891 17.6821   1
  -2   9  -4 109.092 16.6995   2
   2   9   4 126.561 13.6760   2
  -8   0   5 82.5457 15.3900   1
  -7   0   5 139.482 17.5261   1
  -6   0   5 13.5001 7.74945   1
  -5   0   5 10.5838 6.90062   1
   5   0  -5 16.3630 6.48444   2
   5   0  -5 11.7590 6.11607   1
   4   0  -5 413.039 25.9159   1
   4   0  -5 426.220 25.5906   2
  -4   0   5 405.090 26.2177   1
   3   0  -5 47.2106 6.72128   2
   3   0  -5 48.1327 7.22748   1
  -3   0   5 48.0154 7.21836   1
   2   0  -5 774.562 43.0962   1
  -2   0   5 747.479 42.9286   1
  -2   0   5 802.718 42.7526   2
   2   0  -5 809.954 42.7611   2
   1   0  -5 1727.04 90.4117   1
   1   0  -5 1741.39 90.1199   2
  -1   0   5 1725.35 90.0784   2
  -1   0   5 1698.69 90.2591   1
   0   0  -5 1787.71 90.4666   1
   0   0   5 1674.71 90.2014   1
   0   0  -5 1726.44 90.2123   2
   0   0  -5 1692.86 90.3932   1
   0   0   5 1787.33 90.1614   2
  -1   0  -5 1334.76 70.4282   2
  -1   0  -5 1419.69 70.7581   1
   1   0   5 1348.35 70.2668   1
  -1   0  -5 1305.67 70.6121   1
  -2   0  -5 4516.19 230.552   1
  -2   0  -5 4677.80 230.580   1
  -2   0  -5 4480.38 231.443   2
   2   0   5 4368.63 230.070   2
  -2   0  -5 4339.37 230.260   1
  -3   0  -5 24.4516 4.09603   1
  -3   0  -5 19.0102 3.46973   2
  -3   0  -5 21.0343 4.03521   1
  -4   0  -5 6.15538 3.47568   2
  -4   0  -5 3.72103 4.10619   1
  -4   0  -5 3.08051 3.67222   1
  -5   0  -5 338.764 21.3450   1
  -5   0  -5 317.087 21.0550   2
  -6   0  -5 1.34899 5.64431   1
  -7   0  -5 77.0754 11.3597   1
  -8  -1   5 57.3615 13.8389   1
  -8   1   5 80.1202 15.6072   1
  -7  -1   5 110.672 15.3355   1
  -7   1   5 117.329 16.2000   1
  -6  -1   5 765.477 47.6085   1
   6  -1  -5 782.535 47.4079   1
   6   1  -5 816.042 46.5152   2
  -6   1   5 827.764 48.4530   1
   5  -1  -5 578.363 36.6008   1
  -5  -1   5 578.021 36.4555   1
   5   1  -5 588.275 35.3637   2
  -5   1   5 625.664 37.1662   1
   5   1  -5 612.425 35.8883   1
   4  -1  -5 823.860 47.9918   2
   4  -1  -5 832.820 48.5601   1
  -4  -1   5 868.098 48.5976   1
  -4   1   5 901.402 48.9863   1
   4   1  -5 865.775 47.8536   2
   4   1  -5 850.739 48.2043   1
   3  -1  -5 1285.17 70.2611   1
   3  -1  -5 1266.80 69.7252   2
  -3  -1   5 1208.81 69.9998   1
   3   1  -5 1335.63 70.0337   1
   3   1  -5 1309.28 69.6558   2
  -3   1   5 1405.43 70.6436   1
  -3   1   5 1289.25 70.2258   2
   2  -1  -5 991.989 53.3332   2
  -2  -1   5 968.388 53.7621   1
  -2  -1   5 1007.28 53.4066   2
   2  -1  -5 960.616 53.7166   1
  -2   1   5 997.192 53.7428   1
  -2   1   5 985.129 53.3747   2
   2   1  -5 991.857 53.3492   2
   2   1  -5 1026.35 53.7549   1
  -1  -1   5 79.5609 7.61710   1
   1  -1  -5 86.5145 7.17258   1
   1  -1  -5 93.9625 7.54145   1
  -1   1   5 57.0448 6.87035   1
   1   1  -5 60.1814 6.59621   2
   1   1  -5 55.9294 6.95626   1
  -1   1   5 62.0610 6.37599   2
   0  -1   5 219.443 13.5994   2
   0  -1   5 214.056 14.2010   1
   0  -1  -5 225.851 13.3573   1
   0  -1  -5 221.663 13.3235   1
   0  -1  -5 226.474 13.2094   2
   0   1   5 219.711 12.9171   1
   0   1  -5 230.461 14.1062   1
   0   1  -5 235.340 13.8073   2
   0   1  -5 221.115 14.2746   1
  -1  -1  -5 528.887 26.9822   2
   1  -1   5 491.565 28.1314   1
  -1  -1  -5 513.784 26.9434   1
   1  -1   5 513.275 27.8920   2
  -1  -1  -5 495.168 26.9183   1
  -1   1  -5 495.667 27.9143   2
   1   1   5 509.166 26.8023   2
  -1   1  -5 517.259 28.4785   1
  -1   1  -5 502.817 28.3974   1
   2  -1   5 705.758 35.6711   2
  -2   1  -5 634.668 36.1508   1
  -2   1  -5 643.838 35.6550   2
  -2   1  -5 642.424 36.2838   1
  -3  -1  -5 674.122 37.5507   1
  -3  -1  -5 706.354 37.5844   1
   3  -1   5 682.279 38.3523   1
  -3  -1  -5 680.879 37.2166   2
  -3   1  -5 719.586 39.3512   1
  -3   1  -5 737.278 39.1828   1
  -3   1  -5 754.050 38.7524   2
   4  -1   5 980.074 54.3195   1
  -4  -1  -5 992.175 53.5340   2
  -4  -1  -5 992.763 54.3012   1
  -4  -1  -5 1048.04 54.2878   1
  -4   1  -5 1006.57 55.7484   1
  -4   1  -5 1052.07 55.5506   1
  -4   1  -5 1035.26 54.9857   2
  -5  -1  -5 566.900 31.0133   1
  -5   1  -5 500.676 30.9129   2
  -5   1  -5 525.741 32.1126   1
  -6  -1  -5 51.4809 8.27682   1
  -6   1  -5 44.4601 8.82907   1
  -7  -1  -5 133.106 14.4964   1
  -7   1  -5 135.463 16.1149   1
  -8  -2   5 70.5920 14.9408   1
  -8   2   5 89.7651 16.3543   1
  -7  -2   5 80.8280 13.2461   1
   7   2  -5 51.5832 10.3489   2
  -7   2   5 45.1595 12.4649   1
   6  -2  -5 79.1334 12.2113   1
  -6  -2   5 77.4400 12.0788   1
   6   2  -5 86.0106 10.9941   2
  -6   2   5 77.3503 12.6918   1
   5  -2  -5 97.6981 12.5718   1
  -5  -2   5 84.8748 11.9333   1
   5   2  -5 84.7024 10.4229   1
  -5   2   5 78.5665 11.8597   1
   5   2  -5 92.5736 10.7290   2
  -4  -2   5 126.784 13.4775   1
   4  -2  -5 136.591 13.7543   1
   4   2  -5 134.153 12.2182   1
   4   2  -5 146.121 12.2251   2
  -4   2   5 133.487 14.1420   1
   3  -2  -5 806.054 48.3276   1
  -3  -2   5 820.172 48.2531   1
  -3   2   5 854.552 47.9572   2
  -3   2   5 899.629 48.6749   1
   3   2  -5 895.759 48.0396   1
   3   2  -5 907.714 47.8202   2
  -2  -2   5 1210.84 58.2910   1
   2  -2  -5 1227.64 57.7014   2
   2  -2  -5 1222.05 58.2586   1
  -2   2   5 962.104 57.4198   1
  -2   2   5 917.072 56.9600   2
   2   2  -5 931.791 57.0367   2
   2   2  -5 998.378 57.5241   1
   1  -2  -5 1024.30 57.8319   1
  -1  -2   5 961.949 57.5904   2
  -1  -2   5 980.456 58.1416   1
   1  -2  -5 1049.83 57.8832   1
   1  -2  -5 1024.46 57.4315   2
  -1   2   5 1166.43 57.7516   1
   1   2  -5 1190.75 58.1087   2
   1   2  -5 1161.26 58.4264   1
  -1   2   5 1181.85 57.6685   2
   0  -2  -5 1117.33 59.0103   2
   0  -2   5 1093.55 60.3575   1
   0  -2  -5 1095.54 59.1751   1
   0  -2  -5 1091.26 59.2307   1
   0   2  -5 1189.88 59.9777   2
   0   2   5 1156.58 58.5580   1
   1  -2   5 1463.36 83.0304   1
   1  -2   5 1499.97 82.6477   2
  -1   2  -5 1674.71 83.6093   1
  -1   2  -5 1656.42 83.0037   2
   2  -2   5 917.937 51.6632   2
   2  -2   5 972.288 52.3073   1
  -2   2  -5 947.134 51.8833   2
  -2   2  -5 1014.66 52.9036   1
   3  -2   5 186.341 14.1513   1
  -3   2  -5 197.430 14.2474   1
  -3   2  -5 210.302 15.3016   1
  -3   2  -5 199.183 13.7512   2
  -4  -2  -5 282.440 16.7391   1
   4  -2   5 269.800 18.9532   1
  -4  -2  -5 283.231 16.7636   1
  -4   2  -5 305.242 21.0738   1
  -4   2  -5 309.920 20.0279   1
  -4   2  -5 282.151 18.9208   2
  -5  -2  -5 67.1232 8.29743   1
  -5   2  -5 68.2497 9.12313   2
  -5   2  -5 66.7655 9.66998   1
  -6  -2  -5 12.3290 5.86742   1
  -6   2  -5 5.96939 6.88960   1
  -7  -2  -5 43.0297 8.59350   1
  -7   2  -5 44.2586 10.9275   1
  -7  -3   5 81.2793 14.3679   1
   7   3  -5 106.388 13.1042   2
  -7   3   5 124.478 17.0086   1
  -6  -3   5 441.982 30.5408   1
   6  -3  -5 408.810 30.7133   1
   6   3  -5 438.026 28.4776   2
  -6   3   5 451.405 31.2291   1
  -5  -3   5 335.800 25.2954   1
   5  -3  -5 343.217 25.7667   1
   5   3  -5 380.122 24.1381   2
  -5   3   5 379.768 26.5924   1
   4  -3  -5 535.683 33.1403   1
  -4  -3   5 543.265 32.7019   1
   4   3  -5 511.967 31.1287   2
   4   3  -5 512.161 31.2105   1
  -4   3   5 509.847 32.8692   1
  -3  -3   5 995.928 56.7233   1
   3  -3  -5 993.770 57.2498   1
  -3   3   5 1020.28 61.4790   2
  -3   3   5 1063.72 57.0852   1
   3   3  -5 1039.47 56.2593   1
   3   3  -5 1021.17 56.0686   2
  -2  -3   5 565.264 34.1456   1
   2  -3  -5 591.278 34.2093   1
  -2   3   5 592.165 33.3805   2
   2   3  -5 574.160 33.3359   2
  -2   3   5 578.434 33.6059   1
   2   3  -5 617.277 33.9754   1
   1  -3  -5 715.607 40.3377   1
   1  -3  -5 668.505 40.0187   1
  -1  -3   5 711.855 40.9362   1
   1   3  -5 713.777 40.1464   2
  -1   3   5 739.112 39.6851   2
  -1   3   5 727.213 39.5965   1
   1   3  -5 799.203 40.9600   1
   0  -3  -5 787.275 45.1648   1
   0  -3   5 841.130 46.8044   1
   0  -3  -5 847.020 45.4549   1
   0  -3   5 828.602 46.0787   2
   0   3  -5 841.350 46.1657   2
   0   3   5 883.636 44.6004   1
   0   3  -5 876.514 46.8537   1
  -1  -3  -5 594.710 31.6151   1
   1  -3   5 549.651 33.2457   2
   1  -3   5 574.046 34.1447   1
  -1  -3  -5 616.272 31.8251   1
  -1   3  -5 620.056 33.8062   2
   1   3   5 593.442 31.3230   2
  -1   3  -5 614.792 34.6208   1
   1   3   5 582.509 31.3368   2
   2  -3   5 244.369 16.5265   2
   2  -3   5 275.946 18.0370   1
  -2   3  -5 253.538 17.0014   2
   3  -3   5 303.282 21.2602   1
  -3   3  -5 314.360 22.1593   1
  -3   3  -5 332.791 20.7962   2
   4  -3   5 812.686 47.2926   1
  -4   3  -5 847.695 48.7976   1
  -4   3  -5 819.249 46.8079   2
  -5  -3  -5 649.133 32.6952   1
  -5   3  -5 583.135 36.4377   1
  -5   3  -5 558.141 35.2767   2
  -5   3  -5 524.624 37.1102   1
  -6  -3  -5 33.8698 6.88111   1
  -6   3  -5 50.8719 10.3341   1
  -6   3  -5 40.9533 11.3661   1
  -7  -3  -5 133.084 13.9101   1
  -7   3  -5 149.142 17.5012   1
  -7   3  -5 119.375 18.3495   1
  -7  -4   5 27.6096 10.9699   1
   7   4  -5 17.4145 8.25351   2
  -7   4   5 17.4865 10.9401   1
  -6  -4   5 64.5496 12.2806   1
   6  -4  -5 72.4130 13.6460   1
  -6   4   5 96.9277 14.6555   1
   6   4  -5 86.9222 11.5524   2
   5  -4  -5 5.28086 8.14467   1
  -5  -4   5 3.04418 7.32235   1
   5   4  -5 6.28570 6.07215   2
  -5   4   5 6.13856 7.76452   1
  -4  -4   5 65.9484 10.5556   1
   4  -4  -5 67.8490 11.3175   1
  -4   4   5 88.0959 11.6720   1
   4   4  -5 81.0904 10.1846   2
   3  -4  -5 355.246 24.1163   1
  -3  -4   5 342.448 23.3930   1
   3   4  -5 310.096 21.8072   1
   3   4  -5 350.058 22.2709   2
  -3   4   5 345.465 23.3874   1
  -2  -4   5 860.278 47.0215   1
   2  -4  -5 869.783 47.1219   1
   2   4  -5 782.432 45.7113   2
  -2   4   5 802.169 45.9846   1
  -2   4   5 821.252 45.8707   2
   2   4  -5 794.697 46.1348   1
   1  -4  -5 587.049 33.7945   1
  -1  -4   5 611.114 34.6424   1
  -1   4   5 552.409 32.9482   1
  -1   4   5 593.568 32.8650   2
   1   4  -5 580.593 33.4449   2
   1   4  -5 551.575 33.8094   1
   0  -4   5 432.156 26.3678   1
   0  -4  -5 422.263 24.3402   1
   0  -4  -5 463.756 25.1156   1
   0   4   5 417.725 23.3687   1
   0   4  -5 403.765 25.8925   1
   0   4   5 392.949 23.6480   2
   0   4  -5 405.502 25.3060   2
   1  -4   5 1373.36 78.1350   1
  -1  -4  -5 1332.92 75.4744   1
  -1  -4  -5 1375.41 75.8307   1
  -1   4  -5 1518.61 78.6332   1
   1   4   5 1474.86 75.1952   2
   1   4   5 1504.05 75.2071   2
  -1   4  -5 1519.31 77.7994   2
  -2  -4  -5 183.856 11.4869   1
   2  -4   5 202.518 16.1347   1
  -2  -4  -5 199.267 11.6903   1
  -2   4  -5 173.854 15.9875   1
  -2   4  -5 156.434 14.2848   2
  -3   4  -5 83.1775 10.5996   2
  -3   4  -5 83.2261 11.7375   1
   4  -4   5 193.814 17.9684   1
  -4   4  -5 223.465 19.6256   1
  -4   4  -5 199.761 16.9637   2
  -5  -4  -5 26.6346 5.21832   1
  -5   4  -5 34.6982 10.5989   1
  -5   4  -5 33.7121 8.59274   2
  -6  -4  -5 54.2607 7.57514   1
  -6   4  -5 52.0107 13.3149   1
  -7  -4  -5 41.8790 8.26717   1
  -7   4  -5 28.0901 11.6290   1
  -7   4  -5 26.9215 13.4259   1
  -6  -5   5 303.220 26.6016   1
   6  -5  -5 268.863 26.5563   1
  -6   5   5 359.961 27.3098   1
   6   5  -5 322.467 23.5092   2
   5  -5  -5 200.052 20.7455   1
  -5  -5   5 180.481 18.0261   1
   5   5  -5 144.486 15.4534   2
  -5   5   5 153.869 17.9778   1
  -4  -5   5 161.508 16.4422   1
   4  -5  -5 152.782 18.1355   1
  -4   5   5 172.449 17.3216   1
   4   5  -5 170.530 15.3035   2
  -3  -5   5 955.947 56.0336   1
   3  -5  -5 970.013 56.7424   1
   3   5  -5 988.613 54.8149   2
   3   5  -5 950.358 54.7466   1
  -3   5   5 1018.32 55.8905   1
   2  -5  -5 83.1889 11.3535   1
  -2  -5   5 76.9866 10.9905   1
   2   5  -5 82.8595 9.97550   2
  -2   5   5 72.9276 9.43765   2
  -2   5   5 70.9906 10.2859   1
  -2   5   5 75.5464 9.74480   1
   2   5  -5 80.0236 10.1024   1
   1  -5  -5 101.450 11.7271   1
  -1  -5   5 113.680 13.0936   1
  -1   5   5 84.7816 9.93021   1
  -1   5   5 91.4663 10.0896   2
   1   5  -5 94.3833 10.7864   2
   1   5  -5 94.2321 11.3335   1
  -1   5   5 82.6597 9.42266   2
   0  -5  -5 6.40823 5.59851   1
   0  -5   5 6.81073 6.78246   1
   0  -5  -5 10.2102 4.62206   1
   0   5   5 7.71291 4.75236   2
   0   5  -5 9.15382 5.76966   2
   0   5  -5 9.88616 6.19023   1
   0   5   5 8.08117 3.59447   1
  -1  -5  -5 75.6846 8.00700   1
  -1  -5  -5 78.0989 9.23245   1
   1  -5   5 78.9610 10.8803   1
   1   5   5 54.3044 6.48444   2
  -1   5  -5 47.2333 9.43914   1
   1   5   5 58.7827 6.47752   2
  -1   5  -5 54.1548 8.93265   2
  -2  -5  -5 258.951 17.2259   1
  -2  -5  -5 278.452 17.5628   1
   2  -5   5 296.538 21.9161   1
  -2   5  -5 280.436 20.2513   2
  -2   5  -5 270.745 22.0572   1
  -3  -5  -5 244.197 16.6876   1
  -3  -5  -5 247.396 16.8258   1
   3  -5   5 268.859 22.2657   1
  -3   5  -5 347.607 23.8792   1
  -3   5  -5 340.163 21.5384   2
  -4  -5  -5 505.807 28.6114   1
   4  -5   5 514.506 33.8932   1
  -4   5  -5 543.460 33.1928   2
  -4   5  -5 476.323 34.7997   1
  -5  -5  -5 275.507 17.2379   1
  -5   5  -5 270.128 25.2448   1
  -5   5  -5 254.286 22.0174   2
  -6  -5  -5 86.3550 10.3391   1
  -6   5  -5 97.2233 17.4554   1
  -6  -6   5 6.32575 10.6522   1
   6  -6  -5 21.5095 12.5222   1
  -6   6   5 13.0936 10.0517   2
   6   6  -5 21.8011 8.76445   2
  -6   6   5 13.0905 10.8076   1
   5  -6  -5 2.94515 10.7253   1
  -5  -6   5 12.5175 9.41541   1
  -5   6   5 18.3517 9.81307   2
  -5   6   5 10.7862 9.40211   1
   5   6  -5 20.0182 8.32847   2
  -4  -6   5 80.9801 13.0422   1
   4  -6  -5 81.7133 14.6054   1
  -4   6   5 96.1021 13.3570   1
  -4   6   5 98.6707 13.6580   2
   4   6  -5 92.3230 12.0514   2
  -4   6   5 68.2838 13.5767   1
  -3  -6   5 286.890 22.7283   1
   3  -6  -5 279.711 23.5462   1
   3   6  -5 278.555 20.6280   2
  -3   6   5 260.197 22.4435   1
  -3   6   5 280.450 21.5153   2
   2  -6  -5 73.1578 11.8705   1
  -2  -6   5 67.3487 11.4545   1
   2   6  -5 83.0331 10.7117   2
  -2   6   5 73.8515 10.6032   2
   1  -6  -5 772.070 44.1573   1
  -1  -6   5 780.783 45.1064   1
   1   6  -5 713.883 43.0983   2
  -1   6   5 739.635 42.5406   2
   1   6  -5 700.648 43.5801   1
   0  -6   5 145.276 16.0903   1
   0  -6  -5 133.041 13.9165   1
   0   6  -5 108.904 13.0067   2
   0   6  -5 104.253 13.2874   1
   0   6   5 118.377 11.6873   2
  -1  -6  -5 237.431 19.5529   1
   1  -6   5 236.168 22.4787   1
  -1   6  -5 321.111 21.7436   2
   1   6   5 330.962 18.4497   2
  -1   6  -5 275.417 22.3399   1
   2  -6   5 359.465 26.7251   1
  -2  -6  -5 339.057 22.1479   1
  -2   6  -5 353.117 24.7795   2
   2   6   5 343.726 19.9891   2
  -2   6  -5 354.921 26.7143   1
   2   6   5 337.445 20.0988   2
  -3  -6  -5 76.7215 8.85388   1
   3  -6   5 79.1705 13.5837   1
  -3   6  -5 40.3111 10.2811   2
  -3   6  -5 38.9434 11.9386   1
   4  -6   5 10.8138 9.24259   1
  -4  -6  -5 7.50803 5.34057   1
  -4   6  -5 17.2181 10.6343   1
  -4   6  -5 13.3178 8.78991   2
  -5  -6  -5 -0.9440 5.25051   1
  -5   6  -5 1.20154 10.5471   2
  -5   6  -5 8.13820 11.4222   1
  -5  -7   5 117.675 16.7306   1
   5  -7  -5 113.213 18.3567   1
   5   7  -5 78.6339 12.8849   2
  -5   7   5 86.2232 14.7462   2
   4  -7  -5 98.9792 16.5410   1
  -4  -7   5 110.606 15.5412   1
  -4   7   5 94.2891 14.3759   2
   4   7  -5 97.8163 13.3283   2
  -3  -7   5 166.841 19.5281   1
   3  -7  -5 162.077 19.3625   1
   3   7  -5 152.902 16.4148   2
  -3   7   5 162.598 18.0570   2
  -2  -7   5 49.5546 11.8135   1
   2  -7  -5 52.2644 12.0336   1
   2   7  -5 61.7642 10.3456   2
  -2   7   5 64.7284 11.0388   2
   1  -7  -5 185.846 18.6060   1
  -1  -7   5 198.563 19.7978   1
  -1   7   5 170.974 16.1480   2
   1   7  -5 168.823 16.6182   2
   0  -7  -5 13.8046 7.94561   1
   0  -7   5 11.8977 9.09446   1
   0   7   5 7.72184 6.30830   2
   0   7  -5 3.84207 6.93141   1
   0   7  -5 10.5329 7.70587   2
  -1  -7  -5 49.9277 9.73556   1
   1  -7   5 51.3955 12.2149   1
   1   7   5 47.7529 7.88192   2
  -1   7  -5 47.5256 11.0420   1
  -1   7  -5 48.2454 10.2213   2
   2  -7   5 62.4787 13.0517   1
  -2  -7  -5 72.9943 10.2656   1
  -2   7  -5 53.4722 12.3968   1
   2   7   5 67.5842 7.68015   2
  -2   7  -5 60.6549 12.0085   2
   3  -7   5 193.187 22.3277   1
  -3  -7  -5 235.683 18.2893   1
  -3   7  -5 255.508 21.7014   2
  -3   7  -5 208.577 23.4182   1
  -4  -7  -5 192.298 16.6488   1
   4  -7   5 240.969 25.2190   1
  -4   7  -5 215.000 25.6775   1
  -4   7  -5 227.108 22.2509   2
  -5  -7  -5 79.1247 10.1282   1
  -5   7  -5 56.1215 16.4408   1
  -4  -8   5 141.813 19.0717   1
   4  -8  -5 116.335 19.7236   1
  -4   8   5 167.840 19.4219   2
   4   8  -5 164.876 18.0346   2
   3  -8  -5 58.1299 14.6800   1
  -3  -8   5 36.0025 12.4312   1
  -3   8   5 65.2342 13.1503   2
   3   8  -5 52.6424 11.0393   2
   2  -8  -5 81.1948 15.5795   1
  -2  -8   5 76.6978 15.1632   1
   2   8  -5 83.4152 12.6659   2
  -2   8   5 98.7423 13.5717   2
   1  -8  -5 239.870 22.3192   1
  -1  -8   5 217.143 23.0689   1
  -1   8   5 211.826 19.0800   2
   1   8  -5 169.660 19.0686   2
   0  -8   5 125.218 17.8971   1
   0  -8  -5 151.911 17.8894   1
   0   8  -5 128.453 16.3033   2
   0   8   5 142.293 14.9268   2
  -1  -8  -5 149.804 17.5233   1
   1  -8   5 151.679 19.0478   1
  -1   8  -5 114.107 16.2015   2
   1   8   5 118.064 13.5314   2
  -2  -8  -5 105.769 14.0880   1
   2  -8   5 137.942 18.9226   1
   2   8   5 98.1750 11.3330   2
  -2   8  -5 103.653 15.4801   2
   3  -8   5 29.2612 12.6448   1
  -3  -8  -5 30.6884 9.51766   1
  -3   8  -5 10.0119 11.2777   1
  -3   8  -5 10.1005 10.4218   2
   2  -9  -5 30.8956 13.7935   1
  -2  -9   5 28.3201 13.7878   1
  -2   9   5 67.1894 13.2351   2
   2   9  -5 48.5210 11.8179   2
   1  -9  -5 59.4920 14.7367   1
  -1  -9   5 52.5048 14.9553   1
   1   9  -5 74.2894 12.8704   2
  -1   9   5 57.6716 12.2586   2
   0  -9  -5 11.7793 11.4188   1
   0  -9   5 8.87207 12.0718   1
   0   9  -5 14.0619 10.6384   2
   0   9   5 7.36501 8.59855   2
  -1  -9  -5 11.9215 10.8910   1
   1  -9   5 36.0107 14.5462   1
   1   9   5 24.5974 8.56028   2
  -1   9  -5 42.8240 12.2545   2
  -8   0   6 145.676 19.2732   1
  -7   0   6 135.988 16.9898   1
   6   0  -6 181.086 16.5181   2
  -6   0   6 142.244 17.0763   1
  -5   0   6 1337.01 75.0800   1
   5   0  -6 1400.51 74.2415   2
   5   0  -6 1313.20 74.5782   1
   4   0  -6 855.621 48.4729   2
  -4   0   6 850.019 49.2265   1
   4   0  -6 887.578 49.2750   1
   3   0  -6 5.38473 4.48993   1
   3   0  -6 12.5254 4.71234   2
  -3   0   6 11.5332 5.22958   1
   2   0  -6 628.449 34.6188   2
  -2   0   6 597.156 34.9513   1
   2   0  -6 639.228 35.1864   1
  -2   0   6 603.606 34.5989   2
   1   0  -6 525.258 29.3680   2
  -1   0   6 522.820 29.3587   2
  -1   0   6 528.065 29.6418   1
   1   0  -6 526.941 29.7081   1
   0   0  -6 96.4498 7.28286   2
   0   0  -6 87.4639 7.45198   1
   0   0   6 86.0651 7.52275   1
   0   0   6 87.1233 6.99716   2
   0   0  -6 88.7291 7.67709   1
  -1   0  -6 640.336 33.8507   2
  -1   0  -6 631.506 34.1346   1
   1   0   6 628.183 33.6004   1
  -1   0  -6 617.278 34.0922   1
  -2   0  -6 2132.00 109.017   1
   2   0   6 2071.03 108.378   2
  -2   0  -6 2074.97 108.908   1
  -2   0  -6 2091.98 108.597   2
  -3   0  -6 877.155 47.3083   1
  -3   0  -6 859.198 46.7082   2
  -3   0  -6 891.369 47.1060   1
  -4   0  -6 747.362 40.6819   1
  -4   0  -6 717.257 39.9983   2
  -4   0  -6 737.762 40.8660   1
  -5   0  -6 999.375 54.9797   1
  -6   0  -6 250.594 18.7576   1
  -7   0  -6 8.73926 7.31349   1
  -8  -1   6 59.6074 14.2920   1
  -8   1   6 46.3531 13.9830   1
  -7  -1   6 25.6418 10.2570   1
  -7   1   6 27.0895 10.6942   1
   6  -1  -6 25.4210 8.52905   1
  -6  -1   6 26.6627 8.98885   1
  -6   1   6 20.4492 8.85923   1
   6   1  -6 21.9464 7.59358   2
   5  -1  -6 567.144 35.6038   1
   5  -1  -6 538.990 34.8440   2
  -5  -1   6 573.175 35.8089   1
   5   1  -6 616.943 34.9173   2
   5   1  -6 563.898 34.8801   1
  -5   1   6 566.602 36.1757   1
   4  -1  -6 182.471 15.0215   2
  -4  -1   6 200.882 16.1428   1
   4  -1  -6 168.173 15.2583   1
   4   1  -6 172.117 14.2807   2
  -4   1   6 171.798 15.6496   1
   4   1  -6 178.910 14.7477   1
   3  -1  -6 1029.63 56.4554   1
  -3  -1   6 1042.80 56.3763   1
   3  -1  -6 1043.35 55.7872   2
  -3   1   6 975.574 56.1392   1
   3   1  -6 1029.69 56.2198   1
   3   1  -6 994.569 55.6617   2
   2  -1  -6 4423.03 224.344   1
  -2  -1   6 4272.13 224.260   1
  -2  -1   6 4161.28 223.812   2
   2  -1  -6 4269.63 223.763   2
   2   1  -6 4449.76 224.272   1
  -2   1   6 4223.59 224.065   1
   2   1  -6 4449.69 223.958   2
  -2   1   6 4334.36 223.826   2
  -1  -1   6 1249.04 73.4618   2
   1  -1  -6 1270.62 73.6689   1
  -1  -1   6 1278.35 73.9336   1
   1  -1  -6 1352.52 73.4246   2
   1  -1  -6 1345.95 73.7825   1
  -1   1   6 1568.81 73.9339   1
   1   1  -6 1548.29 74.0169   2
  -1   1   6 1534.81 73.6212   2
   0  -1   6 922.478 47.3859   1
   0  -1  -6 971.724 46.8325   1
   0  -1  -6 944.700 46.5008   2
   0  -1  -6 915.360 46.7131   1
   0  -1   6 946.802 47.0449   2
   0   1  -6 813.840 47.1851   1
   0   1  -6 810.443 46.7709   2
   0   1  -6 771.302 50.4736   1
   0   1   6 754.663 46.0545   1
  -1  -1  -6 387.043 21.3439   2
  -1  -1  -6 399.386 21.4488   1
   1  -1   6 388.859 22.1772   2
  -1  -1  -6 372.015 21.4287   1
   1  -1   6 378.501 22.5330   1
   1   1   6 396.107 21.1612   2
  -1   1  -6 420.525 22.9780   1
  -1   1  -6 389.282 22.7336   1
  -1   1  -6 393.699 22.3015   2
  -2  -1  -6 367.726 18.6588   2
  -2  -1  -6 375.895 18.8977   1
  -2  -1  -6 370.723 18.9326   1
   2  -1   6 365.109 19.9431   2
  -2   1  -6 289.834 20.3470   1
  -2   1  -6 305.663 20.3664   1
  -2   1  -6 300.339 19.7857   2
   3  -1   6 231.073 14.6972   1
  -3  -1  -6 227.533 13.2606   2
  -3  -1  -6 227.001 13.7610   1
  -3  -1  -6 232.519 13.6720   1
  -3   1  -6 231.992 15.4264   1
  -3   1  -6 239.413 15.4626   1
  -3   1  -6 228.042 14.8144   2
  -3   1  -6 242.145 16.2384   1
  -4  -1  -6 19.9660 4.67238   1
  -4  -1  -6 26.0751 4.76994   1
   4  -1   6 24.5269 5.70183   1
  -4  -1  -6 29.2538 4.00972   2
  -4   1  -6 23.2016 5.64489   1
  -4   1  -6 18.3114 5.74453   1
  -4   1  -6 23.8357 5.20229   2
  -5  -1  -6 215.287 15.6413   1
  -5   1  -6 242.455 17.3511   1
  -6  -1  -6 0.21406 5.29553   1
  -6   1  -6 1.34420 6.14026   1
  -7  -1  -6 104.292 12.1347   1
  -7   1  -6 86.3107 12.6799   1
  -7  -2   6 236.005 22.8703   1
   7   2  -6 226.501 20.2156   2
  -7   2   6 248.778 23.9311   1
   6   2  -6 120.203 13.8334   2
  -6   2   6 129.223 15.9962   1
   5  -2  -6 920.701 52.6628   1
  -5  -2   6 944.023 52.5176   1
   5   2  -6 863.209 50.7881   2
   5   2  -6 847.911 50.8500   1
  -5   2   6 894.828 52.6137   1
  -4  -2   6 621.203 36.3742   1
   4  -2  -6 590.738 36.2359   1
   4   2  -6 585.253 35.0354   2
  -4   2   6 591.011 36.3992   1
   4   2  -6 596.693 35.4801   1
   3  -2  -6 277.763 20.8252   1
   3  -2  -6 270.018 20.0108   2
  -3  -2   6 281.211 21.0573   1
   3   2  -6 322.867 20.3554   2
   3   2  -6 343.945 20.7562   1
  -3   2   6 349.381 21.3250   1
  -3   2   6 333.868 20.4791   2
   2  -2  -6 521.893 30.6157   1
  -2  -2   6 518.675 30.6752   1
   2  -2  -6 494.989 29.7756   2
   2   2  -6 532.654 30.5256   1
   2   2  -6 508.574 29.9989   2
  -2   2   6 518.534 29.9124   2
  -2   2   6 540.327 30.4633   1
  -1  -2   6 119.196 11.1314   1
   1  -2  -6 131.421 10.4785   1
  -1  -2   6 125.797 10.0129   2
   1  -2  -6 134.888 10.6375   1
   1  -2  -6 133.570 10.0085   2
   1   2  -6 134.008 10.3069   2
  -1   2   6 129.135 10.1368   1
   1   2  -6 132.608 10.7680   1
  -1   2   6 131.346 9.80663   2
   0  -2   6 70.0557 7.12054   2
   0  -2   6 70.7516 8.26398   1
   0  -2  -6 70.6117 6.51750   1
   0  -2  -6 65.9345 6.73715   1
   0  -2  -6 73.6693 6.40718   2
  -1  -2  -6 349.984 19.3676   2
  -1  -2  -6 338.888 19.4602   1
   1  -2   6 345.703 21.6664   1
  -1  -2  -6 332.762 19.3920   1
   1  -2   6 345.797 20.9865   2
  -1   2  -6 404.427 22.3129   1
  -1   2  -6 372.514 21.2383   2
   1   2   6 376.422 19.1820   2
   2  -2   6 1854.83 101.014   1
   2  -2   6 1806.76 100.555   2
  -2   2  -6 1998.55 101.752   1
  -2   2  -6 2009.79 100.966   2
   3  -2   6 585.230 35.1184   1
  -3   2  -6 590.573 36.1467   1
  -3   2  -6 680.483 35.3752   2
  -4  -2  -6 186.901 11.6574   1
  -4  -2  -6 178.929 11.4891   1
  -4   2  -6 164.537 15.8634   1
  -4   2  -6 186.342 14.1573   2
  -4   2  -6 186.640 15.0112   1
  -5  -2  -6 1167.45 61.8867   1
  -5   2  -6 1180.70 64.6111   1
  -5   2  -6 1125.38 65.4359   1
  -6  -2  -6 295.424 20.6177   1
  -6   2  -6 340.914 23.7404   1
  -7  -2  -6 5.15816 6.22519   1
  -7   2  -6 13.1184 8.85135   1
  -7  -3   6 87.7455 14.4279   1
   7   3  -6 76.0033 12.0761   2
  -7   3   6 85.7131 15.1741   1
   6  -3  -6 200.056 19.8691   1
  -6  -3   6 217.991 20.8319   1
   6   3  -6 212.230 18.2875   2
  -6   3   6 216.720 20.8841   1
  -5  -3   6 164.958 17.6592   1
   5  -3  -6 177.413 18.2411   1
   5   3  -6 195.437 16.1594   2
  -5   3   6 193.936 18.8627   1
   4  -3  -6 122.875 15.0996   1
  -4  -3   6 124.345 15.0727   1
   4   3  -6 162.450 13.6884   2
   4   3  -6 128.643 13.0745   1
  -4   3   6 148.729 15.3648   1
   3  -3  -6 513.391 33.1578   1
  -3  -3   6 511.510 33.1001   1
  -3   3   6 568.353 33.3912   1
  -3   3   6 545.840 33.6346   2
   3   3  -6 560.858 32.6687   1
   3   3  -6 578.537 32.5694   2
   2  -3  -6 1189.55 66.2057   1
  -2  -3   6 1098.94 66.0861   1
  -2   3   6 1265.73 65.5793   2
   2   3  -6 1251.07 65.7391   2
   2   3  -6 1241.28 66.1690   1
  -2   3   6 1232.63 65.7839   1
  -1  -3   6 1483.41 78.2716   1
   1  -3  -6 1516.39 77.4899   1
   1  -3  -6 1523.35 77.4470   1
  -1   3   6 1432.35 76.7556   2
   1   3  -6 1417.57 77.3319   2
   1   3  -6 1376.19 77.7529   1
  -1   3   6 1395.80 76.5400   1
   0  -3  -6 1320.31 69.2412   1
   0  -3   6 1304.40 70.7999   1
   0  -3   6 1283.89 70.0070   2
   0  -3  -6 1338.73 69.3816   1
   0   3   6 1310.98 68.1946   1
   0   3   6 1336.86 68.8158   2
   0   3  -6 1256.58 70.0285   2
   1  -3   6 176.274 14.0269   1
  -1  -3  -6 171.687 11.0474   1
  -1  -3  -6 182.071 11.2677   1
   1  -3   6 166.942 12.7433   2
  -1   3  -6 222.848 13.7541   2
   2  -3   6 227.047 15.4735   2
   2  -3   6 236.241 16.5987   1
  -2   3  -6 221.162 17.0929   1
  -2   3  -6 227.953 15.8827   2
   3  -3   6 291.436 19.6881   1
  -3   3  -6 293.667 20.7590   1
  -3   3  -6 251.008 18.6175   2
   4  -3   6 273.810 19.7717   1
  -4   3  -6 278.536 19.5637   2
  -4   3  -6 263.629 21.4138   1
  -5  -3  -6 43.0411 5.70839   1
  -5   3  -6 23.3234 9.13863   1
  -6  -3  -6 0.27693 4.99883   1
  -6   3  -6 12.8891 8.47442   1
  -6   3  -6 11.9839 9.78620   1
  -7  -3  -6 142.500 13.7538   1
  -7   3  -6 107.435 17.7347   1
  -7   3  -6 138.590 17.4002   1
  -7  -4   6 159.398 18.8892   1
  -7   4   6 110.543 17.3141   1
   7   4  -6 113.062 14.3977   2
   6  -4  -6 61.0031 13.1537   1
  -6  -4   6 72.5851 13.0317   1
  -6   4   6 69.3403 13.1643   1
   6   4  -6 70.5588 11.3685   2
  -5  -4   6 540.445 35.7419   1
   5  -4  -6 520.383 36.0056   1
   5   4  -6 568.056 34.0745   2
  -5   4   6 550.831 35.8520   1
  -4  -4   6 211.644 19.2513   1
   4  -4  -6 236.836 20.3661   1
   4   4  -6 224.280 19.8688   1
   4   4  -6 223.188 17.9441   2
  -4   4   6 255.391 20.0200   1
  -3  -4   6 10.2033 7.34694   1
   3  -4  -6 10.5794 7.58932   1
  -3   4   6 28.8700 7.37657   1
   3   4  -6 21.2837 6.57619   1
   3   4  -6 28.4657 6.94944   2
   2  -4  -6 288.806 20.6228   1
  -2  -4   6 295.610 20.7537   1
  -2   4   6 275.936 19.0431   2
  -2   4   6 280.663 19.1892   1
   2   4  -6 277.236 19.4562   2
   2   4  -6 289.137 19.8697   1
   1  -4  -6 32.9716 6.69642   1
   1  -4  -6 34.7308 6.62573   1
  -1  -4   6 36.7956 7.78596   1
  -1   4   6 34.0384 5.49948   1
   1   4  -6 27.4729 6.33353   2
   1   4  -6 38.7617 7.18465   1
  -1   4   6 31.0645 5.75427   1
  -1   4   6 34.2421 5.88112   2
   0  -4  -6 59.2322 7.39320   1
   0  -4  -6 61.7726 7.58508   1
   0  -4   6 63.0055 9.20665   1
   0   4  -6 37.7293 7.47828   1
   0   4   6 58.2942 6.72596   2
   0   4   6 56.8230 6.69633   2
   0   4  -6 67.1615 8.55671   2
  -1  -4  -6 136.676 10.9539   1
   1  -4   6 135.328 13.9082   1
  -1  -4  -6 125.932 10.3475   1
  -1   4  -6 165.591 13.2574   2
   1   4   6 170.853 10.0642   2
   1   4   6 170.309 10.0700   2
  -1   4  -6 177.439 14.8107   1
   2  -4   6 899.312 51.2797   1
  -2   4  -6 901.293 51.8995   1
  -2   4  -6 889.760 50.3353   2
   3  -4   6 354.820 24.5310   1
  -3   4  -6 335.305 23.2533   2
   4  -4   6 204.859 18.8143   1
  -4   4  -6 271.939 21.4793   1
  -5   4  -6 231.975 22.5293   1
  -6  -4  -6 205.371 14.6634   1
  -6   4  -6 205.071 22.6782   1
   6  -5  -6 67.0448 14.1374   1
  -6  -5   6 59.7797 13.2004   1
  -6   5   6 45.1788 12.5488   1
   6   5  -6 50.8641 10.3736   2
  -5  -5   6 29.6644 10.1091   1
   5  -5  -6 28.2758 10.6488   1
  -5   5   6 18.5997 9.66555   1
   5   5  -6 16.3841 7.74814   2
  -4  -5   6 142.330 16.2145   1
   4  -5  -6 138.618 17.2536   1
   4   5  -6 137.815 14.6256   2
  -4   5   6 144.539 16.1819   1
  -3  -5   6 344.210 27.6812   1
   3  -5  -6 354.364 28.1851   1
   3   5  -6 431.896 27.0110   1
   3   5  -6 447.681 26.8742   2
  -3   5   6 451.513 27.5192   1
  -2  -5   6 834.020 44.6381   1
   2  -5  -6 766.443 44.0474   1
  -2   5   6 737.509 42.4282   2
   2   5  -6 706.432 42.8894   1
  -2   5   6 675.687 42.7180   1
   2   5  -6 728.506 42.6425   2
  -2   5   6 720.701 42.1641   1
   1  -5  -6 592.459 35.8905   1
  -1  -5   6 578.179 37.0079   1
   1   5  -6 595.685 36.2239   1
  -1   5   6 611.426 34.6024   2
  -1   5   6 602.062 34.5896   2
   1   5  -6 603.810 35.6692   2
   0  -5  -6 688.456 37.2208   1
   0  -5  -6 639.377 36.4564   1
   0  -5   6 685.810 39.0913   1
   0   5  -6 651.958 38.5845   1
   0   5   6 632.195 35.6425   2
   0   5   6 544.283 35.1095   2
   0   5  -6 640.927 37.6942   2
  -1  -5  -6 235.380 14.0948   1
   1  -5   6 234.969 18.3095   1
  -1  -5  -6 237.387 14.7659   1
  -1   5  -6 167.097 17.0959   1
   1   5   6 170.292 12.7332   2
   1   5   6 172.709 12.6084   2
  -1   5  -6 159.442 15.6608   2
  -2  -5  -6 45.3973 6.36103   1
   2  -5   6 53.8107 10.7683   1
  -2  -5  -6 52.1000 6.59149   1
  -2  -5  -6 50.7927 5.96876   1
  -2   5  -6 75.8866 12.2805   1
  -2   5  -6 68.4716 10.2034   2
  -3  -5  -6 209.236 13.9200   1
  -3  -5  -6 218.339 14.0304   1
   3  -5   6 227.569 19.5994   1
  -3   5  -6 250.205 21.3381   1
  -3   5  -6 232.642 18.7451   2
   4  -5   6 47.8286 12.4033   1
  -4   5  -6 39.8736 9.19077   2
  -4   5  -6 34.3344 11.0072   1
  -5   5  -6 41.5045 12.4951   1
  -6  -5  -6 12.5917 5.26137   1
  -6   5  -6 17.5404 12.4719   1
  -6  -6   6 27.6271 12.4873   1
   6  -6  -6 38.5856 13.8414   1
   6   6  -6 36.7261 10.1845   2
  -6   6   6 42.2784 12.2562   2
  -5  -6   6 267.143 24.7844   1
   5  -6  -6 263.927 25.9906   1
   5   6  -6 292.675 22.7212   2
  -4  -6   6 159.879 18.8470   1
   4  -6  -6 162.218 19.9959   1
   4   6  -6 156.582 16.2741   2
  -4   6   6 152.870 17.5423   2
   3  -6  -6 112.708 14.7858   1
  -3  -6   6 113.535 14.3587   1
   3   6  -6 69.8032 10.9428   2
  -3   6   6 68.4229 11.7610   2
   2  -6  -6 52.4642 10.8054   1
  -2  -6   6 70.1289 12.0542   1
   2   6  -6 61.4586 10.1405   2
  -2   6   6 58.2636 9.48916   2
   2   6  -6 59.4475 10.4483   1
  -1  -6   6 79.3855 12.4589   1
   1  -6  -6 85.0381 11.7345   1
   1   6  -6 86.3212 11.4690   2
  -1   6   6 80.3364 10.1233   2
   1   6  -6 84.7350 11.7915   1
   0  -6   6 16.6159 8.97670   1
   0  -6  -6 32.0526 8.10109   1
   0   6  -6 25.4089 7.87477   2
   0   6   6 29.5826 6.53947   2
   0   6  -6 24.9959 8.29542   1
  -1  -6  -6 159.836 14.8321   1
   1  -6   6 157.891 18.3562   1
   1   6   6 182.690 12.6956   2
  -1   6  -6 203.482 16.8807   2
  -1   6  -6 149.729 17.3817   1
   1   6   6 181.738 13.0074   2
   2  -6   6 187.461 18.3921   1
  -2  -6  -6 179.212 13.8293   1
  -2   6  -6 131.932 15.9542   2
  -2   6  -6 131.885 16.7210   1
   3  -6   6 156.613 18.2867   1
  -3  -6  -6 155.192 12.9464   1
  -3   6  -6 159.424 19.7809   1
  -3   6  -6 189.566 17.7416   2
  -4  -6  -6 168.532 13.4819   1
  -4   6  -6 191.139 22.3254   1
  -4   6  -6 214.026 19.6191   2
  -5  -6  -6 144.611 11.7789   1
  -5   6  -6 115.972 18.8458   1
   5  -7  -6 16.9636 13.0054   1
  -5  -7   6 20.2555 11.9371   1
  -5   7   6 0.81975 9.73303   2
   5   7  -6 11.3814 9.12467   2
   4  -7  -6 22.3402 12.4045   1
  -4  -7   6 25.0154 11.0847   1
  -4   7   6 19.4313 10.0309   2
   4   7  -6 24.1623 9.12083   2
   3  -7  -6 255.430 24.2129   1
  -3  -7   6 258.980 24.2597   1
   3   7  -6 246.155 20.9323   2
  -3   7   6 243.792 21.6588   2
  -2  -7   6 333.714 27.3367   1
   2  -7  -6 344.935 27.5290   1
   2   7  -6 320.334 24.9658   2
  -2   7   6 383.643 25.4611   2
  -1  -7   6 92.7537 14.7174   1
   1  -7  -6 93.9931 13.6183   1
  -1   7   6 98.2967 12.0969   2
   1   7  -6 105.385 13.4623   2
   0  -7  -6 201.560 18.6249   1
   0  -7   6 192.159 20.6659   1
   0   7   6 202.502 16.3231   2
   0   7  -6 188.284 18.9614   1
   0   7  -6 230.087 19.1780   2
   1  -7   6 427.422 30.7692   1
  -1  -7  -6 414.821 27.3377   1
  -1   7  -6 383.367 29.5245   1
  -1   7  -6 380.766 28.2826   2
   1   7   6 401.192 24.7640   2
  -2  -7  -6 15.6464 7.34540   1
   2  -7   6 10.6835 10.0004   1
  -2   7  -6 23.4563 9.99058   2
  -2   7  -6 30.6653 11.2275   1
   3  -7   6 24.4389 11.0324   1
  -3  -7  -6 21.8154 7.40398   1
  -3   7  -6 24.3118 11.8752   1
  -3   7  -6 10.9417 9.60175   2
  -4  -7  -6 5.06583 6.00816   1
  -4   7  -6 -3.4150 9.09899   2
  -4   7  -6 0.95111 11.7144   1
   4  -8  -6 51.4125 16.1055   1
  -4  -8   6 42.1052 13.5180   1
   4   8  -6 45.8590 11.5738   2
  -4   8   6 52.3443 13.7515   2
   3  -8  -6 52.3319 14.7825   1
  -3  -8   6 40.3476 13.5376   1
   3   8  -6 59.2057 11.8638   2
  -3   8   6 56.7966 13.2460   2
  -2  -8   6 51.3216 13.2190   1
   2  -8  -6 42.1776 13.0561   1
   2   8  -6 40.8140 10.7268   2
  -2   8   6 36.4277 10.9524   2
   1  -8  -6 11.8600 10.1990   1
  -1  -8   6 12.8064 11.4089   1
  -1   8   6 19.8330 8.82396   2
   1   8  -6 20.9056 9.25401   2
   0  -8   6 9.44231 10.6814   1
   0  -8  -6 23.2688 10.1827   1
   0   8   6 0.88969 7.09625   2
   0   8  -6 3.92027 8.55480   2
   1  -8   6 39.2094 12.7994   1
  -1  -8  -6 28.8559 9.64347   1
   1   8   6 23.0053 7.13084   2
  -1   8  -6 31.8893 10.5770   2
  -2  -8  -6 151.007 17.1443   1
   2  -8   6 115.896 18.6392   1
   2   8   6 153.187 12.3803   2
  -2   8  -6 125.854 16.8102   2
  -3  -8  -6 80.9618 11.7268   1
   3  -8   6 79.4941 15.8944   1
  -3   8  -6 49.7212 14.7270   1
  -3   8  -6 49.4046 13.1884   2
  -1  -9   6 81.0117 17.0166   1
   1  -9  -6 86.8435 16.5863   1
   1   9  -6 82.5382 14.7592   2
  -1   9   6 100.427 14.2033   2
   0  -9   6 156.313 21.6236   1
   0  -9  -6 159.705 19.3197   1
   0   9   6 158.490 17.2168   2
   0   9  -6 150.261 18.7462   2
   1  -9   6 15.1567 13.1338   1
  -1  -9  -6 37.2714 11.9037   1
  -1   9  -6 7.94986 10.5248   2
   1   9   6 9.46658 7.71586   2
  -8   0   7 0.34790 10.6383   1
  -7   0   7 13.8705 9.76094   1
  -6   0   7 1.20235 7.52129   1
   6   0  -7 1.10050 6.95314   2
  -5   0   7 206.332 18.2672   1
   5   0  -7 170.612 16.6238   2
   5   0  -7 190.903 17.0602   1
   4   0  -7 1574.06 82.4446   2
   4   0  -7 1520.69 82.9101   1
  -4   0   7 1467.76 82.8707   1
   3   0  -7 1587.49 88.5924   2
   3   0  -7 1656.11 89.2652   1
  -3   0   7 1740.73 89.3907   1
  -2   0   7 502.445 29.4328   2
   2   0  -7 502.878 29.9623   1
   2   0  -7 509.170 29.5306   2
  -2   0   7 519.051 29.9403   1
  -1   0   7 4475.77 231.056   2
  -1   0   7 4294.32 231.187   1
   1   0  -7 4515.56 231.101   2
   1   0  -7 4595.63 231.548   1
   0   0   7 1105.37 58.1660   1
   0   0   7 1094.74 57.9891   2
   0   0  -7 1105.28 58.4856   1
   0   0  -7 1031.94 58.3583   1
   0   0  -7 1132.15 58.2054   2
  -1   0  -7 229.312 14.0953   1
   1   0   7 223.819 13.3986   1
  -1   0  -7 204.189 13.4811   2
  -1   0  -7 230.168 14.0606   1
  -2   0  -7 16.0904 4.11673   1
  -2   0  -7 18.8607 3.60693   2
   2   0   7 12.0599 3.13370   2
  -2   0  -7 18.3214 3.98564   1
  -3   0  -7 57.1806 6.86191   1
  -3   0  -7 51.5618 6.01214   2
  -3   0  -7 51.6943 6.32346   1
  -4   0  -7 51.3138 7.10891   1
  -4   0  -7 58.3469 6.52358   2
  -4   0  -7 55.6207 7.11958   1
  -5   0  -7 344.112 22.0539   1
  -6   0  -7 425.188 27.3243   1
  -7   0  -7 121.328 15.0562   1
  -7  -1   7 253.644 24.3992   1
   7   1  -7 258.084 22.4284   2
  -7   1   7 292.478 24.9575   1
   6  -1  -7 347.489 24.8283   1
  -6  -1   7 378.232 25.5095   1
   6   1  -7 269.387 22.9525   2
  -6   1   7 273.410 24.3977   1
   5  -1  -7 15.3473 7.63425   2
  -5  -1   7 13.2470 8.22521   1
   5  -1  -7 15.4653 7.64646   1
  -5   1   7 38.0925 9.77672   1
   5   1  -7 36.9029 8.44875   1
   5   1  -7 38.5489 8.38671   2
   4  -1  -7 508.428 30.7013   2
   4  -1  -7 504.535 31.4492   1
  -4  -1   7 533.475 31.6124   1
   4   1  -7 473.145 30.3324   2
   4   1  -7 480.016 30.8546   1
  -4   1   7 479.321 31.3303   1
   3  -1  -7 152.700 12.6417   2
  -3  -1   7 154.436 13.5074   1
   3  -1  -7 169.288 13.7621   1
   3   1  -7 135.132 12.8935   1
  -3   1   7 140.006 13.0892   1
   3   1  -7 141.772 12.3914   2
   2  -1  -7 293.429 18.7459   2
  -2  -1   7 292.460 18.8274   2
   2  -1  -7 304.529 19.4791   1
  -2  -1   7 282.639 19.4092   1
  -2   1   7 289.416 19.0807   1
   2   1  -7 303.959 18.8808   2
   2   1  -7 270.276 19.1233   1
  -2   1   7 314.164 18.8297   2
   1  -1  -7 409.239 22.2570   2
  -1  -1   7 374.552 23.0131   1
   1  -1  -7 397.331 22.6793   1
   1  -1  -7 394.106 22.6203   1
  -1  -1   7 380.964 22.2757   2
  -1   1   7 371.610 22.2413   1
   1   1  -7 352.530 22.6634   1
   1   1  -7 357.809 22.2509   2
  -1   1   7 346.508 21.9352   2
   0  -1   7 823.762 44.8942   2
   0  -1  -7 842.668 44.7938   1
   0  -1  -7 827.582 44.4266   2
   0  -1   7 802.619 45.2526   1
   0  -1  -7 776.740 44.6379   1
   0   1   7 843.107 44.2485   1
   0   1  -7 863.022 45.5979   1
   0   1  -7 861.483 45.1190   2
   1  -1   7 375.883 22.6860   2
  -1  -1  -7 373.431 22.1044   1
  -1  -1  -7 383.390 22.2676   1
   1  -1   7 379.180 23.0625   1
  -1  -1  -7 389.252 22.0265   2
  -1   1  -7 425.949 23.0245   2
   1   1   7 416.268 21.8438   2
  -1   1  -7 422.127 23.5619   1
  -1   1  -7 417.016 23.5890   1
  -2  -1  -7 354.892 20.0201   1
   2  -1   7 360.514 20.7987   2
  -2  -1  -7 351.137 19.6458   2
  -2  -1  -7 342.703 19.9355   1
  -2   1  -7 368.825 21.8841   1
  -2   1  -7 366.627 21.7179   1
  -2   1  -7 361.813 21.0190   2
  -3  -1  -7 1393.69 72.3051   1
  -3  -1  -7 1397.41 72.0058   2
  -3  -1  -7 1431.11 72.5985   1
   3  -1   7 1378.75 72.8991   1
  -3   1  -7 1336.04 74.1143   1
  -3   1  -7 1359.82 73.4071   2
  -3   1  -7 1373.68 74.3726   1
  -4  -1  -7 265.166 16.6955   1
  -4  -1  -7 256.388 16.7765   1
  -4  -1  -7 275.601 15.9174   2
  -4   1  -7 282.555 19.4963   1
  -4   1  -7 274.779 17.6272   2
  -4   1  -7 272.797 18.4297   1
  -5  -1  -7 78.6688 8.90574   1
  -5   1  -7 74.2263 9.74581   1
  -5   1  -7 73.4789 10.6848   1
  -6  -1  -7 273.060 19.2775   1
  -6   1  -7 279.927 20.8821   1
  -7  -1  -7 56.2953 9.88711   1
  -7   1  -7 82.0470 12.2427   1
  -7  -2   7 19.2848 10.4417   1
  -7   2   7 22.1169 10.9642   1
   7   2  -7 23.6862 9.13191   2
   6  -2  -7 24.8643 9.41276   1
  -6  -2   7 25.7539 9.61425   1
   6   2  -7 30.1000 8.71427   2
  -6   2   7 39.8472 10.9550   1
   5  -2  -7 312.720 23.3022   1
  -5  -2   7 317.838 23.5474   1
  -5   2   7 302.096 23.4528   1
   5   2  -7 280.796 21.6072   1
   5   2  -7 286.186 21.4501   2
  -4  -2   7 1132.71 64.2876   1
   4  -2  -7 1133.35 64.6043   1
   4   2  -7 1146.84 63.4372   2
  -4   2   7 1155.17 64.4658   1
   4   2  -7 1164.15 63.8616   1
   3  -2  -7 645.013 40.8602   1
   3  -2  -7 653.613 40.1863   2
  -3  -2   7 660.376 41.0051   1
  -3   2   7 746.072 41.0000   2
   3   2  -7 746.661 40.9215   1
  -3   2   7 766.383 41.2391   1
   3   2  -7 711.900 40.4007   2
  -2  -2   7 497.060 29.6366   1
   2  -2  -7 519.331 29.4660   1
   2  -2  -7 525.055 28.8363   2
   2   2  -7 470.914 28.7296   2
  -2   2   7 483.959 28.8985   1
   2   2  -7 489.636 29.2756   1
  -2   2   7 433.534 28.2629   2
  -1  -2   7 5231.59 259.190   1
   1  -2  -7 5099.75 257.977   2
   1  -2  -7 5055.90 258.444   1
  -1  -2   7 4733.28 258.340   2
   1  -2  -7 5247.23 258.572   1
   1   2  -7 4744.58 258.411   2
  -1   2   7 4796.86 257.816   2
  -1   2   7 5061.31 258.036   1
   1   2  -7 4990.43 258.991   1
   0  -2   7 721.215 43.2528   1
   0  -2  -7 699.891 41.9629   1
   0  -2   7 712.433 42.5949   2
   0  -2  -7 699.949 41.6517   2
   0  -2  -7 742.002 42.0939   1
   0   2   7 868.236 41.2452   1
   0   2  -7 905.288 43.8974   1
   0   2  -7 896.991 43.2890   2
   1  -2   7 437.816 25.1390   1
  -1  -2  -7 430.736 22.9566   1
   1  -2   7 441.490 24.4476   2
  -1  -2  -7 431.648 22.9805   1
  -1  -2  -7 424.597 22.7255   2
  -1   2  -7 420.309 25.1479   1
   1   2   7 373.788 22.3384   2
  -1   2  -7 370.165 24.2066   2
   2  -2   7 6.37053 4.51758   1
   2  -2   7 9.21824 3.97543   2
  -2   2  -7 15.9164 5.60987   1
  -2   2  -7 17.0747 4.62124   2
   3  -2   7 59.6326 7.96282   1
  -3   2  -7 64.7109 7.90877   2
  -3   2  -7 56.2494 8.64736   1
  -4  -2  -7 57.7776 6.46565   1
  -4   2  -7 80.0836 9.34261   2
  -4   2  -7 82.0464 10.8329   1
  -5  -2  -7 189.836 13.3426   1
  -5   2  -7 201.755 16.4700   1
  -5   2  -7 190.360 17.7940   1
  -6  -2  -7 366.648 23.3172   1
  -6   2  -7 334.010 27.5418   1
  -6   2  -7 425.968 27.0891   1
  -7   2  -7 88.5067 15.5484   1
  -7   2  -7 100.317 14.4429   1
  -7  -3   7 223.520 23.1028   1
   7   3  -7 187.863 18.8510   2
  -7   3   7 174.544 22.1917   1
   6  -3  -7 358.790 28.5783   1
  -6  -3   7 386.913 28.8239   1
   6   3  -7 408.728 26.9505   2
  -6   3   7 357.472 28.7640   1
  -5  -3   7 43.5231 10.0300   1
   5  -3  -7 34.6381 9.83352   1
   5   3  -7 64.6514 9.95217   2
  -5   3   7 53.7328 10.7748   1
   4  -3  -7 302.167 22.5809   1
  -4  -3   7 326.612 23.0330   1
   4   3  -7 252.050 20.3955   1
  -4   3   7 286.742 22.3254   1
   4   3  -7 276.551 20.5109   2
  -3  -3   7 187.939 15.7894   1
   3  -3  -7 183.509 15.6342   1
  -3   3   7 144.708 13.7302   2
   3   3  -7 138.159 13.8960   1
   3   3  -7 157.482 13.9561   2
  -3   3   7 154.700 14.9135   1
   2  -3  -7 243.621 17.9161   1
  -2  -3   7 247.839 18.5052   1
  -2   3   7 239.153 17.2224   1
  -2   3   7 259.102 17.0456   2
   2   3  -7 237.592 16.9933   2
   2   3  -7 243.187 17.7767   1
   1  -3  -7 22.9921 5.58353   1
   1  -3  -7 22.6538 5.74011   1
  -1  -3   7 19.2270 6.24783   1
   1   3  -7 23.8448 6.06362   1
  -1   3   7 26.2064 4.78084   1
   1   3  -7 29.8673 6.26910   2
  -1   3   7 22.2298 4.99518   2
   0  -3   7 214.571 14.9496   2
   0  -3  -7 220.424 14.2332   1
   0  -3   7 197.527 15.9199   1
   0  -3  -7 227.791 14.5702   1
   0   3  -7 206.707 15.0464   2
   0   3  -7 220.270 15.9089   1
   0   3   7 217.042 13.5481   2
  -1  -3  -7 480.660 25.5454   1
   1  -3   7 463.087 27.2723   2
  -1  -3  -7 478.145 25.6138   1
   1  -3   7 462.706 28.3439   1
   1   3   7 451.327 24.7688   2
  -1   3  -7 432.952 28.0485   1
  -1   3  -7 444.802 27.3356   2
   2  -3   7 355.141 22.5233   1
   2  -3   7 354.349 21.4293   2
  -2   3  -7 311.036 22.8285   1
  -2   3  -7 332.660 21.7820   2
   3  -3   7 881.906 49.8103   2
   3  -3   7 907.750 50.4911   1
  -3   3  -7 852.246 51.2235   1
  -3   3  -7 932.192 50.2585   2
  -4   3  -7 629.603 36.8544   2
  -4   3  -7 610.366 38.4854   1
  -5   3  -7 38.9993 10.2005   1
  -6  -3  -7 73.0782 8.24470   1
  -6   3  -7 44.4689 12.1969   1
  -7  -3  -7 45.5801 8.20877   1
  -7   3  -7 63.3126 15.0094   1
  -7  -4   7 2.29804 10.7443   1
   7   4  -7 7.07203 8.08757   2
  -7   4   7 7.76660 10.5207   1
   6  -4  -7 4.19592 9.16129   1
  -6  -4   7 -2.4939 8.85619   1
   6   4  -7 2.10620 7.42709   2
  -6   4   7 0.97614 9.00311   1
   5  -4  -7 176.845 19.0901   1
  -5  -4   7 177.164 18.7703   1
  -5   4   7 188.414 19.0047   1
   5   4  -7 161.976 16.6888   2
   4  -4  -7 689.479 43.5408   1
  -4  -4   7 706.041 43.0035   1
  -4   4   7 735.921 42.9404   1
   4   4  -7 715.737 41.7588   2
   4   4  -7 676.388 42.1025   1
   3  -4  -7 361.123 24.5917   1
  -3  -4   7 346.148 24.3554   1
  -3   4   7 296.296 22.5246   1
   3   4  -7 332.627 22.7429   2
   3   4  -7 307.954 22.6714   1
   2  -4  -7 923.718 54.5497   1
  -2  -4   7 867.130 54.9429   1
  -2   4   7 1017.16 53.9165   2
   2   4  -7 1013.28 54.9413   1
  -2   4   7 989.889 53.8612   1
   2   4  -7 1004.73 54.3936   2
  -1  -4   7 586.501 34.9171   1
   1  -4  -7 572.413 33.6649   1
   1  -4  -7 586.853 33.5733   1
   1   4  -7 557.834 33.6304   2
  -1   4   7 547.305 32.4845   2
   1   4  -7 559.281 34.2247   1
   0  -4   7 476.132 31.1034   1
   0  -4  -7 469.425 28.8677   1
   0  -4  -7 468.611 29.2004   1
   0   4  -7 538.875 31.3493   1
   0   4  -7 527.779 30.2772   2
   0   4   7 526.740 28.3336   2
  -1  -4  -7 429.411 23.6262   1
   1  -4   7 410.419 26.5283   1
  -1  -4  -7 410.454 23.1744   1
   1   4   7 395.019 22.2321   2
  -1   4  -7 382.570 26.4132   1
  -1   4  -7 397.966 25.3774   2
   1   4   7 392.143 22.2697   2
  -2  -4  -7 194.770 11.7940   1
   2  -4   7 172.110 16.5710   1
  -2   4  -7 170.851 16.9651   1
  -2   4  -7 190.816 15.6173   2
   3  -4   7 262.809 20.8064   1
  -3   4  -7 285.303 20.1161   2
  -3   4  -7 268.772 21.9811   1
  -4   4  -7 16.3126 7.18047   2
  -4   4  -7 17.3535 8.79461   1
  -5   4  -7 153.409 19.0969   1
  -6  -4  -7 186.534 13.5599   1
  -6   4  -7 200.855 23.2903   1
  -6  -5   7 229.892 23.8835   1
   6  -5  -7 213.135 23.7562   1
  -6   5   7 226.199 22.8197   1
   6   5  -7 199.067 19.8286   2
   5  -5  -7 76.5717 14.1846   1
  -5  -5   7 93.7265 14.1953   1
  -5   5   7 47.5253 11.4613   1
   5   5  -7 31.0716 9.29000   2
   4  -5  -7 293.152 24.0586   1
  -4  -5   7 289.767 23.0714   1
  -4   5   7 250.264 21.4165   1
   4   5  -7 241.687 20.5310   2
  -3  -5   7 343.494 27.1875   1
   3  -5  -7 365.421 27.4121   1
  -3   5   7 403.461 25.9861   1
   3   5  -7 376.391 25.8224   1
   3   5  -7 383.969 25.3827   2
   2  -5  -7 34.5674 9.39909   1
  -2  -5   7 36.6033 9.77389   1
  -2   5   7 25.8083 6.81424   1
  -2   5   7 40.5159 7.71420   2
   2   5  -7 32.9544 8.01033   1
  -2   5   7 28.6794 7.66664   1
   2   5  -7 32.2882 8.01694   2
   1  -5  -7 115.692 14.1144   1
  -1  -5   7 112.601 14.2285   1
  -1   5   7 141.753 12.3318   2
   1   5  -7 158.788 14.7889   1
   1   5  -7 147.978 14.1795   2
  -1   5   7 164.579 17.0992   1
   0  -5  -7 172.243 13.0174   1
   0  -5   7 168.850 16.6092   1
   0  -5  -7 148.643 13.7932   1
   0   5   7 134.448 11.4821   2
   0   5   7 130.612 11.5560   2
   0   5  -7 126.057 14.9769   1
   0   5  -7 138.929 14.1298   2
  -1  -5  -7 261.396 16.4093   1
  -1  -5  -7 255.742 17.3353   1
   1  -5   7 268.829 20.8540   1
  -1   5  -7 219.435 18.7471   2
   1   5   7 251.075 15.4006   2
  -1   5  -7 227.229 20.3597   1
   1   5   7 245.174 15.2917   2
   2  -5   7 527.808 33.5753   1
  -2  -5  -7 512.870 28.8058   1
  -2  -5  -7 534.531 29.3544   1
  -2   5  -7 500.196 34.1959   1
  -2   5  -7 498.169 32.6439   2
   3  -5   7 286.678 21.9763   1
  -3   5  -7 261.195 23.4632   1
  -3   5  -7 262.209 20.7661   2
  -4   5  -7 178.813 17.4179   2
  -4   5  -7 165.362 19.9366   1
  -5   5  -7 98.1121 16.4279   1
  -6   5  -7 63.1706 15.4810   1
   6  -6  -7 4.90443 11.8099   1
  -6  -6   7 6.83708 11.5513   1
   6   6  -7 7.43020 8.34951   2
   5  -6  -7 54.3757 14.1519   1
  -5  -6   7 54.6865 13.0552   1
   5   6  -7 63.1398 11.7503   2
   4  -6  -7 190.379 22.4400   1
  -4  -6   7 203.613 21.3115   1
   4   6  -7 190.056 18.2835   2
   3  -6  -7 281.937 24.3825   1
  -3  -6   7 254.673 23.7829   1
   3   6  -7 285.572 21.5335   2
   2  -6  -7 308.561 25.0788   1
  -2  -6   7 325.925 26.0245   1
   2   6  -7 351.424 24.6294   1
   2   6  -7 344.334 24.5475   2
  -2   6   7 371.135 24.2057   2
   1  -6  -7 530.662 33.1269   1
  -1  -6   7 584.692 35.0145   1
   1   6  -7 508.807 32.6558   2
  -1   6   7 500.303 31.0247   2
   1   6  -7 459.102 32.7522   1
   0  -6  -7 315.116 22.4590   1
   0  -6   7 321.755 24.7823   1
   0   6  -7 308.286 23.7068   1
   0   6  -7 320.505 23.1001   2
   0   6   7 304.923 20.4362   2
  -1  -6  -7 61.6070 10.0404   1
   1  -6   7 75.7926 13.0186   1
   1   6   7 102.758 9.36449   2
   1   6   7 101.821 10.4275   2
  -1   6  -7 96.0338 12.1678   2
  -1   6  -7 124.935 15.1747   1
   2  -6   7 95.5588 14.2972   1
  -2  -6  -7 106.195 10.8911   1
  -2   6  -7 67.7011 11.8267   2
  -2   6  -7 69.3822 13.2772   1
  -3  -6  -7 6.08431 5.19350   1
   3  -6   7 3.74171 8.65909   1
  -3   6  -7 16.4310 8.66038   2
  -3   6  -7 7.05743 9.78101   1
  -4   6  -7 10.8131 11.2128   1
  -4   6  -7 -2.2675 8.00649   2
  -5   6  -7 2.71293 11.7742   1
  -5  -7   7 118.150 18.1667   1
   5  -7  -7 118.973 19.6907   1
   5   7  -7 115.337 15.6572   2
  -5   7   7 127.587 17.7055   2
  -4  -7   7 43.3558 12.7478   1
   4  -7  -7 51.3427 14.0153   1
  -4   7   7 46.6905 11.6407   2
  -3  -7   7 70.5579 13.9780   1
   3  -7  -7 55.8576 13.4757   1
  -3   7   7 64.2482 12.1197   2
   3   7  -7 69.9143 12.0373   2
  -2  -7   7 19.5055 10.4565   1
   2  -7  -7 12.4597 9.67626   1
   2   7  -7 27.2430 9.36912   2
  -2   7   7 12.3482 8.41656   2
  -1  -7   7 24.2684 10.8168   1
   1  -7  -7 32.0744 9.66499   1
  -1   7   7 41.9814 9.06479   2
   1   7  -7 45.0620 10.1519   2
   0  -7   7 161.041 19.2839   1
   0  -7  -7 171.875 17.3181   1
   0   7  -7 126.805 16.4842   1
   0   7  -7 147.050 16.7328   2
   0   7   7 144.831 14.0986   2
  -1  -7  -7 90.8587 11.9305   1
   1  -7   7 77.5946 14.4130   1
  -1   7  -7 69.6313 13.2083   1
  -1   7  -7 101.919 14.1717   2
   1   7   7 92.7977 10.5663   2
   2  -7   7 123.715 17.4475   1
  -2  -7  -7 158.811 14.8976   1
  -2   7  -7 131.169 18.0181   1
  -2   7  -7 118.167 15.6776   2
  -3  -7  -7 220.822 17.8189   1
   3  -7   7 241.185 24.3239   1
  -3   7  -7 232.442 22.5871   2
  -3   7  -7 228.258 25.0450   1
  -4  -7  -7 151.796 13.5787   1
  -4   7  -7 155.842 21.5024   1
  -4   7  -7 146.930 18.1615   2
   3  -8  -7 83.1059 16.5665   1
  -3  -8   7 82.4496 16.0331   1
   3   8  -7 63.4056 12.5494   2
  -3   8   7 85.3605 14.5682   2
   2  -8  -7 205.774 23.6484   1
  -2  -8   7 231.985 25.3115   1
   2   8  -7 226.689 21.3724   2
  -2   8   7 200.377 20.8014   2
  -1  -8   7 213.928 25.1721   1
   1  -8  -7 207.243 22.5756   1
  -1   8   7 235.943 19.8678   2
   1   8  -7 219.510 21.5009   2
   0  -8   7 120.747 18.2490   1
   0  -8  -7 117.880 16.0816   1
   0   8  -7 122.547 16.1081   2
   0   8   7 125.184 13.4841   2
   1  -8   7 8.04232 11.3647   1
  -1  -8  -7 21.6675 9.36132   1
  -1   8  -7 9.24526 9.66121   2
   1   8   7 13.3439 6.57262   2
  -2  -8  -7 41.4462 10.4300   1
   2  -8   7 62.6693 14.3131   1
  -2   8  -7 42.5188 14.3560   1
  -2   8  -7 46.4576 11.9345   2
  -3  -8  -7 31.9541 9.51967   1
   3  -8   7 24.1067 15.1553   1
  -3   8  -7 40.8683 13.9139   1
  -3   8  -7 26.2432 11.7346   2
   0  -9   7 31.4718 14.6183   1
   0  -9  -7 50.3474 13.4325   1
   0   9   7 25.2399 9.24304   2
  -7   0   8 98.4999 15.3715   1
   6   0  -8 256.554 23.5919   1
   6   0  -8 284.812 22.4324   2
  -6   0   8 274.944 23.1969   1
   5   0  -8 221.721 18.9986   1
  -5   0   8 224.628 19.8172   1
   5   0  -8 222.117 18.3011   2
   4   0  -8 64.2602 10.0519   1
  -4   0   8 62.5993 10.6371   1
   4   0  -8 72.4615 10.1956   2
  -3   0   8 9.07959 5.96355   1
   3   0  -8 6.28225 5.59780   1
   3   0  -8 5.49288 5.11107   2
   2   0  -8 158.732 13.3901   1
   2   0  -8 171.369 12.8350   2
  -2   0   8 160.076 12.4202   2
  -2   0   8 158.992 13.3565   1
   1   0  -8 1080.99 56.8092   2
  -1   0   8 1072.99 56.7355   2
   1   0  -8 1042.62 57.1607   1
  -1   0   8 1007.59 56.8465   1
   0   0  -8 701.692 38.4671   1
   0   0   8 690.114 37.8372   2
   0   0  -8 720.612 38.1166   2
   0   0   8 674.135 37.9961   1
   0   0  -8 673.855 38.3912   1
  -1   0  -8 1732.15 92.8059   1
  -1   0  -8 1740.75 92.8069   1
   1   0   8 1772.84 92.0582   1
  -1   0  -8 1812.02 92.4941   2
  -2   0  -8 222.160 14.0738   2
   2   0   8 229.228 13.8441   2
  -2   0  -8 224.495 14.6313   1
  -2   0  -8 226.335 14.8697   1
  -3   0  -8 337.616 20.8418   1
  -3   0  -8 345.358 21.0507   1
  -3   0  -8 336.465 19.9492   2
  -4   0  -8 251.217 17.7526   1
  -4   0  -8 250.138 16.0577   2
  -5   0  -8 58.2879 9.26783   1
  -5   0  -8 60.0501 8.34638   1
  -6   0  -8 -0.0204 6.01752   1
  -7   0  -8 -1.4208 6.95971   1
  -7  -1   8 45.7810 12.5020   1
   7   1  -8 37.2925 10.8129   2
  -7   1   8 37.1671 11.7510   1
   6  -1  -8 121.369 15.0936   1
  -6  -1   8 113.946 15.2551   1
   6   1  -8 128.984 14.8123   2
  -6   1   8 120.240 15.9552   1
   5  -1  -8 67.2243 11.8226   1
   5  -1  -8 78.6648 11.5163   2
  -5  -1   8 62.0757 11.4839   1
   5   1  -8 101.893 12.7377   1
  -5   1   8 95.6632 12.7905   1
   5   1  -8 102.540 12.2093   2
   4  -1  -8 438.039 27.4323   2
   4  -1  -8 434.182 28.1468   1
  -4  -1   8 429.064 28.1241   1
   4   1  -8 386.064 26.7048   2
   4   1  -8 422.290 27.6460   1
  -4   1   8 404.754 27.9724   1
  -3  -1   8 907.094 48.7202   1
   3  -1  -8 943.805 48.1755   2
   3  -1  -8 925.653 48.9463   1
   3   1  -8 782.707 47.5790   2
  -3   1   8 795.743 48.0666   1
   3   1  -8 750.407 48.0768   1
   2  -1  -8 1152.01 60.8375   1
  -2  -1   8 1051.80 59.9025   2
  -2  -1   8 1046.75 60.4522   1
   2  -1  -8 1134.64 60.0247   2
   2   1  -8 1158.70 60.8689   1
   2   1  -8 1069.63 59.9941   2
  -2   1   8 1083.60 59.9125   2
  -2   1   8 1127.02 60.3656   1
   1  -1  -8 592.651 34.9543   2
  -1  -1   8 592.748 35.8624   1
  -1  -1   8 560.498 35.0297   2
   1  -1  -8 610.019 35.5776   1
   1   1  -8 684.273 36.2097   1
  -1   1   8 650.186 35.1174   2
   1   1  -8 667.598 35.6585   2
  -1   1   8 668.120 35.4076   1
   0  -1  -8 932.501 48.3366   1
   0  -1  -8 961.635 47.9746   2
   0  -1   8 937.673 48.8780   1
   0  -1   8 906.285 48.3078   2
   0  -1  -8 955.549 48.3908   1
   0   1  -8 842.840 48.7920   1
   0   1  -8 848.562 48.3214   2
   0   1   8 796.183 47.4482   2
   0   1   8 829.328 47.4459   1
   1  -1   8 195.378 13.5723   1
  -1  -1  -8 181.810 12.7327   1
  -1  -1  -8 185.467 12.3375   2
   1  -1   8 188.400 13.0066   2
  -1  -1  -8 190.618 12.7077   1
  -1   1  -8 211.348 14.1007   1
  -1   1  -8 210.363 13.3394   2
   1   1   8 210.091 12.1646   2
  -1   1  -8 209.038 14.1171   1
   2  -1   8 12.0810 3.88611   2
   2  -1   8 9.44516 4.09312   1
  -2  -1  -8 5.84782 3.38694   1
  -2  -1  -8 8.59585 2.89281   2
  -2  -1  -8 6.76212 3.37148   1
  -2   1  -8 8.04671 4.71146   1
  -2   1  -8 7.77370 3.96962   2
   2   1   8 10.8044 2.76223   2
  -2   1  -8 8.07655 4.25764   1
  -3  -1  -8 46.2274 5.36091   2
  -3  -1  -8 55.8770 6.26729   1
   3  -1   8 50.1054 6.41724   1
  -3  -1  -8 52.8345 6.30133   1
  -3   1  -8 58.5162 8.07752   1
  -3   1  -8 69.5111 8.16745   1
  -3   1  -8 71.3512 7.56254   2
  -4  -1  -8 283.095 16.6581   2
  -4  -1  -8 277.763 17.6042   1
  -4  -1  -8 304.284 17.6560   1
  -4  -1  -8 269.345 18.1568   1
  -4   1  -8 296.770 18.5098   2
  -4   1  -8 267.988 20.0537   1
  -5  -1  -8 159.177 12.2603   1
  -5   1  -8 121.685 14.5977   1
  -6  -1  -8 156.878 14.5043   1
  -6   1  -8 156.471 17.8811   1
  -6   1  -8 199.313 16.6914   1
  -7  -1  -8 128.916 14.7902   1
  -7   1  -8 148.926 17.5355   1
  -7   1  -8 134.237 17.5522   1
  -7  -2   8 377.984 29.1581   1
   7   2  -8 326.174 26.1210   2
  -7   2   8 326.372 28.9111   1
  -6  -2   8 160.373 19.7113   1
   6  -2  -8 151.437 19.0016   1
  -6   2   8 240.950 21.6807   1
   6   2  -8 227.748 18.9027   2
  -5  -2   8 180.630 17.9845   1
   5  -2  -8 170.232 17.3068   1
   5   2  -8 166.818 16.1854   2
   5   2  -8 158.189 15.7688   1
  -5   2   8 177.651 17.9701   1
  -4  -2   8 58.6268 10.5061   1
   4  -2  -8 54.8561 10.2272   1
   4  -2  -8 60.6088 9.60725   2
   4   2  -8 45.2631 8.82667   1
   4   2  -8 57.4884 8.89228   2
  -4   2   8 35.6655 9.29013   1
   3  -2  -8 6.49330 6.24697   1
  -3  -2   8 6.59241 6.37804   1
   3  -2  -8 4.64427 5.63890   2
   3   2  -8 5.16448 5.37672   1
   3   2  -8 7.87819 5.70345   2
  -3   2   8 6.14891 6.14405   1
   2  -2  -8 210.109 16.3833   1
   2  -2  -8 220.366 15.6065   2
  -2  -2   8 205.167 16.6474   1
   2   2  -8 215.852 16.1602   1
  -2   2   8 207.857 15.7854   1
   2   2  -8 223.388 15.7158   2
  -2   2   8 212.721 15.1222   2
   1  -2  -8 695.867 40.8756   2
  -1  -2   8 672.006 41.2695   2
  -1  -2   8 711.731 42.2589   1
   1  -2  -8 713.480 41.6463   1
   1  -2  -8 669.237 41.2234   1
   1   2  -8 807.750 41.9775   2
   1   2  -8 828.563 42.6450   1
  -1   2   8 791.372 41.1962   1
  -1   2   8 809.557 41.1572   2
   0  -2   8 877.315 46.4466   2
   0  -2  -8 852.354 45.8182   1
   0  -2  -8 842.973 45.6606   1
   0  -2  -8 858.562 45.3604   2
   0  -2   8 879.740 47.1626   1
   0   2  -8 846.986 47.1353   1
   0   2  -8 811.269 46.3413   2
   0   2   8 773.201 44.3995   1
   1  -2   8 1028.85 55.0782   2
  -1  -2  -8 1071.85 53.5738   2
   1  -2   8 1083.88 55.7836   1
  -1  -2  -8 1072.34 53.8928   1
  -1  -2  -8 1056.22 53.8753   1
  -1   2  -8 921.026 55.6110   1
  -1   2  -8 940.011 54.9646   2
   1   2   8 935.708 53.1311   2
   2  -2   8 786.219 47.3293   2
  -2  -2  -8 867.457 45.7065   1
   2  -2   8 850.786 47.9704   1
  -2  -2  -8 858.677 45.6606   1
  -2   2  -8 908.027 47.9256   2
  -2   2  -8 933.117 49.0777   1
   3  -2   8 275.584 17.6409   2
  -3   2  -8 265.055 18.0753   2
  -3   2  -8 255.412 19.0326   1
  -4  -2  -8 119.849 8.44632   1
  -4   2  -8 92.8403 10.7543   2
  -4   2  -8 105.370 13.2673   1
  -5  -2  -8 93.8716 8.88457   1
  -5   2  -8 86.9465 12.5788   1
  -6  -2  -8 15.3563 5.69077   1
  -6   2  -8 3.50382 8.60941   1
  -7  -2  -8 39.5617 8.56088   1
  -7   2  -8 41.9337 12.7143   1
  -7  -3   8 45.4415 12.8963   1
   7   3  -8 29.6869 9.67336   2
  -7   3   8 34.8325 12.5290   1
  -6  -3   8 155.876 19.1264   1
   6  -3  -8 132.732 17.0234   1
   6   3  -8 146.453 16.6994   2
  -6   3   8 162.577 19.3413   1
  -5  -3   8 58.7133 11.5817   1
   5  -3  -8 62.9541 11.9039   1
   5   3  -8 50.0525 9.97747   2
  -5   3   8 48.2472 11.2029   1
  -4  -3   8 655.823 37.3822   1
   4  -3  -8 634.544 37.1423   1
  -4   3   8 544.227 36.1873   1
   4   3  -8 532.902 35.0975   2
   4   3  -8 524.984 35.3793   1
   3  -3  -8 1484.43 81.2508   1
  -3  -3   8 1492.38 81.2599   1
  -3   3   8 1479.53 80.6237   1
   3   3  -8 1455.82 80.2023   2
   3   3  -8 1466.98 80.5496   1
  -3   3   8 1463.77 80.1723   2
  -2  -3   8 670.250 42.7197   1
   2  -3  -8 689.855 42.2196   1
  -2   3   8 737.583 41.5247   2
   2   3  -8 750.236 42.7093   1
  -2   3   8 782.203 41.9413   1
   2   3  -8 761.089 42.2426   2
   1   3  -8 272.885 18.8047   2
  -1   3   8 269.363 17.5734   2
   1   3  -8 289.566 19.6722   1
   0  -3  -8 947.908 49.8976   1
   0  -3  -8 957.835 50.0244   1
   0  -3   8 968.378 51.7456   1
   0  -3   8 926.923 50.7822   2
   0   3  -8 887.377 50.7165   2
   0   3  -8 864.494 51.3145   1
   0   3   8 861.781 49.0056   2
  -1  -3  -8 93.6544 8.51599   1
  -1  -3  -8 95.9262 8.43316   1
   1  -3   8 98.3920 9.93547   2
   1  -3   8 94.2061 11.6179   1
  -1   3  -8 106.615 10.4453   2
  -1   3  -8 112.599 12.0956   1
   1   3   8 105.333 7.34591   2
   2  -3   8 57.8137 8.81589   1
   2  -3   8 44.2352 7.12009   2
  -2   3  -8 56.0793 9.38190   1
  -2   3  -8 62.3999 8.59020   2
   3  -3   8 2.42039 5.98539   1
   3  -3   8 4.46471 4.60440   2
  -3   3  -8 15.0403 6.01829   2
  -3   3  -8 14.2912 7.52837   1
  -4   3  -8 308.526 21.5324   2
  -4   3  -8 314.191 23.5900   1
  -5   3  -8 170.404 18.7713   1
  -6  -3  -8 137.469 11.3217   1
  -6   3  -8 121.274 17.2274   1
  -7  -4   8 86.1283 16.4450   1
   7   4  -8 85.8630 13.5810   2
  -7   4   8 83.1053 15.8524   1
  -6  -4   8 209.157 22.5343   1
   6  -4  -8 180.804 21.7496   1
   6   4  -8 185.645 18.8240   2
  -6   4   8 196.273 21.3725   1
  -5  -4   8 131.412 16.4088   1
   5  -4  -8 108.598 15.4705   1
   5   4  -8 131.954 15.0570   2
  -5   4   8 134.339 16.4840   1
  -4  -4   8 39.5296 10.2167   1
   4  -4  -8 36.4201 10.3252   1
   4   4  -8 53.2486 9.71501   2
  -4   4   8 49.3311 9.83220   1
   4   4  -8 60.5513 10.0129   1
   3  -4  -8 353.239 25.7484   1
  -3  -4   8 343.772 25.8959   1
  -3   4   8 348.906 25.6977   2
   3   4  -8 354.378 25.0652   1
  -3   4   8 361.333 24.7190   1
   3   4  -8 391.156 25.1318   2
  -2  -4   8 54.5617 10.0248   1
   2  -4  -8 50.7910 9.43052   1
   2   4  -8 16.8606 6.96980   1
  -2   4   8 26.0789 6.67020   1
   2   4  -8 21.0310 6.87372   2
  -2   4   8 18.6306 6.24848   2
  -1  -4   8 816.572 45.2989   1
   1  -4  -8 778.662 43.7046   1
   1  -4  -8 788.909 43.4672   1
   1   4  -8 731.333 43.5172   2
  -1   4   8 747.892 42.3823   2
   1   4  -8 718.473 44.2691   1
  -1   4   8 755.590 42.2732   1
  -1   4   8 744.415 41.6882   1
   0  -4   8 510.315 32.6046   1
   0  -4  -8 490.352 30.0680   1
   0  -4  -8 500.845 30.3845   1
   0   4  -8 521.287 32.4172   1
   0   4  -8 562.224 31.6967   2
   0   4   8 525.383 29.3570   2
  -1  -4  -8 267.414 18.0216   1
  -1  -4  -8 268.196 17.6794   1
   1  -4   8 270.417 21.3239   1
   1   4   8 312.665 16.6374   2
  -1   4  -8 301.802 21.7879   1
  -1   4  -8 297.278 20.3124   2
   2  -4   8 317.313 23.0439   1
  -2  -4  -8 299.016 18.3003   1
  -2  -4  -8 291.225 18.0723   1
  -2   4  -8 342.673 22.0940   2
  -2   4  -8 370.023 24.4285   1
   3  -4   8 613.494 36.6073   1
  -3   4  -8 589.296 37.9857   1
  -3   4  -8 570.024 35.9633   2
  -4   4  -8 187.002 16.7130   2
  -4   4  -8 185.784 19.0461   1
  -5   4  -8 68.4003 13.5276   1
  -6   4  -8 36.7356 13.2059   1
   6  -5  -8 70.4504 15.5265   1
  -6  -5   8 88.3038 15.9043   1
  -6   5   8 85.0450 17.6799   1
   6   5  -8 95.5216 13.6388   2
  -5  -5   8 129.082 17.8571   1
   5  -5  -8 164.792 20.4376   1
  -5   5   8 162.588 18.4042   1
   5   5  -8 196.444 17.9014   2
  -4  -5   8 535.001 34.6754   1
   4  -5  -8 532.936 35.0885   1
  -4   5   8 470.982 32.8481   1
   4   5  -8 461.995 32.0890   2
   3  -5  -8 561.192 35.4742   1
  -3  -5   8 528.649 35.1949   1
   3   5  -8 497.273 33.1152   2
   3   5  -8 515.184 33.6254   1
  -2  -5   8 536.620 34.1084   1
   2  -5  -8 491.859 32.8587   1
   2   5  -8 499.412 32.6541   1
   2   5  -8 520.075 32.4408   2
  -1  -5   8 398.136 28.7741   1
   1  -5  -8 409.032 27.4850   1
  -1   5   8 424.609 25.8302   2
   1   5  -8 407.550 28.0527   1
   1   5  -8 439.126 27.6970   2
   0  -5  -8 429.600 26.7916   1
   0  -5   8 464.214 29.5155   1
   0   5   8 410.414 24.9336   2
   0   5  -8 433.722 28.8436   1
   0   5  -8 390.839 27.3629   2
   0   5   8 408.557 24.8233   2
   1  -5   8 30.5370 9.27922   1
  -1  -5  -8 26.7102 6.73303   1
   1   5   8 26.1042 4.65428   2
   1   5   8 23.1034 4.77829   2
  -1   5  -8 27.7005 9.30538   1
  -1   5  -8 22.9982 7.77532   2
  -2  -5  -8 0.05973 4.39702   1
   2  -5   8 -2.4666 6.86670   1
  -2  -5  -8 0.13957 3.53011   1
  -2   5  -8 4.97197 6.39445   2
  -2   5  -8 -1.1405 7.53225   1
   3  -5   8 45.6758 10.3749   1
  -3   5  -8 37.1365 9.13647   2
  -3   5  -8 40.6404 11.1458   1
  -4   5  -8 269.059 21.4879   2
  -4   5  -8 252.750 24.4773   1
  -5   5  -8 85.4071 15.7168   1
   5  -6  -8 78.5158 15.8059   1
  -5  -6   8 85.1231 15.2489   1
   5   6  -8 84.8316 13.4625   2
  -4  -6   8 8.02886 10.1818   1
   4  -6  -8 8.92370 10.5121   1
   4   6  -8 16.1331 8.15881   2
  -3  -6   8 60.6056 12.6685   1
   3  -6  -8 84.2144 13.8096   1
   3   6  -8 61.1757 11.1877   2
  -2  -6   8 17.6160 9.48316   1
   2  -6  -8 13.1409 8.74243   1
   2   6  -8 9.42622 7.78313   2
  -2   6   8 2.22560 7.10781   2
   2   6  -8 4.67415 6.68953   1
  -1  -6   8 208.364 19.7100   1
   1  -6  -8 202.006 17.6598   1
   1   6  -8 144.240 16.2833   2
  -1   6   8 157.714 14.3951   2
   1   6  -8 152.748 16.6821   1
   0  -6   8 274.060 24.3748   1
   0  -6  -8 242.691 21.3485   1
   0   6  -8 300.549 24.0883   1
   0   6  -8 335.410 23.1209   2
   0   6   8 339.978 20.1146   2
  -1  -6  -8 374.009 23.5362   1
   1  -6   8 364.111 26.7889   1
  -1   6  -8 321.355 25.0243   2
   1   6   8 331.682 20.6206   2
  -1   6  -8 331.967 26.5197   1
  -2  -6  -8 286.458 19.2421   1
   2  -6   8 280.938 23.8735   1
  -2   6  -8 305.281 23.0597   2
  -2   6  -8 259.509 24.2796   1
   3  -6   8 100.511 14.4867   1
  -3  -6  -8 89.6978 9.89965   1
  -3   6  -8 86.7139 13.5787   2
  -3   6  -8 69.0749 14.5528   1
  -4   6  -8 166.690 21.6342   1
  -5   6  -8 73.6462 17.2499   1
  -4  -7   8 127.821 18.1392   1
   4  -7  -8 153.307 20.1196   1
  -4   7   8 138.585 17.2226   2
   4   7  -8 78.8331 14.9001   2
   3  -7  -8 338.050 29.3023   1
  -3  -7   8 355.537 29.9487   1
  -3   7   8 351.109 26.3561   2
   3   7  -8 336.074 26.3118   2
  -2  -7   8 375.755 31.1170   1
   2  -7  -8 386.699 30.2173   1
   2   7  -8 382.100 28.3545   2
  -2   7   8 408.417 27.5587   2
  -1  -7   8 131.106 17.8145   1
   1  -7  -8 130.735 16.5022   1
   1   7  -8 148.841 16.8147   2
  -1   7   8 149.406 15.2740   2
   0  -7   8 123.544 16.8471   1
   0  -7  -8 145.264 16.3088   1
   0   7   8 113.705 12.4744   2
   0   7  -8 76.7795 13.3382   2
   0   7  -8 87.0264 13.8967   1
   1  -7   8 97.6228 15.4608   1
  -1  -7  -8 98.8666 12.4684   1
  -1   7  -8 79.6357 14.3222   1
  -1   7  -8 92.9448 14.4255   2
   1   7   8 88.6548 10.3280   2
   2  -7   8 26.3141 11.0612   1
  -2  -7  -8 28.8084 7.97182   1
  -2   7  -8 13.7046 9.58665   2
  -2   7  -8 14.2372 10.7338   1
  -3  -7  -8 16.2230 6.94661   1
  -3   7  -8 23.5636 12.5486   1
  -3   7  -8 43.9292 11.2850   2
  -4   7  -8 69.2637 16.4363   1
   3  -8  -8 10.9499 12.9502   1
  -3  -8   8 25.9799 13.1429   1
  -3   8   8 10.0770 10.8563   2
   3   8  -8 20.3254 10.4290   2
   2  -8  -8 -2.4256 10.8576   1
  -2  -8   8 -0.0531 10.9590   1
   2   8  -8 -8.8265 8.46079   2
  -2   8   8 9.18363 9.23812   2
  -1  -8   8 131.509 19.5685   1
   1  -8  -8 125.031 17.3349   1
  -1   8   8 145.451 16.5028   2
   1   8  -8 116.164 16.2695   2
   0  -8   8 108.348 17.4197   1
   0  -8  -8 128.437 16.0337   1
   0   8   8 97.8598 12.0183   2
   0   8  -8 71.5415 13.6236   2
  -1  -8  -8 76.5201 13.0059   1
   1  -8   8 86.1334 15.8702   1
   1   8   8 64.6619 9.03269   2
  -1   8  -8 89.0672 14.5886   2
   2  -8   8 206.458 23.7825   1
  -2  -8  -8 172.499 18.4050   1
  -2   8  -8 162.098 21.2110   1
  -2   8  -8 202.378 21.3481   2
   7   0  -9 91.8984 14.4139   2
  -7   0   9 102.030 16.1687   1
  -6   0   9 245.243 22.9870   1
   6   0  -9 249.479 21.4830   2
   6   0  -9 257.175 22.0481   1
   5   0  -9 321.399 22.9501   2
   5   0  -9 294.544 23.5411   1
  -5   0   9 312.086 24.1041   1
   4   0  -9 175.334 16.9828   1
   4   0  -9 193.035 16.2728   2
  -4   0   9 177.832 17.2980   1
   3   0  -9 1623.38 85.5656   1
  -3   0   9 1532.30 85.0088   1
   3   0  -9 1542.58 84.5521   2
  -2   0   9 104.690 10.4527   2
   2   0  -9 99.2550 10.5632   2
  -2   0   9 111.917 11.2519   1
   2   0  -9 105.297 11.3384   1
  -1   0   9 74.4518 8.42082   2
   1   0  -9 84.4618 9.42530   1
   1   0  -9 84.8737 8.78425   2
  -1   0   9 87.7969 9.44355   1
   0   0   9 321.385 20.0794   1
   0   0   9 324.858 19.7254   2
   0   0  -9 337.428 20.1444   2
   0   0  -9 339.763 20.5830   1
   0   0  -9 318.884 20.5446   1
   1   0   9 26.6998 4.76642   1
  -1   0  -9 29.5817 4.96471   2
  -1   0  -9 28.0316 5.41259   1
  -1   0  -9 29.5165 5.39601   1
  -2   0  -9 215.772 13.5414   2
  -2   0  -9 190.631 14.1129   1
  -2   0  -9 203.351 14.3285   1
   2   0   9 207.117 13.1275   2
  -3   0  -9 175.332 13.0866   1
  -3   0  -9 181.703 12.2014   2
  -3   0  -9 164.211 13.3983   1
  -4   0  -9 64.8626 8.99547   1
  -5   0  -9 234.714 18.3363   1
  -6   0  -9 164.482 17.2310   1
  -7  -1   9 145.257 19.3425   1
   7   1  -9 176.596 19.5918   2
  -7   1   9 193.260 22.0939   1
  -6  -1   9 316.283 24.8283   1
   6  -1  -9 285.396 23.6093   1
   6  -1  -9 296.746 23.3236   2
   6   1  -9 254.519 22.1664   2
  -6   1   9 264.957 24.5230   1
   5  -1  -9 86.5406 12.5461   2
   5  -1  -9 79.4333 12.4277   1
  -5  -1   9 90.5659 13.5887   1
   5   1  -9 92.5945 12.9181   1
   5   1  -9 103.283 12.4015   2
  -5   1   9 88.8708 13.1244   1
  -4  -1   9 141.168 15.6452   1
   4  -1  -9 118.317 13.6599   2
   4  -1  -9 122.904 15.0484   1
   4   1  -9 122.857 14.4463   1
  -4   1   9 142.590 15.4499   1
   4   1  -9 133.491 13.9248   2
  -3  -1   9 92.5825 12.2401   1
   3  -1  -9 90.3708 11.9642   1
   3  -1  -9 98.0158 11.6208   2
   3   1  -9 132.897 13.1382   1
   3   1  -9 121.021 12.3281   2
  -3   1   9 118.621 13.1250   1
   2  -1  -9 490.653 30.3488   2
   2  -1  -9 515.827 31.2094   1
  -2  -1   9 485.203 31.0086   1
   2   1  -9 528.734 30.6681   2
  -2   1   9 531.724 30.4587   2
  -2   1   9 509.153 30.6601   1
   2   1  -9 527.969 31.4035   1
  -1  -1   9 733.318 36.4772   1
   1  -1  -9 732.323 35.4333   2
  -1  -1   9 705.768 35.4684   2
   1  -1  -9 732.333 36.0598   1
  -1   1   9 525.354 34.4645   2
  -1   1   9 521.731 34.6275   1
   1   1  -9 498.213 35.2663   1
   1   1  -9 531.293 34.9677   2
   0  -1  -9 1522.27 79.8029   2
   0  -1   9 1487.46 80.2184   2
   0  -1   9 1506.51 80.7813   1
   0  -1  -9 1482.80 80.2318   1
   0  -1  -9 1490.67 80.3737   1
   0   1   9 1517.16 79.6176   2
   0   1   9 1521.60 79.5032   1
   0   1  -9 1582.83 80.5857   2
   0   1  -9 1474.08 80.9359   1
  -1  -1  -9 665.763 37.5987   2
  -1  -1  -9 716.627 38.1906   1
  -1  -1  -9 632.567 37.9368   1
   1  -1   9 676.195 38.5794   1
   1  -1   9 643.551 38.1561   2
  -1   1  -9 713.302 38.6536   2
   1   1   9 745.703 37.4756   2
  -1   1  -9 724.809 39.3344   1
  -1   1  -9 711.255 39.6214   1
  -2  -1  -9 763.183 41.6553   1
  -2  -1  -9 776.318 41.0944   2
  -2  -1  -9 770.613 41.6468   1
   2  -1   9 756.681 42.0140   2
   2  -1   9 779.688 42.0635   1
  -2   1  -9 764.240 42.2862   2
  -2   1  -9 769.975 43.2023   1
   2   1   9 749.501 40.6800   2
  -2   1  -9 758.004 43.1480   1
  -3  -1  -9 283.974 18.0063   1
  -3  -1  -9 291.922 17.8101   1
  -3  -1  -9 272.125 16.7886   2
  -3   1  -9 301.648 19.5920   1
  -3   1  -9 310.136 20.2054   1
  -3   1  -9 285.190 18.5185   2
  -4  -1  -9 177.321 13.5067   1
  -4   1  -9 170.015 15.2293   1
  -5  -1  -9 14.2868 6.33988   1
  -5   1  -9 9.23858 7.28870   1
  -6  -1  -9 -1.3073 5.48329   1
  -6  -1  -9 -1.7545 6.85459   1
  -6   1  -9 5.67716 7.93022   1
  -7  -2   9 -1.7786 9.70477   1
   7   2  -9 25.8215 10.0303   2
  -7   2   9 22.8969 11.6068   1
   6  -2  -9 260.365 23.5056   1
  -6  -2   9 288.448 24.0746   1
  -6   2   9 236.649 23.5104   1
   6   2  -9 274.556 21.9969   2
   5  -2  -9 405.809 29.7068   1
  -5  -2   9 445.167 30.1588   1
  -5   2   9 416.357 29.6538   1
   5   2  -9 393.032 28.5655   1
   5   2  -9 431.350 28.6363   2
   4  -2  -9 398.168 28.0875   2
  -4  -2   9 394.159 29.1458   1
   4  -2  -9 395.733 28.9348   1
  -4   2   9 461.566 29.3750   1
   4   2  -9 458.071 28.3935   2
   4   2  -9 450.107 29.1902   1
   3  -2  -9 504.731 30.1881   2
   3  -2  -9 519.433 31.3886   1
  -3  -2   9 505.612 31.5449   1
   3   2  -9 430.422 29.7709   2
   3   2  -9 478.581 30.6755   1
  -3   2   9 473.668 30.6157   1
   2  -2  -9 294.632 20.7031   1
   2  -2  -9 288.763 19.6851   2
  -2  -2   9 318.185 21.7100   1
   2   2  -9 294.311 20.1047   2
  -2   2   9 272.380 19.3099   2
  -2   2   9 290.315 20.0384   1
   2   2  -9 306.820 20.8603   1
  -1  -2   9 394.510 25.2587   1
   1  -2  -9 411.186 24.4642   1
   1  -2  -9 384.053 23.4110   2
   1  -2  -9 371.239 25.4311   1
  -1  -2   9 353.931 23.5891   2
  -1   2   9 387.776 23.3067   2
   1   2  -9 394.465 24.2073   2
   1   2  -9 386.334 24.8833   1
  -1   2   9 400.223 23.3989   1
   0  -2   9 71.8720 8.53160   2
   0  -2  -9 82.0042 8.67298   1
   0  -2  -9 78.5034 8.65651   1
   0  -2   9 84.7350 9.84634   1
   0  -2  -9 73.8632 7.81065   2
   0   2  -9 84.2450 9.49020   2
   0   2  -9 86.5617 10.1329   1
   0   2   9 84.7804 6.95372   1
   1  -2   9 117.772 11.6596   1
  -1  -2  -9 104.122 8.56158   2
   1  -2   9 116.216 10.1741   2
  -1  -2  -9 106.729 9.26283   1
  -1  -2  -9 114.463 9.33229   1
  -1   2  -9 119.797 10.8017   2
  -1   2  -9 119.866 11.5118   1
   1   2   9 115.477 8.12137   2
   2  -2   9 18.1712 6.01408   1
  -2  -2  -9 11.6359 3.91754   1
   2  -2   9 10.9756 4.69419   2
  -2  -2  -9 11.7824 3.74678   1
  -2   2  -9 11.6101 6.12705   1
  -2   2  -9 8.96107 5.08595   2
  -3  -2  -9 388.513 20.8827   1
  -3  -2  -9 389.577 21.0297   1
   3  -2   9 361.090 22.5787   2
  -3   2  -9 328.049 24.5441   1
  -3   2  -9 339.254 23.0050   2
  -4  -2  -9 189.808 12.2015   1
  -4  -2  -9 178.334 12.4940   1
  -4   2  -9 170.740 16.3984   1
  -5  -2  -9 142.651 10.7687   1
  -5  -2  -9 115.698 11.6423   1
  -5   2  -9 140.944 16.3087   1
  -6  -2  -9 253.845 16.7398   1
  -6   2  -9 186.277 21.5333   1
  -7  -3   9 15.1016 11.6831   1
   7   3  -9 44.5015 11.4077   2
  -7   3   9 40.1851 12.9695   1
  -6  -3   9 155.327 18.8853   1
   6  -3  -9 144.042 18.5036   1
  -6   3   9 165.670 19.7076   1
   6   3  -9 147.924 17.2495   2
  -5  -3   9 48.2549 11.6716   1
   5  -3  -9 41.0747 11.2170   1
  -5   3   9 54.3400 11.7135   1
   5   3  -9 57.7534 10.6603   2
  -4  -3   9 155.077 17.0160   1
   4  -3  -9 144.326 17.1233   1
   4   3  -9 129.174 15.2284   2
   4   3  -9 133.509 15.2531   1
  -4   3   9 139.233 16.3898   1
   3  -3  -9 23.1995 8.43023   1
  -3  -3   9 16.0091 8.53255   1
  -3   3   9 17.2861 7.49840   1
  -3   3   9 29.8420 8.30819   2
   3   3  -9 30.9376 8.00873   2
   3   3  -9 15.8025 7.33123   1
   2  -3  -9 738.441 40.1983   2
   2  -3  -9 727.874 41.2139   1
  -2  -3   9 761.289 42.1407   1
  -2   3   9 649.484 39.7467   1
   2   3  -9 655.616 40.9516   1
   2   3  -9 687.500 40.4179   2
  -2   3   9 647.289 39.5353   2
  -1  -3   9 858.159 50.8024   1
   1  -3  -9 875.622 49.7206   1
   1  -3  -9 834.484 49.4303   1
   1  -3  -9 891.779 48.8828   2
   1   3  -9 894.000 50.6837   1
   1   3  -9 928.286 50.1662   2
  -1   3   9 926.707 48.8811   2
   0  -3  -9 878.464 46.7634   1
   0  -3  -9 842.960 46.3746   1
   0  -3  -9 876.086 45.9087   2
   0  -3   9 863.726 48.5614   1
   0   3  -9 794.141 48.1149   1
   0   3  -9 801.226 47.3235   2
   0   3   9 831.238 45.6667   2
   1  -3   9 799.896 45.5618   2
   1  -3   9 796.253 46.4170   1
  -1  -3  -9 775.800 43.8469   1
  -1  -3  -9 814.909 44.0159   1
   1   3   9 854.622 43.0165   2
  -1   3  -9 808.719 46.8860   1
  -1   3  -9 808.075 45.8036   2
  -2  -3  -9 561.953 27.8921   1
   2  -3   9 520.242 30.4409   2
   2  -3   9 553.161 31.5773   1
  -2   3  -9 429.485 30.2621   2
  -2   3  -9 448.336 31.6387   1
  -3   3  -9 195.173 15.9171   2
  -3   3  -9 203.511 18.2987   1
  -4   3  -9 160.825 17.2421   1
  -5   3  -9 23.9689 9.71043   1
  -6  -3  -9 -1.7558 4.35729   1
  -6   3  -9 -0.6054 9.63940   1
   6  -4  -9 83.3202 15.5345   1
  -6  -4   9 81.4463 15.1436   1
  -6   4   9 86.8324 14.8398   1
   6   4  -9 73.8368 12.4154   2
  -5  -4   9 285.530 25.8975   1
   5  -4  -9 289.955 26.2614   1
   5   4  -9 321.974 24.0703   2
  -5   4   9 340.707 25.6212   1
  -4  -4   9 163.291 18.6980   1
   4  -4  -9 154.358 18.3235   1
  -4   4   9 193.553 17.5012   1
   4   4  -9 178.796 16.9415   2
   4   4  -9 180.505 17.1922   1
  -3  -4   9 768.259 42.5079   1
   3  -4  -9 698.142 41.6528   1
  -3   4   9 636.961 39.8933   1
   3   4  -9 610.942 40.5996   1
   3   4  -9 643.152 40.1392   2
   2  -4  -9 544.367 33.2641   1
  -2  -4   9 550.193 34.5204   1
   2   4  -9 520.184 32.4542   2
  -2   4   9 509.560 31.2248   1
  -2   4   9 478.336 31.1495   2
   2   4  -9 520.178 33.1652   1
  -1  -4   9 319.758 24.4337   1
   1  -4  -9 346.179 29.0281   1
   1  -4  -9 310.138 22.4555   1
   1   4  -9 353.437 24.1140   1
   1   4  -9 336.394 23.1855   2
  -1   4   9 316.626 21.1286   2
  -1   4   9 353.202 21.3180   1
   0  -4  -9 34.5161 6.85168   1
   0  -4   9 40.6375 9.51957   1
   0  -4  -9 36.8285 7.22492   1
   0   4  -9 20.4298 7.62618   1
   0   4  -9 17.1928 6.69675   2
   0   4   9 20.8365 5.12091   2
   1  -4   9 8.91239 7.40532   1
  -1  -4  -9 -1.6132 4.73412   1
  -1  -4  -9 5.88581 4.76016   1
  -1   4  -9 14.5428 6.68815   2
  -1   4  -9 10.0236 7.17289   1
   1   4   9 2.32529 3.35613   2
  -2  -4  -9 33.8933 5.35797   1
   2  -4   9 44.0745 9.39135   1
  -2  -4  -9 37.5506 5.19665   1
  -2   4  -9 19.1204 7.11651   2
  -2   4  -9 15.9450 8.38753   1
  -3   4  -9 222.743 20.3213   1
  -3   4  -9 217.036 17.9002   2
  -4   4  -9 41.6693 11.2789   1
  -5   4  -9 226.581 22.8049   1
  -6   4  -9 176.408 21.8217   1
   6  -5  -9 34.8179 13.0625   1
  -6  -5   9 31.4313 13.2028   1
   6   5  -9 41.0022 10.6768   2
  -5  -5   9 9.24909 10.7787   1
   5  -5  -9 -1.1753 9.82577   1
   5   5  -9 16.4267 8.85073   2
   4  -5  -9 -8.2799 8.54110   1
  -4  -5   9 -0.6890 8.76022   1
   4   5  -9 1.51495 7.45366   2
   3  -5  -9 276.740 22.5714   1
  -3  -5   9 265.028 22.9367   1
   3   5  -9 228.434 20.5008   1
   3   5  -9 237.175 20.2726   2
   2  -5  -9 386.779 27.3639   1
  -2  -5   9 401.395 28.8141   1
   2   5  -9 352.396 26.8134   1
   2   5  -9 416.080 26.9680   2
  -1  -5   9 346.502 27.1155   1
   1  -5  -9 368.556 25.1190   1
   1   5  -9 352.374 26.2410   1
   1   5  -9 397.207 25.8131   2
   0  -5   9 459.032 29.6832   1
   0  -5  -9 444.565 26.7534   1
   0   5   9 390.388 24.5405   2
   0   5  -9 400.358 27.6681   2
   0   5   9 404.201 24.7446   2
   0   5  -9 394.779 28.7406   1
   1  -5   9 762.064 45.8291   1
  -1  -5  -9 724.222 42.1975   1
  -1   5  -9 750.984 44.6494   2
   1   5   9 784.141 40.4354   2
  -1   5  -9 722.948 45.6512   1
  -2  -5  -9 227.797 16.1127   1
   2  -5   9 233.852 21.0716   1
  -2   5  -9 255.379 19.8984   2
  -2   5  -9 273.747 21.9142   1
  -3   5  -9 198.615 21.5968   1
  -3   5  -9 228.951 18.9516   2
  -4   5  -9 4.79215 10.1229   1
  -5   5  -9 25.2072 12.3547   1
   5  -6  -9 204.834 24.9855   1
  -5  -6   9 199.779 24.4979   1
   5   6  -9 188.586 20.4225   2
  -4  -6   9 132.661 18.7547   1
   4  -6  -9 162.738 20.2778   1
   4   6  -9 197.719 18.9968   2
   3  -6  -9 232.359 22.9357   1
  -3  -6   9 245.092 23.0005   1
   3   6  -9 187.082 19.5593   2
   2  -6  -9 333.383 26.4860   1
  -2  -6   9 344.730 27.3681   1
   2   6  -9 341.900 25.4475   2
   2   6  -9 322.613 25.2723   1
  -1  -6   9 97.4078 14.3690   1
   1  -6  -9 80.1288 12.5629   1
   1   6  -9 91.1638 12.3409   2
   1   6  -9 74.2106 12.2988   1
  -1   6   9 80.9315 10.4695   2
   0  -6  -9 47.0898 9.82487   1
   0  -6   9 50.0461 11.7862   1
   0   6  -9 55.1865 10.3342   2
   0   6   9 45.9310 7.55798   2
   0   6  -9 36.2308 10.3425   1
   1  -6   9 39.0070 11.1147   1
  -1  -6  -9 32.8941 8.11047   1
  -1   6  -9 22.2748 9.89822   1
  -1   6  -9 28.0496 9.49166   2
   1   6   9 27.8264 5.48014   2
  -2  -6  -9 19.7766 6.49560   1
   2  -6   9 9.99191 9.37464   1
  -2   6  -9 8.63120 9.53107   1
  -2   6  -9 11.1494 8.32895   2
  -3  -6  -9 111.833 10.7497   1
  -3   6  -9 98.5824 14.1135   2
  -3   6  -9 114.339 16.8287   1
  -4   6  -9 77.8933 15.9764   1
  -4  -7   9 6.32287 11.5630   1
   4  -7  -9 12.7751 12.4048   1
  -4   7   9 -0.1053 10.0813   2
   4   7  -9 6.23485 9.68860   2
   3  -7  -9 110.621 17.6766   1
  -3  -7   9 116.366 17.7294   1
   3   7  -9 116.458 15.4441   2
  -3   7   9 127.897 15.8149   2
   2  -7  -9 169.415 20.7038   1
  -2  -7   9 145.518 19.0439   1
   2   7  -9 160.359 18.2371   2
  -2   7   9 135.928 16.5045   2
  -1  -7   9 124.722 18.0013   1
   1  -7  -9 121.793 16.4389   1
   1   7  -9 152.796 17.0700   2
  -1   7   9 143.744 15.4218   2
   0  -7  -9 409.154 28.8096   1
   0  -7   9 425.213 31.6118   1
   0   7  -9 427.237 29.6299   2
   0   7   9 383.877 25.3735   2
   0   7  -9 348.740 29.5211   1
   1  -7   9 251.854 24.7440   1
  -1  -7  -9 235.934 20.5915   1
  -1   7  -9 234.133 23.7002   1
  -1   7  -9 276.639 23.2412   2
   1   7   9 255.100 16.9088   2
   2  -7   9 54.3500 13.2553   1
  -2  -7  -9 67.1438 10.0852   1
  -2   7  -9 54.6421 12.3701   2
  -2   7  -9 64.5082 14.7061   1
  -3  -7  -9 176.922 14.4982   1
  -3   7  -9 154.887 20.8397   1
  -3   7  -9 115.569 17.1472   2
   3  -8  -9 84.4930 17.1447   1
  -3  -8   9 106.103 18.0578   1
   3   8  -9 46.7365 12.6533   2
  -3   8   9 54.4447 13.4654   2
   2  -8  -9 89.2328 16.5554   1
  -2  -8   9 100.611 17.4596   1
   2   8  -9 93.9760 15.7373   2
  -2   8   9 115.421 15.1126   2
   1  -8  -9 99.4640 16.2246   1
  -1  -8   9 114.464 18.3925   1
   1   8  -9 122.648 16.2867   2
  -1   8   9 117.129 13.9952   2
   0  -8   9 11.1845 11.9500   1
   0  -8  -9 14.6830 10.1862   1
   0   8   9 -1.9407 7.00035   2
   0   8  -9 11.2428 10.2433   2
  -1  -8  -9 4.10027 8.96040   1
   1  -8   9 1.77676 11.6075   1
  -1   8  -9 -0.5329 10.2006   2
   1   8   9 5.10324 5.76370   2
   2  -8   9 14.8584 12.2810   1
  -2  -8  -9 16.8777 8.95565   1
  -2   8  -9 -12.977 9.53075   2
  -2   8  -9 -0.1160 10.7619   1
  -7   0  10 66.4468 14.5612   1
   7   0 -10 67.5316 13.4013   2
   6   0 -10 28.3663 9.88094   2
   6   0 -10 37.0199 10.4813   1
  -6   0  10 26.0396 10.5142   1
   5   0 -10 18.7605 8.37597   1
   5   0 -10 20.2032 8.40247   2
  -5   0  10 22.5353 9.18062   1
   4   0 -10 185.783 16.7828   2
  -4   0  10 176.864 18.1563   1
   4   0 -10 175.548 17.6881   1
   3   0 -10 278.653 21.2260   1
  -3   0  10 278.418 21.1152   1
   3   0 -10 272.533 19.9542   2
   2   0 -10 185.575 15.7508   1
  -2   0  10 186.027 15.3437   1
  -2   0  10 185.817 14.7538   2
   2   0 -10 193.625 15.2068   2
   1   0 -10 2150.16 114.311   2
   1   0 -10 2197.90 114.939   1
  -1   0  10 2097.38 114.048   2
  -1   0  10 2213.10 114.490   1
   0   0 -10 442.089 26.3701   1
   0   0 -10 444.079 25.8346   2
   0   0  10 426.892 25.2863   2
   0   0  10 420.138 25.5358   1
  -1   0 -10 857.159 47.0617   1
  -1   0 -10 864.711 46.4440   2
  -1   0 -10 809.607 46.8721   1
   1   0  10 859.176 45.8110   1
   2   0  10 611.394 34.9094   2
  -2   0 -10 631.407 36.0109   1
  -2   0 -10 639.270 36.2089   1
  -2   0 -10 652.648 35.4159   2
  -3   0 -10 96.0032 9.18887   2
  -3   0 -10 111.430 11.4219   1
   3   0  10 108.454 9.03847   2
  -4   0 -10 6.59695 5.62020   1
  -5   0 -10 34.3309 8.40572   1
  -6   0 -10 23.5509 9.42910   1
  -7  -1  10 129.533 17.9031   1
  -7   1  10 97.1036 16.6626   1
   7   1 -10 101.592 14.9801   2
   6  -1 -10 325.570 27.9442   1
  -6  -1  10 367.892 28.8642   1
   6  -1 -10 368.790 27.5612   2
  -6   1  10 388.047 29.2358   1
   6   1 -10 386.238 27.3296   2
   5  -1 -10 553.292 35.9036   2
  -5  -1  10 550.344 36.7546   1
   5  -1 -10 529.045 36.5307   1
   5   1 -10 565.391 36.3912   1
   5   1 -10 549.960 35.5386   2
  -5   1  10 593.422 36.8959   1
  -4  -1  10 886.870 50.1561   1
   4  -1 -10 855.902 48.7651   2
   4  -1 -10 809.212 49.5361   1
   4   1 -10 801.474 49.4254   1
  -4   1  10 827.683 49.4287   1
   4   1 -10 827.911 48.7190   2
   3  -1 -10 139.482 14.4705   2
  -3  -1  10 156.496 16.0250   1
   3  -1 -10 152.021 15.6579   1
   3   1 -10 167.934 15.9120   1
  -3   1  10 158.583 15.3389   1
   3   1 -10 168.814 14.9045   2
   2  -1 -10 919.280 51.8243   2
   2  -1 -10 918.183 52.7185   1
  -2  -1  10 903.529 52.6690   1
  -2   1  10 969.641 52.2758   1
   2   1 -10 932.860 52.1445   2
   2   1 -10 958.552 53.1058   1
  -2   1  10 898.767 51.6242   2
  -1  -1  10 5.78694 5.70809   1
   1  -1 -10 5.90062 5.26324   1
   1  -1 -10 5.64440 4.68864   2
  -1  -1  10 6.60866 4.35797   2
  -1   1  10 14.8816 4.98804   2
  -1   1  10 15.2716 5.34786   1
   1   1 -10 18.1334 5.76503   2
   1   1 -10 14.7493 6.02140   1
   0  -1 -10 19.1204 5.58508   1
   0  -1 -10 21.6248 5.15896   2
   0  -1 -10 19.8639 5.66233   1
   0  -1  10 22.1120 6.14778   1
   0  -1  10 25.7031 5.45026   2
   0   1  10 24.3890 4.84443   2
   0   1 -10 23.8133 6.18614   1
   0   1  10 23.3533 5.06506   1
   0   1 -10 29.3190 5.97326   2
  -1  -1 -10 57.2739 6.46321   2
   1  -1  10 63.6937 7.61679   1
  -1  -1 -10 56.4040 7.10885   1
  -1  -1 -10 52.3983 6.96856   1
   1  -1  10 57.6311 7.00646   2
   1   1  10 40.2982 5.51319   2
  -1   1 -10 30.1122 6.23227   2
  -1   1 -10 30.5901 6.87762   1
  -2  -1 -10 192.235 11.5843   2
   2  -1  10 177.071 12.2722   2
   2  -1  10 188.013 12.7821   1
  -2  -1 -10 187.749 12.5539   1
  -2  -1 -10 176.587 12.4283   1
  -2   1 -10 144.966 12.4374   2
  -2   1 -10 120.849 12.9556   1
  -2   1 -10 138.528 13.4225   1
   2   1  10 139.791 10.6066   2
  -3  -1 -10 204.421 15.0762   1
  -3  -1 -10 188.842 14.4519   1
  -3  -1 -10 192.878 13.2656   2
  -3   1 -10 241.860 17.4468   1
  -3   1 -10 250.199 15.5643   2
  -4  -1 -10 462.452 27.3651   1
  -4   1 -10 454.662 29.3061   1
  -5  -1 -10 171.673 14.5794   1
  -5   1 -10 142.360 16.1821   1
  -6  -1 -10 98.9405 12.4146   1
  -6   1 -10 100.871 14.5911   1
  -7  -2  10 114.041 18.1080   1
  -7   2  10 103.625 17.2174   1
   7   2 -10 108.979 15.5982   2
  -6  -2  10 37.0396 11.5566   1
   6  -2 -10 27.2458 10.4611   1
   6   2 -10 35.4534 10.0753   2
  -6   2  10 46.8521 12.0640   1
  -5  -2  10 33.8156 10.4522   1
   5  -2 -10 13.5569 8.27917   2
   5  -2 -10 27.6547 9.68423   1
   5   2 -10 27.0578 9.04357   1
   5   2 -10 23.4006 8.49606   2
  -5   2  10 22.6143 9.52002   1
   4  -2 -10 37.1507 9.42480   2
   4  -2 -10 39.9084 10.3881   1
  -4  -2  10 39.4353 10.2694   1
  -4   2  10 57.9575 10.7792   1
   4   2 -10 78.5933 12.0971   1
   4   2 -10 93.3894 12.0584   2
  -3  -2  10 747.432 41.6246   1
   3  -2 -10 722.702 40.0914   2
   3  -2 -10 710.728 41.1286   1
  -3   2  10 639.145 39.9648   1
   3   2 -10 574.555 39.4823   2
   3   2 -10 638.879 40.4411   1
   2  -2 -10 523.649 31.3396   1
   2  -2 -10 532.126 30.4060   2
  -2  -2  10 535.231 32.2593   1
   2   2 -10 497.441 31.3863   1
   2   2 -10 467.979 30.6110   2
  -2   2  10 458.357 29.7648   2
  -2   2  10 471.473 30.2227   1
  -1  -2  10 709.887 43.0770   2
   1  -2 -10 714.571 41.0057   2
  -1  -2  10 705.720 42.6882   1
   1  -2 -10 720.483 42.0156   1
   1   2 -10 745.212 42.6579   1
  -1   2  10 762.644 40.9793   1
   1   2 -10 727.037 42.0234   2
  -1   2  10 754.798 41.0505   2
   0  -2 -10 752.129 41.3607   1
   0  -2  10 721.126 41.5602   2
   0  -2 -10 732.583 40.6099   2
   0  -2  10 754.551 42.5368   1
   0  -2 -10 728.451 41.1991   1
   0   2 -10 740.068 41.8801   2
   0   2 -10 714.012 42.6014   1
  -1  -2 -10 706.973 38.0101   2
  -1  -2 -10 704.582 38.6444   1
   1  -2  10 716.676 39.6072   2
  -1  -2 -10 694.938 38.6604   1
   1  -2  10 709.863 40.2900   1
  -1   2 -10 689.810 40.6407   1
  -1   2 -10 679.934 39.7737   2
   1   2  10 672.300 37.5941   2
   2  -2  10 572.461 33.5848   1
  -2  -2 -10 566.025 31.6953   1
  -2  -2 -10 565.761 31.7242   1
   2  -2  10 527.729 32.8136   2
  -2  -2 -10 555.604 30.8007   2
  -2   2 -10 596.893 34.6846   1
  -2   2 -10 605.162 33.6314   2
  -3  -2 -10 127.024 9.64803   1
  -3  -2 -10 120.446 9.42344   1
  -3   2 -10 109.121 13.6624   1
  -3   2 -10 98.7798 11.4695   2
  -4  -2 -10 35.6423 5.70292   1
  -4   2 -10 21.8690 8.19196   1
  -5  -2 -10 12.3985 5.63648   1
  -5   2 -10 4.78229 8.06913   1
  -6  -2 -10 31.3138 7.83353   1
  -6   2 -10 29.5514 10.8655   1
  -7  -3  10 243.084 27.6447   1
  -7   3  10 284.953 26.7916   1
   7   3 -10 261.670 24.1624   2
  -6  -3  10 250.051 24.4610   1
   6  -3 -10 233.039 24.6675   1
   6   3 -10 266.525 22.4849   2
  -6   3  10 244.824 24.2800   1
  -5  -3  10 231.430 22.4532   1
   5  -3 -10 189.656 21.3434   1
  -5   3  10 259.835 22.7338   1
   5   3 -10 259.995 21.0661   2
   4  -3 -10 370.882 26.1289   1
  -4  -3  10 356.789 26.1255   1
   4   3 -10 304.173 24.1289   1
  -4   3  10 293.450 24.4714   1
   4   3 -10 322.486 24.2211   2
   3  -3 -10 282.992 23.6730   2
   3  -3 -10 297.910 24.8152   1
  -3  -3  10 313.788 25.9507   1
   3   3 -10 377.378 25.4724   1
   3   3 -10 406.517 25.2561   2
  -3   3  10 418.814 25.4560   1
   2  -3 -10 361.985 24.4604   2
   2  -3 -10 391.171 25.6514   1
  -2  -3  10 387.473 26.7243   1
  -2   3  10 362.329 24.0572   2
  -2   3  10 389.394 24.5639   1
   2   3 -10 358.773 25.8568   1
   2   3 -10 371.941 25.2993   2
   1  -3 -10 187.280 14.6251   2
  -1  -3  10 166.486 17.0684   1
   1  -3 -10 171.714 20.9331   1
   1  -3 -10 169.367 15.8689   1
   1   3 -10 219.578 16.3805   2
  -1   3  10 194.461 13.6747   1
   1   3 -10 203.959 16.8253   1
  -1   3  10 207.308 14.4758   2
   0  -3 -10 8.43774 4.93618   1
   0  -3 -10 4.36881 4.54234   2
   0  -3  10 7.07829 6.97431   1
   0  -3 -10 7.32360 5.60649   1
   0   3 -10 7.76306 6.37044   1
   0   3 -10 3.83075 5.55122   2
   0   3  10 6.97570 4.27281   2
  -1  -3 -10 51.2703 6.85099   1
   1  -3  10 53.6387 8.10467   2
   1  -3  10 50.5820 9.26076   1
  -1  -3 -10 46.0115 6.69934   1
  -1  -3 -10 53.6985 6.07738   2
   1   3  10 46.6483 5.33706   2
  -1   3 -10 25.9660 8.08055   1
  -1   3 -10 42.9180 8.34817   2
   2  -3  10 427.267 27.7076   2
  -2  -3 -10 447.808 25.5824   1
   2  -3  10 458.912 28.8142   1
  -2  -3 -10 458.251 25.5766   1
  -2   3 -10 458.980 28.5544   2
  -2   3 -10 457.727 29.7761   1
  -3   3 -10 120.546 14.4575   1
  -3   3 -10 107.573 12.2085   2
  -4   3 -10 137.613 17.2087   1
  -5   3 -10 126.328 16.5951   1
  -6   3 -10 78.5201 15.5232   1
  -6  -4  10 4.78285 10.2323   1
   6  -4 -10 -1.2653 10.0526   1
  -6   4  10 6.48215 10.5057   1
   6   4 -10 -5.4238 8.04112   2
   5  -4 -10 -1.5198 9.70399   1
  -5  -4  10 1.91993 9.75480   1
   5   4 -10 -3.5057 7.51181   2
  -5   4  10 6.57358 9.13149   1
   4  -4 -10 88.3773 13.5825   1
  -4  -4  10 93.8619 14.6951   1
   4   4 -10 47.6897 10.1924   2
  -4   4  10 50.3532 10.9848   1
   4   4 -10 56.2496 11.1193   1
   3  -4 -10 169.010 18.3476   1
  -3  -4  10 148.723 18.3172   1
   3   4 -10 208.236 17.6305   2
   3   4 -10 185.994 17.7657   1
  -2  -4  10 241.005 21.9920   1
   2  -4 -10 241.208 20.8583   1
   2   4 -10 277.000 20.6085   2
   2   4 -10 298.833 21.8455   1
   1  -4 -10 1050.11 55.3262   1
  -1  -4  10 1092.50 57.2682   1
   1   4 -10 921.120 55.2018   2
   1   4 -10 905.922 55.9246   1
  -1   4  10 901.000 53.3980   2
   0  -4  10 848.479 48.0688   1
   0  -4 -10 796.797 45.5533   1
   0   4 -10 799.969 46.7700   2
   0   4  10 783.345 44.0994   2
   0   4 -10 792.527 47.8103   1
  -1  -4 -10 664.080 37.6135   1
  -1  -4 -10 663.024 37.7781   1
   1  -4  10 660.411 40.8513   1
  -1   4 -10 651.120 40.9734   1
  -1   4 -10 680.430 39.8374   2
   1   4  10 665.947 35.8443   2
  -2  -4 -10 159.836 11.1406   1
   2  -4  10 152.529 15.7331   1
  -2  -4 -10 146.085 11.3854   1
  -2   4 -10 137.065 16.3665   1
  -2   4 -10 151.636 15.0049   2
  -3   4 -10 151.137 18.0893   1
  -3   4 -10 141.874 14.3832   2
  -4   4 -10 2.40455 9.24483   1
  -5   4 -10 -1.7274 9.60134   1
   6  -5 -10 80.1822 16.1992   1
  -6  -5  10 62.2287 15.7207   1
   6   5 -10 44.4709 11.7490   2
  -5  -5  10 239.626 25.7238   1
   5  -5 -10 223.189 24.9461   1
   5   5 -10 278.628 22.9182   2
  -4  -5  10 172.267 21.6266   1
   4  -5 -10 176.564 21.2406   1
   4   5 -10 202.242 19.0169   2
   3  -5 -10 96.4486 14.4929   1
  -3  -5  10 94.8001 14.7721   1
   3   5 -10 84.1374 12.9149   2
   3   5 -10 95.8298 13.3530   1
   2  -5 -10 32.7589 9.38354   1
  -2  -5  10 43.8822 10.5776   1
   2   5 -10 6.62284 7.35502   1
   2   5 -10 15.5767 7.84226   2
   1  -5 -10 75.7277 11.0976   1
  -1  -5  10 70.3373 12.3305   1
   1   5 -10 79.6732 11.9605   1
   1   5 -10 71.2086 11.0959   2
   0  -5 -10 45.7144 8.95500   1
   0  -5  10 49.6980 11.1027   1
   0   5 -10 37.2494 10.1008   1
   0   5 -10 48.0998 9.65238   2
  -1  -5 -10 65.4723 9.03965   1
   1  -5  10 63.0411 11.6215   1
  -1   5 -10 73.7046 12.3209   1
  -1   5 -10 86.6706 12.0525   2
   1   5  10 74.8326 7.49033   2
   2  -5  10 170.142 17.6725   1
  -2  -5 -10 158.500 12.5059   1
  -2   5 -10 130.389 16.9454   1
  -2   5 -10 111.625 14.4600   2
  -3   5 -10 60.7713 10.4283   2
  -3   5 -10 45.6864 12.1598   1
  -4   5 -10 207.704 23.6969   1
  -5   5 -10 136.546 19.9192   1
  -5  -6  10 8.23069 12.4116   1
   5  -6 -10 -1.7916 11.6812   1
   5   6 -10 7.73159 9.35414   2
  -4  -6  10 48.4057 13.4250   1
   4  -6 -10 36.5884 12.9000   1
   4   6 -10 36.8840 10.7512   2
   3  -6 -10 52.3412 13.0703   1
  -3  -6  10 62.3954 13.8839   1
   3   6 -10 60.8914 11.5914   2
  -2  -6  10 455.008 33.2547   1
   2  -6 -10 438.036 32.0095   1
   2   6 -10 462.585 31.3831   2
   2   6 -10 432.648 31.3221   1
  -1  -6  10 487.745 33.9058   1
   1  -6 -10 499.602 32.2568   1
   1   6 -10 413.938 32.0020   1
   1   6 -10 467.230 31.5459   2
  -1   6  10 451.140 29.2519   2
   0  -6  10 199.958 22.2226   1
   0  -6 -10 222.910 20.1656   1
   0   6  10 260.001 17.2825   2
   0   6 -10 264.437 22.6426   1
   0   6 -10 225.526 20.9202   2
  -1  -6 -10 303.301 21.2344   1
   1  -6  10 273.943 24.7911   1
  -1   6 -10 290.403 23.1627   2
  -1   6 -10 257.301 24.4909   1
  -2  -6 -10 324.089 21.0764   1
   2  -6  10 304.193 25.6753   1
  -2   6 -10 282.606 26.5663   1
  -2   6 -10 293.771 24.6211   2
  -3   6 -10 15.2439 11.0086   1
  -3   6 -10 25.5075 9.46661   2
  -4   6 -10 19.6977 12.7775   1
  -4  -7  10 157.956 21.0804   1
   4  -7 -10 165.723 22.3165   1
   4   7 -10 109.258 16.9377   2
  -4   7  10 127.224 18.1850   2
   3  -7 -10 16.1771 12.0170   1
  -3  -7  10 24.6304 12.6224   1
  -3   7  10 11.2950 9.87883   2
   3   7 -10 13.5511 9.47949   2
  -2  -7  10 22.7214 12.2792   1
   2  -7 -10 24.5926 10.8475   1
  -2   7  10 0.97706 8.00886   2
   2   7 -10 13.0103 9.71583   2
  -1  -7  10 33.6877 12.3849   1
   1  -7 -10 48.1321 11.3435   1
   1   7 -10 39.4209 10.7112   2
  -1   7  10 27.8568 8.67605   2
   0  -7  10 3.45905 10.1429   1
   0  -7 -10 11.8647 8.96647   1
   0   7 -10 10.2355 9.41433   1
   0   7 -10 -14.535 8.48491   2
   0   7  10 0.70760 6.19915   2
   1  -7  10 68.2324 14.5598   1
  -1  -7 -10 81.7042 12.3882   1
  -1   7 -10 77.4271 14.4041   1
  -1   7 -10 109.475 14.8900   2
  -2  -7 -10 100.751 11.9244   1
  -2   7 -10 62.7907 14.7617   1
  -2   7 -10 74.3104 14.4299   2
  -3  -7 -10 25.0321 7.53150   1
  -3   7 -10 30.1352 13.7733   1
  -2  -8  10 245.158 27.9658   1
   2  -8 -10 221.365 25.7836   1
  -2   8  10 240.759 22.3187   2
   2   8 -10 213.153 23.7149   2
   1  -8 -10 208.027 22.9868   1
  -1  -8  10 181.417 22.9168   1
  -1   8  10 165.215 18.1245   2
   1   8 -10 176.743 20.8508   2
   0  -8  10 95.8229 17.7069   1
   0  -8 -10 59.5579 13.8144   1
   0   8 -10 75.9291 14.9925   2
   0   8  10 89.8914 11.0024   2
   1  -8  10 109.729 18.5337   1
  -1  -8 -10 141.558 16.5725   1
  -1   8 -10 126.752 17.4113   2
   7   0 -11 355.067 28.1190   2
  -7   0  11 323.137 29.8080   1
   6   0 -11 244.363 23.1758   1
  -6   0  11 280.592 25.0750   1
   6   0 -11 270.932 23.4423   2
   5   0 -11 339.081 26.8436   1
   5   0 -11 349.074 26.1936   2
  -5   0  11 372.125 27.4153   1
   4   0 -11 242.960 21.0005   1
   4   0 -11 232.963 19.8104   2
  -4   0  11 246.435 21.1042   1
   3   0 -11 474.036 31.5540   2
  -3   0  11 516.995 32.4527   1
   3   0 -11 521.547 32.9704   1
   2   0 -11 4.88110 5.97132   2
  -2   0  11 3.84172 4.92574   2
   2   0 -11 5.53525 6.29121   1
  -2   0  11 10.2836 6.48712   1
   1   0 -11 6.57245 5.50230   2
   1   0 -11 6.77815 5.69635   1
  -1   0  11 5.44401 4.62647   2
  -1   0  11 4.44538 5.59656   1
   0   0  11 52.7217 6.92957   2
   0   0 -11 50.8647 7.49616   2
   0   0 -11 38.2097 7.26692   1
   0   0  11 47.3952 7.29443   1
  -1   0 -11 249.509 17.4261   1
   1   0  11 230.683 16.0179   2
   1   0  11 256.230 15.9990   1
  -1   0 -11 259.672 16.7355   2
  -1   0 -11 243.350 17.5887   1
  -2   0 -11 447.170 28.7433   1
  -2   0 -11 460.440 27.2467   2
   2   0  11 469.778 26.8137   2
  -2   0 -11 481.645 28.3000   1
   3   0  11 532.040 29.7064   2
  -3   0 -11 520.791 31.6329   1
  -4   0 -11 41.1152 8.34667   1
  -5   0 -11 159.765 15.9774   1
  -6   0 -11 81.5797 12.5538   1
  -7  -1  11 -5.5617 10.4321   1
   7   1 -11 2.69587 9.57792   2
  -7   1  11 0.97196 10.6292   1
   6  -1 -11 17.7159 9.74066   1
   6  -1 -11 20.0944 9.99624   2
  -6  -1  11 17.5216 10.3992   1
  -6   1  11 14.7542 10.3716   1
   6   1 -11 8.83125 8.80637   2
  -5  -1  11 42.6220 11.6893   1
   5  -1 -11 55.6830 11.7383   1
   5  -1 -11 58.5690 11.6643   2
   5   1 -11 68.8220 11.7613   2
   5   1 -11 54.7508 11.3163   1
  -5   1  11 52.8820 11.5856   1
  -4  -1  11 218.690 18.8945   1
   4  -1 -11 192.233 17.1492   2
   4  -1 -11 191.845 18.4348   1
  -4   1  11 154.545 17.2180   1
   4   1 -11 171.127 16.7033   2
   4   1 -11 148.957 17.3775   1
  -3  -1  11 674.759 43.4311   1
   3  -1 -11 675.280 43.2615   1
   3  -1 -11 698.519 42.2877   2
   3   1 -11 770.095 43.0283   2
   3   1 -11 770.711 44.0196   1
  -3   1  11 730.260 43.1252   1
  -2  -1  11 931.788 54.7639   1
   2  -1 -11 955.409 55.1133   1
   2  -1 -11 890.426 53.8224   2
   2   1 -11 985.956 55.4155   1
  -2   1  11 976.768 54.0635   2
  -2   1  11 1037.31 54.6874   1
   2   1 -11 987.976 54.5622   2
   1  -1 -11 912.648 49.6492   2
  -1  -1  11 962.517 50.8084   1
   1  -1 -11 913.257 50.4553   1
  -1  -1  11 881.637 49.6677   2
   1   1 -11 883.245 50.2211   2
  -1   1  11 845.151 49.3649   1
  -1   1  11 858.065 49.2519   2
   1   1 -11 870.501 50.7654   1
   0  -1  11 1569.01 87.8218   2
   0  -1 -11 1666.92 87.5900   2
   0  -1 -11 1615.68 88.2660   1
   0  -1 -11 1650.66 88.3096   1
   0  -1  11 1676.01 88.4350   1
   0   1 -11 1686.51 88.4774   2
   0   1 -11 1709.60 89.2025   1
   0   1  11 1662.71 87.0834   1
   0   1  11 1601.58 87.1884   2
   1  -1  11 282.722 19.5990   2
  -1  -1 -11 290.637 19.0804   2
  -1  -1 -11 293.644 20.0672   1
  -1  -1 -11 286.267 19.9023   1
  -1   1 -11 338.699 21.4285   1
   1   1  11 336.198 19.0389   2
  -1   1 -11 348.958 20.6028   2
   2  -1  11 157.374 12.5087   2
  -2  -1 -11 170.849 12.8354   1
  -2  -1 -11 176.206 12.0426   2
  -2  -1 -11 187.426 13.2132   1
   2   1  11 144.080 11.1797   2
  -2   1 -11 150.054 12.9862   2
  -2   1 -11 158.644 14.4281   1
  -3  -1 -11 118.259 11.3798   1
  -3   1 -11 133.021 13.6654   1
  -4  -1 -11 20.0058 6.36951   1
  -4   1 -11 13.0585 7.57516   1
  -5  -1 -11 41.7377 8.44761   1
  -5   1 -11 50.2694 10.6219   1
  -6  -1 -11 97.8242 12.6521   1
  -6   1 -11 82.0519 13.7806   1
  -7  -2  11 108.075 18.3775   1
   7   2 -11 127.912 17.2114   2
  -7   2  11 126.492 19.1064   1
   6  -2 -11 231.866 23.2441   1
  -6  -2  11 260.889 24.3067   1
  -6   2  11 240.795 23.5229   1
   6   2 -11 224.799 22.0655   2
   5  -2 -11 381.682 29.9615   1
  -5  -2  11 410.858 30.0354   1
   5  -2 -11 443.757 29.1302   2
   5   2 -11 339.265 28.2555   1
   5   2 -11 381.132 28.0011   2
  -5   2  11 386.439 28.9426   1
  -4  -2  11 321.868 26.2377   1
   4  -2 -11 336.493 25.0473   2
   4  -2 -11 319.957 26.2575   1
  -4   2  11 386.173 26.5268   1
   4   2 -11 389.421 26.8779   1
   4   2 -11 375.595 25.9245   2
  -3  -2  11 250.525 20.7316   1
   3  -2 -11 235.997 18.7932   2
   3  -2 -11 230.546 20.0380   1
  -3   2  11 232.922 19.2075   1
   3   2 -11 205.682 18.8053   2
   3   2 -11 204.840 19.2769   1
   2  -2 -11 138.029 13.3649   2
  -2  -2  11 158.338 15.7997   1
   2  -2 -11 146.478 14.6520   1
  -2   2  11 120.760 13.1291   1
   2   2 -11 115.433 14.2084   1
  -2   2  11 124.425 12.5769   2
   2   2 -11 125.813 13.7130   2
   1  -2 -11 129.192 11.9167   2
  -1  -2  11 135.171 14.5984   1
   1  -2 -11 136.040 13.5584   1
   1   2 -11 134.116 13.1382   2
   1   2 -11 114.384 13.6027   1
  -1   2  11 123.823 11.5900   2
   0  -2 -11 266.184 17.8039   1
   0  -2  11 257.734 17.5892   2
   0  -2  11 279.288 19.4226   1
   0  -2 -11 277.880 16.8630   2
   0  -2 -11 234.420 17.2357   1
   0   2 -11 202.428 17.4741   2
   0   2 -11 194.339 18.4240   1
  -1  -2 -11 371.250 23.2159   1
  -1  -2 -11 362.256 23.1151   1
  -1  -2 -11 387.436 22.3268   2
   1  -2  11 375.850 24.6992   1
   1  -2  11 369.890 23.7190   2
  -1   2 -11 385.503 25.4545   1
   1   2  11 383.729 21.8562   2
  -1   2 -11 379.831 24.2945   2
  -2  -2 -11 112.614 10.4513   1
   2  -2  11 133.048 14.9697   2
  -2  -2 -11 114.608 10.3204   1
  -2  -2 -11 114.957 9.03465   2
  -3  -2 -11 619.995 33.6434   1
  -3   2 -11 569.491 36.9014   1
  -4  -2 -11 115.955 10.9326   1
  -4   2 -11 133.182 15.6048   1
  -5  -2 -11 140.266 12.8588   1
  -5   2 -11 151.394 17.3445   1
  -6  -2 -11 40.7820 8.78702   1
  -6   2 -11 57.0484 13.2607   1
   6  -3 -11 8.87405 10.6314   1
  -6  -3  11 6.42541 10.6715   1
   6   3 -11 -1.9872 8.23499   2
  -6   3  11 8.61800 10.1793   1
   5  -3 -11 37.1359 11.8474   1
  -5  -3  11 43.0084 11.8691   1
  -5   3  11 50.1650 11.8962   1
   5   3 -11 39.6879 10.5410   2
   4  -3 -11 408.325 30.7613   1
  -4  -3  11 398.334 31.0509   1
   4   3 -11 431.215 30.1655   1
   4   3 -11 447.535 29.9543   2
  -4   3  11 456.688 30.4240   1
  -3  -3  11 221.306 19.6042   1
   3  -3 -11 188.880 18.1806   1
   3  -3 -11 197.171 17.0415   2
  -3   3  11 171.628 16.6732   1
   3   3 -11 145.077 17.1029   1
   3   3 -11 176.678 16.7742   2
   2  -3 -11 233.904 18.8960   2
  -2  -3  11 237.034 21.4752   1
   2  -3 -11 255.870 20.6718   1
   2   3 -11 266.234 20.3458   2
  -2   3  11 256.318 21.0739   2
   2   3 -11 271.395 21.2590   1
  -2   3  11 271.169 19.3876   1
  -1  -3  11 1001.01 58.4272   1
   1  -3 -11 950.742 55.8877   2
   1  -3 -11 1004.86 57.1680   1
   1   3 -11 1084.81 58.6705   1
   1   3 -11 1039.52 57.6238   2
  -1   3  11 1025.88 56.0044   2
   0  -3  11 630.911 38.0242   1
   0  -3 -11 619.880 34.8892   2
   0  -3 -11 633.331 36.1427   1
   0   3 -11 625.423 38.0973   1
   0   3  11 575.458 34.3941   2
   0   3 -11 599.625 36.9103   2
  -1  -3 -11 190.890 13.9661   2
   1  -3  11 191.998 17.6202   1
  -1  -3 -11 198.765 14.9946   1
   1  -3  11 201.005 16.2769   2
  -1  -3 -11 204.380 15.3848   1
   1   3  11 231.507 13.5968   2
  -1   3 -11 250.687 17.5855   2
  -1   3 -11 251.052 19.1414   1
  -2  -3 -11 418.940 25.1286   1
  -2  -3 -11 436.276 25.1377   1
  -2   3 -11 446.921 27.9725   2
  -2   3 -11 435.160 29.4420   1
  -3  -3 -11 53.9055 6.30227   1
  -3   3 -11 45.4907 10.3861   1
  -4   3 -11 20.9784 9.77723   1
  -5   3 -11 15.8681 10.4577   1
   6  -4 -11 197.989 24.0778   1
  -6  -4  11 224.057 25.0343   1
   6   4 -11 250.493 22.3842   2
   5  -4 -11 306.482 27.9904   1
  -5  -4  11 277.992 27.4803   1
   5   4 -11 334.216 25.1184   2
  -4  -4  11 137.237 17.8791   1
   4  -4 -11 125.845 16.8239   1
   4   4 -11 124.315 15.2457   2
   4   4 -11 153.536 16.9385   1
   3  -4 -11 156.902 18.5895   1
  -3  -4  11 154.923 19.0681   1
   3   4 -11 197.327 18.0243   2
   3   4 -11 185.822 18.4759   1
  -2  -4  11 43.6684 10.8365   1
   2  -4 -11 35.0501 9.53061   1
   2   4 -11 41.7504 9.80583   1
   2   4 -11 36.0460 8.95733   2
   1  -4 -11 1.39067 6.78266   1
  -1  -4  11 6.94934 8.28258   1
   1   4 -11 1.81149 7.06884   1
   1   4 -11 1.00983 6.45804   2
   0  -4 -11 67.7159 9.92076   1
   0  -4  11 83.0922 12.3203   1
   0   4 -11 64.1710 11.6441   1
   0   4  11 70.6768 9.11659   2
   0   4 -11 61.4371 10.2099   2
   1  -4  11 185.363 17.3514   1
  -1  -4 -11 189.534 14.4225   1
  -1   4 -11 180.983 16.6209   2
  -1   4 -11 143.260 17.2337   1
  -2  -4 -11 395.202 24.1411   1
  -2   4 -11 396.286 29.3281   1
  -2   4 -11 431.662 27.8838   2
  -3   4 -11 254.599 22.9709   1
  -4   4 -11 147.814 18.6664   1
  -5   4 -11 23.8888 12.1971   1
  -5  -5  11 -0.4683 10.7679   1
   5  -5 -11 0.32868 10.6660   1
   5   5 -11 7.03847 9.16788   2
   4  -5 -11 104.065 16.7933   1
  -4  -5  11 93.4879 16.2936   1
   4   5 -11 99.4063 14.7040   2
   3  -5 -11 126.731 16.2842   1
  -3  -5  11 141.161 17.3886   1
   3   5 -11 79.2385 13.3684   1
   3   5 -11 93.9596 14.5753   2
  -2  -5  11 218.632 21.5878   1
   2  -5 -11 208.326 20.1334   1
   2   5 -11 214.704 19.8547   2
   2   5 -11 216.858 20.2382   1
   1  -5 -11 375.834 29.6869   1
  -1  -5  11 423.409 32.1531   1
   1   5 -11 530.542 33.0309   1
   1   5 -11 535.186 31.7392   2
   0  -5 -11 381.152 24.4477   1
   0  -5  11 372.584 26.6939   1
   0   5 -11 318.238 24.6019   2
   0   5 -11 289.798 25.8304   1
  -1  -5 -11 131.098 13.5017   1
   1  -5  11 137.690 16.8156   1
  -1   5 -11 138.949 16.7528   1
  -1   5 -11 124.871 15.0581   2
  -2  -5 -11 82.7009 10.6545   1
  -2   5 -11 108.982 13.7131   2
  -2   5 -11 111.968 15.6000   1
  -3   5 -11 43.3259 12.1290   1
  -4   5 -11 18.7169 11.7795   1
  -4  -6  11 92.1174 16.9509   1
   4  -6 -11 100.201 17.3014   1
   4   6 -11 101.437 15.3510   2
   3  -6 -11 140.331 18.7252   1
  -3  -6  11 145.256 19.5189   1
   3   6 -11 160.881 18.2478   2
  -2  -6  11 8.83941 10.3021   1
   2  -6 -11 6.11835 9.51088   1
   2   6 -11 4.00062 8.41543   1
   2   6 -11 1.31928 8.42853   2
  -1  -6  11 75.9567 14.3197   1
   1  -6 -11 64.6992 12.4258   1
  -1   6  11 78.9606 10.7810   2
   1   6 -11 75.9781 14.0819   1
   1   6 -11 79.1615 13.2126   2
   0  -6 -11 108.189 13.2280   1
   0  -6  11 87.4152 14.6285   1
   0   6 -11 68.5604 13.6389   1
   0   6 -11 68.5200 12.3493   2
   0   6  11 77.4568 9.27233   2
   1  -6  11 86.9571 14.4693   1
  -1  -6 -11 90.6863 11.8549   1
  -1   6 -11 65.7224 13.8682   1
  -1   6 -11 115.455 14.9299   2
  -2  -6 -11 197.531 16.9586   1
  -2   6 -11 216.778 23.2874   1
  -2   6 -11 242.322 21.4211   2
  -3  -6 -11 172.569 13.3461   1
  -3   6 -11 145.050 20.2606   1
  -4   6 -11 39.3594 14.7203   1
  -3  -7  11 77.7293 16.1991   1
   3  -7 -11 69.3399 15.6479   1
  -3   7  11 34.1790 12.0297   2
   3   7 -11 40.3911 11.8652   2
   2  -7 -11 41.3113 12.6879   1
  -2  -7  11 37.6669 13.2560   1
   2   7 -11 40.7436 11.8362   2
  -2   7  11 24.4881 9.53050   2
   1  -7 -11 167.641 21.2260   1
  -1  -7  11 200.302 23.7652   1
  -1   7  11 206.628 17.9387   2
   1   7 -11 193.842 20.8956   2
   0  -7 -11 176.591 19.2483   1
   0  -7  11 159.465 20.0681   1
   0   7 -11 136.288 18.5085   1
   0   7  11 137.392 13.9838   2
   0   7 -11 173.505 19.9312   2
   1  -7  11 63.7930 14.0758   1
  -1  -7 -11 81.7393 12.2982   1
  -1   7 -11 64.3328 14.2564   1
  -1   7 -11 68.4017 14.2313   2
  -2  -7 -11 32.6159 8.53644   1
  -2   7 -11 34.4038 11.9036   2
  -2   7 -11 19.5717 12.5584   1
   7   0 -12 1.86814 9.57635   2
  -7   0  12 3.96293 11.1326   1
  -6   0  12 26.3178 11.1283   1
   6   0 -12 25.5229 10.6365   1
   6   0 -12 48.3574 11.6175   2
   5   0 -12 211.563 19.6580   2
   5   0 -12 182.886 20.1744   1
  -5   0  12 202.599 20.6241   1
  -4   0  12 308.959 23.8279   1
   4   0 -12 288.206 24.0195   1
   4   0 -12 297.635 23.2341   2
  -3   0  12 623.342 38.4122   1
   3   0 -12 623.682 39.3842   1
   3   0 -12 610.453 37.8197   2
   2   0 -12 388.518 24.8933   2
   2   0 -12 373.291 26.1245   1
  -2   0  12 334.740 24.0538   2
  -2   0  12 383.253 25.5194   1
  -1   0  12 568.100 34.6095   1
   1   0 -12 601.891 35.6787   1
   1   0 -12 603.474 34.8694   2
  -1   0  12 559.287 34.0867   2
   0   0  12 358.199 22.0756   2
   0   0  12 317.302 21.7618   1
   0   0 -12 372.650 23.7047   1
   0   0 -12 363.102 22.8148   2
   1   0  12 543.954 30.8827   2
  -1   0 -12 523.853 31.2035   2
  -1   0 -12 524.568 32.3103   1
  -2   0 -12 53.0814 9.57089   2
   2   0  12 48.6351 6.78805   2
  -2   0 -12 56.7554 8.78350   1
  -3   0 -12 0.66967 5.76787   1
  -4   0 -12 55.0339 9.91815   1
  -5   0 -12 19.9348 8.41321   1
  -6   0 -12 7.82818 9.18246   1
   6  -1 -12 218.253 21.6441   2
  -6  -1  12 182.476 21.9989   1
   6  -1 -12 164.709 20.7240   1
   6   1 -12 218.890 21.2567   2
  -6   1  12 211.729 22.1982   1
   5  -1 -12 202.989 20.6344   2
   5  -1 -12 201.855 21.5723   1
  -5  -1  12 211.660 21.6052   1
  -5   1  12 229.228 21.7034   1
   5   1 -12 218.458 21.1566   1
   5   1 -12 226.702 20.6644   2
  -4  -1  12 214.820 19.8709   1
   4  -1 -12 201.444 18.2037   2
   4  -1 -12 204.499 19.6378   1
  -4   1  12 179.683 18.2470   1
   4   1 -12 170.925 18.8006   1
   4   1 -12 166.944 17.4757   2
  -3  -1  12 6.75237 7.73503   1
   3  -1 -12 2.05142 7.52584   1
   3  -1 -12 6.80481 6.99958   2
   3   1 -12 1.72853 6.60717   2
  -3   1  12 9.30896 7.54215   1
   3   1 -12 2.37255 7.34591   1
  -2  -1  12 127.930 14.4018   1
   2  -1 -12 116.561 13.1076   2
   2  -1 -12 130.929 14.5227   1
   2   1 -12 106.245 13.5001   1
  -2   1  12 107.517 13.0656   1
   2   1 -12 121.169 13.3425   2
  -2   1  12 98.4775 11.7921   2
   1  -1 -12 282.273 22.0104   1
   1  -1 -12 297.190 21.0537   2
  -1  -1  12 268.958 20.5960   2
  -1  -1  12 282.490 22.0988   1
  -1   1  12 345.541 21.0720   2
   1   1 -12 331.129 22.9386   1
  -1   1  12 352.145 21.4864   1
   1   1 -12 380.801 22.7281   2
   0  -1 -12 1196.68 66.8984   2
   0  -1  12 1206.03 67.3452   2
   0  -1  12 1275.60 68.0005   1
   0  -1 -12 1243.81 67.9947   1
   0   1  12 1248.41 66.7744   2
   0   1 -12 1222.05 68.6136   1
   0   1 -12 1276.07 67.9586   2
  -1  -1 -12 498.771 29.1956   1
   1  -1  12 475.930 28.6440   2
  -1  -1 -12 475.865 28.0495   2
  -1   1 -12 467.079 30.0784   1
  -1   1 -12 479.694 29.1340   2
   1   1  12 466.590 27.5173   2
  -2  -1 -12 499.036 28.2950   1
  -2   1 -12 466.918 28.1919   2
  -2   1 -12 409.667 28.8508   1
   2   1  12 464.005 26.3488   2
  -3  -1 -12 373.790 24.4054   1
  -3   1 -12 413.849 26.3507   1
  -4  -1 -12 359.796 23.2779   1
  -4   1 -12 335.035 25.1396   1
  -5  -1 -12 34.5944 8.78146   1
  -5   1 -12 38.5292 10.5378   1
   6  -2 -12 50.7071 13.2656   1
  -6  -2  12 44.0259 13.2329   1
   6   2 -12 39.7051 11.5886   2
  -6   2  12 33.8827 11.9046   1
  -5  -2  12 202.918 22.1533   1
   5  -2 -12 231.111 20.7343   2
   5  -2 -12 206.344 21.7678   1
  -5   2  12 197.401 20.4769   1
   5   2 -12 220.817 20.4372   2
   5   2 -12 171.894 20.2371   1
   4  -2 -12 79.4908 13.6341   1
  -4  -2  12 74.8706 13.3938   1
   4  -2 -12 90.0424 12.6936   2
  -3  -2  12 1010.94 57.2484   1
   3  -2 -12 994.160 55.5801   2
   3  -2 -12 989.013 57.0497   1
   3   2 -12 984.942 56.2273   2
  -3   2  12 966.824 55.8907   1
   3   2 -12 884.165 56.4365   1
   2  -2 -12 551.102 33.2761   2
  -2  -2  12 563.719 35.0996   1
   2  -2 -12 554.136 34.7281   1
  -2   2  12 524.068 33.0818   1
  -2   2  12 559.096 37.3959   2
   2   2 -12 508.710 33.7965   2
   2   2 -12 526.012 34.7539   1
   1  -2 -12 204.751 15.9749   2
   1  -2 -12 200.751 17.2774   1
  -1  -2  12 200.206 18.4430   1
   1   2 -12 215.104 18.1062   1
  -1   2  12 200.068 15.3479   2
   1   2 -12 190.297 16.6633   2
   0  -2 -12 359.927 24.0910   1
   0  -2  12 344.457 23.6817   2
   0  -2 -12 349.367 22.7127   2
   0  -2  12 398.180 25.6211   1
   0   2 -12 375.553 25.5839   1
   0   2 -12 377.191 24.5302   2
  -1  -2 -12 684.142 38.1203   2
   1  -2  12 718.630 40.3245   1
  -1  -2 -12 677.138 38.7745   1
  -1   2 -12 675.867 39.7543   2
  -1   2 -12 657.847 40.7583   1
   1   2  12 648.661 37.1982   2
  -2  -2 -12 125.617 12.5398   1
  -2   2 -12 175.755 14.2191   2
  -2   2 -12 186.072 16.0481   1
  -3  -2 -12 5.69523 5.03307   1
  -3   2 -12 1.45029 6.91391   1
  -4  -2 -12 2.45304 5.45806   1
  -4   2 -12 11.0940 8.35623   1
  -5  -2 -12 71.6969 9.51244   1
  -5   2 -12 65.2959 13.0682   1
   6  -3 -12 224.843 24.5745   1
  -6  -3  12 225.255 25.2908   1
   6   3 -12 200.330 22.2060   2
  -5  -3  12 147.981 19.2740   1
   5  -3 -12 151.263 19.5848   1
   5   3 -12 154.482 17.9322   2
  -4  -3  12 244.765 22.4643   1
   4  -3 -12 206.907 19.7881   2
   4  -3 -12 228.520 22.3568   1
   4   3 -12 200.093 20.4509   1
   4   3 -12 213.909 20.1543   2
  -3  -3  12 12.2286 9.16198   1
   3  -3 -12 13.1728 7.72376   2
   3  -3 -12 6.45694 8.43536   1
   3   3 -12 6.93169 7.15136   2
   3   3 -12 3.42373 7.46736   1
  -2  -3  12 16.5993 8.85484   1
   2  -3 -12 7.34144 6.52337   2
   2  -3 -12 3.89697 7.36031   1
   2   3 -12 7.00386 7.41614   2
   2   3 -12 13.5740 7.99737   1
  -1  -3  12 214.387 19.8217   1
   1  -3 -12 212.667 18.3310   1
   1  -3 -12 200.894 16.6364   2
   1   3 -12 234.322 19.8160   1
   1   3 -12 272.746 19.2754   2
   0  -3  12 516.628 33.5461   1
   0  -3 -12 501.063 31.8260   1
   0   3 -12 523.623 32.7138   2
   0   3  12 529.645 30.6310   2
   0   3 -12 533.539 34.1348   1
  -1  -3 -12 207.729 14.8885   1
   1  -3  12 205.069 17.3209   1
   1   3  12 167.895 12.1100   2
  -1   3 -12 160.935 17.3327   1
  -1   3 -12 165.620 15.6945   2
  -2  -3 -12 273.544 18.9012   1
  -2   3 -12 315.732 21.7870   2
  -2   3 -12 306.086 23.4482   1
  -3  -3 -12 385.427 23.6700   1
  -3   3 -12 435.092 29.3623   1
  -4   3 -12 233.109 22.7146   1
  -5   3 -12 60.6797 13.5409   1
  -6  -4  12 45.6829 14.6390   1
   6  -4 -12 51.3482 15.4497   1
   6   4 -12 55.5796 13.2114   2
  -5  -4  12 110.366 17.3965   1
   5  -4 -12 110.697 17.3793   1
   5   4 -12 65.6946 13.6200   2
  -4  -4  12 167.565 20.7966   1
   4  -4 -12 173.286 20.4792   1
   4   4 -12 162.768 18.8546   1
   4   4 -12 185.630 18.6918   2
   3  -4 -12 454.339 33.0539   1
  -3  -4  12 519.914 34.3432   1
   3   4 -12 441.522 32.3764   1
   3   4 -12 449.426 31.8789   2
  -2  -4  12 583.311 38.3524   1
   2  -4 -12 562.573 36.2870   1
   2   4 -12 576.574 36.3184   2
   2   4 -12 549.454 36.9761   1
   1  -4 -12 51.9384 9.54399   1
  -1  -4  12 50.4416 11.1411   1
   1   4 -12 9.32718 7.40806   2
   1   4 -12 5.62877 7.53220   1
   0  -4 -12 367.133 25.7015   1
   0  -4  12 364.611 27.7177   1
   0   4 -12 429.633 28.9403   1
   0   4 -12 400.785 27.1483   2
   1  -4  12 232.971 20.5885   1
  -1  -4 -12 239.990 17.3888   1
  -1   4 -12 229.035 21.1880   1
  -1   4 -12 224.138 19.3253   2
  -2  -4 -12 1.70976 5.26062   1
  -2   4 -12 27.5999 8.36333   2
  -2   4 -12 -0.0346 7.88254   1
  -3   4 -12 7.95372 9.21325   1
  -4   4 -12 -1.4708 9.35263   1
  -5   4 -12 64.5443 15.0621   1
  -5  -5  12 146.076 20.4825   1
   5  -5 -12 147.694 21.0222   1
   5   5 -12 120.859 16.7662   2
  -4  -5  12 101.047 17.0341   1
   4  -5 -12 93.3751 16.7370   1
   4   5 -12 82.1332 13.5857   2
   3  -5 -12 28.9076 11.1617   1
  -3  -5  12 24.5628 11.3516   1
   3   5 -12 30.8959 10.2796   1
   3   5 -12 21.2706 9.94028   2
  -2  -5  12 84.9874 14.4679   1
   2  -5 -12 78.5089 13.5587   1
   2   5 -12 70.3128 12.9866   1
   2   5 -12 67.9137 12.5380   2
  -1  -5  12 87.9105 14.6801   1
   1  -5 -12 89.1808 13.0888   1
   1   5 -12 123.895 14.8546   2
   1   5 -12 95.0879 14.4848   1
   0  -5  12 227.596 21.3826   1
   0  -5 -12 220.475 19.0414   1
   0   5 -12 224.454 19.7072   2
   0   5 -12 205.547 21.2130   1
   1  -5  12 123.865 16.6155   1
  -1  -5 -12 128.082 14.3228   1
  -1   5 -12 152.136 18.7174   1
  -1   5 -12 185.703 17.3599   2
  -2  -5 -12 190.166 15.4365   1
  -2   5 -12 207.296 19.0116   2
  -2   5 -12 192.386 21.5616   1
  -3   5 -12 185.686 22.0556   1
  -4   5 -12 137.425 19.9229   1
   4  -6 -12 106.383 18.3594   1
  -4  -6  12 108.222 18.8928   1
   4   6 -12 86.0998 14.9872   2
   3  -6 -12 183.617 23.0856   1
  -3  -6  12 200.241 24.2115   1
   3   6 -12 174.910 20.9741   2
   2  -6 -12 186.498 21.0011   1
  -2  -6  12 208.029 22.3010   1
   2   6 -12 142.082 18.6293   1
   2   6 -12 131.010 17.1815   2
  -1  -6  12 114.271 16.9541   1
   1  -6 -12 112.910 15.3081   1
   1   6 -12 118.575 15.6964   2
   1   6 -12 106.224 15.9149   1
   0  -6  12 189.419 21.9047   1
   0  -6 -12 171.336 18.6077   1
   0   6 -12 213.328 20.0728   2
   0   6  12 193.196 15.1647   2
   0   6 -12 195.650 21.6282   1
  -1  -6 -12 15.9761 8.14934   1
  -1   6 -12 10.1558 10.3497   1
  -1   6 -12 1.54455 8.99291   2
  -2  -6 -12 8.67744 7.19406   1
  -2   6 -12 14.4206 9.76790   2
  -2   6 -12 9.26440 10.9380   1
  -3   6 -12 3.45587 11.4455   1
   3  -7 -12 15.5415 12.9850   1
  -3  -7  12 37.1615 14.2752   1
   3   7 -12 41.1138 12.5639   2
   2  -7 -12 27.8997 12.4243   1
  -2  -7  12 32.1819 13.2925   1
  -2   7  12 19.3635 9.69627   2
   2   7 -12 29.4486 11.7690   2
  -1  -7  12 23.2960 12.6296   1
   1  -7 -12 52.6734 12.9368   1
  -1   7  12 28.8214 8.93131   2
   1   7 -12 38.1705 12.0119   2
   0  -7 -12 11.2186 10.0923   1
   0  -7  12 28.6896 12.7081   1
   0   7 -12 25.8713 10.7566   2
   0   7  12 28.4315 7.48945   2
   0   7 -12 13.7158 11.2005   1
  -1  -7 -12 137.866 16.6745   1
  -1   7 -12 91.7625 17.2886   1
  -1   7 -12 91.8487 15.9514   2
  -2  -7 -12 138.196 16.1313   1
  -2   7 -12 145.325 21.0925   1
  -6   0  13 215.336 23.0710   1
   6   0 -13 212.801 22.0564   2
   6   0 -13 203.506 22.3620   1
   5   0 -13 102.244 15.3328   1
  -5   0  13 74.1342 13.8581   1
   5   0 -13 110.825 15.0855   2
   4   0 -13 58.4069 12.1317   1
   4   0 -13 73.1183 11.7351   2
  -4   0  13 68.1227 12.2884   1
   3   0 -13 7.81033 8.15748   1
   3   0 -13 0.43244 6.81846   2
  -3   0  13 4.31472 7.60305   1
   2   0 -13 564.409 34.5210   2
   2   0 -13 547.724 35.7102   1
  -2   0  13 550.871 34.6593   1
   1   0 -13 27.1953 7.70804   2
   1   0 -13 26.0900 8.19980   1
  -1   0  13 26.0033 6.79348   2
  -1   0  13 31.5249 7.93652   1
   0   0  13 119.210 13.7505   2
   0   0 -13 145.732 13.2081   2
   0   0 -13 144.037 14.4100   1
  -1   0 -13 1462.47 80.5155   1
  -1   0 -13 1486.14 79.5475   2
  -2   0 -13 394.736 26.0025   1
  -3   0 -13 242.265 18.9764   1
  -4   0 -13 303.046 22.6234   1
  -5   0 -13 55.8206 11.2359   1
  -6  -1  13 224.424 24.5956   1
   6  -1 -13 228.422 24.1788   1
   6  -1 -13 236.176 23.1074   2
   6   1 -13 227.789 22.8331   2
  -6   1  13 246.148 24.5547   1
   5  -1 -13 293.698 23.8341   2
   5  -1 -13 261.816 25.1413   1
  -5  -1  13 267.760 25.1857   1
  -5   1  13 268.959 24.0708   1
   5   1 -13 285.213 24.2386   2
   5   1 -13 281.374 25.3645   1
   4  -1 -13 402.848 29.2673   1
   4  -1 -13 394.185 27.5245   2
  -4  -1  13 394.571 28.4695   1
  -4   1  13 357.062 27.5198   1
   4   1 -13 355.513 28.4935   1
   4   1 -13 357.585 27.2701   2
  -3  -1  13 149.428 17.6474   1
   3  -1 -13 158.178 16.6588   2
   3  -1 -13 153.150 18.2949   1
  -3   1  13 201.131 17.0763   1
   3   1 -13 182.201 18.2058   1
   3   1 -13 172.562 16.8598   2
   2  -1 -13 797.163 44.8197   2
   2  -1 -13 778.551 46.0300   1
  -2  -1  13 790.974 45.7691   1
   2   1 -13 737.849 46.1808   1
   2   1 -13 723.977 44.9679   2
  -2   1  13 744.167 44.6631   1
   1  -1 -13 181.498 15.7225   2
   1  -1 -13 191.266 16.7867   1
  -1  -1  13 206.039 17.1330   1
  -1  -1  13 177.695 15.3403   2
   1   1 -13 187.864 17.4295   1
   1   1 -13 177.107 16.2985   2
   0  -1  13 8.54542 8.22210   1
   0  -1 -13 -4.2334 5.71145   1
   0  -1 -13 5.85606 5.51257   2
   0   1 -13 16.2252 6.76875   2
   0   1 -13 13.6734 7.13122   1
  -1  -1 -13 37.7057 7.62697   1
  -1   1 -13 31.1888 7.14635   2
  -1   1 -13 34.7905 8.47105   1
  -2  -1 -13 82.1174 10.5230   1
  -2   1 -13 99.3570 12.2233   1
  -3  -1 -13 144.558 13.9469   1
  -3   1 -13 136.970 15.2840   1
  -4  -1 -13 140.844 14.1576   1
  -4   1 -13 120.229 15.0844   1
  -5  -1 -13 40.1749 9.42276   1
  -5   1 -13 50.3030 12.0011   1
   6  -2 -13 142.590 19.8827   1
   6  -2 -13 113.473 18.0525   2
  -6  -2  13 145.873 19.5619   1
  -6   2  13 150.071 28.6231   1
   6   2 -13 124.391 17.8016   2
   5  -2 -13 180.787 18.8952   2
   5  -2 -13 166.459 20.8183   1
  -5  -2  13 175.205 21.2694   1
  -5   2  13 151.506 19.2729   1
   5   2 -13 153.492 18.9945   1
   5   2 -13 161.964 18.9517   2
   4  -2 -13 88.7858 14.5990   1
  -4  -2  13 72.8545 14.1005   1
   4  -2 -13 105.096 14.0817   2
   4   2 -13 95.9062 13.6292   2
   4   2 -13 87.1205 14.0275   1
   3  -2 -13 24.3519 8.37890   2
   3  -2 -13 26.8570 9.86728   1
  -3  -2  13 20.0072 9.11248   1
   3   2 -13 28.2981 9.31643   1
   3   2 -13 28.2921 8.81510   2
   2  -2 -13 191.206 16.8502   2
  -2  -2  13 190.333 19.0384   1
   2  -2 -13 185.871 18.3472   1
   2   2 -13 231.184 18.2213   2
   2   2 -13 195.500 18.8030   1
  -1  -2  13 86.5447 12.2042   1
   1  -2 -13 88.6058 11.8954   1
   1  -2 -13 85.4876 10.4366   2
   1   2 -13 80.1078 11.5909   2
   1   2 -13 71.7744 12.0962   1
   0  -2  13 205.288 17.6673   1
   0  -2 -13 187.198 16.4841   1
   0   2 -13 199.950 16.7752   2
   0   2 -13 202.104 18.1354   1
  -1  -2 -13 1226.92 70.0244   1
  -1   2 -13 1317.25 72.4263   1
  -1   2 -13 1319.95 71.1827   2
  -2  -2 -13 297.019 20.6284   1
  -2   2 -13 326.406 23.6947   1
   2   2  13 310.875 18.2758   2
  -3  -2 -13 219.134 16.2398   1
  -3   2 -13 199.646 19.3763   1
  -4  -2 -13 125.994 12.9291   1
  -4   2 -13 133.776 16.1578   1
  -5  -2 -13 75.2874 10.1669   1
  -5   2 -13 87.0208 14.7055   1
   6  -3 -13 69.0795 15.9390   1
  -6  -3  13 68.4075 15.9402   1
   6   3 -13 71.8951 14.0678   2
  -5  -3  13 187.905 22.0206   1
   5  -3 -13 198.972 22.6919   1
   5   3 -13 153.439 18.4993   2
   4  -3 -13 427.539 31.5103   1
  -4  -3  13 439.626 31.8224   1
   4  -3 -13 429.540 29.7347   2
   4   3 -13 373.873 30.4325   1
   4   3 -13 396.140 29.6683   2
  -3  -3  13 220.327 21.5372   1
   3  -3 -13 244.410 19.3910   2
   3  -3 -13 206.812 20.7374   1
   3   3 -13 204.848 19.5281   2
   3   3 -13 201.218 20.5607   1
  -2  -3  13 461.484 31.3827   1
   2  -3 -13 444.725 30.4194   1
   2   3 -13 404.768 30.4035   1
   2   3 -13 442.513 29.6728   2
   1  -3 -13 628.301 36.9725   1
  -1  -3  13 621.642 38.2330   1
   1   3 -13 545.395 37.6546   1
   1   3 -13 568.915 36.8648   2
   0  -3  13 23.9885 8.62807   1
   0  -3 -13 26.1745 7.79794   1
   0   3 -13 -0.0761 7.01902   1
   0   3 -13 -3.4071 6.18987   2
  -1  -3 -13 106.489 12.0241   1
  -1   3 -13 89.9213 13.3743   1
  -1   3 -13 103.787 12.8626   2
  -2  -3 -13 58.6809 8.51841   1
  -2   3 -13 59.5424 11.6101   1
  -3  -3 -13 25.5630 6.19443   1
  -3   3 -13 22.7623 9.98152   1
  -4  -3 -13 139.297 11.8230   1
  -4   3 -13 116.556 16.7070   1
  -5   3 -13 58.0233 14.3884   1
   5  -4 -13 87.4912 16.8996   1
  -5  -4  13 91.6603 16.9125   1
   5   4 -13 86.5569 15.0217   2
   4  -4 -13 86.7808 16.0771   1
  -4  -4  13 89.2132 15.6899   1
   4   4 -13 69.4807 14.6442   1
   4   4 -13 78.6207 13.4601   2
   3  -4 -13 13.9091 9.99891   1
  -3  -4  13 5.48242 10.2057   1
   3   4 -13 3.12667 8.65968   1
   3   4 -13 6.87513 8.83584   2
   2  -4 -13 205.108 19.7217   1
  -2  -4  13 218.919 21.5724   1
   2   4 -13 180.506 19.0384   2
   2   4 -13 167.191 19.3346   1
   1  -4 -13 77.0774 12.1650   1
  -1  -4  13 100.752 14.3994   1
   1   4 -13 110.424 13.8670   2
   1   4 -13 84.0288 13.6859   1
   0  -4  13 141.304 17.3503   1
   0  -4 -13 137.622 15.2591   1
   0   4 -13 158.824 16.6066   2
   0   4 -13 164.826 18.6089   1
  -1  -4 -13 544.797 31.9530   1
  -1   4 -13 522.884 35.9256   1
  -1   4 -13 487.269 33.6728   2
  -2  -4 -13 184.325 15.4421   1
  -2   4 -13 226.086 21.7277   1
  -3  -4 -13 85.5888 9.91222   1
  -3   4 -13 94.3567 15.2701   1
  -4   4 -13 151.621 19.5091   1
   4  -5 -13 259.335 27.1479   1
  -4  -5  13 300.270 27.6918   1
   4   5 -13 222.887 23.3402   2
  -3  -5  13 188.106 22.9126   1
   3  -5 -13 164.727 20.3849   1
   3   5 -13 209.487 20.5572   2
   3   5 -13 190.764 21.3050   1
   2  -5 -13 442.161 30.5317   1
  -2  -5  13 458.762 31.7912   1
   2   5 -13 355.578 28.7132   2
   2   5 -13 326.162 29.4367   1
  -1  -5  13 250.885 23.7953   1
   1  -5 -13 225.773 21.2638   1
   1   5 -13 228.141 22.5288   1
   1   5 -13 232.656 21.5879   2
   0  -5  13 110.257 15.6599   1
   0  -5 -13 93.7053 12.8231   1
   0   5 -13 74.6071 14.3076   1
   0   5 -13 82.5306 13.1257   2
  -1  -5 -13 15.5106 7.76664   1
  -1   5 -13 12.6745 10.0907   1
  -1   5 -13 19.2147 8.84921   2
  -2  -5 -13 13.3199 6.81185   1
  -2   5 -13 7.50851 9.90968   1
  -3   5 -13 50.3460 14.0351   1
  -3  -6  13 30.2986 13.4516   1
   3  -6 -13 13.9523 12.5266   1
   3   6 -13 12.1200 11.1262   2
   2  -6 -13 40.1370 12.5720   1
  -2  -6  13 34.8614 13.3644   1
   2   6 -13 49.4401 12.1518   2
   2   6 -13 32.7305 11.9465   1
   1  -6 -13 31.4698 10.8883   1
  -1  -6  13 44.6641 13.0511   1
   1   6 -13 41.1846 11.5096   2
   1   6 -13 18.2841 10.5494   1
   0  -6  13 80.5685 15.3114   1
   0  -6 -13 87.7760 13.7412   1
   0   6  13 117.669 11.8262   2
   0   6 -13 118.050 16.0300   2
   0   6 -13 118.408 17.7336   1
  -1  -6 -13 263.369 21.1023   1
  -1   6 -13 248.521 23.0591   2
  -1   6 -13 241.629 26.1146   1
  -2  -6 -13 82.7282 11.2250   1
  -2   6 -13 88.2692 16.7469   1
   1  -7 -13 72.4224 14.8709   1
  -1  -7  13 81.6812 16.3359   1
   1   7 -13 93.5291 15.6607   2
  -1   7  13 70.1062 11.1363   2
   0  -7 -13 12.9209 10.4331   1
   0   7 -13 16.2429 10.7705   2
   0   7  13 13.1662 7.01510   2
   0   7 -13 27.0363 12.4305   1
   6   0 -14 83.4013 15.9139   1
  -6   0  14 89.3269 16.1128   1
   6   0 -14 85.4651 15.0503   2
   5   0 -14 289.886 27.0338   1
  -5   0  14 327.315 27.3143   1
   5   0 -14 335.341 26.0524   2
   4   0 -14 683.492 43.7618   2
  -4   0  14 714.277 44.6722   1
   4   0 -14 708.383 45.4181   1
   3   0 -14 336.500 25.6185   2
  -3   0  14 366.008 26.3899   1
   3   0 -14 380.180 28.0966   1
   2   0 -14 209.451 19.6101   1
  -2   0  14 221.963 21.9249   1
   2   0 -14 207.322 18.2126   2
   1   0 -14 173.435 17.4494   1
   1   0 -14 183.614 16.1268   2
   0   0 -14 57.0118 9.19538   2
   0   0 -14 63.1081 10.5181   1
  -1   0 -14 306.970 22.2632   1
  -2   0 -14 20.2551 7.83265   1
  -3   0 -14 57.3440 10.3227   1
  -4   0 -14 177.397 18.2676   1
  -5   0 -14 211.104 20.5173   1
  -6  -1  14 1.72998 10.8160   1
   6  -1 -14 8.73383 9.76823   2
   6  -1 -14 -0.3944 10.4237   1
  -6   1  14 0.79048 11.0521   1
   6   1 -14 14.6628 10.2135   2
   5  -1 -14 53.9748 11.9116   2
   5  -1 -14 40.4034 12.8690   1
  -5  -1  14 33.0223 12.0704   1
   5   1 -14 42.6160 11.6657   2
   5   1 -14 37.4680 12.3183   1
  -5   1  14 37.1996 11.9414   1
   4  -1 -14 35.0724 11.5772   1
  -4  -1  14 45.6356 11.7115   1
   4  -1 -14 59.5082 11.4182   2
   4   1 -14 52.6223 12.6352   1
   4   1 -14 45.6724 11.4849   2
  -4   1  14 52.2705 14.9254   1
   3  -1 -14 40.4761 11.2259   1
  -3  -1  14 53.6856 11.3955   1
   3  -1 -14 55.8620 10.9486   2
   3   1 -14 48.4547 10.2441   2
   3   1 -14 37.9976 10.5975   1
  -2  -1  14 187.710 16.7185   1
   2  -1 -14 168.451 15.6591   2
   2  -1 -14 194.281 18.2886   1
   2   1 -14 118.620 14.9939   2
   2   1 -14 114.810 15.9750   1
   1  -1 -14 430.196 27.4463   2
   1  -1 -14 423.400 28.5457   1
   1   1 -14 415.492 29.2982   1
   1   1 -14 427.085 28.0645   2
   0  -1 -14 235.755 19.6114   1
   0   1 -14 258.479 19.2044   2
   0   1 -14 250.030 20.2140   1
  -1  -1 -14 72.9827 10.5051   1
  -2  -1 -14 629.601 38.1329   1
  -2   1 -14 648.858 39.5971   1
  -3  -1 -14 76.1979 11.1010   1
  -3   1 -14 110.259 13.6097   1
  -4  -1 -14 62.4664 10.1849   1
  -4   1 -14 38.9421 10.7466   1
  -5  -1 -14 28.9090 9.16748   1
  -5   1 -14 16.1620 10.4688   1
  -6  -2  14 165.442 21.0491   1
   6  -2 -14 159.411 21.6704   1
   6  -2 -14 134.300 19.0866   2
   6   2 -14 159.372 19.9002   2
   5  -2 -14 358.454 27.4287   2
   5  -2 -14 342.301 29.1342   1
  -5  -2  14 300.589 27.9073   1
   5   2 -14 320.870 28.2615   1
   5   2 -14 331.241 27.0414   2
  -4  -2  14 517.416 35.6366   1
   4  -2 -14 520.115 36.1002   1
   4  -2 -14 513.078 33.9061   2
   4   2 -14 451.190 35.0852   1
   4   2 -14 463.744 33.6168   2
   3  -2 -14 354.652 27.8486   1
  -3  -2  14 371.455 28.0024   1
   3  -2 -14 346.670 25.6660   2
   3   2 -14 359.038 27.9546   1
   3   2 -14 368.979 26.9963   2
  -2  -2  14 122.770 15.2763   1
   2  -2 -14 120.546 15.2706   2
   2  -2 -14 119.907 15.3857   1
   2   2 -14 134.315 16.4720   1
   2   2 -14 127.049 14.7590   2
  -1  -2  14 165.558 16.9664   1
   1  -2 -14 170.731 17.1074   1
   1   2 -14 180.004 18.1218   1
   1   2 -14 177.875 16.7985   2
   0  -2 -14 49.4802 9.44703   1
   0   2 -14 36.5378 8.76493   2
   0   2 -14 50.6612 10.4267   1
  -1  -2 -14 2.08316 5.91740   1
  -1   2 -14 8.25492 7.46457   1
  -2  -2 -14 194.797 16.2773   1
  -2   2 -14 200.853 19.0751   1
  -3  -2 -14 89.0226 10.8229   1
  -3   2 -14 82.7302 13.2379   1
  -4  -2 -14 122.906 14.0543   1
  -4   2 -14 151.032 18.5429   1
   5  -3 -14 21.6476 12.4947   1
  -5  -3  14 22.6295 12.3707   1
   5   3 -14 4.32780 9.45185   2
   4  -3 -14 32.0746 12.4902   1
  -4  -3  14 36.1972 11.9308   1
   4   3 -14 4.91124 9.02961   2
   4   3 -14 24.1985 10.6149   1
  -3  -3  14 15.7081 10.5569   1
   3  -3 -14 23.1744 10.1573   1
   3   3 -14 23.9510 9.13074   2
   3   3 -14 26.8336 10.3743   1
   2  -3 -14 198.589 18.7281   1
  -2  -3  14 182.414 19.2540   1
   2   3 -14 118.695 15.4397   2
   2   3 -14 125.262 16.8714   1
  -1  -3  14 360.432 26.1702   1
   1  -3 -14 333.735 24.8274   1
   1   3 -14 318.299 26.0287   1
   1   3 -14 305.385 24.0793   2
   0  -3 -14 300.633 21.8786   1
   0   3 -14 290.744 22.0021   2
   0   3 -14 253.624 23.4526   1
  -1  -3 -14 246.809 18.8274   1
  -1   3 -14 231.175 21.8418   1
  -2  -3 -14 479.320 27.9396   1
  -2   3 -14 385.027 31.0168   1
  -3  -3 -14 64.5570 8.98399   1
  -3   3 -14 92.7833 14.3918   1
  -4  -3 -14 35.4957 7.18519   1
  -4   3 -14 22.2117 11.2842   1
   5  -4 -14 274.641 28.6893   1
  -5  -4  14 276.315 28.3391   1
   5   4 -14 250.134 24.9817   2
  -4  -4  14 138.867 19.5377   1
   4  -4 -14 127.740 18.8414   1
   4   4 -14 153.393 18.0789   2
   3  -4 -14 266.118 25.6262   1
  -3  -4  14 261.842 25.7403   1
   3   4 -14 289.020 24.0779   2
   3   4 -14 296.753 25.8034   1
  -2  -4  14 381.824 28.7297   1
   2  -4 -14 362.486 27.6665   1
   2   4 -14 309.432 27.2160   1
   2   4 -14 324.270 26.6573   2
  -1  -4  14 114.653 15.6761   1
   1  -4 -14 113.918 14.3567   1
   1   4 -14 73.0308 13.5018   1
   1   4 -14 79.8957 13.4080   2
   0  -4 -14 34.4242 9.45747   1
   0   4 -14 40.0490 10.3662   2
   0   4 -14 39.8689 11.3584   1
  -1  -4 -14 7.59270 7.07436   1
  -1   4 -14 2.09078 9.23478   1
  -2  -4 -14 138.971 14.2457   1
  -2   4 -14 172.887 19.9603   1
  -3  -4 -14 60.2278 8.51284   1
  -3   4 -14 62.5245 13.7831   1
  -4   4 -14 14.1619 11.7972   1
   4  -5 -14 12.6042 12.3109   1
  -4  -5  14 5.10232 11.8538   1
   4   5 -14 -3.6644 9.55308   2
  -3  -5  14 94.2953 17.0157   1
   3  -5 -14 87.6717 15.9991   1
   3   5 -14 77.9281 14.5991   2
   3   5 -14 72.6698 14.8072   1
   2  -5 -14 14.0146 10.6426   1
  -2  -5  14 30.6826 12.2717   1
   2   5 -14 34.6578 11.8117   1
   2   5 -14 24.1605 10.4925   2
  -1  -5  14 425.908 32.1024   1
   1  -5 -14 399.656 29.6551   1
   1   5 -14 419.511 30.3427   2
   1   5 -14 366.368 30.8397   1
   0  -5 -14 166.098 17.9465   1
   0   5 -14 179.590 18.8638   2
   0   5 -14 161.460 20.3028   1
  -1  -5 -14 180.625 17.5858   1
  -1   5 -14 169.771 21.3194   1
  -2  -5 -14 348.313 23.3627   1
  -2   5 -14 310.335 28.8436   1
  -3  -5 -14 153.992 14.2188   1
  -3   5 -14 157.982 20.6621   1
   3  -6 -14 247.705 28.2403   1
  -3  -6  14 272.645 29.0363   1
   3   6 -14 285.128 26.0153   2
   2  -6 -14 21.3082 11.7054   1
  -2  -6  14 30.4149 13.4037   1
   2   6 -14 50.6127 12.6438   2
   2   6 -14 34.6475 15.0950   1
   1  -6 -14 92.7436 14.9991   1
  -1  -6  14 108.518 17.0968   1
   1   6 -14 78.2615 15.3428   1
   1   6 -14 68.6673 14.2455   2
   0  -6 -14 32.0726 10.8761   1
   0   6  14 25.9331 7.03557   2
   0   6 -14 30.8054 11.3722   2
   0   6 -14 31.4214 12.4515   1
  -1  -6 -14 9.20326 8.76982   1
  -1   6 -14 5.89709 11.5847   1
  -2  -6 -14 124.412 14.9380   1
  -2   6 -14 86.3259 17.3787   1
   5   0 -15 75.8956 13.6319   2
   5   0 -15 48.2364 13.3473   1
   4   0 -15 25.3439 10.1623   2
   4   0 -15 18.1856 10.8707   1
   3   0 -15 201.770 19.0649   2
   3   0 -15 186.784 21.0520   1
   2   0 -15 315.955 24.6041   1
   2   0 -15 281.874 22.7890   2
   1   0 -15 446.816 30.9073   1
   1   0 -15 444.966 36.2978   2
   0   0 -15 217.569 19.3820   1
  -1   0 -15 455.448 30.3086   1
  -2   0 -15 26.5238 8.84695   1
  -3   0 -15 17.3159 8.59911   1
  -4   0 -15 13.7908 9.15115   1
   5  -1 -15 201.706 20.6255   2
  -5  -1  15 184.705 22.0482   1
   5  -1 -15 214.031 24.5141   1
   5   1 -15 177.171 20.9297   2
   5   1 -15 165.532 21.0124   1
  -4  -1  15 311.181 26.9498   1
   4  -1 -15 327.378 28.2632   1
   4  -1 -15 346.293 26.3362   2
   4   1 -15 326.208 26.2062   2
   4   1 -15 340.919 29.2017   1
   3  -1 -15 281.981 23.0354   2
  -3  -1  15 291.234 24.4120   1
   3  -1 -15 289.934 25.3915   1
   3   1 -15 283.520 23.7719   2
   3   1 -15 285.804 25.5408   1
   2  -1 -15 316.837 24.0645   1
   2   1 -15 234.765 21.8948   2
   2   1 -15 279.540 23.9353   1
   1  -1 -15 61.7467 11.2182   1
   1   1 -15 60.7127 11.4517   1
   1   1 -15 48.8486 9.63307   2
   0  -1 -15 10.5282 7.45571   1
   0   1 -15 7.27014 7.69940   1
  -1  -1 -15 78.9973 11.2219   1
  -1   1 -15 56.0889 10.9629   1
  -2  -1 -15 36.9695 8.93085   1
  -2   1 -15 42.2862 10.4249   1
  -3  -1 -15 162.085 16.7002   1
  -3   1 -15 150.691 17.8334   1
  -4  -1 -15 121.181 14.0876   1
  -4   1 -15 117.352 15.5707   1
  -5  -2  15 5.71281 10.9513   1
   5  -2 -15 11.1121 11.5902   1
   5   2 -15 -1.5034 9.60450   1
   5   2 -15 13.4628 10.1130   2
   4  -2 -15 124.577 17.8271   1
  -4  -2  15 118.946 17.2767   1
   4   2 -15 131.863 16.5381   2
   4   2 -15 140.128 18.7026   1
  -3  -2  15 195.076 20.6807   1
   3  -2 -15 166.095 20.6671   1
   3   2 -15 184.709 19.4096   2
   3   2 -15 161.434 19.9669   1
  -2  -2  15 354.749 35.4252   1
   2  -2 -15 322.310 27.4031   1
   2   2 -15 353.244 26.1697   2
   2   2 -15 379.736 28.2249   1
   1  -2 -15 363.052 25.0870   1
   1   2 -15 284.862 23.5040   2
   1   2 -15 295.259 25.1588   1
   0  -2 -15 294.511 21.9444   1
   0   2 -15 258.615 23.1659   1
  -1  -2 -15 117.254 14.1606   1
  -1   2 -15 188.111 18.6278   1
  -2  -2 -15 141.272 15.3611   1
  -2   2 -15 157.999 18.4413   1
  -3  -2 -15 100.109 12.1406   1
  -3   2 -15 97.0620 14.6347   1
  -4  -2 -15 5.37534 7.42834   1
  -4   2 -15 1.00887 9.72757   1
  -5  -3  15 188.209 23.1877   1
   5  -3 -15 168.335 22.5895   1
   5   3 -15 145.974 19.6426   2
   4  -3 -15 329.436 28.8411   1
  -4  -3  15 338.839 27.6303   1
   4   3 -15 267.732 26.8874   1
   4   3 -15 265.001 25.6226   2
   3  -3 -15 205.023 22.2577   1
  -3  -3  15 181.665 21.0654   1
   3   3 -15 179.754 19.5244   2
   3   3 -15 183.847 21.0901   1
   2  -3 -15 76.2096 13.6480   1
  -2  -3  15 76.3962 13.7755   1
   2   3 -15 97.3961 13.9277   2
   2   3 -15 90.6015 14.4001   1
   1  -3 -15 76.4032 12.7334   1
   1   3 -15 84.2921 12.8357   2
   1   3 -15 85.2115 14.5193   1
   0  -3 -15 23.8318 8.94739   1
   0   3 -15 10.5616 9.12560   1
   0   3 -15 4.85976 7.48787   2
  -1  -3 -15 133.569 14.7101   1
  -1   3 -15 118.898 16.2408   1
  -2  -3 -15 91.9466 11.6430   1
  -2   3 -15 90.2221 14.9820   1
  -3  -3 -15 110.409 13.3206   1
  -3   3 -15 133.456 17.9100   1
  -4  -3 -15 198.360 16.2561   1
  -4   3 -15 195.444 23.7026   1
  -4  -4  15 85.6915 16.5310   1
   4  -4 -15 68.8149 16.3469   1
   4   4 -15 82.9805 14.9003   2
  -3  -4  15 119.160 18.0560   1
   3  -4 -15 135.274 18.5015   1
   3   4 -15 129.414 17.1240   2
   3   4 -15 131.857 18.2053   1
  -2  -4  15 114.651 17.1774   1
   2  -4 -15 109.767 16.2501   1
   2   4 -15 115.562 16.7425   1
   2   4 -15 107.091 15.1898   2
   1  -4 -15 215.339 20.2965   1
   1   4 -15 191.934 19.8175   2
   1   4 -15 184.533 21.4168   1
   0  -4 -15 306.529 23.5745   1
   0   4 -15 269.883 26.2184   1
   0   4 -15 289.174 24.0119   2
  -1  -4 -15 214.203 19.0213   1
  -1   4 -15 221.460 23.7071   1
  -2  -4 -15 43.8509 9.25939   1
  -2   4 -15 23.5592 11.7290   1
  -3  -4 -15 107.313 12.4907   1
  -3   4 -15 90.6911 16.8943   1
   3  -5 -15 108.368 18.3671   1
  -3  -5  15 117.382 19.1034   1
   3   5 -15 123.587 25.7638   1
   3   5 -15 114.199 16.6196   2
   2  -5 -15 39.0162 12.7336   1
  -2  -5  15 32.9449 13.2047   1
   2   5 -15 55.5215 13.8357   1
   2   5 -15 67.3751 13.5327   2
   1  -5 -15 5.63256 9.63657   1
   1   5 -15 16.1082 9.85497   2
   1   5 -15 25.2253 11.4819   1
   0  -5 -15 16.6439 9.83280   1
   0   5 -15 22.2494 10.6139   2
   0   5 -15 30.2489 12.1459   1
  -1  -5 -15 50.3132 10.7403   1
  -1   5 -15 36.6768 13.3504   1
  -2  -5 -15 90.0326 11.5974   1
  -2   5 -15 59.6542 15.4273   1
   1  -6 -15 67.2149 14.1153   1
   1   6 -15 48.2454 14.1310   1
   1   6 -15 49.2174 13.1978   2
   0  -6 -15 169.043 20.1492   1
   0   6 -15 174.270 24.2201   2
   0   6  15 163.375 14.6579   2
   0   6 -15 163.047 22.2248   1
   5   0 -16 162.915 21.5335   1
   5   0 -16 186.718 20.6856   2
   4   0 -16 129.040 18.6534   1
   4   0 -16 119.084 16.3866   2
   3   0 -16 82.8859 13.5714   2
   3   0 -16 98.3205 15.8969   1
   2   0 -16 12.6916 10.0014   1
   1   0 -16 4.65640 8.98186   1
   0   0 -16 11.0216 8.50755   1
  -1   0 -16 143.037 16.9758   1
  -2   0 -16 271.660 22.7783   1
  -3   0 -16 119.722 15.6134   1
  -4   0 -16 94.6010 14.1048   1
   5  -1 -16 70.1018 16.4174   1
   5   1 -16 75.8183 16.1471   1
   5   1 -16 71.6958 14.2933   2
   4  -1 -16 64.7721 14.8061   1
   4   1 -16 54.5404 12.5123   2
   4   1 -16 63.9840 14.9195   1
   3  -1 -16 395.476 31.6674   1
   3   1 -16 396.279 31.1552   1
   3   1 -16 387.097 29.1109   2
   2  -1 -16 230.760 23.3499   1
   2   1 -16 237.484 20.9525   2
   2   1 -16 267.888 24.1589   1
   1  -1 -16 497.849 33.7060   1
   1   1 -16 474.830 33.7336   1
   0  -1 -16 557.987 35.8468   1
   0   1 -16 533.064 36.5660   1
  -1  -1 -16 130.151 15.7045   1
  -1   1 -16 94.2235 14.3165   1
  -2  -1 -16 55.9735 10.9452   1
  -2   1 -16 81.2885 13.3499   1
  -3  -1 -16 63.1565 11.4246   1
  -3   1 -16 60.1915 12.7056   1
  -5  -2  16 71.3977 16.7130   1
   5  -2 -16 54.0445 16.2262   1
   5   2 -16 105.940 15.8227   2
   5   2 -16 80.7465 16.2139   1
   4  -2 -16 231.650 25.6419   1
   4   2 -16 257.707 24.3124   2
   4   2 -16 254.747 26.4399   1
   3  -2 -16 107.802 16.8439   1
   3   2 -16 87.5398 15.0888   1
   3   2 -16 96.2783 15.1700   2
   2  -2 -16 18.5265 10.6841   1
   2   2 -16 25.0085 9.53402   2
   2   2 -16 17.8390 10.3882   1
   1  -2 -16 6.47940 9.02827   1
   1   2 -16 17.2384 9.85777   1
   0  -2 -16 13.5257 8.74798   1
   0   2 -16 32.5532 10.5490   1
  -1  -2 -16 124.803 14.5137   1
  -1   2 -16 100.831 15.4025   1
  -2  -2 -16 157.907 16.4485   1
  -2   2 -16 134.145 17.6730   1
  -3  -2 -16 90.8830 12.2720   1
  -3   2 -16 80.9065 14.5810   1
   4  -3 -16 82.2512 16.9010   1
  -4  -3  16 80.4908 16.1604   1
   4   3 -16 82.3920 15.7442   1
   4   3 -16 101.963 16.0160   2
   3  -3 -16 206.608 24.5369   1
   3   3 -16 234.614 22.3360   2
   3   3 -16 237.945 24.0057   1
   2  -3 -16 393.076 30.5307   1
   2   3 -16 356.578 30.4594   1
   2   3 -16 396.001 29.3843   2
   1  -3 -16 244.469 23.0317   1
   1   3 -16 224.282 23.7452   1
   1   3 -16 269.942 24.7836   2
   0  -3 -16 171.322 18.9323   1
   0   3 -16 191.889 21.5504   1
  -1  -3 -16 146.705 16.6547   1
  -1   3 -16 175.701 21.0222   1
  -2  -3 -16 67.0660 10.8189   1
  -2   3 -16 62.7504 14.1988   1
  -3  -3 -16 1.07942 7.39806   1
  -3   3 -16 10.7043 10.8642   1
   3  -4 -16 79.3210 16.0622   1
   3   4 -16 86.3647 16.0889   1
   3   4 -16 97.8255 15.1743   2
   2  -4 -16 32.5995 12.2529   1
   2   4 -16 22.7288 10.6368   2
   2   4 -16 30.5436 12.4896   1
   1  -4 -16 12.7685 9.93716   1
   1   4 -16 -1.9947 8.40470   2
   1   4 -16 8.16434 10.7313   1
   0  -4 -16 68.3222 12.4224   1
   0   4 -16 52.0143 13.8623   1
  -1  -4 -16 29.8456 9.51672   1
  -1   4 -16 13.1550 11.2645   1
  -2  -4 -16 120.750 13.8407   1
  -2   4 -16 116.222 18.2234   1
   2  -5 -16 192.175 22.8738   1
   2   5 -16 218.776 23.1659   2
   2   5 -16 203.996 24.5802   1
   1  -5 -16 153.325 18.9761   1
   1   5 -16 155.376 20.2219   1
   1   5 -16 156.315 19.2947   2
   0  -5 -16 83.5390 14.0919   1
   0   5 -16 71.1876 15.8615   1
  -1  -5 -16 26.6781 9.93431   1
  -1   5 -16 15.3432 12.4348   1
   4   0 -17 378.775 32.4247   1
   3   0 -17 209.267 23.7933   1
   2   0 -17 400.599 31.3952   1
   1   0 -17 191.941 21.5361   1
   0   0 -17 47.0745 11.5281   1
  -1   0 -17 302.430 25.1865   1
  -2   0 -17 25.1292 10.0329   1
  -3   0 -17 4.04002 9.93457   1
   4  -1 -17 11.0816 12.0118   1
   4   1 -17 30.2763 12.2769   2
   4   1 -17 24.2681 13.1283   1
   3  -1 -17 32.1748 12.6993   1
   3   1 -17 35.6139 12.6666   1
   2  -1 -17 16.5382 10.7021   1
   2   1 -17 6.83817 9.93038   1
   1  -1 -17 62.5485 12.8214   1
   1   1 -17 48.8627 12.6600   1
   0  -1 -17 140.024 17.0832   1
   0   1 -17 134.389 17.6074   1
  -1  -1 -17 173.922 19.4108   1
  -1   1 -17 226.465 21.5847   1
  -2  -1 -17 234.075 21.2444   1
  -2   1 -17 236.543 23.0253   1
  -3  -1 -17 152.318 18.7888   1
  -3   1 -17 152.549 18.8905   1
   4  -2 -17 153.627 21.8960   1
   4   2 -17 177.604 22.5769   1
   4   2 -17 230.279 22.5520   2
   3  -2 -17 214.202 24.4334   1
   3   2 -17 221.738 23.8169   1
   3   2 -17 181.310 20.7205   2
   2  -2 -17 449.845 33.7787   1
   2   2 -17 423.948 33.7778   1
   1  -2 -17 254.507 24.1568   1
   1   2 -17 269.004 25.7496   1
   0  -2 -17 185.595 19.5950   1
   0   2 -17 175.237 20.5494   1
  -1  -2 -17 51.7808 11.4155   1
  -1   2 -17 39.0881 12.2880   1
  -2  -2 -17 2.22796 8.31750   1
  -2   2 -17 7.26363 10.3306   1
   3  -3 -17 5.94244 12.0913   1
   3   3 -17 1.71955 10.0853   2
   3   3 -17 3.37872 10.4514   1
   2  -3 -17 -0.6220 10.6594   1
   2   3 -17 4.29814 10.6015   1
   1  -3 -17 60.3654 13.4415   1
   1   3 -17 74.4705 14.6255   1
   0  -3 -17 40.6148 11.4902   1
   0   3 -17 48.1533 12.9129   1
  -1  -3 -17 126.555 15.5222   1
  -1   3 -17 134.349 18.9571   1
  -2  -3 -17 120.501 14.5274   1
  -2   3 -17 129.084 18.7499   1
   2  -4 -17 225.802 25.0594   1
   2   4 -17 196.201 27.2295   2
   2   4 -17 205.876 24.7489   1
   1  -4 -17 146.309 18.2261   1
   1   4 -17 143.534 20.0550   1
   0  -4 -17 177.530 20.2258   1
   0   4 -17 152.999 20.9572   1
  -1  -4 -17 34.8973 10.6640   1
  -1   4 -17 22.0594 12.5541   1
   3   0 -18 29.6871 13.3151   1
   2   0 -18 155.622 20.2292   1
   1   0 -18 120.829 17.8423   1
   0   0 -18 286.038 26.0751   1
  -1   0 -18 15.9238 10.2750   1
  -2   0 -18 216.909 22.6215   1
   3  -1 -18 263.268 27.6235   1
   3   1 -18 227.518 26.6599   1
   2  -1 -18 192.654 23.7614   1
   2   1 -18 194.916 22.9544   1
   1  -1 -18 191.204 22.0252   1
   1   1 -18 208.352 23.4911   1
   0  -1 -18 87.6882 14.9450   1
   0   1 -18 92.7485 15.9245   1
  -1  -1 -18 2.38124 9.38698   1
  -1   1 -18 1.00801 9.95883   1
  -2  -1 -18 51.9748 11.9480   1
  -2   1 -18 36.1807 12.5924   1
   3  -2 -18 58.9422 15.2345   1
   3   2 -18 44.5789 14.0940   1
   2  -2 -18 58.2869 14.6207   1
   2   2 -18 55.4268 14.6573   1
   1  -2 -18 77.1699 15.0848   1
   1   2 -18 89.8229 16.4576   1
   0  -2 -18 197.616 21.0570   1
   0   2 -18 150.496 20.2799   1
  -1  -2 -18 120.502 16.4671   1
  -1   2 -18 152.283 19.4740   1
   2  -3 -18 181.704 22.6528   1
   2   3 -18 216.122 25.2451   1
   1  -3 -18 282.345 26.3763   1
   1   3 -18 246.804 26.9315   1
   0  -3 -18 21.3944 11.4366   1
   0   3 -18 33.0749 12.7615   1
  -1  -3 -18 37.9768 11.8147   1
  -1   3 -18 33.9516 13.4107   1
   2   0 -19 111.290 18.4006   1
   1   0 -19 60.7885 14.7895   1
   0   0 -19 6.72376 11.0552   1
  -1   0 -19 17.5976 11.7532   1
   2  -1 -19 114.698 18.6832   1
   2   1 -19 90.9193 17.4086   1
   1  -1 -19 318.473 28.9496   1
   1   1 -19 314.416 30.1005   1
   0  -1 -19 206.402 23.8122   1
   0   1 -19 192.132 24.1982   1
   1  -2 -19 39.6651 13.7258   1
   1   2 -19 55.5217 15.2094   1
   0   0   0    0.00    0.00   0

 _exptl_absorpt_process_details 'SADABS 2014/4'
 _exptl_absorpt_correction_type   multiscan
 _exptl_absorpt_correction_T_max  0.7454
 _exptl_absorpt_correction_T_min  0.6705
 _exptl_special_details
)
 The following wavelength and cell were deduced by SADABS from the
 direction cosines etc. They are given here for emergency use only:
 CELL 0.71061    6.663    7.727   15.590   90.002   95.567   89.996
)

;
_shelx_hkl_checksum              61450
loop_
_space_group_symop_operation_xyz
'x, y, z'
'-x, y+1/2, -z'
loop_
_atom_site_label
_atom_site_type_symbol
_atom_site_fract_x
_atom_site_fract_y
_atom_site_fract_z
_atom_site_U_iso_or_equiv
_atom_site_adp_type
_atom_site_occupancy
_atom_site_site_symmetry_order
_atom_site_calc_flag
_atom_site_refinement_flags_posn
_atom_site_refinement_flags_adp
_atom_site_refinement_flags_occupancy
_atom_site_disorder_assembly
_atom_site_disorder_group
Br1 Br 0.54943(5) 0.74959(6) -0.19915(2) 0.02852(11) Uani 1 1 d . . . . .
O1 O -0.1826(4) 0.8887(3) 0.23681(16) 0.0252(6) Uani 1 1 d . . . . .
N1 N -0.2139(5) 0.9574(5) 0.3207(2) 0.0287(8) Uani 1 1 d . . . . .
C1 C 0.4163(5) 0.7626(7) -0.09638(18) 0.0212(7) Uani 1 1 d . . . . .
C2 C 0.5238(6) 0.8312(5) -0.0239(2) 0.0251(8) Uani 1 1 d . . . . .
H19 H 0.6547 0.8781 -0.0269 0.030 Uiso 1 1 calc R U . . .
C3 C 0.4369(5) 0.8300(5) 0.0528(2) 0.0252(8) Uani 1 1 d . . . . .
H18 H 0.5095 0.8778 0.1027 0.030 Uiso 1 1 calc R U . . .
C4 C 0.2461(4) 0.7612(7) 0.05951(18) 0.0189(7) Uani 1 1 d . . . . .
C5 C 0.1638(4) 0.7495(8) 0.14373(17) 0.0204(6) Uani 1 1 d . . . . .
C6 C 0.2570(5) 0.7926(4) 0.2196(2) 0.0208(9) Uani 1 1 d . . . . .
H5 H 0.3892 0.8400 0.2260 0.025 Uiso 1 1 calc R U . . .
C7 C 0.1366(4) 0.7605(7) 0.29484(18) 0.0200(7) Uani 1 1 d . . . . .
C8 C 0.1411(6) 0.9167(5) 0.3544(3) 0.0207(9) Uani 1 1 d . . . . .
C9 C 0.3205(6) 0.9697(5) 0.4008(2) 0.0289(9) Uani 1 1 d . . . . .
H11 H 0.4407 0.9064 0.3951 0.035 Uiso 1 1 calc R U . . .
C10 C 0.3277(7) 1.1100(6) 0.4542(2) 0.0377(10) Uani 1 1 d . . . . .
H9 H 0.4519 1.1430 0.4848 0.045 Uiso 1 1 calc R U . . .
C11 C 0.1542(7) 1.2046(5) 0.4638(2) 0.0415(13) Uani 1 1 d . . . . .
H4 H 0.1589 1.3013 0.5016 0.050 Uiso 1 1 calc R U . . .
C12 C 0.1407(5) 0.6972(4) -0.0159(2) 0.0232(9) Uani 1 1 d . . . . .
H3 H 0.0084 0.6526 -0.0138 0.028 Uiso 1 1 calc R U . . .
C13 C 0.2255(5) 0.6976(4) -0.0937(2) 0.0233(9) Uani 1 1 d . . . . .
H2 H 0.1526 0.6534 -0.1443 0.028 Uiso 1 1 calc R U . . .
C14 C -0.0410(5) 0.6756(5) 0.1557(2) 0.0271(9) Uani 1 1 d . . . . .
H16 H -0.0415 0.5482 0.1487 0.033 Uiso 1 1 calc R U . . .
H17 H -0.1455 0.7260 0.1136 0.033 Uiso 1 1 calc R U . . .
C15 C -0.0782(5) 0.7258(6) 0.2481(2) 0.0244(9) Uani 1 1 d . . . . .
C16 C -0.0299(6) 1.0142(5) 0.3631(2) 0.0245(9) Uani 1 1 d . . . . .
C17 C 0.2195(6) 0.6006(6) 0.3455(3) 0.0294(11) Uani 1 1 d . . . . .
H6 H 0.2048 0.4983 0.3083 0.044 Uiso 1 1 calc R U . . .
H8 H 0.1442 0.5833 0.3958 0.044 Uiso 1 1 calc R U . . .
H7 H 0.3624 0.6186 0.3647 0.044 Uiso 1 1 calc R U . . .
C18 C -0.0247(6) 1.1572(5) 0.4182(2) 0.0329(10) Uani 1 1 d . . . . .
H10 H -0.1441 1.2214 0.4242 0.040 Uiso 1 1 calc R U . . .
C19 C -0.2086(6) 0.5953(6) 0.2902(3) 0.0304(11) Uani 1 1 d . . . . .
H13 H -0.2256 0.6324 0.3492 0.046 Uiso 1 1 calc R U . . .
H15 H -0.1432 0.4816 0.2916 0.046 Uiso 1 1 calc R U . . .
H14 H -0.3408 0.5877 0.2570 0.046 Uiso 1 1 calc R U . . .
H1 H -0.3085 1.0402 0.3065 0.050 Uiso 1 1 d . . . . .
loop_
_atom_site_aniso_label
_atom_site_aniso_U_11
_atom_site_aniso_U_22
_atom_site_aniso_U_33
_atom_site_aniso_U_23
_atom_site_aniso_U_13
_atom_site_aniso_U_12
Br1 0.03226(19) 0.03139(18) 0.02301(18) -0.0006(2) 0.00826(13) -0.0013(2)
O1 0.0218(15) 0.0309(15) 0.0237(14) 0.0022(12) 0.0055(12) 0.0044(12)
N1 0.026(2) 0.033(2) 0.0293(19) 0.0017(16) 0.0124(16) 0.0105(15)
C1 0.0275(17) 0.0184(17) 0.0182(15) 0.002(2) 0.0042(12) 0.002(2)
C2 0.023(2) 0.0267(19) 0.026(2) -0.0001(16) 0.0060(16) -0.0037(16)
C3 0.027(2) 0.0287(19) 0.0198(19) -0.0037(16) 0.0008(16) -0.0041(16)
C4 0.0172(15) 0.0163(16) 0.0229(15) -0.004(2) 0.0008(12) 0.003(2)
C5 0.0176(15) 0.0207(14) 0.0230(16) -0.003(3) 0.0026(12) 0.003(2)
C6 0.0151(17) 0.021(2) 0.0261(19) -0.0019(14) 0.0035(14) -0.0010(13)
C7 0.0168(15) 0.0225(17) 0.0209(15) 0.003(2) 0.0033(12) 0.002(2)
C8 0.021(2) 0.023(2) 0.019(2) 0.0018(16) 0.0056(17) -0.0030(17)
C9 0.025(2) 0.040(2) 0.022(2) 0.0000(18) 0.0033(17) -0.0041(18)
C10 0.043(3) 0.045(3) 0.025(2) -0.005(2) 0.0026(19) -0.012(2)
C11 0.071(3) 0.033(3) 0.022(2) -0.0038(17) 0.011(2) -0.010(2)
C12 0.0152(18) 0.027(2) 0.0270(19) -0.0013(14) -0.0003(14) 0.0024(14)
C13 0.025(2) 0.027(2) 0.0174(18) -0.0055(14) -0.0031(15) 0.0031(14)
C14 0.022(2) 0.034(2) 0.026(2) -0.0054(17) 0.0029(15) -0.0067(16)
C15 0.0191(17) 0.030(3) 0.0254(17) 0.0008(19) 0.0059(13) 0.0009(19)
C16 0.029(2) 0.026(2) 0.0193(19) 0.0059(16) 0.0089(16) -0.0006(17)
C17 0.029(3) 0.033(2) 0.027(2) -0.0011(19) 0.007(2) 0.004(2)
C18 0.050(3) 0.025(2) 0.027(2) 0.0079(17) 0.016(2) 0.0074(19)
C19 0.022(2) 0.032(2) 0.038(3) 0.003(2) 0.006(2) -0.0074(18)
loop_
_atom_type_symbol
_atom_type_description
_atom_type_scat_dispersion_real
_atom_type_scat_dispersion_imag
_atom_type_scat_source
C C 0.0033 0.0016 'International Tables Vol C Tables 4.2.6.8 and 6.1.1.4'
H H 0.0000 0.0000 'International Tables Vol C Tables 4.2.6.8 and 6.1.1.4'
N N 0.0061 0.0033 'International Tables Vol C Tables 4.2.6.8 and 6.1.1.4'
O O 0.0106 0.0060 'International Tables Vol C Tables 4.2.6.8 and 6.1.1.4'
Br Br -0.2901 2.4595 'International Tables Vol C Tables 4.2.6.8 and 6.1.1.4'
loop_
_geom_angle_atom_site_label_1
_geom_angle_atom_site_label_2
_geom_angle_atom_site_label_3
_geom_angle
_geom_angle_site_symmetry_1
_geom_angle_site_symmetry_3
_geom_angle_publ_flag
C15 O1 N1 108.7(3) . . ?
C16 N1 O1 110.2(3) . . ?
C16 N1 H1 116.5 . . ?
O1 N1 H1 101.3 . . ?
C13 C1 C2 121.6(3) . . ?
C13 C1 Br1 120.9(3) . . ?
C2 C1 Br1 117.4(3) . . ?
C3 C2 C1 118.6(3) . . ?
C3 C2 H19 120.7 . . ?
C1 C2 H19 120.7 . . ?
C2 C3 C4 122.1(3) . . ?
C2 C3 H18 118.9 . . ?
C4 C3 H18 118.9 . . ?
C3 C4 C12 117.4(3) . . ?
C3 C4 C5 120.8(3) . . ?
C12 C4 C5 121.8(3) . . ?
C6 C5 C4 126.7(3) . . ?
C6 C5 C14 109.7(3) . . ?
C4 C5 C14 123.6(3) . . ?
C5 C6 C7 114.5(3) . . ?
C5 C6 H5 122.7 . . ?
C7 C6 H5 122.7 . . ?
C6 C7 C8 111.4(4) . . ?
C6 C7 C17 109.9(3) . . ?
C8 C7 C17 109.8(2) . . ?
C6 C7 C15 101.4(2) . . ?
C8 C7 C15 112.5(3) . . ?
C17 C7 C15 111.6(4) . . ?
C16 C8 C9 117.5(4) . . ?
C16 C8 C7 121.6(3) . . ?
C9 C8 C7 120.9(3) . . ?
C10 C9 C8 121.8(4) . . ?
C10 C9 H11 119.1 . . ?
C8 C9 H11 119.1 . . ?
C9 C10 C11 120.3(4) . . ?
C9 C10 H9 119.9 . . ?
C11 C10 H9 119.9 . . ?
C18 C11 C10 119.5(4) . . ?
C18 C11 H4 120.3 . . ?
C10 C11 H4 120.3 . . ?
C13 C12 C4 121.3(3) . . ?
C13 C12 H3 119.4 . . ?
C4 C12 H3 119.4 . . ?
C1 C13 C12 119.0(3) . . ?
C1 C13 H2 120.5 . . ?
C12 C13 H2 120.5 . . ?
C5 C14 C15 104.5(3) . . ?
C5 C14 H16 110.8 . . ?
C15 C14 H16 110.8 . . ?
C5 C14 H17 110.8 . . ?
C15 C14 H17 110.8 . . ?
H16 C14 H17 108.9 . . ?
O1 C15 C19 110.1(3) . . ?
O1 C15 C14 103.1(3) . . ?
C19 C15 C14 112.8(4) . . ?
O1 C15 C7 108.4(4) . . ?
C19 C15 C7 116.6(3) . . ?
C14 C15 C7 104.9(3) . . ?
C8 C16 C18 121.2(4) . . ?
C8 C16 N1 118.2(3) . . ?
C18 C16 N1 120.3(3) . . ?
C7 C17 H6 109.5 . . ?
C7 C17 H8 109.5 . . ?
H6 C17 H8 109.5 . . ?
C7 C17 H7 109.5 . . ?
H6 C17 H7 109.5 . . ?
H8 C17 H7 109.5 . . ?
C11 C18 C16 119.8(4) . . ?
C11 C18 H10 120.1 . . ?
C16 C18 H10 120.1 . . ?
C15 C19 H13 109.5 . . ?
C15 C19 H15 109.5 . . ?
H13 C19 H15 109.5 . . ?
C15 C19 H14 109.5 . . ?
H13 C19 H14 109.5 . . ?
H15 C19 H14 109.5 . . ?
loop_
_geom_bond_atom_site_label_1
_geom_bond_atom_site_label_2
_geom_bond_distance
_geom_bond_site_symmetry_2
_geom_bond_publ_flag
Br1 C1 1.907(3) . ?
O1 C15 1.441(5) . ?
O1 N1 1.444(4) . ?
N1 C16 1.406(5) . ?
N1 H1 0.9105 . ?
C1 C13 1.372(5) . ?
C1 C2 1.384(5) . ?
C2 C3 1.377(5) . ?
C2 H19 0.9500 . ?
C3 C4 1.391(5) . ?
C3 H18 0.9500 . ?
C4 C12 1.401(5) . ?
C4 C5 1.473(4) . ?
C5 C6 1.324(4) . ?
C5 C14 1.508(5) . ?
C6 C7 1.504(4) . ?
C6 H5 0.9500 . ?
C7 C8 1.522(6) . ?
C7 C17 1.540(6) . ?
C7 C15 1.566(5) . ?
C8 C16 1.384(5) . ?
C8 C9 1.398(5) . ?
C9 C10 1.364(6) . ?
C9 H11 0.9500 . ?
C10 C11 1.388(6) . ?
C10 H9 0.9500 . ?
C11 C18 1.378(5) . ?
C11 H4 0.9500 . ?
C12 C13 1.385(5) . ?
C12 H3 0.9500 . ?
C13 H2 0.9500 . ?
C14 C15 1.534(5) . ?
C14 H16 0.9900 . ?
C14 H17 0.9900 . ?
C15 C19 1.521(6) . ?
C16 C18 1.398(5) . ?
C17 H6 0.9800 . ?
C17 H8 0.9800 . ?
C17 H7 0.9800 . ?
C18 H10 0.9500 . ?
C19 H13 0.9800 . ?
C19 H15 0.9800 . ?
C19 H14 0.9800 . ?
