#------------------------------------------------------------------------------
#$Date: 2020-06-04 03:56:13 +0300 (Thu, 04 Jun 2020) $
#$Revision: 252592 $
#$URL: file:///home/coder/svn-repositories/cod/cif/4/51/76/4517655.cif $
#------------------------------------------------------------------------------
#
# This file is available in the Crystallography Open Database (COD),
# http://www.crystallography.net/
#
# All data on this site have been placed in the public domain by the
# contributors.
#
data_4517655
loop_
_publ_author_name
'Hua, Guoxiong'
'Cordes, David B.'
'Slawin, Alexandra M. Z.'
'Woollins, J. Derek'
_publ_section_title
;
 Novel Five- and Six-Membered Rings of Phosphorus-Selenium Heterocycles
 from Selenation of Amido-Schiff Bases.
;
_journal_issue                   20
_journal_name_full               'ACS omega'
_journal_page_first              11737
_journal_page_last               11744
_journal_paper_doi               10.1021/acsomega.0c01064
_journal_volume                  5
_journal_year                    2020
_chemical_formula_moiety         'C30 H30 O4 P2 Se4, 2(C H2 Cl2)'
_chemical_formula_sum            'C32 H34 Cl4 O4 P2 Se4'
_chemical_formula_weight         1002.22
_space_group_crystal_system      triclinic
_space_group_IT_number           2
_space_group_name_Hall           '-P 1'
_space_group_name_H-M_alt        'P -1'
_atom_sites_solution_hydrogens   geom
_atom_sites_solution_primary     direct
_atom_sites_solution_secondary   difmap
_audit_creation_date             2017-11-29
_audit_creation_method           'by CrystalStructure 4.2'
_cell_angle_alpha                70.724(11)
_cell_angle_beta                 88.500(14)
_cell_angle_gamma                64.524(8)
_cell_formula_units_Z            1
_cell_length_a                   9.3324(13)
_cell_length_b                   9.3983(7)
_cell_length_c                   12.8393(14)
_cell_measurement_reflns_used    3008
_cell_measurement_temperature    173
_cell_measurement_theta_max      26.30
_cell_measurement_theta_min      1.70
_cell_volume                     950.7(2)
_computing_cell_refinement       'CrystalClear-SM Expert 2.1 b32'
_computing_data_collection
'CrystalClear-SM Expert 2.1 b32 (Rigaku, 2014)'
_computing_data_reduction        'CrystalClear-SM Expert 2.1 b32'
_computing_molecular_graphics    'CrystalStructure 4.2'
_computing_publication_material  'CrystalStructure 4.2 (Rigaku, 2015)'
_computing_structure_refinement  'SHELXL Version 2016/6 (Sheldrick, 2008)'
_computing_structure_solution    'DIRDIF99-PATTY (Gould, et al., 1999)'
_diffrn_ambient_temperature      173
_diffrn_detector_area_resol_mean 5.814
_diffrn_measured_fraction_theta_full 0.987
_diffrn_measured_fraction_theta_max 0.984
_diffrn_measurement_device_type  'Rigaku XtaLAB P200'
_diffrn_measurement_method       \w
_diffrn_radiation_type           'Mo K\a'
_diffrn_radiation_wavelength     0.71075
_diffrn_reflns_av_R_equivalents  0.0329
_diffrn_reflns_Laue_measured_fraction_full 0.987
_diffrn_reflns_Laue_measured_fraction_max 0.984
_diffrn_reflns_limit_h_max       11
_diffrn_reflns_limit_h_min       -11
_diffrn_reflns_limit_k_max       11
_diffrn_reflns_limit_k_min       -11
_diffrn_reflns_limit_l_max       14
_diffrn_reflns_limit_l_min       -15
_diffrn_reflns_number            11750
_diffrn_reflns_point_group_measured_fraction_full 0.987
_diffrn_reflns_point_group_measured_fraction_max 0.984
_diffrn_reflns_theta_full        25.242
_diffrn_reflns_theta_max         25.403
_diffrn_reflns_theta_min         1.696
_diffrn_standards_number         0
_exptl_absorpt_coefficient_mu    4.259
_exptl_absorpt_correction_T_max  0.774
_exptl_absorpt_correction_T_min  0.417
_exptl_absorpt_correction_type   multi-scan
_exptl_absorpt_process_details   'REQAB (Rigaku, 1998)'
_exptl_crystal_colour            colorless
_exptl_crystal_density_diffrn    1.750
_exptl_crystal_density_method    'not measured'
_exptl_crystal_description       prism
_exptl_crystal_F_000             492.00
_exptl_crystal_size_max          0.210
_exptl_crystal_size_mid          0.210
_exptl_crystal_size_min          0.060
_refine_diff_density_max         0.92
_refine_diff_density_min         -0.90
_refine_ls_extinction_method     none
_refine_ls_goodness_of_fit_ref   1.072
_refine_ls_hydrogen_treatment    constr
_refine_ls_number_parameters     210
_refine_ls_number_reflns         3442
_refine_ls_number_restraints     0
_refine_ls_R_factor_all          0.0259
_refine_ls_R_factor_gt           0.0221
_refine_ls_shift/su_max          0.001
_refine_ls_structure_factor_coef Fsqd
_refine_ls_weighting_details
'w = 1/[\s^2^(Fo^2^)+(0.0302P)^2^+0.2096P] where P=(Fo^2^+2Fc^2^)/3'
_refine_ls_weighting_scheme      calc
_refine_ls_wR_factor_gt          0.0567
_refine_ls_wR_factor_ref         0.0576
_reflns_Friedel_coverage         0.000
_reflns_number_gt                3025
_reflns_number_total             3442
_reflns_threshold_expression     F^2^>2.0\s(F^2^)
_cod_data_source_file            ao0c01064_si_001.cif
_cod_data_source_block           4
_cod_depositor_comments
'Adding full bibliography for 4517654--4517661.cif.'
_cod_database_code               4517655
_shelx_res_file
;
TITL HW488
    shelxl.res
    created by SHELXL-2016/6 at 12:29:29 on 29-Nov-2017
CELL  0.71075 9.33240 9.39830 12.83930 70.72400 88.50000 64.52400
ZERR  1 0.00130 0.00070 0.00140 0.01100 0.01400 0.00800
LATT 1
SFAC C H O P SE CL
UNIT 32 34 4 2 4 4
L.S. 5
FMAP 2
PLAN 5
BOND $H
CONF
LIST 4
TEMP -100.0
ACTA
SIZE 0.210 0.210 0.060
WGHT    0.030200    0.209600
FVAR       1.00293
SE1   5    0.079203    0.947635   -0.229078    11.00000    0.02062    0.02784 =
         0.03245   -0.01488    0.01000   -0.01036
SE2   5    0.003675    0.777092    0.057008    11.00000    0.02233    0.01683 =
         0.02232   -0.00404   -0.00353   -0.00849
CL21  6    0.077033    0.537637    0.635197    11.00000    0.05692    0.06837 =
         0.07118   -0.02862    0.00816   -0.03051
CL22  6   -0.173761    0.854688    0.493405    11.00000    0.05618    0.10211 =
         0.06625    0.00187    0.02062   -0.01917
P1    4   -0.088715    0.969283   -0.116301    11.00000    0.01497    0.01654 =
         0.01913   -0.00691    0.00001   -0.00517
O16   3    0.496044    0.636657    0.083925    11.00000    0.01955    0.02371 =
         0.02403   -0.00511    0.00475   -0.00217
O18   3    0.607396    0.274380    0.460669    11.00000    0.03569    0.02686 =
         0.02572    0.00261   -0.00757   -0.00560
C3    1    0.178822    0.824928    0.095802    11.00000    0.01494    0.01727 =
         0.02115   -0.00736    0.00061   -0.00551
AFIX  13
H3    2    0.241749    0.833928    0.031744    11.00000   -1.20000
AFIX   0
C4    1   -0.250156    0.926671   -0.149714    11.00000    0.01849    0.01880 =
         0.01504   -0.00368   -0.00023   -0.00777
C5    1   -0.215225    0.807395   -0.200018    11.00000    0.02087    0.02373 =
         0.02531   -0.01083    0.00419   -0.00833
AFIX  43
H5    2   -0.108620    0.748200   -0.212883    11.00000   -1.20000
AFIX   0
C6    1   -0.335298    0.774642   -0.231407    11.00000    0.03231    0.03008 =
         0.03177   -0.01850    0.00642   -0.01758
AFIX  43
H6    2   -0.310991    0.691879   -0.264737    11.00000   -1.20000
AFIX   0
C7    1   -0.490887    0.862873   -0.214071    11.00000    0.02679    0.03444 =
         0.03840   -0.01397   -0.00007   -0.01861
AFIX  43
H7    2   -0.574074    0.843251   -0.237835    11.00000   -1.20000
AFIX   0
C8    1   -0.525825    0.979714   -0.162196    11.00000    0.01741    0.03202 =
         0.04232   -0.01572    0.00699   -0.01052
AFIX  43
H8    2   -0.632529    1.038651   -0.149394    11.00000   -1.20000
AFIX   0
C9    1   -0.405250    1.010789   -0.128916    11.00000    0.02208    0.02351 =
         0.02814   -0.01271    0.00544   -0.00991
AFIX  43
H9    2   -0.428738    1.089298   -0.092052    11.00000   -1.20000
AFIX   0
C10   1    0.287489    0.678852    0.195085    11.00000    0.01924    0.01617 =
         0.02037   -0.00662   -0.00268   -0.00677
C11   1    0.449746    0.585931    0.185755    11.00000    0.02093    0.01673 =
         0.02069   -0.00779    0.00156   -0.00695
C12   1    0.552323    0.452491    0.276595    11.00000    0.01910    0.01928 =
         0.02954   -0.00900   -0.00193   -0.00427
AFIX  43
H12   2    0.662009    0.392091    0.270331    11.00000   -1.20000
AFIX   0
C13   1    0.494971    0.406498    0.377349    11.00000    0.02841    0.01624 =
         0.02378   -0.00413   -0.00649   -0.00737
C14   1    0.334682    0.492229    0.387455    11.00000    0.03196    0.02124 =
         0.02037   -0.00552    0.00173   -0.01216
AFIX  43
H14   2    0.294864    0.459271    0.455595    11.00000   -1.20000
AFIX   0
C15   1    0.233966    0.627103    0.295820    11.00000    0.02040    0.02057 =
         0.02460   -0.00858    0.00134   -0.00844
AFIX  43
H15   2    0.124156    0.686222    0.302372    11.00000   -1.20000
AFIX   0
C17   1    0.659083    0.545717    0.071020    11.00000    0.02906    0.04197 =
         0.03607   -0.00392    0.01235    0.00092
AFIX 137
H17A  2    0.684000    0.427454    0.087184    11.00000   -1.20000
H17B  2    0.729268    0.552627    0.122650    11.00000   -1.20000
H17C  2    0.675998    0.594590   -0.005639    11.00000   -1.20000
AFIX   0
C19   1    0.554223    0.212137    0.563892    11.00000    0.05710    0.03144 =
         0.02599    0.00332   -0.00932   -0.01752
AFIX 137
H19A  2    0.475162    0.174931    0.551028    11.00000   -1.20000
H19B  2    0.505212    0.301925    0.594922    11.00000   -1.20000
H19C  2    0.645885    0.116935    0.616408    11.00000   -1.20000
AFIX   0
C21   1    0.025810    0.745685    0.550146    11.00000    0.06106    0.07465 =
         0.06399   -0.03210    0.01941   -0.04039
AFIX  23
H21A  2    0.048335    0.803940    0.594537    11.00000   -1.20000
H21B  2    0.093162    0.745712    0.489280    11.00000   -1.20000
AFIX   0
HKLF 4




REM  HW488
REM R1 =  0.0221 for    3025 Fo > 4sig(Fo)  and  0.0259 for all    3442 data
REM    210 parameters refined using      0 restraints

END

WGHT      0.0302      0.2096

REM Highest difference peak  0.917,  deepest hole -0.899,  1-sigma level  0.064
Q1    1  -0.1445  0.9243  0.5048  11.00000  0.05    0.92
Q2    1  -0.1065  0.7743  0.4861  11.00000  0.05    0.51
Q3    1  -0.2171  0.8635  0.4876  11.00000  0.05    0.49
Q4    1   0.1125  0.8131  0.0786  11.00000  0.05    0.36
Q5    1  -0.1860  0.9438 -0.1291  11.00000  0.05    0.35
;
_shelx_res_checksum              46863
_shelx_hkl_file
;
   0   0  -1 2160.84   55.53
   0   0  -1 2210.02   67.81
   0   0   1 2092.03   71.58
   1   0   0 6180.02  115.53
   1   0   0 6832.34  123.30
  -1   0   0 6200.09  115.96
  -1   0   0 6800.89  139.01
   1   0   0 6770.05  137.09
   0   1   1 1987.35   49.56
   0  -1  -1 2060.12   50.34
   0  -1  -1 2100.74   52.58
   0   1   1 2113.95   53.47
   0  -1  -1 2101.37   66.14
   0   1   0 4024.92   82.16
   0  -1   0 3796.56   79.79
   0  -1   0 4028.96   82.07
   0   1   0 3607.30   99.71
   0  -1   0 3858.21  103.75
   0   1   0 3800.63   80.15
   1   1   010416.62  177.65
  -1  -1   010359.82  189.16
   1   1   010742.57  193.66
  -1  -1   010498.32  183.36
   1   1   010385.67  182.52
  -1   0   1 4205.88   97.32
   1   0  -1 4759.60   94.08
   1   0  -1 4780.58  104.89
  -1   0   1 4443.05  104.04
   1   0  -1 4546.03  106.51
   1   1   1 2287.55   53.69
  -1  -1  -1 2181.20   52.35
   1   1   1 2234.79   54.37
  -1  -1  -1 1954.97   49.61
  -1  -1  -1 2159.80   62.87
   1   1   1 2280.87   64.89
  -1   0  -1  276.89   24.62
   1   0   1  271.89   17.08
   1   0   1  260.60   23.51
  -1   0  -1  269.19   16.63
   1   0   1  271.87   22.21
   0   0  -2  100.41   25.22
   0   0  -2   21.93   11.39
   0   0   2   19.76   11.59
   0   0  -2   21.80    8.05
   1   1  -1 1554.59   38.54
  -1  -1   1 1574.79   46.73
   1   1  -1 1589.22   44.48
  -1  -1   1 1636.21   45.36
  -1  -1   1 1636.21   45.36
   1   1  -1 1675.77   47.35
   0   1   2  665.88   23.84
   0  -1  -2  699.88   23.91
   0  -1  -2  682.32   24.01
   0   1   2  705.78   24.68
   0   1  -1 5825.35  135.65
   0  -1   1 5939.33  117.72
   0   1  -1 5719.74  114.79
   0   1  -1 5732.95  109.10
   0  -1   1 5571.73  105.42
   0   1  -1 5825.35  135.65
  -1  -1  -2 1006.03   31.92
   1   1   2  942.39   28.31
   1   1   2 1047.97   31.91
  -1  -1  -2  979.84   36.73
   1   0  -2 3656.66   74.23
  -1   0   2 3871.57   95.04
   1   0  -2 3640.39   91.65
   1   0  -2 4014.49   91.55
   1  -1  -1  835.86   27.88
  -1   1   1  699.10   24.97
   1  -1  -1  834.78   39.16
   1  -1  -1  808.47   26.53
  -1   1   0 5990.73  134.42
   1  -1   0 5890.51  110.85
   1  -1   0 5866.56  134.44
  -1   1   0 5928.00  111.50
  -1   1   0 5990.73  134.42
   1  -1   0 6337.73  117.50
   1   2   1   35.43    8.85
   1   2   1   35.43    8.85
  -1  -2  -1   14.03    8.17
  -1  -2  -1   12.03    9.49
  -1  -2  -1   15.13    7.26
  -1  -2  -1   14.03    8.17
   1   2   1   11.82    8.02
   2   1   0  386.30   24.37
   2   1   0  377.81   23.21
   2   1   0  431.30   21.21
  -2  -1   0  385.84   24.24
   1   0   2  348.50   25.16
  -1   0  -2  355.01   27.35
   1   0   2  308.00   24.99
   1   0   2  339.57   18.99
  -1   0  -2  349.74   19.46
   1   0   2  348.85   25.16
   1   0   2  348.85   25.16
   1   2   0 2037.28   51.87
   1   2   0 2272.53   63.74
   1   2   0 2272.53   63.74
  -1  -2   0 2132.47   61.23
   1   2   0 2110.66   53.25
  -1  -2   0 2135.76   53.99
   1  -1  -2 2086.34   61.47
   1  -1  -2 2026.37   51.68
   1  -1  -2 2025.32   49.54
   2   1   1 7819.81  152.95
   2   1   1 7758.15  141.25
  -2  -1  -1 7558.96  149.31
   2   1   1 7839.25  140.32
   1   1  -2 1263.26   41.61
  -1  -1   2 1227.58   34.33
   1   1  -2 1273.74   36.36
   1   1  -2 1323.78   42.41
  -1  -1   2 1335.52   43.31
   1   1  -2 1323.78   42.41
   1   2   2 1776.96   46.25
  -1  -2  -2 1774.88   46.47
  -1  -2  -2 1853.17   55.23
  -1  -2  -2 1767.82   45.67
   1   2   2 1838.21   46.80
   2   1  -1 2737.17   60.65
   2   1  -1 2792.41   70.96
   2   1  -1 2618.86   67.49
  -2  -1   1 2674.56   70.64
   2   1  -1 2737.17   60.65
   0  -2  -1 4625.92  110.88
   0   2   1 4529.21   90.40
   0  -2  -1 4583.12   94.19
   0  -2  -1 4686.55   91.96
   0  -2  -1 4825.63   95.11
   0  -1  -3  479.19   30.44
   0  -1  -3  481.90   20.74
   0  -1  -3  489.54   25.95
   0   1   3  433.65   30.92
   0  -1  -3  484.57   20.17
   2   0   015710.91  271.27
   2   0   015889.11  262.08
   2   0   014867.52  245.09
   2   0   015730.72  279.46
  -2   0   015533.28  306.46
   0   1  -2 6268.76  118.43
   0  -1   2 6810.58  134.37
   0  -1   2 6810.58  134.37
   0   1  -2 6783.24  150.46
   2   0  -1   21.58    8.26
   2   0  -1   20.86   10.12
  -2   0   1   20.97    9.87
   2   0  -1   23.80   11.61
   1  -1   1  967.85   32.87
  -1   1  -1  960.82   42.70
  -1   1  -1  957.48   29.68
   1  -1   1  947.59   41.95
   1  -1   1 1016.63   30.43
   0  -2  -227842.64  440.20
   0   2   228813.42  452.61
   0   2   227695.08  436.30
   0  -2  -226612.84  435.94
   0  -2  -226612.84  435.94
   0  -2  -229088.99  452.77
   0   0  -3 4326.49  109.09
   0   0   3 4754.96  109.66
   0   0  -3 4772.00  116.36
   0   0  -3 4530.36   93.16
   0  -2   0  524.38   22.45
   0   2   0  547.83   22.21
   0   2   0  474.51   21.83
   0  -2   0  553.44   22.41
   0   2   0  473.69   33.01
   0  -2   0  510.40   31.49
  -2  -2  -1 1758.07   54.27
   2   2   1 1812.70   45.58
   2   2   1 1742.71   46.32
   2   2   1 1742.71   46.32
   1   1   3  808.72   29.46
   1   1   3  618.52   34.17
   1   1   3  765.31   33.92
  -1  -1  -3  738.56   27.13
   2   2   0    5.62    7.30
  -2  -2   0    9.02   10.52
   2   2   0    5.62    7.30
  -2  -2   0    6.95    6.19
   2   2   0    5.01    7.63
   2   2   0    7.56    9.94
  -1   0   3 1608.97   48.22
   1   0  -3 1737.88   52.81
   1   0  -3 1521.62   50.42
   1   0  -3 1693.39   38.63
  -1   0   3 1673.39   39.59
  -1   0   3 1673.39   39.59
  -1   0   3 1640.99   52.04
   2   0   111381.64  209.52
  -2   0  -111262.29  194.26
   2   0   111392.60  222.84
   2   0   111256.06  191.76
  -1  -2   1 3623.53   80.54
   1   2  -1 3668.18   81.26
  -1  -2   1 3671.41   90.32
   1   2  -1 3862.17   91.45
   1   2  -1 3658.30   77.36
  -2  -1  -2   31.52   10.01
  -2  -1  -2   84.55   13.55
   2   1   2   25.38   11.99
  -2  -1  -2   24.99    9.02
   2   1   2   28.04    8.52
   2   0  -2 3427.87   74.50
   2   0  -2 3236.62   78.51
   2   0  -2 3038.56   83.99
   1  -1  -3 1666.07   48.30
   1  -1  -3 1599.92   47.57
   1  -1  -3 1574.65   37.56
   1  -1  -3 1618.84   38.09
  -1   1   3 1527.01   49.47
  -1   1   3 1499.08   38.43
  -2  -2  -241988.25  671.92
   2   2   242622.01  182.53
   2   2   242318.84  192.08
  -1  -2  -3   19.06   10.11
   1   2   3   15.95    8.66
   1   2   3   16.95    6.66
   1   2   3   35.68   10.62
  -1  -2  -3   20.53    7.18
   2   1  -217248.10  305.17
   2   1  -219261.52  319.70
   0   2   3 3896.36  106.03
   0  -2  -3 3886.43   80.25
   0   2   3 3833.82   78.63
   0  -2  -3 3771.32   77.28
   0  -2  -3 3839.55   88.66
   2   2  -1 1615.37   43.60
  -2  -2   1 1535.45   46.34
  -2  -2   1 1530.13   38.15
   2   2  -1 1642.62   46.74
   2   2  -1 1543.22   39.11
  -1   0  -3   88.42   17.01
   1   0   3   84.21   15.45
  -1   0  -3   86.19   12.34
   1   0   3   80.80   11.08
   0  -2   1 2262.95   72.44
   0   2  -1 2611.42   81.49
   0   2  -1 2525.72   60.12
   0  -2   1 2566.85   62.65
   1  -1   2 3490.00   73.68
   1  -1   2 3401.15   92.58
  -1   1  -2 3465.03   93.20
   1  -1   2 3594.73   83.01
  -1   1  -2 3277.64   71.96
  -1   1  -2 3271.59   76.79
   1   1  -3   83.32   14.06
  -1  -1   3   86.08   14.65
   1   1  -3   83.99   15.04
   1   1  -3   74.55   10.84
  -1  -1   3   77.01   11.21
  -1   2   114805.47  262.29
   1  -2  -114879.95  279.72
   1  -2  -116272.64  265.45
   1  -2  -116750.61  273.10
   2  -1  -1  203.12   21.64
   2  -1  -1  223.24   14.62
  -2   1   1  218.92   14.65
   2  -1  -1  238.48   19.51
   2  -1  -1  231.17   15.84
  -2   0  -2  485.17   31.54
  -2   0  -2  451.62   21.79
   2   0   2  449.51   30.09
   2   0   2  477.26   21.71
   2   0   2  455.98   29.71
  -2   0  -2  487.31   29.46
   0  -1  -419506.83  339.95
   0  -1  -420095.26  322.48
   0  -1  -420610.02  330.63
   0   1   419770.42  359.62
   0  -1  -420479.86  384.52
   1  -2  -2 1822.70   62.77
   1  -2  -2 1959.80   48.48
   1  -2  -2 1935.06   51.23
   1  -2  -2 1972.39   49.88
  -1   2   2 1854.20   62.58
   2  -1   0  880.64   40.37
  -2   1   0  891.03   28.35
   2  -1   0  875.95   28.44
   2  -1   0  905.44   28.87
   0   1  -332811.31  539.81
   0  -1   332208.06  514.90
   0   1  -329618.35  468.44
   2   2   3 1754.38   45.98
   2   2   3 1719.69   54.27
  -2  -2  -3 1803.61   48.86
   2   2   3 1678.06   40.07
  -2  -2  -3 1638.44   38.57
  -2  -2  -3 1627.21   47.37
   2  -1  -2 1503.24   36.51
   2  -1  -2 1507.44   46.25
   2  -1  -2 1594.09   39.31
  -2   1   2 1364.91   35.13
  -2   1   2 1503.90   36.88
  -2  -1  -3   57.06    9.46
  -2  -1  -3   58.46   12.25
   2   1   3   62.06   11.07
  -2  -1  -3   56.20   10.27
   1   2  -211663.99  213.38
  -1  -2   210735.40  203.65
  -1  -2   210700.58  181.81
   1   2  -210896.94  189.37
   1   2  -210324.80  188.79
  -1  -2   211113.69  199.26
  -2   0   3 5717.64  121.89
   2   0  -3 5746.53  107.58
   2   0  -3 5869.37  119.68
   2   0  -3 5386.77  127.31
   1   3   1 6255.32  118.48
  -1  -3  -1 6129.27  128.20
   1   3   1 6463.39  121.58
  -1  -3  -1 6233.82  116.52
   3   1   0  994.41   36.99
  -3  -1   0  994.68   38.15
   3   1   0 1001.03   33.58
   3   1   0  966.71   31.20
  -3  -1   0  948.19   30.43
   1  -2   0  619.65   24.34
   1  -2   0  655.91   24.43
  -1   2   0  633.69   24.31
   1  -2   0  622.66   34.66
  -1   2   0  618.44   24.79
   1   3   234527.56  545.60
   1   3   234443.90  552.22
   1   3   235377.41  548.89
  -1  -3  -232494.07  519.79
  -1  -3  -233436.83  522.31
  -1  -3  -235267.66  545.45
  -1  -1  -4 5217.98  102.50
   1   1   4 5126.64  118.82
  -1  -1  -4 5472.34  127.46
  -2  -3  -1 5163.95  109.92
   2   3   1 5460.18  105.05
   2   3   1 5173.50  101.46
   3   1  -1  807.20   28.25
   3   1  -1  819.10   32.64
   3   1  -1  796.76   32.67
  -3  -1   1  803.29   36.14
  -3  -1   1  743.34   25.95
   0   0  -4  427.53   29.39
   0   0  -4  404.10   21.42
   0   0   4  375.52   28.55
   0   0   4  403.20   20.50
   0   0   4  424.58   27.24
  -3  -2   0  235.61   17.79
   3   2   0  240.65   14.65
  -3  -2   0  232.87   17.07
  -3  -2   0  236.70   20.34
   3   2   0  247.17   19.52
   3   2   0  234.59   16.56
  -3  -2  -1  226.08   16.94
  -3  -2  -1  247.85   17.02
   3   2   1  238.83   15.47
   3   2   1  264.34   16.33
  -3  -2  -1  244.36   20.38
  -3  -2  -1  247.85   17.02
   3   2   1  248.98   19.88
  -3  -1  -1  580.70   29.16
   3   1   1  599.20   24.50
  -3  -1  -1  616.61   28.14
   3   1   1  608.66   30.02
   3   1   1  586.63   23.13
   1   2   4 1289.63   33.60
  -1  -2  -4 1333.61   42.84
  -1  -2  -4 1273.23   32.77
  -2  -3  -2  101.32   14.17
   2   3   2   96.74   14.79
   2   3   2   91.74   10.82
   2   3   2   86.04   10.98
  -2  -2   2 8410.33  160.09
   2   2  -2 9053.42  168.35
  -2  -2   2 8204.81  163.66
  -2  -2   2 8252.90  150.59
  -2  -2   2 8048.21  141.88
   2   2  -2 8419.58  164.45
   1  -1  -419826.47  483.61
   1  -1  -419366.81  309.92
   1  -1  -419776.40  316.72
   1  -1  -419764.10  363.66
  -1   1   419745.33  317.34
  -1   1   419124.45  329.75
  -1   0   4 1197.00   43.30
   1   0  -4 1168.40   33.43
   1   0  -4 1161.09   43.90
  -1   0   4 1238.92   44.82
   1   0  -4 1233.45   41.93
  -1   0   4 1223.27   34.81
   1  -2  -3  980.30   30.99
   1  -2  -3  953.41   28.78
   1  -2  -3  944.68   41.50
  -2  -1   3  465.25   22.89
   2   1  -3  439.57   25.00
   2   1  -3  406.43   20.49
   2   1  -3  410.95   25.68
   0  -2  -4  178.25   13.73
   0  -2  -4  179.81   13.05
   0   2   4  182.10   13.73
  -1  -3   0  132.86   18.00
   1   3   0  125.96   13.06
  -1  -3   0  135.98   13.96
  -2  -3   0 1658.19   41.22
  -2  -3   0 1581.92   40.92
   2   3   0 1635.70   40.72
   2   3   0 1780.49   53.86
   2   3   0 1774.68   47.58
  -2  -3   0 1795.84   54.90
   2  -1   1  404.20   28.35
   2  -1   1  389.63   19.41
  -2   1  -1  419.00   29.54
  -2   1  -1  395.39   19.81
  -2   1  -1  380.26   19.23
   2  -1   1  414.24   21.35
   1   3   3 1677.52   50.69
   1   3   3 1536.52   38.35
   1   3   3 1575.43   38.92
  -1  -3  -3 1587.12   46.04
  -1  -3  -3 1568.46   37.62
  -1  -3  -3 1624.74   38.34
   0  -2   2 1964.51   54.34
   0  -2   2 1766.89   62.50
   0   2  -2 2046.85   69.61
   0   2  -2 1858.72   48.92
   2  -1  -3 4971.45  116.15
   2  -1  -3 5049.82  103.37
   2  -1  -3 4905.61   95.19
   2  -1  -3 5297.38  102.64
  -2   1   3 5146.40  113.56
   2  -1  -3 5028.74  107.83
   3   2  -1 7813.11  150.86
  -3  -2   1 8028.70  148.43
   3   2  -1 8373.72  146.59
  -3  -2   1 8413.27  157.97
   3   2  -1 8368.19  158.95
  -3  -2   1 8109.64  160.00
   0   3   2 7491.05  166.58
   0   3   2 7895.50  144.85
   0  -3  -2 7762.85  157.99
   0   3   2 7491.05  166.58
   0   3   2 7781.93  142.15
   0  -3  -2 7838.61  139.91
   0  -3  -2 7723.59  141.69
  -3  -2  -2 4476.34  100.90
   3   2   2 4398.39   88.39
  -3  -2  -2 4718.92   93.74
   3   2   2 4776.89   94.86
   0   3   1 1571.56   59.48
   0  -3  -1 1700.17   52.02
   0  -3  -1 1722.01   45.40
   0  -3  -1 1669.16   39.70
   0  -3  -1 1736.34   47.97
  -3   0   1  664.30   24.61
   3   0  -1  721.47   32.01
   3   0  -1  691.25   25.51
   3   0  -1  727.82   25.48
   3   0  -1  663.43   32.96
  -3   0   0  365.84   24.25
  -3   0   0  339.50   17.97
   3   0   0  408.19   25.00
   3   0   0  390.83   20.95
   3   0   0  360.42   26.89
   3   0   0  415.34   20.32
   1  -2   1 1205.47   48.84
  -1   2  -1 1220.96   49.48
  -1   2  -1 1200.28   34.68
  -1   2  -1 1247.96   34.41
   1  -2   1 1287.85   37.03
   1  -2   1 1263.62   33.93
   3   1  -2 6088.00  115.20
  -3  -1   2 5416.77  105.07
  -3  -1   2 5953.13  129.34
   3   1  -2 5924.65  127.48
   3   1  -2 6162.42  123.93
   2   3   3 9258.20  167.91
  -2  -3  -3 8637.97  170.63
   2   3   3 9169.55  171.34
   2   3   3 8941.22  157.03
  -2  -3  -3 8409.87  147.59
  -3  -1  -2 2581.79   71.03
   3   1   2 2494.22   59.79
   3   1   2 2398.36   67.98
  -3  -1  -2 2609.30   69.90
  -3  -1  -2 2625.99   60.53
  -2   0  -3  586.62   34.53
   2   0   3  575.22   30.98
  -2   0  -3  533.89   28.68
  -2   0  -3  556.01   24.13
   2   0   3  549.04   23.41
  -1   0  -4 1019.25   43.81
  -1   0  -4  908.31   38.56
   1   0   4 1051.77   41.26
   1   0   4  976.02   42.77
  -1   0  -4  981.82   32.22
  -1   1  -314065.41  236.69
  -1   1  -313935.37  263.30
   1  -1   314932.79  261.17
  -1   1  -314279.31  249.79
   0  -3  -3 2861.37   66.13
   0   3   3 2990.62   69.10
   0   3   3 2930.78   88.90
   0  -3  -3 2961.09   64.58
   0   3   3 2975.40   66.24
   0  -3  -3 2969.21   76.82
  -2  -2  -4  646.12   29.89
   2   2   4  646.61   23.70
   2   2   4  643.84   31.60
   2   2   4  686.66   25.91
  -2  -2  -4  634.98   24.14
  -2  -2  -4  681.68   26.25
   3   0  -2 3432.06   82.27
   3   0  -2 3511.51   75.32
  -3   0   2 3108.58   81.75
  -3   0   2 3408.79   83.44
  -3   0   2 3261.91   70.72
   3   0  -2 3122.44   87.33
   0  -3   0  210.73   15.57
   0   3   0  209.42   15.59
   0  -3   0  221.58   21.97
   0  -3   0  189.80   14.27
  -2  -3   1  941.29   30.87
  -2  -3   1  997.20   28.93
  -2  -3   1  977.98   33.09
   2   3  -1 1067.74   38.62
  -2  -3   1 1007.47   38.04
   2   3  -1 1003.09   33.30
  -1  -3   1 2652.87   59.77
   1   3  -1 2594.62   61.18
   1   3  -1 2550.13   63.43
  -1  -3   1 2604.21   63.21
   1   3  -1 2886.43   79.63
  -1  -3   1 2620.07   74.55
  -3  -3  -1  841.46   29.07
   3   3   1  864.62   27.21
  -3  -3  -1  798.79   26.13
  -3  -3  -1  850.40   34.76
   3   3   1  822.19   28.13
   3   0   115031.67  263.92
   3   0   114439.41  277.90
   3   0   114865.57  245.59
   1  -2  -4 2032.68  135.61
  -1   2   4 2103.16   53.40
   1  -2  -4 1968.79   48.77
   1  -2  -4 1983.69   67.05
   1  -2  -4 2063.28   50.90
  -1  -1   4    0.10   10.47
   1   1  -4    1.16   11.70
   1   1  -4   -5.71    9.88
  -1  -1   4   -0.14   10.95
  -1  -1   4    1.59    8.10
   1   1  -4    5.31    7.89
  -2   0   4 1498.92   37.80
   2   0  -4 1682.03   38.05
   2   0  -4 1697.22   51.90
  -2   0   4 1730.08   55.83
   2   0  -4 1845.69   54.02
   2   1   4 3773.08   80.36
  -2  -1  -4 3611.30   79.30
   2   1   4 3827.39   90.74
   2   1   4 3581.27   94.14
  -2  -1  -4 3447.77  107.54
  -2  -1  -4 3645.53   76.24
   1   3   4   26.03   11.04
   1   3   4    2.97    7.51
   1   3   4    3.35    8.27
  -1  -3  -4    1.86    8.16
  -1  -3  -4    6.05    7.41
  -1  -3  -4    4.91    7.70
   1   2  -3   71.51   16.59
  -1  -2   3   73.28   10.40
   1   2  -3   78.43   13.31
   1   2  -3   79.50   10.63
  -1  -2   3   98.21   14.92
   3   3   214995.90  250.13
  -3  -3  -215271.86  251.75
  -3  -3  -215205.67  266.92
   3   3   215685.02  257.74
   3   3   0  853.41   29.26
   3   3   0  886.81   28.39
   3   3   0  963.04   35.49
  -3  -3   0  866.10   31.33
  -3  -3   0  857.93   27.02
  -3  -3   0  901.43   35.74
   0  -1  -5  858.51   39.12
   0   1   5  961.89   29.61
   0  -1  -5  940.96   29.10
   0   1   5  943.42   37.05
   0  -1  -5  859.01   36.50
   0   1   5  838.99   40.05
   3   2  -2 2502.30   70.80
  -3  -2   2 2517.11   63.43
  -3  -2   2 2336.38   62.83
  -3  -2   2 2558.17   73.23
   3   2  -2 2795.71   76.08
  -2   1  -2  645.96   35.65
  -2   1  -2  687.85   26.70
   2  -1   2  716.90   29.78
   2  -1   2  664.93   34.97
  -2   1  -2  628.21   24.20
   2  -1   2  693.69   25.01
   3   2   3 4821.45  107.03
   3   2   3 5400.41  120.47
   3   2   3 4663.70  115.67
  -3  -2  -3 4715.72  115.28
  -3  -2  -3 5025.74  110.83
   0  -1   4 1483.54   44.78
   0   1  -4 1631.73   62.27
   0  -1   4 1610.44   55.51
   0   1  -4 1443.56   44.48
   0  -1   4 1237.04   49.40
   2   2  -3 1778.47   56.83
   2   2  -3 1586.12   52.72
  -2  -2   3 1712.18   55.77
   2   2  -3 1620.28   47.73
  -2  -2   3 1573.67   45.66
   2  -1  -4 9277.59  198.35
   2  -1  -4 9320.25  210.42
   2  -1  -4 9206.58  187.32
   2  -1  -4 8799.31  180.09
  -2   1   4 8996.59  198.86
  -2   1   4 9290.53  192.11
  -2   2   1 7039.06  149.31
  -2   2   1 7088.78  168.93
   2  -2  -1 6975.12  152.80
   2  -2  -1 7089.08  148.82
   2  -2  -1 6570.24  158.47
   2  -2  -2 1231.08   31.54
   2  -2  -2 1308.81   41.33
   2  -2  -2 1233.63   46.73
  -2   2   2 1232.67   32.18
  -2   2   2 1298.44   53.47
   0  -2  -5  308.73   17.20
   0  -2  -5  312.34   16.03
   0  -2  -5  306.89   21.26
   0   2   5  320.89   17.94
   2   3   4  843.70   33.95
  -2  -3  -4  749.20   25.31
   2   3   4  778.02   25.57
  -2  -3  -4  754.80   24.77
   2   3   4  843.51   26.97
  -2  -3  -4  770.33   32.32
   1   2   5 4641.64  116.27
   1   2   5 4577.99  120.24
  -1  -2  -5 4546.14  103.05
   0  -3  -4 1294.58   45.83
   0  -3  -4 1353.08   41.25
   0  -3  -4 1270.01   31.75
   0   3   4 1323.67   40.55
  -3  -1   3 2908.60   82.02
  -3  -1   3 2769.55   81.68
   3   1  -3 2728.41   78.64
   3   1  -3 2926.54   78.37
   2   1  -4  385.99   22.95
   2   1  -4  342.58   18.32
   2   1  -4  344.28   24.40
  -2  -1   4  352.74   25.06
  -2  -1   4  359.89   24.37
  -1   1   5   11.30    9.20
   1  -1  -5    9.85   10.49
  -1   1   5   15.14   12.27
   1  -1  -5   14.12   10.10
  -1   1   5   10.14    8.68
   1  -1  -5   10.16    7.79
  -1  -1  -5 4476.84  102.45
   1   1   5 4766.50  127.64
  -1  -1  -5 4836.50  127.48
   1   1   5 4455.56  120.37
  -3   0   313421.95  281.00
   3   0  -313366.05  268.71
   3   0  -313229.69  269.29
  -3   0   312976.73  273.46
   3   0  -312281.38  274.12
   3   0  -313037.77  262.86
  -1   2  -2 5405.37  118.98
   1  -2   2 5281.22  137.56
  -1   2  -2 5392.73  140.27
  -1   2  -2 5671.96  128.26
   1  -2   2 5559.61  127.93
   1  -2   2 4923.79  108.55
   0  -2   3 6045.14  137.39
   0   2  -3 6310.05  156.29
   0  -2   3 5520.79  120.59
   0   2  -3 5826.64  127.78
   3   3   315084.98  295.26
  -3  -3  -315574.22  303.20
   3   3   315673.43  317.14
  -3  -3  -314926.24  306.92
   3   3   315788.03  308.63
  -3  -3   1  940.74   27.84
   3   3  -1  978.69   29.90
  -3  -3   1  943.06   35.85
   3   3  -1  979.04   31.87
   3   3  -1 1002.17   35.37
   0   3  -1 8970.09  184.74
   0  -3   1 8929.31  190.75
   0   3  -1 8950.65  209.80
   0  -3   1 8019.94  189.32
   3   0   2   15.52   14.39
   3   0   2   12.56    8.99
  -3   0  -2   17.22   10.72
   3   0   2   18.58   13.18
   3   0   2   28.16   12.41
   0   0  -5    8.06    8.46
   0   0   5    3.79   10.67
   0   0   5   13.69   10.29
   0   0   5    8.98   12.70
   0   0  -5   15.69   11.08
   1   0  -5 1716.52   61.84
  -1   0   5 1633.64   58.71
  -1   0   5 1913.16   64.02
   1   0  -5 1707.82   51.04
  -1   0   5 1778.36   51.84
   1   0  -5 1772.72   59.86
  -2   2   0   28.20    8.23
   2  -2   0   27.71    9.16
   2  -2   0   33.37    8.86
   2  -2   0   29.42   12.02
  -2   2   0   26.47    8.71
   1  -3  -2 3618.35   88.85
   1  -3  -2 3760.52   88.29
   1  -3  -2 3334.34   97.82
   1  -3  -2 3410.91   81.01
  -1   3   2 3485.41  100.61
  -1   3   2 3211.12   77.97
   2  -2  -3  128.36   13.59
   2  -2  -3  128.22   12.13
  -2   2   3  131.02   12.90
   2  -2  -3  144.75   16.68
   2  -2  -3  144.44   13.41
   2  -2  -3  138.15   18.64
   3  -1  -1  536.82   22.26
  -3   1   1  520.99   21.35
   3  -1  -1  522.19   21.25
  -3   1   1  516.78   21.31
   3  -1  -1  554.53   28.42
   3  -1  -1  531.55   32.09
  -1   3   1 5152.17  114.08
  -1   3   1 5386.05  139.12
  -1   3   1 5530.20  122.12
   1  -3  -1 5315.81  124.19
   1  -3  -1 4978.69  130.79
   1  -3  -1 5672.00  122.80
  -2  -3   2 1926.52   63.67
  -2  -3   2 1845.21   53.59
   2   3  -2 2069.94   63.65
   2   3  -2 1938.60   57.49
  -2  -3   2 1999.64   59.07
  -2  -3   2 1900.77   51.41
   3  -1  -2   24.64   10.94
  -3   1   2   17.19    7.73
   3  -1  -2   20.69    9.35
   3  -1  -2   15.85   10.79
   3  -1  -2   17.71    8.39
   3  -1  -2   20.15   14.37
   2   4   2 6112.35  132.37
   2   4   2 5705.89  124.24
  -2  -4  -2 5909.35  137.39
   2   4   2 6276.97  144.84
   1   3  -2 1741.34   50.71
  -1  -3   2 1638.85   59.38
   1   3  -2 1807.38   63.31
   1   3  -2 1695.61   52.35
  -1  -3   2 1695.67   47.54
  -1  -3   2 1715.18   52.77
   1  -3  -3 1714.10   48.07
   1  -3  -3 1728.09   50.45
   1  -3  -3 1803.03   50.85
  -1   3   3 1755.76   62.98
   1  -3  -3 1636.31   61.60
  -4  -2   0 1622.06   53.31
   4   2   0 1634.31   53.77
   4   2   0 1561.57   48.10
  -4  -2   0 1416.32   45.18
  -4  -2   0 1600.18   55.84
   4   2   0 1673.48   48.58
   3  -1   0 3160.53   76.94
   3  -1   0 3042.28   74.89
  -3   1   0 3027.63   74.07
   3  -1   0 3050.10   82.79
   3  -1   0 2937.03   89.87
   2   4   1   87.39   15.29
  -2  -4  -1   90.78   15.02
  -2  -4  -1   86.28   11.54
   2   4   1   82.09   11.68
   2   4   1   88.20   12.04
  -2  -4  -1   85.12   11.48
   4   2   1 1585.13   48.59
  -4  -2  -1 1273.53   36.03
  -4  -2  -1 1452.38   47.81
   4   2   1 1388.18   42.93
   4   2   1 1412.99   49.66
  -4  -2  -1 1402.48   51.28
   1   4   2 4757.63  106.42
   1   4   2 5070.56  113.75
  -1  -4  -2 4879.24  118.68
   1   4   2 5119.84  130.58
  -1  -4  -2 4905.39  108.81
  -1  -4  -2 4816.38  109.28
   2   0   4 2182.25   69.68
   2   0   4 2052.36   56.28
  -2   0  -4 1894.26   62.93
  -2   0  -4 2072.53   71.79
  -2   0  -4 2006.12   56.81
   1  -2  -5  283.56   15.83
   1  -2  -5  274.80   20.72
   1  -2  -5  268.31   23.25
  -1   2   5  296.06   17.60
   1  -2  -5  264.00   16.45
   1  -2  -5  275.62   20.85
   4   1   0   37.55   12.99
  -4  -1   0   39.50   13.03
  -4  -1   0   36.83    9.72
   4   1   0   36.10    9.60
   4   1   0   35.42    9.35
  -1  -3  -5  235.60   14.94
   1   3   5  211.97   15.15
  -1  -3  -5  214.93   17.96
   2   4   3  344.71   23.36
   2   4   3  328.48   18.66
  -2  -4  -3  331.44   21.82
   2   4   3  328.69   17.89
  -2  -2  -5 2883.37   72.07
   2   2   5 3020.71   85.13
  -2  -2  -5 2722.68   76.13
   2   2   5 3133.82   77.26
  -2  -2  -5 2893.75   70.75
   2   2   5 2906.81   88.42
   3   2  -3   25.19    9.75
  -3  -2   3   23.21    7.48
   3   2  -3   30.54   12.09
  -3  -2   3   22.93    8.66
  -1  -4  -1   47.64   12.77
   1   4   1   48.28    9.65
   1   4   1   45.04   15.75
  -1  -4  -1   33.76   10.29
   4   1  -1 4554.41  104.40
  -4  -1   1 4292.12   98.86
   4   1  -1 4597.78  111.15
  -4  -1   1 4420.42  115.73
   4   1  -1 4695.94  117.15
  -1   1  -4 1016.60   43.39
  -1   1  -4  995.68   30.70
   1  -1   4 1074.31   39.08
  -1   1  -4  983.99   36.53
  -1  -4  -3   45.17   10.43
   1   4   3   42.22    9.61
  -1  -4  -3   49.84   12.07
   1   4   3   40.43    9.55
   1   4   3   44.09   15.31
  -1  -4  -3   44.58   10.25
   3   2   4  974.39   31.51
  -3  -2  -4  881.70   29.79
   3   2   4  938.68   37.05
  -3  -2  -4  930.81   35.10
  -3  -2  -4  910.61   27.68
  -4  -2   1 9021.33  199.06
  -4  -2   1 9766.14  211.35
   4   2  -1 9736.21  194.86
   4   2  -1 8997.33  199.57
  -4  -2   1 8824.42  182.94
   4   2  -1 9961.25  209.85
   1  -3   0  509.82   32.52
   1  -3   0  508.76   21.73
  -1   3   0  498.39   21.63
   1  -3   0  500.54   22.63
  -1   3   0  510.92   22.19
  -2   1  -319500.29  400.75
   2  -1   319527.68  410.87
   2  -1   320636.98  130.83
  -2   1  -319476.95  376.71
   2  -1   320422.42  196.30
  -2   1  -319828.51  390.63
   3  -1  -315511.64  314.10
   3  -1  -315601.08  305.51
   3  -1  -315004.15  292.33
   3  -1  -315470.72  311.88
  -3   1   315663.23  319.93
   3  -1  -314933.45  313.45
   1   0   5  452.73   29.92
  -1   0  -5  443.19   27.58
   1   0   5  458.15   28.08
  -1   0  -5  455.72   21.70
   1   0   5  392.57   19.96
  -1   0  -5  436.12   29.12
   4   1   1 1268.56   41.93
  -4  -1  -1 1252.09   41.00
  -4  -1  -1 1192.99   33.34
   4   1   1 1249.70   33.80
   2  -2   1  199.58   15.99
   2  -2   1  196.74   22.80
   2  -2   1  211.77   15.69
  -2   2  -1  176.52   22.14
  -2   2  -1  181.81   13.94
  -2   2  -1  205.55   15.36
  -2  -4   0 5034.45  121.39
  -2  -4   0 5137.05  115.37
  -2  -4   0 4965.67  113.70
   2   4   0 4983.64  115.48
  -2  -4   0 4725.24  107.09
   2   0  -5    9.17   12.78
   2   0  -5    5.09    7.62
  -2   0   5    4.74    7.10
  -2   0   5    7.90   10.91
   2   0  -5    8.35   10.24
   2  -2  -4  325.35   21.94
   2  -2  -4  326.91   17.92
   2  -2  -4  317.05   25.23
   2  -2  -4  337.50   18.40
   2  -2  -4  305.28   17.02
  -2   2   4  319.76   17.48
   0   3   5 1353.87   56.91
   0  -3  -5 1201.24   38.54
   0  -3  -5 1329.27   40.14
   0  -3  -5 1272.43   32.12
   0   3   5 1281.36   32.48
   4   2   2 2239.44   61.19
   4   2   2 1960.03   53.21
  -4  -2  -2 1936.02   62.13
  -4  -2  -2 1849.32   54.70
   3   3   4  887.22   27.85
  -3  -3  -4  837.80   26.40
  -3  -3  -4  812.75   33.58
   3   3   4  829.68   26.42
   3   3   4  844.38   34.37
  -3  -4  -2  650.40   22.96
  -3  -4  -2  666.28   24.96
   3   4   2  668.67   24.74
   3   4   2  704.81   30.04
  -3  -4  -2  697.89   31.29
   3   4   2  663.15   24.03
  -4  -3  -1 3524.22   86.59
   4   3   1 3250.02   86.13
  -4  -3  -1 3578.42   87.95
   4   3   1 3345.02   82.50
  -4  -3  -1 3475.86   93.77
   4   3   1 3564.51   82.89
   3   3  -2  979.27   33.97
   3   3  -2 1025.81   36.01
  -3  -3   2  929.02   28.54
  -3  -3   2  951.55   36.33
  -3  -3   2  935.12   27.04
  -3  -4  -1  583.87   22.51
  -3  -4  -1  526.73   23.70
  -3  -4  -1  601.61   28.66
   3   4   1  600.60   24.09
   3   4   1  577.09   23.27
  -3   0   4 1351.90   50.87
   3   0  -4 1226.41   44.71
   3   0  -4 1353.98   47.03
  -3   0   4 1293.07   49.80
   3   0  -4 1328.82   41.45
   3   0  -4 1287.02   31.24
  -3   1  -1 1334.81   41.56
   3  -1   1 1282.58   36.33
   3  -1   1 1352.97   41.96
   3  -1   1 1347.97   54.50
  -2  -3  -5    9.63   10.00
  -2  -3  -5   10.28    7.83
   2   3   5    7.88   10.15
  -2  -3  -5   13.38    8.49
   2   3   5   10.22    8.51
   2   3   5    8.65   10.42
  -1   3   4  142.81   14.52
   1  -3  -4  119.62   12.70
   1  -3  -4  125.75   12.49
  -1   3   4  120.66   16.73
   1  -3  -4  124.07   17.67
   2  -1  -5  755.76   33.66
   2  -1  -5  777.93   26.39
   2  -1  -5  743.78   23.82
  -2   1   5  739.95   26.44
  -2   1   5  756.84   34.54
   2  -1  -5  789.62   30.92
   2   1   514366.07  293.47
  -2  -1  -514521.84  288.39
  -2  -1  -514090.81  298.52
   2   1   514861.56  292.42
   2   1   514781.38  321.70
  -1  -2   4  696.68   31.09
   1   2  -4  679.78   25.45
  -1  -2   4  685.07   24.41
   1   2  -4  702.98   34.06
   1   2  -4  622.27   29.55
  -4  -3   0   28.32   11.55
  -4  -3   0   28.71    9.89
  -4  -3   0   30.67   10.69
   4   3   0   27.40   11.57
   4   3   0   29.24    9.04
   4   3   0   42.99    8.90
   4   1  -2  507.88   27.50
   4   1  -2  503.44   22.30
   4   1  -2  500.23   25.80
  -4  -1   2  479.90   28.55
  -4  -1   2  467.21   19.93
  -3  -1   4  226.29   21.90
  -3  -1   4  256.95   21.48
   3   1  -4  242.10   21.25
   3   1  -4  276.35   20.28
   1   1  -5 3918.40  105.35
  -1  -1   5 3855.75  107.89
   1   1  -5 4285.45  113.54
   1   1  -5 4350.40  100.50
  -1  -1   5 4545.73  115.85
  -1  -1   5 4258.98   98.18
  -1  -4   0 7250.64  165.62
   1   4   0 6872.62  148.88
  -1  -4   0 7091.80  151.81
  -1  -4   0 6711.55  140.91
   0  -3   2  682.63   35.81
   0   3  -2  655.11   25.14
   0  -3   2  647.16   23.32
   0   3  -2  744.09   39.84
   0  -3   2  678.32   27.30
  -2  -2   4  522.08   30.03
   2   2  -4  550.49   28.08
  -2  -2   4  564.86   22.47
   2   2  -4  558.98   22.77
  -2  -2   4  581.51   28.75
   2   2  -4  620.37   29.48
  -4  -3  -2 3936.55   93.80
  -4  -3  -2 4031.69  104.56
   4   3   2 4216.16   94.95
   4   3   2 3995.52   92.34
  -4  -3  -2 3976.01   94.40
  -3   0  -3  226.37   16.75
  -3   0  -3  224.78   17.65
   3   0   3  214.71   15.74
   3   0   3  242.30   20.67
   2   4   4 6682.23  141.38
  -2  -4  -4 6670.53  152.01
   2   4   4 6814.49  155.37
   2   4   4 6551.05  140.10
  -2  -4  -4 6388.92  136.20
   1   4   4  381.59   19.07
   1   4   4  386.91   20.28
  -1  -4  -4  369.18   18.87
  -1  -4  -4  346.96   18.23
   1   4   4  357.79   26.60
  -1  -4  -4  366.36   22.34
  -3  -1  -4  261.61   21.78
  -3  -1  -4  262.17   18.33
   3   1   4  267.29   17.77
   3   1   4  233.96   23.06
  -3  -1  -4  258.89   15.69
   3   1   4  286.42   21.96
   3   4   3 2311.20   71.00
   3   4   3 2309.08   60.90
  -3  -4  -3 2358.28   61.81
   3   4   3 2408.93   61.70
  -3  -4  -3 2330.65   69.59
  -1   2  -313215.83  264.48
   1  -2   313581.27  280.92
  -1   2  -313134.55  268.43
  -1   2  -313444.70  289.88
   1  -2   312435.43  279.91
   4   2  -2 1131.74   30.40
  -4  -2   2 1104.77   39.89
  -4  -2   2  959.90   29.77
   4   2  -2 1075.16   36.17
   4   2  -2 1105.57   36.91
   0  -1  -6    6.89   10.51
   0   1   6    0.83   13.06
   0  -1  -6    2.10    8.08
   0   1   6    0.84    8.91
   0   1   6    6.93   11.85
  -3  -4   0 8547.47  187.77
  -3  -4   0 8722.37  180.07
   3   4   0 8495.06  178.43
   3   4   0 8923.82  185.16
   0  -4  -2 2445.38   62.88
   0  -4  -2 2369.11   64.22
   0  -4  -2 2424.34   73.82
   0   4   2 2300.78   81.07
   0  -4  -2 2416.97   62.54
   0  -2  -6   20.24    9.34
   0  -2  -6   18.14    8.12
   0  -2  -6   23.51   12.00
   0   2   6   16.69   13.04
   0   2   6   23.50   13.27
   0   2   6   19.29    9.63
   4   0  -1   50.83   14.17
   4   0  -1   48.68   10.09
   4   0  -1   46.85   12.60
   4   0  -1   47.19    9.03
  -4   0   1   45.87    9.13
  -4  -1  -2 2509.86   67.19
  -4  -1  -2 2606.81   74.65
   4   1   2 2642.97   67.91
   4   1   2 2765.29   79.63
   0   1  -5 1377.19   43.64
   0  -1   5 1480.92   58.54
   0  -1   5 1498.47   54.11
   0   1  -5 1495.77   58.09
   0  -1   5 1403.83   43.09
   0  -4  -3   45.54   10.86
   0  -4  -3   36.97   10.78
   0   4   3   38.26   11.22
   0  -4  -3   45.70   12.16
   0   4   3   36.26   14.60
  -1  -2  -6  416.41   20.15
  -1  -2  -6  349.61   18.25
   1   2   6  400.50   27.33
   1   2   6  411.84   25.72
   4   3  -1 3123.12   75.32
  -4  -3   1 3250.95   84.88
   4   3  -1 3151.46   80.26
   4   3  -1 3257.39   85.06
  -4  -3   1 3189.09   87.39
  -4  -3   1 3119.40   79.38
   1  -3   1 1683.51   63.37
   1  -3   1 1850.90   53.73
  -1   3  -1 1796.75   52.15
  -1   3  -1 1751.43   50.35
   1  -3   1 1837.94   50.75
  -4   0   0  905.13   28.17
   4   0   0 1013.73   37.94
   4   0   0  920.99   60.13
   4   0   0 1035.15   41.56
   4   0   0 1043.91   30.74
   2   1  -5 4798.74  125.05
  -2  -1   5 5062.78  127.26
  -2  -1   5 4933.17  113.33
  -2  -1   5 5078.74  126.30
   2   1  -5 4976.93  112.04
   2   1  -5 5293.56  126.64
   0  -4  -1  148.78   14.98
   0  -4  -1  144.91   13.90
   0   4   1  148.83   22.52
   0  -4  -1  148.69   18.70
   0  -4  -1  140.16   13.55
   2   3  -3  153.98   13.81
  -2  -3   3  148.50   12.50
   2   3  -3  153.53   16.71
   2   3  -3  160.95   19.01
  -2  -3   3  144.13   16.66
  -1   1   6  907.63   36.96
  -1   1   6  866.82   36.23
   1  -1  -6  879.58   38.01
   1  -1  -6  892.95   28.33
   1  -1  -6  844.63   36.08
  -1   1   6  906.03   29.33
   0  -2   4 5380.32  116.84
   0   2  -4 5605.65  141.75
   0  -2   4 5375.58  126.06
   0   2  -4 5203.37  116.41
   3  -1  -4 4042.14   92.64
   3  -1  -4 3959.09  103.26
   3  -1  -4 3923.58   98.88
  -3   1   4 4126.32  107.03
   3  -1  -4 4239.16   97.96
   3  -1  -4 4001.68   93.43
   2   4  -1  917.39   31.14
   2   4  -1 1028.07   37.88
  -2  -4   1  945.71   31.01
  -2  -4   1  940.89   37.43
  -2  -4   1  912.73   29.65
  -2  -4   1  905.08   27.12
   4   0  -2  987.62   29.04
  -4   0   2  857.50   26.58
  -4   0   2  929.95   36.78
   4   0  -2  877.54   37.29
   4   0  -2  932.89   28.96
   4   0  -2  963.05   35.60
  -1  -3   3  762.70   36.81
   1   3  -3  840.52   28.12
  -1  -3   3  889.29   32.85
  -1  -3   3  826.77   25.87
   1   3  -3  829.68   38.52
  -1  -1  -6  137.17   13.76
  -1  -1  -6  127.85   16.52
   1   1   6  145.81   14.57
  -1  -1  -6  128.21   19.32
   1   1   6  141.82   18.15
   1   1   6  150.29   20.18
   4   3   3 7558.57  213.98
  -4  -3  -3 7293.23  207.69
  -4  -3  -3 6764.22  195.24
   4   3   3 7282.50  215.35
  -4  -3  -3 6889.28  207.52
   4   3   3 7131.73  203.95
   2  -2   2 1562.43   58.13
  -2   2  -2 1632.73   70.28
  -2   2  -2 1529.28   54.41
   2  -2   2 1576.75   54.99
   2  -2   2 1572.79   67.92
  -2   2  -2 1570.53   56.65
  -4  -1   3  439.23   27.94
   4   1  -3  456.66   27.18
   4   1  -3  475.65   25.37
  -4  -1   3  453.01   27.19
   4   1  -3  473.92   23.37
   3  -1   2  580.50   23.52
   3  -1   2  510.46   31.04
  -3   1  -2  549.46   33.82
  -3   1  -2  527.63   22.48
   3  -1   2  546.97   26.26
  -3   1  -2  482.06   21.32
   3   4   4   11.90   11.13
   3   4   4    9.11    9.90
  -3  -4  -4    9.90    8.09
   3   4   4   13.78    9.26
  -3  -4  -4   12.74   10.32
  -1   3   5 6498.59  187.94
   1  -3  -5 6235.87  186.90
   1  -3  -5 6364.50  182.75
   1  -3  -5 6321.87  193.20
   1  -3  -5 6289.01  179.79
   0  -4  -4  325.99   17.30
   0   4   4  334.53   27.53
   0  -4  -4  315.44   17.83
   0  -4  -4  329.72   21.71
   0   4   4  342.06   19.01
   2  -2  -5  801.70   31.47
   2  -2  -5  813.93   39.16
   2  -2  -5  800.33   32.69
   2  -2  -5  808.96   26.09
   2  -2  -5  791.88   25.54
  -2   2   5  789.48   27.88
   4   0   1 9051.92  262.67
  -4   0  -1 8388.52  237.48
   4   0   1 8904.76  268.85
   4   0   1 9144.67  257.25
   1   0  -6 2230.10   83.37
   1   0  -6 2252.06   74.53
  -1   0   6 2388.86   86.37
   1   0  -6 2171.09   80.98
  -1   0   6 2168.23   72.63
  -1   0   6 2022.05   78.31
  -1  -4   1 7198.86  217.37
  -1  -4   1 7185.68  203.25
  -1  -4   1 7285.96  210.55
   1  -2  -6    7.43    8.32
   1  -2  -6    8.04    9.02
   1  -2  -6   10.30    9.34
  -1   2   6    7.96    8.76
   1  -2  -6    4.91   11.88
   1  -2  -6    8.01    7.75
   1   3   6 5127.17  163.48
   1   3   6 5639.52  172.21
  -1  -3  -6 5109.55  148.87
   1   3   6 5416.75  157.03
   3   2  -4   81.11   14.77
   3   2  -4   67.44   15.05
  -3  -2   4   58.03   13.82
  -3  -2   4   67.15   14.56
   0   0  -6 3320.69  115.28
   0   0   6 3398.37  105.78
   0   0  -6 3202.74  100.57
   0   0   6 3527.80  118.09
   0   0   6 3198.94  113.10
  -3  -4   1  789.35   26.80
   3   4  -1  790.23   28.66
  -3  -4   1  797.73   24.67
   3   4  -1  873.96   34.23
  -3  -4   1  815.27   34.24
  -3  -2  -5 3575.70  117.02
  -3  -2  -5 3394.89  105.28
   3   2   5 3668.65  125.09
   3   2   5 3827.29  117.55
   3   2   5 3699.31  121.25
  -3  -2  -5 3510.46  106.57
   1   4   5  970.72   29.37
  -1  -4  -5  996.57   27.99
  -1  -4  -5  945.90   27.62
  -1  -4  -5 1029.81   36.06
   1   4   5  923.86   40.24
   1   4   5  923.86   40.24
   1   4   5 1027.45   29.96
   3   3   5 2408.70   77.72
   3   3   5 2237.50   80.94
   3   3   5 2278.98   73.95
  -3  -3  -5 2253.51   79.81
  -3  -3  -5 2229.67   73.38
  -3  -3  -5 2162.94   70.63
   2  -3  -2  474.27   21.81
  -2   3   2  457.82   21.25
   2  -3  -2  454.58   20.45
  -2   3   2  411.76   29.13
   2  -3  -2  420.89   29.22
   0  -4   0 3852.05  128.66
   0  -4   0 4070.48  123.31
   0   4   0 3786.26  133.29
   0   4   0 3922.93  119.86
   3  -2  -2 3131.25   97.56
  -3   2   2 2837.56   88.77
   3  -2  -2 3004.68  100.31
   3  -2  -2 2951.61  105.76
   3  -2  -2 2955.87   91.89
  -3   2   2 2836.53   89.28
   3   3  -3  410.12   24.26
  -3  -3   3  424.30   18.87
  -3  -3   3  408.31   20.32
   3   3  -3  459.40   24.88
   2   4   5 2453.72   78.86
   2   4   5 2513.89   87.95
   2   4   5 2305.02   74.71
  -2  -4  -5 2248.50   72.01
  -2  -4  -5 2262.61   80.53
  -4  -4  -1 1934.72   72.69
   4   4   1 1885.45   64.21
  -4  -4  -1 2036.72   69.95
   4   4   1 1923.42   64.16
  -4  -4  -1 1827.76   61.39
  -3   2   1 4016.25  120.53
   3  -2  -1 3837.45  130.74
  -3   2   1 3542.96  108.12
   3  -2  -1 4183.81  124.91
   3  -2  -1 3752.35  119.09
   3  -2  -1 4054.38  121.69
   2   0   5  521.98   29.34
   2   0   5  473.95   30.15
  -2   0  -5  483.95   22.61
  -2   0  -5  456.46   30.23
  -2   0  -5  450.25   27.09
  -4  -4  -2 1447.38   58.32
  -4  -4  -2 1428.80   52.48
   4   4   2 1386.56   50.34
   4   4   2 1455.34   57.54
   4   4   2 1479.27   52.05
  -4  -4  -2 1346.05   48.69
   0  -3  -6 4504.27  132.62
   0   3   6 4662.87  137.14
   0  -3  -6 4555.12  133.37
   0   3   6 4622.79  136.94
   4   0  -3 2850.38  100.72
  -4   0   3 2582.44   85.08
  -4   0   3 3003.35  102.72
   4   0  -3 3054.88   95.24
   4   0  -3 2996.70   98.99
  -4  -2   3  127.83   18.05
   4   2  -3  141.19   16.66
   4   2  -3  148.31   15.88
  -4  -2   3  150.90   18.86
  -2  -2  -6 1486.36   52.34
   2   2   6 1558.49   62.99
  -2  -2  -6 1511.13   54.23
   2   2   6 1584.14   66.28
  -2  -2  -6 1486.26   59.51
   2  -3  -1 2195.97   73.52
   2  -3  -1 2206.76   85.78
  -2   3   1 2331.62   76.41
   2  -3  -1 2345.92   76.02
  -2   3   1 2252.15   87.04
  -2   3   3  182.35   20.91
   2  -3  -3  170.36   15.06
  -2   3   3  163.32   14.43
   2  -3  -3  160.37   19.86
   2  -3  -3  165.74   13.67
   2  -3  -3  167.96   14.77
  -4  -3   2    6.90    7.94
   4   3  -2    5.05   10.25
  -4  -3   2   11.09   12.46
   4   3  -2    8.70   11.12
  -3   0   5  359.24   24.94
   3   0  -5  340.44   25.17
  -3   0   5  337.20   23.94
   3   0  -5  331.45   16.20
   3   0  -5  372.89   22.14
   2  -1   4 1412.97   58.25
  -2   1  -4 1276.36   52.32
  -2   1  -4 1319.39   60.06
  -2   1  -4 1294.40   48.59
  -4  -1  -3   80.47   12.68
  -4  -1  -3   74.29   16.65
   4   1   3   76.55   11.59
  -3   2   3 3181.77   98.25
   3  -2  -3 3307.09  102.32
   3  -2  -3 3146.72  100.50
   3  -2  -3 2999.01  106.90
   3  -2  -3 3024.86   94.15
   3  -2  -3 3201.62  107.28
  -1   1  -5  550.62   33.41
  -1   1  -5  524.19   27.61
   1  -1   5  579.16   30.41
   1  -1   5  532.64   32.89
  -1   1  -5  523.58   23.58
   1  -1   5  529.23   21.89
  -4  -4   0  362.58   17.83
   4   4   0  366.78   19.75
  -4  -4   0  408.28   24.85
   4   4   0  399.19   19.72
  -4  -4   0  387.84   22.03
   4   4   0  393.22   23.42
   2   3   6 3223.50   99.77
  -2  -3  -6 3253.29  101.27
   2   3   6 2724.25   99.65
   2   3   6 3258.08  109.12
   2   3   6 3239.65   99.71
  -2  -3  -6 3132.32   96.86
   0   3  -3  409.27   20.13
   0  -3   3  433.41   19.98
   0  -3   3  429.60   23.18
   0  -3   3  397.15   27.83
   0   3  -3  429.73   23.71
   0   3  -3  455.31   31.12
   3   0   4  526.24   29.19
   3   0   4  480.98   21.52
  -3   0  -4  465.05   25.76
  -3   0  -4  535.16   33.77
  -3   0  -4  468.11   21.97
   2  -1  -6  330.29   16.72
   2  -1  -6  333.35   23.99
   2  -1  -6  368.88   22.37
  -2   1   6  338.78   24.03
  -2   1   6  340.58   18.35
   3  -2   0 3607.31  110.54
  -3   2   0 3895.12  117.43
  -3   2   0 3303.19  115.59
   3  -2   0 3649.65  125.29
   3  -2   0 3824.76  115.68
   4   4   3 1592.28   61.28
  -4  -4  -3 1449.75   52.46
  -4  -4  -3 1485.93   53.21
   4   4   3 1529.90   54.29
   4   4   3 1542.89   53.50
  -4  -4  -3 1505.76   60.29
   3   1  -5 2010.12   68.48
  -3  -1   5 2093.84   78.07
   3   1  -5 1945.81   74.52
  -3  -1   5 1997.86   67.69
   3   1  -5 2117.29   75.37
  -2   0   614412.94  159.20
  -2   0   613542.97  385.13
   2   0  -614632.53  145.80
  -2   0   614301.86  113.44
   2   0  -613000.66  384.76
   2   0  -613756.63  399.02
   1  -3   2 1655.12   71.10
   1  -3   2 1791.64   64.10
  -1   3  -2 1749.20   60.86
  -1   3  -2 1841.43   77.67
  -1   3  -2 1680.49   60.20
   4   3   4  385.80   19.01
   4   3   4  392.22   19.49
  -4  -3  -4  358.65   18.53
  -4  -3  -4  344.01   23.28
   4   3   4  372.17   24.93
   4   0   2  637.40   25.13
   4   0   2  634.76   30.57
   4   0   2  591.33   33.40
  -2  -4   2 1769.55   59.58
  -2  -4   2 1862.36   66.30
   2   4  -2 2011.82   74.90
  -2  -4   2 1766.51   62.44
  -2  -4   2 1749.23   68.80
   2   4  -2 1839.77   65.65
  -4  -2  -4 3220.50  106.47
   4   2   4 3461.66  107.21
  -4  -2  -4 3197.00  105.99
   4   2   4 3401.20  112.92
  -4  -2  -4 3298.48  100.95
  -1   0  -6  315.98   26.11
   1   0   6  323.79   26.60
   1   0   6  313.65   18.53
  -1   0  -6  288.12   22.46
  -1   0  -6  327.55   19.18
   1   0   6  352.26   25.94
   3  -1  -5 1162.63   48.17
  -3   1   5 1126.62   41.47
   3  -1  -5 1160.73   44.01
   3  -1  -5 1135.50   29.92
   3  -1  -5 1189.57   45.14
   3  -1  -5 1120.19   41.31
   2  -3   0  292.33   17.74
  -2   3   0  311.09   27.77
  -2   3   0  293.48   17.93
   2  -3   0  289.06   25.18
   2  -3   0  322.51   18.74
  -2   3   0  294.65   17.46
   2  -3  -4 3235.42  102.06
   2  -3  -4 3156.88   96.89
  -2   3   4 3057.66   95.95
   2  -3  -4 3133.03  110.81
   2  -3  -4 3463.88  113.09
   2  -3  -4 3451.90  106.17
   3   1   5 5559.55  176.70
  -3  -1  -5 5406.22  169.50
  -3  -1  -5 5457.42  158.66
   3   1   5 5522.62  160.88
   3   1   5 5522.97  168.31
  -3  -1  -5 5512.14  163.85
  -2  -5  -2  208.98   19.12
   2   5   2  240.22   22.42
   2   5   2  218.69   16.70
  -2  -5  -2  221.63   16.62
   2   5   2  208.40   16.13
  -2  -1  -6   11.89   12.07
  -2  -1  -6   13.77   13.56
   2   1   6   14.15   12.25
   2   1   6   15.51   12.13
  -2  -1  -6   13.91    9.07
   1   2  -5  454.27   28.63
   1   2  -5  439.96   21.28
  -1  -2   5  431.92   30.25
  -1  -2   5  433.53   20.18
  -1  -2   5  510.38   27.01
   1  -4  -2   85.11   17.79
  -1   4   2  105.40   13.19
   1  -4  -2   92.61   12.63
  -1   4   2  101.11   19.18
   1  -4  -2  110.02   12.93
   1  -4  -2   98.53   14.08
   1  -2   4  273.42   16.35
  -1   2  -4  257.71   16.73
   1  -2   4  279.05   21.23
  -1   2  -4  289.74   27.55
  -1   2  -4  270.03   20.45
   2   5   3  497.66   29.14
   2   5   3  452.79   21.21
  -2  -5  -3  460.80   25.67
  -2  -5  -3  446.57   20.65
   2   5   3  453.74   21.58
  -3  -4  -5  324.45   17.34
  -3  -4  -5  308.82   21.88
   3   4   5  327.74   17.42
   3   4   5  363.74   24.07
   3   4   5  358.53   19.59
  -3  -4  -5  309.59   17.47
  -2  -2   5 1573.62   65.17
   2   2  -5 1835.60   69.19
   2   2  -5 1738.97   60.30
  -2  -2   5 1817.41   69.30
   2   2  -5 1673.31   65.04
  -2  -2   5 1683.26   58.40
   5   2   010584.54  297.80
  -5  -2   010887.07  317.25
   5   2   010692.73  304.04
  -5  -2   010220.67  288.54
   5   2   011870.67  329.37
  -5  -2   010347.96  299.70
   1  -4  -3 3091.93  108.85
   1  -4  -3 3126.72   96.31
  -1   4   3 3212.75  113.35
   1  -4  -3 3455.04  105.89
   1  -4  -3 3229.76  101.50
  -1   4   3 3355.30  103.79
   4  -1  -1  122.35   13.49
   4  -1  -1  121.72   18.35
   4  -1  -1  123.63   15.23
   4  -1  -1  126.36   11.94
  -4   1   1  125.61   13.08
   4  -1  -1  133.40   17.67
  -4  -1   4   55.66   13.22
   4   1  -4   56.11   15.15
  -4  -1   4   54.44   16.06
   4   1  -4   58.53   13.63
   0  -4   1 4939.11  147.09
   0   4  -1 4755.10  142.75
   0   4  -1 5010.13  148.30
   0  -4   1 4607.88  149.92
   4  -1  -2 2126.22   77.41
   4  -1  -2 2034.57   74.81
   4  -1  -2 2121.50   83.83
   4  -1  -2 2140.46   70.29
   4  -1  -2 2129.65   70.58
  -4   1   2 1897.48   63.73
  -3  -4   2 1825.23   63.45
  -3  -4   2 1991.70   74.20
   3   4  -2 1991.10   70.19
  -3  -4   2 1900.19   63.22
   3   4  -2 2109.00   75.28
   3  -2  -4  657.69   35.89
   3  -2  -4  712.73   25.90
   3  -2  -4  695.95   30.91
   3  -2  -4  674.55   30.13
   3  -2  -4  713.08   25.21
   3  -2  -4  665.49   25.82
  -5  -2  -1  204.08   19.69
   5   2   1  232.48   16.62
   5   2   1  211.77   15.03
   5   2   1  214.83   20.31
  -5  -2  -1  197.14   16.01
  -3  -5  -2    6.03    7.95
   3   5   2    4.45    8.50
   3   5   2    9.45   11.07
  -3  -5  -2    5.21   10.65
   3   5   2    5.88    7.59
   4   4  -1  676.60   29.32
  -4  -4   1  642.65   28.14
  -4  -4   1  597.68   22.58
   4   4  -1  623.41   24.28
  -4  -4   1  601.06   30.17
   4   4  -1  605.97   25.99
  -3   1  -3 1754.86   60.75
   3  -1   3 1844.59   74.38
  -3   1  -3 1939.60   78.98
   3  -1   3 1961.70   65.80
  -3   1  -3 1846.22   65.12
   3  -1   3 1960.05   72.82
  -1  -1   611206.65  313.05
   1   1  -611110.28  310.08
  -1  -1   6 9906.38  291.37
   1   1  -611552.43  337.41
  -1  -1   611407.81  329.80
  -2  -5  -1   42.08    9.97
  -2  -5  -1   45.84   11.30
  -2  -5  -1   38.84   11.88
  -2  -5  -1   48.84   14.09
   2   5   1   47.66   14.63
   2   5   1   45.33   10.64
   5   2  -111001.39  312.17
  -5  -2   1 9702.53  294.56
  -5  -2   111004.12  320.30
   5   2  -111093.55  314.61
   5   2  -112345.53  342.47
  -1  -4   2 2153.93   73.85
   1   4  -2 2185.68   72.45
  -1  -4   2 2081.07   80.53
  -1  -4   2 2183.39   70.58
   1   4  -2 2253.64   85.89
  -1   4   1    8.62   13.32
  -1   4   1    8.04    9.58
   1  -4  -1   14.36    9.67
   1  -4  -1    7.71    8.81
   1  -4  -1    4.13   14.24
   4   0  -4   90.72   15.90
   4   0  -4   87.34   13.80
   4   0  -4   95.19   11.40
  -4   0   4   89.81   16.37
   4   0  -4   92.23   11.38
  -4   0   4   95.55   16.23
   2   3  -4 2871.19   95.91
   2   3  -4 2938.63   92.83
  -2  -3   4 2873.27   89.21
   2   3  -4 3177.22  106.16
  -2  -3   4 3070.68  102.30
   1  -3  -6 5729.22  165.50
  -1   3   6 5854.09  170.42
   1  -3  -6 5947.22  171.28
  -1   3   6 5357.68  156.32
   5   3   1  229.17   14.94
   5   3   1  219.59   15.58
  -5  -3  -1  220.42   21.73
  -5  -3  -1  185.31   16.13
  -5  -3  -1  222.46   17.59
   5   3   1  220.01   20.29
   2  -2   3 3502.81  122.04
  -2   2  -3 3399.74  105.13
  -2   2  -3 3512.21  110.60
   2  -2   3 3638.55  115.58
  -2   2  -3 3560.05  124.26
   2  -2   3 3494.23  106.87
  -3  -5  -3 1510.37   59.82
  -3  -5  -3 1466.01   52.73
  -3  -5  -3 1388.23   49.71
   3   5   3 1529.97   54.49
   3   5   3 1460.08   52.37
   3   5   3 1525.59   60.37
   5   3   0 1016.88   27.75
  -5  -3   0  869.94   29.88
  -5  -3   0 1005.31   37.86
   5   3   0  994.72   34.99
  -5  -3   0 1001.56   35.03
   5   3   0  914.24   29.71
   4  -1   0 1169.67   44.39
   4  -1   0 1142.50   45.26
  -4   1   0 1161.57   43.62
  -4   1   0 1098.45   30.56
   4  -1   0 1243.53   46.74
   4  -1   0 1245.94   51.88
   0  -2  -7  842.79   35.31
   0  -2  -7  987.75   30.13
   0   2   7 1024.58   31.24
   0   2   7  829.72   37.62
  -3  -5  -1   64.02   10.75
   3   5   1   69.69   15.25
   3   5   1   60.13   11.56
  -3  -5  -1   54.54   14.49
   3   5   1   62.36   12.53
  -1  -4  -6 5013.17  154.59
   1   4   6 5009.29  146.99
   1   4   6 4394.72  144.46
   1   4   6 4394.72  144.46
  -1  -4  -6 5115.81  148.86
  -1  -5  -2  754.33   32.54
  -1  -5  -2  762.76   26.38
   1   5   2  759.93   40.28
   1   5   2  708.38   25.66
   2  -2  -6   52.20   10.68
   2  -2  -6   58.10   11.60
   2  -2  -6   57.20    9.86
  -2   2   6   61.26   10.86
   2  -2  -6   56.22   14.18
   1   5   3 2432.27   82.32
  -1  -5  -3 2418.99   77.61
   1   5   3 2242.14   89.33
  -1  -5  -3 2344.54   77.74
  -1  -5  -3 2359.59   82.72
   1   5   3 2520.46   81.82
   3  -2   1  408.21   21.39
   3  -2   1  417.64   19.82
  -3   2  -1  380.96   19.45
   3  -2   1  389.55   28.81
   4   4   4  526.22   22.18
  -4  -4  -4  531.15   22.75
  -4  -4  -4  472.75   23.14
  -4  -4  -4  508.52   27.73
   4   4   4  535.82   28.06
   4   4   4  543.89   22.18
   1  -4  -4 4994.05  159.19
  -1   4   4 4875.13  156.46
   1  -4  -4 5119.30  152.54
   1  -4  -4 5124.79  151.01
   1  -4  -4 4887.16  142.68
  -2  -5  -4 1388.07   49.46
   2   5   4 1463.71   52.31
   2   5   4 1453.56   52.41
   2   5   4 1511.70   62.27
  -2  -5  -4 1455.11   57.65
   0  -1  -7  464.84   21.22
   0   1   7  471.67   30.42
   0   1   7  522.39   29.73
   0  -1  -7  484.76   30.21
   0   1   7  477.51   22.57
   1   3  -4 6589.73  202.12
  -1  -3   4 6392.99  182.63
   1   3  -4 6653.63  192.15
  -1  -3   4 6744.76  199.48
  -1  -2  -7  356.00   18.41
   1   2   7  357.48   27.28
   1   2   7  407.11   21.09
  -1  -2  -7  362.49   19.56
   1   2   7  390.43   25.05
  -1  -2  -7  356.73   24.51
   4  -1  -313007.35  358.78
   4  -1  -312296.73  354.43
   4  -1  -312770.86  370.92
  -4   1   312688.87  360.46
   4  -1  -313014.89  359.96
  -4   1   311624.91  321.78
  -5  -1   0  769.15   26.41
   5   1   0  826.37   28.97
   5   1   0  770.25   27.21
   5   1   0  820.65   33.73
  -5  -1   0  705.57   32.24
   5   1   0  797.63   27.93
   4   3  -3 5337.10  143.00
  -4  -3   3 5919.91  157.38
  -4  -3   3 5442.59  136.33
  -4  -3   3 5149.52  132.14
   4   3  -3 5943.42  155.48
  -2  -4  -6 1099.38   29.42
   2   4   6 1248.24   33.39
  -2  -4  -6 1105.20   37.83
   2   4   6 1185.66   40.50
   2   4   6 1117.09   30.05
  -2  -4  -6 1122.16   30.80
   2   1  -6 8135.95  213.71
  -2  -1   6 8301.15  204.70
  -2  -1   6 8173.58  213.39
   2   1  -6 8993.71  226.89
   2   1  -6 8438.29  207.30
  -2  -1   6 8557.78  220.41
  -5  -1   1 4525.66  127.29
  -5  -1   1 4265.78  111.48
   5   1  -1 4552.46  126.09
   5   1  -1 4552.08  119.52
   5   1  -1 4531.80  125.49
  -5  -3  -2 2138.06   71.98
   5   3   2 2103.76   65.62
   5   3   2 2229.24   65.24
  -5  -3  -2 1942.17   61.66
  -5  -3  -2 2216.70   68.56
   0   1  -6 1495.22   60.91
   0  -1   6 1473.92   61.27
   0   1  -6 1240.43   42.47
   0  -1   6 1477.54   57.54
   0   1  -6 1397.99   47.76
   0  -1   6 1416.11   47.09
   0  -2   5  410.73   20.01
   0   2  -5  452.93   30.08
   0   2  -5  398.73   20.82
   0  -2   5  424.18   25.63
   0   2  -5  393.73   24.26
   0  -2   5  392.43   28.21
   4   2  -4 2450.51   79.84
  -4  -2   4 2569.37   83.65
  -4  -2   4 2459.92   80.26
   4   2  -4 2514.19   77.60
   5   2   2  156.38   14.21
  -5  -2  -2  136.04   15.22
  -5  -2  -2  146.21   16.18
   5   2   2  156.82   13.33
  -5  -2  -2  157.19   19.30
   5   2   2  140.95   17.14
  -1   1   7  171.22   20.75
  -1   1   7  141.76   17.45
  -1   1   7  150.26   14.62
   1  -1  -7  154.89   19.59
   1  -1  -7  143.13   13.50
   1  -1  -7  159.12   18.69
   5   3  -1 6092.89  151.19
  -5  -3   1 5381.66  138.77
  -5  -3   1 5979.57  161.26
   5   3  -1 5896.17  153.91
  -5  -3   1 6003.16  159.94
   5   3  -1 6275.11  163.45
   3   3   6   24.11   12.25
  -3  -3  -6   27.00   11.55
   3   3   6   33.34   13.89
  -3  -3  -6   25.22    9.65
   3   3   6   27.05   11.43
   2  -3   1 3439.37   93.01
  -2   3  -1 3472.77   95.30
   2  -3   1 3314.03  110.74
  -2   3  -1 3205.30   88.61
   2  -3   1 3307.46   92.96
  -2   3   512494.10  297.25
   2  -3  -511994.75  286.92
   2  -3  -512780.25  313.09
   2  -3  -512184.23  287.15
   2  -3  -511898.78  301.31
   2  -3  -512800.55  302.97
   4   1   4 1033.87   37.87
   4   1   4 1101.66   31.45
  -4  -1  -4 1027.20   39.36
  -1  -5  -1 1683.22   60.96
  -1  -5  -1 1609.81   52.12
   1   5   1 1429.10   48.77
   1   5   1 1658.63   67.86
  -1  -5  -4 6938.79  179.65
  -1  -5  -4 6908.75  173.19
   1   5   4 7267.81  182.40
  -1  -5  -4 6893.45  169.82
   1   5   4 6969.56  173.67
  -5  -2   2 1305.40   53.72
   5   2  -2 1357.71   44.17
   5   2  -2 1361.43   50.25
   5   2  -2 1325.98   49.95
  -5  -2   2 1212.77   31.39
   3   3  -413534.02  327.83
  -3  -3   412149.75  286.76
   3   3  -411842.81  293.72
   3   5   414701.55  346.47
  -3  -5  -414602.39  355.72
   3   5   415152.76  144.33
  -3  -5  -415137.69  116.02
   3   5   414735.77  347.20
  -2  -5   0 6455.79  170.77
  -2  -5   0 6430.56  158.71
   2   5   0 6498.48  165.02
  -2  -5   0 6697.87  168.67
  -2  -5   0 6353.01  162.82
   1   3   7   39.75   10.15
  -1  -3  -7   33.28   10.43
   1   3   7   58.71   12.54
   1   3   7   34.54   13.03
  -5  -1  -1  308.72   23.06
   5   1   1  328.25   24.76
  -5  -1  -1  305.28   18.57
   5   1   1  317.42   18.86
  -3  -2  -6 3958.82  104.13
  -3  -2  -6 4062.24  116.65
  -3  -2  -6 3952.78  106.44
   3   2   6 4027.70  117.53
   3   2   6 4235.87  113.17
   3   2   6 3886.58  118.37
  -1   2   7 1305.80   45.23
   1  -2  -7 1249.59   32.56
  -1   2   7 1168.39   42.82
   1  -2  -7 1233.93   42.20
   1  -2  -7 1224.29   30.23
   1  -2  -7 1258.96   48.21
  -1   4   0 1276.59   33.65
  -1   4   0 1326.72   60.83
   1  -4   0 1186.88   47.02
   1  -4   0 1321.31   44.47
  -1   4   0 1380.20   47.29
   1  -4   0 1291.07   34.91
   5   1  -2   -1.32   12.47
  -5  -1   2    3.70    7.19
  -5  -1   2    6.44   11.49
  -5  -1   2    3.55    9.78
   5   1  -2    5.30    7.54
   5   1  -2    2.82   11.54
  -1  -1  -7  136.98   19.24
   1   1   7  145.29   19.55
  -1  -1  -7  154.13   15.26
   1   1   7  161.35   17.87
  -1  -1  -7  144.10   19.70
   1   1   7  166.80   15.68
   3   5   0 4750.72  124.05
  -3  -5   0 4554.15  116.05
  -3  -5   0 4725.88  123.23
  -3  -5   0 4949.25  135.71
   4   0   3   10.72   15.43
  -4   0  -3    6.17    7.54
   4   0   3    6.90    8.68
   4   0   3   11.31    9.61
   4   0   3    0.10   10.20
  -4   1  -1   34.74    8.30
   4  -1   1   35.96   10.18
   4  -1   1   35.87   14.43
   4  -1   1   33.56   13.32
   4  -1   1   34.95   10.04
  -4   1  -1   27.07   11.22
   0  -4  -6 1703.39   52.60
   0   4   6 1577.16   63.47
   0   4   6 1625.96   51.45
   0   4   6 1733.11   55.34
   0  -4  -6 1609.44   50.66
   0  -4  -6 1702.25   59.68
   0  -3  -7 3109.37   83.83
   0  -3  -7 3095.08   84.52
   0   3   7 3395.94   92.71
   0  -3  -7 2975.88   89.63
   4   3   5  976.12   28.91
  -4  -3  -5  917.36   35.09
   4   3   5  947.70   37.56
   4   3   5  961.49   29.98
  -4  -3  -5  891.29   27.25
  -3   0   6 6492.17  163.98
  -3   0   6 6666.51  178.75
   3   0  -6 6810.73  168.42
   3   0  -6 6986.83  178.77
  -3   0   6 6810.47  183.04
   3   0  -6 6418.22  174.87
  -4  -5  -2   43.14   10.48
  -4  -5  -2   52.34   15.44
   4   5   2   44.14   10.59
  -4  -5  -2   39.94    8.87
   4   5   2   47.24   10.95
   4   5   2   49.74   14.73
   3  -2  -5  752.14   25.94
   3  -2  -5  739.67   25.75
   3  -2  -5  748.16   31.19
   3  -2  -5  804.75   27.49
   3  -2  -5  734.86   31.54
   3  -2  -5  768.71   38.61
   4   4  -2  164.99   17.21
  -4  -4   2  157.97   13.22
   4   4  -2  171.76   16.92
  -4  -4   2  165.73   19.50
  -4  -4   2  160.35   12.70
  -4  -4   2  168.31   17.82
  -1   4   5 6752.07  183.69
  -1   4   5 6936.45  173.01
   1  -4  -5 6589.95  168.15
   1  -4  -5 6746.04  179.57
   1  -4  -5 6633.92  163.32
   5   4   1 6422.76  161.65
   5   4   1 6562.35  161.82
  -5  -4  -1 6401.69  171.03
  -5  -4  -1 6189.45  158.55
  -5  -4  -1 6282.08  160.95
  -2  -5  -5 3234.15   88.26
   2   5   5 3396.34  103.47
   2   5   5 3198.23   87.82
   2   5   5 3207.34   88.20
  -2  -5  -5 3292.88   97.07
  -1   3  -3  280.29   18.34
   1  -3   3  286.61   26.64
  -1   3  -3  296.33   20.02
   1  -3   3  273.09   19.59
  -1   3  -3  298.03   28.30
   1   0  -7 4117.99  121.15
   1   0  -7 4311.44  114.04
   1   0  -7 4534.53  131.72
  -1   0   7 4339.92  115.10
  -1   0   7 4651.15  132.67
  -5  -3  -3 1399.49   54.04
   5   3   3 1599.47   51.70
  -5  -3  -3 1371.20   48.59
  -5  -3  -3 1473.52   49.26
   5   3   3 1471.57   54.70
   5   3   3 1483.97   48.30
   4  -1  -4 1388.63   46.06
   4  -1  -4 1316.18   52.99
   4  -1  -4 1384.47   46.24
  -4   1   4 1410.15   55.19
   4  -1  -4 1371.63   51.31
   4  -1  -4 1441.31   49.07
   4   5   1 1989.13   60.74
  -4  -5  -1 1980.76   67.59
  -4  -5  -1 1851.81   56.10
  -4  -5  -1 2006.55   62.57
   4   5   1 1919.31   59.72
   4   5   1 1852.48   62.50
   2  -1   5   74.76   18.82
  -2   1  -5   78.91   14.44
  -2   1  -5   77.71   17.27
   2  -1   5   83.37   15.75
  -2   1  -5   73.91   12.35
  -2  -4   3    7.16    8.32
  -2  -4   3   -5.46   12.25
   2   4  -3    1.84    8.02
   2   4  -3    5.50   11.81
   2   4  -3    2.59   12.23
  -2  -4   3    3.23   10.36
  -5  -4  -2  135.74   15.42
   5   4   2  131.84   13.37
   5   4   2  140.61   12.78
  -5  -4  -2  137.53   14.08
  -5  -4  -2  132.45   18.64
   4   2   5 2908.62   82.26
  -4  -2  -5 2731.22   76.65
   4   2   5 2741.06   91.97
  -4  -2  -5 2352.22   74.46
   4   2   5 2863.00   89.80
  -4  -2  -5 2675.72   85.96
  -2   0  -6   18.51   11.67
  -2   0  -6    5.79   14.27
  -2   0  -6   14.27   12.15
   2   0   6   13.52   13.41
   2   0   6    6.12   14.47
   0   0   7 8017.00  211.18
   0   0  -7 7256.36  180.98
   0   0   7 7283.51  198.41
   0   0   7 7815.23  193.37
   0   0  -7 7575.10  204.75
   4   5   3 2661.05   74.63
  -4  -5  -3 2619.37   75.20
   4   5   3 2655.83   75.72
  -4  -5  -3 2661.46   84.23
  -4  -5  -3 2513.30   70.87
   4   5   3 2876.29   87.31
  -2  -2  -7  231.82   17.23
   2   2   7  236.65   20.67
   2   2   7  238.19   22.52
  -2  -2  -7  229.60   15.97
  -2  -2  -7  231.84   20.86
   0   4  -2 5185.14  133.99
   0  -4   2 5054.07  133.18
   0   4  -2 4927.56  129.71
   0  -4   2 5225.73  131.99
   0   4  -2 5578.55  164.06
   0  -4   2 4800.66  138.90
  -2  -3  -7  679.30   25.06
  -2  -3  -7  628.67   29.44
   2   3   7  686.66   32.91
  -2  -3  -7  642.52   24.23
   2   3   7  682.74   34.81
   3  -1  -6    2.32    8.18
   3  -1  -6    2.33    9.63
  -3   1   6    9.63   12.17
   3  -1  -6    4.73    6.74
   3  -1  -6   -0.20   14.53
  -3   1   6    6.61    8.26
  -3  -4  -6 2609.68   75.35
  -3  -4  -6 2610.58   73.49
  -3  -4  -6 2535.36   79.54
   3   4   6 2740.79   86.56
   3   4   6 2600.62   73.33
   3   4   6 2822.74   79.37
   0   3  -4  419.05   30.30
   0  -3   4  397.39   19.60
   0   3  -4  380.26   23.14
   0   3  -4  372.48   20.22
   0  -3   4  388.26   22.42
  -5  -4   0  128.72   17.51
  -5  -4   0  137.78   14.55
   5   4   0  131.05   13.95
   5   4   0  136.67   12.26
  -5  -4   0  134.00   15.70
   5   4   0  154.61   18.60
   3   0   5 1891.04   67.02
  -3   0  -5 1838.61   71.34
   3   0   5 1718.89   53.77
  -3   0  -5 1627.53   59.61
  -3   0  -5 1672.01   55.21
   3   0   5 1698.89   66.38
   1   5   0 1094.15   47.59
  -1  -5   0 1017.57   39.23
  -1  -5   0 1022.11   32.59
  -1  -5   0  995.42   28.41
  -1  -5   0 1014.86   31.12
   5   3  -2  300.73   22.29
  -5  -3   2  315.47   22.99
   5   3  -2  281.98   20.14
  -5  -3   2  273.79   17.14
   5   3  -2  297.60   16.63
   1   5   5   18.24   12.96
   1   5   5    3.84   10.47
  -1  -5  -5    8.92   10.79
  -1  -5  -5    7.88    9.88
  -1  -5  -5    5.40    9.37
   1   5   5   10.98    9.76
   5   2   3  612.85   24.47
  -5  -2  -3  614.75   25.25
  -5  -2  -3  549.36   25.19
  -5  -2  -3  594.05   29.21
  -5  -2  -3  593.55   29.90
  -4  -4  -5  532.30   22.01
   4   4   5  571.49   23.14
  -4  -4  -5  509.66   27.53
   4   4   5  565.18   29.17
   4   4   5  536.50   22.07
   3  -2   2  980.18   32.90
  -3   2  -2  970.14   43.46
  -3   2  -2  903.87   28.44
   3  -2   2  938.73   42.19
   3  -2   2  957.56   28.73
  -3   2  -2  954.80   29.61
   5   1   2 7258.42  180.14
   5   1   2 7588.03  197.34
  -5  -1  -2 6591.29  166.45
  -4  -1   5 4958.82  139.48
   4   1  -5 5336.01  141.22
   4   1  -5 4697.01  135.09
  -4  -1   5 5106.22  143.01
   0  -5  -3 1450.77   48.53
   0  -5  -3 1522.33   49.02
   0  -5  -3 1456.67   47.50
   0   5   3 1492.76   65.10
   0  -5  -3 1503.90   55.84
  -3  -4   3  433.97   29.12
   3   4  -3  460.70   24.10
  -3  -4   3  452.56   24.24
   3   4  -3  493.73   26.88
  -3  -4   3  469.66   20.06
  -3  -4   3  437.92   21.23
  -4   0   5  372.54   26.53
  -4   0   5  361.70   26.09
   4   0  -5  346.93   25.90
   4   0  -5  379.68   17.60
   4   0  -5  347.76   18.07
   4   0  -5  377.77   22.39
   3   1  -612132.82  309.15
   3   1  -612467.16  297.76
  -3  -1   612888.63  318.20
   3   1  -613643.12  332.97
   2  -1  -7  984.34   39.71
   2  -1  -7 1135.05   38.11
   2  -1  -7 1050.00   29.88
  -2   1   7 1074.13   31.65
  -2   1   7 1076.92   41.00
   0  -5  -2  721.12   25.85
   0  -5  -2  656.06   24.16
   0  -5  -2  674.86   26.76
   0  -5  -2  711.89   33.65
   0   5   2  640.59   38.13
   5   1  -3 1062.68   36.27
   5   1  -3 1084.18   39.87
   5   1  -3 1066.53   31.34
  -5  -1   3 1121.47   41.79
  -5  -1   3 1107.11   41.38
  -5  -1   3 1005.10   27.93
   5   0  -1   89.11   14.94
   5   0  -1   78.31   14.55
   5   0  -1   83.78   12.41
  -5   0   1   72.39   14.82
  -5   0   1   77.00   10.42
   5   0  -1   79.51   10.55
   3   5   5 2492.47   71.18
  -3  -5  -5 2477.18   78.62
   3   5   5 2636.23   83.13
   3   5   5 2523.83   72.18
  -3  -5  -5 2431.17   69.82
  -5  -2   3   28.70   15.82
   5   2  -3   15.72    7.92
  -5  -2   3   13.33   11.26
   5   2  -3   17.45   11.21
   5   2  -3   16.51   11.78
   1  -1   6 1111.09   30.87
  -1   1  -6 1072.21   32.49
   1  -1   6 1151.92   41.70
   1  -1   6 1056.12   44.42
  -1   1  -6 1157.18   45.72
  -1   1  -6 1064.21   40.15
  -4  -5   0 3089.70   93.27
   4   5   0 3062.72   85.60
  -4  -5   0 2942.99   80.96
  -4  -5   0 3020.06   86.47
   4   5   0 2993.10   84.56
   5   4   3 4554.42  118.48
   5   4   3 4624.89  127.09
  -5  -4  -3 4226.67  113.39
   5   4   3 4600.66  118.00
  -5  -4  -3 4331.54  122.96
  -5  -4  -3 4230.41  112.60
  -1  -4   3   25.48    9.80
  -1  -4   3   22.15   15.47
   1   4  -3   33.49   14.22
  -1  -4   3   33.49   11.51
   1   4  -3   35.06    9.61
  -2  -5   1 1905.52   57.09
  -2  -5   1 1921.08   60.96
  -2  -5   1 1881.11   67.18
   2   5  -1 1892.24   60.11
  -2  -5   1 1870.65   59.37
   3   1   6 4960.31  127.51
   3   1   6 4705.76  129.87
   3   1   6 4936.33  142.18
  -3  -1  -6 4976.49  130.29
  -3  -1  -6 4706.24  136.06
  -3  -1  -6 4796.03  123.32
   3  -1   4 7508.43  186.05
  -3   1  -4 7580.09  193.91
   3  -1   4 7939.98  207.21
  -3   1  -4 7582.84  204.80
  -3   1  -4 7133.38  177.92
   5   0   0  275.33   18.18
   5   0   0  281.21   23.42
   5   0   0  284.55   18.10
  -5   0   0  265.43   17.25
   5   0   0  280.72   22.16
   5   0   0  279.21   26.11
  -2   0   7  862.77   36.69
  -2   0   7  803.61   28.22
   2   0  -7  771.57   26.30
  -2   0   7  743.49   34.86
   2   0  -7  827.43   33.62
   2   0  -7  743.59   35.96
   5   0  -2 9406.54  245.42
  -5   0   2 9083.17  220.14
   5   0  -210178.13  253.14
   5   0  -210000.53  245.52
  -5   0   210194.31  257.40
   5   0  -2 9594.92  231.26
   0  -5  -4  922.96   34.88
   0  -5  -4  870.11   27.12
   0  -5  -4  887.50   28.33
   0   5   4  888.71   29.80
   0   5   4  905.15   43.37
  -3  -5   1  860.72   26.06
  -3  -5   1  883.11   35.18
  -3  -5   1  776.88   29.97
   3   5  -1  813.11   33.47
   3   5  -1  862.25   29.86
  -3  -5   1  863.09   28.57
   3  -3  -2   66.53   10.96
  -3   3   2   62.45   11.29
   3  -3  -2   71.11   13.22
  -3   3   2   75.32   18.50
   3  -3  -2   66.98   15.68
  -3   3   2   69.17   11.52
   1  -4   110356.35  252.51
  -1   4  -110455.03  255.57
   1  -4   1 9349.29  244.33
  -1   4  -110191.84  246.57
  -1   3   7 1908.03   59.54
   1  -3  -7 1800.39   62.56
   1  -3  -7 1817.18   54.49
   1  -3  -7 1767.57   54.44
   4   5   4  503.00   21.54
   4   5   4  506.16   27.40
  -4  -5  -4  443.99   20.37
   4   5   4  509.19   22.18
  -4  -5  -4  490.68   21.57
  -4  -5  -4  474.65   27.34
  -4   1  -2   51.75    9.90
   4  -1   2   47.27   17.48
   4  -1   2   64.61   12.94
   4  -1   2   53.34   12.21
   4  -1   2   42.09   11.71
  -2   3  -2 2007.89   62.18
  -2   3  -2 1902.40   74.05
   2  -3   2 1896.27   72.39
   2  -3   2 2016.93   60.61
   2  -3   2 1969.16   63.15
  -2   3  -2 1923.53   59.42
   3  -3  -3   90.67   12.35
   3  -3  -3   95.89   13.72
  -3   3   3   89.82   12.30
   3  -3  -3   86.02   12.28
   3  -3  -3   83.79   13.33
   3  -3  -3   78.70   17.90
   2  -3  -6 2601.76   88.34
   2  -3  -6 2494.32   77.72
   2  -3  -6 2549.69   72.53
  -2   3   6 2583.39   75.51
   2  -3  -6 2525.72   71.97
  -1  -4  -7 1366.52   43.75
   1   4   7 1350.09   58.46
   1   4   7 1430.55   46.82
   1   4   7 1269.63   48.58
   1   4   7 1329.03   45.27
   1  -2   5  714.26   31.28
   1  -2   5  700.92   25.24
  -1   2  -5  652.42   25.02
  -1   2  -5  633.64   28.69
  -1   2  -5  735.60   37.67
   5   4  -1    0.59   10.76
  -5  -4   1   -0.98   14.62
   5   4  -1    5.30    9.06
  -5  -4   1    0.89    9.26
   5   4  -1    1.93    7.63
  -5  -4   1    4.50   11.52
   0   5   1  150.75   14.16
   0  -5  -1  159.57   16.39
   0   5   1  161.59   24.67
   0  -5  -1  160.97   14.09
  -2   2  -4 2536.70   74.35
   2  -2   4 2747.34   84.43
  -2   2  -4 2658.65   80.62
  -2   2  -4 2702.54   92.51
  -4  -3   4 2833.27   89.52
  -4  -3   4 3020.41   92.74
   4   3  -4 2852.84   88.04
  -4  -3   4 2800.90   79.29
  -4  -3   4 2675.30   77.30
   4   3  -4 3034.30   90.55
   3  -3  -1 2308.55   82.48
  -3   3   1 2384.89   84.07
   3  -3  -1 2509.52   72.10
  -3   3   1 2257.81   66.79
   3  -3  -1 2287.51   67.03
  -2  -1  -7   64.18   14.13
   2   1   7   67.60   13.72
   2   1   7   73.56   15.45
  -2  -1  -7   69.16   17.12
  -2  -1  -7   77.89   12.80
   2   1   7   79.46   12.96
   2  -2  -7 1608.40   48.19
  -2   2   7 1705.42   54.19
   2  -2  -7 1742.01   64.17
   2  -2  -7 1703.56   62.18
  -2   2   7 1672.71   61.56
   2  -2  -7 1574.77   49.71
   2   2  -6 1911.48   68.30
  -2  -2   6 1945.72   68.05
   2   2  -6 1747.23   62.82
  -2  -2   6 1683.81   65.56
   2   2  -6 1830.92   57.13
  -2  -2   6 1825.35   56.63
  -1   0  -7 3552.00  106.29
   1   0   7 3993.67  104.15
  -1   0  -7 3953.17  118.11
   1   0   7 4303.03  122.97
   1   0   7 3741.13  114.72
  -1   0  -7 3952.45  104.42
  -1  -2   6 5782.63  158.76
  -1  -2   6 6222.21  151.90
  -1  -2   6 6442.78  173.77
   1   2  -6 5918.00  150.31
   1   2  -6 6450.68  171.80
  -2  -4  -7 2736.22   74.76
  -2  -4  -7 2709.73   74.28
   2   4   7 2913.16   89.04
   2   4   7 2848.87   78.69
  -5  -3  -4 4688.94  118.45
   5   3   4 4669.42  127.61
   5   3   4 4721.52  118.95
  -5  -3  -4 4326.87  114.45
   5   3   4 4836.33  122.30
  -5  -3  -4 4464.13  122.13
   2  -4  -3 1421.66   51.23
   2  -4  -3 1483.60   49.59
   2  -4  -3 1541.88   49.48
   2  -4  -3 1483.13   47.48
  -2   4   3 1451.62   50.57
  -2   4   3 1512.49   49.26
  -2   4   2 1777.26   68.04
   2  -4  -2 1784.26   53.95
  -2   4   2 1856.67   57.04
   2  -4  -2 1804.07   57.18
   2  -4  -2 1905.59   57.46
   2  -4  -2 1769.14   68.65
  -2  -3   5 1665.15   63.75
  -2  -3   5 2003.64   58.85
  -2  -3   5 2065.72   68.31
   2   3  -5 2105.72   70.91
   2   3  -5 1822.18   61.76
   2   3  -5 2003.20   60.05
   4  -2  -2   16.46   10.51
  -4   2   2    3.32    8.02
   4  -2  -2    5.27   12.70
   4  -2  -2    2.28    7.51
   4  -2  -2    5.34   13.91
  -4   2   2   -1.27    7.55
   1  -4  -6 3073.93   82.35
   1  -4  -6 3196.37   85.37
   1  -4  -6 3374.21  100.68
   1  -4  -6 3274.44   94.53
  -1   4   6 3174.50   87.20
   4   2  -5 1173.05   40.79
   4   2  -5 1195.49   40.25
  -4  -2   5 1249.27   43.36
  -4  -2   5 1199.29   42.43
  -2  -5  -6  448.00   19.96
   2   5   6  452.17   20.72
   2   5   6  459.85   27.63
  -2  -5  -6  449.99   24.81
   2   5   6  458.77   21.45
  -5   0  -1  931.95   28.61
   5   0   1 1049.41   31.52
   5   0   1 1029.39   38.34
   5   0   1 1053.42   45.65
  -5   0   3 2234.12   63.32
   5   0  -3 2185.77   74.31
   5   0  -3 2479.99   69.84
   5   0  -3 2350.85   67.22
   5   0  -3 2319.24   72.59
  -5   0   3 2400.80   79.09
   4  -1  -5   59.50   10.28
  -4   1   5   68.66   15.35
   4  -1  -5   63.73   11.75
   4  -1  -5   59.55   15.20
   4  -1  -5   71.91   11.15
   4  -1  -5   63.37   13.14
   4   1   513111.12  134.87
   4   1   512303.41  353.51
  -4  -1  -511595.76  283.88
   4   1   512969.82  112.73
  -4  -1  -512648.05  290.21
  -4  -1  -512571.73  293.40
   4  -2  -1 4525.31  115.14
  -4   2   1 4121.71  106.16
   4  -2  -1 4772.00  120.50
   4  -2  -1 4526.85  122.65
  -4   2   1 4383.73  111.32
   4  -2  -1 4469.19  130.25
   3  -3  -4  301.97   18.24
   3  -3  -4  289.10   16.86
  -3   3   4  271.56   17.43
   3  -3  -4  290.77   18.54
   3  -3  -4  307.46   22.60
   3  -3  -4  290.66   25.33
   4   0   4  363.56   23.26
  -4   0  -4  308.11   19.21
   4   0   4  379.58   20.47
  -4   0  -4  363.98   20.99
   0  -5  -5  231.77   15.24
   0  -5  -5  253.38   16.89
   0  -5  -5  259.78   20.28
   0   5   5  253.16   24.17
  -1  -5   1 2805.83   89.10
  -1  -5   1 2876.02   82.84
  -1  -5   1 2808.11   75.92
  -1  -5   1 2788.26   78.98
   3  -2  -6  100.24   12.29
   3  -2  -6  113.05   18.70
   3  -2  -6  110.58   14.09
   3  -2  -6  114.23   18.12
   3  -2  -6  110.61   11.82
   3  -2  -6  111.05   12.58
   0   4   7  112.89   13.02
   0   4   7  113.51   13.56
   0  -4  -7  111.67   12.03
   0  -4  -7  116.18   12.27
   4  -2  -3 1557.98   56.88
  -4   2   3 1380.41   33.60
   4  -2  -3 1589.56   50.50
   4  -2  -3 1539.61   48.56
   4  -2  -3 1407.28   42.40
   4  -2  -3 1412.62   50.62
   4   4  -3 1587.29   56.06
  -4  -4   3 1529.95   54.25
  -4  -4   3 1446.84   33.53
  -4  -4   3 1343.72   34.19
   4   4  -3 1537.06   52.74
  -1  -5  -6  420.41   19.57
   1   5   6  377.19   29.36
  -1  -5  -6  428.03   24.08
   1   5   6  416.31   20.24
  -1  -5  -6  405.73   20.13
   1   3  -5 4702.42  138.32
  -1  -3   5 4862.57  130.34
   1   3  -5 4484.42  115.18
  -1  -3   5 4633.70  116.65
   5   3  -3 5546.43  144.00
   5   3  -3 5063.12  135.15
  -5  -3   3 5477.34  145.30
   5   1   3  240.61   24.17
   5   1   3  248.70   17.03
  -5  -1  -3  238.31   17.99
   0  -2  -811966.17  276.42
   0  -2  -812385.32  306.83
   0   2   812621.54  291.47
  -1  -1   7 3380.64   90.82
   1   1  -7 3125.52   85.53
  -1  -1   7 3224.32   97.42
  -1  -1   7 2917.17   94.25
   1   1  -7 3381.06  103.14
   5   4   4  385.70   19.31
   5   4   4  389.63   18.91
   5   4   4  392.31   24.64
  -5  -4  -4  395.73   25.09
  -5  -4  -4  358.45   21.10
  -5  -4  -4  385.60   19.45
   2  -4  -4 1108.32   32.73
  -2   4   4 1124.71   31.18
   2  -4  -4 1063.11   29.40
   2  -4  -4 1108.32   32.73
   2  -4  -4 1078.71   45.19
   2  -4  -4 1217.99   33.85
  -2   4   4 1128.53   44.79
  -4  -5   1  202.11   15.05
   4   5  -1  215.02   20.98
  -4  -5   1  183.35   19.23
  -4  -5   1  181.78   13.13
  -4  -5   1  197.78   17.24
   4   5  -1  199.08   16.78
  -2   4   1  102.55   13.57
  -2   4   1   93.09   12.57
  -2   4   1   86.93   18.69
   2  -4  -1  125.11   20.89
   2  -4  -1  104.25   12.90
   2  -4  -1  106.26   13.04
   3   3   7 1019.34   42.24
   3   3   7 1067.39   30.81
   3   3   7 1060.95   40.25
  -3  -3  -7 1046.72   30.22
  -3  -3  -7 1000.03   30.56
  -3  -3  -7  992.41   36.16
   4   3   6  216.36   21.26
  -4  -3  -6  182.03   15.83
   4   3   6  199.74   21.47
  -4  -3  -6  180.68   17.51
  -4  -3  -6  189.57   14.72
   4   3   6  217.92   17.32
  -5  -2  -4  223.64   20.01
   5   2   4  264.38   17.94
  -5  -2  -4  218.70   18.38
  -5  -2  -4  246.13   16.27
   5   2   4  253.76   23.24
  -3   3   0 1704.00   67.32
   3  -3   0 1639.88   52.50
  -3   3   0 1660.80   52.16
   3  -3   0 1663.50   51.87
   3  -3   0 1588.04   63.69
   5   1  -4 1160.78   32.13
   5   1  -4 1166.70   37.79
  -5  -1   4 1131.61   43.33
  -5  -1   4 1164.10   42.89
   5   1  -4 1090.85   39.13
   5   1  -4 1151.13   31.05
  -3  -3   5  557.40   28.69
  -3  -3   5  561.01   22.81
  -3  -3   5  541.06   32.17
   3   3  -5  558.14   22.56
   3   3  -5  516.68   27.59
   3   3  -5  596.61   30.02
   0  -5   0 2160.90   64.00
   0   5   0 2299.69   84.92
   0   5   0 2300.68   67.52
   0  -5   0 2144.24   74.29
  -1  -2  -8 2275.17   65.30
  -1  -2  -8 2295.32   75.91
   1   2   8 2284.28   74.98
   1   2   8 2445.84   70.15
  -1  -2  -8 2279.15   65.34
   1   2   8 2352.78   81.77
  -4  -5  -5 4761.49  120.93
   4   5   5 4711.97  118.64
   4   5   5 5007.67  125.51
  -4  -5  -5 4540.80  126.04
   4   5   5 4872.36  131.00
   5   5   2  690.19   24.45
  -5  -5  -2  703.09   27.49
   5   5   2  686.87   30.74
  -5  -5  -2  683.97   31.41
   5   5   2  656.99   25.16
  -5  -5  -2  636.67   24.40
   3   5   6  299.95   18.68
   3   5   6  277.20   17.21
   3   5   6  289.30   22.01
  -3  -5  -6  274.25   21.32
  -3  -5  -6  270.84   16.80
  -3  -5  -6  255.52   17.04
   2   1  -7 1048.24   39.18
  -2  -1   7 1053.13   40.72
   2   1  -7  990.25   40.32
  -2  -1   7  885.48   39.69
   2   1  -7 1029.91   31.10
  -2  -1   7 1001.82   31.09
   0   1   8 2984.46   91.06
   0  -1  -8 2750.69   76.73
   0   1   8 2884.56   79.87
   0  -1  -8 2885.30   93.34
   0   1   8 2842.56   91.95
  -4   2   0 7409.18  177.63
   4  -2   0 6983.42  189.23
   4  -2   0 6661.22  167.18
  -4   2   0 7072.22  170.58
   4  -2   0 6984.85  170.21
   4  -2   0 7497.47  183.04
  -5  -5  -1 5691.60  143.41
  -5  -5  -1 5296.89  131.23
   5   5   1 5536.26  137.45
   5   5   1 5544.14  138.30
  -5  -5  -1 5772.29  153.04
   0  -2   6  161.30   13.80
   0  -2   6  178.11   19.17
   0  -2   6  179.98   21.59
   0   2  -6  156.71   14.53
   0   2  -6  173.28   20.00
   0   2  -6  181.99   23.08
  -5  -4   2   20.46   12.00
  -5  -4   2   21.61    9.50
  -5  -4   2   28.69   13.93
   5   4  -2   22.21   10.52
   5   4  -2   22.92   12.45
   5   2  -4  757.05   31.93
  -5  -2   4  730.75   34.63
   5   2  -4  763.34   30.34
  -5  -2   4  745.83   34.79
   1   3   8 2620.53   88.19
   1   3   8 2642.73   84.38
  -1  -3  -8 2579.20   71.62
  -1  -3  -8 2768.42   77.28
   1   3   8 2883.94   80.54
   4   4   6 1604.89   50.93
   4   4   6 1514.54   48.12
   4   4   6 1498.66   55.94
  -4  -4  -6 1465.64   34.69
  -4  -4  -6 1452.25   43.75
   3   2   7   85.51   16.65
   3   2   7   80.37   15.78
  -3  -2  -7   61.72   10.87
  -3  -2  -7   76.60   15.13
  -3  -2  -7   66.72   14.91
   3  -2   3 1959.88   73.02
   3  -2   3 2010.70   60.52
  -3   2  -3 1881.71   57.52
   3  -2   3 1924.37   63.74
  -3   2  -3 1891.50   72.35
  -3   2  -3 1797.47   56.17
   0  -4   3  413.83   29.10
   0   4  -3  419.30   20.84
   0   4  -3  433.44   23.44
   0  -4   3  453.27   23.60
   0  -4   3  438.74   20.41
   0   4  -3  471.48   32.55
  -1   1   8 2629.15   83.18
   1  -1  -8 2355.59   79.18
  -1   1   8 2354.38   79.29
   1  -1  -8 2708.42   88.31
   1  -1  -8 2488.18   69.91
  -1   1   8 2577.41   73.58
   0  -1   7 1816.32   65.70
   0   1  -7 1634.62   60.58
   0   1  -7 1761.20   55.35
   0  -1   7 1826.74   55.59
   0  -1   7 1856.84   68.59
   0   1  -7 1938.61   70.59
  -1   2   8 6570.25  174.97
   1  -2  -8 7120.97  187.96
  -1   2   8 7292.33  176.81
   1  -2  -8 6861.95  164.63
   1  -2  -8 6637.93  173.61
   1  -2  -8 6586.17  158.62
  -1   3  -4  247.04   17.64
  -1   3  -4  257.31   19.16
   1  -3   4  262.04   19.57
  -1   3  -4  315.19   27.97
   1  -3   4  252.13   16.21
   1  -3   4  244.75   25.45
   0   3   8  791.77   28.52
   0  -3  -8  632.51   23.57
   0  -3  -8  662.86   31.20
   0  -3  -8  667.12   23.55
   4  -2  -4  418.12   29.94
   4  -2  -4  463.81   26.43
   4  -2  -4  486.14   22.48
   4  -2  -4  472.58   21.71
   4  -2  -4  446.18   24.71
   4  -2  -4  491.99   21.19
  -3  -5   2 1383.85   32.84
  -3  -5   2 1322.38   35.54
  -3  -5   2 1395.28   38.20
   3   5  -2 1498.14   55.58
   3   5  -2 1389.93   37.80
  -3  -5   2 1362.35   45.26
  -2  -5   2   32.77   11.17
  -2  -5   2   40.69   10.90
  -2  -5   2   33.02    9.71
  -2  -5   2   42.57   18.32
   2   5  -2   36.78   12.30
   2   5  -2   28.42   16.98
  -5  -5  -3  476.86   21.77
   5   5   3  507.69   22.25
  -5  -5  -3  464.00   21.41
   5   5   3  505.66   21.56
  -5  -5  -3  514.45   28.92
   5   5   3  503.16   27.34
   3   4   7 4708.57  119.11
   3   4   7 4478.40  124.79
  -3  -4  -7 4500.11  122.28
   3   4   7 4555.14  115.90
  -3  -4  -7 4243.23  108.07
  -3  -4  -7 4356.09  111.86
  -4  -2  -6 8489.27  204.13
   4   2   6 8332.47  215.96
   4   2   6 8777.95  218.75
   4   2   6 9539.90  224.71
  -4  -2  -6 8057.37  206.49
  -4  -2  -6 8202.68  198.63
   3   6   3  429.66   26.56
   3   6   3  404.15   20.68
  -3  -6  -3  394.13   25.18
   3   6   3  394.16   20.36
  -3  -6  -3  397.15   19.84
  -2  -4   4 3152.66   83.42
   2   4  -4 3390.35  101.74
  -2  -4   4 3247.74   92.74
   2   4  -4 3247.29   87.51
   2   4  -4 3242.37   92.21
   3   0  -7  227.95   18.95
  -3   0   7  212.68   15.80
   3   0  -7  200.43   14.91
  -3   0   7  225.40   21.39
   3   0  -7  203.24   22.91
  -2  -6  -3 1466.38   35.63
   2   6   3 1486.39   48.89
  -2  -6  -3 1470.74   42.63
   2   6   3 1452.41   35.45
   2   6   3 1534.55   60.68
   3   6   2 2559.69   80.96
  -3  -6  -2 2250.92   71.91
   3   6   2 2278.80   65.99
  -3  -6  -2 2324.52   66.32
   3   6   2 2361.57   68.38
  -5   0  -2 2688.59   75.70
   5   0   2 2794.90   84.55
   5   0   2 2799.01   92.52
   5   0   2 2978.69   83.97
  -4   0   6 2377.06   79.01
   4   0  -6 2181.68   60.81
  -4   0   6 2356.71   77.27
   4   0  -6 2354.31   71.90
   4   0  -6 2256.92   75.43
   4   0  -6 2197.13   71.53
  -1   4  -2 3441.33   93.17
   1  -4   2 3252.49  102.61
   1  -4   2 3474.04   95.47
  -1   4  -2 3387.11   90.92
  -3   3   5 8813.82  207.37
   3  -3  -5 8449.54  222.97
   3  -3  -5 9119.81  215.74
   3  -3  -5 8689.50  203.99
   3  -3  -5 8624.25  208.52
   3  -3  -5 8915.50  221.27
   5   0  -4  474.64   28.30
   5   0  -4  490.55   21.23
   5   0  -4  535.80   22.68
   5   0  -4  529.11   23.47
  -5   0   4  514.13   29.01
   5   0  -4  500.82   26.11
   3  -1  -7 1427.22   31.93
  -3   1   7 1453.34   37.00
   3  -1  -7 1404.42   47.75
  -3   1   7 1502.49   58.57
   3  -1  -7 1523.30   49.09
   3  -1  -7 1530.14   53.76
  -2  -6  -2 1255.76   40.52
  -2  -6  -2 1212.34   32.89
  -2  -6  -2 1197.44   30.52
   2   6   2 1199.44   32.95
   2   6   2 1386.04   49.74
  -2  -6  -2 1197.51   33.72
  -4   1  -3 3342.38   90.23
   4  -1   3 3756.64  108.99
   4  -1   3 3591.41   94.41
   4  -1   3 3301.28  104.31
   6   3   0 4463.68  111.71
   6   3   0 4433.39  119.60
  -6  -3   0 4244.19  110.57
  -6  -3   0 4495.46  123.75
   6   3   0 4289.13  111.76
  -6  -3   0 4400.21  123.81
   2  -4  -5 7487.45  190.73
   2  -4  -5 7775.58  186.10
   2  -4  -5 7156.03  190.03
  -2   4   5 6978.35  167.70
   2  -4  -5 7143.02  170.25
   2  -4  -5 7204.33  175.58
  -6  -3  -1  132.60   15.10
   6   3   1  142.64   14.01
  -6  -3  -1  142.33   16.45
   6   3   1  185.93   18.27
  -6  -3  -1  134.01   19.23
   6   3   1  159.78   14.05
   6   2   0 6999.92  176.14
  -6  -2   0 6754.91  177.09
   6   2   0 7577.53  181.44
  -6  -2   0 6541.30  160.87
   6   2   0 6738.96  165.82
   3   4  -4 9518.75  231.93
  -3  -4   4 8850.39  207.78
  -3  -4   4 9062.46  223.13
   3   4  -4 8770.12  219.52
  -3  -4   4 8249.17  200.53
  -5  -5   0 4047.18  103.85
   5   5   0 4231.12  110.04
   5   5   0 4210.85  108.35
  -5  -5   0 4371.57  116.24
  -5  -5   0 4304.72  120.43
  -2   4   0 1616.09   51.73
  -2   4   0 1572.33   50.00
   2  -4   0 1513.13   61.58
   2  -4   0 1615.01   52.01
  -2   4   0 1640.99   67.21
   2  -4   0 1671.91   51.49
   4   1  -6  568.22   26.78
   4   1  -6  517.14   29.51
  -4  -1   6  600.64   31.67
  -4  -1   6  552.61   31.46
   1  -5  -3 3708.84  100.00
   1  -5  -3 3663.32   95.66
  -1   5   3 3749.90   98.91
   1  -5  -3 3943.98  102.44
   1  -5  -3 3804.55  112.58
  -1   5   3 3718.14  114.23
   2   6   4 6125.03  151.23
  -2  -6  -4 5988.46  153.30
  -2  -6  -4 5938.15  145.59
   2   6   4 6098.24  149.79
   2   6   4 5992.30  162.53
  -1  -1  -8  100.56   14.86
   1   1   8  124.64   17.22
  -1  -1  -8  104.30   17.90
  -1  -1  -8  101.63   18.38
   1   1   8  103.62   18.31
   1   1   8  119.88   15.57
  -3  -6  -4 3658.95  104.28
   3   6   4 3623.52   95.58
   3   6   4 3837.18  110.60
  -3  -6  -4 3230.78   86.37
   3   6   4 3538.23   94.72
  -6  -2   1 4110.14  105.90
   6   2  -1 4660.88  123.74
   6   2  -1 4417.20  119.02
  -6  -2   1 4051.72  118.40
   6   2  -1 4503.08  118.89
   0   5   6   82.56   13.58
   0  -5  -6   79.91   13.42
   0   5   6   94.91   15.43
   0  -5  -6   77.21   12.87
   0  -5  -6   76.21   13.09
  -2   3  -3 2078.78   77.20
   2  -3   3 2048.00   75.13
  -2   3  -3 1943.68   58.76
   2  -3   3 2137.53   66.86
  -2   3  -3 1926.02   59.40
   1  -5  -2 2108.79   62.63
   1  -5  -2 2169.42   66.43
   1  -5  -2 1983.77   71.21
  -1   5   2 2097.32   62.21
   1  -5  -2 2021.62   60.18
  -1   5   2 2136.50   79.46
  -6  -2  -1   14.74   16.80
  -6  -2  -1    4.48    9.86
  -6  -2  -1    4.46   13.50
   6   2   1    6.82   10.46
   6   2   1    6.34   12.70
   6   2   1   -4.03   12.28
  -2   1  -6  426.63   26.45
   2  -1   6  484.92   28.95
  -2   1  -6  435.32   21.73
  -2   1  -6  436.50   29.57
   2  -1   6  459.34   31.01
   2  -1   6  441.46   21.32
   2  -3  -7  907.26   40.08
   2  -3  -7  804.38   33.62
   2  -3  -7  863.95   26.37
   2  -3  -7  829.12   26.65
  -2   3   7  837.88   28.53
   2  -3  -7  858.04   31.60
   0   3  -5 1127.68   44.67
   0   3  -5 1040.85   31.65
   0  -3   5 1064.86   29.52
   0   3  -5 1038.15   36.71
   0  -3   5 1038.57   36.49
   3   0   6   42.90   17.48
  -3   0  -6   39.04   13.27
  -3   0  -6   43.46   19.04
  -3   0  -6   33.30   12.75
   3   0   6   45.60   14.11
   5  -1  -2 2598.68   72.62
   5  -1  -2 2616.58   81.62
  -5   1   2 2344.07   66.63
   5  -1  -2 2623.80   89.75
   5  -1  -2 2301.31   74.62
   5  -1  -2 2525.60   70.98
   5  -1  -1   37.09   11.68
  -5   1   1   40.92   11.00
   5  -1  -1   43.25   13.51
   5  -1  -1   38.97    9.12
   5  -1  -1   32.01   16.64
   5  -1  -1   41.24   10.11
  -3  -6  -1  430.46   20.98
   3   6   1  463.07   22.92
  -3  -6  -1  483.85   26.65
  -3  -6  -1  440.90   19.92
   3   6   1  547.37   30.56
  -2  -3  -8 1020.84   29.72
  -2  -3  -8  993.72   36.02
   2   3   8 1009.58   39.65
   2   3   8 1020.11   41.34
  -2  -3  -8 1005.66   29.47
   2   3   8 1087.33   32.02
  -5  -3  -5  227.68   17.68
  -5  -3  -5  259.99   16.34
  -5  -3  -5  278.57   22.47
   5   3   5  287.03   22.92
   5   3   5  301.29   19.31
  -5  -3  -5  256.52   19.55
   6   3  -1 4292.03  129.17
  -6  -3   1 4345.70  141.55
   6   3  -1 4327.94  135.37
  -6  -3   1 4134.25  127.35
  -6  -3   1 3636.43  123.48
   6   3  -1 4427.46  139.90
   1  -5  -4  624.24   31.02
  -1   5   4  606.45   37.70
   1  -5  -4  635.85   30.08
   1  -5  -4  635.99   36.57
   1  -5  -4  587.21   27.63
  -1   5   4  638.54   30.35
   3  -3   1  384.58   20.88
   3  -3   1  389.84   29.98
   3  -3   1  397.96   20.65
  -3   3  -1  374.32   19.92
  -3   3  -1  340.24   19.10
   6   3   2   75.78   10.79
  -6  -3  -2   68.72   13.66
  -6  -3  -2   72.63   17.21
   6   3   2   89.90   12.38
  -1  -4   4 1976.06   66.36
   1   4  -4 2191.10   85.69
   1   4  -4 2039.67   70.35
  -1  -4   4 2083.03   74.34
   4  -2   1  121.17   20.21
   4  -2   1  129.02   13.80
  -4   2  -1  117.09   12.36
   4  -2   1  112.54   15.80
   4  -2   1  117.86   13.90
  -2  -6  -1  429.32   19.27
  -2  -6  -1  438.82   26.84
  -2  -6  -1  422.18   21.15
   2   6   1  482.93   31.76
  -2  -6  -1  445.95   22.11
   2   6   1  450.12   22.02
  -2   0  -7 3525.64  111.99
  -2   0  -7 3093.91  108.70
   2   0   7 3416.90  121.63
  -2   0  -7 3349.39  119.13
   2   0   7 3932.17  131.25
   2   0   7 3541.17  110.69
   5   5   4 1724.14   60.02
  -5  -5  -4 1649.72   65.36
  -5  -5  -4 1713.66   61.91
  -5  -5  -4 1636.33   58.48
   5   5   4 1652.01   58.64
   5   5   4 1783.59   67.91
  -1   4   7    6.72    9.29
   1  -4  -7    5.16    8.52
   1  -4  -7    6.45    9.39
  -2  -2  -8 2592.64   92.33
  -2  -2  -8 2743.37   89.11
   2   2   8 2762.15   97.72
   2   2   8 2851.97  103.44
   2   2   8 3047.48   97.50
  -2  -2  -8 2677.15   86.31
  -5  -4  -5   21.62   11.03
  -5  -4  -5   14.35   13.55
   5   4   5   20.58   10.52
   5   4   5   14.93   11.88
   5   4   5   20.16    9.27
  -5  -4  -5   15.73    9.16
   1   0  -8  711.36   40.02
  -1   0   8  674.13   31.52
  -1   0   8  562.99   35.97
  -1   0   8  745.11   39.44
   1   0  -8  685.88   32.04
  -3   1  -5    1.28   10.53
  -3   1  -5   10.15   10.71
   3  -1   5   -2.02    9.51
   3  -1   5    3.22   13.13
  -3   1  -5    7.07   17.14
  -4  -5   2  357.14   17.90
  -4  -5   2  378.87   26.18
  -4  -5   2  355.35   18.74
   4   5  -2  400.03   24.35
   4   5  -2  374.80   21.39
  -4  -5   2  363.31   21.86
   2   5   7  169.35   18.86
  -2  -5  -7  160.96   14.11
  -2  -5  -7  174.40   14.71
  -2  -5  -7  162.47   16.65
   2   5   7  161.26   14.07
   2   5   7  163.55   15.65
   4   6   2  394.38   25.37
   4   6   2  346.41   19.92
  -4  -6  -2  363.39   19.08
  -4  -6  -2  349.76   20.03
  -4  -6  -2  352.12   23.36
   4   6   2  351.43   19.64
  -4  -6  -3   84.85   11.94
  -4  -6  -3   75.97   16.99
   4   6   3   89.51   12.19
  -4  -6  -3   74.64   11.97
   4   6   3   86.29   14.31
   4   6   3   93.40   16.57
  -3  -1   7  788.01   42.23
  -3  -1   7  878.58   38.03
   3   1  -7  829.78   42.80
  -3  -1   7  878.58   38.03
   3   1  -7  843.20   36.01
   3   1  -7  905.07   42.44
  -4   1   6  131.36   17.55
   4  -1  -6  106.87   18.00
   4  -1  -6  126.89   12.06
   4  -1  -6  124.49   13.03
   4  -1  -6  120.73   12.86
   4  -1  -6  129.75   15.36
   1   5  -2  574.79   37.65
  -1  -5   2  512.36   34.20
  -1  -5   2  548.59   26.66
   1   5  -2  526.43   27.49
  -1  -5   2  523.71   28.24
   6   4   1 1975.63   72.55
   6   4   1 2130.26   72.46
   6   4   1 2186.48   71.85
  -6  -4  -1 2160.58   76.63
  -6  -4  -1 2133.51   80.78
  -6  -4  -1 1739.20   63.34
   0  -5   110533.08  299.84
   0  -5   1 9655.85  291.71
   0  -5   110341.32  301.27
   0   5  -1 9864.73  303.20
   0   5  -110308.46  300.69
   0   5  -110274.00  295.89
   4   3  -5  263.18   21.42
   4   3  -5  296.83   21.16
  -4  -3   5  278.32   25.20
  -4  -3   5  266.31   20.50
  -4  -3   5  266.34   19.91
  -4  -3   5  292.03   23.28
   2  -1  -8  743.37   40.08
   2  -1  -8  807.71   40.97
  -2   1   8  782.82   41.33
  -2   1   8  832.10   36.53
  -2   1   8  812.59   41.88
   2  -1  -8  795.95   33.71
   5  -1  -3 6215.31  191.07
  -5   1   3 5444.26  162.91
   5  -1  -3 6234.51  184.85
   5  -1  -3 5404.45  171.12
   5  -1  -3 6208.70  199.67
   5  -1  -3 6034.69  178.62
  -1   3   8 3422.54  108.71
   1  -3  -8 3327.56  102.49
   1  -3  -8 3372.61  114.00
   1  -3  -8 3426.79  106.55
  -1  -6  -3 1773.27   61.34
   1   6   3 1694.18   60.31
  -1  -6  -3 1839.02   69.87
  -1  -6  -3 1640.46   59.40
   1   6   3 1669.07   75.01
   5  -1   0 1382.68   55.84
   5  -1   0 1446.50   55.03
   5  -1   0 1411.96   57.36
   5  -1   0 1402.97   62.89
   5  -1   0 1561.15   56.21
  -5   1   0 1357.48   50.09
  -1  -4  -8   14.48   10.92
   1   4   8   17.27   11.29
   5   1   4  558.56   27.71
  -5  -1  -4  562.63   27.85
  -5  -1  -4  548.04   30.21
   1   5   7   13.82   13.04
  -1  -5  -7   12.69   11.35
   1   5   7   10.46    9.66
  -1  -5  -7   16.33   10.53
  -1  -5  -7   14.23    9.31
  -6  -2   2  624.77   28.60
  -6  -2   2  589.87   35.55
   6   2  -2  708.97   32.21
   6   2  -2  656.18   33.64
  -6  -2   2  604.31   36.17
   6   2  -2  647.19   33.49
   0   0   8    1.47   10.68
   0   0   8    4.88   12.29
   0   0  -8    5.73   13.70
   0   0  -8    2.78   14.72
   0   0  -8    7.51    9.50
   0   0   8   16.54   13.51
   2   6   5  734.01   33.39
   2   6   5  728.80   33.01
  -2  -6  -5  738.25   37.05
  -2  -6  -5  726.61   32.35
   2   6   5  713.24   41.26
  -5  -3   4 5092.87  161.89
   5   3  -4 4783.54  151.66
  -5  -3   4 4965.06  159.53
   5   3  -4 5009.32  156.30
  -1   5   1  794.20   34.96
  -1   5   1  800.56   47.78
   1  -5  -1  737.74   33.46
   1  -5  -1  730.36   41.04
   1  -5  -1  785.09   36.31
   1  -5  -1  789.45   34.06
   4  -2  -5   82.21   12.83
   4  -2  -5   80.94   16.13
   4  -2  -5   83.61   18.11
   4  -2  -5   85.52   12.45
   4  -2  -5   80.77   12.36
   4  -2  -5   78.42   13.23
   6   4   0    2.09   12.22
  -6  -4   0   16.75   11.89
   6   4   0    7.36    9.57
  -6  -4   0   10.33    9.76
  -6  -4   0    9.65   14.23
   6   4   0    4.15    7.60
  -6  -4  -2    9.64   13.13
  -6  -4  -2   21.50    9.76
   6   4   2   17.73    9.15
   6   4   2   22.50    9.76
  -6  -4  -2   20.73   11.62
  -1  -6  -4 3261.13  102.47
  -1  -6  -4 3208.48  101.66
   1   6   4 3321.96  106.49
  -1  -6  -4 3256.37  108.07
   1   6   4 2979.01  112.84
   1   6   4 3289.64  103.91
  -5  -5   1  141.12   13.35
  -5  -5   1  139.55   18.51
   5   5  -1  142.76   13.65
   5   5  -1  152.36   19.09
   5   5  -1  134.17   14.69
  -5  -5   1  144.52   15.80
   6   2   2  611.24   34.39
  -6  -2  -2  574.89   29.10
   6   2   2  575.52   28.25
  -6  -2  -2  637.26   35.62
  -1  -6  -2  370.86   19.48
  -1  -6  -2  345.54   23.54
   1   6   2  366.11   31.49
   4   5   6    6.51   12.00
  -4  -5  -6    8.12    8.74
  -4  -5  -6    7.72   12.46
   4   5   6    9.06    9.95
   4   5   6   12.10   10.18
   2  -2   5  204.10   18.64
   2  -2   5  156.67   13.84
  -2   2  -5  173.02   18.09
  -2   2  -5  165.52   16.09
  -2   2  -5  175.22   23.24
  -3  -1  -7  271.30   23.32
   3   1   7  297.92   25.61
   3   1   7  256.33   20.06
  -3  -1  -7  260.07   16.96
  -3  -1  -7  283.11   19.28
   3   6   5 4450.06  136.50
  -3  -6  -5 4436.54  142.24
  -3  -6  -5 4370.23  133.23
   3   6   5 4520.57  146.93
   3   6   5 4384.93  134.09
   6   1  -1 2873.81   92.57
   6   1  -1 2745.66   94.50
   6   1  -1 2769.56   93.30
  -6  -1   1 2626.18   85.31
   6   1  -1 2705.36   88.10
  -5  -1   5 5126.13  165.33
  -5  -1   5 4915.30  159.86
   5   1  -5 4448.82  144.76
   5   1  -5 4928.83  153.21
  -4  -6  -1   46.42   14.21
  -4  -6  -1   42.94   12.31
  -4  -6  -1   36.72    9.80
   4   6   1   30.65    9.67
   4   6   1   34.36   14.03
   4   6   1   36.04   13.92
  -6  -1   0  973.20   39.80
   6   1   0 1024.33   46.98
   6   1   0 1044.34   41.95
   6   1   0 1094.96   43.00
   6   1   0 1001.90   41.85
   3  -2  -7 2422.81   79.40
   3  -2  -7 2465.51   79.59
   3  -2  -7 2489.81   86.46
  -3   2   7 2436.87   89.14
  -3   2   7 2407.79   80.76
   3  -2  -7 2571.47   92.65
   1  -5  -5  191.37   14.80
   1  -5  -5  187.11   15.72
  -1   5   5  199.44   16.23
  -1   5   5  190.12   20.12
   1  -5  -5  205.72   20.02
   1  -5  -5  207.56   16.38
  -2  -4  -8   54.82   11.88
   2   4   8   69.44   13.42
   2   4   8   69.44   13.42
   2   4   8   69.47   13.42
   2   4   8   49.86   13.92
  -2  -4  -8   50.60   12.06
  -2  -4  -8   52.21   13.86
  -5  -4   3 5163.91  162.97
  -5  -4   3 4473.67  137.92
   5   4  -3 4924.81  153.49
   5   4  -3 5297.35  163.64
  -5  -4   3 4628.17  138.64
  -4  -6  -414282.22  404.27
   4   6   414976.15  122.04
  -4  -6  -415073.09  146.36
  -4  -6  -414263.56  403.54
   4   6   414607.28  413.74
   4   6   415637.11  145.21
  -4  -4   4 6931.22  213.26
   4   4  -4 7315.90  219.51
  -4  -4   4 7400.07  214.56
   4   4  -4 8450.48  253.70
  -4  -4   4 7149.89  210.29
  -1   1  -7 2942.66  102.34
  -1   1  -7 3483.59  121.01
   1  -1   7 3282.64  104.07
   1  -1   7 3227.87  114.98
   1  -1   7 3511.46  119.44
  -1   1  -7 3206.44  102.58
  -5  -2  -5 2702.67   97.73
   6   3  -2  315.63   20.69
  -6  -3   2  299.34   16.97
   6   3  -2  328.36   23.17
   6   3  -2  334.05   16.60
  -6  -3   2  343.58   24.65
   2  -2  -811623.24  340.50
  -2   2   811427.80  328.91
   2  -2  -810874.50  311.05
  -2   2   810330.59  311.91
   2  -2  -810896.13  311.26
   2  -2  -811054.32  331.85
   4   0   5  227.97   19.90
   4   0   5  204.01   22.73
  -4   0  -5  220.49   18.02
   4   0   5  193.81   17.88
  -4   0  -5  212.02   18.97
   4   0   5  241.21   17.83
  -3  -6   0  393.57   25.70
  -3  -6   0  395.01   18.37
  -3  -6   0  392.64   20.77
  -3  -6   0  420.19   22.16
   3   6   0  403.24   21.60
   3   6   0  444.83   26.87
  -2   0   8    2.11    8.94
   2   0  -8    2.75   11.12
   2   0  -8   -0.90    8.44
  -2   0   8    5.06   12.95
  -2   0   8    3.83   12.37
   2   0  -8   -2.41   15.96
   2  -4  -6 1911.19   77.49
   2  -4  -6 1722.88   59.82
   2  -4  -6 1741.90   61.93
   2  -4  -6 1898.50   71.96
  -2   4   6 1847.89   63.84
   2  -4  -6 1791.78   62.83
   4   2  -6  559.26   31.85
  -4  -2   6  522.46   33.80
  -4  -2   6  505.24   33.39
   4   2  -6  479.67   27.74
  -1   2  -6 1550.30   56.67
   1  -2   6 1592.99   56.33
  -1   2  -6 1694.03   71.47
   1  -2   6 1611.05   63.73
  -1   2  -6 1472.42   63.16
   1  -2   6 1549.53   66.64
   0   4   8  279.08   18.17
   0  -4  -8  268.60   16.88
   0  -4  -8  266.75   16.69
   3  -3  -6  280.78   21.51
   3  -3  -6  258.82   16.32
   3  -3  -6  272.67   20.47
   3  -3  -6  276.60   25.10
   3  -3  -6  272.96   16.94
   3  -3  -6  292.49   18.56
   3   5   7 1277.27   48.36
  -3  -5  -7 1152.21   44.24
  -3  -5  -7 1134.81   43.59
   3   5   7 1204.63   52.69
   3   5   7 1200.78   45.80
  -3  -5  -7 1104.12   48.16
  -2   4  -1 3265.51  103.65
   2  -4   1 3410.01  109.34
   2  -4   1 3342.54  104.58
  -2   4  -1 3400.11  108.21
  -2   4  -1 3420.91  123.15
   2  -4   1 3325.94  119.00
   6   3   3  593.31   27.98
  -6  -3  -3  484.56   25.04
   6   3   3  627.32   30.59
  -6  -3  -3  576.76   34.75
  -6  -1   2  132.30   19.32
   6   1  -2  139.44   14.26
   6   1  -2  141.35   16.40
  -6  -1   2  132.19   12.99
   6   1  -2  143.60   17.17
   4   1   6 4432.23  148.66
   4   1   6 4399.41  134.07
   4   1   6 4109.38  133.38
  -4  -1  -6 3950.93  132.37
  -4  -1  -6 4119.11  126.04
  -4  -1  -6 4425.79  137.20
   5   0   3   78.45   12.72
  -5   0  -3   77.06   13.02
   5   0   3   76.49   18.05
   5   0   3   76.42   16.50
   5   0  -5 2107.44   81.15
   5   0  -5 2148.58   71.80
   5   0  -5 2138.43   71.49
  -5   0   5 2248.38   84.14
   5   0  -5 2217.22   78.18
   2   6   0  481.99   32.67
  -2  -6   0  411.71   21.23
  -2  -6   0  416.91   26.98
   2   6   0  454.63   22.78
  -2  -6   0  413.46   22.30
  -2  -6   0  405.17   18.94
   5   2  -5 1952.66   73.61
  -5  -2   5 2007.25   77.61
   5   2  -5 2032.66   73.02
  -5  -2   5 1995.68   78.13
  -6  -4   1   65.03   18.75
  -6  -4   1   63.75   11.78
  -6  -4   1   66.90   14.71
   6   4  -1   77.94   15.22
   6   4  -1   67.14   10.45
   6   4  -1   67.92   13.07
  -6  -1  -1    9.32   10.85
  -6  -1  -1   21.16   15.14
   6   1   1   19.20   15.85
   6   1   1   11.96   10.54
   5  -1  -4    6.32    8.72
   5  -1  -4    5.20    9.95
  -5   1   4   -0.89   11.07
   5  -1  -4    1.71    9.69
   5  -1  -4    0.01   11.97
   5  -1  -4   -1.57   11.83
   6   4   3  662.08   30.40
  -6  -4  -3  600.95   30.49
   6   4   3  697.32   30.90
   6   4   3  687.63   36.85
  -6  -4  -3  702.13   33.17
  -6  -4  -3  651.67   35.87
  -1  -6  -5  279.81   16.96
   1   6   5  263.00   18.35
  -1  -6  -5  250.01   16.76
   1   6   5  289.67   19.15
  -1  -6  -5  269.37   20.71
   1   6   5  243.87   25.74
  -2  -3   6  104.17   20.84
   2   3  -6  110.12   17.55
   2   3  -6  107.42   13.02
  -2  -3   6  115.39   12.50
   2   3  -6   98.48   16.38
  -2  -3   6  138.82   17.05
  -1  -6  -1 3409.84  111.06
  -1  -6  -1 4098.85  134.76
  -1  -6  -1 3904.50  119.48
   1   6   1 4055.58  141.83
  -1  -6  -1 3898.98  121.95
  -5   1  -1  257.13   16.73
   5  -1   1  280.94   18.66
   5  -1   1  239.58   20.12
   5  -1   1  272.77   19.31
   5  -1   1  245.39   26.44
  -4  -3  -7 3181.93  100.46
  -4  -3  -7 3090.66  104.88
   4   3   7 3154.57  112.21
   4   3   7 3293.38  112.86
   4   3   7 3360.44  106.03
  -4  -3  -7 3053.66   98.10
   2   2  -7  146.78   14.33
   2   2  -7  158.51   18.60
  -2  -2   7  156.70   19.75
   2   2  -7  156.27   20.08
  -2  -2   7  124.63   18.95
  -2  -2   7  164.34   14.10
  -3  -5   3   77.74   18.18
   3   5  -3   79.68   16.49
   3   5  -3   78.08   15.16
  -3  -5   3   76.57   12.42
  -3  -5   3   71.43   13.88
  -3  -5   3   74.34   10.98
   2   1   8   18.68   13.13
  -2  -1  -8   24.24   13.26
   2   1   8   16.38   15.45
   2   1   8   22.71   14.58
  -2  -1  -8   16.32   11.45
  -2  -1  -8   22.30   13.10
   5   5   5 3163.32  107.49
  -5  -5  -5 2667.50  100.20
  -5  -5  -5 2875.99   93.27
   5   5   5 2965.73   94.78
   5   5   5 3135.80   99.26
  -5  -5  -5 2882.92   93.01
  -1  -2   7  243.24   22.21
   1   2  -7  221.45   17.24
   1   2  -7  250.05   22.58
  -1  -2   7  231.43   23.51
  -1  -2   7  225.55   16.18
  -4  -4  -7 2732.82   88.48
   4   4   7 3043.67   96.44
  -4  -4  -7 2786.28   95.87
   4   4   7 2889.80  101.08
   4   4   7 3095.00   98.41
  -4  -4  -7 2755.55   88.66
  -3   2  -4 2566.54   85.22
  -3   2  -4 2627.59   99.60
   3  -2   4 2620.59   99.22
   3  -2   4 2709.10   87.03
   3  -2   4 2775.87   95.88
  -3   2  -4 2597.86   86.99
  -6  -2   3  138.93   19.08
   6   2  -3  144.33   12.03
  -6  -2   3  146.59   20.28
   6   2  -3  147.64   16.36
   6   2  -3  146.23   17.54
  -6  -2   3  130.40   11.92
   2   5  -3  277.36   23.85
  -2  -5   3  262.60   24.27
  -2  -5   3  250.30   15.95
  -2  -5   3  264.58   18.91
   2   5  -3  244.94   19.38
   0  -5  -7 1161.93   44.30
   0   5   7 1154.25   44.83
   0   5   7 1191.81   47.06
   0  -5  -7 1147.79   48.27
   0   5   7 1169.42   54.69
   0   5   7 1169.55   54.69
   0  -5  -7 1128.28   43.03
  -4  -6   0  193.33   15.39
   4   6   0  188.31   16.57
  -4  -6   0  202.66   20.53
  -4  -6   0  182.67   13.08
  -4  -6   0  195.75   17.01
  -1   5   0   83.36   20.56
  -1   5   0   73.02   13.85
   1  -5   0   86.49   21.12
   1  -5   0   67.73   11.67
  -1   5   0   63.94   11.83
   1  -5   0   73.35   11.78
   1   0   8  202.43   23.48
  -1   0  -8  219.34   22.27
  -1   0  -8  195.49   20.92
   1   0   8  234.80   22.57
  -1   0  -8  217.23   16.75
   1   0   8  213.25   16.35
   4  -2   2   60.05   12.32
  -4   2  -2   61.64   10.73
   4  -2   2   60.27   11.60
   4  -2   2   48.20   16.50
   3   3   8  520.52   33.60
  -3  -3  -8  462.96   22.01
  -3  -3  -8  466.27   26.22
   3   3   8  533.94   33.28
  -3  -3  -8  503.06   25.67
  -1   4  -3  293.24   28.32
   1  -4   3  288.40   26.51
   1  -4   3  296.03   19.40
   1  -4   3  298.90   17.46
  -1   4  -3  286.47   19.84
  -1   4  -3  272.39   17.97
   3  -3   2 2566.36   98.02
  -3   3  -2 2481.84   82.15
   3  -3   2 2647.13   89.12
   3  -3   2 2627.55   85.64
  -3   3  -2 2765.51   90.70
  -2  -6  -6  436.10   20.23
   2   6   6  437.55   22.15
  -2  -6  -6  408.12   23.68
   2   6   6  372.31   27.61
   2   6   6  424.21   20.96
  -4  -6  -5 6144.10  187.22
   4   6   5 6527.90   93.36
   4   6   5 6345.53  183.26
  -4  -6  -5 5710.93  166.18
  -4  -6  -5 6258.82  181.22
   4   6   5 6254.76  182.47
   4  -1   4 6281.62  196.61
  -4   1  -4 6212.98  199.90
  -4   1  -4 5630.42  170.65
  -4   1  -4 5629.37  169.66
   4  -1   4 5484.11  179.21
   4  -1   4 5931.67  176.48
   0  -4   4   39.29   12.80
   0  -4   4   27.95   17.02
   0   4  -4   33.86   11.52
   0  -4   4   33.63   10.21
   0   4  -4   41.55   12.74
   0   4  -4   35.04   16.65
  -1  -3   6    7.72    9.30
   1   3  -6   14.75   15.98
   1   3  -6   14.81   10.40
  -1  -3   6    4.81   14.45
  -1  -3   6    9.15   17.39
  -3  -3   6  611.56   28.61
   3   3  -6  602.61   28.10
   3   3  -6  612.27   34.11
   3   3  -6  672.29   35.87
  -3  -3   6  603.41   37.30
  -3  -3   6  653.01   36.24
   6   2   3   97.21   14.33
  -6  -2  -3  101.98   13.57
  -6  -2  -3   90.28   17.23
   6   1  -3   21.97   11.95
   6   1  -3   14.90   13.56
   6   1  -3   22.40    9.37
  -6  -1   3   22.57   12.26
  -6  -1   3   20.02    7.16
  -6  -1   3   25.42   14.89
   3   6   6  923.18   38.62
   3   6   6  885.53   36.66
  -3  -6  -6  868.87   40.88
   3   6   6  910.22   44.70
  -3  -6  -6  815.87   33.92
  -3  -6  -6  860.91   35.57
   1  -5  -6  751.40   33.45
   1  -5  -6  817.46   39.44
  -1   5   6  761.52   41.50
  -1   5   6  744.52   33.60
   1  -5  -6  763.74   32.85
   5   6   2    8.37   11.56
  -5  -6  -2   -2.51    9.77
  -5  -6  -2    8.28    9.67
   5   6   2   -5.16   12.11
  -5  -6  -2   -0.90   16.88
   5   6   2    1.79   10.19
   0   2   9 2926.09  103.73
   0  -2  -9 3492.24  122.00
   0  -2  -9 3165.55   97.39
   0   2   9 3460.92  107.76
   3   4   8  919.96   47.31
  -3  -4  -8  878.62   41.11
   3   4   8  953.57   45.74
  -3  -4  -8  947.52   38.30
  -3  -4  -8  979.17   39.45
   3   4   8  944.23   38.80
  -5  -5   2 3643.76  115.89
   5   5  -2 3621.32  116.01
  -5  -5   2 3556.77  117.72
  -5  -5   2 3369.17  103.62
   5   5  -2 3412.74  107.65
  -5  -5   2 3339.45  102.40
  -4   0   7   19.77   14.48
   4   0  -7   24.02   11.97
   4   0  -7   18.50    8.96
   4   0  -7   15.70   15.11
   4   0  -7   23.39    8.19
  -4   0   7   10.05   13.52
   3  -4  -3  300.68   26.05
   3  -4  -3  318.92   21.43
   3  -4  -3  303.54   18.86
   3  -4  -3  304.36   18.23
  -3   4   3  319.94   26.78
  -3   4   3  305.57   18.57
  -6  -5  -1 4197.59  134.50
   6   5   1 4258.79  126.72
  -6  -5  -1 4150.74  127.62
  -6  -5  -1 4200.98  130.32
   6   5   1 4220.23  127.59
  -6  -5  -2 1744.91   68.14
   6   5   2 1805.30   60.72
   6   5   2 1769.28   65.93
  -6  -5  -2 1730.57   61.77
  -6  -5  -2 1716.23   61.72
   6   5   2 1693.90   59.43
  -5  -6  -3   77.41   13.03
  -5  -6  -3   84.18   17.07
   5   6   3  103.55   17.98
   5   6   3   83.60   13.82
   5   6   3   92.19   13.32
  -5  -6  -3   83.34   13.89
   1  -3   5 2970.47   92.25
  -1   3  -5 3154.18  112.39
  -1   3  -5 2895.57   96.65
  -1   3  -5 2865.31   91.49
   1  -3   5 2987.65  100.07
  -4   3   2  140.06   13.25
   4  -3  -2  135.22   22.08
   4  -3  -2  142.35   15.92
  -4   3   2  145.39   13.80
   4  -3  -2  149.04   14.13
   4  -3  -2  153.12   15.64
  -5  -4  -6 1346.20   48.64
   5   4   6 1453.81   59.98
  -5  -4  -6 1456.93   58.42
   5   4   6 1517.45   53.82
   5   4   6 1495.66   53.51
   4  -2  -6  137.60   13.92
   4  -2  -6  135.89   14.00
   4  -2  -6  135.30   13.29
   4  -2  -6  130.59   15.81
   4  -2  -6  145.33   20.80
   4  -2  -6  114.25   16.86
   5   3   6  267.46   19.52
   5   3   6  274.20   25.87
   5   3   6  260.37   23.99
  -5  -3  -6  240.81   19.70
  -5  -3  -6  233.57   15.76
  -3   4   2 3304.90  101.57
   3  -4  -2 4024.66  121.66
  -3   4   2 3891.27  117.96
   3  -4  -2 3702.44  127.69
  -3   4   2 3774.89  129.16
   3  -4  -2 3760.36  114.03
   6   1   2 5161.01  169.09
  -6  -1  -2 4602.37  137.68
   6   1   2 4956.80  155.70
   6   1   2 4830.72  143.86
  -6  -3   3 4947.62  156.18
   6   3  -3 4685.98  145.19
  -6  -3   3 4914.11  155.86
   6   3  -3 4817.22  147.66
   4   2   7  151.41   17.78
  -4  -2  -7  179.52   17.32
  -4  -2  -7  158.80   19.02
  -4  -2  -7  163.44   13.16
   4   2   7  185.53   21.63
   4   2   7  188.03   16.77
   4  -3  -3    7.33    9.62
   4  -3  -3   10.75    7.76
  -4   3   3    9.51    8.45
   4  -3  -3   12.46    9.73
   4  -3  -3    8.70   10.94
   4  -3  -3   18.43   16.84
   4   5  -3  749.47   35.37
  -4  -5   3  700.94   31.72
   4   5  -3  800.58   39.91
  -4  -5   3  680.81   29.75
  -4  -5   3  711.31   39.16
  -2  -4   5 1777.96   59.94
   2   4  -5 1799.10   71.01
  -2  -4   5 1847.42   68.72
   2   4  -5 1786.83   61.87
   1   1  -8  100.05   13.62
  -1  -1   8  110.71   12.95
  -1  -1   8  106.31   17.98
   1   1  -8  110.71   19.02
  -1  -1   8  101.92   19.62
  -3  -2   7   17.80   14.81
   3   2  -7   19.55   14.83
  -3  -2   7   29.12    9.44
   3   2  -7   24.06   12.13
  -3  -2   7   22.61   13.65
   3   2  -7   24.54    9.02
   0   5  -2  142.68   15.36
   0  -5   2  140.59   16.75
   0   5  -2  160.92   15.76
   0  -5   2  137.93   13.21
   0  -5   2  135.10   22.43
   0  -6  -3 2189.62   80.21
   0   6   3 2138.50   87.71
   0  -6  -3 2129.25   72.92
   0  -6  -3 2189.73   72.30
   0   6   3 2135.15   71.60
   0  -6  -3 2107.14   69.55
  -3  -6   1   -4.63    7.50
  -3  -6   1   -1.27   11.45
  -3  -6   1   -1.69   15.16
   3   6  -1    4.68   10.63
  -3  -6   1    0.94    9.54
  -6  -4   2  154.88   17.42
   6   4  -2  159.42   17.76
   6   4  -2  139.92   12.94
  -6  -4   2  135.21   13.78
   6   4  -2  144.07   16.28
  -5  -6  -1  628.17   31.83
  -5  -6  -1  575.01   34.15
   5   6   1  602.21   28.83
  -5  -6  -1  561.39   26.91
   5   6   1  605.40   29.90
   5   6   1  633.02   33.62
  -5  -6  -1  575.01   34.15
  -3  -2  -8  746.51   39.67
   3   2   8  775.66   40.23
  -3  -2  -8  746.48   32.38
  -3  -2  -8  808.52   35.67
   3   2   8  825.70   44.57
   3   4  -5  437.68   26.53
  -3  -4   5  404.49   18.86
  -3  -4   5  364.18   27.86
  -3  -4   5  438.85   25.40
   3   4  -5  395.55   24.64
   3   4  -5  384.28   19.30
  -2   3  -4   48.21   11.46
  -2   3  -4   54.24   14.13
   2  -3   4   47.09   13.71
  -2   3  -4   42.41   17.70
   2  -3   4   49.75   21.08
  -1  -2  -9 4163.47  125.27
   1   2   9 4502.74  147.52
  -1  -2  -9 4045.68  131.75
   1   2   9 4539.79  135.85
  -1  -2  -9 4317.21  128.78
   1   2   9 3941.88  128.19
   2  -3  -8 1478.58   60.44
   2  -3  -8 1509.89   52.19
  -2   3   8 1508.60   55.48
   2  -3  -8 1502.47   53.37
  -1  -6  -6 1138.64   42.96
   1   6   6 1249.51   47.03
   1   6   6 1195.58   58.78
   1   6   6 1203.78   46.86
  -1  -6  -6 1221.46   50.32
  -1  -6  -6 1225.43   45.50
  -6  -3  -4 3739.12  121.65
   6   3   4 4010.39  122.42
   6   3   4 3845.71  125.36
  -6  -3  -4 3429.81  109.27
  -6  -3  -4 3382.67  110.52
   0  -6  -4  832.06   40.12
   0  -6  -4  805.52   34.50
   0  -6  -4  765.88   33.05
   0   6   4  862.05   47.87
   0  -6  -4  817.74   35.61
   0  -3  -9  563.71   27.67
   0   3   9  587.44   30.17
   6   4   4  735.16   31.91
  -6  -4  -4  677.15   31.20
  -6  -4  -4  660.40   32.58
  -6  -4  -4  675.77   37.03
   6   4   4  730.65   37.69
   6   4   4  748.86   32.52
   3  -4  -4 2071.32   71.51
   3  -4  -4 1950.60   65.01
  -3   4   4 1869.77   64.02
   3  -4  -4 2064.68   82.31
   3  -4  -4 2012.04   72.52
   3  -4  -4 2152.03   72.34
  -1  -6   0  269.25   16.98
  -1  -6   0  245.84   17.78
   1   6   0  286.40   27.47
  -1  -6   0  263.07   25.60
  -1  -6   0  231.71   18.65
   3  -1  -8  763.12   32.18
   3  -1  -8  775.20   34.33
  -3   1   8  745.11   34.13
   3  -1  -8  711.02   39.22
   3  -1  -8  839.09   39.23
  -3   1   8  778.66   41.56
   2   1  -8    0.55   11.00
  -2  -1   8    7.86   15.95
   2   1  -8    4.85   14.59
   2   1  -8    3.64    8.72
  -2  -1   8    7.30    9.12
  -2  -1   8    2.58   11.90
   0   2  -7    0.55   10.93
   0   2  -7   -4.21   14.67
   0   2  -7    6.54   13.01
   0  -2   7   10.70   10.00
   0  -2   7    9.31   14.68
   0  -2   7    1.12   13.17
   1  -4  -8   68.99   11.66
  -1   4   8   73.54   12.13
   1  -4  -8   75.28   17.61
   1  -4  -8   65.53   11.02
   6   0  -1  167.56   15.44
  -6   0   1  157.49   14.92
   6   0  -1  169.57   13.77
   6   0  -1  176.41   20.80
   6   0  -1  175.28   17.65
  -4  -1   7  369.80   22.47
   4   1  -7  381.15   19.12
   4   1  -7  398.60   27.24
  -4  -1   7  435.14   28.39
  -4  -1   7  431.39   29.36
   4   1  -7  429.43   24.42
   3   0  -8   88.96   12.04
  -3   0   8   93.75   12.83
   3   0  -8  103.66   14.68
   3   0  -8   91.45   18.79
  -3   0   8   94.40   17.48
   4  -3  -1   94.02   13.69
   4  -3  -1  114.62   20.76
   4  -3  -1   96.24   12.39
  -4   3   1  107.78   12.75
   4  -3  -1  107.10   13.75
  -4   3   1  104.26   13.49
   1  -2  -9 2174.69   84.70
  -1   2   9 2050.37   78.13
   1  -2  -9 2087.33   68.85
   1  -2  -9 2006.32   67.05
  -1   2   9 2186.77   73.73
   1  -2  -9 2014.27   76.16
   6   5   0 1635.06   61.65
  -6  -5   0 1649.92   61.35
  -6  -5   0 1571.91   58.73
  -6  -5   0 1564.76   62.78
   6   5   0 1545.03   54.03
   6   5   0 1557.47   56.27
  -6  -5  -3   47.09   11.56
  -6  -5  -3   35.94   11.56
  -6  -5  -3   46.65   17.64
   6   5   3   35.19   15.60
   6   5   3   44.66    9.85
   6   5   3   48.31   10.95
  -1  -5   3  759.88   42.35
   1   5  -3  945.90   49.47
  -1  -5   3  795.51   32.84
   1   5  -3  782.21   36.35
  -1  -5   3  859.27   39.21
   1   5  -3  854.62   36.86
   2   5   8  402.86   20.34
  -2  -5  -8  396.95   24.12
  -2  -5  -8  396.92   19.54
  -2  -5  -8  390.44   19.47
   0  -6  -2  265.99   19.80
   0  -6  -2  251.79   16.74
   0  -6  -2  244.85   16.55
   0   6   2  271.21   18.57
   0   6   2  271.51   27.69
   0  -6  -2  278.23   23.34
  -5   1   5   50.46   13.86
   5  -1  -5   78.98   13.33
   5  -1  -5   41.74   14.34
   5  -1  -5   49.56    9.80
   5  -1  -5   46.95   10.28
   5  -1  -5   48.07   11.56
   0   1   9  305.48   19.05
   0   1   9  305.32   25.44
   0   1   9  323.25   25.79
   0  -1  -9  284.19   18.94
   0  -1  -9  242.31   22.87
   0  -1  -9  311.35   25.41
   4  -1  -7 3405.13  110.01
   4  -1  -7 3098.13  106.40
   4  -1  -7 3378.61  106.31
  -4   1   7 3301.86  112.86
   4  -1  -7 3452.52  107.06
   4  -1  -7 3275.98   99.11
   5  -1   2  542.79   30.30
   5  -1   2  625.26   38.64
  -5   1  -2  614.41   29.52
   5  -1   2  645.88   35.78
   5  -1   2  640.29   29.95
  -5   1  -2  586.08   27.52
  -6   0   2 6530.74   97.66
  -6   0   2 5761.06  167.78
   6   0  -2 6232.28  190.38
   6   0  -2 6652.81   78.83
   6   0  -2 6444.46  193.14
   6   0  -2 6411.05  185.58
   1   5   8 1767.37   60.79
   1   5   8 1770.02   61.87
  -1  -5  -8 1685.92   57.06
   4  -3  -4 3182.44   98.49
   4  -3  -4 3268.18  103.61
   4  -3  -4 3129.62   97.99
  -4   3   4 3134.98   97.87
   4  -3  -4 3011.57  107.57
   4  -3  -4 3108.85  104.16
   5   6   4 3390.81  110.77
  -5  -6  -4 3040.20   95.86
   5   6   4 3204.52  100.16
  -5  -6  -4 3023.86   93.72
   5   6   4 3189.45   98.83
  -5  -6  -4 3077.39  103.64
  -2  -6   1   37.66   12.72
  -2  -6   1   22.28    9.24
   2   6  -1   32.92   12.22
  -2  -6   1   23.43   12.12
  -2  -6   1   30.36   16.31
   4   5   7 2939.18   91.86
  -4  -5  -7 2932.15   98.52
  -4  -5  -7 2961.63   93.95
  -4  -5  -7 2994.45   93.67
   4   5   7 3286.85  101.98
   4   5   7 3172.62  106.53
   2  -4  -7   41.27   10.32
  -2   4   7   42.77   10.82
   2  -4  -7   35.19   10.90
   2  -4  -7   32.06   11.36
   2  -4  -7   43.30   13.37
  -2   4   7   56.81   11.75
  -3   4   1   14.95   11.17
   3  -4  -1   14.28   11.22
   3  -4  -1   12.48   15.25
  -3   4   1   12.57   15.30
   3  -4  -1   13.19    9.55
  -1   1   9  335.28   19.33
   1  -1  -9  346.90   26.21
  -1   1   9  277.90   23.72
   1  -1  -9  308.32   25.29
  -1   1   9  350.05   25.65
   1  -1  -9  317.16   17.69
   5   3  -5  275.56   20.42
  -5  -3   5  266.09   24.34
   5   3  -5  260.81   21.80
  -5  -3   5  270.29   23.61
  -6   0   0   13.77    9.69
   6   0   0   15.09   18.50
   6   0   0    9.02   13.98
   6   0   0    9.02   10.77
  -2   4  -2 4516.10  135.71
  -2   4  -2 4212.51  127.71
   2  -4   2 4199.20  142.02
   2  -4   2 4105.27  122.97
   2  -4   2 4459.68  136.58
   4   6  -1  440.47   22.62
  -4  -6   1  428.22   19.10
  -4  -6   1  416.35   20.55
  -4  -6   1  428.19   27.44
  -5  -4   4 3530.08  110.79
   5   4  -4 4090.14  128.51
  -5  -4   4 4104.84  131.55
  -5  -4   4 3981.69  120.91
  -5  -4   4 3894.86  128.03
   5   4  -4 3822.11  122.44
   0  -1   8   16.68   14.69
   0   1  -8   40.00   15.00
   0  -1   8   12.01    9.54
   0  -1   8    8.21   13.64
   0   1  -8    9.12   11.04
   0   1  -8   13.76   16.15
  -5  -1   6 1286.26   56.12
   5   1  -6 1169.99   52.73
   5   1  -6 1243.29   50.44
  -5  -1   6 1216.10   54.73
   3  -3  -7   75.09   13.32
   3  -3  -7   86.34   16.21
   3  -3  -7   76.02   17.01
   3  -3  -7   81.80   11.91
   3  -3  -7   72.96   11.01
   3  -3  -7   70.95   11.04
   0  -6  -5   -1.08   11.17
   0  -6  -5   -3.09   11.38
   0   6   5   -0.56   12.17
   0  -6  -5   -5.90    8.86
   0  -6  -5    8.79   11.30
   1   4  -5 2816.36   93.92
  -1  -4   5 2894.67   96.44
  -1  -4   5 2868.05   89.81
   1   4  -5 3127.79  109.56
   1   4  -5 2794.64   89.31
   6   2  -4  288.34   21.68
   6   2  -4  299.24   21.14
  -6  -2   4  295.26   26.04
  -6  -2   4  292.35   24.76
   2  -5  -3 1072.83   41.80
   2  -5  -3 1007.73   50.26
  -2   5   3 1101.67   43.54
   2  -5  -3 1076.53   43.82
  -2   5   3 1060.31   52.11
   2  -5  -3 1173.30   45.33
   5   0   4   29.95   11.43
  -5   0  -4   33.88    9.53
  -5   0  -4   34.26    8.94
  -1   5  -1 4365.66  131.34
  -1   5  -1 4520.41  136.33
   1  -5   1 4452.64  135.54
   1  -5   1 4273.86  141.71
  -1   5  -1 4566.79  154.00
   4   6   6    3.20   10.45
  -4  -6  -6   10.48   13.24
   4   6   6    7.31   13.68
  -4  -6  -6    1.69    8.98
   4   6   6    6.61   12.67
  -5  -6   0    6.11   14.76
  -5  -6   0    2.90   10.01
   5   6   0    7.43   11.61
  -5  -6   0    7.78   11.16
   5   6   0    7.77    7.77
  -3   0  -7  480.90   23.69
   3   0   7  471.44   31.33
  -3   0  -7  425.02   26.81
   3   0   7  517.55   31.32
  -3   0  -7  514.68   36.10
   0  -3   6 1676.18   57.52
   0   3  -6 1780.66   72.43
   0  -3   6 1692.47   70.40
   0   3  -6 1654.22   59.60
   0  -3   6 1735.89   65.51
   0   3  -6 1570.19   60.96
   5   0  -6   46.21   13.11
   5   0  -6   39.62   16.25
   5   0  -6   50.51    9.43
  -5   0   6   53.19   16.03
   5   0  -6   51.35    9.22
  -5   0   6   55.61   16.74
  -5  -5  -6    5.43   11.12
  -5  -5  -6    9.85   10.15
   5   5   6    2.00    8.41
  -5  -5  -6   -1.80   13.03
   5   5   6    5.25   10.77
   5   5   6   -0.53   12.29
   6   1  -4 1632.81   63.62
  -6  -1   4 1713.47   68.17
   6   1  -4 1679.91   59.37
  -6  -1   4 1713.32   67.22
   6   1  -4 1809.63   63.64
   6   1  -4 1665.07   62.43
   5  -2  -2  860.56   39.88
   5  -2  -2  891.45   41.90
   5  -2  -2  982.63   39.31
  -5   2   2  879.35   35.81
   5  -2  -2  916.80   47.97
   5  -2  -2  917.19   37.08
  -3   1  -6  228.51   26.40
  -3   1  -6  231.92   18.03
   3  -1   6  251.48   25.84
  -3   1  -6  219.23   18.73
   3  -1   6  246.57   22.25
   4   3  -6  174.29   19.46
   4   3  -6  178.88   19.30
  -4  -3   6  175.79   15.88
  -4  -3   6  154.22   13.92
  -4  -3   6  162.20   20.63
   3  -4  -5 4523.57  136.98
   3  -4  -5 4663.66  139.27
  -3   4   5 4494.74  134.33
   3  -4  -5 4328.04  130.93
   3  -4  -5 4798.89  149.40
   3  -4  -5 4471.62  148.22
  -5  -2  -6 3267.78  100.80
   5   2   6 3162.48  110.93
   5   2   6 3681.86  113.27
   5   2   6 3341.67  111.97
  -5  -2  -6 3115.01  108.16
   2   3   9  882.72   37.34
   2   3   9  841.97   44.19
  -2  -3  -9  805.76   39.77
  -2  -3  -9  825.69   34.35
  -2  -3  -9  797.30   33.89
   2   3   9  824.83   42.54
   2  -1   7  459.17   28.66
   2  -1   7  415.55   20.46
  -2   1  -7  352.24   24.86
   2  -1   7  409.30   30.80
  -2   1  -7  425.59   29.38
  -2   1  -7  400.58   21.50
   2  -5  -4  268.88   17.16
  -2   5   4  260.52   24.42
   2  -5  -4  279.12   19.21
   2  -5  -4  306.75   19.11
  -2   5   4  280.34   18.16
   2  -5  -4  285.66   25.48
   6   0  -3  553.06   30.99
   6   0  -3  547.53   26.82
   6   0  -3  532.57   32.19
  -6   0   3  518.00   25.04
  -6   0   3  576.65   34.27
   6   0  -3  562.56   27.39
  -2   5   2 4212.10  149.73
  -2   5   2 4208.61  127.17
   2  -5  -2 4268.56  131.01
   2  -5  -2 4108.58  123.84
   2  -5  -2 4235.26  127.39
   2  -5  -2 3848.22  130.29
   2   6   7 2564.14   87.14
  -2  -6  -7 2516.15   84.50
  -2  -6  -7 2466.78   89.72
   2   6   7 2614.33   88.79
   2   6   7 2187.10   87.65
   1   4   9   74.50   13.94
  -1  -4  -9   59.02   13.38
  -1  -4  -9   59.99   11.50
  -3   2   8 1904.60   69.05
   3  -2  -8 2061.25   77.55
   3  -2  -8 1934.89   68.49
   3  -2  -8 1926.91   66.15
   3  -2  -8 1986.22   78.30
  -3   2   8 1946.31   77.63
   0   6   1  641.58   42.19
   0   6   1  659.68   32.29
   0  -6  -1  664.86   37.88
   0  -6  -1  643.06   31.57
  -4   3   0 1371.22   52.08
   4  -3   0 1542.62   58.35
  -4   3   0 1630.37   72.08
  -4   3   0 1491.75   55.38
   4  -3   0 1675.09   61.00
   4  -3   0 1503.43   67.56
   5  -2  -3  711.24   38.45
   5  -2  -3  650.71   40.29
   5  -2  -3  631.70   34.19
   5  -2  -3  724.38   32.54
  -5   2   3  620.01   28.89
   5  -2  -3  704.17   32.98
   1  -3  -9  560.35   27.82
  -1   3   9  602.47   30.36
   1  -3  -9  582.51   27.39
   1  -3  -9  612.75   36.07
   6   2   4   11.58   10.49
   6   2   4    7.24   14.61
  -6  -2  -4   12.45   10.66
  -4  -4   5  383.76   19.84
   4   4  -5  441.47   25.84
  -4  -4   5  388.21   28.03
   4   4  -5  402.23   25.76
  -4  -4   5  419.39   19.40
  -5   2   1  128.88   13.17
   5  -2  -1  119.06   19.94
   5  -2  -1  119.60   12.35
  -5   2   1  139.53   15.50
   5  -2  -1  133.04   14.09
   5  -2  -1  111.15   15.59
   3   5   8   23.65   12.78
  -3  -5  -8   21.82   11.94
   3   5   8   24.54   11.76
  -3  -5  -8   17.19    9.96
   3   5   8   19.50   10.79
  -3  -5  -8   16.53   12.06
   1   1   9  694.94   38.22
  -1  -1  -9  637.76   39.78
   1   1   9  649.20   39.09
  -1  -1  -9  626.84   31.20
  -1  -1  -9  620.77   36.12
   1   1   9  717.00   33.44
   6   5  -1  720.57   36.65
  -6  -5   1  714.83   39.52
   6   5  -1  690.68   31.68
  -6  -5   1  688.41   34.64
  -6  -5   1  721.20   36.41
   6   5  -1  674.81   33.13
  -6  -5  -4  437.53   27.18
  -6  -5  -4  443.49   21.30
   6   5   4  492.01   21.19
  -6  -5  -4  436.60   23.80
   6   5   4  444.30   20.93
   6   5   4  494.63   27.17
  -6   0  -1  693.57   32.88
   6   0   1  697.08   37.47
   6   0   1  706.14   33.36
   6   0   1  711.45   43.66
  -1   5   7 1736.39   64.21
   1  -5  -7 1668.92   65.07
   1  -5  -7 1817.66   72.13
   1  -5  -7 1593.45   57.61
   1  -5  -7 1691.68   61.25
  -4   2  -3  930.21   39.73
  -4   2  -3  960.21   52.29
   4  -2   3  960.77   40.06
   4  -2   3  960.78   44.50
   4  -2   3  904.68   48.77
  -4   2  -3  865.24   38.54
  -6  -1  -3 3015.01  101.42
   6   1   3 3228.75  106.55
   6   1   3 3365.72  124.86
   6   1   3 3154.28  110.95
   4  -3  -5 4588.98  144.57
   4  -3  -5 4578.87  151.88
   4  -3  -5 4070.49  138.33
   4  -3  -5 4623.53  146.86
   4  -3  -5 4499.96  144.51
   4  -3  -5 4339.94  152.79
  -3  -1   8  147.30   14.19
   3   1  -8  155.29   20.28
   3   1  -8  165.28   17.47
  -3  -1   8  136.01   19.02
   3   1  -8  152.92   13.84
  -3  -6  -7  952.63   39.23
   3   6   7 1030.73   42.09
  -3  -6  -7  977.97   40.38
   3   6   7 1024.73   42.30
   3   6   7 1006.33   49.23
  -3  -6  -7  976.40   45.88
   0   5   8  445.70   22.82
   0  -5  -8  411.52   19.73
   0   5   8  435.29   21.13
   0  -5  -8  414.29   19.55
  -2  -2  -9 5403.25  168.27
  -2  -2  -9 5164.57  173.99
   2   2   9 5238.47  172.61
   2   2   9 5716.07  190.66
  -2  -2  -9 5585.57  174.52
   2   2   9 5985.17  185.54
   4   0   6  611.22   29.40
  -4   0  -6  578.13   30.12
   4   0   6  513.11   29.84
   4   0   6  629.62   35.09
   4   0   6  628.66   39.93
  -4   0  -6  577.08   33.15
   5   6   5 3209.51  111.91
  -5  -6  -5 3083.66  101.77
  -5  -6  -5 3027.56  107.57
  -5  -6  -5 2937.11   97.19
   5   6   5 3090.82  101.99
   5   6   5 3246.41  106.20
  -2   0  -8 1609.49   60.63
   2   0   8 1610.16   58.94
   2   0   8 1759.18   71.66
  -2   0  -8 1459.08   63.08
  -2   0  -8 1527.16   67.83
   2   0   8 1612.46   71.10
   5   2  -6   43.34   14.93
  -5  -2   6   47.54   15.95
  -5  -2   6   56.05   16.63
   5   2  -6   46.82   12.96
  -3   4   0 1875.30   80.08
  -3   4   0 1978.04   69.99
   3  -4   0 1945.87   68.61
   3  -4   0 1824.27   78.04
   3  -4   0 1872.16   67.55
   2  -2   6 3286.20  121.08
  -2   2  -6 3056.47  102.33
   2  -2   6 3185.32  105.11
  -2   2  -6 3400.50  124.09
  -2   2  -6 2958.25  104.13
   2  -2   6 3407.17  119.33
  -2   1   9    3.90   11.58
   2  -1  -9   -2.79    9.10
   2  -1  -9   22.30   12.78
   2  -1  -9   -1.18   15.76
  -2   1   9    2.20    8.68
  -2   1   9    2.64   13.58
   3  -3   3  552.43   27.73
  -3   3  -3  499.02   23.36
  -3   3  -3  526.49   28.08
   3  -3   3  551.61   38.17
  -3   3  -3  527.53   38.56
   3  -3   3  554.83   30.69
   2   4   9    7.65   12.79
  -2  -4  -9    5.66   12.02
   2   4   9    8.91   11.45
  -2  -4  -9    1.01   12.35
  -2  -4  -9   13.88   10.33
   0  -4  -9  142.25   18.68
   0   4   9  156.95   16.17
   0  -4  -9  147.18   13.75
   0  -4  -9  135.21   13.88
  -6  -4   3 3728.37  127.68
  -6  -4   3 3554.10  115.36
   6   4  -3 3774.09  126.06
   6   4  -3 3762.39  126.04
  -6  -4   3 3484.19  112.89
  -2   5   5  969.35   49.59
   2  -5  -5  991.35   50.52
  -2   5   5 1029.32   42.66
   2  -5  -5  955.48   39.54
   2  -5  -5 1025.15   43.14
   2  -5  -5 1053.03   43.05
  -3  -5   4    1.67    8.30
   3   5  -4    1.61   13.23
  -3  -5   4    2.82   12.04
   3   5  -4    2.50   14.41
  -3  -5   4    1.77   10.48
  -5  -5   3  268.26   21.89
   5   5  -3  255.25   22.42
  -5  -5   3  250.10   16.37
   5   5  -3  256.23   20.87
  -5  -5   3  235.12   14.70
  -6  -3   4  236.51   23.29
  -6  -3   4  251.14   22.30
   6   3  -4  240.71   20.34
   6   3  -4  241.89   20.77
  -1   0   9  241.57   16.51
  -1   0   9  272.76   23.82
   1   0  -9  231.61   16.34
  -1   0   9  232.33   23.86
   1   0  -9  251.66   22.06
   1   6   7 3406.44  125.94
  -1  -6  -7 3252.84  105.44
  -1  -6  -7 3459.60  118.31
  -1  -6  -7 3443.73  111.06
   1   6   7 3584.29  116.43
   4   2  -7  477.64   21.92
  -4  -2   7  533.27   33.69
  -4  -2   7  510.11   29.05
   4   2  -7  489.25   28.65
  -4  -2   7  522.15   34.27
   4   2  -7  559.58   32.40
  -2   5   1 1088.16   56.61
  -2   5   1  996.97   41.00
   2  -5  -1 1037.47   42.95
  -2   5   1 1129.39   45.42
   2  -5  -1 1069.83   43.04
   2  -5  -1  985.16   51.25
   6   4   5  119.21   14.36
  -6  -4  -5  110.24   12.45
   6   4   5  125.15   17.89
  -6  -4  -5  124.44   19.59
  -6  -4  -5  110.90   15.09
   6   4   5  123.76   13.99
  -1  -6   1   90.26   15.27
  -1  -6   1   81.67   18.19
  -1  -6   1   87.48   11.86
  -1  -6   1   96.40   16.79
   1   6  -1   87.51   15.37
   1   6  -1  119.17   22.28
   0  -6  -6  453.07   21.13
   0  -6  -6  469.37   24.96
   0  -6  -6  457.79   21.12
   0   6   6  450.41   28.91
   3   1   8   15.54   11.55
  -3  -1  -8   30.94   13.06
  -3  -1  -8   19.81   10.51
   3   1   8   28.78   16.56
  -3  -1  -8   11.52   12.12
   3   1   8   17.75   11.90
   2  -2  -9   66.55   17.79
  -2   2   9   88.25   13.39
   2  -2  -9   84.04   12.61
  -2   2   9   70.11   14.91
   2  -2  -9   74.67   12.47
   2  -2  -9   87.43   16.85
   5  -2  -4  430.16   20.69
   5  -2  -4  383.20   24.57
   5  -2  -4  380.74   29.88
   5  -2  -4  430.39   22.13
   5  -2  -4  408.03   19.77
   5  -2  -4  437.22   26.47
   3   7   3   36.92   12.55
   3   7   3   42.12   16.07
  -3  -7  -3   46.38   14.12
   3   7   3   40.36   11.29
  -3  -7  -3   47.66   12.66
   4   1   7  135.12   17.28
  -4  -1  -7  174.63   18.08
  -4  -1  -7  155.56   13.30
   4   1   7  156.93   23.25
   4   1   7  170.61   16.79
  -4  -1  -7  159.17   19.00
  -2  -5   4   37.93   12.73
   2   5  -4   38.12   15.96
  -2  -5   4   28.37    8.90
   2   5  -4   29.28   11.51
  -2  -5   4   14.03   16.13
   5  -2   0 6387.15   87.44
   5  -2   0 6307.90   78.30
  -5   2   0 6161.54  191.46
   5  -2   0 5910.03  188.42
   5  -2   0 6217.54  104.69
  -5   2   0 6098.88  187.60
  -3  -6   2 2571.90   96.04
  -3  -6   2 2607.34   90.44
   3   6  -2 2696.50   98.41
  -3  -6   2 2464.30   85.77
  -3  -6   2 2462.47   82.91
   3   6  -2 2534.72   88.02
  -3  -7  -4   90.45   15.66
   3   7   4  115.53   15.63
  -3  -7  -4  119.45   14.20
   3   7   4  110.20   13.57
   3   7   4  123.84   18.68
  -6  -3  -5  120.91   16.24
  -6  -3  -5  135.26   17.47
   6   3   5  137.31   15.50
  -6  -3  -5  139.72   17.86
   6   3   5  144.77   19.47
   4  -2  -7 3062.33  105.61
   4  -2  -7 3063.84  101.15
   4  -2  -7 2921.28  106.86
   4  -2  -7 3136.18  103.84
   4  -2  -7 3277.42  121.79
   4  -2  -7 3081.66  100.31
  -4  -4  -8 5072.03  165.19
  -4  -4  -8 5292.94  165.10
  -4  -4  -8 5211.14  163.48
   4   4   8 5516.48  184.78
   4   4   8 5457.08  179.13
   4   4   8 5876.72  183.74
   3  -2   5    5.43   11.04
  -3   2  -5    0.29   11.77
  -3   2  -5    7.82   18.10
  -3   2  -5    2.92   11.03
   0   0   9   19.03   15.49
   0   0  -9   15.02   12.79
   0   0   9   19.02   10.57
   0   0   9   23.56   15.52
   0   0  -9   12.42   14.49
   0   0  -9    8.38   12.52
   6   0  -4  258.30   16.69
   6   0  -4  241.36   21.25
   6   0  -4  262.85   16.18
   6   0  -4  260.91   20.24
  -6   0   4  270.10   23.39
   6   0  -4  268.14   18.26
  -1   4  -4  258.04   27.47
   1  -4   4  222.95   16.81
  -1   4  -4  223.85   18.96
  -1   4  -4  231.71   18.84
   1  -4   4  230.77   20.03
   1  -4   4  227.81   25.67
  -7  -3   0 1495.52   63.47
   7   3   0 1603.26   58.59
  -7  -3   0 1424.74   54.16
   7   3   0 1498.29   56.26
  -7  -3   0 1391.91   61.70
   7   3   0 1500.57   60.75
  -4  -3  -8   94.31   12.86
  -4  -3  -8   88.38   15.13
   4   3   8  111.43   14.48
   4   3   8  107.95   16.54
  -4  -3  -8  103.08   17.90
   4   3   8   99.03   19.44
  -5  -6   1 2290.78   81.85
  -5  -6   1 2223.61   76.61
  -5  -6   1 2272.21   86.04
   5   6  -1 2203.64   78.37
  -5  -6   1 2117.20   72.11
   5   6  -1 2255.32   82.74
  -3  -7  -2 3723.89  120.19
  -3  -7  -2 3650.65  118.89
   3   7   2 3882.90  125.49
  -3  -7  -2 3740.56  119.85
   3   7   2 4318.87  147.91
  -3  -7  -2 3887.94  131.07
  -4   1  -5  121.97   13.99
   4  -1   5  128.14   18.12
  -4   1  -5  123.44   15.81
   4  -1   5  122.77   13.80
  -4   1  -5  129.11   22.54
   5  -1  -6 1379.68   52.20
   5  -1  -6 1415.67   53.27
  -5   1   6 1439.36   62.75
   5  -1  -6 1271.94   58.08
   5  -1  -6 1379.29   51.65
   5  -1  -6 1426.58   57.69
   7   3   1  123.54   14.14
  -7  -3  -1  121.70   14.70
  -7  -3  -1  132.11   19.87
   7   3   1  121.65   12.45
   7   3   1  138.37   17.36
  -1   2  -7  163.37   15.97
   1  -2   7  173.97   14.58
  -1   2  -7  162.67   18.05
  -1   2  -7  177.29   23.42
   1  -2   7  150.00   19.90
   1  -2   7  164.31   22.61
   5  -1   3  387.55   20.61
  -5   1  -3  352.41   18.33
   5  -1   3  362.93   24.84
   5  -1   3  316.56   21.63
   5  -1   3  341.65   28.25
   3  -4  -6 1557.55   58.73
   3  -4  -6 1633.51   60.07
   3  -4  -6 1547.90   57.24
   3  -4  -6 1625.54   65.69
   3  -4  -6 1569.67   69.37
  -3   4   6 1578.41   58.61
  -1   1  -8    2.44   15.73
  -1   1  -8   10.56   10.80
   1  -1   8    8.38   16.08
   1  -1   8    3.56   15.08
  -1   1  -8    3.80   13.93
   1  -1   8    3.83    9.56
  -4  -7  -3   59.93   13.19
  -4  -7  -3   58.17   16.39
   4   7   3   44.88   14.51
   4   7   3   49.64   11.62
  -4  -7  -3   33.14   13.19
   4   7   3   56.14   17.22
  -2  -7  -3    5.44   11.11
  -2  -7  -3    7.25   10.13
  -2  -7  -3    8.61   11.46
   2   7   3   10.90   11.68
  -2  -7  -3    9.65   12.62
   2   7   3   11.66   14.91
   5   4   7 4527.19  152.10
   5   4   7 4662.60  147.81
  -5  -4  -7 4264.69  137.68
  -5  -4  -7 4004.40  135.87
  -2   0   9  444.13   29.69
  -2   0   9  490.77   23.30
   2   0  -9  515.06   27.00
   2   0  -9  485.83   29.71
   2   0  -9  537.93   33.95
  -2   0   9  557.84   34.20
   0   5  -3  575.66   31.30
   0   5  -3  578.88   29.80
   0  -5   3  564.73   30.64
   0   5  -3  643.13   41.30
   0  -5   3  551.33   36.22
   0  -5   3  564.39   27.40
   0   6   0  351.54   30.93
   0  -6   0  323.70   17.87
   0  -6   0  318.08   25.67
   0  -6   0  365.15   21.22
   0   6   0  351.36   20.77
   2   7   4    2.40   16.72
   2   7   4   -5.00    9.87
  -2  -7  -4   -5.85   13.03
  -2  -7  -4   -1.79    9.85
   2   7   4   -1.63   11.21
  -4  -6   2 5457.18  171.79
  -4  -6   2 5924.57  193.17
   4   6  -2 5622.88  177.81
   4   6  -2 6275.02   87.51
  -4  -6   2 5726.54  176.89
   4   5  -4  558.46   32.76
  -4  -5   4  462.11   21.91
  -4  -5   4  468.80   19.69
   4   5  -4  536.07   30.89
  -2  -6   2 1058.35   41.78
  -2  -6   2 1078.89   46.46
  -2  -6   2 1038.22   50.49
  -2  -6   2 1076.89   45.90
  -7  -3   1 2440.31   84.06
   7   3  -1 2656.85   87.72
   7   3  -1 2578.88   92.01
  -7  -3   1 2494.60   94.98
   7   3  -1 2639.68   90.65
  -6  -6  -2  802.28   37.82
   6   6   2  849.70   41.29
   6   6   2  768.05   34.77
   6   6   2  775.55   34.06
  -6  -6  -2  775.27   41.07
  -6  -6  -2  728.98   34.09
   4  -3   1    4.07   10.83
  -4   3  -1    0.75   18.28
  -4   3  -1    5.63    8.81
   4  -3   1   -0.64   15.85
   4  -3   1    4.15   10.40
   4   7   2 5787.79  180.03
   4   7   2 6267.66   92.12
  -4  -7  -2 5624.66  182.11
  -4  -7  -2 5711.05  177.51
  -4  -7  -2 6058.90  188.38
   4   7   2 5608.38  174.97
   0   4  -5 2364.15   85.22
   0  -4   5 2430.68   87.56
   0   4  -5 2342.84   81.54
   0   4  -5 2549.87   98.39
   0  -4   5 2329.50   78.90
  -7  -4  -1 1618.39   64.32
  -7  -4  -1 1502.28   57.93
   7   4   1 1638.68   64.77
   7   4   1 1735.50   63.30
  -7  -4  -1 1676.64   68.33
   7   4   1 1736.01   61.14
   4   7   4  778.70   41.32
   4   7   4  731.13   33.61
   4   7   4  721.95   33.46
  -4  -7  -4  758.75   39.13
  -4  -7  -4  740.27   34.25
  -4  -7  -4  715.55   32.17
  -2  -3   7  314.50   17.84
   2   3  -7  296.99   18.38
  -2  -3   7  339.36   24.79
   2   3  -7  305.75   24.33
  -2  -3   7  279.93   26.55
  -6   0  -2 3626.92  118.29
   6   0   2 3707.71  126.70
   6   0   2 3776.26  136.17
   6   0   2 3949.64  127.63
   7   2   0 5874.93  188.21
   7   2   0 5778.92  179.66
   7   2   0 5923.47  183.33
  -7  -2   0 5519.96  172.09
   3   7   5   82.29   16.48
  -3  -7  -5   83.00   16.02
   3   7   5   84.32   13.00
   3   7   5   76.03   14.29
   6   5  -2   32.62   13.62
  -6  -5   2   26.99   17.00
  -6  -5   2   24.71    7.45
  -6  -5   2   29.03   12.38
  -6  -5   2   31.89   12.95
   6   5  -2   19.82   12.18
   6   5   5 1152.42   45.62
   6   5   5 1095.46   44.03
  -6  -5  -5 1050.85   42.66
   6   5   5 1162.73   51.66
  -6  -5  -5 1015.86   43.39
  -6  -5  -5 1022.34   47.59
   5   3   7  162.67   21.14
   5   3   7  153.63   21.64
   5   3   7  163.97   15.90
  -5  -3  -7  149.15   17.49
  -5  -3  -7  146.90   17.55
  -5  -3  -7  152.21   13.63
   7   4   0   49.07   11.33
   7   4   0   62.34   15.87
  -7  -4   0   52.07   13.72
  -7  -4   0   43.93   11.28
   7   4   0   53.14   10.39
  -7  -4   0   56.41   18.40
  -6  -6  -3   70.44   13.57
  -6  -6  -3   76.48   19.66
   6   6   3   69.07   12.28
   6   6   3   72.75   13.38
  -6  -6  -3   59.28   12.93
   6   6   3   82.56   16.10
  -6  -1   5 3981.10  136.71
  -6  -1   5 4061.51  140.43
   6   1  -5 3899.67  125.19
   6   1  -5 3926.41  129.96
   6   1  -5 3752.51  128.99
   6   1  -5 3903.99  123.06
   7   2  -1 2671.64   95.06
  -7  -2   1 2600.61   96.15
   7   2  -1 2812.52   96.08
  -7  -2   1 2582.02   87.11
   7   2  -1 2798.14   93.71
   2   7   2 4572.68  145.53
  -2  -7  -2 4551.97  145.01
  -2  -7  -2 4631.50  153.38
  -2  -7  -2 4644.10  145.96
   2   7   2 4700.58  163.14
  -2  -7  -2 4610.53  146.84
   6   6   1  469.09   27.19
   6   6   1  470.62   22.68
  -6  -6  -1  446.72   21.09
  -6  -6  -1  472.02   23.48
  -6  -6  -1  474.75   29.06
   6   6   1  479.06   21.59
   4   6   7  141.82   14.45
   4   6   7  146.21   15.84
   4   6   7  159.35   19.07
  -4  -6  -7  146.72   17.75
  -4  -6  -7  153.97   15.25
   2  -4  -8   14.44   10.91
  -2   4   8   15.37    9.91
   2  -4  -8   10.67   10.10
   2  -4  -8   12.62   11.39
   2  -4  -8    7.05   14.13
   2  -4  -8   16.51   10.68
  -2   5   6  314.73   19.04
   2  -5  -6  322.40   22.09
   2  -5  -6  329.61   19.86
   2  -5  -6  310.90   17.79
   2  -5  -6  336.16   26.28
   2  -5  -6  321.15   19.51
   7   3   2  126.93   19.20
   7   3   2  140.22   13.11
   7   3   2  142.34   15.65
  -7  -3  -2  144.35   19.95
  -7  -3  -2  116.90   17.26
  -7  -3  -2  127.24   16.17
  -6  -2   5  118.96   19.74
  -6  -2   5  129.05   18.76
   6   2  -5  131.26   17.84
   6   2  -5  139.14   20.00
   4  -3  -6    0.95    9.58
   4  -3  -6    4.20   10.21
   4  -3  -6    2.31   14.62
   4  -3  -6   -1.03   11.16
   4  -3  -6   -2.90   13.83
   4  -3  -6    2.83   11.47
  -3  -3  -9 1236.48   43.66
  -3  -3  -9 1234.92   50.95
   3   3   9 1255.58   53.31
   3   3   9 1189.24   44.17
  -3  -3  -9 1241.57   44.96
   3   3   9 1310.10   57.23
   1  -5   2  335.55   28.82
   1  -5   2  322.63   18.06
  -1   5  -2  336.47   21.02
  -1   5  -2  322.11   20.46
   1  -5   2  310.33   19.92
   7   4   2 4027.48  111.86
  -7  -4  -2 3376.64  101.23
  -7  -4  -2 3768.09  112.78
   7   4   2 3907.76  110.44
  -7  -4  -2 3940.05  120.96
   2   2  -8  963.81   44.65
   2   2  -8 1131.34   49.79
  -2  -2   8  975.70   47.78
  -2  -2   8 1146.18   49.88
   2   2  -8 1052.32   40.41
  -2  -2   8 1176.38   43.16
  -4   0   8  822.11   41.11
   4   0  -8  810.19   37.07
   4   0  -8  753.13   39.54
  -4   0   8  767.06   40.75
   4   0  -8  739.13   30.55
   4   0  -8  753.13   39.54
   2  -4   3   11.20   17.16
  -2   4  -3   12.77   12.27
  -2   4  -3   17.92   11.38
   2  -4   3    5.03   10.26
  -2   4  -3    3.13   16.27
  -3  -7  -1 3714.72  105.03
  -3  -7  -1 3870.30  110.57
   3   7   1 3921.12  113.73
  -3  -7  -1 3599.69  104.05
   3   7   1 4289.92  131.47
  -3  -7  -1 3856.62  116.92
   2   7   5   10.27   11.60
  -2  -7  -5    6.17   11.63
  -2  -7  -5    9.68   12.72
   2   7   5   26.62   12.59
   2   7   5   12.83   14.06
  -2  -7  -5   10.83    9.83
   1  -6  -3 1449.43   59.53
   1  -6  -3 1430.37   51.58
  -1   6   3 1475.88   63.76
   1  -6  -3 1496.09   51.24
   1  -6  -3 1319.78   48.74
  -1   6   3 1461.79   50.66
   5  -2  -5  192.70   18.26
   5  -2  -5  192.06   16.00
   5  -2  -5  165.31   18.21
   5  -2  -5  196.11   14.72
   5  -2  -5  193.21   17.39
   5  -2  -5  181.09   22.85
   1  -6  -4   34.84   13.74
   1  -6  -4   26.90   13.67
  -1   6   4   28.86   16.57
   1  -6  -4   39.73   11.38
  -1   6   4   34.41   12.32
   1  -6  -4   33.95   12.25
  -2   5   0  127.64   14.43
  -2   5   0  135.72   13.98
   2  -5   0  129.43   15.35
   2  -5   0  130.00   21.98
  -2   5   0  136.83   22.46
   2  -5   0  144.88   15.33
  -7  -2  -1  189.49   16.71
   7   2   1  224.83   21.29
  -7  -2  -1  242.53   23.91
   7   2   1  218.87   16.14
   3   3  -7   97.03   11.82
   3   3  -7   98.62   18.20
   3   3  -7  109.10   17.05
  -3  -3   7  106.81   19.33
  -3  -3   7   96.95   20.41
  -3  -3   7   98.67   12.49
   3   4   9   12.27   13.46
  -3  -4  -9   12.32   12.95
   3   4   9   10.63   11.87
  -3  -4  -9    2.40    9.26
  -3  -4  -9   10.79   12.17
  -3   4  -1  646.04   29.24
   3  -4   1  653.78   30.48
  -3   4  -1  663.05   29.81
  -3   4  -1  657.23   41.20
   3  -4   1  634.02   39.46
   3  -4   1  696.34   30.29
  -5  -6  -6   25.58   13.09
  -5  -6  -6   29.29    9.97
   5   6   6   25.62   12.65
   5   6   6   26.42   12.65
  -5  -6  -6   33.51   12.14
   5   6   6   27.33   11.65
  -2  -1  -9  443.16   28.32
   2   1   9  503.42   24.86
   2   1   9  454.95   27.23
  -2  -1  -9  471.52   32.14
  -2  -1  -9  438.05   22.65
   2   1   9  440.88   30.24
   4   5   8 1308.92   46.87
  -4  -5  -8 1261.38   50.73
   4   5   8 1213.77   50.89
  -4  -5  -8 1180.79   42.54
   4   5   8 1234.32   44.65
  -4  -5  -8 1171.43   43.21
   1   2  -8 2465.43   84.37
  -1  -2   8 2903.50   94.56
  -1  -2   8 2889.02   87.12
  -1  -2   8 2954.77  100.17
   1   2  -8 3004.63   99.85
   1   2  -8 2738.44   83.35
  -1  -5   4   49.01   13.73
  -1  -5   4  129.42   20.32
   1   5  -4   47.06   13.67
   1   5  -4   42.73   11.23
  -1  -5   4   47.75   10.41
   1   5  -4   43.11   17.80
   5  -2   1  751.92   32.56
  -5   2  -1  693.00   29.61
   5  -2   1  691.70   32.35
   5  -2   1  621.00   32.46
   5  -2   1  693.13   40.00
  -5   2  -1  679.48   30.51
   1  -4  -9  458.97   27.57
   1  -4  -9  459.52   20.33
   1  -4  -9  473.70   21.70
  -1   4   9  516.71   23.98
  -2   3  -5  905.11   37.31
   2  -3   5  959.44   42.42
  -2   3  -5 1015.73   51.52
   2  -3   5  952.98   36.71
  -2   3  -5  918.30   39.72
  -1  -3   7   89.35   11.59
   1   3  -7   99.51   13.87
  -1  -3   7   98.04   17.43
   1   3  -7  108.94   18.27
   1   3  -7   87.32   17.26
  -1  -3   7   95.85   19.68
   5   5   7 4766.24  132.39
  -5  -5  -7 4175.10  116.56
   5   5   7 4489.05  125.20
   5   5   7 4587.26  136.03
  -5  -5  -7 4504.96  133.34
  -5  -1  -6 3238.99   97.76
   5   1   6 3635.44  104.53
  -5  -1  -6 3258.35  102.67
  -5  -1  -6 3424.72   98.18
   5   1   6 3636.25  117.09
   5   1   6 3284.08  102.53
   6  -1  -2 2663.52   89.15
   6  -1  -2 3123.90  107.74
   6  -1  -2 3173.79  100.29
   6  -1  -2 3192.10   95.22
  -6   1   2 2920.41   86.23
   6  -1  -2 3117.64   91.49
   2  -3  -9   26.17   10.87
  -2   3   9   32.13   10.59
   2  -3  -9   36.91   10.97
   2  -3  -9   36.93   16.59
   3  -3  -8    0.91   12.72
   3  -3  -8    7.72   15.17
   3  -3  -8   -0.62   10.36
   3  -3  -8    5.76    8.11
   3  -3  -8   -2.85    9.28
  -3   3   8    0.06    9.85
  -4  -7  -1 2853.57   84.22
   4   7   1 3206.29  101.43
  -4  -7  -1 2671.12   82.07
  -4  -7  -1 2699.27   79.28
  -4  -7  -1 2770.32   89.50
   4   7   1 3067.95   91.64
   1   5   9  944.99   38.23
  -1  -5  -9  911.00   34.81
   1   5   9  966.25   37.51
   2   5   9 1361.76   48.67
   2   5   9 1170.18   52.90
   2   5   9 1096.85   49.61
  -2  -5  -9 1185.68   42.37
  -2  -5  -9 1197.47   42.99
   2   5   9 1301.59   46.16
   6  -1  -1    5.54   12.57
   6  -1  -1    4.35   11.26
   6  -1  -1    6.21    8.29
   6  -1  -1    1.17   18.93
   6  -1  -1    5.93    9.88
  -6   1   1    7.67    9.76
   5   4  -5  375.34   25.25
  -5  -4   5  328.01   19.34
  -5  -4   5  382.33   25.16
   5   4  -5  433.13   25.41
  -5  -4   5  382.81   20.80
  -5  -4   5  383.80   28.43
  -1   3  -6 2468.24   80.26
   1  -3   6 2616.72   77.82
  -1   3  -6 2741.26   95.16
   1  -3   6 2641.03   86.83
   1  -3   6 2427.56   86.34
  -1   3  -6 2479.20   76.71
   7   3  -2   15.21   14.20
  -7  -3   2   17.98    9.17
  -7  -3   2   17.45   13.00
   7   3  -2   11.26   12.06
   7   3  -2   10.12    7.73
   4  -1  -8  104.13   11.77
   4  -1  -8  108.10   11.09
  -4   1   8  117.95   18.60
   4  -1  -8  115.33   15.22
   4  -1  -8  129.55   13.97
   4  -1  -8   94.16   18.30
  -7  -4   1   -7.80   14.64
   7   4  -1    2.65    7.07
   7   4  -1   -0.08   12.11
   7   4  -1    2.06   10.30
  -7  -4   1   -0.80    8.40
  -7  -4   1    4.89   12.44
   4   2   8    3.29   11.00
  -4  -2  -8    9.67    8.94
   4   2   8    4.76   12.68
  -4  -2  -8    7.97   11.32
  -4  -2  -8   -4.27   13.91
   4   2   8    3.03   16.42
   7   2  -2 2085.95   69.71
  -7  -2   2 1954.84   61.63
  -7  -2   2 2086.78   74.96
   7   2  -2 2095.37   71.10
   7   2  -2 2303.75   71.63
  -7  -2   2 2156.25   76.80
  -4  -7  -5 1039.78   45.03
   4   7   5 1071.65   48.33
   4   7   5 1014.99   39.34
  -4  -7  -5  996.69   38.14
  -4  -7  -5 1010.05   37.68
   4   7   5 1057.15   40.30
  -6  -1  -4 1258.01   46.86
   6   1   4 1381.22   48.31
   2   4  -6    7.30   10.27
  -2  -4   6   14.19    9.67
   2   4  -6   15.89   14.58
  -2  -4   6    2.50   16.13
  -2  -4   6   12.65   13.91
  -6  -2  -5  711.73   35.75
  -6  -2  -5  751.11   32.80
   6   2   5  823.76   34.54
   6   2   5  760.52   38.88
   6   2   5  796.19   44.04
  -6  -2  -5  730.31   34.35
   0  -6  -7 3093.29   89.55
   0  -6  -7 3268.61   94.90
   0   6   7 3120.56  102.99
   0  -6  -7 3370.14  102.85
   0   6   7 3376.40   99.87
   1  -6  -2   20.86   10.48
  -1   6   2   21.21   12.17
  -1   6   2   16.53   17.17
   1  -6  -2   10.33   14.96
   1  -6  -2   16.52   13.10
   1  -6  -2   25.18   10.80
  -5   0  -5  412.01   21.25
   5   0   5  442.62   21.14
   5   0   5  354.26   22.92
   3   4  -6 1103.42   47.67
   3   4  -6  985.42   37.44
   3   4  -6  931.81   41.75
  -3  -4   6 1060.10   45.84
  -3  -4   6  907.14   46.91
  -3  -4   6 1045.21   38.80
  -1   0  -9  257.40   18.61
   1   0   9  292.67   19.48
   1   0   9  296.48   24.42
  -1   0  -9  259.83   23.88
  -1   0  -9  264.82   23.96
   1   0   9  268.70   23.46
   6   6   4 1865.43   66.43
   6   6   4 1869.06   60.55
  -6  -6  -4 1773.61   58.56
  -6  -6  -4 1876.45   62.98
   6   6   4 1945.50   61.87
  -6  -6  -4 1934.09   70.36
  -5  -3   6  310.18   24.42
   5   3  -6  319.14   23.78
   5   3  -6  346.30   22.69
  -5  -3   6  322.45   26.37
  -6  -6   0   18.16   10.38
   6   6   0   16.92   11.61
   6   6   0   15.93    9.21
  -6  -6   0   17.94   11.48
  -6  -6   0   10.09   15.32
  -5   0   7 1013.91   46.04
   5   0  -7 1017.82   42.20
  -5   0   7 1006.10   48.03
   5   0  -7  889.79   37.85
   5   0  -7  965.58   35.34
   5   0  -7  953.82   45.41
  -1   6   5   22.55   11.54
   1  -6  -5   19.10   11.55
   1  -6  -5   19.42   11.83
  -1   6   5   15.79   13.96
   1  -6  -5   26.63   14.14
   1  -6  -5   26.05   12.20
  -5  -1   7  255.31   23.35
   5   1  -7  237.02   22.87
   5   1  -7  256.40   19.23
  -5  -1   7  250.62   23.71
  -1   5   8    0.49    9.78
   1  -5  -8   11.72   10.90
   1  -5  -8   13.14   11.56
   6  -1  -3 2726.67   81.03
  -6   1   3 2681.76   79.27
   6  -1  -3 2430.83   82.56
   6  -1  -3 3005.91   88.64
   6  -1  -3 2917.26   94.03
   6  -1  -3 2953.47  103.40
   2   7   1 7359.51  116.53
  -2  -7  -1 6951.07  184.37
  -2  -7  -1 6963.41  187.22
   2   7   1 7206.32   83.23
  -2  -7  -1 7072.43  196.77
  -2  -7  -1 7086.07  190.72
   3  -1  -9  148.32   16.67
  -3   1   9  141.05   15.26
   3  -1  -9  135.67   20.45
   3  -1  -9  137.15   14.49
   3  -1  -9  136.06   13.16
  -3   1   9  128.17   18.24
  -4  -1   8    4.47   13.30
  -4  -1   8    4.38    8.20
  -4  -1   8   12.94   14.86
   4   1  -8    2.87    7.97
   4   1  -8    8.15   12.43
   4   1  -8    8.63   15.04
   6   0  -5  849.25   33.74
   6   0  -5  875.42   38.54
   6   0  -5  823.22   40.82
   6   0  -5  950.83   37.40
  -6   0   5  908.66   44.57
   6   0  -5  926.64   37.12
   0  -2 -10   86.56   17.09
   0   2  10   93.97   13.68
   0   2  10   79.24   16.52
   0  -2 -10   84.49   14.35
   0  -2 -10   83.32   13.26
   3   2  -8 1218.43   43.76
   3   2  -8 1182.42   51.67
  -3  -2   8 1261.13   46.19
   3   2  -8 1318.09   53.07
  -3  -2   8 1147.56   53.26
  -7  -4  -3  566.74   30.12
   7   4   3  669.88   34.82
   7   4   3  669.56   29.05
  -7  -4  -3  616.54   35.11
  -7  -4  -3  643.51   31.41
   7   4   3  629.51   28.11
   3   7   6  482.94   22.71
  -3  -7  -6  488.96   27.04
   3   7   6  479.98   29.96
   3   7   6  468.69   22.53
  -3  -7  -6  467.75   21.22
   3   6   8 1191.13   51.62
  -3  -6  -8 1277.47   51.30
  -3  -6  -8 1237.08   44.07
  -3  -6  -8 1188.30   42.24
   3   6   8 1251.59   44.60
  -6  -4   4 3510.87  109.42
  -6  -4   4 3385.98  108.65
   6   4  -4 3354.66  103.39
   6   4  -4 3493.78  105.70
  -1  -7  -4  259.32   18.35
  -1  -7  -4  260.88   17.35
  -1  -7  -4  232.79   15.96
  -1  -7  -4  286.19   22.51
   1   7   4  250.08   27.59
   5   7   3  132.87   14.66
   5   7   3  142.59   18.11
  -5  -7  -3  150.22   19.60
  -5  -7  -3  140.29   15.30
   5   7   3  154.62   14.58
  -5  -7  -3  128.48   13.27
  -1  -7  -3    1.48   10.50
   1   7   3    3.76   17.02
  -1  -7  -3    7.70   15.42
  -3  -2  -9 1754.24   58.79
   3   2   9 1879.66   61.62
  -3  -2  -9 1603.62   53.78
   3   2   9 1790.00   70.23
   3   2   9 1581.98   61.25
  -3  -2  -9 1690.70   65.73
   6  -1   0 1208.26   50.83
   6  -1   0 1236.79   46.42
   6  -1   0 1202.44   49.17
   6  -1   0 1205.49   55.68
  -6   1   0 1178.78   42.97
   6  -1   0 1328.52   47.56
   0   3  10   50.46   12.52
   0  -3 -10   44.29   12.41
  -7  -2  -2 2043.79   72.37
   7   2   2 2049.69   65.07
  -7  -2  -2 1807.05   59.93
   1   6   8 3248.41  106.25
   1   6   8 3285.28  107.19
  -1  -6  -8 3419.64  105.21
   1   6   8 3391.20   98.17
  -1  -6  -8 3374.36   96.63
   1   6   8 3327.44   98.14
   4  -2   4 2525.20   89.87
  -4   2  -4 2475.17   76.77
   4  -2   4 2740.02   89.61
  -4   2  -4 2522.15   77.57
   1   3  10  215.91   18.54
  -1  -3 -10  170.67   15.04
  -1  -3 -10  195.47   20.57
  -1  -3 -10  200.76   17.44
   1   3  10  204.99   21.05
  -5  -6   2 5059.89  138.67
   5   6  -2 5008.61  140.53
  -5  -6   2 5394.82  153.50
  -5  -6   2 5179.24  151.65
  -5  -6   2 4907.14  134.38
   7   3   3  800.62   34.67
  -7  -3  -3  604.25   36.02
  -7  -3  -3  738.67   38.54
  -7  -3  -3  668.11   31.48
  -7  -3  -3  655.57   34.59
   5   7   2 1449.48   50.14
   5   7   2 1562.35   58.48
  -5  -7  -2 1407.20   48.15
  -5  -7  -2 1469.64   57.28
   5   7   2 1464.17   51.36
  -5  -7  -2 1535.55   53.98
  -1  -6   2   16.25   11.69
  -1  -6   2    3.42    9.24
  -1  -6   2    8.34   12.24
  -1  -6   2   14.72   17.48
   1   6  -2    1.44   14.00
   6   4   6  903.71   42.37
  -6  -4  -6  861.47   37.51
  -6  -4  -6  914.91   42.32
   6   4   6  943.48   37.06
  -6  -4  -6  870.91   34.76
  -6  -4  -6  839.78   38.37
  -7  -5  -1 4503.74  134.88
   7   5   1 4599.95  128.85
  -7  -5  -1 4286.39  125.16
   7   5   1 4476.01  123.66
  -2  -7  -6   27.80   12.12
   2   7   6   41.32   13.80
  -2  -7  -6   34.36   13.29
   2   7   6   27.87   16.08
   3   0  -9 1128.89   50.21
   3   0  -9 1248.46   50.94
  -3   0   9 1146.86   51.82
  -3   0   9 1113.01   44.89
   3   0  -9 1147.96   42.12
  -5  -2  -7  514.87   22.08
   5   2   7  515.77   31.62
  -5  -2  -7  496.37   29.16
  -5  -2  -7  519.30   25.48
   5   2   7  517.84   29.05
   7   5   2 2259.88   76.00
   7   5   2 2545.05   75.74
  -7  -5  -2 2465.72   78.55
   7   5   2 2479.11   76.09
  -7  -5  -2 2567.57   87.00
  -7  -5  -2 2110.00   70.20
  -6  -3   5  293.94   24.87
  -6  -3   5  287.75   24.74
   6   3  -5  292.71   21.10
   6   3  -5  283.46   24.34
  -7  -1   1  745.04   38.86
  -7  -1   1  700.98   30.44
   7   1  -1  723.30   36.68
   7   1  -1  729.98   33.08
   7   1  -1  684.08   30.06
   7   1  -1  749.73   31.87
   3  -4  -7 1173.95   54.15
   3  -4  -7 1104.69   41.39
   3  -4  -7 1132.90   47.36
   3  -4  -7 1149.13   42.70
   3  -4  -7 1082.47   39.98
   3  -4  -7 1058.67   45.95
  -1  -1   9  591.17   36.95
  -1  -1   9  638.41   35.94
   1   1  -9  580.73   27.84
  -1  -1   9  633.30   29.79
   1   1  -9  607.15   35.78
   5   7   4  383.33   20.80
  -5  -7  -4  355.92   18.62
  -5  -7  -4  349.52   19.54
   5   7   4  386.81   21.84
   5   7   4  390.55   25.91
  -5  -7  -4  393.20   26.58
   0  -6   1   31.15   11.11
   0  -6   1   19.12   11.66
   0   6  -1   21.93   19.59
   0  -6   1   38.85   13.18
   0   6  -1   34.34   12.45
   0  -6   1   19.48   16.33
   1  -2 -10    5.90   10.72
   1  -2 -10    9.14   12.27
  -1   2  10   10.54   11.47
   1  -2 -10    5.44   16.37
  -1   2  10    5.21   11.28
   1   2  10  133.66   16.53
  -1  -2 -10  142.36   15.28
  -1  -2 -10  138.66   19.59
   1   2  10  164.70   15.27
  -1  -2 -10  146.46   14.45
   1   2  10  162.16   20.23
  -5  -5   4   59.82   11.18
  -5  -5   4   67.36   10.15
   5   5  -4   75.90   15.39
  -5  -5   4   60.14   15.10
   5   5  -4   52.52   15.72
   5   5  -4   52.52   15.72
   3   7   0  577.75   35.03
   3   7   0  528.75   24.41
  -3  -7   0  521.19   23.39
  -3  -7   0  504.91   20.56
  -3  -7   0  538.26   30.19
  -7  -1   0  539.13   22.43
   7   1   0  562.32   27.57
   7   1   0  541.25   29.83
   0   5   9 1545.87   52.29
   0   5   9 1581.23   54.81
   0  -5  -9 1481.89   49.13
  -3  -5  -9  579.51   29.74
   3   5   9  557.51   29.61
  -3  -5  -9  545.57   22.73
   3   5   9  566.74   27.02
   3   5   9  545.31   32.15
  -1  -7  -5  220.28   19.96
  -1  -7  -5  220.78   16.66
   1   7   5  214.31   25.56
   1   7   5  198.81   17.03
   1   4  -6   78.67   14.24
   1   4  -6   53.99   15.06
  -1  -4   6   81.28   11.65
  -1  -4   6   67.37   14.91
   1   4  -6   75.24   18.79
  -1  -4   6   66.04   20.98
  -3   3  -4  169.32   17.35
   3  -3   4  210.42   27.64
  -3   3  -4  186.11   16.80
   3  -3   4  186.15   18.26
   0  -2   8 2469.42   86.57
   0   2  -8 2250.00   70.93
   0  -2   8 2344.18   81.41
   0   2  -8 2058.13   73.35
   0   2  -8 2399.83   85.28
   0  -2   8 2293.77   70.40
   2   1  -9 1098.36   50.05
   2   1  -9 1208.47   52.79
   2   1  -9 1170.13   43.22
  -2  -1   9 1170.29   43.35
  -2  -1   9  994.13   48.79
  -1   6   1  784.08   34.69
   1  -6  -1  754.32   33.27
   1  -6  -1  778.36   35.72
   1  -6  -1  720.52   39.78
  -1   6   1  800.22   46.77
   1   7   2  926.92   50.77
  -1  -7  -2  921.67   35.62
  -1  -7  -2  941.83   43.62
  -1  -7  -2  881.09   35.91
   6   0   3  791.67   33.38
   6   0   3  724.97   41.29
  -6   0  -3  740.68   32.97
   7   2  -3   52.17   15.43
  -7  -2   3   47.33   18.37
   7   2  -3   56.98   10.62
  -7  -2   3   51.21    9.24
   7   2  -3   59.46   14.32
  -7  -2   3   55.99   15.20
  -7  -5   0  567.95   27.50
  -7  -5   0  477.72   23.72
   7   5   0  567.31   23.73
   7   5   0  555.98   21.45
  -7  -5   0  543.95   30.84
   4  -3   2  377.32   30.66
   4  -3   2  381.47   21.79
  -4   3  -2  372.67   19.52
   3  -2  -9   72.63   13.29
  -3   2   9   69.67   14.40
  -3   2   9   72.91   12.71
   3  -2  -9   64.88   10.81
   3  -2  -9   75.54   13.54
   3  -2  -9   61.67   18.44
  -7  -4   2  111.10   12.03
  -7  -4   2  127.28   16.94
   7   4  -2  117.26   12.14
   7   4  -2  125.02   15.13
  -3  -6   3 1875.95   81.69
  -3  -6   3 1812.73   72.00
   3   6  -3 1850.61   74.52
  -3  -6   3 1937.49   73.58
   7   1  -2  146.04   13.51
   7   1  -2  148.43   16.39
   7   1  -2  134.82   16.79
  -7  -1   2  149.65   19.92
  -7  -1   2  132.39   13.21
   7   1  -2  136.66   13.96
   6  -1  -4  421.84   24.74
   6  -1  -4  407.52   22.07
   6  -1  -4  353.48   24.40
   6  -1  -4  387.36   19.23
   6  -1  -4  415.49   20.69
   6  -1  -4  427.39   31.70
   4   7   0  287.77   21.04
  -4  -7   0  255.91   17.12
   4   7   0  281.16   22.86
  -4  -7   0  301.27   24.78
  -4  -7   0  272.84   16.57
  -4  -3   7  148.20   14.69
   4   3  -7  122.95   11.60
   4   3  -7  156.98   18.26
   4   3  -7  130.47   19.29
  -4  -3   7  123.55   20.11
   4   4  -6  748.29   40.16
  -4  -4   6  648.25   33.02
  -4  -4   6  658.94   40.83
  -4  -4   6  691.38   33.09
   4   4  -6  666.34   37.41
   6   3   6  200.97   25.34
  -6  -3  -6  197.21   18.35
  -6  -3  -6  181.22   18.59
   6   3   6  213.35   18.12
   6   3   6  224.28   22.69
  -6  -3  -6  188.71   14.57
   2  -5  -7 2281.86   85.18
   2  -5  -7 2298.40   93.23
  -2   5   7 2247.60   84.42
   2  -5  -7 2145.56   81.18
   2  -5  -7 2274.46   85.03
   2  -5  -7 2471.74   99.10
   1  -6  -6 2857.85  103.49
   1  -6  -6 3281.69  123.64
  -1   6   6 2901.28  115.61
   1  -6  -6 3077.06  111.70
   1  -6  -6 2988.33  108.18
  -1   6   6 3241.18  116.73
   4   7   6  118.08   17.38
  -4  -7  -6  122.90   17.75
   4   7   6  135.70   16.67
  -4  -7  -6  117.44   14.48
   4   7   6  117.87   14.75
   5   7   1  661.51   34.09
   5   7   1  724.12   39.35
  -5  -7  -1  679.93   34.98
  -5  -7  -1  633.74   37.23
   5   7   1  654.88   32.74
  -5  -7  -1  633.69   31.64
  -6  -5  -6  266.04   18.45
   6   5   6  281.54   17.31
  -6  -5  -6  259.38   21.66
   6   5   6  289.34   22.76
  -6  -5  -6  272.07   17.03
   6   5   6  292.07   18.68
  -3   1  -7  100.34   15.65
  -3   1  -7  130.73   21.95
   3  -1   7  115.90   21.69
  -3   1  -7  111.77   15.75
   3  -1   7  132.10   19.39
  -6  -6  -5 2306.62   87.25
   6   6   5 2560.87  100.46
   6   6   5 2437.45   90.80
  -6  -6  -5 2396.41   90.11
   6   6   5 2594.48   95.23
  -6  -6  -5 2394.92   96.14
   5  -1  -7  157.83   13.62
   5  -1  -7  175.68   17.40
   5  -1  -7  179.95   15.89
   5  -1  -7  163.72   19.96
  -5   1   7  172.58   20.79
   5  -1  -7  166.14   13.18
  -7  -3   3  353.17   26.53
  -7  -3   3  307.40   16.17
   7   3  -3  327.99   22.03
  -7  -3   3  374.42   27.10
   7   3  -3  353.39   22.85
   0  -1 -10 1225.53   57.89
   0   1  10 1311.27   62.63
   0  -1 -10 1404.61   67.04
   0   1  10 1398.48   63.26
   0  -1 -10 1246.03   52.66
   0   1  10 1310.39   54.76
  -1   1  10  303.24   18.67
   1  -1 -10  328.18   25.62
   1  -1 -10  296.50   17.85
  -1   1  10  258.02   23.23
   5   2  -7 1123.67   54.69
  -5  -2   7 1233.67   60.24
   5   2  -7 1235.49   55.14
  -5  -2   7 1304.71   60.91
  -7  -5  -3  477.96   30.55
  -7  -5  -3  419.55   22.79
   7   5   3  480.73   26.91
  -7  -5  -3  451.67   23.09
   7   5   3  491.18   21.06
   7   5   3  483.16   21.50
   5  -2  -6  627.49   30.90
   5  -2  -6  660.25   33.07
   5  -2  -6  640.82   42.51
   5  -2  -6  690.07   34.46
   5  -2  -6  612.23   34.54
   5  -2  -6  579.42   30.30
  -5   1  -4 5660.02  195.76
   5  -1   4 5609.58  207.17
  -6  -6   1 1387.11   56.73
  -6  -6   1 1539.22   64.17
   6   6  -1 1420.64   59.13
  -6  -6   1 1482.18   66.45
   6   6  -1 1448.35   58.63
  -3   0  -8 2571.34  102.51
   3   0   8 3191.56  122.76
   3   0   8 2982.18  120.06
   3   0   8 2778.98  101.20
  -3   0  -8 2951.06  119.42
  -3   0  -8 2829.38  104.83
   0  -3   7  117.37   17.60
   0   3  -7   91.75   16.91
   0   3  -7  112.67   15.99
   0  -3   7   99.07   21.78
   0   3  -7  118.88   21.27
   0  -3   7  103.94   13.04
   2  -5   1 1167.03   59.90
  -2   5  -1 1297.31   54.58
   2  -5   1 1293.86   55.09
  -2   5  -1 1320.99   55.04
  -2   5  -1 1423.50   71.55
  -1  -4 -10 2026.41   78.13
   1   4  10 2100.13   80.99
  -1  -4 -10 1709.66   73.13
  -4   2   8 1136.03   55.48
   4  -2  -8 1115.75   45.94
   4  -2  -8 1140.18   48.81
   4  -2  -8 1127.37   55.87
   4  -2  -8 1139.15   48.28
   4  -2  -8 1133.29   51.13
   4  -4  -3   78.25   15.08
   4  -4  -3   75.12   14.51
   4  -4  -3   75.34   11.47
  -4   4   3   68.46   12.39
   4  -4  -3   74.15   21.45
   4  -4  -3   67.36   13.62
  -4  -6   3 1178.83   58.04
  -4  -6   3 1118.61   48.36
  -4  -6   3 1186.64   48.93
   4   6  -3 1148.32   51.79
   5  -2   2 3326.97  119.67
  -5   2  -2 2814.24  103.40
  -5   2  -2 2935.26  106.37
   5  -2   2 3084.28  123.02
  -1   3  10    5.44   10.52
   1  -3 -10   -3.17   15.02
   1  -3 -10    7.78   10.32
   3   5  -5   38.76   15.26
  -3  -5   5   39.49    9.81
   4  -3  -7  237.23   19.20
   4  -3  -7  251.03   24.43
   4  -3  -7  241.48   17.02
   4  -3  -7  243.38   17.21
   4  -3  -7  232.50   22.12
   4  -3  -7  242.25   17.40
   7   1   1 1418.61   70.85
   7   1   1 1237.38   51.91
  -7  -1  -1 1172.15   50.32
   6  -1   1 1713.80   77.86
   6  -1   1 1908.01   74.08
  -6   1  -1 1647.88   65.43
   6  -1   1 1713.70   77.85
   0   1  -9 3810.44  136.34
   0  -1   9 4128.63  154.88
   0  -1   9 4297.76  159.40
   0  -1   9 4163.75  146.36
   0   1  -9 4092.87  154.98
   0   1  -9 3604.65  136.38
   2   3  10  163.18   19.76
  -2  -3 -10  150.93   15.59
  -2  -3 -10  162.98   15.10
   2   3  10  157.15   18.69
   2   3  10  175.38   16.38
  -2  -3 -10  161.82   19.81
  -4   0  -7  696.36   38.89
   4   0   7  809.32   46.68
   4   0   7  790.55   41.83
   4   0   7  580.04   27.67
  -4   0  -7  725.85   36.74
   4  -4  -2 3688.95  131.11
  -4   4   2 3450.09  123.00
  -4   4   2 3795.86  134.41
   4  -4  -2 3612.91  141.63
   4  -4  -2 3956.11  139.87
   4  -4  -2 3182.22  118.18
   5   7   5   73.96   15.46
   5   7   5   54.75   13.19
   5   7   5   65.81   15.31
  -5  -7  -5   71.02   16.29
  -5  -7  -5   50.35   13.00
  -5  -7  -5   59.01   12.47
   2   7   0  268.59   26.59
  -2  -7   0  251.26   16.43
  -2  -7   0  260.31   18.94
  -2  -7   0  244.90   23.74
  -2  -6   3 3714.60  141.94
  -2  -6   3 3945.29  138.54
  -2  -6   3 3948.91  142.58
   2  -1   8 1187.20   56.66
  -2   1  -8  970.82   49.29
  -2   1  -8 1076.88   48.29
   2  -1   8 1052.66   45.00
   2  -1   8 1091.31   56.30
  -2   1  -8 1084.55   56.06
  -7  -4  -4 1658.80   71.77
   7   4   4 1655.31   71.21
   7   4   4 1782.64   69.75
  -7  -4  -4 1577.21   64.88
  -7  -4  -4 1491.40   63.22
   7   4   4 1688.99   66.17
  -6  -1   6  135.74   19.93
   6   1  -6  128.26   15.51
  -6  -1   6  120.45   21.00
   6   1  -6  114.40   18.60
  -3   4  -2 1936.35   75.40
   3  -4   2 1952.27   86.73
   3  -4   2 1995.65   79.16
  -3   4  -2 1796.30   70.26
   4  -4  -4 1513.87   60.49
   4  -4  -4 1611.87   69.13
  -4   4   4 1544.12   61.48
   4  -4  -4 1543.03   73.11
   4  -4  -4 1664.76   66.33
   4  -4  -4 1659.10   68.11
   5   6   7    3.33   11.58
   5   6   7    1.55   10.97
  -5  -6  -7   -2.06   13.88
  -5  -6  -7    4.66    9.51
   0  -4 -10 4473.67  155.45
   0   4  10 4827.26  170.02
   0  -4 -10 4209.87  156.07
  -2  -5   5   13.25    9.58
   2   5  -5   12.58    9.74
  -4  -6  -8   15.79   12.87
   4   6   8    8.48   11.66
  -4  -6  -8   18.64   12.42
   4   6   8   10.92   10.77
  -4  -6  -8   18.91   10.26
   1   7   6  298.52   27.02
  -1  -7  -6  299.42   21.52
  -1  -7  -6  277.44   19.27
   1   7   6  278.94   19.46
   7   1  -3   12.69   12.87
  -7  -1   3   10.38    8.44
   7   1  -3    3.20    7.94
   7   1  -3    7.51    9.42
  -7  -1   3    3.37   15.70
   7   1  -3    7.94   12.40
   7   2   3  204.90   29.08
   7   2   3  184.68   16.14
  -7  -2  -3  168.07   16.11
  -7  -5   1 1136.33   55.82
   7   5  -1 1060.04   45.43
   7   5  -1 1094.19   48.57
  -7  -5   1 1096.38   51.50
  -7  -5   1  984.85   44.72
   2   4  10 1875.28   73.59
  -2  -4 -10 1782.99   70.00
   2   4  10 1770.05   78.57
  -2  -4 -10 1722.92   67.38
  -2  -4 -10 1681.37   72.11
  -3   5   3 3658.68  130.46
   3  -5  -3 3386.18  121.29
   3  -5  -3 3662.07  133.21
   3  -5  -3 3536.37  139.92
  -3   5   3 3541.46  137.75
  -1  -7  -1 3841.95  143.29
   1   7   1 3481.76  125.79
  -1  -7  -1 3858.79  139.35
   1   7   1 4056.54  159.02
   0  -5   4 1563.87   61.18
   0   5  -4 1496.34   62.38
   0  -5   4 1645.96   68.22
   0  -5   4 1575.10   72.79
   0   5  -4 1561.22   63.12
   2  -2   7    3.70   18.33
   2  -2   7    5.34    9.89
  -2   2  -7    7.49   11.83
   2  -2   7    3.38   12.96
  -2   2  -7   -5.01   12.33
  -2   2  -7   -1.78   17.03
   3   7   7  612.72   31.69
  -3  -7  -7  573.85   28.37
  -3  -7  -7  583.49   23.02
   3   7   7  554.45   31.92
  -1   4  -5  622.26   34.75
   1  -4   5  614.81   34.32
  -1   4  -5  617.89   33.13
   1  -4   5  638.94   31.34
  -5  -4  -8 2778.30  102.68
   5   4   8 3058.75  121.90
   5   4   8 3048.82  118.70
  -5  -4  -8 2810.60  104.55
  -5  -4  -8 2862.46  111.07
  -3   5   4  192.46   16.01
   3  -5  -4  192.39   15.35
   3  -5  -4  184.12   19.28
   3  -5  -4  185.22   16.04
  -3   5   4  190.86   22.49
   3  -5  -4  187.99   24.91
  -4   1  -6    3.95   11.89
  -4   1  -6    5.24   11.20
   4  -1   6   -2.52   12.20
   4  -1   6   -0.33   16.13
  -5   3   3   32.17   10.87
   5  -3  -3   32.73   10.86
   5  -3  -3   27.54   12.76
   5  -3  -3   40.41   17.26
  -5   3   3   33.44   10.31
   5  -3  -3   28.82   10.16
   0   6   8 2404.04  100.11
   0  -6  -8 2245.53   83.59
   0   6   8 2412.54  100.40
   0   6   8 2260.88   85.78
   6   2  -6    1.52   13.70
  -6  -2   6   12.25   16.15
  -6  -2   6   -2.89   15.90
   6   2  -6    7.00   13.26
   3   1  -9  123.72   12.87
   3   1  -9  135.61   17.41
  -3  -1   9  127.17   20.22
   3   1  -9  126.50   20.36
  -3  -1   9  130.88   13.74
   5  -3  -2   31.10   10.03
   5  -3  -2   30.85   11.56
   5  -3  -2   27.79   13.80
   5  -3  -2   29.92   18.05
  -5   3   2   34.96   10.11
  -5   3   2   29.18   10.88
  -1   5  -3  363.39   20.54
  -1   5  -3  359.99   21.21
   1  -5   3  385.92   22.83
   1  -5   3  375.20   29.84
  -4  -4  -9   83.30   14.91
  -4  -4  -9   71.88   11.63
  -4  -4  -9   83.70   16.72
   4   4   9   72.58   15.96
   4   4   9   86.74   18.08
  -2  -7  -7  931.68   41.49
  -2  -7  -7  913.59   45.31
   2   7   7  915.29   41.94
  -7  -3  -4 3691.23  137.07
  -7  -3  -4 3325.03  122.31
   7   3   4 3950.79  141.72
  -4  -2   8 1975.93   77.10
  -4  -2   8 1939.30   85.30
   4   2  -8 1962.95   82.69
   4   2  -8 1757.59   67.61
   4   2  -8 2214.08   88.51
   3  -2   6 1887.22   80.17
  -3   2  -6 1744.28   69.54
  -3   2  -6 1822.48   74.08
   3  -2   6 1754.71   80.02
  -4  -5   5   11.45    9.79
  -4  -5   5    9.39    7.98
  -4  -5   5   22.10   17.65
   4   5  -5    2.51   13.25
   4   1   8  609.94   39.36
  -4  -1  -8  583.75   30.71
   4   1   8  555.83   27.89
  -4  -1  -8  626.33   33.71
  -4  -1  -8  578.55   23.03
   1   1  10  168.97   15.48
   1   1  10  185.46   21.36
  -1  -1 -10  184.49   22.03
  -1  -1 -10  160.16   16.04
   1   1  10  181.87   20.04
  -1  -1 -10  154.23   21.58
  -5  -7   0    8.20   10.88
   5   7   0    9.53   14.13
  -5  -7   0   -3.14   17.98
  -5  -7   0    3.82    7.40
  -2   4   9  946.32   43.40
   2  -4  -9  968.12   49.02
   2  -4  -9  933.51   40.45
   2  -1 -10  942.97   41.48
  -2   1  10  985.72   52.01
  -2   1  10 1042.34   47.16
   2  -1 -10  963.15   50.73
   3  -5  -2 6699.21   85.80
   3  -5  -2 6550.59  238.92
  -3   5   2 6765.10   79.55
  -3   5   2 6693.14  109.57
   3  -5  -2 6204.27  212.95
   4  -4  -1  440.87   20.94
  -4   4   1  441.71   20.85
   4  -4  -1  524.82   34.69
  -4   4   1  466.58   31.91
  -4   4   1  438.77   20.34
   2  -2 -10  268.77   16.53
   2  -2 -10  237.14   24.03
  -2   2  10  237.70   22.05
  -2   2  10  262.19   18.18
   2   2  10  127.77   17.37
  -2  -2 -10  144.58   16.07
  -2  -2 -10  130.69   13.84
   2   2  10  142.00   20.07
  -2  -2 -10  141.89   19.58
   2   2  10  148.13   16.56
   1  -6   0  630.15   39.86
  -1   6   0  663.25   45.51
  -1   6   0  666.37   34.49
   1  -6   0  643.38   33.45
  -7  -5  -4  115.47   20.28
   7   5   4  123.99   17.68
  -7  -5  -4  110.13   15.99
   7   5   4  121.58   13.60
  -7  -5  -4  122.60   14.91
   7   5   4  125.98   14.16
  -2   0  -9    7.51   15.36
   2   0   9   13.95   15.63
  -2   0  -9    8.29   14.41
   2   0   9   17.37   11.99
  -2   0  -9   13.15   12.25
   2   0   9    9.28   14.54
   6  -1  -5  431.89   25.48
  -6   1   5  447.32   29.69
   6  -1  -5  423.93   19.74
   6  -1  -5  471.59   23.08
   6  -1  -5  377.56   25.71
   6  -1  -5  418.93   20.27
   6   0  -6    4.97    9.46
  -6   0   6   -1.56   13.22
   6   0  -6   -1.31   10.54
   6   0  -6    2.18    7.93
   6   0  -6    1.80   13.56
  -6  -1  -5  789.55   39.64
   4   3   9  412.89   27.32
  -4  -3  -9  386.94   25.21
  -4  -3  -9  403.41   21.81
   4   3   9  438.46   30.16
  -4  -3  -9  390.71   19.42
   4  -4  -5  869.51   49.66
  -4   4   5  865.79   39.71
   4  -4  -5  862.23   44.61
   4  -4  -5  872.54   41.46
   4  -4  -5  885.03   40.52
   4  -4  -5  858.51   39.16
  -2   4  -4  870.58   41.44
   2  -4   4  796.71   46.47
  -2   4  -4  893.46   41.85
   2  -4   4  882.34   42.84
   5  -3  -4 3634.91  129.45
   5  -3  -4 3494.78  128.12
   5  -3  -4 3429.35  134.78
   5  -3  -4 3599.23  134.36
   5  -3  -4 3712.32  134.90
   5  -3  -4 3169.15  119.29
  -7  -2   4 1882.69   81.35
   7   2  -4 1861.63   75.78
   7   2  -4 1870.38   77.06
  -7  -2   4 1866.78   79.91
  -3  -1  -9    1.07   10.25
  -3  -1  -9    4.55   12.71
   3   1   9   -1.98   14.16
  -3  -1  -9    3.59   15.02
   3   1   9   -6.95    9.77
  -5  -3  -8  363.12   18.89
  -5  -3  -8  348.50   24.77
  -5  -3  -8  368.20   22.10
   5   3   8  376.38   28.38
   5   3   8  372.17   26.19
   7   4  -3 2560.06   98.48
  -7  -4   3 2532.52  101.05
  -7  -4   3 2433.09   98.84
  -5  -5  -8 1814.17   75.58
   5   5   8 1862.83   78.68
   5   5   8 2014.00   77.02
  -5  -5  -8 1808.18   70.22
  -3  -7   1   69.96   12.91
  -3  -7   1   59.77   11.51
   3   7  -1   66.89   15.04
  -3  -7   1   65.01   18.70
   5  -3  -1   -2.67   17.76
   5  -3  -1   -2.61   12.75
   5  -3  -1    1.73   11.53
  -5   3   1    7.11   10.95
  -5   3   1    8.86    9.73
   5  -3  -1    3.65    8.51
   3  -5  -5  638.89   32.71
  -3   5   5  609.80   31.01
   3  -5  -5  586.06   35.24
   3  -5  -5  569.14   28.72
   3  -5  -5  619.15   32.83
   3  -5  -5  575.75   23.08
  -7  -1  -2 4741.32  166.84
   7   1   2 5209.93  180.92
   7   1   2 5655.42  209.64
  -1   6   7 2975.37  118.84
  -1   6   7 2832.52  103.25
   1  -6  -7 2984.96  112.89
   1  -6  -7 2862.57  104.23
   6   2   6 2714.74  111.39
   6   2   6 2691.32  105.84
  -6  -2  -6 2605.77   95.50
  -6  -2  -6 2478.80   98.85
  -6  -2  -6 2605.66   95.58
  -6  -2  -6 2385.49   91.28
   2   6   9  332.72   19.25
   2   6   9  338.11   26.43
  -2  -6  -9  321.62   18.99
  -4  -7   1 1129.19   55.16
  -4  -7   1 1057.20   45.71
  -4  -7   1 1015.30   43.15
   4   7  -1 1070.51   47.57
   1   0 -10  744.01   43.13
  -1   0  10  653.02   40.37
  -1   0  10  696.21   34.02
   1   0 -10  723.83   35.12
  -5  -6   3 1329.57   54.96
   5   6  -3 1387.13   58.93
  -5  -6   3 1361.06   63.58
  -5  -6   3 1338.70   53.73
   0   7   4  676.14   34.78
   0  -7  -4  691.69   39.01
   0  -7  -4  681.75   34.70
   0   7   4  677.38   44.00
   0  -4   6  255.74   16.82
   0   4  -6  232.17   22.05
   0   4  -6  269.11   20.20
   0  -4   6  260.21   20.94
   0  -4   6  231.40   24.85
   3  -3  -9  354.72   26.56
   3  -3  -9  315.62   16.47
  -3   3   9  352.81   20.78
  -1   5   9 1577.09   64.30
   1  -5  -9 1509.21   59.16
  -4  -7  -7 1199.55   50.54
  -4  -7  -7 1226.01   56.55
   4   7   7 1227.49   58.67
   4   7   7 1217.98   51.62
   4   5   9  335.22   24.65
  -4  -5  -9  324.38   20.09
  -4  -5  -9  326.77   22.00
  -4  -5  -9  328.78   18.28
   4   5   9  365.11   27.69
   6   6   6  919.54   46.62
   6   6   6  970.34   54.09
  -6  -6  -6  891.58   51.10
   6   6   6  907.87   46.13
  -6  -6  -6  817.48   41.98
  -6  -6  -6  859.01   45.10
   6   7   3 1138.44   55.72
   6   7   3 1229.01   63.28
  -6  -7  -3 1178.71   63.22
  -6  -7  -3 1132.34   54.73
  -6  -7  -3 1225.38   59.95
   6   7   3 1180.51   56.76
  -5  -7  -6  950.70   47.66
  -5  -7  -6  938.82   47.02
  -5  -7  -6  991.98   55.13
   5   7   6 1011.86   55.34
   5   7   6 1009.46   51.05
   0   7   3   80.30   19.85
   0   7   3   81.51   14.19
   0  -7  -3   76.16   17.21
   0  -7  -3   78.96   15.44
  -6  -7  -2 1577.01   74.30
  -6  -7  -2 1434.71   66.49
   6   7   2 1508.72   71.03
   6   7   2 1531.33   70.92
  -6  -7  -2 1577.02   78.45
  -7  -6  -2 1713.24   80.27
  -7  -6  -2 1657.00   77.69
   7   6   2 1767.16   81.15
  -7  -6  -2 1797.34   88.18
   7   6   2 1741.08   78.53
   3  -4  -8  426.95   19.90
   3  -4  -8  431.58   21.20
   3  -4  -8  462.18   30.68
   3  -4  -8  421.60   26.59
   3  -4  -8  418.75   20.76
  -6  -6   2 4236.04  184.97
  -6  -6   2 4198.94  177.90
  -6  -6   2 4789.35  204.44
   6   6  -2 4366.03  186.10
  -6  -6   2 4572.13  200.07
   7   3  -4   42.43   13.66
  -7  -3   4   46.63   14.60
   7   3  -4   54.87   13.98
  -7  -3   4   62.70   20.38
  -6  -4   5    0.45   17.24
  -6  -4   5    8.14   14.26
   6   4  -5    6.51   13.90
   0   6  -2  102.32   15.09
   0   6  -2   92.41   14.23
   0  -6   2  100.51   14.64
   0  -6   2  103.73   21.49
  -6   1  -2  236.62   17.82
   6  -1   2  233.29   25.93
  -1  -5   5  142.20   14.48
   1   5  -5  145.74   16.20
   1   5  -5  153.00   19.39
  -1   2  -8  874.10   52.43
   1  -2   8  854.60   51.41
   1  -2   8  826.62   42.48
   1  -2   8  830.46   48.49
  -1   2  -8  718.34   43.92
  -1   2  -8  787.57   42.43
  -5  -4   6  558.95   40.07
   5   4  -6  597.25   37.26
   5   4  -6  511.50   34.85
   7   1  -4 2496.84  112.84
  -7  -1   4 2564.75  119.57
   7   1  -4 2666.60  117.81
   7   1  -4 2552.08  116.92
   7   1  -4 2600.89  113.79
   7   6   1  867.82   43.94
  -7  -6  -1  963.44   54.31
   7   6   1  908.22   46.74
  -7  -6  -1  920.87   48.99
  -7  -6  -1  875.31   46.86
  -5   0  -6  531.71   32.43
  -5   0  -6  538.31   33.61
   5   0   6  540.72   39.51
  -5   0  -6  492.61   21.16
   3  -5  -1 2323.84  103.37
  -3   5   1 2254.35  111.18
   3  -5  -1 2302.24  112.57
  -3   5   1 2331.60  103.21
  -5  -1  -7   91.30   11.43
   5   1   7  111.44   19.49
   5   1   7   97.38   17.15
  -5  -1  -7  107.20   16.20
  -5  -1  -7  102.59   16.19
  -1  -6  -9   60.08   12.43
  -1  -6  -9   60.08   12.43
   1   6   9   63.11   13.89
   7   0  -1  428.56   21.36
  -7   0   1  406.40   19.78
   7   0  -1  473.82   35.20
   0  -7  -5  450.75   22.33
   0  -7  -5  464.08   26.74
   0   7   5  471.88   32.21
   0   7   5  460.90   24.06
   7   5  -2  134.17   17.11
  -7  -5   2  127.85   18.22
  -7  -5   2  121.67   13.30
   1  -4 -10 1214.16   57.28
  -1   4  10 1317.23   63.98
   1  -4 -10 1249.29   65.62
   3   6   9  133.22   18.66
  -3  -6  -9  145.02   16.09
  -3  -6  -9  152.52   17.61
   3   6   9  157.25   16.20
  -1  -6   3 1471.72   76.41
   1   6  -3 1517.60   72.02
  -1  -6   3 1518.78   69.56
   1   6  -3 1535.56   71.66
   6   0   4  226.92   25.42
  -6   0  -4  266.91   19.48
  -2   5   8   55.29   12.45
  -2   5   8   72.59   14.82
   2  -5  -8   66.30   13.15
   7   0  -2 1805.25   82.42
   7   0  -2 2112.12  106.25
   7   0  -2 1932.65   91.55
  -7   0   2 1683.87   76.99
   7   0  -2 1924.28   91.47
  -6  -4  -7 1284.36   62.82
   6   4   7 1355.92   69.86
   6   4   7 1481.09   79.23
  -6  -4  -7 1271.53   64.63
  -6  -4  -7 1268.71   60.13
  -1  -7  -7 2023.56   90.66
   1   7   7 2125.24   95.13
   1   7   7 1996.66   99.59
  -1  -7  -7 2033.22   94.63
   0   0 -10  330.88   25.73
   0   0 -10  343.81   26.54
   0   0  10  354.35   26.45
   0   0  10  385.07   21.39
   0   0 -10  358.55   20.75
  -1  -5 -10 4665.73  195.42
   4   0  -9 2186.32   96.95
   4   0  -9 2201.89  104.78
  -4   0   9 2192.07   99.21
  -4   0   9 2190.72  106.18
   4   0  -9 2471.50  112.11
   5   0  -8  904.38   52.30
   5   0  -8  972.32   51.59
  -5   0   8  943.20   55.74
  -5   0   8  969.41   54.52
  -7  -6  -3  208.97   18.04
  -7  -6  -3  223.39   23.36
   7   6   3  227.25   17.42
   7   6   3  227.01   15.54
  -7  -6  -3  224.79   17.90
  -4   3  -3  261.54   17.69
   4  -3   3  252.87   19.06
  -4   3  -3  237.88   18.49
   4  -3   3  244.27   27.62
   2   5  10 2194.40  105.14
  -2  -5 -10 2366.69  108.52
  -2  -5 -10 2477.49  108.72
   2   5  10 2495.08  117.50
   6   7   4    5.73   11.86
  -6  -7  -4    9.65   10.50
  -6  -7  -4    6.20   11.11
  -6  -7  -4    3.33   15.27
   6   7   4   -1.59    9.79
   6   7   4    7.70   13.88
   1  -1   9   14.81   15.79
  -1   1  -9    4.60   16.62
   1  -1   9   -1.68   15.23
  -1   1  -9    5.86   13.32
   1  -1   9    9.13   10.47
  -1   1  -9    8.93   15.16
   2   0 -10 2961.54  128.20
   2   0 -10 3040.12  139.30
   2   0 -10 2701.85  124.24
  -2   0  10 2457.33  116.55
  -2   0  10 2832.32  124.16
   2  -3   6 3993.11  174.70
  -2   3  -6 3751.29  160.80
  -2   3  -6 3724.40  162.24
  -4   1   9  639.75   36.32
   4  -1  -9  691.99   36.66
  -4   1   9  666.53   43.35
   4  -1  -9  649.77   42.29
  -1  -7   0 1772.31   87.87
   1   7   0 1808.45   83.24
  -1  -7   0 1793.08   83.61
  -2  -3   8  803.43   50.27
  -2  -3   8  853.00   43.59
   2   3  -8  910.56   53.08
   2   3  -8  857.23   44.35
   2  -3 -10  201.19   14.62
   2  -3 -10  205.21   22.48
  -2   3  10  217.25   18.41
   5  -2  -7 2479.47  108.52
   5  -2  -7 2532.68  110.95
   5  -2  -7 2593.61  124.75
   5  -2  -7 2513.58  113.65
   5  -2  -7 2262.19  107.23
   5  -2  -7 2354.87  103.60
   5  -3  -5  864.47   44.63
   5  -3  -5  827.72   47.39
   5  -3  -5  865.98   45.75
   5  -3  -5  800.83   51.37
   5  -3  -5  736.19   42.57
   5  -3  -5  855.12   44.07
   4  -4   0  430.24   21.73
   4  -4   0  395.09   31.38
  -4   4   0  412.17   20.37
   6   7   1   86.40   15.49
  -6  -7  -1   92.12   15.57
  -6  -7  -1   82.89   13.22
   6   7   1   85.40   12.52
  -6  -7  -1   76.73   18.87
  -3  -4 -10  932.87   51.49
   3   4  10  888.45   51.58
   3   4  10  969.60   56.03
  -3  -4 -10  871.60   44.55
  -3  -4 -10  871.60   44.55
  -3  -4 -10  897.16   45.70
  -7  -4  -5  628.66   35.36
  -7  -4  -5  640.92   40.61
   7   4   5  691.56   37.99
  -7  -4  -5  601.67   36.66
  -2  -7   1   36.36   14.15
  -2  -7   1   37.53   10.78
  -2  -7   1   33.84   18.77
  -2  -7   1   33.84   18.77
   5   3  -7  706.49   41.31
  -5  -3   7  647.48   43.55
   5   3  -7  621.31   39.68
   0   7   2  301.84   30.81
   0  -7  -2  307.91   26.44
   0   7   2  303.73   20.42
  -2   5  -2  658.83   37.33
   2  -5   2  680.62   45.30
   2  -5   2  670.95   38.72
  -2   5  -2  699.30   38.74
   2  -6  -4  951.65   49.76
   2  -6  -4  948.64   55.66
  -2   6   4  870.67   53.02
  -2   6   4  982.87   49.79
   2  -6  -4  930.93   46.60
   5   1  -8   -6.20   16.55
  -5  -1   8   13.95   16.60
   5   1  -8    4.56   12.68
   6   3  -6  353.27   22.36
   6   3  -6  342.34   24.96
  -6  -3   6  343.49   25.89
  -6  -3   6  332.24   29.06
  -4   2  -5    6.33   13.39
  -4   2  -5   16.37   10.39
   6   5  -4    1.85   14.37
  -6  -5   4    2.46    7.98
  -6  -5   4    1.80   10.07
  -6  -5   4    8.43   18.75
  -6  -5   4    7.68   13.44
   3   3  10  758.21   46.44
   3   3  10  820.98   50.40
  -3  -3 -10  794.96   42.17
  -3  -3 -10  748.56   44.95
  -3  -3 -10  791.02   41.02
   6   5   7 3194.61  143.40
   6   5   7 3363.76  144.32
  -6  -5  -7 3023.26  135.34
  -6  -5  -7 2867.95  125.30
  -6  -5  -7 2878.69  124.26
   7   0   0  560.75   41.74
  -7   0   0  515.16   30.98
   7   0   0  557.28   32.08
   2  -6  -3  728.80   38.90
  -2   6   3  746.81   49.09
   2  -6  -3  735.93   41.20
   2  -6  -3  744.53   48.60
  -2   6   3  783.79   42.39
  -5   3   0 3361.48  143.63
  -5   3   0 3334.98  143.62
   5  -3   0 3592.22  163.85
   5  -2   3  116.98   22.08
  -5   2  -3  109.04   12.42
   7   2   4   54.95   12.26
  -7  -2  -4   37.65   14.27
   4  -4  -6   75.09   13.41
   4  -4  -6   76.77   18.34
   4  -4  -6   77.39   15.84
   4  -4  -6   81.69   13.92
   4  -4  -6   80.08   12.82
   3  -5  -6   43.53   13.24
   3  -5  -6   36.39   16.09
   3  -5  -6   31.04   10.88
  -3   5   6   33.80   12.42
   3  -5  -6   32.14   12.72
   3  -5  -6   31.04   11.78
  -3  -3   8 1959.36   88.14
  -3  -3   8 1586.10   82.76
   3   3  -8 1820.05   82.24
   3   3  -8 2041.73   98.40
   3   3  -8 1815.97   88.22
   6  -2  -2  320.40   21.12
   6  -2  -2  304.31   28.91
   6  -2  -2  344.01   23.53
   6  -2  -2  349.53   19.42
  -6   2   2  336.29   19.65
  -7  -6   0   -2.92   16.23
   7   6   0    6.66    8.31
  -7  -6   0    5.68   11.07
   7   6   0   -0.40   10.80
  -7  -6   0    0.62   11.16
   7   0  -3   72.97   11.96
  -7   0   3   71.14   18.41
  -7   0   3   76.82   11.38
   7   0  -3   74.67   14.96
   7   0  -3   66.30   15.88
  -5  -5   5   32.33   17.80
  -5  -5   5   30.54    9.62
   5   5  -5   43.74   16.61
  -5  -7   1 1810.17   82.00
  -5  -7   1 1886.49   90.93
  -5  -7   1 1801.12   80.56
   5   7  -1 1900.51   86.86
   6  -2  -3   15.75   19.09
   6  -2  -3   13.62   12.96
  -6   2   3   10.86    9.54
   6  -2  -3   18.60   10.37
   6  -2  -3   22.52   12.86
  -7  -5  -5   66.61   14.50
  -7  -5  -5   69.38   11.54
  -7  -5  -5   71.39   17.86
   7   5   5   73.53   12.20
   7   5   5   79.40   11.49
   4   2   9 1333.08   72.21
  -4  -2  -9 1361.08   65.80
   4   2   9 1173.09   62.69
  -4  -2  -9 1190.23   56.92
  -4  -2  -9 1286.65   67.20
   3   4  -7 2092.12   92.85
  -3  -4   7 1903.00   95.03
   3   4  -7 2112.19   98.94
  -3  -4   7 2237.88   98.82
   1  -3   7  588.57   41.32
  -1   3  -7  536.94   32.71
  -1   3  -7  481.01   27.18
   1  -3   7  528.25   30.37
   1  -3   7  550.32   36.06
  -2  -4   7   14.28    9.69
   2   4  -7   16.04   11.19
  -2  -4   7   42.36   19.02
   2   2  -9 1762.49   87.52
   2   2  -9 1656.88   76.34
  -2  -2   9 1623.60   83.90
  -2  -2   9 1822.12   83.35
   4  -3  -8 1145.76   54.61
   4  -3  -8 1117.23   59.94
   4  -3  -8 1170.31   56.68
   4  -3  -8 1137.26   55.35
   4  -3  -8 1191.38   66.35
  -3  -6   4   31.92   17.71
   3   6  -4   22.13   15.13
  -3  -6   4   25.98   10.10
  -3  -6   4   27.48   13.11
   2  -6  -5    4.55   11.73
   2  -6  -5    8.06    9.89
  -2   6   5    0.17   11.28
  -2   6   5   -7.60   13.38
   2  -6  -5    8.23   15.27
   6   3   7  466.37   28.79
   6   3   7  446.00   32.09
  -6  -3  -7  415.11   26.24
  -6  -3  -7  441.89   19.83
   0   7   6  326.81   26.17
   0  -7  -6  345.61   23.12
   0  -7  -6  346.79   20.87
  -1  -3   8   99.14   12.44
   1   3  -8  100.21   19.01
   1   3  -8   88.69   13.66
  -1  -3   8   99.88   20.02
   1   3  -8   90.25   20.28
  -7  -6  -4    6.73   13.07
   7   6   4    6.34   10.08
  -7  -6  -4   -5.94   15.65
   7   6   4    3.17   10.70
  -7  -6  -4    4.53   10.51
   3   7   8 1579.19   73.30
   3   7   8 1341.84   71.67
  -3  -7  -8 1509.49   74.78
  -3  -7  -8 1515.34   69.73
   6  -2  -1  667.52   46.28
  -6   2   1  628.51   34.95
   6  -2  -1  666.44   36.39
  -5   1   8   11.02   13.39
   5  -1  -8   26.03   17.08
   5  -1  -8   18.68   11.74
   5  -1  -8   17.45   12.18
   5  -1  -8   18.62    7.98
   2   7   8 2782.71  132.37
   2   7   8 3077.67  132.94
  -2  -7  -8 2927.09  126.26
  -2  -7  -8 2862.44  128.64
   2  -6  -2 1290.49   63.78
   2  -6  -2 1220.69   58.89
  -2   6   2 1321.09   63.17
  -2   6   2 1332.58   73.88
   2  -6  -2 1243.21   67.78
   3  -3   5  544.29   40.85
  -3   3  -5  637.78   36.34
   3  -3   5  637.04   39.55
  -3   3  -5  586.21   34.79
   0  -5 -10 1433.31   71.97
   0  -5 -10 1365.98   63.07
   0   5  10 1504.15   71.44
   2   1  10   57.26   16.46
  -2  -1 -10   40.01   17.09
  -2  -1 -10   63.29   18.83
  -2  -1 -10   55.65   13.87
   7   3   5  710.33   49.44
  -7  -3  -5  584.88   35.76
  -7  -3  -5  551.79   38.86
  -7  -3  -5  582.78   36.47
  -5   1  -5  290.43   20.16
  -5   1  -5  315.10   18.76
   3  -4   3  397.49   22.83
   3  -4   3  407.06   31.27
  -3   4  -3  403.46   21.45
  -3   4  -3  378.95   21.14
  -1   6  -1   53.66   15.35
  -1   6  -1   56.39   12.75
   1  -6   1   49.16   18.56
   1  -6   1   50.69   12.91
   6  -1  -6 4653.88  199.50
   6  -1  -6 4857.05  204.43
   6  -1  -6 4865.68  204.56
   6  -1  -6 4204.45  184.24
  -6   1   6 4894.80  213.13
   5   2   8   27.90   17.18
  -5  -2  -8   26.42   10.51
  -5  -2  -8   28.12   14.29
   5   2   8   11.02   12.84
  -5  -2  -8   21.75   14.00
  -1  -2   9 9535.25  125.69
  -1  -2   9 9484.44   91.09
   1   2  -9 8326.94  349.71
   1   2  -9 8808.93  362.06
   1   2  -9 9258.67  121.61
   7   1   3 4626.90  194.73
   7   1   3 4831.70  214.67
  -7  -1  -3 4401.78  186.65
  -5  -6  -8  561.35   31.68
   5   6   8  614.28   39.43
  -5  -6  -8  605.62   38.43
   5   6   8  623.24   34.65
  -4  -6   4    7.48   17.94
  -4  -6   4   -0.88    8.12
   4   6  -4    9.64   13.38
  -4  -6   4   -0.11    9.43
  -6  -7  -5  308.90   25.31
   6   7   5  318.48   23.30
  -6  -7  -5  300.85   19.30
   6   7   5  317.01   19.60
   6   7   5  322.21   18.91
  -6  -7  -5  306.86   18.22
   3  -1 -10  632.36   34.32
   3  -1 -10  659.88   42.84
  -3   1  10  663.23   37.88
  -3   1  10  665.11   43.39
  -3  -8  -4  122.74   17.92
  -3  -8  -4  114.98   13.91
   3   8   4  127.15   15.82
   3   8   4  118.58   20.67
  -3  -5 -10 4443.06  186.76
   3   5  10 4736.64  208.53
   3   5  10 4774.19  207.37
  -3  -5 -10 4767.49  200.44
  -3  -5 -10 4351.88  187.82
  -6  -7   0  213.40   22.71
  -6  -7   0  207.45   15.80
   6   7   0  227.46   16.36
   6   7   0  230.35   19.05
   3  -5   0  894.46   55.46
  -3   5   0  945.58   47.76
   3  -5   0  945.10   48.79
  -3   5   0  831.01   43.26
   6  -2  -4  418.95   31.41
   6  -2  -4  436.30   26.44
   6  -2  -4  431.78   23.69
   6  -2  -4  436.00   20.85
   6  -2  -4  392.24   24.40
   7   0   1  133.45   14.73
   7   0   1  131.32   25.17
  -7   0  -1  113.10   14.07
   6   1  -7   81.43   14.84
  -6  -1   7   93.13   20.14
   6   1  -7   69.50   17.92
  -6  -1   7   88.55   17.48
  -3  -8  -3   71.51   14.60
   3   8   3   59.76   13.82
   3   8   3   69.40   18.60
  -3  -8  -3   53.52   16.33
  -7  -2   5 1425.69   73.98
   7   2  -5 1444.42   72.64
  -7  -2   5 1424.01   74.41
   7   2  -5 1426.51   69.54
   4   8   3  116.29   14.59
  -4  -8  -3  105.64   18.00
  -4  -8  -3  128.18   15.16
   4   8   3  123.67   19.96
  -4  -8  -4  501.99   29.71
   4   8   4  510.69   30.89
  -4  -8  -4  512.27   35.77
   4   8   4  552.68   38.22
   4  -2  -9    6.26   15.04
  -4   2   9   10.93   12.16
   4  -2  -9    6.55    8.51
   0   7   1 4474.02  189.31
   0  -7  -1 4482.12  196.02
   0  -6  -9   17.82   11.22
   0   6   9   15.93   11.63
  -1   6   8 1171.16   56.99
   1  -6  -8 1334.48   62.57
  -7  -4   4  308.98   26.19
   7   4  -4  291.35   22.89
  -7  -4   4  291.29   23.49
  -3  -2   9  843.87   52.30
   3   2  -9 1029.13   57.21
  -3  -2   9 1001.69   50.40
   3   2  -9  962.16   54.30
   3   2  -9  919.45   46.18
  -2  -6   4    4.04   19.84
  -2  -6   4   17.37    9.81
  -1   0 -10  899.55   46.68
  -1   0 -10  892.15   53.61
   1   0  10  877.75   52.10
  -1   0 -10  815.38   48.22
   1   0  10  980.89   49.90
   1   0  10  948.81   53.61
  -5  -7  -7  292.36   24.37
  -5  -7  -7  286.95   18.68
  -5  -7  -7  296.15   18.04
   5   7   7  312.84   20.83
   5   7   7  309.77   22.59
  -4  -6  -9  395.05   24.60
  -4  -6  -9  396.23   23.18
   4   6   9  336.11   24.28
  -4  -6  -9  367.32   20.22
   4   6   9  375.67   20.55
   0   3  11   73.77   14.08
   0  -3 -11   80.35   13.03
  -3   2  10  485.23   28.88
   3  -2 -10  506.65   37.21
   3  -2 -10  538.14   30.60
  -3   2  10  532.80   32.06
  -8  -3   0 1235.07   65.97
   8   3   0 1497.29   69.46
  -8  -3   0 1406.98   66.08
   7   0  -4   66.70   14.92
  -7   0   4   72.70   18.30
   7   0  -4   67.60   13.12
   7   0  -4   65.56   15.66
  -3  -2 -10  763.65   40.01
  -3  -2 -10  814.27   43.27
  -3  -2 -10  798.57   47.81
   3   2  10  769.35   45.86
   3   2  10  861.30   52.53
   5  -3  -6   17.79   16.89
   5  -3  -6   17.52   15.10
   5  -3  -6   19.63   11.98
   5  -3  -6   15.44   10.13
   5  -3  -6   20.27   11.93
   5  -3  -6   22.24   13.42
   3   8   5  948.19   44.07
  -3  -8  -5  953.48   37.93
  -3  -8  -5  867.49   30.45
   3   8   5  907.16   32.21
   3   7  -2  757.28   41.88
  -3  -7   2  731.33   46.32
  -3  -7   2  706.79   39.59
  -3  -7   2  688.05   36.22
  -4  -4   7   67.74   10.96
  -4  -4   7   55.82   19.59
   4   4  -7   56.87   18.52
  -4  -4   7   58.38   11.07
   0   2  11   77.97   16.65
   0  -2 -11   73.68   13.21
   0  -2 -11   86.90   18.60
   0   2  11   83.69   14.24
  -4  -7   2 2324.04   80.67
  -4  -7   2 2430.98   96.19
   4   7  -2 2338.68   83.00
  -4  -7   2 2387.00   80.69
  -8  -4  -1  132.22   17.69
   8   4   1  140.27   13.76
  -8  -4  -1  154.39   15.87
   8   4   1  152.83   13.67
  -8  -4  -1  148.78   21.06
   7   1  -5  369.69   23.79
  -7  -1   5  344.59   26.94
  -7  -1   5  384.83   26.40
   7   1  -5  353.12   24.84
  -7  -6   1 2677.40   94.45
  -7  -6   1 2390.01   85.60
  -7  -6   1 2550.96   94.42
   7   6  -1 2561.76   88.76
   2  -6  -6 2680.91   99.75
  -2   6   6 2587.03   88.21
   2  -6  -6 2422.59   83.74
  -2   6   6 2514.75   97.06
   8   4   0   25.62   11.12
  -8  -4   0   27.02   14.47
  -8  -4   0   41.31   18.00
  -8  -4   0   29.84   10.90
  -1  -3 -11   59.69   13.02
   1   3  11   73.99   16.10
   1   3  11   67.00   13.49
  -1  -3 -11   59.79   18.26
   3   0 -10 2109.44   74.03
   3   0 -10 2055.31   80.63
  -3   0  10 2067.55   75.04
  -3   0  10 1990.63   81.32
   5   2  -8 2098.15   77.83
   5   2  -8 1824.84   72.70
  -5  -2   8 1955.93   81.17
   6  -2   0 5007.69  171.12
  -6   2   0 4867.22  154.84
   6   0  -7  425.59   22.23
   6   0  -7  391.82   24.06
   6   0  -7  387.14   28.63
  -6   0   7  411.77   29.61
   1   4  -7 5056.50  165.19
  -1  -4   7 5470.97  182.91
   1   4  -7 5323.85  168.41
  -1  -4   7 5393.68  168.23
  -8  -3  -1  342.74   23.03
  -8  -3  -1  352.55   20.52
   8   3   1  411.90   21.19
  -8  -3  -1  374.04   28.60
   4   8   2  812.58   31.46
  -4  -8  -2  803.58   28.08
  -4  -8  -2  804.66   35.56
  -4  -8  -2  838.99   30.39
   7   5  -3   12.93   14.57
  -7  -5   3    9.71    8.12
  -7  -5   3    9.65    7.23
  -7  -5   3    7.84   14.01
   6   6   7   94.45   16.71
  -6  -6  -7   88.95   12.66
  -6  -6  -7   70.38   13.87
  -6  -6  -7   74.14   17.13
   6   6   7   82.78   12.70
  -4  -8  -5  881.68   37.42
  -4  -8  -5  870.83   30.25
   4   8   5  946.75   41.44
   4   8   5  857.29   31.68
  -8  -3   1  214.10   21.32
   8   3  -1  221.80   17.14
  -8  -3   1  210.22   16.05
  -4  -7  -8 1178.43   39.85
  -4  -7  -8 1035.60   33.18
   4   7   8 1209.98   32.67
   4   7   8 1150.59   42.29
   4   3  -8 1971.18   76.51
   4   3  -8 1674.63   68.02
  -4  -3   8 1598.29   69.72
  -5   3  -1 1827.51   66.33
  -5   3  -1 1873.03   66.66
   5  -3   1 1926.04   80.51
  -3  -8  -2 1637.26   60.36
  -3  -8  -2 1689.82   68.18
   3   8   2 1665.55   62.37
   4  -4   1   16.18   22.42
  -4   4  -1    9.57   10.30
  -6   1  -3  623.26   27.32
   6  -1   3  605.80   36.29
  -3  -5   6 1008.81   45.63
  -3  -5   6 1229.13   31.32
   3   5  -6 1203.23   39.41
   3   5  -6 1096.98   33.99
  -2   6   1  178.63   16.44
   2  -6  -1  166.61   15.64
   2  -6  -1  167.53   19.01
   2  -6  -1  154.86   23.24
  -1  -7  -8 2935.45   97.30
   1   7   8 3121.29  103.77
   1   7   8 2877.62  106.99
  -6  -2   7 2003.60   79.37
   6   2  -7 1941.83   73.15
  -6  -2   7 1888.91   77.80
   6   2  -7 1836.04   73.35
  -1   5  -4 2538.75   87.86
  -1   5  -4 2488.65   87.09
   1  -5   4 2596.40   91.60
   1  -5   4 2636.82  100.38
  -6  -6   3  290.09   18.55
  -6  -6   3  292.98   26.42
  -6  -6   3  273.53   15.78
   6   6  -3  301.61   22.34
   1  -2 -11   28.51   12.56
  -1   2  11   18.46   12.85
  -1   2  11    7.53   12.40
   1  -2 -11   12.39   16.25
  -3   5   7  194.93   16.54
   3  -5  -7  190.69   15.87
   3  -5  -7  198.19   23.14
   3  -5  -7  189.93   17.78
  -7  -3   5 1541.54   66.18
   7   3  -5 1564.12   63.37
  -7  -3   5 1578.32   68.23
  -8  -4  -2 1899.05   69.71
  -8  -4  -2 2025.35   79.49
   8   4   2 2106.01   73.00
  -2  -8  -4    1.76   13.59
   2   8   4    5.79   11.44
   2   8   4   18.40   17.29
  -3   1  -8  902.66   38.38
   3  -1   8 1060.87   47.47
  -3   1  -8 1023.94   35.88
   3  -1   8 1069.10   48.88
   1   7  -1   -1.23   12.85
  -1  -7   1    1.94   13.03
  -1  -7   1   -5.85   17.80
   7   6   5 2699.46   93.03
  -7  -6  -5 2594.43   89.64
  -7  -6  -5 2574.12   88.80
  -7  -6  -5 2734.88  100.15
   7   6   5 2906.61   96.83
   0   7   7 2438.71   93.37
   0  -7  -7 2592.83   92.35
   0  -7  -7 2532.91   88.88
   6   1   6 1342.88   61.72
  -6  -1  -6 1300.32   49.64
  -6  -1  -6 1339.61   53.66
   0  -5   5  287.90   27.09
   0   5  -5  315.85   20.75
   0   5  -5  301.16   21.71
   4  -4  -7  245.26   21.84
   4  -4  -7  243.23   18.02
   4  -4  -7  251.73   18.06
   4  -4  -7  229.78   16.67
   4  -4  -7  250.38   25.16
  -8  -4   1   23.44    9.88
  -8  -4   1   19.87   13.90
   8   4  -1   19.17   11.04
   1   2  11  427.92   22.29
   1   2  11  431.20   28.62
  -1  -2 -11  390.58   27.77
   1   2  11  377.60   25.69
  -1  -2 -11  391.65   21.87
  -1  -4 -11  703.68   34.30
  -1  -4 -11  729.75   28.35
  -1  -1  10  346.37   27.28
  -1  -1  10  369.73   20.46
   1   1 -10  335.92   20.05
   1   1 -10  337.78   26.26
   1   1 -10  371.00   27.01
   2   8   3  121.72   15.89
   2   8   3  137.31   22.01
  -2  -8  -3  130.70   19.38
  -2  -8  -3  130.69   16.22
   0  -2   9  754.81   27.79
   0   2  -9  749.84   29.70
   0   2  -9  671.73   34.82
   0  -2   9  791.14   38.93
   0   2  -9  789.24   38.96
  -2  -5   6  464.16   32.98
   2   5  -6  485.78   22.83
  -2  -5   6  516.78   22.46
   2   1 -10  227.84   22.49
   2   1 -10  227.42   16.86
  -2  -1  10  227.82   16.93
  -2  -1  10  187.15   21.34
   2   1 -10  176.81   22.28
   6  -2  -5  220.90   20.86
   6  -2  -5  270.03   21.13
   6  -2  -5  248.87   17.32
   6  -2  -5  256.79   19.40
   6  -2  -5  259.98   29.31
   6  -2  -5  224.25   15.89
   5   4   9    9.35   16.26
  -5  -4  -9    3.77   10.03
  -5  -4  -9   12.32   13.00
   5   4   9   11.89   13.17
  -5  -4  -9    2.81   13.54
  -4   0  -8 5232.03  166.85
  -4   0  -8 4647.03  155.79
   4   0   8 5638.64  189.93
  -5  -6   4   93.28   13.53
   5   6  -4  108.24   18.11
  -5  -6   4   99.01   11.16
   5   8   3  632.72   27.90
  -5  -8  -3  627.33   25.04
  -5  -8  -3  665.26   34.92
   5   8   3  671.31   27.57
   2   8   5 1746.19   64.02
  -2  -8  -5 1793.36   69.55
   2   8   5 1597.05   73.82
  -2   4  10 1401.99   55.50
   2  -4 -10 1460.05   62.26
   2  -4 -10 1381.77   50.97
   1  -3 -11  302.64   19.58
   1  -3 -11  272.58   23.90
  -1   3  11  306.08   20.92
   5   8   4   90.10   15.06
   5   8   4   89.80   17.55
  -5  -8  -4   85.35   13.85
  -5  -8  -4   87.08   17.80
  -4  -5   6 2714.53  103.12
  -4  -5   6 2875.50   95.61
  -4  -5   6 2643.76   91.94
   4   5  -6 2838.56  100.78
  -3  -8  -6 2201.56   82.70
   3   8   6 2211.66   77.77
   3   8   6 1976.36   82.01
   6   7   6  206.02   20.35
  -6  -7  -6  183.13   15.10
  -6  -7  -6  181.93   21.49
   6   7   6  192.42   18.47
  -6  -7  -6  192.82   16.86
  -3   0  -9  126.89   19.92
   3   0   9  131.48   20.84
  -3   0  -9  115.28   18.58
  -3   0  -9  129.04   15.42
   3   0   9  128.58   18.58
  -8  -3  -2   13.65   11.20
   8   3   2    8.23   12.28
  -8  -3  -2   -1.91   18.30
   0   3  -8  229.12   22.49
   0  -3   8  257.20   26.06
   0  -3   8  285.60   18.21
   0   3  -8  284.75   21.15
  -7  -4  -6  570.66   24.08
  -7  -4  -6  608.01   30.23
  -7  -4  -6  595.73   28.10
  -7  -4  -6  637.34   33.67
  -1   4  -6   48.24   15.68
   1  -4   6   43.26   14.60
  -1   4  -6   44.36   15.35
   8   2   0 2734.61   92.68
  -8  -2   0 2497.03   85.32
  -8  -2   1   28.53   17.70
  -8  -2   1   16.83   10.41
   3  -4  -9 2068.66   79.82
   3  -4  -9 2070.11   71.42
   8   3  -2 1900.77   70.55
  -8  -3   2 1819.94   75.29
  -8  -3   2 1692.32   71.20
  -8  -3   2 1690.15   61.05
   0   4  11    8.04   11.40
   0  -4 -11    0.78   13.02
  -2  -7   2  282.29   26.46
  -2  -7   2  266.86   21.06
  -2  -7   2  281.60   17.85
   4  -1   7   64.65   19.41
  -4   1  -7   55.86   15.60
  -4   1  -7   67.54   15.19
   0  -6   3 2563.42   96.85
   0   6  -3 2631.99   91.17
   0   6  -3 2653.06   90.94
  -8  -5  -1 2857.02  101.32
  -8  -5  -1 3450.92  121.76
   8   5   1 3503.38  115.27
  -8  -5  -1 3335.28  115.66
  -2   4  -5    0.10   12.32
  -2   4  -5    0.98   11.36
   2  -4   5    7.61   12.04
   2  -4   5    5.98   17.04
   6   2   7  505.57   32.52
  -6  -2  -7  463.17   21.49
  -6  -2  -7  402.90   26.57
   2  -5  -9 2153.29   81.29
   2  -5  -9 2199.38   75.76
  -2   5   9 2164.32   77.43
   5   5   9    5.80   13.98
  -5  -5  -9    6.58   11.43
   5   5   9    7.22   13.80
  -5  -5  -9   -3.62   11.91
  -5  -5  -9    5.90    9.53
   7   0   2 3096.41  116.21
  -7   0  -2 3078.15  102.97
  -5  -7   2 1599.31   57.82
  -5  -7   2 1506.24   56.66
  -5  -7   2 1568.81   66.24
   5   7  -2 1609.93   61.38
  -7  -5  -6  359.59   26.69
  -7  -5  -6  333.15   22.03
  -7  -5  -6  319.46   18.72
   7   5   6  387.46   20.68
   2   6  10 1988.88   70.43
  -2  -6 -10 1873.06   66.38
  -6  -7   1 3215.78  105.70
  -6  -7   1 3167.10  104.93
   6   7  -1 3378.49  112.10
  -6  -7   1 3386.60  119.18
  -5  -8  -2  301.47   25.61
   5   8   2  272.29   17.19
   5   8   2  295.71   21.43
  -5  -8  -2  284.01   18.12
  -1   1  11 1738.72   64.84
  -1   1  11 1627.24   69.45
   1  -1 -11 1666.84   60.86
   7   2   5  299.28   29.44
  -7  -2  -5  279.19   21.24
  -4  -8  -1 1099.30   42.88
   4   8   1 1155.91   33.83
  -4  -8  -1 1060.55   34.13
  -4  -8  -1 1063.78   32.43
   4   8   6 6982.22   79.76
  -4  -8  -6 7171.45   97.76
  -4  -8  -6 6589.82  206.46
   4   8   6 7120.99  107.07
   8   5   2 3836.62  124.22
   8   5   2 3882.62  124.35
  -8  -5  -2 3918.81  131.82
  -8  -5  -2 3377.28  113.88
  -8  -5  -2 3864.19  133.45
   4   4  10   71.51   16.33
  -4  -4 -10   69.84   15.28
   4   4  10   68.38   18.04
  -4  -4 -10   69.18   11.74
  -4  -4 -10   69.69   17.39
   0   1  11 5272.67  176.58
   0  -1 -11 4795.85  162.81
   0   1  11 5244.03  164.90
   0  -1 -11 4894.93  155.13
  -2  -3 -11   62.57   14.84
   2   3  11   74.36   16.75
  -2  -3 -11   63.77   19.06
   2   3  11   68.57   14.85
   5  -2  -8  435.41   29.47
   5  -2  -8  490.29   23.11
   5  -2  -8  540.28   35.19
   5  -2  -8  512.68   22.15
  -3   2  -7  118.67   16.16
   3  -2   7  136.99   19.69
  -3   2  -7  124.36   17.23
   3  -2   7  136.11   23.58
   1  -5 -10 1323.85   49.90
  -1   5  10 1361.08   53.88
   1  -5 -10 1298.25   56.67
   8   5   0  128.82   15.20
  -8  -5   0  147.86   18.06
  -8  -5   0  146.40   22.69
  -8  -5   0  119.50   14.37
   2   4  11 1409.90   62.66
  -2  -4 -11 1392.96   58.99
  -2  -4 -11 1325.90   50.75
   6   4  -6    1.68   16.74
  -6  -4   6   15.25   18.12
  -3  -8  -1 1507.02   57.39
   3   8   1 1577.04   60.03
  -3  -8  -1 1463.56   61.59
  -2  -8  -2  694.90   34.28
  -2  -8  -2  654.96   27.87
  -2   1  -9  522.26   25.71
   2  -1   9  477.45   31.56
  -2   1  -9  480.35   32.93
  -2   1  -9  424.19   27.33
   2  -1   9  575.97   32.37
   4  -3   4   88.37   24.00
  -4   3  -4   64.20   14.95
  -4   3  -4   81.50   13.11
   0   7   0 1495.13   57.26
   0  -7   0 1501.67   65.26
   0  -7   0 1584.55   62.13
  -2   5  -3  361.47   21.62
   2  -5   3  369.92   22.28
   2  -5   3  368.05   32.60
  -2   5  -3  372.11   22.40
  -1   7   4 1299.84   51.27
  -1   7   4 1247.39   48.33
   1  -7  -4 1265.21   56.53
   1  -7  -4 1236.94   36.12
   8   4   3  173.43   15.23
  -8  -4  -3  147.82   17.66
  -8  -4  -3  184.47   22.24
  -8  -4  -3  151.89   18.05
   5   8   5  654.90   29.13
  -5  -8  -5  643.73   33.04
   5   8   5  682.42   34.57
  -5  -8  -5  594.91   24.75
  -6   2  -1 4105.21  132.33
  -6   2  -1 4003.27  129.75
   6  -2   1 4115.22  144.38
  -8  -2  -1  676.57   27.16
   8   2   1  743.45   28.37
  -8  -2  -1  749.35   36.23
  -8  -2   2  164.91   22.16
  -8  -2   2  135.62   12.95
  -3   5  -1   84.07   12.95
   3  -5   1   80.39   12.09
   3  -5   1   89.24   23.04
  -3   5  -1   75.16   13.94
   1   6  10  784.80   30.14
  -1  -6 -10  708.72   26.87
  -2   2  -8  168.28   18.09
   2  -2   8  177.09   20.79
   2  -2   8  183.44   26.34
  -2   2  -8  153.46   18.96
  -2   6   7 3271.73  108.28
   2  -6  -7 3440.12  119.77
   2  -6  -7 3215.93  106.95
   5  -2   4  962.48   45.27
  -5   2  -4  926.89   31.77
   7   0  -5   10.14   14.23
  -7   0   5    4.22   16.37
   7   0  -5    9.13   12.66
  -7  -1  -4  879.96   33.17
  -7  -7  -2  869.42   32.90
   7   7   2  875.80   29.91
   7   7   2  868.32   32.29
  -7  -7  -2  855.37   32.13
  -7  -7  -2  821.02   38.22
  -4  -2   9  145.98   21.37
   4   2  -9  158.46   22.62
   1   6  -4  994.43   36.17
   1   6  -4 1029.51   34.56
  -1  -6   4 1032.85   31.86
  -1  -6   4 1037.00   44.80
  -5  -3  -9  370.60   23.33
  -5  -3  -9  339.32   25.64
  -5  -3  -9  385.30   20.51
   5   3   9  391.33   29.68
   5   3   9  364.91   26.28
   3  -3 -10  873.71   38.70
   3  -3 -10  880.13   28.55
  -3   3  10  887.87   33.58
   0  -1  10  305.44   19.48
   0   1 -10  306.37   26.22
   0   1 -10  267.21   23.70
   0  -1  10  317.26   26.93
   0   1 -10  288.05   19.56
   2   8   6 1493.42   70.87
  -2  -8  -6 1583.39   58.89
   2   8   6 1617.25   60.19
  -2  -8  -6 1576.30   63.23
  -6  -4  -8 4117.67  131.70
   6   4   8 4563.13  159.32
  -6  -4  -8 4268.85  144.74
   6   4   8 4321.26  147.18
   7   7   3 1295.08   51.23
  -7  -7  -3 1286.84   57.68
   7   7   3 1250.59   32.48
  -7  -7  -3 1272.66   51.75
  -7  -7  -3 1237.88   35.25
   4   1   9  616.63   30.97
  -4  -1  -9  746.43   30.28
   4   1   9  759.14   39.25
  -4  -1  -9  655.05   34.07
  -4  -1  -9  645.08   25.92
   8   4  -2 2360.34   85.44
  -8  -4   2 2189.80   75.71
  -8  -4   2 2296.41   88.81
   1  -7  -3  264.95   19.59
   1  -7  -3  263.21   24.38
  -1   7   3  275.29   20.57
  -1   7   3  270.53   28.60
  -6  -5   5  482.78   32.85
   6   5  -5  491.77   28.20
  -6  -5  -8 1065.03   33.59
  -6  -5  -8 1056.71   39.45
   6   5   8 1138.97   43.83
  -1   7   5 1152.16   33.72
   1  -7  -5 1196.33   40.57
   1  -7  -5 1130.58   37.35
  -1   7   5 1086.42   46.96
  -7  -6   2 1558.52   63.03
   7   6  -2 1480.28   57.82
  -7  -6   2 1567.75   66.23
  -7  -6   2 1430.83   56.71
  -7  -6   2 1370.69   53.65
  -6   1   7  506.70   30.55
   6  -1  -7  436.33   29.47
   6  -1  -7  490.72   26.88
   6  -1  -7  457.25   22.16
  -3  -6 -10  652.40   28.34
   3   6  10  635.50   34.88
   4   5  10  863.56   38.38
  -4  -5 -10  860.00   30.07
  -4  -5 -10  807.52   29.08
   4   5  10  899.05   41.73
  -4  -5 -10  854.27   35.57
  -7   1   2 1918.62   68.26
   7  -1  -2 2045.36   86.23
   7  -1  -2 2051.92   71.90
   1  -6   2    7.99   18.27
  -1   6  -2    4.90   14.25
   1  -6   2   -4.47   11.09
  -1   6  -2    5.07   13.11
  -2  -7  -9   62.41   13.77
   2   7   9  -13.93    9.79
   2   7   9   53.65   14.16
  -4  -3 -10  968.32   33.76
   4   3  10 1088.48   46.81
   4   3  10  961.41   41.35
  -4  -3 -10  968.88   31.67
  -4  -3 -10  954.59   39.98
   2  -6   0 1190.64   46.81
  -2   6   0 1215.90   33.43
  -2   6   0 1308.31   51.66
   2  -6   0 1293.22   51.77
   3   1 -10  774.04   37.80
  -3  -1  10  627.92   35.03
  -3  -1  10  770.11   30.19
  -2   2  11  206.25   21.45
  -2   2  11  222.33   17.87
   2  -2 -11  228.80   25.90
   2  -2 -11  203.27   16.03
   3   7   9  531.23   31.99
   3   7   9  579.32   25.53
  -3  -7  -9  577.60   25.18
   8   5   3  201.54   15.81
  -8  -5  -3  183.64   17.07
  -8  -5  -3  188.74   22.81
  -8  -5  -3  159.68   17.07
  -7  -3  -6  388.14   26.20
  -7  -3  -6  441.35   24.54
   7   3   6  490.26   35.71
  -7  -3  -6  421.79   21.51
   5  -3  -7   84.44   13.74
   5  -3  -7   69.23   16.93
   5  -3  -7   81.31   14.31
   5  -3  -7   83.51   12.79
   5  -3  -7   83.87   19.83
  -5   0  -7  437.57   25.45
  -5   0  -7  417.87   20.61
   5   0   7  478.65   32.91
  -5   0  -7  470.97   25.03
   7  -1  -1    7.15   10.00
   7  -1  -1   10.67   20.52
  -7   1   1   11.68   10.95
  -7  -7  -1  439.97   29.33
  -7  -7  -1  447.50   24.79
   7   7   1  450.71   24.00
  -7  -7  -1  422.77   22.55
  -5  -4   7    8.73   12.16
  -5  -4   7    9.98   12.47
   5   4  -7   10.88   16.92
  -5  -4   7   11.07   17.16
  -5  -8  -1    1.94    8.78
  -5  -8  -1    1.73   10.05
   5   8   1    1.13   13.20
  -5  -8  -1   30.31   16.85
   7  -1  -3  146.37   14.68
  -7   1   3  144.11   13.86
   7  -1  -3  150.68   25.99
   2  -1 -11  769.39   37.83
   2  -1 -11  776.10   29.62
  -2   1  11  734.21   38.04
  -2   1  11  802.49   32.32
   4  -3  -9 1525.66   64.72
   4  -3  -9 1537.25   55.71
  -8  -5   1  359.33   27.97
   8   5  -1  371.92   21.94
  -8  -5   1  380.50   25.58
  -8  -5   1  345.50   20.07
   6   3  -7 2880.62  104.58
  -6  -3   7 3069.01  113.60
   5   0  -9 4024.28  139.63
  -5   0   9 4092.45  144.03
   8   3   3    5.80   11.78
  -8  -3  -3    7.34   16.62
  -8  -3  -3    7.55   11.81
  -1  -5   6  539.12   23.01
   1   5  -6  515.15   28.40
   1   5  -6  542.63   25.08
   7   7   4  280.41   20.55
   7   7   4  282.56   18.06
  -7  -7  -4  274.30   20.57
  -7  -7  -4  274.27   19.16
  -7  -7  -4  269.94   26.63
  -5  -1  -8  479.74   22.67
  -5  -1  -8  545.34   27.99
   5   1   8  563.17   34.94
  -5  -1  -8  471.73   28.90
   0   4  -7  115.33   16.20
   0  -4   7  120.37   13.86
   0   4  -7  107.99   17.93
   0  -4   7  107.31   21.73
   5   7   8 1428.82   59.51
   5   7   8 1460.67   53.98
  -5  -7  -8 1400.11   57.84
  -8  -3   3  108.75   17.10
   8   3  -3  105.92   15.13
  -8  -3   3   96.87   10.87
  -8  -3   3  115.18   21.73
  -2  -2 -11    4.63   12.11
   2   2  11    1.30   13.53
   2   2  11    0.33    9.89
  -2  -2 -11    7.84   16.59
  -7  -2   6  970.55   49.97
   7   2  -6  932.57   44.40
   7   2  -6  946.71   42.24
  -7  -2   6 1016.26   48.71
   3   8   7  259.54   20.52
   3   8   7  252.39   25.64
  -3  -8  -7  242.49   21.38
   5  -3   2  970.54   50.68
  -5   3  -2  942.45   38.38
   1  -6  -9   14.65   12.58
  -1  -1 -11  569.78   32.20
  -1  -1 -11  634.26   28.53
   1   1  11  628.58   34.85
  -4   2  -6 1864.54   68.10
  -4   2  -6 1970.70   69.81
   1  -7  -2   49.63   19.37
  -1   7   2   42.53   14.76
   1  -7  -2   44.43   15.60
  -1  -5 -11 2377.15   79.46
  -7  -1   6  183.47   20.18
   7   1  -6  168.52   20.34
  -7  -1   6  175.88   21.80
   7   1  -6  183.63   17.97
  -7  -6  -6  879.62   43.75
   7   6   6  965.05   39.48
  -7  -6  -6  832.21   35.78
  -7  -6  -6  850.65   37.48
   6  -2  -6 1148.81   45.50
   6  -2  -6  902.28   43.82
   6  -2  -6 1162.60   46.94
   6  -2  -6 1096.25   56.73
   6  -2  -6 1061.55   47.32
  -2   0 -10  580.65   35.85
   2   0  10  589.30   31.69
  -2   0 -10  480.64   29.56
  -2   0 -10  514.72   25.91
   2   0  10  519.85   33.26
  -3  -1 -10  279.33   24.06
  -3  -1 -10  279.17   18.11
   3   1  10  247.29   20.95
   3   1  10  311.58   27.45
  -3  -1 -10  289.94   22.10
   1  -4 -11   97.81   14.77
   1  -4 -11  109.19   20.96
  -1   4  11  120.30   15.55
   0  -7  -8 1037.82   41.78
   0   7   8 1017.21   49.66
   7   4  -5  118.65   20.72
  -7  -4   5  146.99   23.73
  -7  -4   5  130.74   19.12
   1   8   4  706.57   42.82
  -1  -8  -4  669.72   33.31
  -3   4  -4   51.74   14.57
   3  -4   4   56.78   20.29
  -3   4  -4   57.49   12.49
   3  -4   4   65.94   14.71
  -8  -2  -2  178.52   16.95
   8   2   2  194.57   16.33
  -4   4  -2 1802.93   64.30
   4  -4   2 2047.35   84.07
   4  -4   2 2047.35   84.07
  -4   4  -2 1885.85   66.54
  -8  -2   3  332.80   18.54
  -8  -2   3  357.26   28.58
  -8  -2   3  368.39   25.56
   8   2  -3  348.37   23.26
   1  -7  -6   46.45   15.00
   1  -7  -6   50.86   15.87
  -1   7   6   42.08   15.20
  -1   7   6   54.78   13.48
   5   6   9 1419.13   53.14
  -5  -6  -9 1238.77   46.93
  -5  -6  -9 1210.82   47.05
   5   6   9 1300.21   56.55
  -5  -6  -9 1357.25   56.57
  -5  -5   6 2759.44   91.57
  -5  -5   6 2803.60  103.41
   5   5  -6 2995.40  103.05
   4  -1 -10 1917.06   75.65
  -4   1  10 1964.91   70.42
  -4   1  10 1891.70   76.65
   5   8   6 1063.25   43.60
  -5  -8  -6 1026.74   40.41
   5   8   6 1125.11   51.22
  -5  -8  -6 1070.18   49.39
   3  -5  -8  292.00   18.67
   3  -5  -8  311.45   20.59
  -2  -5 -11 2399.23   86.13
  -2  -5 -11 2438.73   81.24
   2   5  11 2500.51   93.92
   2   5  11 2370.95   91.63
  -2  -8  -1  591.61   33.35
  -2  -8  -1  627.62   29.09
   7   5  -4   79.83   17.45
  -7  -5   4  117.49   22.45
  -1  -8  -5 2093.22   72.25
   1   8   5 2137.46   88.83
  -1  -8  -5 2146.66   78.72
   5   3  -8 1952.42   72.62
   5   3  -8 1693.69   67.55
   5   3  -8 1706.23   68.00
  -5  -3   8 1753.05   73.32
   6   3   8  817.31   40.33
  -6  -3  -8  798.34   37.89
  -6  -3  -8  802.93   29.90
  -3  -6   5 1046.59   44.36
  -3  -6   5 1079.89   41.77
   3   6  -5 1058.52   46.26
   7  -1   0  299.22   30.39
  -7   1   0  295.25   19.38
  -5  -1   9 1448.20   64.54
   5   1  -9 1319.27   58.36
  -4  -8   0  129.60   21.22
  -4  -8   0  114.45   14.83
   4   8   0  101.19   17.01
  -4  -8   0  106.85   12.19
   4   8   7  590.00   27.53
  -4  -8  -7  558.38   30.78
   4   8   7  541.25   32.34
  -2   3  -7  300.92   22.63
   2  -3   7  313.57   23.72
  -2   3  -7  297.12   22.00
   2  -3   7  288.19   26.71
   4   0 -10 1318.10   58.26
  -4   0  10 1325.45   60.39
  -4   0  10 1282.56   51.07
  -4   5   3  199.45   17.07
   4  -5  -3  204.43   28.30
   4  -5  -3  190.57   19.30
   4  -5  -3  187.62   15.98
   4  -5  -3  175.21   17.37
   1   8   3   37.36   14.62
  -1  -8  -3   42.05   16.92
   1   8   3   29.94   19.14
  -5   1   9  432.10   29.81
   5  -1  -9  428.13   30.47
   5  -4  -3   12.54   14.56
  -5   4   3    4.86   10.30
   5  -4  -3   14.02   12.49
   5  -4  -3    6.08   22.28
  -4  -7   3  316.28   18.60
   4   7  -3  296.76   22.02
  -4  -7   3  324.40   20.68
  -4  -7   3  317.33   28.48
   4  -5  -4    6.60    9.90
   4  -5  -4    4.57   11.75
  -4   5   4    4.32   11.58
   4  -5  -4   16.73   14.29
   4  -5  -4    9.31   18.73
   2  -3 -11  795.70   30.59
   2  -3 -11  783.21   39.00
  -2   3  11  858.37   39.34
   1   7   9    2.32   11.26
   1   7   9    2.52   11.25
   1   7   9    9.94   13.36
  -1  -7  -9    2.53   12.33
  -3  -7   3   54.93   13.09
  -3  -7   3   45.03   10.77
   3   7  -3   46.75   14.71
  -3  -7   3   68.49   21.52
  -5   1  -6   -0.20   12.99
   5  -1   6   -7.84   17.90
  -5   1  -6    0.37    9.81
  -6  -7  -7  227.88   19.04
   6   7   7  240.99   21.30
  -6  -7  -7  230.91   22.53
   6   7   7  237.03   18.77
  -6  -7  -7  224.33   16.57
   6   8   3 1560.83   57.56
  -6  -8  -3 1571.20   65.05
   6   8   3 1565.42   56.78
  -6  -8  -3 1487.52   54.22
   7  -1  -4    7.13   21.82
   7  -1  -4   -1.30   11.49
   7  -1  -4    3.88   12.54
  -4  -6   5   47.07   11.90
  -4  -6   5   42.36    9.97
   4   6  -5   55.10   16.72
   4  -4  -8 1645.02   58.91
   4  -4  -8 1511.41   61.64
   4  -4  -8 1668.42   59.83
  -6   1  -4  331.88   18.70
  -8  -1   1   73.51   20.11
  -8  -1   1   72.28   12.64
   2   8   7   44.04   14.48
  -2  -8  -7   40.00   13.77
   2   8   7   41.59   17.20
  -2  -8  -7   29.70   13.56
   0   6  10  380.35   22.42
   0  -6 -10  346.93   20.23
  -8  -4  -4 2262.94   83.62
  -8  -4  -4 1951.10   70.92
  -8  -4  -4 1970.93   75.24
  -8  -4  -4 1970.63   75.20
   8   4   4 2253.26   75.84
  -8  -4  -4 1863.97   70.33
  -7  -7   0   34.56   18.33
   7   7   0   33.23   13.88
  -7  -7   0   32.04   12.63
   5  -4  -4 1039.76   46.69
   5  -4  -4 1135.41   47.52
  -5   4   4 1125.06   44.17
   5  -4  -4 1092.18   55.24
   6   6   8    2.86   12.30
  -6  -6  -8    1.35    8.88
  -6  -6  -8    7.12   14.48
  -6  -6  -8    6.49   14.74
   6   6   8    5.82   13.90
  -3  -8   0    0.42   17.42
  -3  -8   0   13.25   12.33
   3   8   0   14.58   14.06
   4   7   9 1801.26   72.18
  -4  -7  -9 1838.88   63.98
   4   7   9 1875.76   66.44
  -7   0  -3  521.48   25.69
   7   0   3  556.28   36.77
  -5   4   2 2412.26   80.20
  -5   4   2 2375.92   78.84
   5  -4  -2 2620.52   99.48
  -1   0  11 1040.89   51.43
  -1   0  11 1078.26   43.22
   1   0 -11 1076.01   43.68
   1   0 -11  863.79   43.36
  -1  -7   2   48.86   18.17
  -1  -7   2   40.71   15.42
   1   7  -2   34.68   13.89
   3   4  11 1526.16   64.13
  -3  -4 -11 1523.25   62.92
  -3  -4 -11 1498.51   54.84
   3   4  11 1655.71   69.33
  -6  -8  -4  159.25   14.96
   6   8   4  174.40   18.06
  -6  -8  -4  164.24   22.52
  -1   2  -9 2530.25   91.16
  -1   2  -9 2779.85   92.09
   1  -2   9 2861.27  102.62
   6   1  -8  113.39   21.60
   6   1  -8  117.53   15.17
  -6  -1   8  113.12   20.96
   8   6   2  810.97   27.03
  -8  -6  -2  841.22   38.83
  -8  -6  -2  864.78   44.80
  -8  -6  -2  692.15   31.52
  -3   3  -6 3103.68   57.74
  -3   3  -6 3092.31  101.14
  -8  -5  -4   81.64   15.33
   8   5   4   92.25   12.98
  -8  -5  -4   80.35   13.66
  -8  -5  -4   96.07   18.94
  -8  -1   2   14.26   16.74
  -8  -1   2    8.65   10.00
   6   6  -4   12.27   17.89
  -6  -6   4    8.92    9.39
  -6  -6   4   34.10    9.02
  -8  -1   0   36.86   11.21
   8   1   0   53.33   24.35
   8   1   0   32.89   11.56
  -8  -6  -1  702.20   31.55
  -8  -6  -1  743.92   38.57
   8   6   1  712.37   29.38
  -8  -6  -1  592.71   28.89
  -6  -8  -2  712.53   28.44
   6   8   2  736.87   30.80
  -6  -8  -2  775.55   36.91
   6   8   2  765.05   29.84
  -6  -7   2 1458.42   61.41
   6   7  -2 1371.87   53.28
  -6  -7   2 1371.96   51.30
  -6  -7   2 1316.52   48.37
  -8  -4   3  517.03   32.07
  -8  -4   3  545.64   34.03
   8   4  -3  537.62   28.83
  -8  -4   3  421.36   20.53
  -4   5   2 3030.43   98.08
   4  -5  -2 2973.17   99.86
   4  -5  -2 3033.80  112.43
   0  -5 -11  945.03   44.94
   0  -5 -11  906.26   37.46
  -7  -7  -5    5.95   18.47
  -7  -7  -5    4.15   12.27
  -7  -7  -5    4.16    9.62
   7   7   5    6.00   11.66
  -4   5   5    2.62   11.82
   4  -5  -5   -0.64   13.39
   4  -5  -5   -3.18   11.07
   4  -5  -5    2.98   17.03
   6   0  -8  752.31   38.99
  -6   0   8  823.54   44.96
   6  -2   2    4.72   19.16
  -6   2  -2   11.45    8.33
  -6   2  -2    7.75   13.72
  -7  -3   6 1279.89   58.52
  -7  -3   6 1284.65   57.28
   7   3  -6 1290.42   55.47
  -1  -8  -6  238.77   18.35
   1   8   6  254.35   26.56
  -1  -8  -6  249.03   22.28
   2   3  -9 1920.88   67.03
  -2  -3   9 1977.25   79.39
  -2  -3   9 1951.32   67.11
  -8  -5   2  836.47   42.08
   8   5  -2  792.92   32.45
  -8  -5   2  771.40   29.24
  -4  -6 -10   49.73   13.75
   4   6  10   64.78   16.93
   4   6  10   54.40   14.53
   4   6  10   54.44   14.22
   3   3  11    6.97   10.83
  -3  -3 -11    8.21   15.73
  -3  -3 -11    1.30   13.86
   3   3  11   10.71   15.10
   2  -6  -8  156.61   16.20
  -2   6   8  172.54   17.16
   5   8   0  250.10   19.80
   5   8   0  249.02   19.61
  -5  -8   0  230.17   23.37
  -5  -8   0  217.27   16.97
  -5  -8   0  208.41   14.60
   2   6  -5  141.42   18.36
   2   6  -5  136.98   15.61
  -2  -6   5  147.58   14.45
   0   7  -1   10.73   13.77
   0  -7   1   16.05   14.49
   0  -7   1    0.93   18.02
  -8  -6  -3   -0.31   18.31
  -8  -6  -3    0.93   11.74
  -8  -6  -3    7.64   11.20
   8   6   3   -2.14   11.51
   8   6   3   -1.30    8.76
  -1  -8  -2  260.44   24.69
   1   8   2  246.62   20.43
  -1  -8  -2  249.01   21.59
   2   0 -11  123.62   14.00
  -2   0  11  131.71   13.86
  -2   0  11  108.38   17.91
   2   0 -11  115.66   20.63
   3   4  -8   51.25   19.86
  -3  -4   8   60.93   21.46
   3   4  -8   51.17   11.43
  -3  -4   8   65.56   10.58
  -4   2  10  110.55   18.00
   4  -2 -10  115.19   12.30
   4  -2 -10  109.86   22.56
  -4   2  10  109.52   13.32
  -5  -2  -9  297.89   24.26
  -5  -2  -9  291.12   18.01
  -5  -2  -9  343.34   22.86
   5   2   9  308.43   27.21
   1  -1  10  960.97   47.33
  -1   1 -10 1010.26   49.99
  -1   1 -10  888.71   44.10
  -1   1 -10  924.62   39.98
  -1   7   1 2832.09   93.10
   1  -7  -1 2819.56   95.39
   1  -7  -1 2683.35   98.15
  -4  -2 -10  757.35   28.69
   4   2  10  878.23   46.25
  -4  -2 -10  829.65   43.01
  -4  -2 -10  882.70   38.44
   4   2  10  761.17   36.55
  -7   0   6 1890.19   75.36
   7   0  -6 1816.54   68.18
   7   0  -6 1578.52   63.30
   0   0 -11  915.94   39.04
   0   0  11  931.41   38.94
   0   0  11  939.60   46.15
   0   0 -11  890.04   45.44
  -3  -3   9  401.32   21.38
  -3  -3   9  336.76   28.99
   3   3  -9  332.29   26.90
   5  -4  -5  238.08   27.77
   5  -4  -5  245.72   19.91
   5  -4  -5  213.68   20.58
   5  -4  -5  241.35   21.84
   5  -4  -5  223.41   16.98
   1  -3   8   12.20   17.94
  -1   3  -8   11.17   14.23
  -1   3  -8    4.56   14.30
   2   4  -8  455.20   23.76
  -2  -4   8  479.49   34.68
  -2  -4   8  489.09   23.42
  -7  -5  -7  531.38   31.07
  -7  -5  -7  480.19   26.57
  -7  -5  -7  504.43   26.88
  -7  -5  -7  484.96   22.65
   5   7  -3  630.81   30.74
  -5  -7   3  656.96   25.95
  -5  -7   3  607.13   26.67
  -5  -7   3  624.91   36.04
  -8  -6   0  324.09   27.89
  -8  -6   0  314.44   22.84
   8   6   0  313.44   20.73
  -8  -6   0  275.68   19.71
   6   8   5  110.34   15.82
  -6  -8  -5  132.49   23.55
  -6  -8  -5  106.81   13.38
   3  -6  -4  658.37   30.76
  -3   6   4  607.96   35.65
   3  -6  -4  616.36   38.51
  -3   6   4  672.53   28.18
   3  -6  -4  628.39   26.81
  -1   7   7 2398.53   91.20
   1  -7  -7 2426.59   81.35
  -1   7   7 2570.99   85.28
   3   5  11 3008.61  108.38
  -3  -5 -11 2791.43   97.82
  -3  -5 -11 2803.46   91.58
   3   5  11 2838.95  102.02
   7   4   7 1402.10   65.03
  -7  -4  -7 1219.11   47.70
  -7  -4  -7 1210.94   52.78
  -7  -4  -7 1275.60   51.42
  -8  -1   3  744.34   38.12
  -8  -1   3  634.39   25.54
   5  -4  -1  316.24   29.00
  -5   4   1  321.07   19.26
  -5   4   1  328.76   21.41
   3  -5   2  211.82   26.81
   3  -5   2  211.82   26.81
  -3   5  -2  220.74   17.51
  -3   5  -2  216.94   19.12
  -8  -3  -4 1269.34   50.82
   7  -1   1 2200.37   87.70
  -7   1  -1 2031.47   70.16
  -2   6  -1  146.66   15.90
   2  -6   1  152.91   25.86
  -2   6  -1  129.33   15.95
   2  -6   1  144.43   16.63
   8   1   1  108.10   25.80
  -8  -1  -1  108.51   14.00
   8   1   1  111.80   13.52
   3  -6  -3 1111.75   43.67
   3  -6  -3 1096.86   55.69
  -3   6   3 1162.88   45.78
  -3   6   3 1115.27   55.27
   3  -6  -3 1182.82   48.74
  -2  -7   3  130.39   18.56
   2   7  -3  130.87   17.49
  -2  -7   3  115.75   24.10
  -6   3   3  229.54   16.75
   6  -3  -3  269.22   29.79
  -6  -8  -1    2.17   10.88
   6   8   1   -0.80   14.35
  -6  -8  -1    3.99   16.72
   6   8   1   -1.27    9.97
   8   2   3  222.28   31.65
  -8  -2  -3  183.17   16.88
  -8  -2   4 2032.47   77.82
   8   2  -4 2133.73   78.47
  -8  -2   4 2064.06   80.08
   6   2  -8   21.00   12.87
   6   2  -8   26.84   17.25
  -6  -2   8   24.76   19.50
  -4  -1  10  555.94   34.88
   4   1 -10  603.22   34.52
  -1   5  -5 1319.97   51.82
  -1   5  -5 1272.28   50.93
   1  -5   5 1363.03   60.45
  -8  -3   4 1312.50   58.09
  -8  -3   4 1355.71   59.81
   8   3  -4 1391.59   56.95
  -7  -2  -6  251.23   21.07
   7   2   6  273.12   28.19
   6  -3  -2   -4.76   21.76
  -6   3   2   -6.16   11.05
   6   1   7   29.26   18.03
  -6  -1  -7   20.58   10.97
  -3   6   5    7.32   11.37
   3  -6  -5   15.11   13.13
   3  -6  -5    2.77   19.03
  -3   1  11  102.21   17.43
   3  -1 -11  113.59   20.56
  -3   1  11  101.37   14.10
  -5  -6   5   27.18    8.92
  -5  -6   5   24.13   10.24
   5   6  -5   39.02   17.04
  -1  -3   9 2180.55   73.33
  -1  -3   9 2347.87   88.88
   1   3  -9 2001.63   76.08
   1   3  -9 2214.38   75.69
   2   2 -10  891.30   45.03
   2   2 -10  796.56   31.38
  -2  -2  10  818.47   39.57
  -2  -2  10  872.55   37.44
  -5  -8  -7 1001.22   47.46
   5   8   7 1014.75   48.61
  -5  -8  -7  934.29   38.48
   5   8   7 1038.48   42.96
   7  -1  -5  906.54   43.66
   7  -1  -5 1105.04   45.71
   7  -1  -5 1109.14   58.19
   7  -1  -5 1024.94   45.80
  -4   5   1  612.53   26.11
  -4   5   1  559.51   25.44
   4  -5  -1  618.24   39.60
   3   8   8   -4.57   14.05
   3   8   8    0.63   13.47
  -3  -8  -8    6.17   13.03
  -7  -1  -5   12.31   14.10
  -2  -8   0   82.38   21.53
  -2  -8   0   84.85   16.03
   2  -5 -10  416.11   28.30
   2  -5 -10  421.62   28.60
   2  -5 -10  407.14   20.96
   4  -5  -6  930.48   40.56
   4  -5  -6  945.18   51.16
   4  -5  -6  863.22   36.46
  -4   5   6  924.49   38.52
   6  -3  -4 1485.35   67.03
   6  -3  -4 1644.15   61.48
   6  -3  -4 1528.15   61.88
   6  -3  -4 1323.69   53.77
   6  -3  -4 1509.83   54.77
  -7  -7   1 1861.93   63.61
  -7  -7   1 1867.57   66.95
  -7  -7   1 2091.17   80.08
   7   7  -1 2019.16   71.03
   3  -2 -11 2120.38   81.32
  -3   2  11 1905.00   75.51
   3  -2 -11 2181.60   73.03
  -3   2  11 2171.15   76.92
   0  -6   4 2792.88  101.95
   0   6  -4 2811.54   94.02
   0   6  -4 2757.97   92.80
   3  -4 -10  424.95   30.26
   3  -4 -10  421.59   21.10
  -3   4  10  405.23   22.81
   5   2  -9    5.55   12.71
  -5  -2   9   16.73   18.59
   5   2  -9  -11.29   20.77
   5  -3  -8  430.26   29.37
   5  -3  -8  469.22   22.74
   4   4  -8   11.75   16.71
  -4  -4   8    7.32    8.85
  -4  -4   8    6.18   16.96
   8   6   4   27.27   11.34
  -8  -6  -4   23.98   14.22
  -8  -6  -4   36.18   18.53
   8   6   4   24.28   11.41
  -8  -6  -4   31.58   11.41
   5  -2  -9  211.91   23.99
   2   1  11 5219.98  173.56
  -2  -1 -11 5277.25  167.84
  -2  -1 -11 5014.53  164.64
  -6   0  -6   22.31    9.10
  -6   0  -6   23.25    8.71
   6   0   6   19.62   19.78
   6  -2  -7 1100.91   50.84
   6  -2  -7 1340.80   51.20
   6  -2  -7 1336.77   63.01
   6  -2  -7 1327.01   50.87
   1   2 -10  693.34   34.75
  -1  -2  10  752.12   37.55
   1   2 -10  674.46   27.24
   1   2 -10  660.50   33.01
  -1  -2  10  713.22   26.11
   3  -6  -2  540.00   26.48
   3  -6  -2  497.44   35.98
  -3   6   2  492.76   23.00
   3  -6  -2  467.63   21.98
   1   8   7  477.55   23.21
  -1  -8  -7  465.89   22.18
   1   8   7  473.56   30.92
   3   5  -7 1621.02   64.44
  -3  -5   7 1701.16   72.58
  -3  -5   7 1791.26   62.52
   3   5  -7 1674.80   59.90
   6  -1  -8  781.68   35.33
  -6   1   8  812.37   36.55
   0   5  -6  933.18   42.64
   0   5  -6  942.18   40.66
  -4  -8   1  486.06   20.02
   4   8  -1  534.25   25.57
  -4  -8   1  504.10   30.97
  -4  -8   1  468.22   21.96
  -4  -8   1  504.10   30.97
  -7  -6  -7   14.52   13.28
   7   6   7   23.14   11.91
  -7  -6  -7   11.48   18.28
  -7  -6  -7   17.25    9.98
  -2   5  -4 2790.02   93.83
  -2   5  -4 2804.05   93.59
   2  -5   4 3014.05  102.53
   2  -5   4 2777.56  103.43
  -4  -8  -8   18.18   14.64
   4   8   8    5.26   13.98
   4   8   8    8.09   14.43
  -2  -8  -8   31.69   13.19
   2   8   8   37.62   15.73
   2   8   8   32.34   14.58
  -1   6  -3 1442.66   54.90
  -1   6  -3 1536.44   58.51
   1  -6   3 1499.15   65.14
  -6   3   1    5.04    8.43
  -6   3   1   11.29   11.42
   6  -3  -1    2.86   22.59
   3   2 -10  435.82   28.11
  -3  -2  10  410.22   20.48
  -3  -2  10  365.36   28.68
   3   2 -10  411.54   27.65
   0  -7  -9   17.36   13.24
  -8  -6   1  792.31   29.04
  -8  -6   1  846.22   32.64
   8   6  -1  889.48   30.83
  -8  -6   1  852.63   37.77
   5  -2   5  118.92   24.12
  -5   2  -5  131.00   14.12
  -5   2  -5  131.13   16.78
  -7  -7  -6   93.80   12.60
   7   7   6  102.72   14.33
  -7  -7  -6   84.99   19.11
  -7  -7  -6   95.44   15.89
  -8  -5  -5   35.86   18.93
  -8  -5  -5   18.18   13.63
  -8  -5  -5   29.35   10.90
   2  -4 -11  279.24   24.00
  -2   4  11  292.20   19.63
   2  -4 -11  293.88   18.28
   1   8   1  830.36   30.78
  -1  -8  -1  819.25   30.58
  -1  -8  -1  843.49   37.23
   5  -4  -6  189.49   15.51
   5  -4  -6  150.57   18.68
   5  -4  -6  191.27   16.73
   5  -4  -6  187.33   23.92
   5  -4  -6  172.81   18.61
  -4   3  -5  486.20   22.98
   4  -3   5  513.68   35.11
  -4   3  -5  435.01   22.82
   5  -3   3  981.76   51.31
  -5   3  -3  967.22   39.69
   6   2   8  110.26   22.89
  -6  -2  -8  118.57   12.90
  -6  -2  -8  103.21   16.34
  -6  -2  -8  102.73   17.28
  -1  -4   8  857.93   26.92
   1   4  -8  853.12   29.44
   1   4  -8  784.99   32.94
  -1  -4   8  922.23   47.45
  -8  -4  -5  852.57   36.61
  -8  -4  -5  738.25   33.28
  -8  -4  -5  777.49   30.53
  -8  -4  -5  777.94   31.68
   0   3  12  846.42   38.15
   0  -3 -12  784.90   34.99
   0   3  12  954.53   48.68
   0  -3 -12  921.05   38.62
  -4  -3   9   23.27   19.53
   4   3  -9   22.32   18.31
  -4  -3   9   24.00    8.93
  -2  -7 -10    5.46   13.47
   2   7  10    4.59   17.20
   2   7  10    2.03   17.38
   2   7  10   10.50   13.02
  -2  -7 -10    5.46   13.47
   2   7  10    2.76   17.32
  -5  -4 -10  185.67   20.75
  -5  -4 -10  196.08   16.08
  -5  -4 -10  193.08   18.13
   5   4  10  198.58   20.34
   5   4  10  219.34   24.39
  -2  -6 -11 1019.54   47.29
  -2  -6 -11 1071.69   43.28
   6   8   6 3642.65  123.64
  -6  -8  -6 3592.50  123.04
  -6  -8  -6 3265.62  105.03
   6   8   6 3548.91  114.22
   5   5  10   96.46   18.27
  -5  -5 -10  102.57   15.28
  -5  -5 -10   93.93   16.30
  -5  -5 -10  108.20   13.83
   5   5  10  114.57   18.33
   3  -6  -6 1181.25   57.65
  -3   6   6 1088.28   43.31
   3  -6  -6 1087.40   45.27
  -3  -2 -11 1034.44   43.69
   3   2  11 1113.30   54.66
  -3  -2 -11  916.84   38.39
   3   2  11  940.81   45.55
  -3  -2 -11 1013.85   48.43
  -3   0  11   93.33   14.23
  -3   0  11   86.65   17.92
   3   0 -11   99.29   21.00
   2  -4   6 1279.60   54.13
  -2   4  -6 1228.38   49.26
  -2   4  -6 1166.36   48.62
  -3  -8   1  715.10   27.31
  -3  -8   1  725.63   35.20
   3   8  -1  755.89   29.76
   3   7  10   63.46   14.54
  -3  -7 -10   65.13   13.52
  -7  -3  -7  285.98   16.62
  -7  -3  -7  269.37   20.21
  -7  -3  -7  242.27   21.54
   7   3   7  289.36   27.97
   1  -5 -11  278.29   18.12
   1  -5 -11  301.69   24.77
   4   5  -7 1988.46   75.52
  -4  -5   7 1725.44   73.65
  -4  -5   7 1732.63   63.83
  -4  -5   7 1968.65   68.56
  -8  -1   4 4720.98  157.46
   6   4  -7  888.45   37.45
  -6  -4   7  941.80   49.54
  -2  -5   7 5820.43   96.49
   2   5  -7 5643.16  178.91
  -2  -5   7 6036.71   68.11
   2   5  -7 5547.17  170.57
  -1  -3 -12  376.12   27.71
  -1  -3 -12  392.73   20.85
   1   3  12  418.52   26.83
   5   7   9 2384.24   88.63
  -5  -7  -9 2386.42   87.03
   5   7   9 2348.84   79.78
   5  -4   0  128.93   25.65
  -5   4   0  129.27   15.46
  -5   4   0  139.50   14.24
   8   1   2 1184.39   59.55
  -8  -1  -2 1034.13   42.94
   6  -3  -5   45.81   10.68
   6  -3  -5   57.11   14.73
   6  -3  -5   52.95   22.74
   6  -3  -5   55.38   14.13
   6  -3  -5   54.41   15.68
   3  -5  -9  548.24   29.84
   3  -5  -9  572.31   24.18
  -4   4  -3  924.32   39.34
  -4   4  -3  918.02   39.83
   4  -4   3  969.68   51.66
  -1   0 -11 3172.81  104.06
   1   0  11 3248.79  114.47
  -1   0 -11 2894.20  102.84
   6   5  -6 1292.58   55.27
  -6  -5   6 1303.92   60.22
  -6  -5  -9    6.13    8.80
   6   5   9   -1.41   14.31
  -6  -5  -9   -4.75   13.01
   6   5   9    7.77   15.86
  -7  -1   7   11.22   14.27
   7   1  -7    7.56   16.79
  -7  -1   7   15.35   17.35
   7   1  -7    8.57   11.35
   8   4  -4  113.30   18.03
  -8  -4   4  105.74   23.31
  -8  -4   4   94.14   17.48
   0  -2 -12   59.67   14.03
   0   2  12   46.99   15.02
   0  -2 -12   49.93   17.96
  -1  -6 -11  517.47   22.20
  -8  -5   3  782.35   37.38
  -8  -5   3  849.66   35.18
   8   5  -3  848.80   31.39
   6   8   0 1266.97   50.48
  -6  -8   0 1258.47   56.13
  -6  -8   0 1193.31   46.33
  -6  -8   0 1134.27   42.89
   1  -7   0 1987.86   78.82
  -1   7   0 2021.41   71.23
  -6  -7  -8   50.05   16.87
  -6  -7  -8   62.95   15.33
  -6  -7  -8   57.80   12.76
   6   7   8   53.50   13.64
   6   7   8   53.47   14.67
   1   6  -5    3.68   14.66
  -1  -6   5   -3.39   19.50
   1   6  -5    1.21   14.05
   3  -1   9   11.16   17.43
  -3   1  -9    8.22   13.53
  -3   1  -9   17.57   13.97
  -5  -8   1    4.20   17.13
  -5  -8   1   23.49   11.46
  -5  -8   1   12.44    8.52
   5   8  -1   16.91   13.75
   1  -6 -10  179.94   15.98
   6   4   9  249.73   25.86
   6   4   9  259.92   22.72
  -6  -4  -9  249.76   16.52
  -6  -4  -9  228.69   21.39
  -1   4  -7  341.62   24.29
   1  -4   7  360.44   29.43
  -1   4  -7  342.43   22.27
  -7  -2   7 3157.02  114.49
   7   2  -7 3055.21  106.59
  -4   0  -9 1742.70   69.53
  -4   0  -9 2037.67   73.01
   4   0   9 2174.57   86.66
  -4   1  -8  779.93   32.73
  -4   1  -8  880.10   31.28
   4  -1   8  915.39   49.96
   0  -8  -4 1426.73   59.87
   0   8   4 1359.97   52.31
   0   8   4 1323.99   63.23
   0  -8  -4 1336.53   52.00
  -1  -4 -12  306.49   25.24
  -1  -4 -12  319.54   19.51
   7   0   4   55.86   22.21
  -7   0  -4   61.44   14.81
  -7  -5   5 1049.33   51.54
   7   5  -5 1003.22   45.95
   0   8   5 2904.00  108.94
   0  -8  -5 2966.90   99.04
   0  -8  -5 3123.27  108.40
   0   8   5 3059.48  101.07
   1  -2 -12   39.25   13.18
  -1   2  12   28.52   13.55
  -1   2  12   40.56   13.59
   7   4  -6  282.82   24.62
  -7  -4   6  301.62   28.24
  -1   7   8  607.06   25.47
   1  -7  -8  591.68   25.22
  -7   1  -2  260.88   19.69
   7  -1   2  291.91   28.46
  -4   5   0  229.17   17.66
   4  -5   0  251.19   29.12
   4  -4  -9 2521.06   91.80
   4  -4  -9 2620.69   86.23
   0  -4 -12  234.62   17.87
   1  -3 -12 1324.97   58.48
   1  -3 -12 1451.78   53.08
  -1   3  12 1565.66   59.79
   4  -3 -10  874.95   25.60
   4  -3 -10  882.61   37.93
   3   6  11  775.47   35.28
   3   6  11  915.33   46.80
  -3  -6 -11  901.13   29.79
  -3  -6 -11  852.41   33.63
  -6  -7   3   54.47   21.10
   6   7  -3   57.21   18.16
  -6  -7   3   52.23    9.75
  -6  -7   3   50.52   11.39
   3  -6  -1  101.45   27.54
  -3   6   1  115.18   15.58
   3  -6  -1  102.79   13.06
   3  -6  -1  100.23   18.28
   6  -2   3   60.73   20.78
  -6   2  -3   61.81   14.88
  -6   2  -3   56.20    9.96
   3  -3 -11 2029.52   78.73
   3  -3 -11 2016.17   68.77
  -3   3  11 2102.69   75.72
   1   7  10  103.51   16.42
  -1  -7 -10   89.88   13.89
  -4  -4 -11  129.25   19.63
   4   4  11  145.30   20.21
  -4  -4 -11  138.61   16.30
   4   4  11  137.83   17.65
   0   8   3  187.11   18.85
   0  -8  -3  192.82   19.11
   0  -8  -3  188.01   23.79
  -4   5   7   35.12   12.77
   4  -5  -7   27.11   13.56
   3  -2   8  407.08   31.88
  -3   2  -8  376.52   24.39
  -3   2  -8  381.71   23.30
  -8  -6  -5 1450.59   56.82
  -8  -6  -5 1495.60   57.05
  -8  -6  -5 1492.08   62.73
  -6   3   0 1449.16   54.27
   6  -3   0 1520.85   67.75
  -6   3   0 1465.15   53.95
   8   0  -2 1376.10   66.94
  -8   0   2 1213.31   46.71
   2  -6  -9   83.13   16.28
  -2   6   9   87.96   15.54
   8   0  -1 1789.80   79.52
  -8   0   1 1591.96   58.31
   3   0  10 1480.98   65.75
  -3   0 -10 1239.57   54.42
  -3   0 -10 1358.59   53.06
  -1  -2 -12   13.65   14.95
   1   2  12   21.61   14.09
   1   2  12   16.77   11.95
  -1  -2 -12   11.71   15.42
  -8  -2  -4  136.65   16.36
   7  -1  -6 3493.97  118.98
   7  -1  -6 4527.34  158.62
   7  -1  -6 4012.55  132.45
   0  -3   9 2413.06   90.85
   0   3  -9 2337.98   80.84
   0   3  -9 2009.91   76.71
  -4  -7   4  825.46   40.15
   4   7  -4  858.68   32.00
  -4  -7   4  857.17   26.18
  -4  -7   4  813.50   29.00
  -6   1  -5  498.10   20.94
  -6   1  -5  463.23   21.13
   0  -2  10 1739.48   70.15
   0   2 -10 1595.96   59.90
   0   2 -10 1504.69   62.65
  -8  -2   5   97.06   20.60
  -8  -2   5  101.15   18.46
   8   2  -5  111.00   19.39
  -7  -8  -3 1509.95   63.66
   7   8   3 1411.13   52.55
   7   8   3 1503.74   56.49
  -7  -8  -3 1438.53   54.23
   2  -7  -4 2025.44   73.09
   2  -7  -4 2035.16   80.20
  -2   7   4 2044.27   71.69
  -2   7   4 1868.53   77.94
   5   3  10 1303.68   57.85
   5   3  10 1436.30   63.80
  -5  -3 -10 1357.29   58.67
  -5  -3 -10 1290.11   49.38
  -5  -3 -10 1398.42   54.26
   3  -4   5   63.34   22.99
  -3   4  -5   60.06   14.00
  -3   4  -5   68.34   15.99
  -2  -1  11  127.49   20.40
  -2  -1  11  128.42   14.19
   2   1 -11  136.35   15.69
   4   5  11  365.66   28.01
   4   5  11  359.60   25.55
  -4  -5 -11  338.18   21.04
  -4  -5 -11  355.31   24.29
   1   7  -3   41.07   16.51
  -1  -7   3   28.10   19.80
  -1  -7   3   41.56   14.43
   1   1 -11    0.12   12.77
   1   1 -11    0.42   17.46
  -1  -1  11    4.07    9.60
  -1  -1  11    3.46   14.90
   8   3   5 1440.36   67.68
  -8  -3  -5 1172.31   48.63
  -6  -3   8  970.25   50.70
   6   3  -8  898.75   37.08
   8   7   2  470.79   22.63
  -8  -7  -2  505.49   25.49
  -8  -7  -2  430.67   23.09
  -8  -7  -2  496.04   33.09
   0   7  -2  167.76   17.43
   0  -7   2  186.06   20.43
   0  -7   2  171.82   25.35
   0   8   6   39.26   14.68
   0  -8  -6   44.93   17.24
   0  -8  -6   54.10   15.29
   0   8   6   49.13   17.22
  -3  -7   4  270.04   15.97
  -3  -7   4  261.86   19.47
  -3  -7   4  262.35   28.52
   5   6  10   58.12   15.88
  -5  -6 -10   57.36   13.57
  -5  -6 -10   51.13   14.57
   5   6  10   55.89   15.61
   7   0  -7   91.58   18.67
  -7   0   7  131.36   20.33
  -6  -6  -9   69.07   19.15
   6   6   9   82.79   14.99
   6   6   9   67.97   16.24
  -6  -6  -9   56.25   12.20
  -2   7   5   39.06   15.13
   2  -7  -5   52.00   18.94
   2  -7  -5   53.52   16.36
  -2   7   5   43.76   14.21
  -7  -8  -2  133.45   22.73
   7   8   2  126.57   16.79
  -7  -8  -2  146.00   15.66
   5   0   8 3299.92  119.01
  -5   0  -8 2782.15   91.84
  -5   0  -8 2790.01   98.18
  -5   0  -8 3121.46  104.06
  -2  -4 -12   49.94   17.23
   2   4  12   50.70   14.13
  -2  -4 -12   49.81   15.52
  -4  -7 -10  255.32   20.13
   4   7  10  267.39   20.67
   4   7  10  238.97   21.81
  -8  -7  -3 1566.25   60.16
   8   7   3 1704.28   61.96
  -8  -7  -3 1497.78   57.52
  -8  -7  -3 1680.60   69.68
  -5  -8  -8   16.26   16.95
  -5  -8  -8   15.30   14.31
   5   8   8   28.12   15.39
   5   8   8   18.16   14.13
   1   8   8  340.62   20.56
  -1  -8  -8  318.47   19.96
   1   8   8  313.86   24.83
  -7  -8  -4  957.95   47.35
  -7  -8  -4  923.62   39.71
   7   8   4 1023.78   43.09
  -7  -7   2 1608.23   66.87
   7   7  -2 1494.73   57.73
  -7  -7   2 1473.92   53.25
  -7  -7   2 1451.61   55.54
  -8  -3   5  251.25   23.59
   8   3  -5  236.79   22.88
  -8  -3   5  243.22   25.48
  -2   7   3  830.19   28.49
   2  -7  -3  796.10   30.24
   2  -7  -3  794.42   38.36
   3  -6  -7 1553.23   58.67
  -3   6   7 1524.57   56.49
  -7   2   2    8.32   12.70
   7  -2  -2   25.87   23.37
  -5  -4   8  126.03   17.71
  -5  -4   8  140.28   18.30
  -5  -4   8  124.45   21.84
   5   4  -8  146.92   20.05
  -5  -4   8  125.58   17.78
   8   0  -3    5.24   22.83
  -8   0   3    1.27    9.55
  -8  -6   2  908.88   29.34
  -8  -6   2  938.60   47.69
   8   6  -2  953.98   41.55
   2   3  12  585.22   31.10
  -2  -3 -12  624.58   32.30
   2   3  12  695.30   33.37
  -2  -3 -12  640.42   25.87
   7  -2  -3 1054.81   42.07
  -7   2   3  983.19   39.87
   7  -2  -3 1080.77   57.02
  -5   0  10  845.43   39.88
   5   0 -10  848.91   37.75
   4   9   4 1281.75   49.83
  -4  -9  -4 1249.72   54.78
  -4  -9  -4 1218.74   46.96
  -8  -7  -1   81.88   13.88
  -8  -7  -1   77.05   20.84
  -8  -7  -1   64.95   14.74
   8   7   1   69.03   15.24
  -2   6  -2  145.58   18.07
  -2   6  -2  133.99   15.83
   2  -6   2  137.70   25.33
  -2  -8   1 1950.73   77.69
   2   8  -1 1804.92   66.89
  -2  -8   1 2021.32   73.05
   8   0   0   -0.32   25.35
  -8   0   0   -6.01   11.81
   4   2 -10   12.29   17.05
  -4  -2  10    1.03   17.23
   2  -2   9  937.01   49.86
  -2   2  -9  782.82   33.16
  -2   2  -9  867.52   30.88
   4   1  10   57.58   20.44
  -4  -1 -10   46.34   10.93
  -4  -1 -10   51.25   15.44
  -4  -1 -10   46.24   16.63
   5  -4  -7  499.35   22.46
   5  -4  -7  483.87   29.07
   5  -4  -7  542.07   25.11
   4  -2   7 2205.62   89.18
  -4   2  -7 1988.62   73.14
  -4   2  -7 2032.76   72.59
   6  -3  -6  137.52   17.10
   6  -3  -6  104.23   17.58
   6  -3  -6  132.08   25.46
  -1   1  12   54.03   12.46
   1  -1 -12   50.08   14.39
  -1   1  12   47.74   15.75
   0  -6 -11    6.98   17.15
   0  -6 -11    6.37   11.22
  -7  -6   4   74.07   10.68
  -7  -6   4   74.43   10.72
   7   6  -4   64.01   18.12
  -7  -6   4   72.00   11.68
  -2   1 -10  510.76   28.66
  -2   1 -10  589.88   26.39
   2  -1  10  567.48   32.15
  -1  -8   0  216.87   20.81
   1   8   0  191.35   18.87
  -1  -8   0  208.58   26.14
  -3  -8  -9   48.32   13.89
   3   8   9   63.80   15.07
   3   8   9   43.38   16.30
  -5  -5   7  407.93   21.49
   5   5  -7  447.40   27.19
  -5  -5   7  392.80   30.62
   6   8   7 2658.87   95.71
  -6  -8  -7 2495.52   91.20
   6   8   7 2659.98   89.30
  -6  -8  -7 2466.67   83.40
  -4  -9  -5  252.07   17.91
  -4  -9  -5  254.74   23.15
   4   9   5  267.35   24.87
   4   9   5  262.19   19.96
   1   5  -7 2910.54   96.26
  -1  -5   7 3117.44  112.02
   1   5  -7 2978.85  103.68
  -5  -1  -9 1220.75   49.61
   5   1   9 1280.69   60.04
  -5  -1  -9 1018.07   40.75
  -5  -1  -9 1056.54   48.95
   4   3  11  250.32   22.01
  -4  -3 -11  246.36   16.25
  -4  -3 -11  262.57   19.31
  -4  -3 -11  234.37   21.53
   4   3  11  295.69   26.01
  -4  -9  -3 1997.83   75.59
   4   9   3 2121.25   74.12
  -4  -9  -3 2094.00   72.12
   6   3   9  142.29   23.45
  -6  -3  -9  141.15   13.58
  -6  -3  -9  157.61   19.29
  -6  -3  -9  150.64   18.79
   0   8   2   13.96   14.94
   0  -8  -2   -3.82   18.48
   7   3  -7 3140.18  110.77
  -7  -3   7 3333.56  119.23
  -3  -6   6  684.06   27.29
  -3  -6   6  663.97   39.21
  -3  -6   6  764.23   25.00
   0  -1 -12  117.46   20.84
   0   1  12  145.71   19.67
   0  -1 -12  133.77   16.48
   5  -1 -10   58.12   20.45
  -5   1  10   60.91   16.19
  -3   5  -3  475.16   23.57
   3  -5   3  447.05   34.28
  -3   5  -3  446.55   22.97
  -7  -5  -8 1574.44   51.05
  -7  -5  -8 1585.75   57.28
  -7  -5  -8 1631.02   61.90
   7   5   8 1836.98   78.09
  -3  -9  -4  488.06   28.97
   3   9   4  492.64   24.25
  -3  -9  -4  494.74   22.66
  -8  -1   5   69.68   19.48
   8   1  -5   72.67   17.78
   7  -2  -1  261.58   29.29
  -7   2   1  233.38   17.56
  -5   1  -7    4.55   10.17
  -5   1  -7   -8.59   13.67
   5  -1   7    0.78   18.88
  -4  -6   6  591.04   22.15
  -4  -6   6  541.93   35.12
   4   6  -6  584.84   28.79
  -4  -6   6  493.57   24.20
  -5  -7   4  362.65   17.94
  -5  -7   4  391.72   30.09
  -5  -7   4  340.14   19.53
   5   7  -4  386.42   24.80
  -2   7   6  756.82   36.76
   2  -7  -6  760.82   28.94
   2  -7  -6  818.14   41.48
  -2   7   6  822.85   33.97
   7   7   7   63.53   13.53
  -7  -7  -7   65.83   14.71
  -7  -7  -7   56.31   12.18
  -7  -7  -7   62.89   19.03
  -1  -5 -12  280.42   20.13
  -1  -5 -12  276.87   22.80
  -2   2  12  389.61   26.89
   2  -2 -12  373.87   18.88
   2  -2 -12  420.34   28.59
  -2   2  12  421.45   22.76
  -7  -8  -1  623.84   33.54
  -7  -8  -1  568.40   23.27
   7   8   1  652.57   27.59
  -9  -4   0   75.93   21.90
  -9  -4   0  100.96   12.97
  -9  -4   0  113.53   16.49
  -3  -9  -5  465.40   28.54
   3   9   5  482.55   23.42
  -3  -9  -5  486.76   22.66
   3   9   5  426.01   32.21
   7  -2  -4   67.80   17.09
   7  -2  -4   42.14   24.97
  -8  -7  -4  985.45   39.20
   8   7   4 1040.50   39.41
  -8  -7  -4 1029.37   47.33
  -8  -7  -4  931.44   38.95
  -8  -1  -3 1613.82   54.37
   8   1   3 1800.86   72.07
  -6   0   9 3543.12   76.66
   6   0  -9 3380.03  104.21
   1  -4 -12  374.33   26.75
   1  -4 -12  406.20   22.00
   5  -4   1  237.72   28.58
  -5   4  -1  213.08   17.58
  -5   4  -1  226.82   16.00
  -9  -4  -1  215.72   16.11
  -9  -4  -1  245.06   24.86
  -8  -5  -6  429.52   25.40
  -8  -5  -6  412.01   23.64
  -8  -5  -6  482.50   29.12
  -8  -5  -6  441.56   21.66
   6   1  -9 1463.25   58.60
  -6  -1   9 1512.07   62.17
   2   8   9  278.27   21.21
  -2  -8  -9  263.67   19.05
   0   4  -8  534.31   28.40
   0   4  -8  552.95   24.63
   0  -4   8  606.28   33.54
   6   8  -1   29.89   15.06
  -6  -8   1   26.46   10.02
  -6  -8   1   27.20   12.12
  -6  -8   1   22.20   17.54
  -7  -8  -5   67.10   20.51
  -7  -8  -5   64.81   14.33
   7   8   5   55.87   15.71
  -3  -1  11  642.07   35.75
   3   1 -11  708.88   35.90
  -3  -1  11  728.01   27.35
  -5  -9  -4  160.47   16.07
  -5  -9  -4  163.12   21.86
   5   9   4  159.53   18.56
   0   1 -11  451.02   28.65
   0  -1  11  494.04   29.92
   0   1 -11  469.37   24.74
   2  -7  -2  938.70   46.58
  -2   7   2  968.32   37.76
   2  -7  -2  978.72   40.92
   6  -2  -8   57.03   17.52
   3   9   3 1109.56   42.25
  -3  -9  -3 1027.23   38.48
  -3  -9  -3 1071.30   45.10
   4  -1 -11   90.34   21.41
  -4   1  11   92.84   13.84
  -4   1  11   82.31   16.59
   7   4   8 1738.85   68.66
  -7  -4  -8 1522.33   57.89
  -7  -4  -8 1623.46   52.03
  -7  -4  -8 1735.85   58.32
  -2  -5 -12  163.59   21.03
  -2  -5 -12  180.03   18.33
  -4  -8   2    4.33    9.06
   4   8  -2    6.94   14.92
  -4  -8   2    4.27   12.60
  -4  -8   2    3.80   19.75
  -5  -3   9  167.89   23.40
   5   3  -9  159.72   21.59
  -5  -1  10  149.31   22.51
   5   1 -10  142.26   23.29
   4   8   9   46.96   16.09
   4   8   9   32.02   14.73
  -4  -8  -9   30.73   15.15
   0   8   7  161.95   20.00
   0  -8  -7  177.03   16.95
   0   8   7  161.46   17.57
  -5  -9  -3  185.55   16.23
   5   9   3  193.68   19.67
  -5  -9  -3  183.13   23.41
  -8  -7   0  466.20   29.90
   8   7   0  467.95   24.17
  -8  -7   0  425.47   23.17
  -9  -3   0 1538.50   50.25
  -8   0   4  241.42   24.37
   8   4   6   28.45   21.78
  -8  -4  -6   20.68   12.71
  -8  -4  -6   20.77   15.50
  -2  -7   4   -2.56   13.25
  -2  -7   4   -7.08   18.05
   2   7  -4   -0.08   15.47
  -3   6   0  668.49   26.23
   3  -6   0  672.68   38.66
  -3   6   0  723.57   26.65
  -9  -4   1  175.14   20.32
  -9  -4   1  171.39   14.76
   5  -3  -9   21.10   11.88
   5  -3  -9   25.58   21.00
   7   1   6  949.45   48.19
  -7  -1  -6  859.24   37.35
   4   9   6 1536.22   62.64
  -4  -9  -6 1528.87   56.89
  -4  -9  -6 1487.38   48.83
   4   9   6 1527.63   51.54
   2  -1 -12    6.90   16.99
  -2   1  12    0.61   13.21
  -2   1  12    2.00    9.84
   2  -1 -12    3.73   11.63
   5   9   5  248.39   20.02
  -5  -9  -5  258.42   19.12
  -5  -9  -5  228.52   23.06
  -4  -9  -2   40.08   16.98
  -4  -9  -2   37.81   14.20
   4   9   2   42.18   15.07
  -3   3  -7 2136.53   66.88
   3  -3   7 2186.97   79.42
  -3   3  -7 2068.70   68.22
  -9  -3   1  267.89   17.47
  -9  -3   1  247.51   25.26
  -2   3  -8  239.12   20.68
  -2   3  -8  278.40   20.52
   2  -3   8  281.28   26.24
  -4  -6 -11  635.63   30.00
   4   6  11  638.83   33.80
   4   6  11  614.20   31.09
  -4  -6 -11  667.46   26.14
  -9  -5  -1 1906.14   60.81
  -9  -5  -1 1938.94   69.36
  -9  -5  -1 2047.96   71.99
   7   2   7 1588.74   63.46
  -7  -2  -7 1478.29   53.73
  -7  -2  -7 1481.10   53.80
  -7  -2  -7 1467.77   52.63
  -8   0  -1  133.06   15.38
   8   0   1  117.61   26.19
  -6   3  -1  705.41   24.57
  -6   3  -1  704.95   26.55
   6  -3   1  759.04   39.90
  -2   3  12 2514.79   78.07
   2  -3 -12 2454.90   71.38
   2  -3 -12 2266.76   77.41
  -1   7  -1    2.86   12.75
   1  -7   1   -5.52   22.30
   1  -7   1    4.17   14.28
  -7  -6  -8   24.10   10.59
  -7  -6  -8   32.03   15.46
  -7  -6  -8   26.17   17.70
   7   6   8   32.90   13.32
  -9  -4  -2 1541.49   59.08
  -9  -4  -2 1365.52   48.20
  -8  -5   4  372.34   28.93
   8   5  -4  350.91   24.02
  -3  -9  -6  778.41   33.94
   3   9   6  621.12   36.98
   3   9   6  737.48   27.86
   4   0 -11  112.80   21.16
  -4   0  11  110.46   19.18
  -4   0  11  118.82   14.19
  -9  -3  -1  199.38   16.88
  -9  -3  -1  219.99   24.33
   0  -5 -12   61.24   19.24
   0  -5 -12   71.48   16.99
   4  -5   1   12.44   24.03
  -4   5  -1   13.31   11.20
   2   6  -6  188.37   21.36
   2   6  -6  172.47   15.72
  -2  -6   6  193.78   15.15
  -3  -8   2  631.38   27.42
  -3  -8   2  641.95   35.07
   3   1  11 1051.98   45.41
   3   1  11 1165.99   53.41
  -3  -1 -11 1088.24   46.70
  -3  -1 -11 1192.55   44.71
   0   7  10   60.98   16.21
   0  -7 -10   66.62   14.45
  -9  -5   0   44.58   11.30
  -9  -5   0   45.42   15.60
  -9  -5   0   39.09   19.37
   2   2  12  189.47   21.18
  -2  -2 -12  197.07   19.42
  -2  -2 -12  178.64   21.78
   2   2  12  185.01   20.02
   8   4  -5  581.74   29.64
  -8  -4   5  607.72   34.72
  -5  -8   2  369.14   19.71
  -5  -8   2  393.83   29.05
  -5  -8   2  373.16   17.96
   5   8  -2  390.50   23.16
  -9  -5  -2 2535.82   83.67
  -9  -5  -2 2410.37   74.02
   7  -1   3  596.45   36.40
  -7   1  -3  555.37   24.82
  -7   2   0 2388.63   71.45
   7  -2   0 2453.81   87.67
  -8  -6  -6 1361.36   49.17
  -8  -6  -6 1421.59   55.55
  -8  -6  -6 1343.49   46.74
   2   0  11  650.20   33.37
  -2   0 -11  576.25   30.91
  -2   0 -11  646.39   26.52
   4  -5  -8 1832.25   58.13
   4  -5  -8 1753.93   63.16
   1  -7  -9   41.33   13.57
  -1   7   9   38.56   14.08
  -4   2  11 1683.07   64.95
  -4   2  11 1847.19   61.35
   4  -2 -11 1845.10   67.79
   5  -3   4  130.24   24.03
  -5   3  -4  115.02   16.30
  -5   3  -4  113.19   13.63
  -1  -1 -12 1942.93   68.16
  -1  -1 -12 2013.06   62.73
   1   1  12 2162.62   74.28
   5   9   2   29.38   15.60
  -5  -9  -2   39.85   19.66
  -5  -9  -2   36.69   12.38
   7  -2  -5  897.45   37.60
   7  -2  -5  795.72   45.53
   2  -5 -11  147.00   15.15
   2  -5 -11  153.97   21.53
  -5  -6   6  358.94   20.47
  -5  -6   6  359.02   31.88
   5   6  -6  422.28   26.47
  -5  -6   6  384.34   18.62
  -3  -9  -2  327.99   26.56
   3   9   2  297.51   21.73
  -3  -9  -2  292.65   19.56
   3   4  12  211.87   22.39
  -3  -4 -12  196.61   21.15
  -3  -4 -12  206.32   18.81
   3   4  12  197.27   20.88
   6  -1  -9 1392.36   55.90
  -6   1   9 1528.70   60.96
   2  -7  -7 1889.10   59.63
  -2   7   7 1924.72   60.40
   0  -8  -1  494.99   26.45
   0   8   1  559.29   24.73
   0  -8  -1  566.48   33.97
  -8  -7  -5  139.97   25.32
  -8  -7  -5  147.94   17.54
  -8  -7  -5  145.24   14.69
   8   7   5  145.96   15.18
   7   8   0  258.05   21.47
  -7  -8   0  213.92   14.34
  -7  -8   0  203.28   16.90
  -7  -8   0  224.82   24.55
  -9  -3   2  521.85   31.48
  -9  -3   2  469.81   20.18
  -9  -3   2  484.01   27.77
  -2  -9  -4  207.22   23.55
  -2  -9  -4  196.44   18.75
  -3   6   8  376.47   21.22
   3  -6  -8  374.08   22.14
  -1   6  -4 2798.63   82.48
   1  -6   4 2782.42   93.15
  -1   6  -4 2740.06   81.33
   6   1   8  622.91   35.41
  -6  -1  -8  602.11   27.08
  -6  -1  -8  504.52   27.78
   5  -2 -10  940.53   44.44
  -1   5  -6  155.40   18.39
  -1   5  -6  126.85   17.24
  -6  -2   9  193.29   24.27
   6   2  -9  206.34   24.24
   2   9   5  163.12   18.61
  -2  -9  -5  153.41   21.54
   2   9   5  150.20   25.05
   0   6  -5  570.59   27.01
   0   6  -5  602.26   26.93
   0  -6   5  637.84   35.58
   5   2  10  756.80   37.50
  -5  -2 -10  659.62   24.22
  -5  -2 -10  732.78   28.78
  -5  -2 -10  704.56   33.49
  -5  -9  -6 1705.76   61.76
  -5  -9  -6 1576.64   51.05
   5   9   6 1675.81   54.87
   5   9   6 1838.48   68.16
   3  -4 -11 1320.53   55.04
  -3   4  11 1325.99   47.91
   3  -4 -11 1289.76   43.19
   7  -1  -7   46.64   18.45
  -7   1   7   59.98   19.52
  -6  -7  -9 2005.45   62.41
   6   7   9 2151.16   73.43
   6   7   9 2344.22   69.88
  -6  -7  -9 2312.81   75.98
  -9  -4   2 1510.79   49.45
  -9  -4   2 1438.55   58.72
  -9  -4   2 1608.15   62.04
   3  -5 -10  216.83   17.30
   3  -5 -10  182.86   23.06
  -6   0  -7  546.57   24.49
  -6   0  -7  510.61   25.51
   6   0   7  624.30   35.20
  -7   0  -5 1036.31   41.12
   7   8   6 1367.03   47.61
  -7  -8  -6 1336.60   54.65
  -7  -8  -6 1336.69   47.29
  -9  -5   1   40.36    9.79
  -9  -5   1   56.90   14.73
  -4   4  -4   -0.85    9.36
   4  -4   4   -2.38   22.83
  -4   4  -4    0.44   14.37
   6  -3  -7   87.49   18.31
   6  -3  -7  100.43   24.08
   6  -3  -7  101.74   15.13
  -9  -3  -2   15.55   18.40
  -9  -3  -2   22.85   13.12
   2  -7  -1  415.50   30.71
   2  -7  -1  446.33   25.41
  -2   7   1  434.82   22.99
   8   6  -3    4.31   16.69
  -1   2 -10 1941.76   68.05
   1  -2  10 2178.70   75.21
  -1   2 -10 2077.61   65.58
  -8  -2  -5   73.30   16.79
  -2  -7 -11  554.14   24.28
   2   7  11  595.42   24.72
   1   8   9  749.09   27.49
  -1  -8  -9  732.22   27.02
  -8  -2   6  350.41   25.49
   8   2  -6  343.20   25.41
  -8  -2   6  369.09   28.70
  -5  -7 -10  318.64   21.35
   5   7  10  343.79   21.21
   5   7  10  315.14   23.62
  -2   5  -5  603.94   26.54
   2  -5   5  658.66   37.72
  -2   5  -5  657.08   27.81
  -3  -5 -12  480.58   28.61
   3   5  12  485.99   29.59
  -3  -5 -12  453.64   23.14
   7   1  -8  597.32   32.08
  -7  -1   8  602.33   34.12
  -3  -4   9  150.73   24.00
  -3  -4   9  154.86   13.79
  -9  -5  -3  528.66   31.68
  -9  -5  -3  510.20   25.74
  -5   2  -6 1066.81   40.46
  -5   2  -6 1088.74   42.52
   6  -2   4   12.17   21.85
  -6   2  -4    3.10    7.59
  -9  -4  -3    8.51   17.79
  -9  -4  -3    9.25   12.52
  -8  -7   1 1083.19   41.84
  -8  -7   1 1252.37   52.49
   8   7  -1 1246.05   45.90
   4   9   7 1320.81   57.74
  -4  -9  -7 1462.03   55.64
   4   9   7 1463.02   49.92
  -4  -9  -7 1351.71   45.82
  -2  -9  -3 2348.91   71.52
  -2  -9  -3 2326.34   77.52
  -3  -3 -12   73.18   18.73
   3   3  12   70.65   15.32
  -3  -3 -12   73.89   14.84
   3   3  12   90.36   18.19
   3   9   7  613.08   36.38
   3   9   7  709.61   27.53
   1   0 -12    5.43   12.62
  -1   0  12   -4.32   13.04
   1   0 -12    9.51   16.99
  -1   0  12    3.98   11.28
   5  -4  -8 2374.69   77.78
   5  -4  -8 2604.91   77.05
  -9  -2   1  106.37   13.71
  -9  -2   1  135.06   25.27
  -4  -2 -11   39.60   15.21
   4   2  11   32.14   15.41
  -4  -2 -11   40.89   10.53
   4   2  11   36.67   19.70
  -4  -2 -11   25.39   14.73
  -7  -3  -8  157.58   19.00
   7   3   8  170.26   23.27
  -7  -3  -8  182.41   20.89
  -4  -9  -1    4.29   12.17
  -4  -9  -1    8.85   18.44
   4   9   1   10.79   14.01
  -2  -3  10    2.16   17.22
  -2  -3  10    0.84    9.82
   2   3 -10   -4.69   16.14
  -7  -7   3   36.26   20.97
   7   7  -3   36.30   15.97
  -7  -7   3   23.14   10.21
   3   7  11   79.21   16.50
  -3  -7 -11   76.52   15.64
   3   7  11   91.64   16.34
   3   7  11   79.04   16.41
   6   7  -4  382.38   24.88
  -6  -7   4  351.01   20.02
   2   9   6  228.45   26.84
  -2  -9  -6  241.44   21.74
   2   9   6  247.01   21.11
  -4   3  -6 1896.80   61.25
  -4   3  -6 1895.38   60.77
  -9  -2   0  872.68   34.65
  -6  -9  -4  983.22   36.94
   6   9   4 1061.45   40.20
  -6  -9  -4 1108.95   48.28
  -2  -4   9  229.70   26.21
  -2  -4   9  211.51   15.01
   2   4  -9  197.88   22.07
   2   4  -9  197.76   16.34
  -8   0   5   13.33   15.90
   1  -3   9  744.59   36.32
  -1   3  -9  604.18   29.79
  -1   3  -9  732.38   29.57
   8   3   6  301.36   30.83
  -8  -3  -6  236.03   20.96
  -6  -8  -8  231.26   23.55
   6   8   8  230.28   21.77
   6   8   8  211.87   19.17
  -6  -8  -8  217.79   18.49
   2  -6 -10   24.52   20.96
   2  -6 -10    5.28   13.14
   0  -8  -8   20.04   14.09
  -6  -9  -3   29.59   18.82
  -6  -9  -3   32.00   10.70
   6   9   3   37.29   14.46
   5   8   9   57.37   15.51
   5   8   9   42.93   14.72
  -3  -3  10   25.71   11.03
   3   3 -10   24.25   18.56
  -3  -3  10   26.54   19.89
  -1  -8   1  742.05   30.31
   1   8  -1  743.15   30.22
  -1  -8   1  716.27   37.00
   7   5  -6  226.64   23.57
  -7  -5   6  212.90   26.68
   1  -6 -11  437.01   28.97
   1  -6 -11  427.40   20.52
   4  -4 -10   15.66   19.42
   4  -4 -10   24.32   13.43
   7   2  -8   46.97   20.65
  -7  -2   8   34.84   19.08
   8   0   2  811.36   46.51
  -8   0  -2  757.76   27.38
   8   1  -6   13.31   17.20
  -8  -1   6   24.61   17.13
  -8  -3   6 2212.37   79.84
   8   3  -6 2072.09   69.58
  -2   0  12   61.90   17.85
  -2   0  12   67.99   12.93
  -5  -9  -1  992.72   37.07
  -5  -9  -1 1028.49   46.26
   5   9   1 1118.33   42.03
  -9  -2   2   68.17   11.39
  -9  -2   2   74.03   20.30
  -9  -6  -1  210.73   19.58
  -9  -6  -1  202.34   18.14
  -9  -6  -1  193.99   24.89
  -2  -8   2  721.16   29.03
  -2  -8   2  677.84   35.96
   2   8  -2  713.88   29.56
  -4  -1  11  174.80   23.26
   4   1 -11  230.20   24.51
   6   2   9   10.17   18.56
  -6  -2  -9   -0.49   14.98
  -6  -2  -9    8.10   12.90
  -9  -6  -2 1132.08   45.61
  -9  -6  -2 1016.11   40.86
  -9  -6  -2 1169.71   50.63
  -5  -2  10   20.01   19.76
   5   2 -10   30.23   17.65
  -7  -4   7  769.41   39.87
   7   4  -7  733.36   33.93
  -1   1 -11   95.26   20.54
  -1   1 -11  107.52   16.10
   1  -1  11   97.67   19.72
  -6  -5   7  194.99   25.92
   6   5  -7  233.47   23.54
  -6  -5 -10  130.37   17.51
  -6  -5 -10  118.53   13.85
  -6  -5 -10  127.41   19.21
   6   5  10  127.17   21.63
   6   5  10  129.42   19.37
  -8  -1  -4  596.02   26.84
   8   1   4  644.92   37.85
  -7   0   8 2635.04   89.29
   7   0  -8 2449.15   81.21
  -6  -9  -5    7.06   12.13
  -6  -9  -5   16.81   18.26
   6   9   5   13.22   14.68
   0   7  -3  270.17   20.66
   0   7  -3  259.40   19.80
   0  -7   3  266.07   27.38
   1   7  11  461.46   22.97
  -1  -7 -11  403.93   20.98
   0   5  -7 1474.40   54.14
   0  -5   7 1595.92   62.04
   0   5  -7 1469.18   50.96
   7  -2   1 1917.04   73.90
  -7   2  -1 1943.89   61.25
   5  -4   2  534.43   36.50
  -5   4  -2  506.16   21.79
   3  -2 -12  720.76   36.44
  -3   2  12  722.01   29.07
   2  -4 -12   77.91   13.39
   2  -4 -12   83.08   21.31
  -2  -6 -12  146.77   17.83
  -2  -6 -12  141.08   19.42
  -9  -3   3    1.71   17.38
  -9  -3   3    0.00   11.98
  -9  -3   3    1.17    7.24
   3  -1 -12   76.14   21.53
  -3   1  12   76.10   13.21
  -3   1  12   73.95   16.72
   6   4  -8   30.90   19.69
  -6  -4   8   48.34   20.92
   0   0 -12  554.70   25.46
   0   0  12  611.59   31.37
   0   0 -12  568.92   31.27
   4   4  -9  179.15   24.18
  -4  -4   9  165.02   24.66
  -3  -5   8  470.02   20.64
  -3  -5   8  437.17   32.52
  -3  -9  -1   -0.67   18.43
   3   9   1    5.22   16.03
  -3  -9  -1   -2.77   12.79
  -6  -8   2  142.61   24.55
   6   8  -2  141.00   18.03
  -6  -8   2  127.90   12.76
  -6  -8   2  141.35   15.55
   5   5  11 1206.25   53.15
  -5  -5 -11 1115.08   46.34
  -5  -5 -11 1112.06   41.39
   5   5  11 1126.25   48.79
  -9  -2  -1  939.98   36.11
   1  -5 -12  103.48   21.54
   1  -5 -12   80.38   13.63
  -7  -7  -8   37.25   15.50
  -7  -7  -8   27.94   10.05
  -7  -7  -8   34.29   18.34
   7   7   8   30.48   12.09
  -1   8   4 1182.72   43.42
   1  -8  -4 1167.39   44.61
   1  -8  -4 1224.29   50.99
   6   9   2   55.67   16.71
  -6  -9  -2   57.90   11.98
  -6  -9  -2   66.39   22.59
   5  -5  -4   20.72   22.83
  -5   5   4    6.46   12.07
   5  -5  -4   19.49   16.67
  -1   8   5 1478.44   60.71
   1  -8  -5 1527.01   52.49
  -1   8   5 1544.45   52.44
   1  -8  -5 1617.91   60.86
  -1  -6 -12  -10.01   13.67
   7  -2  -6 2664.53   95.04
   2  -6   3  451.06   33.32
  -2   6  -3  454.21   24.16
  -2   6  -3  451.08   23.37
  -3   6  -1 1018.47   39.41
  -3   6  -1  968.36   37.52
   3  -6   1  986.65   51.17
  -3  -8 -10  148.69   16.74
   3   8  10  157.34   19.37
  -5   5   3  245.67   16.67
   5  -5  -3  250.64   29.32
   5  -5  -3  253.46   21.77
  -2   4  -7    8.48   14.19
   2  -4   7   18.19   22.58
  -2   4  -7    4.19   13.77
   1   6  -6  181.99   18.23
   1   6  -6  157.59   20.54
  -5  -4 -11    4.53    9.67
  -5  -4 -11   12.27   14.00
   5   4  11   14.47   15.74
   5   4  11    2.92   14.69
  -5  -4 -11    7.04   16.18
  -6   1  -6    8.59    9.61
   5   9   7  814.70   29.19
  -5  -9  -7  790.72   34.31
   5   9   7  826.51   48.27
  -5  -9  -7  786.52   26.88
   1   7  -4   22.31   14.14
  -1  -7   4   10.73   18.76
  -2  -9  -2  250.96   25.88
  -2  -9  -2  248.87   19.17
   1   3 -10  130.23   21.79
  -1  -3  10  145.26   13.89
  -1  -3  10  170.68   25.35
   1   3 -10  143.85   17.56
  -9  -5   2  120.21   19.13
  -9  -5   2  120.28   12.43
  -9  -6   0  311.00   27.45
  -9  -6   0  282.27   21.39
  -9  -6   0  257.11   17.53
  -6  -4 -10  353.20   22.29
  -6  -4 -10  336.31   24.94
  -6  -4 -10  328.57   17.79
   6   4  10  380.47   28.19
   6  -3   2  124.33   26.68
  -6   3  -2  126.41   13.10
  -6   3  -2  124.77   16.75
  -9  -6  -3  232.83   24.90
  -9  -6  -3  219.24   18.95
  -8  -5  -7  175.96   19.67
  -8  -5  -7  167.35   17.29
  -8  -5  -7  189.40   23.70
  -4  -7   5 3827.43   53.38
   4   7  -5 3909.11   65.89
  -4  -7   5 3515.11  138.75
   2  -7  -8  144.71   18.17
  -2   7   8  143.23   17.40
   7   6  -5 1588.30   72.00
  -7  -6   5 1524.91   74.39
  -9  -4   3  821.07   37.42
  -9  -4   3  914.28   51.78
   4  -3 -11 3337.33  138.65
  -2  -2  11  150.40   14.58
  -2  -2  11  142.15   22.67
  -8  -7  -6  414.09   28.86
  -8  -7  -6  403.08   23.42
  -8  -7  -6  382.99   20.76
  -9  -3  -3  102.92   15.66
  -9  -3  -3  113.25   20.30
  -4  -5   8   86.73   22.36
  -4  -5   8   83.37   12.28
   4   5  -8  110.36   20.52
  -2  -9  -7  106.66   15.86
   2   9   7  107.86   16.56
   2   9   7  108.61   20.63
  -7  -8   1   -0.90   10.80
  -7  -8   1    0.37    8.30
   7   8  -1   -5.07   15.23
  -7  -8   1   12.71   18.91
   8  -1  -2  354.37   34.54
  -8   1   2  321.31   18.76
   2   8  10  319.46   21.66
  -2  -8 -10  304.56   19.29
  -9  -5  -4   16.17   13.47
  -9  -5  -4   25.70   19.28
  -5   5   5  101.59   14.04
   5  -5  -5  108.99   17.34
   5  -5  -5  112.44   26.45
   6   6  10 1107.21   60.09
  -6  -6 -10  979.01   45.25
  -6  -6 -10  970.24   49.17
   6   6  10 1049.76   54.82
   4  -6  -4   14.84   20.72
   4  -6  -4    5.59   14.80
  -4   6   4   11.83   11.65
  -1   8   3   20.03   14.73
   1  -8  -3   18.76   19.92
   1  -8  -3   37.61   17.53
  -1   8   6   44.48   15.87
   1  -8  -6   42.63   16.33
   1  -8  -6   42.63   16.33
  -1   8   6   51.77   15.28
   1  -8  -6   42.63   16.33
   0  -8   0  136.80   24.65
   0   8   0  150.59   17.19
   0  -8   0  129.95   18.78
  -3  -7   5  434.53   19.38
  -3  -7   5  388.40   32.20
  -3  -7   5  444.39   23.65
  -2  -5   8  672.65   24.48
   2   5  -8  635.49   24.85
  -2  -5   8  683.04   37.08
   2   5  -8  659.57   30.86
  -9  -2   3 1049.12   56.54
  -9  -2   3  917.93   42.12
   8  -1  -3    1.81   23.32
  -8   1   3   -2.87    9.36
  -4  -7 -11  143.99   18.05
   4   7  11  154.08   18.24
   4   7  11  137.15   19.77
   4   3 -10  307.62   25.31
  -4  -3  10  255.14   25.37
  -1  -4   9   32.05   19.41
   1   4  -9   39.92   17.15
   1   4  -9   34.49   13.91
   6  -4  -3   51.82   24.53
   6  -4  -3   62.45   16.65
   5  -5  -2 1834.24   89.88
  -5   5   2 1770.07   73.37
   4  -5   2  315.57   32.13
  -4   5  -2  320.09   21.08
  -4   5  -2  320.73   19.18
  -3   5  -4 1212.07   55.30
  -3   5  -4 1152.81   53.95
   3  -5   4 1207.07   64.18
   8  -1  -1  261.16   29.92
  -8   1   1  239.08   17.61
  -3  -6 -12   37.30   16.32
  -3  -6 -12   35.84   15.02
  -8  -8  -3 1722.92   79.87
   8   8   3 1766.02   74.93
  -8  -8  -3 1655.32   72.07
   4  -6  -3   10.31   24.55
  -4   6   3   -5.70   11.80
   4  -6  -3   17.37   16.26
  -9  -4  -4 1985.32   83.81
  -9  -4  -4 2220.52   96.89
  -6  -9  -6  618.72   24.17
   6   9   6  674.91   27.29
  -6  -9  -6  660.15   33.13
  -2  -1 -12 2127.07   93.19
  -2  -1 -12 2126.19   87.35
   2   1  12 2303.19  100.72
  -4   6   5  497.88   22.12
   4  -6  -5  524.49   35.36
   4  -6  -5  512.36   25.68
  -3   4  -6  608.28   27.86
  -3   4  -6  616.65   27.04
   6  -4  -4  928.72   54.96
   6  -4  -4 1029.47   50.51
  -7  -8  -7 1758.52   74.28
   7   8   7 1833.02   77.36
  -7  -8  -7 1762.59   79.98
   6   6  -6  634.03   30.61
  -6  -6   6  629.86   36.47
  -4  -8   3  346.88   29.30
  -4  -8   3  347.75   17.72
  -4  -8   3  340.16   20.24
   4   8  -3  361.01   22.98
   4   8  10   20.92   15.08
  -4  -8 -10    4.34   13.64
  -8  -6  -7   99.45   21.65
  -8  -6  -7   97.13   17.82
   1   2 -11  271.98   25.27
  -1  -2  11  324.40   27.76
  -1  -2  11  307.36   18.54
   1   2 -11  281.54   21.15
   1  -7   2  245.22   25.57
  -1   7  -2  237.89   19.75
  -1   7  -2  225.97   18.34
   6  -2  -9   22.60   18.46
   2  -7   0  815.52   31.51
  -2   7   0  860.04   42.29
   2  -7   0  878.57   52.46
  -8  -8  -2  143.44   18.41
   8   8   2  139.32   17.53
  -8  -8  -2  133.62   22.66
  -3  -2  11  323.26   27.31
   3   2 -11  366.89   27.33
  -5  -6 -11  794.77   27.42
  -5  -6 -11  819.56   33.36
   5   6  11  876.20   50.50
  -1   4  -8  445.89   24.75
   1  -4   8  470.18   30.87
  -1   4  -8  443.55   26.34
  -8  -4  -7  450.05   25.70
   8   4   7  486.94   35.20
  -4   1  -9   63.71   18.23
   4  -1   9   78.21   23.00
  -4   1  -9   68.14   15.09
   0  -3 -13 1049.58   48.03
   0  -3 -13 1075.32   55.15
  -3  -9  -8    0.62   13.22
   3   9   8   -4.10   14.14
   8   5  -5 2530.21  106.10
  -8  -5   5 2459.46  108.86
   4  -5  -9  548.01   31.08
   4  -5  -9  632.60   25.38
   4   9   8  186.72   19.22
   4   9   8  164.82   22.07
  -7  -5  -9  136.39   17.97
   7   5   9  147.88   25.54
  -7  -5  -9  142.68   18.33
  -3   3  12  940.57   47.22
   3  -3 -12  909.69   49.99
   8   7  -2  200.26   19.98
  -8  -7   2  210.09   25.70
  -8  -7   2  203.66   17.42
   5   7  -5  537.57   27.82
  -5  -7   5  485.53   22.71
  -4  -9   0  820.90   36.58
   4   9   0  891.56   45.61
  -4  -9   0  763.96   27.18
  -7   1  -4  496.19   24.94
   7  -1   4  487.17   34.51
  -6   4   2  555.61   23.46
  -6   4   2  612.77   24.35
   6  -4  -2  638.41   39.02
  -3  -2 -12  161.32   20.41
  -3  -2 -12  181.56   18.84
   3   2  12  170.19   20.29
   3   2  12  184.46   21.82
   9   2   2  953.49   59.08
  -9  -2  -2  735.85   26.80
  -3   0  12   56.24   17.27
   3   0 -12   55.73   20.33
   6   9   1 1199.58   55.20
  -6  -9  -1 1082.89   49.33
  -6  -9  -1 1171.45   58.66
   3  -6  -9   57.54   14.86
  -4   0 -10   61.38   17.72
   4   0  10   81.76   23.88
  -4   0 -10   49.20   15.80
  -8  -8  -4 1680.56   78.83
  -8  -8  -4 1587.12   69.63
   8   8   4 1687.36   72.16
  -1  -9  -5  215.96   22.75
   1   9   5  204.88   25.12
   1   9   5  194.34   18.55
  -1  -9  -5  187.10   19.08
   6   3  -9   52.02   19.27
  -6  -3   9   45.59   18.41
   9   6  -1 1093.13   51.54
  -9  -6   1 1019.27   47.16
  -9  -6   1 1090.68   54.33
  -9  -6   1 1083.06   58.08
  -7  -3   8  337.32   29.55
   7   3  -8  314.68   26.85
   1   9   4   48.06   14.57
  -1  -9  -4   48.51   17.66
   1  -7 -10  391.90   20.46
  -1   7  10  397.75   21.68
  -3   1 -10  557.10   26.89
  -3   1 -10  450.62   27.13
   3  -1  10  508.71   34.69
  -5  -8   3   14.16   19.65
  -5  -8   3   19.53    9.18
  -5  -8   3   10.20   10.75
   5   8  -3   18.77   15.42
  -1  -3 -13  987.42   47.12
  -1  -3 -13  981.60   51.89
   1   3  13  995.52   54.71
  -1  -4 -13  403.30   28.18
  -1  -4 -13  409.02   22.07
   0  -6 -12   40.59   13.54
   0  -6 -12   46.32   18.08
  -9  -6  -4  228.08   20.44
  -9  -6  -4  265.63   27.46
   8  -1  -4    3.91   26.10
  -3  -8   3   14.07   19.32
  -3  -8   3    1.19   12.14
   5   9   0 1949.51   82.02
  -5  -9   0 1782.40   74.38
  -5  -9   0 1753.26   80.60
   6  -4  -5   46.41   25.11
   6  -4  -5   32.40   16.63
   6  -3  -8 1177.03   59.65
  -8   0   6  576.77   31.95
  -8  -4   6  811.08   39.33
   8   4  -6  820.46   35.19
   5  -5  -6 1348.71   60.90
   5  -3 -10   91.88   21.75
   0  -4 -13   77.04   16.48
  -7  -6  -9  528.62   24.80
  -7  -6  -9  544.84   27.46
   7   6   9  624.96   36.87
  -7  -6  -9  538.48   22.90
   8   8   1  206.09   19.88
  -8  -8  -1  185.96   18.06
  -8  -8  -1  160.55   22.14
   4   5  12  287.60   24.63
  -4  -5 -12  261.79   19.94
  -4  -5 -12  283.14   24.65
  -4  -4 -12  434.99   22.59
   4   4  12  495.87   31.52
  -4  -4 -12  373.81   25.99
   4  -6  -2  899.98   55.79
  -4   6   2  892.23   43.17
   4  -6  -2  906.91   46.27
   4  -6  -2  906.91   46.27
  -1   8   2  136.98   17.52
   1  -8  -2  148.72   19.21
   1  -8  -2  130.07   23.72
   3  -2   9  781.74   38.60
  -3   2  -9  704.96   31.37
  -3   2  -9  779.97   29.86
   8  -1   0  232.87   29.31
  -8   1   0  204.75   17.85
  -4   6   6 1698.22   71.35
   4  -6  -6 1790.44   77.10
  -5   0  -9 1009.54   49.03
  -5   0  -9  853.91   45.91
   5   0   9 1080.72   59.79
   0   2  13   38.55   15.45
   0  -2 -13   32.92   13.34
   0  -2 -13   27.19   18.40
  -5  -3 -11  778.70   34.07
  -5  -3 -11  757.86   25.52
   5   3  11  906.56   51.73
  -5  -3 -11  845.01   42.64
  -9  -3   4    2.16   12.87
  -9  -3   4    9.27   18.73
   1  -8  -7   79.89   16.41
  -1   8   7   72.53   16.49
   0  -8  -9  433.94   22.46
  -1  -9  -6   21.48   14.79
   1   9   6   16.01   17.72
   8   6  -4  861.76   44.80
  -8  -6   4  794.99   39.43
   1  -3 -13   57.60   14.24
   7   4   9  533.48   33.05
  -7  -4  -9  497.55   28.15
   7   1   7  261.16   27.61
  -7  -1  -7  234.20   20.03
  -1   0 -12  608.98   31.67
  -1   0 -12  654.45   26.88
   1   0  12  681.42   33.58
  -2  -9  -1  124.38   22.29
  -2  -9  -1  105.63   17.30
   0  -7 -11  843.98   40.33
   0   7  11  918.12   44.39
   8   0   3 1136.81   63.42
  -8   0  -3 1048.44   49.52
  -7   1   8  228.10   24.66
   7  -1  -8  214.61   22.91
  -9  -1   1  111.78   14.92
   9   1  -1  148.45   30.31
   6   0 -10   84.01   21.97
  -6   0  10   65.60   17.27
   5   0 -11    8.81   22.17
  -5   0  11    9.13   15.25
   1  -2 -13    1.76   11.94
  -1  -9  -3  766.50   35.75
  -1  -9  -3  704.76   27.90
   1   9   3  784.35   29.86
  -5   5   1 2282.27   92.22
   5  -5  -1 2564.95  115.57
  -5   5   1 2390.98   96.33
   5   4  -9  124.23   21.71
  -5  -4   9   99.27   23.24
  -1  -8 -10  682.81   25.48
   1   8  10  737.24   28.38
   4  -2   8   -2.70   19.50
  -4   2  -8   -4.16   15.68
  -4   2  -8    2.82   13.26
   5   5  -8   87.24   20.42
  -5  -5   8   94.57   22.67
  -5   1  11  473.38   29.48
   5  -1 -11  524.05   32.17
   6   3  10 1148.56   60.96
  -6  -3 -10 1252.35   57.26
  -6  -3 -10 1132.96   57.37
  -3  -9   0  498.71   24.22
   3   9   0  443.54   24.94
  -3  -9   0  490.91   31.37
  -9  -1   2  205.72   23.98
  -9  -1   2  174.94   14.81
   7  -2   2  128.95   25.93
  -7   2  -2  133.30   17.42
  -2  -7   5 1861.61   86.52
  -2  -7   5 1794.69   78.76
   2   7  -5 1849.88   79.45
  -3  -6   7  825.22   41.05
  -3  -6   7  854.43   40.57
  -4  -6   7  128.93   15.12
  -4  -6   7  156.78   26.56
   4   6  -7  143.10   21.05
  -9  -5   3  280.10   24.39
   9   5  -3  269.94   22.18
  -9  -5   3  297.27   27.23
  -5   1  -8  578.67   27.39
   5  -1   8  676.64   38.96
  -5   1  -8  618.93   27.86
   2   9   8  730.62   28.76
  -2  -9  -8  714.26   26.14
   7   2   8   13.71   18.92
  -6   4   1 1252.92   54.99
   6  -4  -1 1326.54   70.32
  -6   4   1 1235.99   54.78
   5  -4  -9  813.80   35.65
   5  -4  -9  957.05   45.12
  -9  -2   4 1904.62   87.36
  -5  -9  -8    3.49   14.11
   5   9   8   10.26   15.82
   5   9   8    1.09   14.64
  -5   3  -5  813.69   28.03
  -5   3  -5  777.94   29.92
   5  -3   5  848.13   52.44
   6   1 -10   41.94   21.80
  -6  -1  10   33.81   16.93
   8   8   5  245.78   19.23
  -8  -8  -5  240.94   19.27
  -8  -8  -5  260.03   28.13
  -9  -1   0   47.10   13.00
   9   1   0   45.77   25.51
   8   2   6  886.33   54.00
  -8  -2  -6  773.19   30.49
  -3   0 -11  755.66   34.44
  -3   0 -11  788.17   28.85
   3   0  11  783.33   38.34
  -8  -2   7 1378.29   69.07
   8   2  -7 1290.63   62.42
   7   9   3    2.69   14.48
  -7  -9  -3    7.67   12.54
  -7  -9  -3    3.19   21.82
   7  -2  -7  145.60   25.68
   7  -2  -7  120.40   18.74
   0   3 -10  279.56   24.36
   0   3 -10  334.09   23.21
   0  -3  10  340.54   26.63
   7   9   4   86.47   17.25
  -7  -9  -4   90.99   14.88
  -7  -9  -4   96.96   21.70
   6   8   9  517.57   28.77
  -6  -8  -9  501.66   24.30
   6   8   9  510.27   24.08
  -2  -4 -13  420.17   21.67
  -2  -4 -13  407.19   27.95
  -6  -9  -7 2158.55   94.45
   6   9   7 2003.68   83.04
  -6  -9  -7 2054.55   83.91
   3  -7  -4 2135.76   90.00
   3  -7  -4 2150.18   97.62
  -3   7   4 2167.90   89.29
  -9  -3  -4 1307.40   59.22
  -5  -1 -10    5.10   15.40
  -5  -1 -10    7.08   14.31
   5   1  10  -10.03   18.88
   1   5  -8 1527.63   66.45
   1   5  -8 1529.20   70.46
  -1  -5   8 1602.77   76.24
  -9  -5  -5  102.84   23.26
  -9  -5  -5   74.90   15.66
   7   7  -4  209.77   22.07
  -9  -4   4  131.19   24.10
  -9  -4   4  127.94   20.58
  -1  -8   2 1321.18   66.35
  -1  -8   2 1413.26   64.29
   1   8  -2 1407.25   63.18
  -3   7   5  516.64   31.61
   3  -7  -5  545.09   26.64
  -3   7   5  537.03   23.92
   3  -7  -5  557.17   34.22
  -9  -7  -2    9.16   21.11
  -9  -7  -2    0.06   10.64
  -9  -7  -2    1.76   11.48
   6   7  10  923.09   44.17
   6   7  10  871.70   47.65
   1   2  13  152.38   19.20
  -1  -2 -13  133.35   17.46
  -1  -2 -13  119.02   19.82
   0  -2  11   34.31   17.90
   0   2 -11   35.24   14.68
   0   2 -11   32.76   18.30
   8   1  -7   30.37   19.55
  -8  -1   7   41.83   18.08
   7   0   6  238.08   28.20
  -7   0  -6  268.40   21.81
   7  -3  -3 1104.85   62.30
  -7   3   3 1019.83   46.22
  -4  -2  11  306.07   27.98
   4   2 -11  354.23   29.00
   6  -4  -6   21.67   16.36
   6  -4  -6   11.95   22.35
   6  -4  -6   14.55   14.03
  -9  -1   3 1368.37   58.43
  -9  -1   3 1574.25   75.02
   4   1  11  848.49   51.18
  -4  -1 -11  722.97   25.12
  -4  -1 -11  829.27   42.77
  -4  -1 -11  737.56   33.75
  -2  -1  12 1156.48   60.14
  -1  -5 -13   -7.42   14.23
  -1  -5 -13   -4.70   16.97
  -8  -7  -7   40.12   20.17
  -8  -7  -7   34.61   15.15
  -2   7   9   58.56   16.28
   2  -7  -9   57.60   16.56
   8  -1  -5 1446.51   77.83
   3  -5 -11  159.08   23.16
   3  -5 -11  161.56   15.40
   6  -1 -10   -1.30   19.46
  -6   1  10   13.92   15.32
  -9  -7  -1   22.24   12.66
  -9  -7  -1   32.30   19.99
  -9  -7  -1   15.51   12.98
  -1  -9  -7   90.55   16.23
  -9  -7  -3  715.71   29.13
  -9  -7  -3  880.55   50.34
   6  -2   5   44.15   22.97
  -2   2 -10 1683.44   72.67
   2  -2  10 1862.67   85.53
  -2   2 -10 1416.13   66.99
   5   8  10   10.52   15.18
  -8  -1  -5  192.40   19.51
   8   8   0  513.89   26.09
  -8  -8   0  462.12   25.16
  -8  -8   0  495.50   32.77
   7   9   2   32.78   15.82
  -7  -9  -2   32.37   20.24
  -7  -9  -2   41.69   13.29
  -1  -1  12  655.51   33.92
  -1  -1  12  637.75   23.84
   1   1 -12  625.85   26.19
   1   1 -12  606.09   32.64
  -3   7   3 1484.75   64.53
   3  -7  -3 1510.15   67.57
   3  -7  -3 1480.43   73.95
  -7  -8   2  217.75   16.92
  -7  -8   2  241.53   26.27
   7   8  -2  246.77   21.37
   4   6  12   50.61   16.12
  -4  -6 -12   40.78   16.02
  -4  -6 -12   60.15   16.56
   4   3  12  271.28   26.50
   4   3  12  220.29   21.01
  -4  -3 -12  244.57   23.50
  -4  -3 -12  268.22   20.55
   2   3  13 3056.09  126.74
  -2  -3 -13 2692.23  113.89
  -2  -3 -13 2690.76  107.27
   1  -4 -13   17.15   15.37
   1  -4 -13   19.56   19.45
   9   6  -2  100.45   16.97
   8   3   7   37.78   23.52
  -8  -3  -7   15.60   15.58
  -7  -9  -5   33.07   21.53
  -7  -9  -5   37.47   14.06
   7   9   5   28.74   15.91
   6   9   0 2343.93   96.50
  -6  -9   0 2268.54   99.32
  -6  -9   0 2120.33   86.18
  -9  -2  -3  345.29   21.63
   9   2   3  435.57   36.43
   5  -4   3 1191.16   64.87
  -5   4  -3 1088.32   49.60
  -7   3   2  282.41   18.16
   7  -3  -2  288.85   33.93
   4  -4   5   50.02   22.37
  -4   4  -5   45.41   13.35
  -4   4  -5   38.55   17.69
   7  -3  -4 1106.74   53.40
   7  -3  -4  992.02   57.28
   1  -6   5  108.32   23.92
  -1   6  -5  105.10   18.08
  -1   6  -5  116.06   17.51
   4  -6  -1  254.89   22.55
   4  -6  -1  234.78   28.78
  -4   6   1  240.68   17.71
   3  -6   2   87.53   26.51
  -3   6  -2   88.39   17.27
  -3   6  -2   96.28   14.57
  -6  -8   3  157.61   15.49
   6   8  -3  154.31   19.27
  -6  -8   3  156.90   24.85
  -4   6   7  120.15   15.83
   4  -6  -7  102.85   19.30
   2  -5 -12  210.66   24.40
   2  -5 -12  188.41   16.28
   5  -5  -7  172.90   19.39
   5  -5  -7  162.44   20.40
  -9  -4  -5 1209.31   56.49
   9   4   5 1520.63   79.54
   1   9   2  594.86   27.13
  -1  -9  -2  588.58   32.23
  -1  -9  -2  615.98   28.07
   8  -1   1  757.73   41.14
  -8   1  -1  703.48   26.23
  -9  -6  -5  203.81   25.24
  -9  -6  -5  179.99   19.17
   5   1 -11  801.66   38.30
  -5  -1  11  725.05   37.12
   4  -1 -12   57.84   21.10
  -4   1  12   47.63   15.67
   3  -7  -6  193.51   20.41
  -3   7   6  186.56   17.48
   6   7  -5  109.35   20.15
  -6  -7   5   93.83   13.08
  -5  -3  10  407.03   31.67
   5   3 -10  458.75   29.86
  -2  -5 -13   91.54   19.63
  -2  -5 -13   73.34   16.25
  -6   3  -3 1139.16   52.45
   6  -3   3 1209.31   63.69
   2   6  -7  452.40   22.23
   2   6  -7  476.43   27.50
  -2  -6   7  493.89   32.86
   3  -3   8   25.58   21.39
  -3   3  -8   31.12   15.31
  -3   3  -8   17.80   15.21
  -2   1 -11    8.92   16.70
  -2   1 -11    6.89   16.23
   2  -1  11   -6.48   17.35
   2  -6 -11   57.56   19.36
   2  -6 -11   41.52   14.72
   9   1   1   27.13   26.35
  -9  -1  -1   19.74   12.27
   8   3  -7 2285.56   79.58
  -8  -3   7 2484.42   91.80
   2   8  -3   99.80   17.57
  -2  -8   3  101.67   17.02
  -2  -8   3  120.05   23.23
   5   6  -7   27.95   16.54
  -5  -6   7   20.46   10.63
  -5  -6   7   27.53   20.46
   0   8  -1  344.87   22.02
   0  -8   1  361.44   24.70
   0  -8   1  333.10   28.81
   5   7  11    6.86   15.22
  -5  -7 -11   23.35   15.91
  -5  -7 -11    5.10   14.93
   7   1  -9 1394.97   58.45
  -7  -1   9 1522.19   64.78
   0   4  -9    8.64   14.95
   0  -4   9   11.69   19.38
   0   4  -9   23.41   16.89
   1  -8  -1  138.91   25.12
  -1   8   1  162.86   17.99
   2  -2 -13  586.57   32.64
  -2   2  13  582.68   26.98
   5  -2 -11 1074.51   50.24
   1  -1 -13  340.70   20.07
   1  -1 -13  314.47   26.23
  -1   1  13  339.21   26.26
  -3  -9  -9 1083.40   41.37
   3   9   9 1141.45   44.45
  -7  -8  -8   60.87   18.44
  -7  -8  -8   61.86   15.37
   7   8   8   51.41   15.95
   1  -8  -8  328.72   21.90
  -1   8   8  327.99   21.15
  -7  -7  -9 1944.78   71.34
   7   7   9 2040.70   67.35
  -7  -7  -9 1746.73   59.57
   0  -5 -13  346.35   21.00
  -2  -7 -12  640.47   25.22
  -2  -7 -12  637.32   31.69
   0   6  -6    5.57   14.98
   0   6  -6    4.29   13.51
   2  -7   1   83.59   23.45
  -2   7  -1  109.64   14.98
   4   9   9  208.55   19.31
   3  -4 -12   15.20   20.67
   3  -4 -12   25.38   13.63
  -6   0  -8 2402.16   79.46
   6   0   8 2508.08   92.57
  -9  -7   0 1605.57   65.08
  -9  -7   0 1415.66   52.68
   9   7   0 1604.04   57.05
   4  -2 -12  566.14   34.28
   0   1  13   87.95   18.14
   0  -1 -13   78.57   16.41
   0  -1 -13   85.28   20.75
  -9  -7  -4  596.09   27.87
  -9  -7  -4  691.79   35.82
   2  -3   9    2.92   19.22
  -2   3  -9   27.43   15.55
  -2   3  -9   33.55   17.38
   4   9  -1  586.80   25.70
  -4  -9   1  518.69   23.85
  -4  -9   1  605.51   33.84
  -5   5   0   15.73   13.98
  -5   5   0    5.84   11.13
   5  -5   0   -2.03   21.55
   4  -4 -11  813.87   36.73
   6   1   9  559.91   34.35
  -6  -1  -9  473.72   26.44
  -6  -1  -9  542.57   26.19
   2  -3 -13   89.31   21.83
  -2   5  -6  178.40   18.58
  -2   5  -6  209.79   20.33
  -7   0   9 2048.00   78.75
   7   0  -9 1926.38   71.21
   8   7  -3   35.08   18.76
  -6   4   0   83.49   12.29
   6  -4   0   89.08   24.21
  -6   4   0   66.11   15.18
  -7  -5   7  195.74   27.41
   7   5  -7  181.38   24.17
  -3  -1  12 1368.80   60.52
   3   1 -12 1441.65   59.24
  -7   3   1  118.92   16.14
   7  -3  -1  135.15   29.68
  -8  -8  -6  619.10   26.16
   8   8   6  626.77   25.85
  -8  -8  -6  641.93   35.11
   7   3   9  215.35   27.52
   5  -2   7 1459.53   64.99
  -5   2  -7 1315.19   49.66
  -5   2  -7 1389.66   52.84
   0   7  -4   20.41   15.53
   0  -7   4   42.79   22.14
   0   7  -4   39.36   14.30
   7  -3  -5  110.04   26.57
   7  -3  -5  133.01   18.16
  -1   5  -7  562.92   26.81
  -1   5  -7  552.30   27.29
   1  -5   7  586.54   34.67
  -8  -5  -8 1173.80   47.55
   8   5   8 1269.46   59.92
  -8  -5  -8 1086.90   47.86
  -3  -7 -12 1281.17   52.90
  -3  -7 -12 1371.81   50.90
  -6  -2  10   23.92   19.98
   6   2 -10   20.85   19.97
  -3  -8 -11   43.45   13.88
   3   8  11   31.41   14.94
   3  -7  -2  477.26   27.39
  -3   7   2  442.30   22.39
   3  -7  -2  458.30   34.71
  -5  -9   1  262.45   26.91
   5   9  -1  261.21   21.71
  -5  -9   1  257.04   18.46
  -4   0  12   82.27   18.51
   4   0 -12   67.13   22.98
   7   9   1 1526.05   55.60
  -7  -9  -1 1460.42   59.53
  -7  -9  -1 1355.82   48.68
   1  -6 -12   29.59   19.58
   1  -6 -12   35.72   14.33
  -9  -1   4 2160.62   79.57
  -2  -9   0  282.73   21.23
   2   9   0  293.17   21.15
  -2  -9   0  256.52   26.70
  -2   6  -4 3235.43  100.17
   2  -6   4 3322.19  113.79
  -2   6  -4 3217.12   99.10
  -4   5  -3    4.56   10.75
   4  -5   3   -1.18   23.52
  -4   5  -3    2.12   14.27
  -7  -2   9   10.19   18.76
   7   2  -9  -19.15   19.76
   7   9   6  939.69   31.44
  -7  -9  -6  965.01   40.31
  -7  -9  -6  931.40   29.98
   0   1 -12   65.49   18.47
   0   1 -12   69.27   15.07
   0  -1  12   81.03   18.35
  -9  -3   5   31.60   16.49
  -9  -3   5   58.02   21.67
  -2  -8 -11  311.54   20.20
   2   8  11  335.18   21.51
  -8  -6  -8    4.63   11.07
  -8  -6  -8    6.36   14.21
  -8  -6  -8   -3.85   20.36
   2  -1 -13  333.81   26.63
  -2   1  13  340.18   25.81
  -4   3  -7 1353.66   52.04
   4  -3   7 1521.95   66.19
  -4   3  -7 1470.77   54.05
  -1  -7 -12 1176.58   43.46
  -8   0   7    8.04   18.17
  -9  -2   5  158.32   23.98
   7   4  -8    2.47   19.16
  -7  -4   8    6.89   20.74
   3  -7  -7  623.76   27.74
  -3   7   7  651.69   25.56
  -1  -9  -8   81.31   16.34
   2   9   9 2267.51   73.69
  -2  -9  -9 2157.96   69.77
   4  -5 -10  367.56   20.53
   4  -5 -10  365.83   29.43
   3  -6 -10  713.21   34.36
   3  -6 -10  752.69   26.71
  -7  -6   6  171.85   25.70
   7   6  -6  157.77   22.62
   3   1  12 2367.72   87.07
  -3  -1 -12 2371.20   76.96
  -3  -1 -12 2201.99   78.41
   6  -4  -7  524.77   29.12
   6  -4  -7  637.36   27.09
  -1   7  -3   68.11   16.40
   1  -7   3   74.64   24.14
  -1   7  -3   83.91   16.49
  -5  -2 -11   13.94   14.17
   5   2  11    1.90   19.11
  -5  -2 -11    2.06   13.12
  -3  -4 -13 3422.58  111.86
   3   4  13 3780.07   76.45
  -3  -4 -13 3459.77  105.08
   9   5  -4  302.68   23.19
  -9  -5   4  282.25   28.49
  -6  -9  -8 1013.29   30.61
   6   9   8 1079.62   43.17
  -8  -8   1   15.37   18.18
   8   8  -1   16.80   15.83
  -8  -8   1    2.51   10.73
   0  -8 -10   71.47   14.82
  -3  -9   1 1216.44   54.34
  -3  -9   1 1238.85   47.77
   8   0   4   72.42   25.57
  -8   0  -4   79.65   16.01
   2   2  13   62.26   17.41
  -2  -2 -13   70.13   16.13
  -2  -2 -13   52.71   18.06
   1   7  -5  227.14   19.66
  -1  -7   5  229.82   28.16
   1   7  -5  224.13   20.80
   8  -1  -6 2568.69   98.55
   6  -3  -9   -5.60   19.11
   8   5  -6  715.72   34.35
  -8  -5   6  759.27   40.07
   9   1   2  776.14   43.71
  -9  -1  -2  709.81   27.20
   4   8  -4 1833.42   64.35
  -4  -8   4 1766.46   70.71
  -4  -8   4 1716.71   59.97
   7  -1   5 2301.84   87.13
  -7   1  -5 2301.88   76.06
  -6   1  -7  145.59   19.61
   6  -1   7  150.67   24.59
   6   5  -8   18.71   20.57
  -6  -5   8   -0.22   20.53
   7  -2   3   46.95   22.97
  -7   2  -3   47.07   14.78
  -6  -5 -11  293.65   23.47
   6   5  11  315.18   26.97
  -6  -5 -11  297.63   20.16
  -3  -5 -13  326.73   21.48
  -3  -5 -13  314.48   24.62
   4   8  11    2.55   14.16
  -4  -8 -11   -3.06   14.99
   5   9   9   81.87   17.27
  -8  -4  -8 1815.84   64.29
   8   4   8 1814.67   74.41
  -2   0 -12  951.05   36.29
  -2   0 -12 1019.76   33.22
   2   0  12 1065.79   49.37
  -1  -9  -1    8.93   15.10
  -1  -9  -1   -4.22   22.08
   1   9   1    8.62   14.28
   6  -2 -10  624.00   35.82
  -4   6   0  297.68   19.41
   4  -6   0  254.88   32.34
   1  -7 -11  575.20   23.30
  -9  -7   1  346.29   29.06
   9   7  -1  334.36   21.89
   0  -9  -5   83.17   20.40
   0  -9  -5   80.64   17.36
   0   9   5   90.83   17.78
   9   3   5 3682.70   85.70
  -9  -3  -5 2915.87   92.52
   4   7  -6   61.53   18.53
  -4  -7   6   59.55   13.05
   4  -6  -8   34.03   16.22
  -9  -5  -6  128.79   23.00
  -9  -5  -6   97.37   18.33
   6   2  10 1176.96   55.23
  -6  -2 -10 1147.03   46.02
  -6  -2 -10 1009.16   38.11
  -9  -7  -5   56.07   25.98
  -9  -7  -5   46.23   15.47
  -3   5  -5 1390.58   51.64
   3  -5   5 1516.41   65.52
  -3   5  -5 1407.74   52.10
  -1  -1 -13   21.06   14.25
  -1  -1 -13   44.80   20.58
   1   1  13   35.52   16.02
   8  -1   2  116.40   26.01
  -8   1  -2  109.72   15.71
   9   6  -3   18.64   15.18
   7  -2  -8  115.29   19.71
  -5  -8   4 2081.66   80.09
  -5  -8   4 1886.96   63.75
   5   8  -4 2077.93   71.31
  -7   3   0  344.98   21.16
   7  -3   0  348.80   32.84
   6   4  -9  982.29   39.24
  -6  -4   9  956.54   43.20
   0   9   4    1.21   14.19
   0  -9  -4    1.86   19.35
   0  -9  -4    0.36   14.60
  -8  -6   5 1946.61   77.02
   8   6  -5 1989.87   70.65
  -3  -4  10  379.39   30.07
  -9  -4   5  111.66   23.98
   9   4  -5  103.88   19.31
  -2  -6 -13    4.03   15.30
  -2  -6 -13    3.66   16.67
   5  -5  -8 1144.15   49.78
   5  -5  -8 1330.41   50.03
  -6  -6 -11   88.90   15.78
   6   6  11   88.46   18.72
  -6  -6 -11   95.58   16.88
   7  -3  -6  357.67   31.99
   6   9  -1  621.29   27.70
  -6  -9   1  557.39   23.24
  -6  -9   1  580.85   33.25
  -9  -2  -4   11.64   15.00
   1  -5 -13  457.43   30.54
   1  -5 -13  437.03   22.35
  -1  -6 -13  133.08   19.05
  -1  -6 -13  107.52   20.43
   4  10   5  124.23   17.44
  -4 -10  -5  145.98   23.41
  -4 -10  -5  141.16   18.12
   0   9   6    7.38   14.62
   0  -9  -6   11.01   14.14
  -9  -6  -6 1088.38   49.97
  -9  -6  -6  957.46   33.56
  -5  -5 -12  894.67   37.06
  -5  -5 -12  851.71   29.99
   5   5  12 1005.86   42.20
  -4 -10  -4 1276.99   46.95
   4  10   4 1361.05   51.13
  -4 -10  -4 1274.59   53.35
   2  -4 -13   34.58   20.22
   2  -4 -13   29.66   14.37
   4  -3 -12 1959.08   74.24
  -4  -7 -12  466.93   27.27
  -4  -7 -12  510.36   24.46
  -3  -7   6  280.59   19.86
   4   2  12  141.07   22.20
  -4  -2 -12  117.15   19.60
  -4  -2 -12  132.57   18.76
  -8  -4   7 1000.29   44.30
   8   4  -7  961.69   36.35
   3  -7  -1  110.00   26.57
   3  -7  -1  113.82   19.43
  -3   7   1  111.10   16.04
   1  -2  11   57.22   18.76
  -1   2 -11   35.07   16.96
  -1   2 -11   43.58   15.36
  -3  -8   4  839.94   31.12
  -3  -8   4  830.11   39.99
  -1  -6   7  624.77   35.34
   1   6  -7  586.25   26.39
   1   6  -7  587.85   29.41
   0   5  -8 1559.50   59.14
   0  -5   8 1655.60   66.04
   0   5  -8 1571.19   56.91
  -7   1   9 1102.69   51.69
   7  -1  -9  991.10   39.36
  -1   8   0  280.87   21.15
   1  -8   0  254.49   26.80
   2  -8  -5  842.23   30.46
  -2   8   5  841.08   29.02
  -1  -8 -11  221.88   17.96
   1   8  11  244.93   20.96
  -6  -4 -11   30.91   17.54
  -6  -4 -11   11.98   14.55
   6   4  11   16.39   18.14
  -2  -4  10  210.72   24.41
   2   4 -10  188.50   23.93
   3   3  13  604.85   33.29
  -3  -3 -13  569.78   25.53
  -3  -3 -13  556.18   31.02
   7   9   0 1758.39   61.58
  -7  -9   0 1633.07   56.24
  -7  -9   0 1690.98   66.44
   6   6  -7   54.52   19.11
  -6  -6   7   52.54   23.06
  -5 -10  -4 1444.18   50.83
   5  10   4 1496.43   53.88
  -5 -10  -4 1474.48   58.65
  -5  -2  11   79.60   19.44
   5   2 -11   86.10   23.11
  -1   3 -10  229.53   23.17
  -1   3 -10  244.23   19.97
   1  -3  10  268.66   27.33
   7   5  10   44.74   18.72
  -7  -5 -10   44.24   15.31
  -2   8   4 2969.87   92.91
   2  -8  -4 2931.01   92.94
   2  -8  -4 3140.21  106.29
   9   0  -2   10.12   26.76
  -9   0   2   14.15   11.50
   1  -8  -9  372.13   22.13
  -1   8   9  335.82   21.31
  -5 -10  -5  341.11   20.16
   5  10   5  360.08   23.36
  -5 -10  -5  356.05   28.92
  -8  -7  -8   11.87   21.46
  -8  -7  -8   -4.06   14.98
  -2  -3  11   24.80   20.51
   2   3 -11   21.34   18.10
  -2   4  -8  317.01   23.40
  -2   4  -8  320.66   22.45
   2  -4   8  371.61   29.86
   5  -4 -10  232.48   26.02
   2  -7 -10 1166.45   43.83
  -2   7  10 1232.13   47.23
  -5  -7   6  391.23   30.86
   5   7  -6  461.25   26.90
  -5  -7   6  418.57   21.78
  -3  -3  11   92.67   21.63
  -9   0   1 1523.02   52.89
   9   0  -1 1759.07   76.52
  -7  -9  -7 1698.38   66.15
   7   9   7 1805.43   61.92
  -7  -9  -7 1671.56   58.03
  -9  -1   5    4.15   20.32
  -3  -5   9    9.86   21.31
   7   6  10  642.18   38.26
  -7  -6 -10  555.24   28.10
  -7  -6 -10  506.57   24.40
   6  -4   1   -1.11   25.03
  -6   4  -1    6.54   14.44
   3  -2 -13  287.38   26.70
   7   8  -3  395.85   25.46
  -7  -8   3  377.44   20.55
  -7  -8   3  472.74   32.05
   4  10   6   90.29   15.58
  -4 -10  -6   77.09   14.28
  -4 -10  -6   94.34   21.37
   0  -9  -3  318.09   28.29
   0   9   3  321.75   21.31
  -8  -8  -7  800.48   36.57
  -8  -8  -7  785.70   28.74
   6   8  10  519.16   23.65
  -5  -4 -12   49.52   16.04
   5   4  12   48.91   17.41
  -5  -4 -12   42.79   15.93
   4   1 -12 1525.32   61.70
  -4  -1  12 1430.81   62.77
  -9  -4  -6 1257.46   49.94
   9   4   6 1489.76   69.09
   5  -3 -11 1789.97   69.69
  -3   4  -7    5.82   13.51
  -3   4  -7   -0.09   14.82
  -4  -4  10 1062.06   52.46
   4   4 -10 1133.57   50.66
 -10  -4   0   23.63   11.14
  -4 -10  -3 1608.99   55.66
  -4 -10  -3 1545.35   60.92
   4  10   3 1676.63   59.09
   2  -8  -6   28.84   15.71
  -2   8   6   23.06   14.73
   5  -5   1  370.34   34.14
  -5   5  -1  375.50   19.95
  -8   2   3 1307.48   46.69
   8  -2  -3 1499.34   66.90
   1   0 -13    3.80   17.43
  -1   0  13    1.49   16.09
  -9   0   3   73.22   12.09
   9   0  -3   73.04   30.78
   8  -2  -2   41.83   28.06
  -8   2   2   55.96   13.57
  -5 -10  -3  730.34   35.89
  -5 -10  -3  689.16   25.40
   5  10   3  730.63   28.40
  -5  -6 -12  251.76   19.28
   5   6  12  250.16   23.47
  -5  -6 -12  242.39   22.09
   3  -7  -8   29.59   15.39
  -3   7   8   26.81   14.59
   0  -7 -12  255.79   25.92
   0  -7 -12  231.20   19.79
   7   3  -9  213.34   25.35
  -7  -3   9  263.20   28.34
  -8  -2  -7 1057.32   43.66
   8   2   7 1229.26   57.19
 -10  -4  -1    7.51   21.63
 -10  -4  -1   -4.51   11.07
  -1  -8   3  113.35   19.87
   1   8  -3  103.40   17.62
  -1  -8   3   87.31   24.50
   4   5  -9   70.54   21.73
  -4  -5   9   71.81   25.02
 -10  -5  -1  659.13   25.25
 -10  -5  -1  714.09   35.39
  -3 -10  -5    7.22   17.04
   3  10   5    5.17   15.06
  -3 -10  -5    9.74   13.59
   8   2  -8   35.54   19.70
  -8  -2   8   18.13   19.88
   3  -1 -13 1148.04   52.15
  -8  -1   8  797.45   38.39
   8   1  -8  738.99   33.00
   2  -8  -3 1973.39   67.89
   2  -8  -3 1991.64   75.98
  -2   8   3 1946.04   65.67
  -3  -6 -13   33.96   16.61
  -3  -6 -13   31.03   17.16
 -10  -5   0   -2.16    9.52
 -10  -5   0    8.78   18.65
  -5 -10  -6  147.66   23.85
   5  10   6  144.62   18.59
  -5 -10  -6  149.39   15.45
  -7  -7   5   24.30   20.46
   7   7  -5   19.31   17.91
   0   9   7   33.40   15.42
   0  -9  -7   26.81   15.64
  -3  -9 -10 1789.49   59.45
   3   9  10 1869.11   62.99
  -3 -10  -4 1464.26   58.47
   3  10   4 1576.13   56.45
  -3 -10  -4 1526.31   54.64
  -2   0  13   88.46   18.86
 -10  -4   1 1039.89   40.53
  -8  -9  -3  240.61   19.36
   8   9   3  272.99   20.65
  -8  -9  -3  256.55   27.23
   7   1   8  200.34   25.58
   8   1   6  304.76   29.09
  -8  -1  -6  271.14   20.95
   0   8  -2 2201.57   73.62
   0  -8   2 2219.33   75.96
   0  -8   2 2098.92   78.88
  -9   0   0  171.51   17.27
   9   0   0  178.06   31.25
   8  -2  -4  143.60   29.92
   7   8   9  367.69   21.48
  -7  -8  -9  327.14   20.61
  -3   6  -3  138.04   19.13
   3  -6   3  154.59   27.51
  -3   6  -3  134.87   15.67
  -1   1 -12  100.56   19.36
  -1   1 -12  117.32   18.16
   1  -1  12  114.66   20.06
   8   9   4    4.90   15.19
  -8  -9  -4    3.48   23.76
  -8  -9  -4    5.08   14.27
  -1  -9  -9 3073.71   93.29
   1   9   9 3122.45   96.00
  -4  -9 -10 1508.47   52.30
   4   9  10 1576.13   55.27
   0  -6 -13 1035.10   47.65
   0  -6 -13 1029.33   30.07
  -9  -8  -3 1348.51   51.34
  -9  -8  -3 1549.05   63.49
  -9  -8  -2   25.21   21.89
  -9  -8  -2   25.37   13.00
  -3 -10  -6   10.47   16.17
   3  10   6   16.99   15.94
 -10  -5  -2 1288.16   55.42
 -10  -5  -2 1202.80   46.48
  -2  -5   9  167.27   24.54
   2   5  -9  165.98   21.78
   5  -4   4   35.58   24.17
  -5   4  -4   47.25   11.77
  -5   4  -4   39.10   16.98
  -2   7  -2   19.24   14.11
   2  -7   2    8.53   21.27
  -2   7  -2   14.58   15.34
   7   4  10  306.41   29.09
  -7  -4 -10  275.78   22.87
   6  -3   4  330.63   30.88
   8  -2  -1   17.03   26.84
  -8   2   1   18.01   12.50
  -5   3  -6 1141.63   45.84
  -5   3  -6 1199.61   45.62
   6   8  -4 1397.14   53.94
  -6  -8   4 1376.64   60.85
  -6  -8   4 1339.07   49.54
   2   9  -1 1137.85   46.08
  -2  -9   1 1130.49   46.91
  -2  -9   1 1087.66   51.75
  -4  -9   2  378.89   29.00
  -4  -9   2  376.06   21.74
   4   9  -2  399.62   23.76
   6   3 -10  471.33   29.17
  -6  -3  10  443.94   32.44
   9   1   3 2955.02  106.89
  -9  -1  -3 2728.50   86.55
   3  -3 -13  290.52   27.01
   3  -3 -13  290.52   27.01
   6  -4  -8 1997.14   72.90
   1   3 -11  244.50   25.16
  -1  -3  11  308.67   27.79
   8   9   2  321.62   23.47
  -8  -9  -2  286.29   19.38
  -8  -9  -2  327.84   29.61
   5   8  11    9.96   15.73
  -5  -8 -11   16.53   15.60
  -5  -9   2   36.07   22.81
   5   9  -2   20.86   15.42
  -5  -9   2   32.24   12.52
   0   0  13  151.70   19.53
   0   0 -13  115.25   21.82
   0   0 -13  123.89   18.39
 -10  -4  -2  277.33   18.52
 -10  -4  -2  314.85   27.68
   8   7  -4   14.02   17.30
  -9  -7   2   50.27   20.84
   9   7  -2   60.74   18.01
 -10  -3   0  145.73   15.62
  -4 -10  -7   60.33   15.74
   4  10   7   56.15   17.03
  -6 -10  -4 1516.22   60.71
   6  10   4 1469.47   53.54
  -6 -10  -4 1357.29   48.18
   8   8  -2   51.78   17.25
  -8  -8   2   37.44   19.97
  -2  -7   6  649.68   27.79
   2   7  -6  683.51   30.62
   4   3 -11  147.54   21.95
  -4  -3  11  162.97   24.94
   1  -4   9  127.45   24.21
  -1   4  -9  107.17   18.15
  -1   4  -9   94.64   19.39
   6   7  11  300.02   26.20
  -6  -7 -11  260.69   19.12
  -6  -7 -11  285.27   22.07
  -9  -2   6 1083.29   52.44
  -9  -7  -6  469.88   31.63
  -9  -7  -6  430.46   23.90
   2  -8  -7    1.73   13.58
  -2   8   7    8.73   13.45
  -4   1 -10   75.72   16.26
   4  -1  10  106.94   24.34
  -4   1 -10  106.75   18.26
 -10  -3   1  165.94   14.30
 -10  -3   1  193.95   24.18
   9   0  -4   80.23   30.95
   7   0   7    6.46   21.15
   3  10   3 2790.91   88.63
  -3 -10  -3 2760.16   92.79
  -3 -10  -3 2591.02  113.74
   6   0 -11   22.66   22.14
  -6   0  11   19.48   15.97
   7   2   9   42.95   20.95
  -8  -3  -8    6.03   14.55
   8   3   8    3.99   18.67
   1   4 -10   30.94   19.83
  -1  -4  10   45.63   21.31
   1   4 -10   32.13   14.79
   7  -3   1  486.27   35.81
  -7   3  -1  481.26   23.58
  -9  -3   6 1240.61   68.13
  -6   2  -6  756.51   29.81
   8  -1  -7  176.33   29.77
  -5 -10  -2  127.78   14.48
  -5 -10  -2  128.19   24.37
   5  10   2  143.44   18.45
  -2  -2  12  433.81   29.77
   2   2 -12  390.82   28.72
  -1  -9   0   14.25   16.15
   1   9   0   23.75   14.01
  -1  -9   0   17.68   19.84
  -4 -10  -2  644.32   25.74
   4  10   2  663.48   38.65
  -4 -10  -2  645.87   32.98
  -9  -8  -4 2774.13  122.39
  -9  -8  -4 3247.45   68.84
   6  10   5  580.11   27.03
  -6 -10  -5  548.43   32.16
  -6 -10  -5  542.99   24.01
   9   8   1  234.94   20.63
  -9  -8  -1  247.02   26.11
  -9  -8  -1  198.36   18.24
   0  -9  -2  494.55   30.66
   0   9   2  548.02   26.10
   2   9  10 1356.47   64.60
  -2  -9 -10 1267.16   59.96
   8   9   5    7.35   14.45
  -8  -9  -5   13.57   23.36
  -8  -9  -5   12.42   15.42
   6   9   9    9.13   15.38
  -6  -9  -9    2.61   14.86
 -10  -4   2 1278.07   68.68
  -6 -10  -3  765.22   46.69
   6  10   3  785.06   43.17
  -6 -10  -3  725.04   38.94
  -2  -8   4  159.63   26.93
   2   8  -4  174.11   20.32
  -2  -8   4  151.10   18.22
   3  -5 -12   81.88   21.96
   3  -5 -12   81.65   14.98
  -7  -7 -10 2267.22  100.42
   7   7  10 2731.35  129.35
  -7  -7 -10 2322.01  106.02
 -10  -3  -1  646.97   24.65
   8   3  -8  407.42   27.85
  -8  -3   8  408.60   31.06
  -4   6  -1 1415.33   67.31
  -4   6  -1 1535.36   71.36
   4  -6   1 1542.26   82.32
 -10  -6  -1   25.32   21.36
 -10  -6  -1   41.10   12.24
  -2   8   2    3.39   13.26
   2  -8  -2   12.26   22.21
   2  -8  -2    4.11   16.98
  -5 -10  -7   18.60   10.33
   5  10   7   30.90   16.17
  -5   0 -10  201.20   19.92
  -5   0 -10  266.20   21.61
   5   0  10  250.01   26.97
  -4  -5 -13  217.03   23.45
  -4  -5 -13  215.81   18.69
  -4   0 -11  221.51   21.66
  -4   0 -11  207.01   20.11
   4   0  11  249.26   28.10
   4  -6  -9   12.30   19.42
   4  -6  -9   19.95   15.79
   8  -2  -5  879.54   57.28
   8   0  -8 1191.89   62.41
  -8   0   8 1425.93   75.00
   5  -1 -12   48.07   22.19
  -9  -5   5  573.94   35.74
   9   5  -5  565.93   31.16
   3  10   7  500.12   24.36
   3  -7   0 1109.17   64.71
   3  -7   0 1090.11   56.26
  -3   7   0 1150.08   56.35
   6   3  11 1157.65   64.88
  -6  -3 -11 1053.64   57.00
  -6  -3 -11 1129.37   56.81
  -4  -6   8    2.19   10.90
   4   6  -8   -1.34   16.48
  -4  -6   8   -3.62   21.66
   2  -6 -12   18.74   14.84
   2  -6 -12   12.46   19.01
 -10  -5  -3  407.33   29.17
 -10  -5  -3  411.06   23.14
 -10  -6  -2  786.06   42.98
 -10  -6  -2  878.78   52.76
   3   2 -12 1033.56   56.99
  -3  -2  12 1119.13   62.74
   0  -3 -14   32.16   20.15
   0  -3 -14    6.75   14.62
   6   7  -6   12.93   18.57
  -6  -7   6   30.35   21.21
 -10  -3   2  534.39   32.75
  -5  -5   9  175.85   27.86
   5   5  -9  203.71   23.31
  -4   4  -6  583.90   26.94
  -4   4  -6  626.17   26.66
   4  -4   6  594.83   38.56
  -8   1  -3  169.31   18.92
   8  -1   3  195.74   26.31
  -6   1  11   61.93   17.07
   6  -1 -11   78.95   24.58
  -3  -6   8   43.97   21.64
  -2  -1 -13   52.19   19.27
   2   1  13   62.53   17.11
  -2  -1 -13   52.66   18.26
  -5   1  -9  925.20   48.83
  -5   1  -9  875.79   48.71
   5  -1   9 1022.51   60.11
  -6  -1  11  640.12   36.82
   6   1 -11  672.47   44.32
  -4   2  -9  163.71   19.21
  -4   2  -9  206.38   20.83
   4  -2   9  172.99   26.84
   9   0   1   39.90   19.92
  -9   0  -1   30.73   14.17
   5   3  12   24.79   19.00
  -5  -3 -12   12.71   16.14
  -5  -3 -12   20.13   15.10
  -7  -9   1  221.39   17.46
   7   9  -1  241.92   22.09
  -7  -9   1  248.39   25.78
   5   0 -12   75.93   18.01
  -5   0  12   57.62   18.22
   1   2 -12   59.93   19.69
  -1  -2  12   44.00   18.84
  -8  -9  -1 1988.25   90.53
  -8  -9  -1 2107.22  100.48
   8   9   1 2176.41   98.38
   4   4  13  423.03   29.46
  -4  -4 -13  370.08   22.98
  -4  -4 -13  363.36   26.27
   4   4  13  418.11   29.21
   3   0 -13  140.78   23.57
  -3   0  13  142.52   22.17
  -3  -9   2  297.40   28.77
  -3  -9   2  266.55   20.79
   0  -9  -8  460.03   23.81
   0   9   8  463.94   24.00
  -3   1 -11    3.27   16.59
  -3   1 -11    1.11   14.82
   3  -1  11   11.35   20.45
  -1  -4 -14  225.39   23.97
  -1  -4 -14  228.53   19.31
   3  -2  10  989.24   56.87
  -3   2 -10  778.96   45.18
  -3   2 -10  927.36   49.21
  -3  -2 -13   10.09   14.97
  -3  -2 -13    9.33   15.38
   3   2  13   15.43   15.95
  -9  -6   4 1459.04   76.59
   9   6  -4 1491.51   72.70
  -6 -10  -6  199.58   18.16
   6  10   6  214.26   20.41
  -6 -10  -6  177.54   25.72
 -10  -6   0  105.44   22.29
   5   4 -10 1452.30   72.87
  -5  -4  10 1363.24   74.23
  -8   2   0  854.88   44.55
   8  -2   0  862.38   54.78
   0  -4 -14   31.42   17.85
   0  -4 -14   43.59   16.29
  -4   5  -4  376.23   21.44
  -4   5  -4  346.63   21.90
   4  -5   4  383.11   30.24
   5  -5  -9  284.86   26.80
   5  -5  -9  304.79   21.02
  -8  -6  -9   97.54   15.92
   8   6   9  100.13   23.92
  -8  -6  -9   87.41   16.27
   8   5   9  695.44   47.73
  -8  -5  -9  610.57   27.39
   1  -6   6   55.69   21.55
  -1   6  -6   54.96   16.83
  -1   6  -6   60.49   14.47
   5   9  10  707.48   39.55
  -8   0  -5  467.23   25.86
  -7  -9  -8  475.76   31.66
  -7  -9  -8  470.76   24.35
   7   9   8  469.73   23.59
  -7   2  -4   84.28   16.16
   7  -2   4   73.91   23.40
   0  -8 -11  242.98   17.83
   7   1 -10   24.25   17.88
  -7  -1  10   17.36   16.79
  -1  -3 -14  255.77   19.88
  -1  -3 -14  250.86   24.26
  -6  -9   2   55.48   21.48
  -6  -9   2   59.84   13.28
   6   9  -2   66.85   18.19
  -5  -7 -12  497.87   27.57
  -5  -7 -12  503.21   23.36
   3  -6 -11  541.77   32.25
   3  -6 -11  570.39   24.76
  -9  -5  -7   24.57   17.13
   9   5   7   26.04   25.50
  -9  -3  -6   81.92   16.50
   9   3   6  105.52   25.34
  -9  -2  -5   37.78   15.79
 -10  -4  -3   14.98   12.93
 -10  -4  -3   10.77   19.41
  -2 -10  -5  187.34   22.92
  -2 -10  -5  172.93   15.51
  -9  -1   6  136.65   22.40
  -9  -6  -7  616.57   33.42
  -9  -6  -7  554.54   28.17
 -10  -5   2 1424.62   73.89
   3   8  12 1126.49   56.03
  -3  -8 -12 1015.37   50.53
  -9  -8  -5  238.66   20.23
  -9  -8  -5  273.06   27.84
  -6 -10  -2   -1.71   22.19
  -6 -10  -2    2.69   12.44
   6  10   2   -6.50   14.83
   1  -8   1  113.20   24.58
  -1   8  -1  100.75   16.52
   1  -8   1  113.02   19.68
   7   0 -10  140.43   23.47
  -7   0  10  126.44   21.35
   9   8   0   48.22   18.88
  -9  -8   0   30.16   21.73
  -9  -8   0   32.96   12.19
  -3 -10  -2  604.39   34.04
  -3 -10  -2  553.89   24.69
   3  10   2  565.07   25.99
   1  -3 -14  123.65   16.85
 -10  -6  -3  154.71   24.13
 -10  -6  -3  160.68   18.43
   4  -5 -11   38.70   23.19
   2  -5 -13 1216.05   64.76
   2  -5 -13 1133.73   54.70
   2   8  12 2296.48  102.28
  -2  -8 -12 2091.69   92.70
   0   7  -5   15.85   16.11
   0   7  -5    8.00   15.82
   0  -7   5   10.77   21.60
   6  -3 -10  419.91   30.72
  -2 -10  -4 1301.63   67.64
  -2 -10  -4 1293.90   62.73
 -10  -3  -2  193.91   17.15
   1  -8 -10    3.80   14.06
  -1   8  10    9.21   15.72
   3  -7  -9  318.15   22.88
  -3   7   9  304.03   21.09
   4  -4 -12   54.49   22.74
   9   4  -6  586.13   30.01
  -9  -4   6  629.10   37.68
  -4  -6 -13   -5.13   13.36
  -4  -6 -13   -3.79   16.04
  -8  -9  -6  286.53   22.20
   8   9   6  270.64   20.22
  -8  -9  -6  277.63   28.15
   7  -2  -9   11.56   19.87
  -5   6   4    4.38   11.58
   5  -6  -4   -1.80   26.29
   5  -6  -4    5.78   19.31
  -2   6  -5 1079.75   54.76
   2  -6   5 1164.19   65.33
  -2   6  -5 1061.83   54.16
   6  -4   2   71.32   26.36
  -6   4  -2   50.95   15.48
   9   0  -5  419.77   39.71
   5   1  11  116.74   21.52
  -5  -1 -11   90.36   18.34
  -5  -1 -11  101.15   16.44
  -2  -7 -13  434.12   23.01
  -2  -7 -13  443.58   27.78
  -8  -8  -8   84.50   16.64
  -8  -8  -8   90.04   20.81
   1   5  -9    2.63   16.16
   1   5  -9    4.74   14.83
  -1  -5   9    2.01   17.64
   2  -8  -8  279.22   21.39
  -2   8   8  267.88   20.45
  -4 -10  -8  103.50   15.62
   4  10   8  118.04   18.63
   5  -2 -12   12.14   21.67
   0  -2 -14  248.68   18.57
   0  -2 -14  243.19   23.61
  -6   5   4   52.02   13.36
   6  -5  -4   60.36   20.43
   6  -5  -4   60.87   28.04
  -1   7  -4  240.70   21.42
   1  -7   4  249.70   28.46
  -1   7  -4  248.33   20.24
   7   5  -8    1.88   19.41
  -7  -5   8   25.94   22.03
   5   6  -8   77.84   19.57
  -5  -6   8   75.31   21.89
   5  -6  -5  797.51   44.80
  -5   6   5  743.80   39.50
   5  10   1  193.02   17.08
  -5 -10  -1  187.19   17.98
  -5 -10  -1  200.11   24.51
   1  -2 -14  419.57   26.27
 -10  -4   3  153.56   23.73
  -6   5   3   85.46   12.32
   6  -5  -3   91.13   27.96
   6  -5  -3   92.54   20.47
  -4 -10  -1   12.27   14.76
   4  10   1    6.03   16.31
  -4 -10  -1    6.19   20.34
 -10  -3   3  229.95   25.38
  -7   1  -6  568.72   26.59
   5  -5   2   11.70   23.00
  -5   5  -2    2.99   10.29
   1   0  13   10.40   14.93
  -1   0 -13    6.10   17.98
  -1   0 -13    6.67   15.64
 -10  -6   1   38.24   23.51
  -1  -5 -14  286.89   25.64
  -1  -5 -14  294.15   21.48
   0   6  -7  211.83   22.27
   0   6  -7  202.35   19.91
   5  -6  -3   14.55   15.73
  -5   6   3   10.14   10.65
   5  -6  -3    3.96   26.51
   2   6  -8    4.41   15.94
  -2  -6   8  -11.37   19.81
  -8  -5   7   23.02   21.92
   8   5  -7   43.04   22.61
  -2  -4 -14 1192.20   57.67
  -2  -4 -14 1126.02   60.29
 -10  -2   1    3.76   21.06
 -10  -2   1    3.99    9.28
   7   3  10 1296.06   69.82
   6  -5  -5  647.11   39.66
   6  -5  -5  668.01   40.56
   6   0   9 2076.48  101.55
  -6   0  -9 2001.65   91.40
   1  -6 -13 1366.20   70.52
   1  -6 -13 1325.00   62.29
  -3   0 -12  944.27   48.73
   3   0  12 1050.76   59.05
  -3   0 -12  925.81   52.08
   3  -4 -13  156.40   24.56
   0  -9  -1   87.12   25.91
   0  -9  -1   72.19   18.90
   0   9   1   82.31   15.65
  -2   5  -7   10.57   15.25
  -2   5  -7    5.49   16.72
   7   6  -7   28.24   19.92
  -7  -6   7   21.88   22.19
   0   3 -11  172.29   22.35
   0  -3  11  192.16   23.66
   0   3 -11  180.19   20.24
  -3  -7 -13  676.78   37.73
  -3  -7 -13  631.44   31.03
   3  10   8    2.94   14.31
  -5   2  -8  173.17   19.25
   5  -2   8  162.42   27.47
  -5   2  -8  151.74   16.52
   8  -2  -6 1788.59   93.67
   1  -4 -14   30.10   21.52
   1  -4 -14   32.91   15.30
  -3   3  -9   26.28   15.07
   3  -3   9   49.18   21.23
  -3   3  -9   20.12   15.36
 -10  -5  -4  159.63   18.30
 -10  -5  -4  209.94   26.39
 -10  -2   0  288.99   18.03
  10   2   0  343.98   37.59
   8   6  -6  291.44   24.06
  -8  -6   6  275.70   29.57
  -6 -10  -7   37.11   15.08
   6  10   7   46.79   17.16
  -4  -8   5  931.87   56.90
  -4  -8   5  909.17   47.24
   4   8  -5 1028.08   53.91
   1  -7 -12  491.06   21.82
   1  -7 -12  525.32   32.15
   7   2 -10    9.02   19.83
  -7  -2  10    0.61   17.85
  -1  -7 -13  166.02   18.08
  -5 -10  -8  102.96   15.55
   5  10   8   94.06   17.32
  -4  -8 -12 1767.61   82.24
   4   8  12 1646.77   75.98
  -2   8   1   75.21   16.81
   2  -8  -1   52.23   21.71
   2  -8  -1   76.89   18.02
  -8  -7  -9 2172.31  101.52
  -8  -7  -9 1939.57   88.08
  -8  -4  -9  536.65   26.53
   8   4   9  597.11   37.62
  -2 -10  -3 1574.49   74.41
   2  10   3 1449.39   68.80
  -2 -10  -3 1654.59   81.76
  -4  -1 -12 1086.98   58.16
   4   1  12 1238.21   68.42
  -4  -1 -12 1125.75   56.30
  -4  -2  12 1901.44   95.10
   4   2 -12 1981.26   95.00
  -1  -9 -10 1425.73   66.25
   1   9  10 1554.89   72.93
 -10  -2   2    4.10   21.15
 -10  -2   2    1.74    9.26
   5   1 -12 1396.87   72.56
  -5  -1  12 1225.81   67.37
   2  -7 -11  748.73   39.89
   2  -7 -11  758.87   47.71
  -8  -9   0  909.82   53.50
   8   9   0  943.36   50.32
  -8  -9   0  754.38   40.77
  -8  -9   0  910.28   53.44
   2  10   7  593.86   25.78
  -2 -10  -7  550.40   25.00
  -6  -1 -10  139.29   18.60
   6   1  10  134.85   25.23
  -5  -3  11    8.80   18.57
   5   3 -11   13.44   20.68
   4  -1 -13  184.76   24.21
   9   4   7  478.25   34.79
  -9  -4  -7  371.57   24.97
   4   3  13 2022.23   99.36
  -4  -3 -13 1801.85   87.13
  -4  -3 -13 1854.86   84.88
   9   7  -3   23.57   16.21
  -2  -5 -14   37.64   15.23
  -2  -5 -14   46.49   20.05
   9   1   4  267.79   31.17
  -9  -1  -4  267.72   21.87
   5  -6  -6  502.53   26.50
  -5   6   6  462.94   22.56
   7   8  -4  506.94   27.61
  -2   2 -11  157.62   20.59
   2  -2  11  202.11   26.31
  -2   2 -11  185.56   18.35
   7  10   4  729.55   42.11
  -7 -10  -4  682.81   44.12
  -7 -10  -4  649.39   25.04
   0  -5 -14  878.04   44.78
  -5  -8   5 1374.95   65.60
   5   8  -5 1539.50   73.65
   7   4  -9  773.07   47.41
  -7  -4   9  700.61   48.01
  -9  -7  -7  422.27   24.96
  -9  -7  -7  458.24   31.14
  -6   5   2  602.51   23.59
   6  -5  -2  660.11   49.31
   6  -5  -2  662.00   39.40
   6  -2 -11  777.27   48.04
  -9   0  -2  310.17   20.29
   9   0   2  365.83   34.11
 -10  -6  -4   91.33   16.52
 -10  -6  -4   92.26   22.80
   4  -2 -13   43.87   23.00
   7  -3   2  215.96   28.82
  -7   3  -2  207.45   18.42
   0   2 -12    3.95   17.77
   0  -2  12   14.37   16.72
   0   2 -12    3.57   16.32
  -1  -2 -14  123.67   17.35
  -1  -2 -14  123.33   21.14
   1  -5   8 1050.33   59.38
  -1   5  -8  948.51   51.27
  -1   5  -8  980.37   50.68
  -8   2  -1 1386.52   65.85
   8  -2   1 1500.75   80.84
  -6  -2  11  538.15   33.95
   6   2 -11  636.44   34.37
  -1  -8 -12 1176.51   56.20
   1   8  12 1317.72   63.31
   1   7  -6  607.65   27.03
   1   7  -6  588.87   28.43
   6  -4  -9  295.80   26.62
  -4   3  -8   56.87   15.55
  -4   3  -8   64.00   16.80
   4  -3   8   66.31   24.65
   7  -1 -10   45.65   21.69
  -7   1  10   41.67   17.76
  -2  -3 -14  184.85   22.62
  -2  -3 -14  178.06   18.24
  -7 -10  -3   66.56   24.88
   7  10   3   58.63   17.63
  -7 -10  -3   52.68   13.90
  -6 -10  -1    4.63   22.41
  -6 -10  -1   19.78   13.53
   6  10   1   26.02   17.70
   0   4 -10  112.88   17.57
   0   4 -10   84.93   16.92
   0  -4  10  116.38   22.41
  -7 -10  -5  546.11   23.02
  -7 -10  -5  611.16   33.87
   7  10   5  599.93   26.77
   2   1 -13 1119.41   60.87
  -2  -1  13 1319.27   69.93
  -4   7   5    6.00   11.18
   4  -7  -5   13.59   16.53
  -4   7   4  999.80   49.82
   4  -7  -4 1015.34   53.02
   4  -7  -4  944.60   58.31
   3   9  11   85.69   17.39
  -3  -9 -11   90.23   16.84
   5  -4 -11  279.34   28.21
  -5   6   2  320.69   18.93
   5  -6  -2  329.78   34.41
   5  -6  -2  357.83   23.95
   8   8  -3  957.61   51.22
  -8  -8   3 1010.12   58.57
  -6   1  -8  306.36   22.64
   6  -1   8  321.89   30.41
   0   9   9 1625.72   75.06
   0  -9  -9 1594.22   73.94
 -10  -7  -2    7.06   20.22
 -10  -7  -2   11.38   12.01
   1  -9  -5    5.07   12.70
  -1   9   5   -0.07   15.34
   6  -5  -6  280.07   22.44
  -9  -8  -6   18.72   23.75
  -9  -8  -6   19.69   14.95
 -10  -2  -1  964.95   48.70
  10   2   1 1138.03   68.67
  -8  -4   8   57.90   21.37
   8   4  -8   57.14   21.85
   3  -5   6   -5.07   24.03
  -3   5  -6    3.29   15.73
  -3   5  -6    1.17   12.53
  -9  -8   1  157.43   24.78
   9   8  -1  211.77   21.99
   1   9  -1  467.53   25.22
  -1  -9   1  479.33   26.51
  -1  -9   1  448.15   30.71
   1   1 -13  547.35   31.10
  -1  -1  13  587.85   32.10
 -10  -5   3   13.38   20.37
  10   3   3   58.40   28.24
 -10  -3  -3   39.35   14.65
  -3  -8   5 1630.32   76.82
   3   8  -5 1599.10   76.20
  -3  -8   5 1649.56   84.40
   2   9  -2  635.49   26.60
  -2  -9   2  575.22   34.36
  -2  -9   2  604.27   28.54
 -10  -4  -4 1413.08   67.72
   2  -2 -14  803.71   46.76
   6   8  11   75.37   20.30
   6   8  11   73.24   17.43
   6   8  11   75.59   19.59
   7  -4  -4   11.72   26.63
   7  -4  -4   15.05   18.89
   7  -4  -3  295.76   23.56
   7  -4  -3  269.47   32.48
 -10  -7  -1   41.44   22.28
 -10  -7  -1   42.30   12.86
  -2   3 -10  581.80   27.72
   2  -3  10  591.13   33.41
  -2   3 -10  446.34   26.14
  -3 -10  -1   14.48   20.78
  -3 -10  -1   28.30   14.59
   2  -1  12  137.70   21.15
  -2   1 -12  113.33   21.17
  -2   1 -12  134.53   19.57
   2  -3 -14  150.07   23.85
  -7  -8 -10  482.63   23.88
   1  -9  -6  181.53   19.22
  -1   9   6  188.60   19.65
  -4  -9 -11   18.27   14.87
   4   9  11   22.04   16.51
   1  -9  -4 1187.31   59.70
   1  -9  -4 1186.59   64.39
  -1   9   4 1114.06   55.44
 -10  -2   3 1311.34   69.60
  -9  -2   7  231.22   27.67
   0  -8   3 1034.36   60.53
   0   8  -3 1031.07   53.43
   0  -8   3 1007.20   53.99
   3  -7   1  578.66   37.98
  -3   7  -1  518.36   24.98
  -3   7  -1  571.43   24.72
   4   7  -7    2.22   13.46
  -4  -7   7    5.31   23.76
  -4  -7   7    9.91   11.62
 -10  -7  -3  837.38   51.09
 -10  -7  -3  751.76   42.25
   6   5  -9  439.28   30.01
  -6  -5   9  394.25   30.84
  -8  -9  -7 1328.24   69.97
  -8  -9  -7 1256.94   60.39
   8   9   7 1167.01   57.02
  -4   7   6   53.14   13.63
   4  -7  -6   48.09   17.31
  -6  -5 -12  478.56   27.86
   6   5  12  548.36   31.58
  -6  -5 -12  541.88   25.66
   2  -7   3   19.01   21.08
  -2   7  -3   10.46   16.33
  -2   7  -3   12.72   13.08
  -4   7   3  609.03   23.73
   4  -7  -3  592.69   37.78
   4  -7  -3  591.17   28.55
  -5  -9   3   97.82   25.41
   5   9  -3   94.63   15.16
  -5  -9   3   84.54   15.64
   1   8  -4  592.69   27.13
  -1  -8   4  590.02   28.80
  -1  -8   4  617.36   36.27
   8   1  -9  130.19   22.35
  -8  -1   9  159.80   24.03
   4   9  -3  341.00   23.43
  -4  -9   3  300.35   21.01
  -4  -9   3  335.06   30.45
   4   0 -13   19.07   21.97
   1  -1 -14  819.74   49.05
   7   9  -2   14.12   16.31
  -7  -9   2    2.92   10.34
  -7  -9   2   -4.58   20.21
  -6  -6 -12  345.08   25.16
  -6  -6 -12  327.14   20.94
   6   6  12  343.79   26.81
  -4   6  -2  364.15   19.95
  -4   6  -2  349.56   22.63
   4  -6   2  358.36   33.60
   6   9  10  358.85   22.57
  -6  -9 -10  397.86   24.22
  -9   1   2    7.13   10.22
   9  -1  -2   10.04   28.67
  -7 -10  -2  301.66   18.67
  -7 -10  -2  328.92   28.27
   7  10   2  325.85   22.24
  -3   6  -4 1352.34   58.75
  -3   6  -4 1282.97   62.72
   3  -6   4 1405.10   75.71
   4  -6 -10  775.84   38.61
   4  -6 -10  736.87   43.18
   7  -4  -5  148.19   28.91
   7  -4  -5  162.10   19.69
 -10  -3   4  106.66   22.77
   8   2   8  233.20   26.60
  -8  -2  -8  244.79   22.91
   2   9  11   11.96   15.88
  -2  -9 -11    1.80   15.40
  -7   4   2   22.78   12.18
   7  -4  -2   29.29   24.75
   2  10   2  523.64   26.12
  -2 -10  -2  501.91   31.39
  -2 -10  -2  477.53   25.11
  -7 -10  -6   -6.76   21.09
  -7 -10  -6    8.31   13.62
   7  10   6    1.07   15.78
   8   7  -5   14.58   18.00
  -8  -7   5   15.43   16.90
  -9   0   6  346.12   28.44
  -9  -3   7 1007.58   56.03
   8   2  -9   31.15   22.34
  -8  -2   9   35.99   19.87
   8   1   7   85.37   25.27
  -8  -1  -7   96.08   18.97
   9  -1  -3   88.08   30.90
  -9   1   3   94.95   13.36
  -7  -6 -11   36.17   14.65
   7   6  11   34.18   18.38
   3   1 -13  677.46   33.83
  -3  -1  13  663.49   36.17
  -7  -7   6   16.53   23.47
   7   7  -6   13.40   18.80
   2  -8  -9   36.11   17.56
  -2   8   9   40.79   16.52
   6  -3   5  295.34   30.54
   5  -6  -7    8.23   17.63
   5  -6  -7   18.27   16.01
  -4  -7 -13  579.16   26.25
  -4  -7 -13  579.91   30.88
   7   5  11  130.53   22.96
  -7  -5 -11  122.45   18.78
  -2 -10  -8   17.67   15.86
   2  10   8   28.82   16.78
 -10  -7   0 1102.16   57.99
   4  10   9  258.60   20.83
   8  -1   4  425.07   33.05
  -8   1  -4  390.13   23.33
   3   7  -7   -7.64   19.32
  -3  -7   7    5.97   11.15
  -3  -7   7   10.32   21.02
 -10  -4   4  254.28   27.00
  -5  -2 -12    3.32   17.75
   5   2  12   16.45   18.88
  -5  -2 -12   14.35   15.92
   0  -1 -14  408.51   22.03
   0  -1 -14  423.30   29.11
   7   9   9   75.45   17.90
  -7  -9  -9   64.27   16.59
   6  -5  -1 2224.59   99.56
  -6   5   1 2015.69   80.39
   5  10   0  548.45   27.10
  -5 -10   0  519.90   31.72
  -5 -10   0  491.84   23.00
   5  -4   5    6.38   22.44
  -5   4  -5    0.29   15.69
   6   6  -8  550.50   30.01
  -6  -6   8  469.26   34.84
  -5  -7   7  100.59   23.75
   5   7  -7  106.35   21.02
   5  -3 -12  113.79   24.06
   6   2  11  885.80   50.84
  -6  -2 -11  841.10   41.80
   6   8  -5  431.76   26.86
   6   4 -10 2156.29   90.88
  -6  -4  10 1929.99   88.39
  -9   1   1  262.30   17.61
   9  -1  -1  285.94   34.11
  -1   9   7   28.55   15.96
   1  -9  -7   25.33   16.53
   0  -7 -13   41.00   14.69
   0  -7 -13   51.44   21.37
   1  -9  -3   33.28   16.49
   1  -9  -3   29.10   24.46
  -1   9   3   35.25   15.86
  -6 -10  -8 1079.75   48.07
   6  10   8 1179.02   52.89
   4  -3 -13    4.66   22.88
  -4 -10   0    4.51   14.57
   4  10   0   12.63   16.09
  -4 -10   0   10.47   21.57
  -9  -1   7   50.80   20.52
  -3  -5 -14  138.27   18.21
  -3  -5 -14  126.99   19.85
   9   5  -6   33.22   20.69
  -9  -5   6   18.56   23.42
  -1  -6 -14  504.69   23.14
  -1  -6 -14  500.49   31.10
  -3  -4 -14  875.61   47.63
  -3  -4 -14  869.83   41.58
  -2  -6 -14  570.11   30.36
  -2  -6 -14  575.10   25.97
   3  10   9  789.77   39.86
  -3 -10  -9  828.64   39.81
   9   6  -5  729.66   41.70
  -9  -6   5  689.78   38.39
   5  -5 -10  174.00   24.18
 -10  -7  -4  673.89   29.19
 -10  -7  -4  736.16   44.12
   1  -5 -14  742.95   43.69
   1  -5 -14  723.35   36.10
 -10  -2  -2   35.97   14.31
  10   2   2   20.03   27.11
 -10  -5  -5  353.30   28.83
 -10  -5  -5  352.31   23.81
   1   6  -8  263.23   25.18
  -1  -6   8  255.26   26.60
   1   6  -8  256.55   20.29
   1  10   5  153.61   18.50
   3  -7 -10 1590.36   71.22
   3  -7 -10 1683.44   69.49
   9  -1  -4   43.90   32.50
   5  -6  -1  150.47   27.73
  -5   6   1  166.52   15.93
   5  -6  -1  166.63   21.04
 -10  -6  -5  128.43   24.63
 -10  -6  -5  107.75   17.90
   0   1 -13  224.87   24.74
   0  -1  13  285.28   24.49
   6  -5  -7  194.99   20.88
  -5  -8 -12  509.81   25.17
  -5  -5 -13   13.36   14.06
  -5  -5 -13   36.56   19.71
   8   0  -9  393.50   27.70
  -8   0   9  452.11   31.04
  -6  -4 -12   19.67   17.28
   6   4  12   17.79   17.22
  -6  -4 -12   11.86   15.75
  -8  -9   1  130.62   23.90
   8   9  -1  144.56   20.45
   4  -7  -7   10.71   18.36
  -4   7   7   19.22   14.52
   0   9   0   17.50   14.32
   0  -9   0   24.56   24.34
   0  -9   0    9.31   17.70
   3   1  13  112.85   21.19
  -3  -1 -13  113.24   21.07
  -3  -1 -13  108.12   17.44
   4  -7  -2   49.44   15.13
   4  -7  -2   66.05   27.80
  -4   7   2   40.90   14.18
   2  -4 -14   12.24   16.10
   1  10   6 1046.73   48.10
  -1 -10  -6  984.51   44.90
   6   9  -3  127.61   19.37
  -6  -9   3  119.39   14.71
  -6  -9   3  120.67   20.80
   5  10   9  123.14   17.55
  -5 -10  -9  127.45   17.73
  -3  -9   3   52.35   15.50
   3   9  -3   33.08   17.44
  -3  -9   3   47.29   22.85
   2  -8   0  101.79   25.84
  -2   8   0   99.89   16.44
   9   6   8  383.52   33.25
  -9  -6  -8  361.50   24.80
  -7  -3  10  247.72   27.68
   7   3 -10  242.72   25.21
  -1   8  -2 2377.28   93.88
   1  -8   2 2390.96  101.16
   1  -8   2 2423.85   98.21
   9   2   6   99.75   25.76
  -9  -2  -6   71.57   15.42
   7   1   9  467.64   32.78
 -10  -2   4 1282.87   63.76
  -3   4  -8  349.33   24.69
  -3   4  -8  349.93   23.70
   3  -4   8  387.49   31.13
  -9  -9  -3  674.90   28.70
  -9  -9  -3  701.99   36.90
   9   9   3  708.26   27.93
   1  10   4  553.26   26.03
  -1 -10  -4  573.29   32.52
   5   9  11  318.59   23.21
  -5  -9 -11  309.97   23.25
   0  -5   9   21.41   21.95
   0   5  -9   18.04   16.57
   0   5  -9   29.10   15.39
  -7   4   1  503.35   23.48
   7  -4  -1  541.73   35.80
  -5   3  -7 2166.35   87.93
   6  -4   3 1979.64   91.73
  -6   4  -3 1607.47   66.55
  -8  -8  -9  374.61   22.80
  -8  -8  -9  386.72   29.04
   8   3   9   31.31   20.02
  -8  -3  -9   16.92   17.87
  -2  -2 -14   16.08   17.24
  -2  -2 -14   14.09   19.19
  -6 -10   0  339.81   29.63
   6  10   0  359.96   25.69
  -6 -10   0  328.26   19.56
  -1   8  11  581.51   25.75
   1  -8 -11  527.53   24.22
  -9  -5  -8 1525.80   66.81
   9   5   8 1645.51   79.58
  -5  -6 -13   46.73   18.05
  -5  -6 -13   51.62   17.20
   9   3   7  260.22   30.03
  -9  -3  -7  222.78   20.25
  -2   4  -9  442.37   27.74
  -2   4  -9  434.87   25.11
   2  -4   9  479.71   32.08
  -3  -4  11 1161.01   60.19
   7   7  11  442.42   30.75
  -7  -7 -11  392.99   25.08
  -9  -9  -4  211.69   20.30
  -9  -9  -4  220.31   28.98
   7  -2   5  249.62   29.60
  -7   2  -5  217.07   21.46
   9   0   3 1160.87   61.07
  -9   0  -3 1045.34   47.51
  -7 -10  -1  605.62   33.71
   7  10   1  595.02   27.49
  -7 -10  -1  546.62   22.70
  -8   0  -6  456.80   24.61
  -8   2  -2   37.10   15.13
   8  -2   2   46.77   24.13
   7   0   8  662.06   38.64
  -9  -9  -2  428.69   32.35
   9   9   2  419.68   24.16
  -9  -9  -2  370.90   22.92
  -6  -7 -12  187.06   19.72
  -6  -7 -12  187.97   19.73
   6  -2   7  660.61   37.96
  -6   2  -7  657.36   29.61
   9  -1   0   16.93   25.34
  -9   1   0    9.39   12.61
  -2   0 -13   -4.49   17.24
  -2   0 -13    3.62   19.23
   2   0  13   -2.24   15.49
  -2  -8   5 1273.16   57.73
  -2  -8   5 1338.42   65.76
   2   8  -5 1393.01   61.68
   7  10   7   78.29   17.82
  -7 -10  -7   61.46   15.53
  -7 -10  -7   59.47   22.63
 -10  -7   1  898.49   51.10
  -5  -2  12 1235.98   65.01
   5   2 -12 1375.10   65.81
  -7  -4 -11   44.25   18.12
   7   4  11   36.89   19.43
   0  -8 -12  316.28   19.30
   0   8  12  364.09   23.05
  -9  -8  -7  148.78   18.93
  -9  -8  -7  161.50   26.35
 -10  -1   1  308.79   18.71
  10   1  -1  383.99   37.57
 -10  -3  -4  642.07   27.43
   8   3  -9  117.46   22.52
  -8  -3   9  119.53   23.64
  10   1  -2   22.43   27.10
 -10  -1   2   -6.07   10.76
  -3   8   5  615.61   26.27
   3  -8  -5  606.34   29.57
   9   8  -2  188.33   22.61
  -9  -8   2  169.96   25.60
  -4  -2 -13   18.90   14.96
  -4  -2 -13    8.21   15.78
   4   2  13    6.08   17.44
  -5  -4 -13  562.25   29.84
   5   4  13  659.80   36.09
  -5  -4 -13  536.35   25.06
   1  10   7  701.75   28.13
  -1 -10  -7  729.46   37.95
  -3  -5  10  107.50   23.52
   3   5 -10  108.17   20.81
   5  -5   3   28.82   26.27
   5  -5   3   28.82   26.27
  -5   5  -3   18.59   16.29
  -9  -4   7   32.56   23.62
   9   4  -7   41.20   20.12
   0  -6 -14  691.57   27.89
  -3  -6 -14  427.36   27.28
  -3  -6 -14  437.63   23.42
   8   6  10  576.66   35.48
  -8  -6 -10  531.20   26.69
 -10  -5   4 1851.46   84.13
  -4   5  -5  940.18   44.96
  -4   5  -5  899.62   43.52
   4  -5   5 1010.54   57.18
  -2  -4  11  884.09   48.76
   2   4 -11  779.09   41.95
   1  -9  -8  529.49   24.54
  -1   9   8  575.26   26.49
  -3   8   4 2484.53   47.22
   3  -8  -4 2390.03   95.96
  -1   9   2 1185.65   52.43
   1  -9  -2 1267.49   63.15
  -1  -1 -14  283.12   24.79
  -1  -1 -14  323.04   22.00
   3  -6 -12  920.39   42.27
   3  -6 -12  932.35   51.39
  10   4   5 2348.51  106.28
 -10  -4  -5 1843.85   76.56
   7  -2 -10  822.63   46.07
  -1   3 -11  284.02   22.91
   1  -3  11  292.68   26.28
  -1   3 -11  246.57   22.96
   3  -2 -14 1310.06   63.14
  -2  -7   7    1.00   21.27
   2   7  -7   13.77   18.39
   9   7  -4  103.54   20.38
  -9  -7   4  106.40   24.89
  -3 -10   0   40.79   16.41
  -3 -10   0   56.63   25.47
   0  -9 -10  623.69   25.42
 -10  -6   3   94.29   20.56
  -4  -5  10  524.25   34.27
   4   5 -10  506.91   30.19
  -3  -3 -14 1549.97   64.91
  -3  -3 -14 1633.00   72.99
   3  -5 -13 1321.39   64.33
  -7  -2 -10  812.61   41.14
   7   2  10  871.93   50.30
   2  10   1  145.87   19.42
  -2 -10  -1  130.72   22.55
  -2 -10  -1  119.04   17.71
  -3   8   6   -9.43   14.61
   3  -8  -6  -12.22   16.77
   1   9  11   -5.12   17.22
  -1  -9 -11   -9.54   14.60
   2  -6 -13 1136.13   56.81
   2  -6 -13 1082.47   47.71
  -4  -4  11  738.12   45.82
   4   4 -11  687.91   30.82
  -1   2 -12   16.51   17.90
  -1   2 -12   20.56   17.94
   1  -2  12    7.24   18.06
   9  -1  -5 2294.82  105.16
   5  -6  -8   11.73   17.47
   5  -6  -8   -5.16   17.21
  -9  -7  -8  116.05   17.64
  -9  -7  -8  108.77   21.61
   1  10   3  517.45   25.06
  -1 -10  -3  528.82   33.47
  -1 -10  -3  535.91   27.20
  -7   3  -3 1441.96   62.31
   7  -3   3 1526.09   75.18
  -9  -1  -5   90.48   16.90
   8  -3  -3 1791.09   86.50
  -8  -5 -10    2.95   15.64
   8   5  10   -6.20   17.54
  10   1   0  209.01   34.91
 -10  -1   0  175.91   16.40
  -8  -9  -8  398.14   22.44
  -8  -9  -8  430.55   29.82
   6   7  -7  363.48   26.58
  -6  -7   7  315.94   31.92
   6  -3 -11  831.71   48.77
  -9  -9  -5   38.24   22.61
  -9  -9  -5   40.37   15.97
  -6   5   0   70.10   15.22
   6  -5   0   67.03   29.75
  -2 -10  -9  815.47   39.61
   2  10   9  846.03   40.99
 -10  -7  -5   21.79   14.97
 -10  -7  -5   19.04   22.62
  -3  -3  12  117.81   24.21
  -4  -1  13  335.46   27.89
   4   1 -13  303.74   26.73
  10   1  -3 1509.02   78.26
   4  -5 -12  548.68   34.18
   2   3 -12   40.08   21.94
  -2  -3  12   35.55   19.64
   6   0 -12   88.63   24.47
   8  -3  -4  386.55   33.33
   9   9   1 1556.87   66.60
  -9  -9  -1 1568.17   72.50
  -9  -9  -1 1354.50   60.20
  -6  -3  11   90.31   21.44
   6   3 -11  103.40   23.55
 -10  -3   5   48.02   21.68
  -4   4  -7  201.96   18.42
  -4   4  -7  204.34   20.99
   8  -3  -2  417.43   37.39
  -8   3   2  374.09   21.08
  -4   7   8    0.92   13.42
   4  -7  -8   12.13   17.92
   3  -1 -14 1847.50   79.90
   3  -3 -14   68.51   17.60
   6  -1 -12   53.26   21.54
  -3  -8 -13 1166.31   52.47
  -3  -8 -13 1121.40   55.13
  -8 -10  -4  343.31   30.19
  -8 -10  -4  329.84   21.20
   8  10   4  340.73   23.49
 -10  -2  -3  191.18   18.03
  10   2   3  242.28   32.57
   6  -4 -10   98.12   22.84
   3  -8  -3  378.97   31.54
  -3   8   3  398.36   23.19
   3  -8  -3  395.29   25.47
  -2  -8 -13  504.14   31.29
  -2  -8 -13  481.27   23.48
   4  -7  -1   -2.13   27.37
   4  -7  -1   -0.75   19.53
  -4   7   1    3.16   11.76
  -2  -5  10   64.01   23.96
   2   5 -10   57.68   18.68
  -9   0   7   16.39   21.29
  -8 -10  -3   71.43   22.96
  -8 -10  -3   62.70   15.18
   8  10   3   65.96   19.83
  -8  -7 -10 1794.89   73.99
  -8  -7 -10 1851.96   78.74
   8   7  10 2045.59   93.06
   8   8  -4  355.20   23.28
   1  -7   5   12.35   22.04
  -1   7  -5    2.40   16.17
  -1   7  -5   16.67   15.90
   9   4   8  128.63   25.36
  -9  -4  -8  134.42   20.28
   7   0 -11   -6.59   20.57
  -1  -9   2 1054.96   50.76
   1   9  -2  984.90   46.50
  -1  -9   2  924.46   51.60
  -5   6   0  152.13   14.79
   5  -6   0  150.84   27.27
  -5   6   0  136.68   14.47
   7  -4   0  149.30   29.74
  -7   4   0  142.27   17.73
   2  -7 -12  138.09   17.41
   2  -7 -12  129.15   25.81
  -2   8  10  156.39   19.58
   2  -8 -10  116.08   17.53
 -10  -8  -2   33.22   15.35
 -10  -8  -2   34.52   22.91
   1   0 -14   16.48   15.50
   6  10   9    9.83   17.62
  -6 -10  -9    1.02   13.99
 -10  -4   5   -2.27   20.48
   3  -8  -7  275.89   22.41
  -3   8   7  282.84   19.58
  -7  -1  11  442.89   30.69
   7   1 -11  442.33   29.54
  -1   6  -7    4.32   16.66
  -1   6  -7    4.70   14.68
   3  -7   2   21.62   23.91
  -3   7  -2   17.07   16.90
  -3   7  -2    4.95   14.41
  -4 -10 -10  182.43   17.78
   4  10  10  212.01   20.00
   7  -1   7  148.00   25.67
 -10  -8  -3  808.31   41.78
 -10  -8  -3 1009.24   55.38
   8  10   5  594.66   27.45
  -8 -10  -5  578.65   35.87
  -8 -10  -5  536.80   24.11
  -5  -7 -13  549.49   28.89
  -5  -7 -13  498.33   24.26
  -9   1  -1  104.84   16.28
   9  -1   1  115.21   29.13
   8  -3  -5   47.86   28.95
   0   7  -6  863.61   42.43
   0   7  -6  865.08   44.25
   0  -7   6  915.28   50.92
   7   8  -5  268.48   23.64
  -1 -10  -8   83.76   16.49
   5  10  -1  279.49   23.29
  -5 -10   1  236.85   18.48
  -5 -10   1  240.11   24.47
   1  -4  10   20.11   20.03
  -1   4 -10   29.86   18.34
  -1   4 -10   28.90   19.64
   4  -1  11  397.28   31.36
  -4   1 -11  377.85   23.53
  -4   1 -11  337.29   23.76
   2  -6   6   26.57   21.43
  -2   6  -6   27.10   16.63
  -2   6  -6   19.26   16.19
 -10  -2   5   31.18   22.96
   5  -1 -13  666.18   35.03
  -4  -6   9  518.41   36.55
   4   6  -9  444.47   25.99
   8   6  -7  215.41   25.62
  -8  -6   7  229.29   28.35
   8   5  -8   30.22   21.07
  -8  -5   8   47.46   22.50
  10   1   1   14.61   30.33
 -10  -1  -1   -2.53   11.85
 -10  -6  -6 1285.26   58.54
 -10  -6  -6 1420.66   66.01
  -6  -3 -12  414.78   24.65
   6   3  12  439.48   31.55
  -6  -1  12  457.64   31.95
   6   1 -12  511.55   34.38
   4  -4 -13  161.20   26.62
   7   9  -3   16.65   18.34
  -7  -9   3   15.98   24.36
  -3 -10 -10  507.71   23.33
   3  10  10  560.63   25.76
  -5   1 -10   40.88   18.11
   5  -1  10   53.25   24.04
   4   3 -12  369.26   29.17
  -4  -3  12  348.22   29.25
   3   9  12  428.60   24.11
  -3  -9 -12  400.81   22.24
  -7 -10   0  838.93   48.71
   7  10   0  835.57   41.01
  -7 -10   0  789.35   38.77
  -2  -9   3    3.95   15.38
  -2  -9   3    3.70   23.93
  -2  -9   3    3.68   23.94
   2   9  -3    0.25   16.29
  -3  -6   9  305.33   31.43
   3   6  -9  291.87   24.82
 -10  -8  -1   46.41   26.10
  -5   0 -11   32.87   17.45
   5   0  11   41.11   24.14
  -5  -5  10  726.92   45.44
   5   5 -10  698.96   35.21
  -1   1 -13  447.08   29.41
  -1   1 -13  466.30   23.79
   1  -1  13  487.66   28.79
  -4 -10   1   21.32   13.24
  -4 -10   1   39.48   24.16
   4  10  -1   24.59   16.25
  10   5   6   12.82   27.20
 -10  -5  -6   -1.38   14.89
   8  -3  -1   34.78   27.92
  -8   3   1   13.82   13.03
 -10  -1   4 1089.39   56.23
   1  -7 -13    4.12   12.75
   1  -7 -13   13.62   20.74
  -4  -5 -14    5.77   15.65
  -4  -5 -14    6.13   15.39
   7  10   8   -0.79   17.58
  -7 -10  -8   14.63   14.63
  -1  -3  12  541.36   32.54
   1   3 -12  464.35   29.23
   8  10   2   20.15   16.45
  -8 -10  -2   24.39   13.23
  -8 -10  -2   28.55   19.67
   1   4 -11  224.00   24.01
  -1  -4  11  256.18   26.30
  -9  -2   8   11.61   19.46
  -8  -9   2   83.11   24.45
   8   9  -2   67.27   18.16
  -4   2 -10  166.26   21.14
  -4   2 -10  123.94   18.05
   4  -2  10  159.94   27.59
  -1 -10  -2  385.85   30.98
   1  10   2  424.27   24.09
  -1 -10  -2  390.12   22.58
  -9  -9  -6   26.53   14.77
  -9  -9  -6   43.62   25.03
   7   5  -9 1092.87   55.17
  -7  -5   9 1001.97   55.97
  -4   6  -3  226.99   20.13
  -4   6  -3  223.33   17.49
   4  -6   3  250.53   32.92
   2  -5 -14  856.17   47.45
  -4  -8   6  314.83   20.79
 -10  -8  -4 1831.10   84.54
 -10  -8  -4 1474.74   64.04
   5   0 -13  238.02   26.76
  -8  -4 -10  139.37   20.76
   8   4  10  153.14   24.79
  -2  -7 -14   74.74   21.69
  -2  -7 -14   73.65   15.40
   4  -6 -11  216.29   18.90
   4  -6 -11  204.93   25.89
  -7  -9 -10   20.90   15.16
   7   9  10   10.75   16.02
  -9  -9   0  898.16   50.84
   9   9   0  962.57   47.38
  -4  -8 -13 1696.00   70.20
  -4  -8 -13 1622.23   72.01
  -7  -6   8  462.17   34.64
   7   6  -8  493.12   29.94
   4   9  12  149.30   17.73
  -4  -9 -12  141.30   17.92
  -1   9   9 1086.80   49.58
   1  -9  -9 1057.72   48.44
   6   9  11  568.23   26.59
   9  -1  -6  840.62   55.49
  -4   0 -12  152.57   20.37
   4   0  12  135.70   23.35
  -4   0 -12  126.53   18.34
  -1  -8 -13  188.12   18.48
  -5  -3 -13  336.12   25.69
   5   3  13  348.52   28.85
  -5  -3 -13  339.16   23.07
  -1   9   1  228.71   18.70
   1  -9  -1  206.25   28.20
   0  -9   1  811.31   43.20
   0  -9   1  760.01   45.02
   0   9  -1  795.10   40.95
  -5  -4  11  357.70   32.54
   5   4 -11  391.51   29.96
   0   0 -14   90.06   20.89
   0   0  14   98.85   18.48
   5   8  -6  361.41   25.38
   5  10  10  277.78   21.17
  -7  -8 -11   95.55   17.27
   7   8  11  116.35   21.09
   6  10  -1   53.48   18.78
  -6 -10   1   48.40   12.84
  -6 -10   1   63.63   23.66
   5  -2 -13  116.87   20.83
   2  -8   1  404.62   32.10
  -2   8  -1  393.96   22.58
  -8   1  -5  872.10   43.41
   8  -1   5  935.86   54.85
  -5  -9   4  105.66   15.47
  -5  -9   4   80.32   25.55
   5   9  -4  113.02   20.46
  -2  -2  13  602.29   33.78
   2   2 -13  578.68   29.25
   3  -8  -2   45.40   20.45
   3  -8  -2   26.53   25.62
  -3   8   2   36.24   14.41
  -8 -10  -6   88.26   23.56
  -8 -10  -6   76.78   17.02
   8  10   6   88.25   19.68
   7  -1 -11   -6.92   19.46
   5  -4 -12   39.08   24.50
  -2  -9 -12  104.42   17.35
   2   9  12  128.00   18.10
  -4  -4 -14  575.65   32.52
  -4  -4 -14  587.49   27.97
   0  -8   4   48.56   23.70
   0  -8   4   62.31   17.23
   0   8  -4   35.31   17.68
  -2   7  -4   72.29   18.48
  -2   7  -4   54.68   16.20
   2  -7   4   86.11   26.88
  -4  -9   4   58.24   14.42
  -4  -9   4   60.41   24.62
   4   9  -4   60.56   18.77
  -9  -1   8  864.79   42.42
   1  -6 -14  919.24   31.82
   1  -6 -14 1045.37   43.85
  -3   2 -11  137.68   19.43
   3  -2  11  191.95   25.73
  -3   2 -11  169.66   18.96
   5   6  -9  221.07   25.30
  -5  -6   9  260.49   28.38
  -4  -6 -14   90.51   18.10
  -4  -6 -14   83.61   18.77
   7   3  11 1874.09   60.52
  -7  -3 -11 1792.78   48.94
   6  -2 -12  -13.76   20.97
  -6  -8 -12  125.00   19.56
  -6  -8 -12  128.18   17.15
  -9  -3   8   89.43   23.97
  -1  -7 -14   19.97   15.42
  -1  -7 -14   24.17   15.46
   3  -7 -11 1034.92   33.68
   3  -7 -11 1023.16   42.97
   0  -4 -15  162.51   23.34
   0  -4 -15  171.00   18.42
   0  -3 -15   -6.55   18.15
  -8   2  -3   43.53   15.76
   8  -2   3   38.23   23.61
 -10  -7  -6  618.90   30.58
 -10  -7  -6  720.34   36.26
  -3  -7 -14   26.67   16.59
  -3  -7 -14   32.46   18.58
  -1  -4 -15  196.92   24.11
  -1  -4 -15  205.42   18.85
   3  -1  12   18.09   21.01
  -3   1 -12   19.26   18.95
  -3   1 -12   26.89   18.26
  -3  -2  13  678.81   37.18
   5  11   5    7.32   17.16
  -5 -11  -5   -1.84   19.07
  -5 -11  -5   10.19   13.17
   9   0   4   11.54   25.05
  -9   0  -4   16.98   15.00
   0   6  -8   25.49   17.36
   0   6  -8   35.85   15.56
   0  -6   8   28.74   22.29
  10   3   5 1373.73   57.65
 -10  -3  -5 1328.87   40.61
  -7  -2  11  846.84   42.40
   7   2 -11  900.98   38.33
   8   7  -6   28.27   20.02
  -8  -7   6   29.40   22.09
  -9  -8  -8   41.66   20.44
  -9  -8  -8   40.35   15.82
 -10  -8   0   11.77   22.00
  -3   8   8  212.93   18.85
   3  -8  -8  218.70   20.66
   2  -5   8  766.70   39.62
  -2   5  -8  670.17   31.86
  -2   5  -8  733.53   32.33
  -6   0 -10   64.80   19.86
   6   0  10   73.21   24.50
   5  -6  -9  118.28   22.14
   5  -6  -9  158.02   20.18
  -5   2  -9   19.58   17.12
   5  -2   9   12.92   21.28
  -8  -4   9  539.78   36.31
   8   4  -9  530.43   30.63
   3   0 -14  569.07   33.11
   9   8  -3 1058.46   39.15
  -2 -10   0  391.26   23.33
   2  10   0  388.46   25.34
  -2 -10   0  364.99   30.16
   5  -5 -11   -1.79   22.28
   3  -4 -14   19.83   22.35
  -9  -6   6   23.60   20.40
   9   6  -6   15.89   20.53
  -5 -11  -4  183.58   26.03
   5  11   4  182.67   19.85
  -5 -11  -4  189.97   18.35
   4  11   5   44.61   16.56
  -4 -11  -5   39.19   16.23
   8   1 -10    9.51   22.61
  -8  -1  10   16.02   17.87
  -3  -2 -14  257.93   22.06
  -3  -2 -14  254.44   24.36
  -2  -1 -14   23.99   17.01
  -2  -1 -14   46.26   16.30
   2   1  14   46.15   17.84
   2   1  14   46.15   17.84
   2   1  14   46.25   17.96
 -10  -6   4 2031.64   64.69
  -3  -8   6  388.79   22.15
   3   8  -6  455.20   27.40
  -6   5  -1  344.34   22.68
   6  -5   1  334.91   35.64
  -1  -8   5  503.96   26.59
   1   8  -5  557.51   29.59
  -1  -8   5  568.54   35.47
   5  11   6   35.92   16.98
  -5 -11  -6   31.18   15.90
   3  -6   5  484.56   36.28
  -3   6  -5  470.00   25.28
  -3   6  -5  441.68   25.94
   5   1  12  858.51   42.47
  -5  -1 -12  701.78   33.97
  -5  -1 -12  794.90   32.13
   7   4 -10 1098.99   43.64
  -7  -4  10 1082.55   49.80
  -2  -6   9  309.76   29.87
   2   6  -9  296.72   25.17
  -1  -2  13  299.42   26.74
   1   2 -13  250.08   25.97
  -1  -5  10  169.43   25.75
   1   5 -10  158.29   23.22
 -10  -5   5  693.44   40.50
  -9  -5   7   20.89   22.94
   9   5  -7   38.84   21.85
  -2 -10 -10  673.23   27.23
   2  10  10  757.87   30.28
  -8 -10  -1  496.52   24.11
   8  10   1  542.12   26.74
  -8 -10  -1  571.40   34.63
  -8 -10  -1  496.39   24.12
   1   7  -7   -4.95   16.83
   1   7  -7    9.81   17.30
   4  -7  -9  428.17   25.40
   4  -7  -9  423.32   30.17
  -4 -11  -6   -2.44   14.73
   4  11   6    4.81   16.69
  -6   3  -6  740.18   31.39
   6  -3   6  769.74   42.16
  10   1   2  188.84   26.66
 -10  -1  -2  174.19   17.66
  10   4   6  208.95   26.79
 -10  -4  -6  189.27   19.25
  -1  -3 -15    3.18   15.86
  -1  -3 -15   15.08   19.97
  -3   5  -7   16.42   17.92
  -3   5  -7    2.31   13.02
  -8  -1  -8   83.69   19.50
   8   1   8   98.49   25.84
 -10  -8  -5  231.17   22.04
 -10  -8  -5  275.22   26.87
   3  10  -1   15.59   15.57
  -3 -10   1    9.70   15.65
  -3 -10   1   22.27   22.59
   4  -7   0  521.38   39.03
   4  -7   0  557.30   30.84
  -4   7   0  517.26   24.51
  -4 -11  -4  384.83   20.96
  -4 -11  -4  370.82   29.22
   4  11   4  395.38   24.09
  -8   3   0  131.32   16.46
   8  -3   0  133.44   26.62
  -1 -10  -9  742.37   28.49
   1  -8   3  548.46   37.00
   1  -8   3  513.75   28.51
  -1   8  -3  526.28   26.68
   9   6   9    4.06   20.86
  -9  -6  -9   21.16   15.52
  -6  -9   4  267.33   31.29
   6   9  -4  260.97   23.45
   6   1  11   14.22   21.88
  -6  -1 -11    3.27   17.21
  -6   1  -9  347.23   24.41
   6  -1   9  400.60   33.32
  -8  -8 -10 1061.79   35.14
  -1  -5 -15   10.00   14.57
  -1  -5 -15    6.31   17.73
   6  -4   4  568.29   40.58
  10   2   4   -5.95   24.67
 -10  -2  -4    2.47   13.47
   0  10   5  316.80   22.41
   0 -10  -5  348.63   24.29
  -8  -9  -9   15.76   15.79
  -8  -2  -9   35.79   18.93
   8   2   9   64.23   21.44
  -9  -2  -7  656.53   30.45
   9   2   7  736.98   41.66
  -7   4  -1    5.62   14.89
   7  -4   1    4.96   25.45
   7   7  -7  852.52   36.97
  -7  -7   7  793.23   43.13
  -3   3 -10   92.77   17.53
  -3   3 -10  116.71   20.25
   3  -3  10  129.13   24.00
   0  -9 -11    4.85   13.15
 -10  -1   5   49.77   20.77
   9  -1   2   44.65   27.05
  -9   1  -2   28.18   14.24
  -8  -2  10  221.24   28.07
   8   2 -10  231.49   27.07
  -5   4  -6  115.33   20.10
   5  -4   6  121.85   28.60
 -11  -5  -1   49.24   21.73
   0 -10  -6 1457.91   42.14
   0  10   6 1544.63   43.99
   1  -8 -12    4.77   14.75
   1  -8 -12   16.89   22.40
   6   8  -6   60.31   19.32
  -6  -8   6   60.57   23.78
   4  -3   9   59.82   24.96
  -4   3  -9   31.29   14.79
  -4   3  -9   39.50   16.01
 -10  -3   6  939.10   43.65
  -6 -11  -5   20.00   22.54
   6  11   5  -10.27   13.99
  -6 -11  -5   -1.27   12.91
  -8   0  10  103.77   22.77
   8   0 -10   91.50   23.40
  -3  -9   4    8.77   22.47
  -3  -9   4   -3.71   13.90
   3   9  -4   -0.09   18.23
  -5 -11  -3  120.78   23.40
  -5 -11  -3  114.17   15.63
   5  11   3  128.39   19.27
  -6 -11  -4  478.00   33.21
   6  11   4  480.17   24.98
  -6 -11  -4  422.29   21.33
   2  -9  -5  133.39   20.32
  -2   9   5  113.02   15.73
   1  -5   9    0.88   20.60
  -1   5  -9   23.91   16.41
  -1   5  -9   21.27   17.42
  -5  -9 -12  -27.10   18.10
   5   9  12    1.55   18.98
   5   1 -13   57.96   22.64
  -9  -9  -7  115.78   17.74
  -9  -9  -7  112.15   26.10
   5  -6   1 1059.72   52.08
  -6  -2  12  736.83   39.83
   6   2 -12  858.29   39.84
   8  10   7  104.85   17.87
  -8 -10  -7   94.33   23.88
  -8 -10  -7   91.17   16.45
  -9  -5  -9  170.49   20.95
   9   5   9  177.03   26.49
  -2  -4 -15  184.15   18.78
  -2  -4 -15  186.05   21.46
   4  -2 -14  706.51   37.67
  -7  -6 -12  544.98   27.16
   7   6  12  601.45   36.79
  -7  -6 -12  573.24   31.29
   0  -5 -15   72.00   23.03
   0  -5 -15   68.19   16.16
   0  10   4   53.48   16.72
   5  11   7  332.87   23.68
  -5 -11  -7  325.40   20.98
   0  -2 -15  668.11   34.44
   9   7  -5  231.97   24.24
  -9  -7   5  232.56   26.96
  -4 -11  -7  236.44   19.51
   4  11   7  232.35   21.27
  -4  -7   8  319.39   32.81
   1  10   1    8.76   17.15
  -1 -10  -1  -28.88   19.99
  -1 -10  -1    1.46   17.21
   1  -2 -15  698.21   36.29
  -5  -3  12   40.25   20.88
   5   3 -12   25.60   20.51
  -2   9   6  176.39   20.27
   2  -9  -6  172.68   21.67
  -9  -3  -8   58.95   15.23
   9   3   8   62.17   24.13
   4  -1 -14  732.37   38.41
 -11  -4   1 1420.09   51.59
 -11  -4  -1  119.74   24.57
 -10  -2   6  591.92   35.94
 -11  -5  -2  605.24   35.83
 -11  -5  -2  506.05   23.73
  -7   3  -4  897.08   33.14
   7  -3   4  913.46   46.57
  -9  -7  -9  583.51   28.84
   9   7   9  652.42   38.72
  -2  -5 -15   88.57   18.27
  -2  -5 -15   84.82   20.76
  -6 -11  -6   13.47   14.28
   6  11   6   15.84   17.31
   9   9  -1   29.76   19.20
  -9  -9   1    6.11   21.72
   5  -5   4  146.35   31.31
  -5   5  -4  135.63   19.38
  -3   0 -13   -5.98   16.31
  -3   0 -13    2.59   14.86
   3   0  13    6.86   16.22
  -4 -11  -3  689.41   35.29
   4  11   3  709.78   30.09
  -4 -11  -3  733.47   28.87
  -6  -6 -13   31.19   16.07
  -6  -6 -13   18.36   15.28
   0 -10  -7 1061.33   36.34
   0  10   7 1063.59   35.14
   3  -8  -1  382.37   25.07
  -3   8   1  349.55   20.91
   3  -8  -1  348.59   32.84
  -2   9   4  141.65   17.57
   2  -9  -4  148.26   20.95
  -4  -1 -13  206.45   21.37
  -4  -1 -13  226.38   21.64
   4   1  13  227.31   25.66
   0  -3  12  597.72   33.69
   0   3 -12  498.97   30.24
  -7 -10   1   29.64   24.74
  -7 -10   1   37.25   11.78
   7  10  -1   28.92   18.64
  -9  -1  -6   -4.01   16.25
   9   1   6   -1.93   22.85
  10   0  -2   59.22   31.66
 -10   0   2   38.62   12.50
  -4  -2  13  378.99   30.82
   4   2 -13  403.98   29.29
  -1  -9 -12    6.44   14.16
   1   9  12   -3.17   15.84
   6  10  10  265.61   23.58
  -6 -10 -10  237.79   20.94
   7   5  12  704.94   37.61
  -7  -5 -12  685.31   30.20
   8   0   7   55.56   22.70
  -8   0  -7   34.65   13.98
 -11  -6  -1  181.26   24.91
   0  -7 -14  105.54   22.64
   0  -7 -14   86.53   18.29
  -6  -5  10 1055.07   48.09
   6   5 -10 1109.93   43.14
  -4  -3 -14  801.07   31.59
  -4  -3 -14  757.74   35.83
   5  -3 -13    2.75   24.78
   6   5  13   74.61   18.92
  -6  -5 -13   72.52   16.69
  -6  -5 -13   59.08   17.53
   3  11   5    9.70   15.80
  -3 -11  -5   18.45   15.66
  -9   0   8 1104.25   45.83
 -10  -8   1   35.31   22.09
  -1   0 -14  125.65   19.84
   1   0  14  157.85   19.97
  -1   0 -14  143.14   23.00
  -7 -10  -9   83.26   17.59
   7  10   9   93.85   18.38
  -5  -8 -13 1017.93   33.67
  -5  -8 -13  996.45   38.37
  -9   2   3  929.92   30.32
   9  -2  -3 1026.98   50.16
  -6 -11  -3   23.09   23.97
  -6 -11  -3   39.19   13.72
   6  11   3   29.08   18.05
  -3 -11  -6  132.73   17.51
   3  11   6  149.17   20.93
  -4  -7 -14   13.46   15.49
  -4  -7 -14   -1.71   16.00
 -10  -4   6  551.46   37.12
  10   0  -1 1756.39   65.52
 -10   0   1 1541.73   42.17
   5   7  -8  834.82   37.39
  -5  -7   8  771.48   42.48
 -10  -6  -7  856.92   34.61
   2  -8 -11  324.04   22.44
  -2   8  11  349.32   21.10
  10   0  -3  369.64   42.16
 -11  -6  -2   64.82   24.08
  -2   2 -12   65.80   17.24
  -2   2 -12   52.58   17.75
   2  -2  12   57.84   19.41
   0  -8 -13  114.41   24.36
   0  -8 -13   95.28   15.71
  -9  -4   8   12.60   22.22
   9   4  -8   17.03   21.01
   3   7  -8   71.47   20.17
  -3  -7   8   47.99   13.45
  -3  -7   8   52.70   23.48
   9  -2  -2  548.55   41.92
  -9   2   2  497.11   23.83
 -11  -6   0  191.40   25.88
  -6  -6   9   10.85   22.95
   6   6  -9   15.63   20.69
   0   4 -11  594.71   31.09
   0  -4  11  712.12   35.66
  -4 -10 -11   62.18   16.09
   4  10  11   58.84   15.68
   1  -9 -10    8.48   15.86
  -1   9  10   -0.27   16.63
  -2   9   7   14.39   14.99
   2  -9  -7    7.32   16.02
  -5 -10   2  732.46   39.33
  -5 -10   2  689.74   27.27
   5  10  -2  789.41   33.40
   1  -9   0   28.86   19.69
   1  -9   0   33.45   26.39
  -1   9   0   17.34   15.27
  -3 -11  -4   58.13   16.82
  -3 -11  -4   45.35   23.32
   3  11   4   59.85   18.91
   9  -2  -4   22.92   27.36
   7  -2 -11   93.78   21.09
   3  -8  -9   47.79   18.79
  -3   8   9   45.15   14.93
   7   7  12   27.96   17.11
  -7  -7 -12   21.54   15.28
   7   7  12   27.96   17.11
  -2   3 -11   76.93   19.17
  -2   3 -11   62.77   19.60
   2  -3  11   96.49   22.03
 -11  -4   2 1011.23   44.95
   3  10  11   27.64   16.98
  -3 -10 -11   27.74   15.73
 -11  -4  -2  125.72   22.92
 -11  -4  -2  101.93   15.46
  -8  -3 -10  644.64   29.68
   8   3  10  712.76   39.20
   2  -3 -15   -0.05   20.17
   8  10   0  723.00   32.04
  -8 -10   0  658.33   34.82
   0 -10  -3  219.90   28.41
   0  10   3  215.34   20.37
  -2  -3 -15   11.14   17.92
  -2  -3 -15   24.20   16.01
 -10  -5  -7   43.02   17.02
  10   5   7   42.74   26.33
   6  -4 -11    3.69   21.24
   0   2 -13   95.69   20.28
   0  -2  13   99.62   20.53
 -10  -8  -6    2.81   16.83
 -10  -8  -6   -8.76   23.71
   5  11   2  215.29   21.86
  -5 -11  -2  191.34   18.84
  -5 -11  -2  204.07   25.89
  -1  -2 -15  365.08   23.32
  -1  -2 -15  377.45   28.17
  -6 -11  -7  124.71   16.16
   6  11   7  129.39   20.05
   4  -3 -14   -2.81   23.80
  -2  -8   6  376.26   32.41
   2   8  -6  366.92   25.31
  -2  -8   6  341.92   22.49
   3  11   7  713.88   29.49
  -3 -11  -7  750.99   29.80
  -8  -9   3  113.63   25.00
   8   9  -3  127.93   21.96
  -8  -6 -11    0.24   17.09
   8   6  11   11.67   17.91
   3  -6 -13 1435.12   52.85
   2  -9  -3    1.83   25.06
  -2   9   3   -7.90   13.34
   2  -9  -3    5.53   19.11
  -4 -10   2  407.44   30.90
   4  10  -2  368.43   25.17
  -4 -10   2  386.00   21.89
 -11  -5  -3  153.48   16.56
 -11  -5  -3  154.23   25.86
  -3   7  -3   52.61   16.80
   3  -7   3   61.39   26.59
  -3   7  -3   68.85   15.06
   8   8  -5   34.03   20.71
  -8  -8   5   21.72   22.18
   1   9  -3  392.47   24.81
  -1  -9   3  389.35   31.69
  -1  -9   3  391.18   27.19
  -4   5  -6  115.92   19.69
   4  -5   6  125.34   27.44
  -6  -4  11  193.06   25.55
   6   4 -11  201.33   26.02
   2   1 -14   10.87   19.98
 -11  -3   1  492.20   32.98
  -7  -1 -10   53.09   19.59
   7   1  10   73.72   23.15
 -11  -5   2  784.76   39.47
  -5   3  -8  183.84   21.71
   5  -3   8  227.58   29.49
   6   2  12   23.49   20.37
  -6  -2 -12   16.13   16.48
 -11  -3   0  269.26   27.54
  -6   2  -8    1.38   13.23
   6  -2   8   13.56   23.79
   4  11   8  370.31   21.40
  -4 -11  -8  378.40   21.52
  10   0   0  785.51   45.91
 -10   0   0  663.00   27.43
 -10  -7  -7  893.44   34.16
 -10  -7  -7 1013.59   43.61
  -8   3  -1  472.52   24.07
   8  -3   1  523.49   39.83
  -7   0  -9  974.90   35.75
   7   0   9 1028.77   46.91
   9  -2  -1   -2.73   24.44
  -9   2   1    4.71   11.67
 -11  -6  -3  409.91   32.77
 -11  -6  -3  362.08   21.26
  -8  -3  10   40.79   21.21
   8   3 -10   27.23   23.99
  -6  -7 -13  123.54   19.32
  -6  -7 -13  123.54   17.34
   4   0 -14  124.17   26.87
   5  11   8 1206.82   39.19
  -5 -11  -8 1124.71   34.55
  10   0  -4  149.33   33.41
 -10  -1  -3 1158.58   37.32
  10   1   3 1370.66   58.20
   0  10   8   18.37   18.21
   0 -10  -8   22.34   17.88
   7   3 -11   21.79   22.22
  -7  -3  11   20.65   20.31
   6  10  -2  348.63   25.23
  -6 -10   2  309.56   19.80
  -6 -10   2  355.83   32.54
  -1  -6 -15  310.75   26.18
  -1  -6 -15  317.95   22.28
   6  -3 -12   15.58   22.27
   2  -1  13   97.76   20.64
  -2   1 -13   91.49   19.51
  -2   1 -13  113.32   20.93
   7   9  -4  140.50   20.93
  -7  -9   4  125.66   28.01
   6  -6  -4   22.84   17.74
  -2  -6 -15  387.27   27.75
  -2  -6 -15  377.19   20.94
  -1  -1  14   28.16   17.86
   1   1 -14   26.15   21.25
   1  -5 -15   76.21   23.48
  -1  -6   9   30.97   24.36
   1   6  -9   31.38   18.89
   6  -6  -5 1251.84   42.50
  -6   6   5 1092.50   33.96
   5   2  13   74.90   20.05
  -5  -2 -13   61.58   15.64
  -5  -2 -13   57.51   16.79
   4  11   2   70.29   18.52
  -4 -11  -2   70.74   15.77
  -4 -11  -2   67.56   25.58
  -6 -11  -2  271.55   18.32
   6  11   2  265.73   20.47
  -6 -11  -2  287.58   27.95
   5  10  11  411.18   24.41
  -6  -4 -13  157.98   20.72
   6   4  13  158.22   25.05
   4  -5 -13  800.99   41.22
  -9  -4  -9  213.16   23.44
   9   4   9  216.21   27.77
   9  -2  -5  567.37   41.95
  -1 -10 -10  224.21   20.05
  -7 -11  -5  117.77   23.12
  -7 -11  -5   99.33   15.28
   7  11   5  110.54   20.19
   8   5  11   30.49   21.53
  -8  -5 -11   21.07   16.96
   2  -8   2 1191.80   49.75
   2  -8   2 1146.99   40.95
  -2   8  -2 1179.53   37.48
   7  11   4  165.94   19.60
  -7 -11  -4  168.52   17.68
  -7 -11  -4  174.72   27.55
   0  -9   2  827.76   35.59
   0   9  -2  768.94   32.05
   0  -9   2  799.26   40.99
   3  -4   9  558.67   34.05
  -3   4  -9  497.77   27.72
  -3   4  -9  460.33   27.80
  -3 -11  -3  337.68   31.20
  -3 -11  -3  361.97   23.37
 -11  -3   2   77.08   23.22
 -10  -1   6    3.42   19.65
   5  -6 -10 1091.74   43.70
   8   7  11  248.03   27.03
  -8  -7 -11  209.64   21.99
  -9 -10  -4   45.08   24.97
  -9 -10  -4   29.74   16.79
  -5  -5 -14  121.92   18.95
 -11  -3  -1  521.71   23.65
  11   3   1  662.01   46.65
  -9 -10  -3   20.10   23.88
  -9 -10  -3    6.51   13.35
   9  10   3    5.36   17.87
  -3  -5 -15   20.97   15.76
  -7  -4 -12    9.38   17.82
   2  10  -1   25.71   18.32
  -2 -10   1    9.93   20.75
   2  -7 -13  350.93   20.38
 -10  -9  -3  297.00   30.20
 -10  -9  -3  232.12   19.35
   4  -7 -10 1581.49   43.74
  -8 -10  -8  165.42   18.59
  -5  -6 -14   31.40   16.76
   6  -5   2  101.37   26.30
  -6   5  -2   98.21   17.93
 -10  -3  -6  150.50   19.65
  -7  -9 -11  278.26   20.82
   6  -6  -3   63.67   29.15
   4  -7   1  558.70   39.59
  -8   2  -4  160.30   19.73
   7   8  -6   45.12   20.34
  -7  -8   6   67.67   26.02
  -2  -9   4   36.83   23.93
   2   9  -4   27.43   17.83
  -6  -7   8 1406.94   55.70
   6   7  -8 1637.83   51.25
;
_shelx_hkl_checksum              82579
loop_
_space_group_symop_id
_space_group_symop_operation_xyz
1 +X,+Y,+Z
2 -X,-Y,-Z
loop_
_atom_site_label
_atom_site_type_symbol
_atom_site_fract_x
_atom_site_fract_y
_atom_site_fract_z
_atom_site_U_iso_or_equiv
_atom_site_adp_type
_atom_site_occupancy
_atom_site_site_symmetry_order
_atom_site_calc_flag
_atom_site_refinement_flags_posn
_atom_site_refinement_flags_adp
_atom_site_refinement_flags_occupancy
_atom_site_disorder_assembly
_atom_site_disorder_group
Se1 Se 0.07920(3) 0.94764(3) -0.22908(2) 0.02610(8) Uani 1 1 d . . . . .
Se2 Se 0.00367(3) 0.77709(2) 0.05701(2) 0.02125(8) Uani 1 1 d . . . . .
Cl21 Cl 0.07703(10) 0.53764(12) 0.63520(8) 0.0634(2) Uani 1 1 d . . . . .
Cl22 Cl -0.17376(12) 0.85469(15) 0.49340(9) 0.0901(4) Uani 1 1 d . . . . .
P1 P -0.08871(6) 0.96928(7) -0.11630(4) 0.01737(13) Uani 1 1 d . . . . .
O16 O 0.49604(19) 0.63666(19) 0.08392(13) 0.0262(4) Uani 1 1 d . . . . .
O18 O 0.6074(2) 0.2744(2) 0.46067(14) 0.0357(4) Uani 1 1 d . . . . .
C3 C 0.1788(2) 0.8249(2) 0.09580(18) 0.0182(4) Uani 1 1 d . . . . .
H3 H 0.241749 0.833928 0.031744 0.022 Uiso 1 1 calc R U . . .
C4 C -0.2502(3) 0.9267(3) -0.14971(17) 0.0182(4) Uani 1 1 d . . . . .
C5 C -0.2152(3) 0.8074(3) -0.20002(18) 0.0233(5) Uani 1 1 d . . . . .
H5 H -0.108620 0.748200 -0.212883 0.028 Uiso 1 1 calc R U . . .
C6 C -0.3353(3) 0.7746(3) -0.2314(2) 0.0279(5) Uani 1 1 d . . . . .
H6 H -0.310991 0.691879 -0.264737 0.034 Uiso 1 1 calc R U . . .
C7 C -0.4909(3) 0.8629(3) -0.2141(2) 0.0309(6) Uani 1 1 d . . . . .
H7 H -0.574074 0.843251 -0.237835 0.037 Uiso 1 1 calc R U . . .
C8 C -0.5258(3) 0.9797(3) -0.1622(2) 0.0301(6) Uani 1 1 d . . . . .
H8 H -0.632529 1.038651 -0.149394 0.036 Uiso 1 1 calc R U . . .
C9 C -0.4053(3) 1.0108(3) -0.12892(19) 0.0237(5) Uani 1 1 d . . . . .
H9 H -0.428738 1.089298 -0.092052 0.028 Uiso 1 1 calc R U . . .
C10 C 0.2875(3) 0.6789(3) 0.19509(17) 0.0189(5) Uani 1 1 d . . . . .
C11 C 0.4497(3) 0.5859(3) 0.18575(18) 0.0197(5) Uani 1 1 d . . . . .
C12 C 0.5523(3) 0.4525(3) 0.27660(19) 0.0241(5) Uani 1 1 d . . . . .
H12 H 0.662009 0.392091 0.270331 0.029 Uiso 1 1 calc R U . . .
C13 C 0.4950(3) 0.4065(3) 0.37735(19) 0.0244(5) Uani 1 1 d . . . . .
C14 C 0.3347(3) 0.4922(3) 0.38746(19) 0.0249(5) Uani 1 1 d . . . . .
H14 H 0.294864 0.459271 0.455595 0.030 Uiso 1 1 calc R U . . .
C15 C 0.2340(3) 0.6271(3) 0.29582(18) 0.0219(5) Uani 1 1 d . . . . .
H15 H 0.124156 0.686222 0.302372 0.026 Uiso 1 1 calc R U . . .
C17 C 0.6591(3) 0.5457(4) 0.0710(2) 0.0450(7) Uani 1 1 d . . . . .
H17A H 0.684000 0.427454 0.087184 0.054 Uiso 1 1 calc R U . . .
H17B H 0.729268 0.552627 0.122650 0.054 Uiso 1 1 calc R U . . .
H17C H 0.675998 0.594590 -0.005639 0.054 Uiso 1 1 calc R U . . .
C19 C 0.5542(4) 0.2121(3) 0.5639(2) 0.0425(7) Uani 1 1 d . . . . .
H19A H 0.475162 0.174931 0.551028 0.051 Uiso 1 1 calc R U . . .
H19B H 0.505212 0.301925 0.594922 0.051 Uiso 1 1 calc R U . . .
H19C H 0.645885 0.116935 0.616408 0.051 Uiso 1 1 calc R U . . .
C21 C 0.0258(4) 0.7457(4) 0.5501(3) 0.0608(9) Uani 1 1 d . . . . .
H21A H 0.048335 0.803940 0.594537 0.073 Uiso 1 1 calc R U . . .
H21B H 0.093162 0.745712 0.489280 0.073 Uiso 1 1 calc R U . . .
loop_
_atom_site_aniso_label
_atom_site_aniso_U_11
_atom_site_aniso_U_22
_atom_site_aniso_U_33
_atom_site_aniso_U_23
_atom_site_aniso_U_13
_atom_site_aniso_U_12
Se1 0.02062(14) 0.02784(13) 0.03245(15) -0.01488(11) 0.01000(10) -0.01036(11)
Se2 0.02233(14) 0.01683(12) 0.02232(13) -0.00404(9) -0.00353(9) -0.00849(9)
Cl21 0.0569(5) 0.0684(5) 0.0712(6) -0.0286(5) 0.0082(4) -0.0305(4)
Cl22 0.0562(6) 0.1021(8) 0.0663(6) 0.0019(6) 0.0206(5) -0.0192(5)
P1 0.0150(3) 0.0165(3) 0.0191(3) -0.0069(2) 0.0000(2) -0.0052(2)
O16 0.0196(8) 0.0237(8) 0.0240(9) -0.0051(7) 0.0047(7) -0.0022(7)
O18 0.0357(10) 0.0269(9) 0.0257(9) 0.0026(7) -0.0076(8) -0.0056(8)
C3 0.0149(11) 0.0173(10) 0.0212(11) -0.0074(9) 0.0006(9) -0.0055(9)
C4 0.0185(12) 0.0188(10) 0.0150(10) -0.0037(8) -0.0002(9) -0.0078(9)
C5 0.0209(12) 0.0237(11) 0.0253(12) -0.0108(10) 0.0042(10) -0.0083(10)
C6 0.0323(14) 0.0301(12) 0.0318(13) -0.0185(11) 0.0064(11) -0.0176(11)
C7 0.0268(14) 0.0344(13) 0.0384(14) -0.0140(11) -0.0001(11) -0.0186(11)
C8 0.0174(12) 0.0320(13) 0.0423(15) -0.0157(12) 0.0070(11) -0.0105(10)
C9 0.0221(12) 0.0235(11) 0.0281(12) -0.0127(10) 0.0054(10) -0.0099(10)
C10 0.0192(12) 0.0162(10) 0.0204(11) -0.0066(9) -0.0027(9) -0.0068(9)
C11 0.0209(12) 0.0167(10) 0.0207(11) -0.0078(9) 0.0016(9) -0.0070(9)
C12 0.0191(12) 0.0193(11) 0.0295(13) -0.0090(10) -0.0019(10) -0.0043(9)
C13 0.0284(13) 0.0162(10) 0.0238(12) -0.0041(9) -0.0065(10) -0.0074(10)
C14 0.0320(14) 0.0212(11) 0.0204(11) -0.0055(9) 0.0017(10) -0.0122(10)
C15 0.0204(12) 0.0206(11) 0.0246(12) -0.0086(9) 0.0013(9) -0.0084(9)
C17 0.0291(15) 0.0420(16) 0.0361(15) -0.0039(13) 0.0123(12) 0.0009(12)
C19 0.0571(19) 0.0314(14) 0.0260(14) 0.0033(11) -0.0093(13) -0.0175(13)
C21 0.061(2) 0.075(2) 0.064(2) -0.0321(19) 0.0194(18) -0.0404(19)
loop_
_atom_type_symbol
_atom_type_description
_atom_type_scat_dispersion_real
_atom_type_scat_dispersion_imag
_atom_type_scat_source
C C 0.0033 0.0016
;
International Tables for Crystallography
(Vol. C, Tables 4.2.6.8 and 6.1.1.4)
;
H H 0.0000 0.0000
;
International Tables for Crystallography
(Vol. C, Table 6.1.1.4)
;
O O 0.0106 0.0060
;
International Tables for Crystallography
(Vol. C, Tables 4.2.6.8 and 6.1.1.4)
;
P P 0.1023 0.0942
;
International Tables for Crystallography
(Vol. C, Tables 4.2.6.8 and 6.1.1.4)
;
Se Se -0.0929 2.2259
;
International Tables for Crystallography
(Vol. C, Tables 4.2.6.8 and 6.1.1.4)
;
Cl Cl 0.1484 0.1585
;
International Tables for Crystallography
(Vol. C, Tables 4.2.6.8 and 6.1.1.4)
;
loop_
_geom_angle_atom_site_label_1
_geom_angle_atom_site_label_2
_geom_angle_atom_site_label_3
_geom_angle
_geom_angle_site_symmetry_1
_geom_angle_site_symmetry_3
_geom_angle_publ_flag
C3 Se2 P1 99.56(6) . . ?
C4 P1 C3 108.00(10) . 2_575 ?
C4 P1 Se1 113.87(7) . . ?
C3 P1 Se1 114.52(7) 2_575 . ?
C4 P1 Se2 99.09(7) . . ?
C3 P1 Se2 104.45(7) 2_575 . ?
Se1 P1 Se2 115.40(3) . . ?
C11 O16 C17 117.85(18) . . ?
C13 O18 C19 117.5(2) . . ?
C10 C3 P1 114.59(14) . 2_575 ?
C10 C3 Se2 108.33(14) . . ?
P1 C3 Se2 108.69(10) 2_575 . ?
C10 C3 H3 108.4 . . ?
P1 C3 H3 108.4 2_575 . ?
Se2 C3 H3 108.4 . . ?
C9 C4 C5 119.9(2) . . ?
C9 C4 P1 122.35(16) . . ?
C5 C4 P1 117.72(16) . . ?
C6 C5 C4 120.2(2) . . ?
C6 C5 H5 119.9 . . ?
C4 C5 H5 119.9 . . ?
C7 C6 C5 119.8(2) . . ?
C7 C6 H6 120.1 . . ?
C5 C6 H6 120.1 . . ?
C6 C7 C8 120.3(2) . . ?
C6 C7 H7 119.9 . . ?
C8 C7 H7 119.9 . . ?
C7 C8 C9 120.1(2) . . ?
C7 C8 H8 119.9 . . ?
C9 C8 H8 119.9 . . ?
C8 C9 C4 119.7(2) . . ?
C8 C9 H9 120.1 . . ?
C4 C9 H9 120.1 . . ?
C15 C10 C11 117.96(19) . . ?
C15 C10 C3 122.6(2) . . ?
C11 C10 C3 119.43(19) . . ?
O16 C11 C12 123.5(2) . . ?
O16 C11 C10 116.13(18) . . ?
C12 C11 C10 120.3(2) . . ?
C11 C12 C13 120.0(2) . . ?
C11 C12 H12 120.0 . . ?
C13 C12 H12 120.0 . . ?
O18 C13 C14 124.8(2) . . ?
O18 C13 C12 114.6(2) . . ?
C14 C13 C12 120.7(2) . . ?
C15 C14 C13 118.5(2) . . ?
C15 C14 H14 120.8 . . ?
C13 C14 H14 120.8 . . ?
C10 C15 C14 122.5(2) . . ?
C10 C15 H15 118.8 . . ?
C14 C15 H15 118.8 . . ?
O16 C17 H17A 109.5 . . ?
O16 C17 H17B 109.5 . . ?
H17A C17 H17B 109.5 . . ?
O16 C17 H17C 109.5 . . ?
H17A C17 H17C 109.5 . . ?
H17B C17 H17C 109.5 . . ?
O18 C19 H19A 109.5 . . ?
O18 C19 H19B 109.5 . . ?
H19A C19 H19B 109.5 . . ?
O18 C19 H19C 109.5 . . ?
H19A C19 H19C 109.5 . . ?
H19B C19 H19C 109.5 . . ?
Cl22 C21 Cl21 112.06(19) . . ?
Cl22 C21 H21A 109.2 . . ?
Cl21 C21 H21A 109.2 . . ?
Cl22 C21 H21B 109.2 . . ?
Cl21 C21 H21B 109.2 . . ?
H21A C21 H21B 107.9 . . ?
loop_
_geom_bond_atom_site_label_1
_geom_bond_atom_site_label_2
_geom_bond_distance
_geom_bond_site_symmetry_2
_geom_bond_publ_flag
Se1 P1 2.0965(7) . ?
Se2 C3 1.986(2) . ?
Se2 P1 2.2504(7) . ?
Cl21 C21 1.749(4) . ?
Cl22 C21 1.728(4) . ?
P1 C4 1.811(2) . ?
P1 C3 1.855(2) 2_575 ?
O16 C11 1.364(3) . ?
O16 C17 1.426(3) . ?
O18 C13 1.359(3) . ?
O18 C19 1.431(3) . ?
C3 C10 1.501(3) . ?
C3 H3 1.0000 . ?
C4 C9 1.388(3) . ?
C4 C5 1.390(3) . ?
C5 C6 1.384(3) . ?
C5 H5 0.9500 . ?
C6 C7 1.384(4) . ?
C6 H6 0.9500 . ?
C7 C8 1.385(3) . ?
C7 H7 0.9500 . ?
C8 C9 1.387(3) . ?
C8 H8 0.9500 . ?
C9 H9 0.9500 . ?
C10 C15 1.385(3) . ?
C10 C11 1.411(3) . ?
C11 C12 1.382(3) . ?
C12 C13 1.393(3) . ?
C12 H12 0.9500 . ?
C13 C14 1.388(3) . ?
C14 C15 1.387(3) . ?
C14 H14 0.9500 . ?
C15 H15 0.9500 . ?
C17 H17A 0.9800 . ?
C17 H17B 0.9800 . ?
C17 H17C 0.9800 . ?
C19 H19A 0.9800 . ?
C19 H19B 0.9800 . ?
C19 H19C 0.9800 . ?
C21 H21A 0.9900 . ?
C21 H21B 0.9900 . ?
loop_
_geom_torsion_atom_site_label_1
_geom_torsion_atom_site_label_2
_geom_torsion_atom_site_label_3
_geom_torsion_atom_site_label_4
_geom_torsion
_geom_torsion_site_symmetry_1
_geom_torsion_site_symmetry_2
_geom_torsion_site_symmetry_3
_geom_torsion_site_symmetry_4
_geom_torsion_publ_flag
C3 P1 C4 C9 -17.3(2) 2_575 . . . ?
Se1 P1 C4 C9 -145.67(16) . . . . ?
Se2 P1 C4 C9 91.25(18) . . . . ?
C3 P1 C4 C5 161.39(17) 2_575 . . . ?
Se1 P1 C4 C5 32.99(19) . . . . ?
Se2 P1 C4 C5 -90.09(17) . . . . ?
C9 C4 C5 C6 1.3(3) . . . . ?
P1 C4 C5 C6 -177.43(18) . . . . ?
C4 C5 C6 C7 1.0(4) . . . . ?
C5 C6 C7 C8 -2.1(4) . . . . ?
C6 C7 C8 C9 1.0(4) . . . . ?
C7 C8 C9 C4 1.2(4) . . . . ?
C5 C4 C9 C8 -2.4(3) . . . . ?
P1 C4 C9 C8 176.28(18) . . . . ?
P1 C3 C10 C15 62.6(2) 2_575 . . . ?
Se2 C3 C10 C15 -59.0(2) . . . . ?
P1 C3 C10 C11 -119.53(19) 2_575 . . . ?
Se2 C3 C10 C11 118.95(18) . . . . ?
C17 O16 C11 C12 0.4(3) . . . . ?
C17 O16 C11 C10 -179.9(2) . . . . ?
C15 C10 C11 O16 177.37(18) . . . . ?
C3 C10 C11 O16 -0.6(3) . . . . ?
C15 C10 C11 C12 -2.9(3) . . . . ?
C3 C10 C11 C12 179.08(19) . . . . ?
O16 C11 C12 C13 -178.79(19) . . . . ?
C10 C11 C12 C13 1.5(3) . . . . ?
C19 O18 C13 C14 4.5(3) . . . . ?
C19 O18 C13 C12 -175.2(2) . . . . ?
C11 C12 C13 O18 -179.50(19) . . . . ?
C11 C12 C13 C14 0.8(3) . . . . ?
O18 C13 C14 C15 178.8(2) . . . . ?
C12 C13 C14 C15 -1.5(3) . . . . ?
C11 C10 C15 C14 2.1(3) . . . . ?
C3 C10 C15 C14 -179.91(19) . . . . ?
C13 C14 C15 C10 0.0(3) . . . . ?
