#------------------------------------------------------------------------------
#$Date: 2020-05-05 22:48:44 +0300 (Tue, 05 May 2020) $
#$Revision: 251750 $
#$URL: file:///home/coder/svn-repositories/cod/cif/4/51/76/4517641.cif $
#------------------------------------------------------------------------------
#
# This file is available in the Crystallography Open Database (COD),
# http://www.crystallography.net/
#
# All data on this site have been placed in the public domain by the
# contributors.
#
data_4517641
loop_
_publ_author_name
'Jadhav, Prakash D.'
'Chen, Jia-Xuan'
'Liu, Rai-Shung'
_publ_section_title
;
 Gold(I)-Catalyzed Highly Enantioselective [4 + 2]-Annulations of
 Cyclopentadienes with Nitrosoarenes via Nitroso-Povarov versus Oxidative
 Nitroso-Povarov Reactions
;
_journal_name_full               'ACS Catalysis'
_journal_page_first              5840
_journal_paper_doi               10.1021/acscatal.0c01293
_journal_year                    2020
_chemical_absolute_configuration rm
_chemical_formula_sum            'C19 H16 Br N O2'
_chemical_formula_weight         370.24
_space_group_crystal_system      monoclinic
_space_group_IT_number           4
_space_group_name_Hall           'P 2yb'
_space_group_name_H-M_alt        'P 1 21 1'
_atom_sites_solution_hydrogens   geom
_audit_creation_method           SHELXL-2014/6
_cell_angle_alpha                90
_cell_angle_beta                 99.293(2)
_cell_angle_gamma                90
_cell_formula_units_Z            2
_cell_length_a                   6.4745(5)
_cell_length_b                   6.9054(5)
_cell_length_c                   18.0777(14)
_cell_measurement_reflns_used    5348
_cell_measurement_temperature    100(2)
_cell_measurement_theta_max      26.3616
_cell_measurement_theta_min      3.1633
_cell_volume                     797.63(10)
_computing_cell_refinement       'SAINT V8.34A (Bruker AXS Inc., 2013)'
_computing_data_collection       'APEX2 (Bruker AXS, 2010)'
_computing_data_reduction        'SAINT V8.34A (Bruker AXS Inc., 2013)'
_computing_molecular_graphics    'SHELXTL (Sheldrick, 2008)'
_computing_publication_material  SHELXTL
_computing_structure_refinement  'SHELXL-2014/6 (Sheldrick, 2014)'
_diffrn_ambient_temperature      100(2)
_diffrn_detector_area_resol_mean 8.3333
_diffrn_measured_fraction_theta_full 0.999
_diffrn_measured_fraction_theta_max 0.998
_diffrn_measurement_device_type  'Bruker APEX-II CCD'
_diffrn_measurement_method       '\f and \w scans'
_diffrn_radiation_type           MoK\a
_diffrn_radiation_wavelength     0.71073
_diffrn_reflns_av_R_equivalents  0.0265
_diffrn_reflns_av_unetI/netI     0.0505
_diffrn_reflns_Laue_measured_fraction_full 0.999
_diffrn_reflns_Laue_measured_fraction_max 0.998
_diffrn_reflns_limit_h_max       8
_diffrn_reflns_limit_h_min       -6
_diffrn_reflns_limit_k_max       6
_diffrn_reflns_limit_k_min       -8
_diffrn_reflns_limit_l_max       22
_diffrn_reflns_limit_l_min       -22
_diffrn_reflns_number            6224
_diffrn_reflns_point_group_measured_fraction_full 0.918
_diffrn_reflns_point_group_measured_fraction_max 0.905
_diffrn_reflns_theta_full        25.242
_diffrn_reflns_theta_max         26.387
_diffrn_reflns_theta_min         1.141
_exptl_absorpt_coefficient_mu    2.586
_exptl_absorpt_correction_T_max  0.7454
_exptl_absorpt_correction_T_min  0.5008
_exptl_absorpt_correction_type   multi-scan
_exptl_absorpt_process_details   'SADABS V2014/4 (Bruker AXS Inc.)'
_exptl_crystal_colour            red
_exptl_crystal_density_diffrn    1.542
_exptl_crystal_density_meas      ?
_exptl_crystal_density_method    'not measured'
_exptl_crystal_description       tabular
_exptl_crystal_F_000             376
_exptl_crystal_size_max          0.20
_exptl_crystal_size_mid          0.20
_exptl_crystal_size_min          0.08
_refine_diff_density_max         0.363
_refine_diff_density_min         -0.233
_refine_diff_density_rms         0.060
_refine_ls_abs_structure_details
;
 Flack x determined using 1107 quotients [(I+)-(I-)]/[(I+)+(I-)]
 (Parsons, Flack and Wagner, Acta Cryst. B69 (2013) 249-259).
;
_refine_ls_abs_structure_Flack   0.024(6)
_refine_ls_extinction_method     none
_refine_ls_goodness_of_fit_ref   1.090
_refine_ls_hydrogen_treatment    constr
_refine_ls_matrix_type           full
_refine_ls_number_parameters     210
_refine_ls_number_reflns         2961
_refine_ls_number_restraints     1
_refine_ls_restrained_S_all      1.090
_refine_ls_R_factor_all          0.0229
_refine_ls_R_factor_gt           0.0217
_refine_ls_shift/su_max          0.001
_refine_ls_shift/su_mean         0.000
_refine_ls_structure_factor_coef Fsqd
_refine_ls_weighting_details
'w=1/[\s^2^(Fo^2^)+0.3212P] where P=(Fo^2^+2Fc^2^)/3'
_refine_ls_weighting_scheme      calc
_refine_ls_wR_factor_gt          0.0518
_refine_ls_wR_factor_ref         0.0661
_reflns_Friedel_coverage         0.668
_reflns_Friedel_fraction_full    0.821
_reflns_Friedel_fraction_max     0.794
_reflns_number_gt                2849
_reflns_number_total             2961
_reflns_threshold_expression     'I > 2\s(I)'
_cod_data_source_file            cs0c01293_si_003.cif
_cod_data_source_block           191224LT_0m
_cod_depositor_comments
;
The following automatic conversions were performed:

data item '_exptl_crystal_density_meas' value 'not measured' was
changed to '?' -- the value is perceived as not measured.

Automatic conversion script
Id: cif_fix_values 7556 2019-12-06 15:28:31Z antanas 
;
_cod_original_sg_symbol_H-M      'P 21'
_cod_database_code               4517641
_shelx_space_group_comment
;
The symmetry employed for this shelxl refinement is uniquely defined
by the following loop, which should always be used as a source of
symmetry information in preference to the above space-group names.
They are only intended as comments.
;
_shelxl_version_number           2014/6
_shelx_res_file
;
TITL 191224LT_0m in P2(1)
CELL 0.71073 6.4745 6.9054 18.0777 90.000 99.293 90.000
ZERR 2.00 0.0005 0.0005 0.0014 0.000 0.002 0.000
LATT -1
SYMM -x, y+1/2, -z
SFAC C H N O BR
UNIT 38 32 2 4 2
TEMP -173.000
ACTA
L.S. 4
FMAP 2
PLAN 5
BOND $H
WGHT    0.000000    0.321200
FVAR       0.84068
BR1   5    1.043912    0.249845    1.162843    11.00000    0.02911    0.02297 =
         0.01300   -0.00294   -0.00491    0.00685
O1    4    0.513331   -0.093300    0.720020    11.00000    0.02517    0.01375 =
         0.01548    0.00094    0.00093   -0.00062
O2    4    0.787453    0.525813    0.507873    11.00000    0.02651    0.03466 =
         0.02022    0.00489    0.00607   -0.00621
N1    3    0.598946   -0.105810    0.654540    11.00000    0.02013    0.02014 =
         0.01631   -0.00458   -0.00144    0.00136
C1    1    0.889801    0.230095    1.064605    11.00000    0.02255    0.01558 =
         0.01470   -0.00251   -0.00278    0.00571
C2    1    0.988952    0.288646    1.005770    11.00000    0.02138    0.01703 =
         0.01894   -0.00127   -0.00215   -0.00248
AFIX  43
H16   2    1.128420    0.336179    1.015247    11.00000   -1.20000
AFIX   0
C3    1    0.882189    0.276927    0.933184    11.00000    0.02468    0.01331 =
         0.01574    0.00214    0.00341   -0.00324
AFIX  43
H2    2    0.950297    0.316666    0.892946    11.00000   -1.20000
AFIX   0
C4    1    0.676867    0.208199    0.917491    11.00000    0.02173    0.01171 =
         0.01289    0.00034    0.00079    0.00172
C5    1    0.568312    0.199161    0.839562    11.00000    0.01705    0.01568 =
         0.01440   -0.00104   -0.00071    0.00030
C6    1    0.612853    0.301386    0.782017    11.00000    0.02028    0.01631 =
         0.01505   -0.00317    0.00179   -0.00352
AFIX  43
H5    2    0.727036    0.389058    0.785255    11.00000   -1.20000
AFIX   0
C7    1    0.461563    0.262682    0.710764    11.00000    0.01783    0.01573 =
         0.01164    0.00006    0.00050   -0.00298
C8    1    0.569685    0.246568    0.642342    11.00000    0.01375    0.01797 =
         0.00974    0.00033   -0.00205   -0.00023
C9    1    0.627171    0.400997    0.605267    11.00000    0.01857    0.01870 =
         0.01581   -0.00340   -0.00146    0.00024
AFIX  43
H10   2    0.597886    0.526934    0.622020    11.00000   -1.20000
AFIX   0
C10   1    0.734213    0.382057    0.539427    11.00000    0.01584    0.02990 =
         0.01331    0.00316   -0.00008   -0.00339
C11   1    0.768794    0.185439    0.514717    11.00000    0.01803    0.03385 =
         0.01632   -0.00335    0.00340    0.00214
AFIX  43
H1    2    0.828941    0.167171    0.470646    11.00000   -1.20000
AFIX   0
C12   1    0.583542    0.145391    0.978264    11.00000    0.01726    0.01425 =
         0.01884   -0.00178    0.00181   -0.00043
AFIX  43
H4    2    0.445746    0.093830    0.969025    11.00000   -1.20000
AFIX   0
C13   1    0.688509    0.156994    1.051821    11.00000    0.02269    0.01660 =
         0.01357   -0.00047    0.00478    0.00381
AFIX  43
H3    2    0.622820    0.115394    1.092407    11.00000   -1.20000
AFIX   0
C14   1    0.381562    0.069118    0.814458    11.00000    0.02102    0.01996 =
         0.01099    0.00150   -0.00010   -0.00375
AFIX  23
H15   2    0.252606    0.123524    0.829128    11.00000   -1.20000
H14   2    0.405196   -0.062507    0.835857    11.00000   -1.20000
AFIX   0
C15   1    0.367986    0.066133    0.728872    11.00000    0.01673    0.01907 =
         0.01210    0.00173   -0.00077   -0.00029
C16   1    0.620222    0.053609    0.618574    11.00000    0.01344    0.01758 =
         0.01284   -0.00154   -0.00128   -0.00017
C17   1    0.294640    0.423278    0.699302    11.00000    0.02774    0.02153 =
         0.01884    0.00402    0.00778    0.00445
AFIX 137
H7    2    0.215749    0.422308    0.741228    11.00000   -1.50000
H6    2    0.198878    0.400511    0.652321    11.00000   -1.50000
H8    2    0.362999    0.549281    0.697060    11.00000   -1.50000
AFIX   0
C18   1    0.718681    0.030741    0.552009    11.00000    0.01651    0.02933 =
         0.01811   -0.00753   -0.00127    0.00346
AFIX  43
H9    2    0.747212   -0.095301    0.535170    11.00000   -1.20000
AFIX   0
C19   1    0.157224    0.015212    0.683121    11.00000    0.01900    0.03147 =
         0.01663   -0.00198    0.00011   -0.00766
AFIX 137
H11   2    0.166816    0.021141    0.629618    11.00000   -1.50000
H13   2    0.051518    0.107587    0.694264    11.00000   -1.50000
H12   2    0.117302   -0.115959    0.695949    11.00000   -1.50000
AFIX   0
HKLF 4 1 1 0 0 0 1 0 0 0 1

REM  191224LT_0m in P2(1)
REM R1 =  0.0217 for    2849 Fo > 4sig(Fo)  and  0.0229 for all    2961 data
REM    210 parameters refined using      1 restraints

END

WGHT      0.0000      0.3211

REM Highest difference peak  0.363,  deepest hole -0.233,  1-sigma level  0.060
Q1    1   0.5217  0.2488  0.6720  11.00000  0.05    0.36
Q2    1   1.0033  0.1183  1.1621  11.00000  0.05    0.36
Q3    1   0.9008  0.2725  1.1719  11.00000  0.05    0.33
Q4    1   0.4025  0.1708  0.7108  11.00000  0.05    0.30
Q5    1   1.0630  0.3883  1.1686  11.00000  0.05    0.28
;
_shelx_res_checksum              87726
_shelx_hkl_file
;
   1   0   0 238.269 14.3765   3
  -1   0   0 228.790 14.3499   1
  -1   0   0 225.241 14.3532   1
  -1   0   0 242.942 14.3285   3
   1   0   0 241.873 14.4418   1
   1   0   0 244.080 14.4442   1
   2   0   0 1050.97 61.5591   1
   2   0   0 1057.43 61.9869   1
   2   0   0 1015.39 61.5615   1
   2   0   0 1081.84 61.4288   3
  -2   0   0 974.296 61.2532   1
  -2   0   0 1038.06 61.2938   1
   3   0   0 1206.88 74.0883   1
   3   0   0 1200.75 73.3937   1
   3   0   0 1295.38 73.6110   1
  -3   0   0 1213.69 72.8900   1
   4   0   0 13.0124 3.21697   1
   4   0   0 13.1818 3.69800   1
  -4   0   0 9.80718 2.22562   1
   5   0   0 161.795 13.1259   1
   5   0   0 178.004 17.0963   1
   6   0   0 54.0459 7.88828   1
   7   0   0 3.30033 4.59407   1
   0  -1   0 -4.4877 0.35589   1
   0  -1   0 -4.1630 0.50706   1
   0   1   0 -3.9278 0.46961   1
   0   1   0 -4.6458 0.32330   1
  -1  -1   0 887.787 52.3793   1
  -1  -1   0 881.347 52.8157   1
   1   1   0 852.564 52.7883   1
   2  -1   0 1458.80 81.4706   1
  -2  -1   0 1371.59 82.2503   1
   2  -1   0 1370.45 81.6404   1
   2  -1   0 1416.95 81.4476   3
  -2  -1   0 1521.99 82.9951   1
   2   1   0 1201.28 82.6470   1
   2   1   0 1331.06 82.2422   1
  -3  -1   0 251.843 17.2373   1
   3  -1   0 284.240 16.5309   1
   3  -1   0 252.286 16.4115   1
   3  -1   0 262.860 16.3339   3
   3   1   0 257.794 17.5471   1
   3   1   0 255.491 18.2953   1
  -4  -1   0 495.803 33.9589   1
   4  -1   0 561.292 33.7632   1
   4  -1   0 499.830 33.4704   1
   4  -1   0 579.261 34.5180   1
   4   1   0 590.528 34.9673   1
   5  -1   0 520.066 36.4103   1
  -5  -1   0 543.720 35.4888   1
   5  -1   0 584.247 35.6836   1
   5   1   0 604.726 36.9665   1
   6  -1   0 580.771 34.9259   1
   6   1   0 480.200 35.3632   1
   7  -1   0 324.717 24.2599   1
   7   1   0 351.921 25.7880   1
   0  -2   0 3182.59 186.377   1
   0  -2   0 3061.96 183.765   1
   0   2   0 3194.39 184.381   1
   0   2   0 2998.53 184.276   1
  -1  -2   0 2600.37 153.368   1
  -1  -2   0 2604.59 153.847   1
   1   2   0 2503.88 153.840   1
   1   2   0 2649.80 153.399   1
  -2  -2   0 3870.66 232.697   1
   2   2   0 4011.77 236.693   1
   3  -2   0 565.141 32.2410   1
  -3  -2   0 540.676 34.5118   1
   3  -2   0 556.713 32.1664   1
   3  -2   0 565.850 32.2610   3
   3   2   0 475.430 34.2386   1
  -4  -2   0 184.230 14.8714   1
   4  -2   0 195.773 13.1932   1
   4  -2   0 199.186 13.1582   1
   4   2   0 241.322 15.9114   1
   5  -2   0 52.9401 6.29524   1
   5  -2   0 46.3786 5.48161   1
   5  -2   0 55.9185 8.72353   1
  -5  -2   0 42.7455 6.65130   1
   5   2   0 34.2351 6.60314   1
   6  -2   0 32.9686 5.46602   1
   6   2   0 31.7011 7.10978   1
   7  -2   0 3.01953 3.72073   1
   7   2   0 2.66472 5.25033   1
   0  -3   0 -2.1455 1.53593   1
   0  -3   0 -2.1159 1.11658   1
   0   3   0 -2.5774 0.97877   1
  -1  -3   0 461.468 30.4293   1
  -1  -3   0 455.605 29.5146   1
   1  -3   0 452.809 28.6597   1
   1  -3   0 460.685 28.3335   1
   1   3   0 521.351 29.5958   1
  -2  -3   0 390.353 25.8927   1
   2   3   0 365.113 24.4880   1
  -3  -3   0 90.6815 10.3118   1
  -3  -3   0 93.1688 9.47424   1
   3   3   0 127.799 9.93940   1
   4  -3   0 954.674 52.8009   1
  -4  -3   0 955.436 56.1501   1
   4  -3   0 870.429 52.5959   1
   4   3   0 774.185 55.5608   1
  -5  -3   0 479.426 32.3982   1
   5  -3   0 463.983 29.3449   1
   5   3   0 486.090 32.7757   1
  -6  -3   0 283.383 21.9862   1
   6  -3   0 294.843 19.3354   1
   6   3   0 270.905 22.4003   1
   7  -3   0 189.584 15.3779   1
   7   3   0 227.320 19.5836   1
   0  -4   0 1559.02 89.3166   1
   0  -4   0 1523.25 90.1479   1
   0   4   0 1399.88 88.2955   1
  -1  -4   0 2123.26 130.573   1
   1  -4   0 2177.72 128.926   1
   1  -4   0 2131.52 128.329   1
   1   4   0 2261.00 129.144   1
   2  -4   0 766.515 46.7365   1
  -2  -4   0 759.036 50.1145   1
   2  -4   0 769.835 46.4130   1
   2   4   0 830.896 48.7768   1
  -3  -4   0 95.5661 11.5918   1
  -3  -4   0 107.260 10.6892   1
   3   4   0 126.289 10.8012   1
  -4  -4   0 178.987 14.8869   1
   4   4   0 145.702 13.8838   1
  -5  -4   0 40.9665 8.04108   1
   5  -4   0 41.5654 4.12445   1
   5   4   0 59.0093 9.07126   1
   6  -4   0 -2.4485 2.21738   1
  -6  -4   0 0.19444 4.89285   1
   6   4   0 3.45737 5.51378   1
   7  -4   0 15.5162 4.06058   1
   7   4   0 26.3900 8.39206   1
   0  -5   0 1.44709 3.06354   1
   0  -5   0 0.61557 1.98438   1
   0  -5   0 1.01743 1.85930   3
   0   5   0 0.23989 0.44806   1
  -1  -5   0 219.536 18.0913   1
   1  -5   0 224.368 16.4523   1
   1  -5   0 221.260 15.4556   1
   1   5   0 240.113 16.0431   1
  -2  -5   0 123.487 12.7360   1
   2  -5   0 114.860 8.61936   1
   2  -5   0 117.901 9.43722   1
   3  -5   0 166.255 10.7159   3
  -3  -5   0 160.091 14.7163   1
   3  -5   0 171.631 11.3450   1
  -3  -5   0 161.376 16.1699   1
   3  -5   0 169.564 10.8388   1
   3   5   0 158.264 14.1509   1
  -4  -5   0 271.295 22.1270   1
   4   5   0 294.510 22.0101   1
  -5  -5   0 325.198 24.5564   1
   5   5   0 289.351 23.9153   1
  -6  -5   0 233.123 20.8028   1
   6   5   0 213.604 20.5074   1
   0  -6   0 1477.93 91.2517   1
   1  -6   0 174.133 14.9748   1
  -1  -6   0 191.032 16.8969   1
   2  -6   0 764.485 50.0276   1
  -2  -6   0 782.989 53.4849   1
   2   6   0 855.752 50.7484   1
   3  -6   0 210.421 14.3048   1
  -3  -6   0 184.999 17.5331   1
  -3  -6   0 168.337 18.8091   1
   3   6   0 198.801 16.1923   1
  -4  -6   0 9.80872 6.33906   1
   4  -6   0 12.6961 3.03801   1
   4   6   0 24.1606 6.58823   1
  -5  -6   0 16.4763 7.16885   1
   5   6   0 10.6300 6.01330   1
   0  -7   0 -4.2140 4.15334   1
  -1  -7   0 43.5009 9.44569   1
   1  -7   0 43.6769 8.34195   1
   2  -7   0 14.5358 5.49258   1
  -2  -7   0 17.1816 6.44479   1
  -2  -7   0 13.9430 7.38705   1
  -3  -7   0 193.814 20.1711   1
   3  -7   0 188.757 15.1965   1
  -3  -7   0 186.163 18.2157   1
  -4  -7   0 135.040 16.3178   1
   4  -7   0 150.510 13.0119   1
   0  -8   0 305.166 25.7217   1
  -1  -8   0 308.122 27.1006   1
   1  -8   0 324.368 25.5310   1
  -2  -8   0 201.550 21.3283   1
   2  -8   0 215.248 18.5218   1
  -2  -8   0 192.013 19.2107   1
   8   0  -1 8.30271 5.84620   1
   7   0  -1 69.3278 9.68741   1
   6   0  -1 483.844 32.4122   1
   5   0  -1 455.463 30.1362   1
   5   0  -1 468.978 31.5330   1
   4   0  -1 131.109 10.8290   1
   4   0  -1 122.286 9.89123   1
  -4   0   1 126.366 9.03134   1
   4   0  -1 133.049 9.72175   3
   3   0  -1 3892.25 229.750   1
   3   0  -1 3911.03 226.988   1
   3   0  -1 3834.68 227.579   3
  -3   0   1 3763.05 226.906   1
   2   0  -1 2748.48 163.616   1
  -2   0   1 2736.13 162.475   1
   2   0  -1 2728.17 162.353   1
  -2   0   1 2647.30 162.281   1
   2   0  -1 2848.48 162.800   3
  -1   0   1 3525.04 210.762   1
   1   0  -1 3641.74 209.786   3
   1   0  -1 3488.74 210.582   1
  -1   0   1 3711.01 209.517   3
  -1   0   1 3438.97 209.576   1
   0   0   1 -0.0442 0.13509   1
   0   0  -1 -0.1105 0.08812   1
   0   0  -1 -0.3050 0.09915   1
   0   0   1 -0.2655 0.05973   1
  -1   0  -1 1192.36 70.4295   1
   1   0   1 1165.71 70.7332   1
  -1   0  -1 1159.67 71.1657   1
   1   0   1 1178.79 71.2326   1
  -2   0  -1 3211.17 183.921   1
   2   0   1 3153.20 184.984   1
  -2   0  -1 3111.96 183.793   1
   2   0   1 2927.57 183.036   1
  -3   0  -1 160.641 10.1999   1
   3   0   1 151.975 10.7786   1
   3   0   1 142.939 10.6752   1
   4   0   1 464.078 29.4661   1
   4   0   1 487.496 30.5067   1
  -4   0  -1 442.832 28.1515   1
   4   0   1 447.543 29.2606   1
   5   0   1 994.347 61.3251   1
   6   0   1 220.615 17.2624   1
   7   0   1 33.0787 7.10974   1
   7  -1  -1 131.509 13.1522   1
   7   1  -1 161.131 15.0100   1
   6  -1  -1 173.869 13.6609   1
   6   1  -1 156.752 14.5911   1
   5  -1  -1 312.195 22.5983   1
  -5  -1   1 353.318 22.0446   1
   5  -1  -1 332.059 21.7553   1
   5   1  -1 301.749 22.7104   1
  -4  -1   1 87.1851 7.70540   1
   4  -1  -1 78.9604 7.58649   1
   4  -1  -1 89.4032 6.94054   3
   4  -1  -1 86.1875 6.99628   1
   4   1  -1 87.4552 8.10424   1
  -3  -1   1 331.781 20.5951   1
   3  -1  -1 315.067 19.6053   1
   3  -1  -1 311.408 19.4502   1
   3  -1  -1 306.206 19.3413   3
   3  -1  -1 312.902 19.9995   1
   3   1  -1 313.736 20.6370   1
   3   1  -1 326.000 20.4044   3
   3   1  -1 303.054 21.4401   1
   2  -1  -1 444.300 26.5445   3
  -2  -1   1 416.885 28.2417   1
   2  -1  -1 446.387 26.5507   1
   2  -1  -1 432.331 26.6276   1
   2   1  -1 471.429 27.9019   1
   2   1  -1 486.338 27.7065   3
  -1  -1   1 6691.94 389.851   3
  -1  -1   1 6966.02 391.543   1
  -1  -1   1 6456.90 391.640   1
   1   1  -1 6444.20 391.862   1
   1   1  -1 6701.99 391.305   1
   1   1  -1 6433.36 389.815   3
   0  -1   1 928.737 53.9296   1
   0  -1  -1 859.383 53.8735   1
   0  -1  -1 957.050 54.4974   1
   0  -1   1 894.008 53.6007   3
   0  -1   1 914.513 54.6820   1
  -1  -1  -1 3835.15 224.138   1
  -1  -1  -1 3695.10 223.352   1
   1   1   1 3695.16 223.776   1
   1   1   1 3802.71 224.867   1
  -2  -1  -1 2266.09 142.899   1
   2  -1   1 2323.33 142.190   1
   2  -1   1 2304.70 141.731   1
   2   1   1 2512.93 141.843   1
   2   1   1 2590.86 142.669   1
   3  -1   1 353.285 22.5616   1
  -3  -1  -1 375.095 23.3527   1
   3  -1   1 366.133 22.4956   1
   4  -1   1 916.477 53.2183   1
   4  -1   1 925.275 53.2195   1
  -4  -1  -1 916.015 53.5981   1
   4   1   1 742.500 53.7091   1
   5  -1   1 217.465 15.5733   1
  -5  -1  -1 201.973 15.2295   1
   5  -1   1 203.352 16.5373   1
   5  -1   1 209.633 15.6277   1
   5   1   1 260.686 17.2156   1
   6  -1   1 270.819 19.9190   1
   6   1   1 285.656 21.0954   1
   7  -1   1 3.38980 4.30431   1
   7   1   1 2.62367 4.92842   1
   7  -2  -1 170.288 13.6359   1
   7   2  -1 135.146 15.1218   1
   6  -2  -1 353.993 25.2755   1
   6   2  -1 425.938 28.2855   1
   5  -2  -1 246.284 17.0153   1
  -5  -2   1 245.085 17.8187   1
   5  -2  -1 230.292 15.9914   1
   5   2  -1 228.483 18.2997   1
  -4  -2   1 429.334 29.2192   1
   4  -2  -1 445.233 27.2190   3
   4  -2  -1 435.994 27.2821   1
   4  -2  -1 446.158 27.4257   1
   4   2  -1 485.921 29.9063   1
   3  -2  -1 2162.42 123.384   3
  -3  -2   1 2114.22 125.535   1
   3  -2  -1 2056.97 123.404   1
  -3  -2   1 2074.75 126.396   1
   3   2  -1 2108.03 125.579   1
  -2  -2   1 654.762 38.4425   1
   2   2  -1 558.610 37.2733   1
  -1  -2   1 4924.03 312.222   1
  -1  -2   1 5111.13 315.261   1
  -1  -2   1 5181.93 311.945   3
   1   2  -1 5594.98 315.855   1
   1   2  -1 5553.34 313.111   1
   0  -2   1 6998.58 394.305   1
   0  -2   1 6440.90 392.463   1
   0  -2   1 6704.72 392.286   3
   0  -2  -1 6582.03 393.922   1
   0  -2  -1 6949.82 393.011   1
   0   2  -1 6550.85 393.041   1
   0   2   1 6654.57 393.463   1
   0   2   1 6609.59 392.156   1
   0   2  -1 6432.91 392.384   1
  -1  -2  -1 213.137 15.4322   1
   1  -2   1 207.116 13.6524   1
   1  -2   1 227.903 13.8537   1
   1   2   1 270.042 15.0755   1
  -2  -2  -1 129.989 10.5101   1
  -2  -2  -1 123.689 9.75219   1
   2   2   1 132.844 9.76989   1
   3  -2   1 463.794 28.1975   1
  -3  -2  -1 472.902 30.1660   1
   3  -2   1 452.755 27.9889   1
   3   2   1 500.734 30.4230   1
   4  -2   1 350.275 21.4141   1
  -4  -2  -1 359.557 23.2334   1
   4  -2   1 338.506 21.2365   1
   4   2   1 308.422 23.1439   1
   5  -2   1 272.644 17.0845   1
  -5  -2  -1 252.380 18.3072   1
   5   2   1 214.609 18.5262   1
   6  -2   1 254.287 18.4522   1
   6   2   1 273.119 20.8597   1
   7  -2   1 114.806 10.9921   1
   7   2   1 95.8249 12.7614   1
   7  -3  -1 238.537 17.5009   1
   7   3  -1 236.266 21.1884   1
  -6  -3   1 141.342 13.8326   1
   6  -3  -1 152.466 11.0733   1
   6   3  -1 113.817 13.6063   1
   5  -3  -1 92.4197 7.19149   1
  -5  -3   1 96.0228 10.4138   1
   5   3  -1 84.0406 10.4151   1
  -4  -3   1 23.2018 6.30677   1
  -4  -3   1 25.4797 5.76090   1
   4  -3  -1 22.6983 2.32101   3
   4   3  -1 30.5885 5.77646   1
  -3  -3   1 772.515 48.2398   1
   3   3  -1 722.647 46.7650   1
  -2  -3   1 492.562 36.4496   1
   2   3  -1 640.032 36.0881   1
   1  -3  -1 2719.72 156.991   1
  -1  -3   1 2614.06 158.012   1
  -1  -3   1 2603.47 157.117   1
   1  -3  -1 2812.41 157.166   1
   1   3  -1 2539.30 156.928   1
   0  -3   1 1007.78 58.6903   1
   0  -3  -1 1003.91 59.4278   1
   0  -3   1 1008.12 59.3373   1
   0  -3  -1 1057.88 58.8526   1
   0  -3   1 970.532 58.4378   3
   0   3  -1 870.166 58.1916   1
   0   3   1 943.870 58.1963   1
   1  -3   1 2016.87 118.052   1
  -1  -3  -1 1888.36 119.231   1
  -1  -3  -1 1990.59 120.131   1
   1  -3   1 2135.27 118.567   1
   1   3   1 1997.25 118.978   1
  -2  -3  -1 556.209 36.6741   1
  -2  -3  -1 568.395 35.7962   1
  -3  -3  -1 1502.80 92.9978   1
   3   3   1 1570.71 93.0019   1
   4  -3   1 136.369 8.78150   1
   4  -3   1 135.206 9.01890   1
  -4  -3  -1 133.502 12.0472   1
   5  -3   1 390.121 25.1192   1
  -5  -3  -1 415.679 28.2522   1
   5   3   1 402.298 28.4832   1
   6  -3   1 200.599 14.3644   1
  -6  -3  -1 205.473 16.8793   1
   6   3   1 184.252 17.4630   1
   7  -3   1 12.0504 4.32906   1
   7   3   1 11.2734 6.86302   1
   7  -4  -1 46.5967 6.01911   1
   7   4  -1 40.0826 9.88323   1
  -6  -4   1 158.697 15.9272   1
   6  -4  -1 157.284 11.2969   1
   6   4  -1 159.531 15.9965   1
   5  -4  -1 189.051 12.4549   1
  -5  -4   1 186.475 16.8391   1
   5   4  -1 225.673 17.6368   1
  -4  -4   1 639.946 44.4151   1
  -4  -4   1 670.206 46.0385   1
   4   4  -1 738.599 44.8367   1
  -3  -4   1 880.076 53.9025   1
   3   4  -1 776.006 51.6952   1
  -2  -4   1 927.880 60.3284   1
   2  -4  -1 938.993 56.6101   1
   2  -4  -1 919.918 56.9572   1
   2   4  -1 1046.22 59.1083   1
  -1  -4   1 1052.44 66.6385   1
   1  -4  -1 1087.83 65.0875   1
   1  -4  -1 1042.81 64.3596   1
   1   4  -1 1126.74 65.2857   1
   0  -4   1 372.157 24.3531   1
   0  -4   1 386.477 24.1253   3
   0  -4  -1 393.014 24.5704   1
   0  -4   1 391.586 25.3484   1
   0  -4  -1 425.581 25.6772   1
   0   4   1 340.458 23.4580   1
   1  -4   1 330.707 21.6308   1
   1  -4   1 323.169 20.7140   3
  -1  -4  -1 322.242 23.2296   1
   1  -4   1 307.163 20.8529   1
   1   4   1 383.600 21.9919   1
   2  -4   1 36.1925 3.18330   3
   2  -4   1 32.9413 3.23003   1
  -2  -4  -1 34.1505 5.61119   1
  -2  -4  -1 31.7467 6.28420   1
   2  -4   1 32.2955 4.14412   1
   2   4   1 36.0208 5.31625   1
  -3  -4  -1 21.9346 5.16149   1
  -3  -4  -1 22.1425 6.16386   1
   3   4   1 12.9650 4.39050   1
  -4  -4  -1 380.380 27.1137   1
   4   4   1 383.117 27.0098   1
  -5  -4  -1 317.319 23.7430   1
   5  -4   1 311.285 19.4287   1
   5   4   1 304.101 23.7459   1
  -6  -4  -1 213.224 18.5152   1
   6  -4   1 201.231 14.2209   1
   6   4   1 219.523 19.1807   1
   7  -4   1 140.135 11.3813   1
   7   4   1 143.062 16.8690   1
  -6  -5   1 95.2732 13.1337   1
   6   5  -1 86.3332 13.2801   1
  -5  -5   1 58.4137 9.76396   1
   5   5  -1 48.2086 9.18194   1
  -4  -5   1 20.1614 6.54942   1
  -4  -5   1 18.9373 7.58353   1
   4   5  -1 14.6312 5.40677   1
  -3  -5   1 12.6995 5.90240   1
   3  -5  -1 17.3945 2.94021   1
   3  -5  -1 22.6656 2.63250   1
   3   5  -1 11.6105 4.63795   1
  -2  -5   1 744.218 48.2888   1
   2  -5  -1 739.616 44.9494   1
   2  -5  -1 741.248 44.2342   1
   2   5  -1 693.737 45.9501   1
  -1  -5   1 747.575 51.1378   1
   1  -5  -1 787.363 48.8828   1
   1  -5  -1 824.428 49.9162   1
   1   5  -1 831.326 49.2667   1
   0  -5   1 172.675 13.9441   1
   0  -5   1 168.616 12.2709   3
   0  -5  -1 166.131 12.7345   1
   0  -5   1 159.299 12.5127   1
   0  -5  -1 174.361 14.0146   1
   1  -5   1 1173.71 72.1072   3
  -1  -5  -1 1203.41 75.0746   1
   1  -5   1 1196.90 72.4144   1
   1  -5   1 1113.50 73.1104   1
   1   5   1 1331.92 73.0098   1
  -2  -5  -1 357.279 25.1878   1
   2  -5   1 363.455 22.3685   3
   2  -5   1 345.910 23.1781   1
  -2  -5  -1 369.354 26.6962   1
   2  -5   1 354.077 22.5302   1
  -3  -5  -1 487.472 35.3594   1
  -3  -5  -1 506.993 36.9804   1
   3  -5   1 545.611 31.8021   1
   3  -5   1 514.141 31.5656   3
   3  -5   1 516.035 32.2957   1
   3   5   1 574.302 35.1744   1
  -4  -5  -1 429.663 31.0345   1
   4   5   1 443.521 30.7672   1
  -5  -5  -1 141.424 14.5168   1
   5   5   1 108.119 13.5076   1
  -6  -5  -1 44.5871 9.44780   1
   6   5   1 49.0717 9.83562   1
  -5  -6   1 134.218 16.0250   1
   5   6  -1 140.618 15.1612   1
  -4  -6   1 226.339 21.2176   1
  -4  -6   1 262.222 23.6559   1
   4   6  -1 260.583 20.6039   1
  -3  -6   1 220.989 21.5037   1
   3  -6  -1 228.471 16.5744   1
   3   6  -1 266.933 19.1409   1
   2  -6  -1 308.057 22.5257   1
  -2  -6   1 307.373 25.7869   1
   2   6  -1 364.915 23.3049   1
  -1  -6   1 647.495 45.0937   1
   1  -6  -1 702.672 43.8834   1
   0  -6  -1 247.225 19.0588   1
   0  -6   1 219.796 18.6900   1
  -1  -6  -1 311.052 24.1842   1
   1  -6   1 306.329 22.3175   1
   2  -6   1 132.407 11.5276   1
  -2  -6  -1 123.792 13.2506   1
  -2  -6  -1 142.517 15.1537   1
   2   6   1 131.319 11.7362   1
  -3  -6  -1 117.322 13.3872   1
   3  -6   1 128.076 10.3302   1
  -3  -6  -1 130.962 15.2852   1
   3   6   1 120.874 12.2557   1
   4  -6   1 26.1488 4.07819   1
  -4  -6  -1 27.8576 7.80934   1
   4   6   1 26.6743 6.93329   1
  -5  -6  -1 208.648 18.7831   1
   5   6   1 156.585 16.7380   1
  -4  -7   1 36.0156 11.0193   1
   4  -7  -1 52.3485 8.15219   1
  -4  -7   1 29.9251 9.08899   1
  -3  -7   1 15.0951 8.16611   1
   3  -7  -1 13.5065 4.60490   1
  -3  -7   1 12.7066 6.82634   1
  -2  -7   1 142.763 16.4785   1
   2  -7  -1 140.951 13.3305   1
  -1  -7   1 110.520 13.3234   1
   1  -7  -1 91.3560 11.6114   1
   0  -7  -1 427.174 31.4822   1
   0  -7   1 435.410 31.5762   1
  -1  -7  -1 414.220 31.5795   1
   1  -7   1 436.331 30.2903   1
  -1  -7  -1 411.744 29.9207   1
  -2  -7  -1 280.081 24.3910   1
  -2  -7  -1 269.436 22.4420   1
   2  -7   1 273.260 20.8706   1
  -3  -7  -1 212.490 19.4969   1
   3  -7   1 199.050 16.0595   1
   4  -7   1 57.5986 7.48480   1
  -4  -7  -1 73.4647 12.1386   1
  -3  -8   1 124.543 17.8849   1
  -3  -8   1 136.586 16.2736   1
   3  -8  -1 122.283 12.9196   1
  -2  -8   1 71.0482 13.5645   1
   2  -8  -1 95.6728 12.1083   1
   1  -8  -1 207.827 19.3486   1
  -1  -8   1 219.602 21.6739   1
   0  -8   1 52.9524 10.8581   1
   0  -8  -1 66.1006 10.1187   1
   0  -8  -1 62.2150 11.5326   1
  -1  -8  -1 21.8938 7.35508   1
   1  -8   1 23.5637 7.51426   1
  -1  -8  -1 21.1119 8.53536   1
  -2  -8  -1 19.7812 7.75056   1
   2  -8   1 27.0635 7.49187   1
  -2  -8  -1 16.8315 8.71579   1
   8   0  -2 68.1122 10.3982   1
   7   0  -2 649.402 42.9979   1
   6   0  -2 39.0309 6.57578   1
   5   0  -2 295.129 19.4981   3
   5   0  -2 274.766 19.7773   1
   5   0  -2 287.548 21.1650   1
   4   0  -2 859.082 54.8757   1
   4   0  -2 905.321 53.7322   3
  -4   0   2 871.027 53.1643   1
   4   0  -2 902.295 54.0062   1
   3   0  -2 165.668 10.9546   3
  -3   0   2 162.963 10.8434   1
   3   0  -2 161.621 11.1102   1
   3   0  -2 156.102 11.8361   1
  -2   0   2 2.07061 0.86962   1
  -2   0   2 2.14720 1.26627   1
   2   0  -2 1.76719 1.35690   1
   2   0  -2 2.33029 1.05247   1
   2   0  -2 1.44390 0.98378   3
  -1   0   2 504.720 28.2239   3
   1   0  -2 470.364 28.3228   1
  -1   0   2 478.356 28.2554   1
   1   0  -2 452.574 28.6776   1
   1   0  -2 480.934 28.2702   3
  -1   0   2 442.412 28.6294   1
   0   0   2 166.154 10.0012   1
   0   0   2 156.170 9.71076   1
   0   0  -2 153.358 9.67773   1
   0   0  -2 161.681 9.93617   1
  -1   0  -2 671.451 39.1533   1
  -1   0  -2 670.776 38.9431   1
   1   0   2 638.161 39.0323   1
   1   0   2 647.213 39.0973   1
   2   0   2 9752.96 581.328   1
  -2   0  -2 9829.90 580.620   1
   2   0   2 9999.99 581.777   1
   3   0   2 606.655 36.2396   1
  -3   0  -2 570.049 35.4067   1
   3   0   2 584.443 36.0940   1
   4   0   2 468.735 29.6466   1
   4   0   2 476.354 29.8550   1
  -4   0  -2 448.452 28.4472   1
  -5   0  -2 444.743 28.8292   1
   5   0   2 501.162 30.9333   1
   6   0   2 209.830 16.7102   1
   7   0   2 194.082 16.9636   1
   8  -1  -2 19.6609 6.60438   1
   8   1  -2 36.2770 8.53799   1
   7  -1  -2 5.22127 4.48876   1
   7   1  -2 9.36375 5.58450   1
   6  -1  -2 21.1904 4.85091   1
   6   1  -2 8.27639 4.72436   1
   5  -1  -2 299.454 20.1196   1
  -5  -1   2 287.408 20.3478   1
   5  -1  -2 287.033 19.7254   3
   5  -1  -2 292.386 21.1144   1
   5   1  -2 339.816 21.7234   1
  -4  -1   2 1026.17 62.6579   1
   4  -1  -2 1043.24 61.6846   3
   4  -1  -2 1047.29 62.7479   1
   4  -1  -2 1065.36 61.9293   1
   4   1  -2 982.712 62.9350   1
   4   1  -2 1017.81 62.6110   3
   3  -1  -2 1394.26 83.9876   1
   3  -1  -2 1449.42 83.9081   3
  -3  -1   2 1397.54 85.1472   1
   3  -1  -2 1481.02 84.7023   1
  -3  -1   2 1594.75 86.2404   1
   3   1  -2 1325.50 86.0215   1
   3   1  -2 1322.31 84.8557   3
  -2  -1   2 1430.26 86.7626   1
   2  -1  -2 1304.55 85.0017   1
   2  -1  -2 1482.82 85.3874   1
   2  -1  -2 1357.03 85.1512   3
   2   1  -2 1516.01 86.9986   1
   2   1  -2 1533.74 86.0497   3
   2   1  -2 1530.49 86.2503   1
  -1  -1   2 8523.00 482.907   3
  -1  -1   2 8165.41 486.202   1
   1  -1  -2 8472.22 480.866   1
   1   1  -2 8263.42 485.790   1
   1   1  -2 7595.72 482.836   3
   0  -1  -2 2602.83 155.842   1
   0  -1   2 2769.90 159.132   1
   0  -1   2 2716.92 156.071   1
   0  -1  -2 2716.42 156.987   1
   0  -1   2 2786.05 155.761   3
   0   1  -2 2519.21 155.892   1
   0   1  -2 2516.12 155.668   3
   0   1   2 2570.93 155.854   1
   0   1  -2 2451.13 155.862   1
   0   1   2 2682.53 156.567   1
   1  -1   2 37.1943 2.63269   3
  -1  -1  -2 34.1918 3.31313   1
   1  -1   2 37.4457 2.68785   1
   1  -1   2 38.2793 2.65353   1
  -1  -1  -2 35.6986 3.36074   1
   2  -1   2 668.973 37.2307   1
   2  -1   2 669.997 37.0573   1
  -2  -1  -2 693.989 38.1233   1
   2   1   2 535.341 37.8086   1
  -2   1  -2 579.176 36.5799   3
   2   1   2 624.965 38.8212   1
   2   1   2 585.254 38.0920   1
   3  -1   2 195.905 13.8727   1
   3  -1   2 211.665 14.0603   1
  -3  -1  -2 221.307 14.7354   1
   3   1   2 245.167 15.2414   1
   4  -1   2 34.5644 4.48885   1
  -4  -1  -2 40.9831 5.14819   1
   4  -1   2 34.7326 4.29808   1
   4   1   2 34.5728 5.40890   1
   5  -1   2 182.402 14.0655   1
  -5  -1  -2 184.765 13.9084   1
   5   1   2 214.033 15.4391   1
   6  -1   2 38.7681 6.40572   1
   6   1   2 40.9361 7.43780   1
   7  -1   2 128.515 13.0759   1
   7   1   2 145.271 14.6266   1
   7  -2  -2 140.495 12.5139   1
   7   2  -2 135.948 14.8928   1
   6  -2  -2 537.097 34.9887   1
   6   2  -2 568.833 37.6266   1
  -5  -2   2 205.957 15.6932   1
   5  -2  -2 199.768 13.7087   3
   5  -2  -2 194.933 13.8692   1
   5  -2  -2 206.132 14.8320   1
   5   2  -2 208.630 16.3799   1
  -4  -2   2 126.177 11.8841   1
   4  -2  -2 125.883 8.57163   1
  -4  -2   2 133.833 11.0960   1
   4  -2  -2 118.811 9.20640   1
   4  -2  -2 128.236 8.51300   3
   4   2  -2 127.220 10.9936   1
   3  -2  -2 606.599 35.3512   1
   3  -2  -2 599.456 35.2148   3
   3  -2  -2 628.722 35.5730   1
  -3  -2   2 602.768 38.5677   1
   3  -2  -2 554.022 35.2192   1
   3   2  -2 585.224 37.5149   1
  -2  -2   2 281.995 19.7124   1
   2   2  -2 290.616 18.6136   3
   1  -2  -2 774.978 44.4532   1
  -1  -2   2 730.128 45.2086   1
  -1  -2   2 740.104 45.9200   1
  -1  -2   2 788.310 45.1220   3
   1  -2  -2 822.455 44.3539   1
   1   2  -2 683.083 44.9282   3
   1   2  -2 685.759 45.1360   1
   0  -2   2 544.027 36.5009   1
   0  -2   2 573.395 36.4101   3
   0  -2  -2 550.255 36.9703   1
   0  -2   2 593.170 37.1280   1
   0  -2  -2 547.105 36.5281   1
   0  -2  -2 546.970 36.6091   1
   0   2  -2 723.979 37.4491   1
   0   2   2 697.764 37.1999   1
   0   2  -2 716.081 36.6756   1
   1  -2   2 1145.13 69.3203   3
   1  -2   2 1230.25 69.4628   1
  -1  -2  -2 1168.25 70.2528   1
   1  -2   2 1154.74 69.1160   1
   2  -2   2 208.113 12.1590   3
  -2  -2  -2 192.273 13.8722   1
   2  -2   2 198.390 12.2587   1
   2  -2   2 200.628 12.1569   1
  -3  -2  -2 1424.22 81.3897   1
   3  -2   2 1390.34 79.5103   1
   3  -2   2 1416.43 79.3212   1
   3   2   2 1142.37 80.9262   1
   4  -2   2 1279.64 76.5548   1
  -4  -2  -2 1232.65 78.0472   1
   4  -2   2 1223.90 76.3945   1
   4   2   2 1416.91 78.8688   1
   5  -2   2 632.662 39.6760   1
  -5  -2  -2 671.654 41.1686   1
   5   2   2 615.301 41.6244   1
   6  -2   2 188.294 14.4236   1
   6   2   2 189.768 16.8039   1
   7  -2   2 47.9836 7.43913   1
   7   2   2 47.3672 9.41572   1
   7  -3  -2 24.2072 5.18382   1
   7   3  -2 20.7200 7.46009   1
   6  -3  -2 39.5901 5.10710   1
  -6  -3   2 37.5566 7.44167   1
   6   3  -2 20.7971 6.75082   1
   5  -3  -2 277.740 17.8983   1
  -5  -3   2 280.201 21.1349   1
   5  -3  -2 282.685 17.8130   3
   5   3  -2 286.760 21.7001   1
  -4  -3   2 574.205 38.9452   1
   4  -3  -2 582.583 34.1493   1
   4  -3  -2 557.130 34.0982   3
   4  -3  -2 586.252 34.5891   1
  -4  -3   2 570.266 37.6385   1
   4   3  -2 582.962 37.7896   1
  -3  -3   2 217.534 17.8278   1
   3   3  -2 240.776 16.9529   1
  -2  -3   2 5134.77 310.368   1
   2   3  -2 5378.29 311.292   1
   1  -3  -2 937.368 54.7847   1
  -1  -3   2 895.967 56.2420   1
  -1  -3   2 921.675 55.4019   1
   1  -3  -2 895.382 54.1904   1
   0  -3   2 971.409 61.8845   1
   0  -3  -2 1032.73 62.0503   1
   0  -3   2 964.647 61.2087   1
   0  -3   2 1037.95 61.1287   3
   0  -3  -2 1014.87 61.3762   1
   0   3  -2 1070.75 61.0334   1
   0   3   2 1066.21 60.8597   1
   1  -3   2 1180.08 71.1732   1
   1  -3   2 1235.26 70.3924   1
   1  -3   2 1217.29 70.2326   3
  -1  -3  -2 1146.20 72.2718   1
  -1  -3  -2 1135.91 71.5189   1
  -1  -3  -2 1154.68 71.5861   1
   1   3   2 1234.72 71.3010   1
   2  -3   2 173.311 10.6965   1
  -2  -3  -2 158.221 12.7101   1
   2  -3   2 166.260 10.5344   3
   2  -3   2 178.602 10.6574   1
   3  -3   2 28.8175 2.52673   1
  -3  -3  -2 24.2935 4.67912   1
   3  -3   2 28.9209 2.59137   1
   3   3   2 12.9181 3.88812   1
  -4  -3  -2 17.4428 4.83566   1
   4  -3   2 22.0469 2.71028   1
   4  -3   2 23.0189 2.90008   1
   4   3   2 22.7385 5.13211   1
  -5  -3  -2 36.6335 6.95631   1
   5  -3   2 30.2135 4.11764   1
   5   3   2 26.2766 6.51934   1
   6  -3   2 111.693 9.49275   1
  -6  -3  -2 126.553 18.2824   1
   6   3   2 101.057 13.4175   1
   7  -3   2 136.879 11.8828   1
   7   3   2 132.951 15.6675   1
   7  -4  -2 72.7205 7.82065   1
   7   4  -2 88.5447 12.8852   1
   6  -4  -2 286.232 18.8872   1
  -6  -4   2 276.865 23.2302   1
   6   4  -2 319.650 24.0766   1
   5  -4  -2 115.225 7.48247   3
  -5  -4   2 122.298 12.5754   1
   5   4  -2 85.2376 11.5917   1
  -4  -4   2 334.673 26.0010   1
  -4  -4   2 362.375 27.7740   1
   4   4  -2 406.605 26.5974   1
  -3  -4   2 118.124 11.8480   1
   3   4  -2 85.8161 9.43370   1
  -2  -4   2 211.899 17.4755   1
   2  -4  -2 228.417 14.5401   1
   2  -4  -2 220.369 13.9019   1
   2   4  -2 226.535 16.2213   1
   1  -4  -2 136.297 9.45376   1
   1  -4  -2 143.482 10.3155   1
  -1  -4   2 127.139 11.4839   1
   1   4  -2 119.889 10.0465   1
   0  -4   2 112.144 9.00961   3
   0  -4   2 122.541 9.38892   1
   0  -4  -2 120.843 9.50277   1
   0  -4  -2 133.270 10.6210   1
   0  -4   2 119.281 10.2868   1
   0   4  -2 129.639 8.78590   1
   0   4   2 125.954 8.64450   1
   1  -4   2 571.807 34.5709   3
  -1  -4  -2 555.603 36.0233   1
  -1  -4  -2 563.014 37.0336   1
   1  -4   2 590.896 34.8118   1
   1  -4   2 619.847 35.7166   1
   1   4   2 504.362 35.1752   1
   2  -4   2 468.582 27.5273   1
  -2  -4  -2 424.639 30.8094   1
   2  -4   2 454.736 27.3362   3
   2  -4   2 431.564 28.4977   1
  -2  -4  -2 455.748 30.0031   1
   2   4   2 465.874 29.4475   1
  -3  -4  -2 882.676 55.4562   1
   3  -4   2 877.973 51.9522   3
   3  -4   2 842.826 52.0053   1
   3  -4   2 846.878 52.2646   1
   3   4   2 972.580 55.4520   1
   4  -4   2 614.359 35.2377   1
   4  -4   2 595.208 35.2205   1
  -4  -4  -2 658.730 39.5985   1
   4   4   2 481.140 38.2544   1
   5  -4   2 269.955 17.2870   1
  -5  -4  -2 261.659 21.2831   1
   5   4   2 280.544 21.7815   1
   6  -4   2 149.054 11.1689   1
  -6  -4  -2 154.611 15.5728   1
   6   4   2 153.368 16.0599   1
  -6  -5   2 0.68862 5.66133   1
   6   5  -2 0.73811 5.33696   1
  -5  -5   2 83.2298 13.4280   1
  -5  -5   2 66.5341 11.0491   1
   5   5  -2 77.4338 11.2498   1
  -4  -5   2 290.267 24.2879   1
  -4  -5   2 288.542 22.5648   1
   4   5  -2 280.789 22.0056   1
  -3  -5   2 608.040 43.6142   1
   3  -5  -2 629.192 38.7999   1
   3  -5  -2 649.496 38.3125   1
   3   5  -2 665.222 41.8520   1
  -2  -5   2 905.484 60.5235   1
   2  -5  -2 931.868 56.7291   1
   2  -5  -2 886.244 57.3124   1
   2   5  -2 1058.10 58.9913   1
   1  -5  -2 879.292 50.4852   1
  -1  -5   2 818.183 51.9516   1
   1  -5  -2 853.469 49.4422   1
   1   5  -2 679.487 49.2754   1
   0  -5   2 1049.59 65.6649   1
   0  -5   2 1066.70 65.3662   3
   0  -5  -2 1138.28 67.2437   1
   0  -5   2 1089.74 66.9865   1
   0  -5  -2 1057.38 65.9367   1
   1  -5   2 234.795 15.6084   3
  -1  -5  -2 232.460 18.5233   1
   1  -5   2 237.203 15.9326   1
   1  -5   2 226.114 16.8527   1
  -1  -5  -2 238.419 17.3868   1
   1   5   2 226.894 16.1781   1
  -2  -5  -2 253.238 20.5411   1
   2  -5   2 249.525 16.3540   3
  -2  -5  -2 246.617 19.1934   1
   2  -5   2 249.152 16.5992   1
   2  -5   2 255.984 17.5704   1
   2   5   2 275.811 18.5697   1
   3  -5   2 34.3314 4.99826   1
  -3  -5  -2 30.2153 6.56470   1
   3  -5   2 34.3850 3.54842   1
   3  -5   2 38.6576 3.48263   3
   3   5   2 19.4480 5.36632   1
  -4  -5  -2 31.8349 7.19114   1
   4  -5   2 39.6848 4.91925   1
   4  -5   2 36.7856 3.60515   3
   4   5   2 33.8676 7.01222   1
  -5  -5  -2 0.02400 5.36036   1
   5  -5   2 0.23454 1.91658   1
   5   5   2 6.24704 5.26407   1
  -6  -5  -2 68.9109 11.5163   1
   6   5   2 87.1048 12.6108   1
  -5  -6   2 163.874 17.8341   1
   5   6  -2 194.587 18.1484   1
   4  -6  -2 142.628 10.1730   1
  -4  -6   2 153.723 17.4308   1
  -4  -6   2 144.009 15.3927   1
   4   6  -2 129.201 14.0375   1
   3  -6  -2 36.3315 5.37738   1
  -3  -6   2 26.5873 8.33694   1
   3   6  -2 60.6477 8.40543   1
   2  -6  -2 127.965 11.4583   1
  -2  -6   2 127.149 14.4597   1
   2   6  -2 136.158 11.8354   1
  -1  -6   2 48.3333 8.84437   1
   1  -6  -2 57.0605 8.22859   1
   0  -6   2 532.323 36.9094   1
   0  -6  -2 558.960 37.1030   1
  -1  -6  -2 8.62545 5.31309   1
  -1  -6  -2 12.9476 4.71835   1
   1  -6   2 5.24858 4.09620   1
   2  -6   2 722.260 43.2751   1
  -2  -6  -2 689.089 46.5311   1
  -2  -6  -2 701.826 44.9871   1
   2   6   2 605.720 42.9351   1
  -3  -6  -2 112.525 12.7939   1
   3  -6   2 109.661 9.86480   1
  -4  -6  -2 699.459 48.2348   1
   4  -6   2 717.671 44.1471   1
   4   6   2 733.568 47.6890   1
  -5  -6  -2 230.573 20.5888   1
   5   6   2 206.156 19.3170   1
  -4  -7   2 69.0087 13.5226   1
   4  -7  -2 68.4327 6.84895   1
  -4  -7   2 61.5192 11.4504   1
  -3  -7   2 321.612 27.7348   1
   3  -7  -2 306.680 22.0569   1
  -2  -7   2 374.506 29.9580   1
   2  -7  -2 368.123 26.3668   1
   1  -7  -2 346.632 25.6819   1
  -1  -7   2 338.825 27.2390   1
   0  -7  -2 346.375 25.1757   1
   0  -7   2 340.602 26.5605   1
   0  -7  -2 354.327 26.7801   1
  -1  -7  -2 144.039 15.7834   1
  -1  -7  -2 136.955 14.0692   1
   1  -7   2 135.818 14.0224   1
  -2  -7  -2 183.813 16.5758   1
   2  -7   2 155.212 14.7199   1
   3  -7   2 4.35119 4.14299   1
  -3  -7  -2 -2.8223 5.51118   1
  -4  -7  -2 2.50330 6.79545   1
   4  -7   2 9.97830 4.30969   1
  -3  -8   2 86.5938 13.8196   1
  -3  -8   2 74.9790 14.6782   1
   3  -8  -2 88.9309 9.86459   1
   2  -8  -2 39.2102 8.28579   1
  -2  -8   2 34.7622 10.5016   1
   2  -8  -2 37.9484 7.38359   1
   1  -8  -2 63.3509 9.52422   1
  -1  -8   2 57.1177 11.8795   1
   1  -8  -2 73.6527 11.2314   1
   0  -8  -2 15.4188 7.49194   1
   0  -8  -2 20.8784 6.93079   1
   0  -8   2 15.6974 7.94415   1
  -1  -8  -2 158.811 18.1640   1
  -1  -8  -2 151.812 16.1981   1
   1  -8   2 161.922 16.5637   1
  -2  -8  -2 329.954 27.1797   1
   2  -8   2 356.501 26.5885   1
   8   0  -3 64.6493 10.4396   1
   7   0  -3 85.9773 10.7894   1
   6   0  -3 125.152 11.5114   1
   5   0  -3 36.2612 6.77166   1
   5   0  -3 33.4254 5.28200   1
   5   0  -3 40.3851 5.56295   3
   4   0  -3 597.060 37.1132   1
   4   0  -3 554.364 35.8366   1
  -4   0   3 574.673 35.3025   1
   4   0  -3 579.312 35.6494   3
   3   0  -3 281.491 18.6426   1
   3   0  -3 279.852 17.6915   1
  -3   0   3 279.592 17.6073   1
  -3   0   3 269.625 18.0410   1
   3   0  -3 265.833 17.4545   3
   2   0  -3 640.642 38.0530   3
   2   0  -3 630.753 38.1602   1
  -2   0   3 632.130 38.7030   1
   2   0  -3 650.475 38.9214   1
  -2   0   3 627.491 37.9051   1
   1   0  -3 310.028 19.2481   3
  -1   0   3 346.528 19.9653   1
   1   0  -3 304.348 19.3146   1
  -1   0   3 332.352 19.2619   3
  -1   0   3 323.805 19.3257   1
   1   0  -3 298.275 19.7154   1
   0   0  -3 415.727 24.9098   1
   0   0   3 396.412 24.9783   1
   0   0   3 375.438 24.5506   1
   0   0  -3 424.246 24.5750   1
   2   0   3 298.615 18.5998   1
   2   0   3 288.830 18.5399   1
  -2   0  -3 290.839 18.1851   1
  -3   0  -3 847.283 48.2950   1
   3   0   3 781.894 48.8856   1
   3   0   3 783.131 48.9816   1
   4   0   3 734.612 45.5299   1
   4   0   3 711.698 45.6169   1
  -4   0  -3 756.557 44.4080   1
  -5   0  -3 59.0732 5.44582   1
   5   0   3 56.7933 7.03021   1
   6   0   3 35.1997 6.67143   1
   7   0   3 170.600 15.6420   1
   8  -1  -3 93.4438 11.3730   1
   8   1  -3 75.8574 11.7661   1
   7  -1  -3 191.440 16.5328   1
   7   1  -3 229.913 18.5611   1
   6  -1  -3 491.366 30.1043   1
   6  -1  -3 465.485 29.4186   3
   6   1  -3 394.591 30.5974   1
   5  -1  -3 419.925 27.6241   1
   5  -1  -3 411.874 26.3883   1
   5  -1  -3 445.868 26.2619   3
  -5  -1   3 424.159 26.8975   1
   5   1  -3 368.161 27.1962   1
   5   1  -3 372.054 26.7264   3
  -4  -1   3 933.832 54.8582   1
   4  -1  -3 835.396 53.6457   1
  -4  -1   3 925.950 55.7090   1
   4  -1  -3 902.124 54.7663   1
   4  -1  -3 883.314 53.5516   3
   4   1  -3 901.417 54.6534   3
   4   1  -3 872.509 54.9213   1
   3  -1  -3 1410.69 80.3844   1
   3  -1  -3 1405.79 81.1453   1
   3  -1  -3 1369.99 80.2276   3
  -3  -1   3 1324.14 82.1653   1
   3   1  -3 1351.23 81.2220   3
   3   1  -3 1348.12 82.5768   1
   3   1  -3 1294.43 81.4015   1
   2  -1  -3 1029.64 63.7296   1
   2  -1  -3 1043.81 64.1689   1
  -2  -1   3 1072.04 65.4223   1
   2  -1  -3 977.053 63.6358   3
   2   1  -3 1096.01 64.6846   1
   2   1  -3 1222.42 65.7966   1
   2   1  -3 1149.28 64.5307   3
  -1  -1   3 489.547 26.1529   3
   1  -1  -3 492.512 25.7356   1
  -1  -1   3 458.635 26.2089   1
   1  -1  -3 469.137 26.5118   1
  -1  -1   3 462.202 27.0634   1
  -1   1   3 366.617 25.5724   1
   1   1  -3 386.337 26.6341   1
   1   1  -3 371.724 25.9806   3
   1   1  -3 370.853 26.0948   1
   0  -1   3 116.303 6.89732   3
   0  -1  -3 115.263 7.15514   1
   0  -1   3 106.891 6.94554   1
   0  -1  -3 106.253 7.06008   1
   0  -1   3 103.273 8.21586   1
   0   1  -3 104.223 6.90779   3
   0   1   3 100.803 7.10547   1
   0   1   3 101.844 7.03989   1
   0   1  -3 97.6463 6.95688   1
   0   1  -3 96.4222 7.79920   1
   1  -1   3 560.579 33.2603   1
   1  -1   3 580.545 33.2539   1
  -1  -1  -3 591.897 33.9510   1
  -1  -1  -3 624.785 33.9210   1
   1   1   3 509.082 33.6905   1
   1   1   3 498.418 33.7619   1
  -1   1  -3 514.247 33.1158   1
  -2  -1  -3 1182.73 77.7904   1
   2  -1   3 1218.80 77.2798   1
   2  -1   3 1203.00 77.1151   1
  -2   1  -3 1389.36 77.0287   1
   2   1   3 1441.33 78.4387   1
  -2   1  -3 1354.85 77.1976   1
   2   1   3 1321.41 78.0595   1
  -2   1  -3 1343.29 76.8662   3
   3  -1   3 862.026 49.3105   1
  -3  -1  -3 862.574 49.8799   1
   3  -1   3 836.543 49.3892   1
  -3   1  -3 754.313 48.4164   1
   3   1   3 787.043 50.1215   1
  -4  -1  -3 1014.95 60.4447   1
   4  -1   3 926.991 60.1426   1
   4  -1   3 1013.13 60.2708   1
   4   1   3 1041.48 61.3095   1
  -4   1  -3 984.711 58.6570   1
   5  -1   3 359.040 22.5097   1
  -5  -1  -3 335.036 22.0427   1
   5   1   3 296.051 23.0385   1
   6  -1   3 381.051 26.5136   1
   6   1   3 397.259 27.6824   1
   7  -1   3 221.886 17.8709   1
   7   1   3 225.577 19.3090   1
   7  -2  -3 155.184 13.1857   1
   7   2  -3 147.760 15.6292   1
   6  -2  -3 19.7903 4.08917   3
   6  -2  -3 22.9294 4.50556   1
   6   2  -3 18.4862 5.97472   1
   5  -2  -3 29.6872 4.93328   1
   5  -2  -3 30.2973 3.91924   3
   5  -2  -3 26.4722 3.89427   1
  -5  -2   3 27.8828 5.66186   1
   5   2  -3 23.9094 5.64242   1
   4  -2  -3 192.905 12.8770   1
  -4  -2   3 186.611 15.4116   1
   4  -2  -3 198.977 12.0778   1
   4  -2  -3 207.249 11.9978   3
   4   2  -3 146.512 13.7167   1
   4   2  -3 152.719 13.4117   3
   3  -2  -3 392.127 26.4805   3
   3  -2  -3 410.682 26.5450   1
  -3  -2   3 429.972 29.6067   1
   3  -2  -3 457.203 27.0720   1
   3   2  -3 499.099 29.0548   1
   3   2  -3 509.844 28.6876   3
   2  -2  -3 674.618 36.7174   1
   2  -2  -3 635.741 36.9303   1
   2   2  -3 540.009 37.9497   3
  -1  -2   3 2375.09 146.302   1
  -1  -2   3 2543.12 145.552   1
   1  -2  -3 2574.98 145.731   1
   1  -2  -3 2371.51 146.174   1
   1   2  -3 2480.76 146.452   3
   1   2  -3 2454.89 147.113   1
   0  -2   3 2213.24 119.556   1
   0  -2   3 2148.84 115.915   3
   0  -2  -3 2010.95 118.022   1
   0  -2  -3 2132.54 116.921   1
   0  -2   3 2154.63 117.557   1
   0   2   3 1766.48 115.778   1
   0   2  -3 1846.44 116.798   1
   0   2  -3 1751.45 116.776   1
   0   2   3 1861.99 116.470   1
   0   2  -3 1831.03 116.449   3
   1  -2   3 568.661 36.8224   3
   1  -2   3 569.932 36.9024   1
  -1  -2  -3 576.838 37.8988   1
   1  -2   3 607.581 37.5090   1
  -1  -2  -3 543.885 37.8748   1
  -1   2  -3 666.874 36.6035   1
   1   2   3 699.629 38.0577   1
  -1   2  -3 660.842 36.6902   3
  -1   2  -3 675.664 36.6545   1
   2  -2   3 1479.72 88.0376   1
   2  -2   3 1540.81 87.6226   1
  -2  -2  -3 1452.04 89.0750   1
   2  -2   3 1501.23 87.5685   3
   2   2   3 1460.74 88.9576   1
  -3  -2  -3 598.621 37.4886   1
   3  -2   3 615.864 35.9458   1
   3  -2   3 592.436 35.7318   1
   3   2   3 568.038 37.4733   1
  -4  -2  -3 14.6404 3.99306   1
   4  -2   3 13.5325 2.53424   1
   4  -2   3 13.6438 2.75243   1
   4   2   3 15.0705 4.31593   1
  -5  -2  -3 138.694 12.1924   1
   5  -2   3 141.925 10.9936   1
   5   2   3 148.269 13.2752   1
   6  -2   3 46.9935 6.59863   1
   6   2   3 52.1509 8.58187   1
   7  -2   3 0.98846 3.89957   1
   7   2   3 -1.3249 4.85630   1
   7  -3  -3 110.193 10.1205   1
   7   3  -3 92.9651 13.1178   1
  -6  -3   3 101.574 11.6119   1
   6  -3  -3 89.9290 8.23350   1
   6  -3  -3 84.9475 7.89729   3
   6   3  -3 131.803 12.8915   1
  -5  -3   3 527.386 35.6131   1
   5  -3  -3 501.035 30.2743   3
  -5  -3   3 490.862 33.8228   1
   5  -3  -3 480.202 30.3380   1
   4  -3  -3 1022.62 64.7275   1
   4  -3  -3 1134.76 65.3565   1
  -4  -3   3 1091.90 69.4879   1
   4  -3  -3 1148.82 64.7559   3
   4   3  -3 1091.16 68.1752   1
  -3  -3   3 327.176 22.0070   1
   3   3  -3 262.442 20.0575   1
   2  -3  -3 1318.79 75.8350   1
  -2  -3   3 1287.71 78.6561   1
   2  -3  -3 1245.06 75.3691   1
   2  -3  -3 1193.52 75.5365   1
   2   3  -3 1370.38 77.5878   1
  -1  -3   3 109.430 9.42790   1
  -1  -3   3 107.041 8.24717   1
   1  -3  -3 105.608 7.88577   1
   1  -3  -3 111.324 7.52965   1
   1  -3  -3 114.203 7.27905   1
   1   3  -3 81.5496 7.90086   1
   0  -3   3 105.639 8.56432   1
   0  -3  -3 99.1702 7.49163   1
   0  -3  -3 100.778 8.23480   1
   0  -3   3 100.941 7.41624   1
   0  -3  -3 99.5509 7.66281   1
   0  -3   3 95.4318 7.19816   3
   0   3   3 97.0973 7.03282   1
   0   3  -3 91.9753 7.14720   1
   1  -3   3 310.052 22.8896   1
   1  -3   3 356.086 21.5731   3
   1  -3   3 374.659 21.7982   1
   1   3   3 358.558 22.5975   1
   2  -3   3 95.7249 6.39100   3
   2  -3   3 94.1991 6.46824   1
   2  -3   3 97.2273 6.88392   1
  -2  -3  -3 96.1508 8.59150   1
   2   3   3 99.3056 8.36106   1
   3  -3   3 746.802 45.0214   1
   3  -3   3 768.882 44.9919   1
  -3  -3  -3 765.600 47.5361   1
   3   3   3 737.640 47.2510   1
   4  -3   3 495.664 29.2686   1
  -4  -3  -3 483.735 31.9145   1
   4  -3   3 453.525 28.9761   1
   4   3   3 473.652 31.9040   1
   5  -3   3 630.088 37.7609   1
  -5  -3  -3 606.568 40.1952   1
   5   3   3 589.952 40.5095   1
   6  -3   3 137.370 11.9112   1
   6   3   3 192.605 16.0495   1
   7  -3   3 202.317 15.8516   1
   7   3   3 209.516 19.2838   1
   7  -4  -3 174.520 13.0644   1
   7   4  -3 160.998 17.6533   1
  -6  -4   3 -0.0463 5.05413   1
   6  -4  -3 1.09920 2.19749   3
   6  -4  -3 2.36700 2.32561   1
   6   4  -3 6.14504 5.74480   1
  -5  -4   3 23.2506 6.65902   1
   5  -4  -3 21.9012 2.53405   3
   5  -4  -3 20.5466 2.66325   1
  -5  -4   3 22.5482 7.50277   1
   5   4  -3 24.9273 6.56310   1
  -4  -4   3 74.4760 11.1118   1
   4   4  -3 75.1389 9.46672   1
   3  -4  -3 380.730 23.1919   1
  -3  -4   3 377.867 27.7046   1
   3   4  -3 379.605 26.1697   1
   2  -4  -3 677.260 38.4130   1
  -2  -4   3 646.386 41.5822   1
   2  -4  -3 601.862 37.6074   1
   2   4  -3 591.259 39.7472   1
   1  -4  -3 638.645 37.6087   1
   1  -4  -3 654.557 36.8514   1
  -1  -4   3 596.822 38.9727   1
   1   4  -3 510.654 37.1848   1
   0  -4   3 1405.29 81.7003   1
   0  -4  -3 1305.11 80.6467   1
   0  -4  -3 1340.33 80.6699   1
   0  -4   3 1278.06 80.0562   3
   0  -4  -3 1249.78 81.2811   1
   0  -4   3 1367.15 80.4882   1
   0   4  -3 1402.82 79.9363   1
   0   4   3 1380.71 79.7581   1
  -1  -4  -3 718.806 45.0585   1
   1  -4   3 739.668 43.7560   1
  -1  -4  -3 711.298 45.9877   1
   1  -4   3 749.964 43.5571   3
   1  -4   3 722.936 44.7890   1
   1   4   3 675.836 44.1993   1
  -2  -4  -3 569.297 35.2775   1
   2  -4   3 559.354 32.6286   3
   2  -4   3 499.719 34.2063   1
   2  -4   3 524.502 32.7175   1
   2   4   3 555.033 34.7161   1
   3  -4   3 440.679 27.4353   1
  -3  -4  -3 446.744 30.2034   1
   3  -4   3 442.295 26.7879   3
   3  -4   3 425.196 26.8276   1
   3   4   3 485.617 30.0722   1
   4  -4   3 95.8747 6.95689   1
  -4  -4  -3 91.8412 10.6960   1
   4   4   3 91.2803 10.2613   1
  -5  -4  -3 99.6894 11.9217   1
   5  -4   3 105.286 7.92346   1
   5   4   3 99.0729 12.0370   1
  -6  -4  -3 65.2242 9.98092   1
   6  -4   3 64.6563 6.58091   1
   6   4   3 54.8517 9.97449   1
  -6  -5   3 284.052 23.8131   1
   6   5  -3 285.415 23.9227   1
  -5  -5   3 325.543 26.9196   1
  -5  -5   3 362.425 29.2799   1
   5   5  -3 374.838 27.1869   1
  -4  -5   3 213.827 20.8128   1
   4   5  -3 250.233 19.3542   1
   3  -5  -3 293.703 19.8460   1
   3  -5  -3 309.599 19.4910   1
   3  -5  -3 303.044 19.2545   1
  -3  -5   3 294.701 24.5352   1
   3   5  -3 374.251 23.3565   1
   2  -5  -3 342.815 21.7287   1
  -2  -5   3 335.382 25.8120   1
   2  -5  -3 352.461 22.6071   1
   2   5  -3 335.891 23.6387   1
  -1  -5   3 175.660 14.6555   1
   1  -5  -3 167.377 11.9913   1
   1  -5  -3 160.838 12.8972   1
   1   5  -3 146.801 12.1215   1
   0  -5  -3 129.102 11.6236   1
   0  -5   3 117.549 9.55258   3
   0  -5   3 122.401 11.5179   1
   0  -5   3 122.691 9.98344   1
   0  -5  -3 129.115 10.5736   1
   0  -5  -3 121.043 10.2695   1
   0   5   3 118.568 8.80202   1
   1  -5   3 443.780 29.2873   1
   1  -5   3 445.279 30.5105   1
   1  -5   3 461.462 29.0756   3
  -1  -5  -3 444.324 30.7177   1
  -1  -5  -3 465.994 32.0205   1
   1   5   3 524.622 29.9470   1
  -2  -5  -3 150.952 13.5152   1
   2  -5   3 160.434 12.3753   1
   2  -5   3 160.829 10.8632   1
   2  -5   3 152.752 10.5345   3
   2   5   3 138.408 12.2548   1
  -3  -5  -3 409.161 27.0931   1
   3  -5   3 341.011 24.6385   1
   3  -5   3 377.516 22.7873   3
   3   5   3 365.369 25.9842   1
   4  -5   3 242.391 16.2639   1
  -4  -5  -3 239.840 19.6129   1
   4   5   3 198.656 18.3264   1
   5  -5   3 219.845 15.5617   1
  -5  -5  -3 241.961 20.5365   1
   5   5   3 263.984 20.4717   1
  -6  -5  -3 398.976 29.7488   1
   6  -5   3 385.764 24.5619   1
   6   5   3 377.595 29.6715   1
  -5  -6   3 51.1749 12.1144   1
  -5  -6   3 55.6444 10.9327   1
   5   6  -3 46.6300 9.96621   1
  -4  -6   3 85.2237 13.6455   1
   4  -6  -3 72.8662 5.92781   1
   4   6  -3 52.1142 9.39572   1
  -3  -6   3 160.436 17.0488   1
   3  -6  -3 153.958 11.8488   1
   3  -6  -3 156.437 11.2424   1
   3   6  -3 137.775 13.6866   1
  -2  -6   3 653.609 44.1019   1
   2  -6  -3 660.194 39.8676   1
   2  -6  -3 650.622 40.6967   1
   2   6  -3 580.126 40.7950   1
  -1  -6   3 442.528 31.4894   1
   1  -6  -3 422.885 28.6038   1
   1  -6  -3 438.711 29.7591   1
   0  -6  -3 265.802 19.6079   1
   0  -6   3 259.472 20.8528   1
   0  -6  -3 272.549 20.8577   1
  -1  -6  -3 1260.82 78.5007   1
   1  -6   3 1225.79 78.2202   1
  -1  -6  -3 1321.97 80.2054   1
  -2  -6  -3 176.422 15.5460   1
   2  -6   3 170.884 14.2007   1
  -3  -6  -3 362.613 27.2823   1
   3  -6   3 352.103 24.6520   1
   3   6   3 386.381 26.3327   1
   4  -6   3 212.572 15.2026   1
  -4  -6  -3 215.917 18.8518   1
   4   6   3 165.484 17.1512   1
  -5  -6  -3 0.92440 6.11359   1
   5   6   3 3.33298 5.72301   1
  -4  -7   3 160.714 18.1488   1
  -4  -7   3 174.089 20.6875   1
   4  -7  -3 180.194 12.6332   1
   3  -7  -3 207.911 15.4296   1
  -3  -7   3 220.550 21.8752   1
   2  -7  -3 111.937 12.0064   1
   2  -7  -3 126.237 11.1924   1
  -2  -7   3 130.233 16.1128   1
  -1  -7   3 79.1350 12.6351   1
   1  -7  -3 92.7091 10.1138   1
   1  -7  -3 83.2191 11.2555   1
   0  -7  -3 1.85835 4.19419   1
   0  -7   3 2.91344 5.28348   1
   0  -7  -3 -0.3635 4.72757   1
  -1  -7  -3 6.97359 5.19719   1
   1  -7   3 2.07471 5.00484   1
  -2  -7  -3 125.085 13.8650   1
   2  -7   3 124.224 12.7770   1
  -3  -7  -3 184.291 17.9379   1
   3  -7   3 180.627 15.3101   1
   4  -7   3 152.276 12.6398   1
  -4  -7  -3 122.321 16.1095   1
   2  -8  -3 165.262 14.5608   1
  -2  -8   3 153.236 19.4450   1
  -1  -8   3 425.295 33.5553   1
   1  -8  -3 422.777 30.0737   1
   0  -8   3 164.957 18.0591   1
   0  -8  -3 175.670 16.6102   1
  -1  -8  -3 358.231 26.9361   1
   1  -8   3 329.087 27.1572   1
  -2  -8  -3 117.048 14.6614   1
   2  -8   3 126.935 14.3359   1
   8   0  -4 5.71195 5.67434   1
   7   0  -4 138.183 13.5224   1
   6   0  -4 42.6833 6.71749   1
   6   0  -4 39.9595 6.28848   3
   5   0  -4 684.159 43.3533   1
   5   0  -4 694.737 43.0243   3
   4   0  -4 146.854 12.3484   1
   4   0  -4 154.779 11.4148   1
  -4   0   4 151.432 10.9058   1
   4   0  -4 159.315 11.1472   3
  -3   0   4 992.146 61.6029   1
   3   0  -4 1020.35 60.9003   3
   3   0  -4 1026.14 61.1230   1
   3   0  -4 1037.46 62.1823   1
  -2   0   4 2537.50 159.208   1
   2   0  -4 2899.09 161.622   3
   2   0  -4 2770.50 160.911   1
   2   0  -4 2608.84 159.368   1
   1   0  -4 4067.44 254.262   1
  -1   0   4 4594.00 256.237   1
   1   0  -4 3944.51 253.091   3
  -1   0   4 4315.47 253.641   1
   1   0  -4 4517.88 253.959   1
   0   0  -4 7.80028 1.68273   1
   0   0   4 6.74755 1.71700   1
   0   0  -4 4.98851 1.18980   1
   0   0   4 6.04290 1.29149   1
   1   0   4 810.603 50.0469   1
  -1   0  -4 904.887 49.9622   1
   1   0   4 847.450 50.1346   1
  -1   0  -4 790.054 50.0979   1
   2   0   4 163.337 10.8034   1
  -2   0  -4 158.619 10.2900   1
   2   0   4 147.143 10.6171   1
  -3   0  -4 135.236 9.08587   1
   3   0   4 128.184 9.77171   1
   3   0   4 124.935 9.63268   1
   4   0   4 1430.05 86.8824   1
  -4   0  -4 1457.66 85.7939   1
  -5   0  -4 320.614 22.9311   1
   5   0   4 317.830 22.0952   1
   6   0   4 202.593 16.3304   1
   7   0   4 169.633 15.6351   1
   8  -1  -4 263.373 21.2521   1
   8   1  -4 266.599 22.7100   1
   7  -1  -4 75.9224 9.21035   1
   7   1  -4 54.4913 9.41850   1
   6  -1  -4 206.619 16.4820   3
   6  -1  -4 228.735 17.0890   1
   6   1  -4 269.913 18.8330   1
   5  -1  -4 183.875 13.9138   1
   5  -1  -4 188.971 13.7206   3
  -5  -1   4 211.021 14.7944   1
   5  -1  -4 179.542 15.0633   1
   5   1  -4 207.496 14.9324   3
   5   1  -4 209.272 15.3804   1
   4  -1  -4 65.1485 5.48798   3
  -4  -1   4 58.8830 7.33482   1
   4  -1  -4 68.5966 5.76884   1
   4  -1  -4 69.3695 6.78669   1
   4   1  -4 56.3005 6.47712   3
   4   1  -4 51.3419 6.38902   1
   3  -1  -4 217.494 13.5975   3
  -3  -1   4 188.754 15.2517   1
   3  -1  -4 212.778 13.7012   1
   3  -1  -4 192.722 14.2959   1
  -3   1   4 232.400 12.9075   1
   3   1  -4 207.853 14.3365   3
   3   1  -4 200.343 14.5362   1
  -3   1   4 221.420 12.8311   1
   2  -1  -4 217.127 12.3373   1
   2  -1  -4 214.004 12.2334   3
   2  -1  -4 217.257 12.8797   1
  -2  -1   4 205.589 13.9581   1
   2   1  -4 165.688 12.5925   3
   2   1  -4 176.018 12.8522   1
  -2   1   4 184.032 11.8486   1
   2   1  -4 179.882 13.6485   1
  -2   1   4 176.936 12.1936   1
   1  -1  -4 1476.57 87.5841   1
  -1  -1   4 1587.71 88.2825   1
   1  -1  -4 1518.83 87.9423   1
  -1  -1   4 1532.15 87.0144   1
   1   1  -4 1439.30 88.3136   1
   1   1  -4 1377.85 87.7308   1
  -1   1   4 1429.84 87.2012   1
   1   1  -4 1529.85 87.0545   3
  -1   1   4 1363.86 87.3648   1
   0  -1   4 848.700 46.7893   1
   0  -1  -4 805.338 47.0000   1
   0  -1  -4 828.523 46.9211   1
   0  -1   4 834.122 46.6818   3
   0  -1   4 767.469 48.3535   1
   0   1  -4 769.471 47.7385   1
   0   1   4 711.671 46.9087   1
   0   1  -4 810.396 46.7802   3
   0   1   4 719.120 46.9129   1
   0   1  -4 763.466 46.8404   1
   1  -1   4 2517.76 164.914   1
   1  -1   4 2747.00 165.085   1
  -1  -1  -4 2788.63 166.226   1
  -1  -1  -4 2639.41 163.823   1
  -1   1  -4 2915.04 165.277   1
  -1   1  -4 2846.22 164.944   1
   1   1   4 3037.92 166.481   1
  -2  -1  -4 2863.52 174.334   1
   2  -1   4 3066.68 175.710   1
   2  -1   4 3383.86 176.080   1
   2   1   4 2832.03 176.146   1
  -2   1  -4 2666.89 174.383   3
  -3  -1  -4 586.114 38.1416   1
   3  -1   4 553.677 37.6728   1
   3  -1   4 555.519 37.7705   1
   3   1   4 704.781 38.9165   1
  -3   1  -4 703.147 37.2294   1
   4  -1   4 882.530 51.1746   1
   4  -1   4 773.666 50.9973   1
  -4  -1  -4 872.036 51.2561   1
   4   1   4 855.816 51.9854   1
  -4   1  -4 805.413 49.6728   1
   5  -1   4 297.613 19.4759   1
  -5  -1  -4 283.807 19.0103   1
   5   1   4 251.212 19.9048   1
   6  -1   4 264.757 19.9521   1
   6   1   4 292.338 21.3555   1
   7  -1   4 2.41929 4.59335   1
   7   1   4 4.55201 5.18435   1
   7  -2  -4 65.8680 8.24636   1
   7   2  -4 51.1726 9.63192   1
   6  -2  -4 216.493 15.4150   3
   6  -2  -4 220.854 15.7865   1
   6   2  -4 213.722 18.1783   1
  -5  -2   4 482.793 33.0339   1
  -5  -2   4 469.683 31.7128   1
   5  -2  -4 458.815 29.5424   1
   5  -2  -4 463.511 31.9092   1
   5  -2  -4 431.104 29.2486   3
   5   2  -4 508.509 32.1821   1
   5   2  -4 523.153 31.6522   3
  -4  -2   4 627.445 41.5525   1
   4  -2  -4 673.270 38.2168   3
   4  -2  -4 667.698 39.2746   1
   4  -2  -4 690.039 38.4171   1
   4   2  -4 560.514 39.7243   3
   4   2  -4 560.767 40.1614   1
   3  -2  -4 1307.77 77.9654   3
  -3  -2   4 1365.16 81.2443   1
   3  -2  -4 1325.47 78.6190   1
   3  -2  -4 1362.35 78.0425   1
   3   2  -4 1272.21 79.5796   3
   3   2  -4 1302.93 79.9961   1
  -2  -2   4 699.925 42.0312   1
   2  -2  -4 739.339 40.0759   1
   2  -2  -4 727.295 39.3292   1
   2   2  -4 550.690 40.5079   1
   2   2  -4 578.554 40.3225   3
  -1  -2   4 269.360 17.1634   1
  -1  -2   4 251.124 18.2006   1
   1  -2  -4 266.252 16.8676   1
   1  -2  -4 272.369 16.6478   1
  -1   2   4 273.683 16.6301   1
   1   2  -4 272.385 17.3471   1
   1   2  -4 260.787 17.0501   3
   0  -2   4 829.264 47.9230   1
   0  -2  -4 811.753 48.1833   1
   0  -2   4 818.911 47.7615   3
   0  -2  -4 763.445 47.9940   1
   0  -2   4 754.783 49.3299   1
   0   2  -4 811.943 47.9860   1
   0   2  -4 803.114 47.8198   3
   0   2   4 808.053 47.9172   1
  -1  -2  -4 554.469 33.8236   1
   1  -2   4 565.921 33.7010   1
  -1  -2  -4 557.008 34.6066   1
   1  -2   4 562.623 32.7071   3
   1  -2   4 545.549 32.7756   1
  -1   2  -4 547.219 32.6242   3
  -1   2  -4 505.500 32.5512   1
   1   2   4 534.090 33.5790   1
   2  -2   4 13.2508 2.12075   1
  -2  -2  -4 9.03984 2.71275   1
   2  -2   4 14.4282 2.13115   1
   2   2   4 9.80314 2.94290   1
   3  -2   4 577.934 34.2250   1
   3  -2   4 569.952 34.0732   1
  -3  -2  -4 567.134 35.5967   1
   3   2   4 524.460 35.4468   1
  -4  -2  -4 104.938 9.53107   1
   4  -2   4 99.1111 7.94442   1
   4  -2   4 107.014 8.31749   1
  -5  -2  -4 614.212 38.7822   1
   5  -2   4 612.739 37.8381   1
   5   2   4 577.025 39.3918   1
   6  -2   4 371.357 26.5980   1
   6   2   4 435.454 29.0422   1
   7  -2   4 124.512 12.3077   1
   7   2   4 120.725 14.3690   1
   7  -3  -4 77.3735 8.58574   1
   7   3  -4 81.4493 12.0716   1
   6  -3  -4 384.330 24.5516   3
  -6  -3   4 419.054 28.1478   1
   6  -3  -4 384.483 24.8013   1
   6   3  -4 348.377 28.0181   1
  -5  -3   4 28.3738 6.61265   1
   5  -3  -4 28.1734 3.69443   1
   5  -3  -4 25.3523 3.39510   3
  -5  -3   4 29.9374 7.88067   1
   5   3  -4 29.4096 6.67043   1
   4  -3  -4 94.9758 7.08920   1
  -4  -3   4 91.7394 10.8761   1
   4  -3  -4 88.8852 6.34546   1
   4  -3  -4 80.3743 6.16094   3
   4   3  -4 87.6574 9.57249   1
   3  -3  -4 304.043 17.7439   1
   3  -3  -4 286.675 17.1675   1
  -3  -3   4 298.116 21.5037   1
   3   3  -4 257.402 19.2680   3
   3   3  -4 261.222 19.7221   1
  -2  -3   4 363.486 26.1572   1
   2  -3  -4 376.258 23.7349   1
   2  -3  -4 396.251 23.2854   1
   2   3  -4 387.903 25.0969   1
   2   3  -4 376.414 24.6343   3
  -1   3   4 380.336 22.1795   1
   1   3  -4 351.067 22.7866   3
   1   3  -4 366.676 23.1594   1
  -1   3   4 336.725 22.1171   1
   0  -3   4 2388.82 139.643   1
   0  -3   4 2399.47 139.431   3
   0  -3  -4 2381.27 139.875   1
   0  -3   4 2502.96 141.158   1
   0  -3  -4 2268.81 139.822   1
   0   3  -4 2319.01 140.624   1
   0   3   4 2303.32 139.357   1
   1  -3   4 630.997 36.9546   1
   1  -3   4 626.407 36.7644   3
   1  -3   4 555.455 38.5747   1
  -1   3  -4 612.740 36.2804   1
   1   3   4 621.004 37.7405   1
   2  -3   4 1506.77 83.8906   3
   2  -3   4 1448.80 83.9542   1
   2  -3   4 1397.16 84.4993   1
   2   3   4 1326.85 85.5381   1
  -3  -3  -4 809.414 48.8829   1
   3  -3   4 810.377 46.4564   1
   3  -3   4 766.464 46.4752   1
   3   3   4 709.395 48.2854   1
  -4  -3  -4 735.343 46.4826   1
   4  -3   4 688.666 43.8285   1
   4  -3   4 738.215 43.9967   1
   4   3   4 750.801 46.5695   1
  -5  -3  -4 85.3195 9.64209   1
   5  -3   4 77.4617 6.99099   1
   5   3   4 49.3563 8.52956   1
   6  -3   4 309.763 21.1545   1
   6   3   4 310.936 24.2028   1
   7  -3   4 3.68372 3.98274   1
   7   3   4 1.06148 5.78292   1
   7  -4  -4 92.9998 8.72252   1
   7   4  -4 89.7529 13.4205   1
  -6  -4   4 77.9249 11.4520   1
   6  -4  -4 67.3274 6.52627   1
   6  -4  -4 79.1398 6.51477   3
   6   4  -4 86.7315 12.2830   1
  -5  -4   4 233.975 21.1241   1
  -5  -4   4 243.665 19.6480   1
   5  -4  -4 243.248 14.8690   1
   5  -4  -4 240.606 14.6962   3
   5   4  -4 188.465 18.6562   1
   4  -4  -4 197.427 12.2744   1
  -4  -4   4 204.678 18.3857   1
   4  -4  -4 196.174 12.9876   1
   4   4  -4 204.407 16.6524   1
   3  -4  -4 931.190 56.7715   1
  -3  -4   4 939.225 61.4888   1
   3  -4  -4 1038.19 57.3419   1
   3   4  -4 910.088 59.7068   1
   2  -4  -4 980.531 57.1809   1
   2  -4  -4 960.867 56.9488   1
  -2  -4   4 954.757 60.7080   1
   2   4  -4 924.017 58.9878   1
   1  -4  -4 343.663 22.7957   1
  -1  -4   4 365.821 25.1770   1
   1  -4  -4 359.882 22.7526   1
   1   4  -4 369.154 23.6201   1
   0  -4   4 543.865 32.1939   1
   0  -4  -4 469.075 30.5398   1
   0  -4   4 512.488 30.1192   3
   0  -4  -4 497.484 30.6332   1
   0  -4   4 488.276 30.3352   1
   0   4  -4 430.765 29.7059   1
   0   4   4 450.286 29.6263   1
   1  -4   4 26.3541 3.37855   3
   1  -4   4 24.5481 4.71609   1
   1  -4   4 21.0785 3.24137   1
  -1  -4  -4 19.7990 4.14829   1
   1   4   4 29.7782 4.13253   1
   2  -4   4 8.92439 3.71803   1
  -2  -4  -4 11.5023 4.03000   1
   2  -4   4 9.90492 2.06906   1
   2  -4   4 10.3207 2.02364   3
   2   4   4 13.4888 3.79361   1
   3  -4   4 266.861 17.7447   1
  -3  -4  -4 268.961 20.1178   1
   3  -4   4 254.508 16.8251   1
   3  -4   4 277.926 16.8637   3
   3   4   4 282.436 19.8157   1
  -4  -4  -4 41.9223 7.76148   1
   4  -4   4 35.2345 4.23015   1
  -5  -4  -4 365.056 26.1589   1
   5  -4   4 337.556 22.2414   1
   5   4   4 356.352 26.1762   1
  -6  -4  -4 218.686 20.6728   1
   6  -4   4 214.076 15.4787   1
   6   4   4 247.234 20.2510   1
  -6  -5   4 59.3231 10.8253   1
   6  -5  -4 54.4759 5.01471   3
   6   5  -4 85.1582 12.1302   1
  -5  -5   4 84.7596 13.8144   1
  -5  -5   4 81.7900 12.1262   1
   5   5  -4 73.1119 10.9405   1
   4  -5  -4 47.2977 4.03049   1
  -4  -5   4 39.2427 9.76700   1
   4   5  -4 39.1982 7.85365   1
  -3  -5   4 170.571 16.1923   1
   3  -5  -4 146.574 10.3437   1
   3  -5  -4 158.605 10.5967   1
   3   5  -4 143.428 13.4123   1
  -2  -5   4 34.9395 7.70608   1
   2  -5  -4 40.8339 5.05485   1
   2  -5  -4 47.4172 4.88931   1
   2   5  -4 68.4880 7.52051   1
   1  -5  -4 716.532 44.4654   1
  -1  -5   4 710.414 47.0326   1
   1  -5  -4 747.349 44.5962   1
   1   5  -4 699.171 44.7531   1
   0  -5  -4 792.278 52.0541   1
   0  -5   4 857.638 51.9140   1
   0  -5   4 820.130 51.4527   3
   0  -5   4 833.237 53.4610   1
   0   5   4 897.391 50.9772   1
  -1  -5  -4 145.529 12.9384   1
   1  -5   4 164.443 11.3439   3
   1  -5   4 170.373 11.7403   1
   1  -5   4 166.919 13.5374   1
   1   5   4 142.977 11.8071   1
   2  -5   4 985.407 58.8011   1
  -2  -5  -4 913.855 59.4332   1
   2  -5   4 916.783 56.6652   3
   2  -5   4 939.895 58.2950   1
   2   5   4 977.998 58.7657   1
   3  -5   4 278.415 20.9557   1
  -3  -5  -4 316.024 22.5959   1
   3   5   4 290.329 21.4855   1
  -4  -5  -4 596.141 40.3299   1
   4  -5   4 569.941 37.6008   1
   4   5   4 616.005 39.9645   1
  -5  -5  -4 82.4347 11.5096   1
   5  -5   4 87.8139 7.89502   1
   5   5   4 63.0160 10.6635   1
  -6  -5  -4 97.1998 13.1107   1
   6  -5   4 81.3025 8.00610   1
   6   5   4 69.3252 11.7440   1
  -5  -6   4 431.960 35.2922   1
  -5  -6   4 463.178 33.3519   1
   5   6  -4 406.355 31.8162   1
   4  -6  -4 236.383 15.9381   1
  -4  -6   4 237.972 23.2064   1
   4   6  -4 276.246 20.9853   1
   3  -6  -4 421.422 25.5393   1
  -3  -6   4 435.523 31.9765   1
   3   6  -4 343.268 27.7350   1
  -2  -6   4 566.544 37.4984   1
   2  -6  -4 563.724 32.7540   1
   2   6  -4 417.294 33.2435   1
   1  -6  -4 196.062 14.9813   1
  -1  -6   4 195.038 17.8244   1
   0  -6  -4 372.452 25.7796   1
   0  -6   4 374.278 27.2977   1
  -1  -6  -4 126.482 12.5275   1
   1  -6   4 136.274 12.8036   1
   2  -6   4 13.0529 4.85843   1
  -2  -6  -4 11.5952 5.48825   1
   2   6   4 10.1255 4.06359   1
  -3  -6  -4 56.2507 9.57884   1
   3  -6   4 61.6825 8.23906   1
   3   6   4 67.8209 8.96125   1
  -4  -6  -4 216.076 19.6593   1
   4  -6   4 234.490 16.9648   1
   4   6   4 188.806 17.9639   1
  -5  -6  -4 35.0205 9.30177   1
   5  -6   4 34.2942 6.71674   1
   5   6   4 54.4025 9.70577   1
   4  -7  -4 31.6679 4.75124   1
  -4  -7   4 19.9003 9.54425   1
   3  -7  -4 196.937 14.7948   1
  -3  -7   4 201.560 21.6108   1
   2  -7  -4 48.1140 6.94738   1
  -2  -7   4 41.8937 10.2793   1
  -1  -7   4 94.4988 13.9007   1
   1  -7  -4 98.0954 10.4975   1
   0  -7   4 237.249 21.0711   1
   0  -7  -4 251.245 19.3850   1
   1  -7   4 240.889 20.0589   1
  -1  -7  -4 237.668 19.7082   1
  -2  -7  -4 363.281 27.8790   1
   2  -7   4 372.996 26.9022   1
  -3  -7  -4 229.498 20.3372   1
   3  -7   4 216.202 17.8764   1
   4  -7   4 255.625 18.8584   1
  -4  -7  -4 225.873 22.0253   1
  -2  -8   4 326.300 28.5389   1
   2  -8  -4 303.675 22.8741   1
   1  -8  -4 137.670 14.0159   1
  -1  -8   4 145.940 17.7265   1
   0  -8  -4 163.069 16.0281   1
   0  -8   4 176.446 18.5128   1
   1  -8   4 51.3571 10.1114   1
  -1  -8  -4 51.2057 9.66546   1
  -2  -8  -4 12.4870 7.24182   1
   2  -8   4 12.7409 6.86865   1
   8   0  -5 24.1100 7.28182   1
   7   0  -5 156.769 13.6235   3
   7   0  -5 150.140 14.2730   1
   6   0  -5 553.994 36.3860   3
   6   0  -5 571.532 36.9910   1
   5   0  -5 8.13223 3.32706   1
   5   0  -5 5.37116 3.04299   3
  -5   0   5 8.69146 2.60683   1
   4   0  -5 902.511 54.4412   3
  -4   0   5 897.561 54.3939   1
   4   0  -5 904.997 54.7302   1
  -4   0   5 889.727 55.0695   1
   4   0  -5 888.017 55.9550   1
   3   0  -5 235.048 15.4278   1
  -3   0   5 229.879 15.9841   1
   3   0  -5 232.331 16.3763   1
   3   0  -5 229.362 15.1719   3
   2   0  -5 1302.29 74.7278   3
  -2   0   5 1209.86 75.5329   1
   2   0  -5 1205.64 75.4682   1
   2   0  -5 1312.77 74.9053   1
   1   0  -5 31.5429 3.17560   3
  -1   0   5 32.6593 3.21064   1
   1   0  -5 31.9873 3.28899   1
   1   0  -5 31.2198 4.34715   1
  -1   0   5 33.9896 4.62494   1
   0   0  -5 54.8839 4.76124   1
   0   0   5 50.0938 4.29856   1
   0   0   5 53.6343 5.09503   1
   0   0  -5 56.5649 4.31389   1
   1   0   5 124.560 9.11798   1
  -1   0  -5 140.958 8.98848   1
   1   0   5 138.451 9.27182   1
  -2   0  -5 1317.61 78.0716   1
   2   0   5 1279.42 78.5494   1
   2   0   5 1352.66 78.5649   1
   3   0   5 5813.09 343.518   1
  -3   0  -5 5926.92 342.066   1
   3   0   5 5606.09 344.792   1
  -4   0  -5 132.010 9.36799   1
   4   0   5 121.819 10.3845   1
   5   0   5 1311.49 80.0221   1
   6   0   5 217.259 17.3850   1
   7   0   5 182.748 16.5922   1
   8  -1  -5 2.26442 4.77892   1
   8   1  -5 -2.7277 5.27502   1
   7  -1  -5 11.1959 4.59719   3
   7  -1  -5 10.5082 4.83845   1
   7   1  -5 6.81464 5.38114   1
   6  -1  -5 7.30184 3.68491   1
   6  -1  -5 7.39008 3.64608   3
   6   1  -5 4.68031 3.95579   3
   6   1  -5 9.63736 4.67152   1
  -5  -1   5 120.960 11.3559   1
   5  -1  -5 105.803 10.6946   1
  -5  -1   5 111.828 10.2441   1
   5  -1  -5 108.759 9.18278   3
   5  -1  -5 109.684 9.49230   1
   5   1  -5 131.526 10.7427   3
   5   1  -5 135.664 11.1742   1
   4  -1  -5 1108.82 63.9271   3
   4  -1  -5 1101.46 65.2897   1
   4  -1  -5 1177.52 64.2899   1
  -4  -1   5 1057.24 65.9829   1
   4   1  -5 961.144 64.8844   1
   4   1  -5 981.387 64.5536   3
  -3  -1   5 566.595 35.1621   1
   3  -1  -5 556.385 33.1291   1
   3  -1  -5 569.631 34.0457   1
   3  -1  -5 550.296 32.9732   3
  -3   1   5 520.024 32.8641   1
   3   1  -5 527.317 33.6721   3
   3   1  -5 514.117 33.8852   1
   2  -1  -5 2676.99 164.066   1
  -2  -1   5 2686.18 165.087   1
   2  -1  -5 2872.29 164.713   1
   2  -1  -5 2703.92 164.526   3
   2   1  -5 2822.05 165.049   1
   2   1  -5 2876.44 164.191   1
   2   1  -5 2838.89 165.007   3
   1  -1  -5 2369.07 133.840   1
   1  -1  -5 2169.80 134.224   1
  -1  -1   5 2423.42 134.289   1
   1   1  -5 2199.28 134.879   1
  -1   1   5 2004.43 133.479   1
   1   1  -5 2450.70 134.875   3
   1   1  -5 2175.94 133.749   1
  -1   1   5 2232.46 133.749   1
   0  -1   5 2066.80 125.055   1
   0  -1   5 2032.55 122.894   3
   0  -1   5 1895.33 124.652   1
   0  -1  -5 2008.41 123.266   1
   0  -1  -5 2058.38 124.525   1
   0   1  -5 2225.62 124.152   1
   0   1   5 2095.86 123.272   1
   0   1   5 2180.23 123.443   1
   0   1  -5 2187.50 124.289   3
   0   1  -5 2137.16 123.938   1
   1  -1   5 1318.65 76.9495   1
  -1  -1  -5 1325.20 77.0725   1
   1  -1   5 1249.10 76.7865   1
   1   1   5 1360.76 77.1873   1
  -1   1  -5 1231.58 76.6436   1
  -1   1  -5 1293.58 76.5801   3
   2   1   5 320.166 20.5565   1
  -2   1  -5 312.188 19.5923   1
  -3  -1  -5 731.525 46.7846   1
   3  -1   5 788.115 46.7535   1
   3  -1   5 768.755 46.6808   1
   3   1   5 781.438 47.4367   1
  -4  -1  -5 47.7405 5.56186   1
   4  -1   5 44.8392 5.25754   1
   4  -1   5 47.7151 5.67454   1
   4   1   5 49.1865 6.57229   1
  -4   1  -5 40.0904 4.01792   1
  -5  -1  -5 34.1100 4.84457   1
   5  -1   5 29.1764 5.08872   1
   5   1   5 14.8523 4.76955   1
   6  -1   5 81.8299 9.67435   1
   6   1   5 108.982 11.1289   1
   7  -1   5 105.005 11.5871   1
   7   1   5 95.2732 12.5328   1
   7  -2  -5 175.116 14.1593   3
   7  -2  -5 181.350 14.7981   1
   7   2  -5 187.998 17.3485   1
   6  -2  -5 35.1041 5.26479   3
   6  -2  -5 41.3987 5.88675   1
   6   2  -5 46.6911 8.08087   1
   5  -2  -5 366.497 23.5881   3
   5  -2  -5 398.562 24.0179   1
  -5  -2   5 385.119 27.4409   1
  -5  -2   5 411.539 26.3649   1
   5   2  -5 336.619 25.8474   1
   5   2  -5 338.105 25.3060   3
   4  -2  -5 60.7545 5.21708   3
   4  -2  -5 62.7568 5.34419   1
   4  -2  -5 53.8435 6.08002   1
  -4  -2   5 49.6622 7.85219   1
   4   2  -5 62.6923 7.53708   3
   4   2  -5 52.7213 7.26124   1
   3  -2  -5 283.801 17.4190   3
  -3  -2   5 273.988 20.5006   1
   3  -2  -5 283.183 17.4681   1
   3  -2  -5 293.021 18.2169   1
   3   2  -5 262.693 18.8306   3
   2  -2  -5 189.592 11.8070   1
   2  -2  -5 181.385 13.0968   1
  -2  -2   5 170.620 14.1913   1
   2   2  -5 196.064 13.3344   1
   2   2  -5 193.042 13.0009   3
   1  -2  -5 424.158 25.5303   1
  -1  -2   5 393.979 26.9841   1
   1  -2  -5 400.744 25.0477   1
  -1  -2   5 392.753 25.4196   1
  -1   2   5 389.327 26.0276   1
   1   2  -5 423.613 25.5410   3
   1   2  -5 432.208 25.8094   1
   0  -2  -5 545.206 32.5657   1
   0  -2   5 543.723 32.0885   3
   0  -2   5 571.044 32.3005   1
   0  -2  -5 523.740 32.4619   1
   0  -2   5 518.652 34.2887   1
   0   2   5 509.718 32.3721   1
   0   2  -5 527.840 32.1900   3
   0   2  -5 501.838 32.3026   1
   1  -2   5 1643.42 96.4259   3
  -1  -2  -5 1666.62 97.4858   1
   1  -2   5 1617.04 96.5210   1
   1  -2   5 1688.10 97.6994   1
   1   2   5 1608.90 97.2283   1
  -1   2  -5 1595.28 96.4650   1
  -2  -2  -5 1102.71 65.7903   1
   2  -2   5 1114.21 64.7330   1
   2  -2   5 1150.29 64.7194   1
   2   2   5 1032.95 65.6167   1
  -2   2  -5 1028.54 63.9048   1
  -2   2  -5 1085.83 63.9681   3
  -3  -2  -5 847.453 52.6643   1
   3  -2   5 799.414 51.4079   1
   3  -2   5 851.880 51.5060   1
   3   2   5 933.875 53.2042   1
   4  -2   5 891.249 51.6474   1
  -4  -2  -5 890.390 52.7579   1
   4  -2   5 802.884 51.4112   1
   4   2   5 802.773 52.8882   1
  -5  -2  -5 1122.48 69.9504   1
   5  -2   5 1116.68 69.1368   1
   5   2   5 1182.25 71.0756   1
   6  -2   5 132.465 12.1732   1
   6   2   5 165.908 14.8959   1
   7  -2   5 280.509 20.3866   1
   7   2   5 249.779 22.4265   1
   7  -3  -5 57.0117 7.36241   1
   7  -3  -5 50.8689 6.78082   3
   7   3  -5 58.9078 10.8917   1
  -6  -3   5 274.440 21.3914   1
   6  -3  -5 260.074 17.6021   3
   6  -3  -5 260.847 17.9140   1
   6   3  -5 266.434 21.8326   1
   5  -3  -5 43.4738 4.67503   3
   5  -3  -5 44.6843 4.92669   1
  -5  -3   5 49.3741 9.49105   1
  -4  -3   5 592.152 39.6598   1
   4  -3  -5 559.873 34.9228   3
   4  -3  -5 581.817 35.0705   1
   4  -3  -5 590.097 35.7759   1
   4   3  -5 574.205 37.4499   3
   4   3  -5 592.959 38.1762   1
   3  -3  -5 393.727 25.9345   1
  -3  -3   5 385.503 29.7430   1
   3  -3  -5 405.270 27.0119   1
   3   3  -5 518.839 28.7889   3
   3   3  -5 483.977 29.0766   1
  -2  -3   5 964.858 63.4571   1
   2  -3  -5 1049.56 60.5464   1
   2  -3  -5 1073.05 61.2467   1
   2   3  -5 1052.97 61.9764   3
   2   3  -5 935.567 62.0466   1
   1  -3  -5 3623.83 217.836   1
  -1  -3   5 3967.15 218.475   1
   1  -3  -5 3958.56 217.855   1
   1   3  -5 3554.47 216.590   1
   1   3  -5 3271.89 217.489   3
   0  -3   5 812.509 53.6061   1
   0  -3   5 819.988 51.6643   3
   0  -3   5 838.061 51.9166   1
   0  -3  -5 794.166 52.0980   1
   0  -3  -5 807.905 52.2007   1
   0   3  -5 917.264 52.1267   1
   0   3  -5 936.236 51.9411   3
   0   3   5 959.461 52.0401   1
   1  -3   5 367.997 24.6874   3
  -1  -3  -5 349.378 25.8675   1
   1  -3   5 332.625 26.7820   1
   1  -3   5 368.101 24.8364   1
   1   3   5 480.181 26.0770   1
  -1   3  -5 464.458 24.7520   1
  -1   3  -5 454.733 24.6976   3
   2  -3   5 421.684 26.2227   1
  -2  -3  -5 392.902 27.0600   1
   2  -3   5 408.414 25.3282   1
   2  -3   5 420.245 25.2669   3
   2   3   5 424.276 27.0258   1
   3  -3   5 62.0072 5.48764   1
  -3  -3  -5 62.2273 7.57954   1
   3  -3   5 63.9548 5.55059   1
   3   3   5 67.9654 7.59544   1
   4  -3   5 16.3035 3.07918   1
  -4  -3  -5 17.5009 4.96261   1
   4   3   5 13.8330 4.61392   1
   5  -3   5 71.1611 7.21091   1
  -5  -3  -5 77.0578 9.94153   1
   5   3   5 89.5796 10.3678   1
   6  -3   5 4.01648 3.35614   1
   6   3   5 4.22812 5.29459   1
   7  -4  -5 64.6151 7.12438   3
   7  -4  -5 67.8611 7.57710   1
   7   4  -5 76.1143 12.0867   1
   6  -4  -5 130.923 9.95664   1
  -6  -4   5 137.103 14.7941   1
  -6  -4   5 139.557 16.4327   1
   6  -4  -5 130.368 9.68898   3
   6   4  -5 134.380 15.1592   1
  -5  -4   5 519.373 38.5192   1
   5  -4  -5 546.049 32.1106   3
   5  -4  -5 520.884 32.2130   1
   5   4  -5 523.662 36.6172   1
   4  -4  -5 20.8472 2.68309   1
  -4  -4   5 18.5657 6.96260   1
   4  -4  -5 18.5734 3.63973   1
   4   4  -5 20.3231 5.92745   1
  -3  -4   5 152.323 15.3517   1
   3  -4  -5 163.746 10.6358   1
   3  -4  -5 157.649 11.2574   1
   2  -4  -5 1.49567 1.52911   1
   2  -4  -5 0.14272 1.73959   1
  -2  -4   5 -0.1819 3.47542   1
   2   4  -5 2.25778 2.83350   1
   1  -4  -5 34.5755 4.18776   1
  -1  -4   5 35.1887 6.48176   1
   1  -4  -5 36.4467 4.54157   1
  -1   4   5 38.5348 4.31513   1
   1   4  -5 36.7255 5.15299   1
   0  -4   5 142.497 10.0079   1
   0  -4   5 129.098 9.63522   3
   0  -4  -5 121.729 10.1253   1
   0  -4   5 135.720 11.9882   1
   0  -4  -5 125.394 10.0902   1
  -1  -4  -5 426.821 26.6707   1
   1  -4   5 423.745 25.2509   1
   1  -4   5 420.378 24.9825   3
   1  -4   5 387.598 27.2199   1
   1   4   5 343.082 25.4757   1
  -2  -4  -5 725.182 47.2314   1
   2  -4   5 752.957 47.5961   1
   2  -4   5 748.513 44.8150   3
   2  -4   5 748.757 45.0083   1
   2   4   5 761.113 46.8464   1
  -3  -4  -5 1025.86 65.8186   1
   3  -4   5 1053.49 63.0937   1
   3  -4   5 1084.80 63.0332   3
   3  -4   5 1045.49 64.0574   1
   3   4   5 1067.70 65.5485   1
  -4  -4  -5 569.325 37.9575   1
   4  -4   5 547.001 34.9285   1
   4   4   5 591.067 38.0186   1
  -5  -4  -5 585.787 38.2093   1
   5  -4   5 533.900 34.6328   1
   5   4   5 564.084 38.3112   1
   6  -4   5 124.329 10.8755   1
   6   4   5 175.892 16.4458   1
   6  -5  -5 61.7206 5.37848   3
  -6  -5   5 59.1885 11.3264   1
  -6  -5   5 54.7149 12.0318   1
   6   5  -5 65.0935 11.2190   1
  -5  -5   5 40.5225 10.3969   1
   5  -5  -5 31.2474 3.89952   1
   5  -5  -5 30.4672 3.60922   3
   5   5  -5 15.8480 6.70731   1
   4  -5  -5 382.788 22.7738   1
  -4  -5   5 368.889 29.5275   1
   4   5  -5 350.048 26.9744   1
   3  -5  -5 959.179 53.9685   1
  -3  -5   5 900.231 59.2744   1
   3   5  -5 812.884 56.5060   1
   2  -5  -5 409.259 28.4017   1
  -2  -5   5 449.706 32.6687   1
   2  -5  -5 439.579 28.6532   1
   2   5  -5 547.334 31.1737   1
  -1  -5   5 491.032 33.4934   1
   1  -5  -5 444.932 30.4235   1
   1  -5  -5 473.549 30.6326   1
   1   5  -5 517.584 31.2650   1
   0  -5   5 461.483 31.1472   3
   0  -5  -5 459.725 31.7147   1
   0  -5   5 491.215 33.5452   1
   0   5   5 549.473 30.9632   1
   1  -5   5 924.021 52.7607   1
  -1  -5  -5 802.913 51.6418   1
   1  -5   5 818.039 50.2363   1
   1  -5   5 811.341 50.2188   3
   1   5   5 764.588 50.3818   1
  -2  -5  -5 72.3046 8.97929   1
   2  -5   5 72.9743 8.99539   1
   3  -5   5 150.755 13.3386   1
  -3  -5  -5 152.728 14.2542   1
   3   5   5 127.440 12.7960   1
   4  -5   5 6.87443 4.22673   1
  -4  -5  -5 7.16472 5.62880   1
   4   5   5 9.00754 5.09967   1
  -5  -5  -5 51.7279 9.67271   1
   5  -5   5 52.6953 6.79675   1
   5   5   5 49.0768 9.23661   1
  -5  -6   5 25.3693 9.94320   1
   5   6  -5 29.3328 7.97184   1
  -4  -6   5 94.6730 14.8586   1
   4  -6  -5 99.7280 7.77980   1
   4   6  -5 94.8934 11.9972   1
   3  -6  -5 268.447 16.5732   1
  -3  -6   5 258.949 22.5441   1
   3   6  -5 182.084 18.3338   1
   2  -6  -5 71.3273 7.65861   1
  -2  -6   5 73.2781 11.6590   1
   2   6  -5 78.2117 8.92064   1
  -1  -6   5 16.7993 6.37960   1
   1  -6  -5 14.1862 4.20593   1
   0  -6  -5 70.4347 8.40073   1
   0  -6   5 74.2028 10.3494   1
   1  -6   5 483.418 32.3205   1
  -1  -6  -5 442.185 31.4975   1
  -2  -6  -5 89.6453 10.9213   1
   2  -6   5 83.5219 10.4010   1
   2   6   5 90.5121 9.45953   1
   3  -6   5 778.527 46.8924   1
  -3  -6  -5 773.265 48.6144   1
   3   6   5 629.899 46.3666   1
  -4  -6  -5 101.699 13.2047   1
   4  -6   5 99.5882 11.3813   1
  -5  -6  -5 401.498 31.3283   1
   5  -6   5 363.680 28.6317   1
   5   6   5 475.500 31.4703   1
  -4  -7   5 118.991 18.2293   1
   4  -7  -5 141.006 10.6785   1
  -3  -7   5 281.503 26.4743   1
   3  -7  -5 291.836 20.1508   1
   2  -7  -5 337.219 24.0761   1
  -2  -7   5 375.655 29.6954   1
  -1  -7   5 407.649 32.8370   1
   1  -7  -5 450.863 29.7230   1
   0  -7  -5 288.238 22.0799   1
   0  -7   5 298.200 24.2001   1
  -1  -7  -5 195.305 17.3219   1
   1  -7   5 192.757 17.9087   1
  -2  -7  -5 29.1865 7.88089   1
   2  -7   5 41.9197 8.10338   1
   3  -7   5 48.9685 8.55122   1
  -3  -7  -5 45.4391 9.91911   1
   4  -7   5 52.6404 8.42288   1
  -4  -7  -5 41.1684 10.2436   1
  -2  -8   5 41.6149 11.6227   1
   2  -8  -5 53.6130 8.33659   1
   1  -8  -5 7.66292 5.33087   1
  -1  -8   5 8.48719 7.56071   1
   0  -8   5 4.63922 6.91749   1
   0  -8  -5 13.1557 6.31795   1
   1  -8   5 84.2676 13.0425   1
  -1  -8  -5 89.1985 12.4025   1
  -2  -8  -5 91.2805 13.3757   1
   2  -8   5 80.0830 12.1940   1
   8   0  -6 70.2884 10.8978   1
   7   0  -6 11.2499 5.10969   3
   7   0  -6 9.86417 5.21991   1
   6   0  -6 37.1895 6.53115   1
   6   0  -6 32.0613 6.13405   3
   5   0  -6 157.071 12.5730   1
   5   0  -6 158.632 12.0959   3
  -5   0   6 154.328 11.5991   1
  -4   0   6 54.1329 6.55379   1
   4   0  -6 61.5418 6.34191   1
   4   0  -6 66.0099 7.60649   1
   4   0  -6 56.3216 5.97664   3
  -3   0   6 1483.03 93.9412   1
   3   0  -6 1588.27 93.1041   3
   3   0  -6 1591.47 94.3224   1
   3   0  -6 1594.34 93.3716   1
   2   0  -6 115.848 8.17655   3
   2   0  -6 113.891 9.12631   1
  -2   0   6 117.380 9.37176   1
   2   0  -6 110.097 8.27750   1
   1   0  -6 2322.34 134.462   3
   1   0  -6 2250.60 134.658   1
   1   0  -6 2283.78 135.206   1
  -1   0   6 2165.31 134.640   1
   0   0  -6 5113.55 291.842   1
   0   0   6 4787.36 289.286   1
   0   0  -6 4794.21 289.567   1
   1   0   6 1596.92 94.2199   1
  -1   0  -6 1611.32 93.8401   1
   1   0   6 1548.89 94.0730   1
  -2   0  -6 3447.96 196.084   1
   2   0   6 3254.56 198.399   1
   2   0   6 3269.52 196.030   1
  -3   0  -6 56.9026 5.16046   1
   3   0   6 53.2344 5.75298   1
  -4   0  -6 1070.68 64.7203   1
   4   0   6 1088.82 65.9619   1
   5   0   6 957.387 59.5399   1
   6   0   6 102.487 11.1850   1
   7   0   6 17.1080 6.39200   1
   7  -1  -6 104.090 10.0888   3
   7  -1  -6 104.224 10.5441   1
   7   1  -6 62.0993 9.73638   3
   7   1  -6 65.6878 10.5410   1
   6  -1  -6 202.065 16.8070   3
   6  -1  -6 229.489 17.5549   1
   6   1  -6 273.110 18.6726   3
   6   1  -6 264.631 19.1577   1
  -5  -1   6 443.736 27.1753   1
  -5  -1   6 406.436 28.0290   1
   5  -1  -6 411.064 25.8804   3
   5  -1  -6 427.931 26.3104   1
   5   1  -6 359.550 26.9577   1
   5   1  -6 353.016 26.4933   3
   4  -1  -6 757.735 47.6689   1
   4  -1  -6 750.749 46.5767   1
  -4  -1   6 728.339 48.3571   1
   4  -1  -6 781.234 46.3690   3
   4   1  -6 760.067 47.1319   3
   4   1  -6 766.848 47.5807   1
  -4   1   6 780.384 45.4795   1
   3  -1  -6 626.439 40.3647   1
   3  -1  -6 672.029 41.2724   1
  -3  -1   6 632.183 42.2288   1
   3  -1  -6 603.314 40.1474   3
   3   1  -6 741.595 41.4975   1
   3   1  -6 726.127 41.1222   3
   2  -1  -6 1798.81 103.424   1
  -2  -1   6 1784.62 105.444   1
   2  -1  -6 1822.08 103.323   3
   2  -1  -6 1709.17 104.494   1
   2   1  -6 1727.12 103.833   3
   2   1  -6 1742.77 104.104   1
  -2   1   6 1665.18 104.003   1
  -1  -1   6 439.746 29.1162   1
   1  -1  -6 472.439 26.9659   1
   1  -1  -6 500.511 28.6847   1
  -1   1   6 368.188 28.3816   1
   1   1  -6 429.170 27.2717   3
   1   1  -6 441.524 27.4867   1
   0  -1  -6 44.3948 4.17346   1
   0  -1  -6 47.9464 4.56199   1
   0  -1   6 44.4584 4.21488   1
   0  -1   6 35.5052 5.87123   1
   0   1  -6 53.6002 4.39049   3
   0   1  -6 48.3152 4.43601   1
   0   1   6 57.3307 4.98885   1
   1  -1   6 816.266 50.8523   1
   1  -1   6 833.972 51.0951   1
  -1   1  -6 825.679 50.7204   1
   1   1   6 899.929 51.2451   1
  -1   1  -6 853.025 50.6221   3
   2  -1   6 325.723 19.2621   1
   2  -1   6 333.284 19.2777   1
  -2  -1  -6 330.659 19.4768   1
  -2   1  -6 254.333 18.6237   1
   2   1   6 253.259 19.3033   1
   3  -1   6 734.081 49.4380   1
   3  -1   6 751.045 49.3889   1
  -3  -1  -6 779.913 49.5523   1
  -3   1  -6 898.211 49.0017   1
   3   1   6 910.367 50.4849   1
   4  -1   6 1624.38 97.7989   1
  -4  -1  -6 1764.20 97.5697   1
   4  -1   6 1707.19 97.7180   1
   4   1   6 1668.20 98.4129   1
  -4   1  -6 1394.49 96.1611   1
   5  -1   6 34.9701 5.73525   1
  -5  -1  -6 38.3071 5.30159   1
   6  -1   6 345.439 24.0893   1
   6   1   6 332.968 24.9266   1
   7  -1   6 198.425 16.8571   1
   7   1   6 184.372 17.8779   1
   7  -2  -6 13.6864 4.91442   1
   7  -2  -6 12.0943 4.41652   3
   7   2  -6 11.5917 6.22588   1
   6  -2  -6 120.567 10.0511   1
   6  -2  -6 113.703 9.53694   3
   6   2  -6 113.468 11.5304   3
   6   2  -6 95.1520 11.6950   1
   5  -2  -6 227.649 15.1606   1
  -5  -2   6 209.666 18.3298   1
   5  -2  -6 218.826 14.7724   3
   5   2  -6 210.173 16.6123   3
   5   2  -6 200.644 16.9061   1
   4  -2  -6 88.1479 7.96153   1
  -4  -2   6 95.2836 10.5157   1
   4  -2  -6 80.1759 7.05051   1
   4  -2  -6 85.0330 6.92582   3
   4   2  -6 95.1393 8.81472   3
   4   2  -6 90.3224 8.97726   1
  -3  -2   6 720.514 48.8850   1
   3  -2  -6 765.903 45.9728   1
   3  -2  -6 719.910 46.7804   1
   3   2  -6 799.727 47.4495   3
   3   2  -6 828.163 47.9698   1
   2  -2  -6 1590.30 93.2879   1
  -2  -2   6 1612.01 94.5008   1
   2  -2  -6 1555.18 91.4507   1
   2   2  -6 1514.48 92.7989   1
  -2   2   6 1488.42 91.4875   1
   2   2  -6 1547.68 92.5580   3
  -1  -2   6 868.683 57.6765   1
   1  -2  -6 878.004 55.9923   1
   1  -2  -6 818.834 55.3263   1
   1   2  -6 1045.42 56.0811   3
  -1   2   6 942.441 57.0759   1
   1   2  -6 1022.18 56.3146   1
   0  -2  -6 1250.41 70.0478   1
   0  -2  -6 1108.52 69.8935   1
   0  -2   6 1219.89 69.6355   1
   0  -2   6 1128.96 72.1287   1
   0  -2   6 1250.18 69.5141   3
   0   2  -6 1107.63 69.7803   1
   0   2  -6 1181.58 69.6860   3
   0   2   6 1095.11 69.9081   1
  -1  -2  -6 1024.23 61.6258   1
   1  -2   6 1057.06 62.3022   1
   1  -2   6 1066.98 60.8363   3
   1  -2   6 1025.98 60.9370   1
  -1   2  -6 977.553 60.8406   1
   1   2   6 973.532 61.4111   1
  -2  -2  -6 2425.53 141.569   1
   2  -2   6 2345.78 140.656   1
   2  -2   6 2394.01 140.759   1
   2   2   6 2378.29 141.579   1
  -2   2  -6 2267.02 140.545   1
  -2   2  -6 2492.81 140.094   3
   3  -2   6 778.537 49.5872   1
  -3  -2  -6 804.813 50.6183   1
   3  -2   6 788.882 49.5621   1
   3   2   6 916.655 51.2444   1
   4  -2   6 827.372 51.8550   1
  -4  -2  -6 849.899 52.3058   1
   4  -2   6 884.329 51.4081   1
   4   2   6 793.829 52.6238   1
  -5  -2  -6 36.6152 6.08298   1
   5  -2   6 30.7435 5.19108   1
   5   2   6 33.0440 6.57260   1
   6  -2   6 8.26329 4.16205   1
   6   2   6 11.1238 5.77765   1
   7  -2   6 5.03112 4.69517   1
   7   2   6 -2.0494 5.46655   1
   7  -3  -6 399.031 25.7624   3
   7  -3  -6 389.641 26.1835   1
   7   3  -6 364.795 29.6386   1
   6  -3  -6 51.3302 6.19269   3
  -6  -3   6 57.5913 10.7512   1
  -6  -3   6 62.8648 9.88472   1
   6  -3  -6 52.4605 6.43994   1
   6   3  -6 82.8952 10.9752   1
   5  -3  -6 171.949 12.6478   1
   5  -3  -6 169.720 12.4040   3
  -5  -3   6 172.637 17.1719   1
   5   3  -6 205.751 16.2293   1
   5   3  -6 201.691 15.4876   3
  -4  -3   6 1201.73 70.8781   1
   4  -3  -6 1185.32 65.7701   3
   4  -3  -6 1197.65 65.9206   1
   4  -3  -6 1122.72 66.7341   1
   4   3  -6 947.779 68.2126   1
   4   3  -6 957.646 67.6986   3
  -3  -3   6 1058.56 64.9639   1
   3  -3  -6 996.281 60.4995   1
   3  -3  -6 925.679 61.9645   1
   3   3  -6 1069.09 62.8170   3
   3   3  -6 1068.02 63.3046   1
   2  -3  -6 320.108 19.8954   1
  -2  -3   6 310.736 22.4021   1
   2  -3  -6 301.694 18.9797   1
   2   3  -6 288.576 20.2013   3
   2   3  -6 288.210 20.5229   1
   1  -3  -6 342.308 24.0177   1
  -1  -3   6 373.179 26.6883   1
   1  -3  -6 366.290 24.1090   1
   1   3  -6 423.889 25.1380   1
   1   3  -6 424.263 24.7832   3
   0  -3   6 21.0613 3.16078   3
   0  -3  -6 19.6639 3.54173   1
   0  -3   6 20.4262 5.07505   1
   0  -3   6 25.0652 3.49828   1
   0  -3  -6 18.9131 3.49037   1
   0   3  -6 34.3660 3.89993   1
   0   3  -6 29.9656 3.47055   3
   0   3   6 33.9868 3.96151   1
   1  -3   6 283.875 18.4463   1
   1  -3   6 275.086 21.0560   1
  -1  -3  -6 277.046 19.6384   1
   1  -3   6 288.031 18.3240   3
  -1   3  -6 310.571 18.3636   3
   1   3   6 310.425 19.4418   1
   2  -3   6 1235.62 73.4686   3
  -2  -3  -6 1192.99 75.0982   1
   2  -3   6 1251.28 74.6481   1
   2  -3   6 1274.58 73.6519   1
   2   3   6 1220.84 74.9251   1
  -3  -3  -6 86.9162 9.20631   1
   3  -3   6 85.0132 7.23144   1
   3  -3   6 95.3336 7.51272   1
   3   3   6 93.3908 9.04679   1
   4  -3   6 822.040 49.0332   1
  -4  -3  -6 808.017 50.8725   1
   4   3   6 777.418 51.0513   1
   5  -3   6 253.618 18.6241   1
  -5  -3  -6 287.107 20.9282   1
   5   3   6 300.252 21.7470   1
   6  -3   6 216.135 16.4656   1
   6   3   6 240.783 20.2306   1
   7  -4  -6 21.0556 4.52946   3
   7  -4  -6 21.6772 4.62326   1
   7   4  -6 29.5797 8.87351   1
  -6  -4   6 51.9833 11.3013   1
  -6  -4   6 45.4143 9.38857   1
   6  -4  -6 47.8132 5.41651   3
   6  -4  -6 54.2690 5.95903   1
   6   4  -6 30.6589 8.61215   1
  -5  -4   6 108.823 14.7391   1
   5  -4  -6 102.282 8.07894   1
   5  -4  -6 99.7171 7.86409   3
   5   4  -6 115.953 12.8458   1
   4  -4  -6 89.4967 6.73010   1
  -4  -4   6 97.7580 12.5500   1
   4   4  -6 96.6722 10.6037   1
  -3  -4   6 141.286 14.7521   1
   3  -4  -6 140.176 10.9291   1
   3  -4  -6 133.486 10.0766   1
   3   4  -6 188.188 13.6177   1
   3   4  -6 173.700 12.8340   3
   2  -4  -6 425.142 25.4851   1
   2  -4  -6 401.168 25.3390   1
  -2  -4   6 397.936 29.0016   1
   2   4  -6 400.361 27.0194   1
   2   4  -6 388.670 26.4781   3
   1  -4  -6 944.992 59.6143   1
  -1  -4   6 987.001 62.5144   1
   1  -4  -6 918.165 59.4636   1
  -1   4   6 993.753 59.9440   1
   1   4  -6 1037.38 60.0835   3
   1   4  -6 1039.49 60.4787   1
   0  -4   6 994.485 59.2382   3
   0  -4  -6 930.391 59.8350   1
   0  -4   6 976.153 61.8919   1
   0  -4   6 993.019 59.5484   1
   0   4  -6 970.351 59.3554   1
   0   4   6 1022.16 59.4196   1
   1  -4   6 801.884 48.3681   3
   1  -4   6 729.951 50.9830   1
  -1  -4  -6 801.531 49.9841   1
   1  -4   6 794.439 48.5875   1
   1   4   6 863.153 49.4562   1
  -1   4  -6 808.445 47.8388   1
   2  -4   6 727.837 49.6359   1
   2  -4   6 767.468 46.7010   3
   2  -4   6 753.214 46.8861   1
  -2  -4  -6 816.523 49.3052   1
   2   4   6 827.917 48.7529   1
   3  -4   6 315.627 21.1693   1
  -3  -4  -6 318.158 22.5342   1
   3   4   6 286.595 21.7600   1
  -4  -4  -6 407.538 28.4472   1
   4  -4   6 385.977 25.7249   1
   4   4   6 411.142 28.2747   1
  -5  -4  -6 58.5096 9.14491   1
   5  -4   6 68.6655 7.17303   1
   5   4   6 63.9536 9.91141   1
   6  -4   6 79.5717 8.79988   1
   6   4   6 105.845 13.2383   1
   6  -5  -6 196.141 12.9054   3
  -6  -5   6 198.672 19.3995   1
   6  -5  -6 200.988 13.2751   1
  -6  -5   6 205.091 22.1197   1
   6   5  -6 141.799 17.8052   1
   5  -5  -6 308.581 20.4633   3
  -5  -5   6 325.882 28.2789   1
   5  -5  -6 328.422 20.6475   1
   5   5  -6 377.937 26.5404   1
   4  -5  -6 292.421 17.8461   1
  -4  -5   6 302.810 25.1602   1
   4   5  -6 250.639 21.7410   1
  -3  -5   6 388.641 31.1151   1
   3  -5  -6 400.941 25.8443   1
   3   5  -6 447.767 29.1888   1
   2  -5  -6 368.732 23.2673   1
  -2  -5   6 381.561 27.7047   1
   2   5  -6 326.592 24.6282   1
  -1  -5   6 264.996 20.3932   1
   1  -5  -6 264.073 17.3975   1
   1  -5  -6 254.842 17.1904   1
  -1   5   6 217.495 16.3357   1
   1   5  -6 235.060 17.4362   1
   0  -5   6 72.9822 10.1373   1
   0  -5  -6 65.6799 7.90756   1
   0   5  -6 76.2168 6.78984   1
   0   5   6 80.9992 7.15053   1
   1  -5   6 204.794 15.8486   1
  -1  -5  -6 172.201 14.2400   1
   1   5   6 154.548 12.8431   1
   2  -5   6 285.008 23.4710   1
  -2  -5  -6 321.025 23.5770   1
   2   5   6 363.669 22.8647   1
   3  -5   6 152.170 14.4661   1
  -3  -5  -6 172.302 14.9206   1
   3   5   6 140.268 13.4949   1
  -4  -5  -6 282.002 22.4283   1
   4  -5   6 268.911 20.6650   1
   4   5   6 278.095 21.7344   1
  -5  -5  -6 153.960 16.1473   1
   5  -5   6 141.427 13.1714   1
   5   5   6 193.592 16.6644   1
   5  -6  -6 4.00608 2.14396   1
  -5  -6   6 3.68864 8.04056   1
   5   6  -6 4.25482 5.81008   1
  -4  -6   6 73.8410 13.5019   1
   4  -6  -6 65.4655 6.32829   1
   4   6  -6 78.2955 11.0046   1
   3  -6  -6 219.030 15.4979   1
  -3  -6   6 198.793 21.2394   1
   3   6  -6 236.601 18.6734   1
   2  -6  -6 101.335 9.46495   1
  -2  -6   6 88.5752 13.5940   1
   2   6  -6 119.540 11.1572   1
   1  -6  -6 484.207 32.7752   1
  -1  -6   6 529.596 36.5156   1
   0  -6  -6 282.099 20.5847   1
   0  -6   6 280.004 22.7281   1
  -1  -6  -6 217.416 18.0821   1
   1  -6   6 240.192 19.3534   1
   2  -6   6 589.167 41.3198   1
  -2  -6  -6 650.706 41.8912   1
   2   6   6 626.794 40.5113   1
   3  -6   6 376.225 28.8171   1
  -3  -6  -6 404.025 29.9946   1
   3   6   6 443.451 28.9085   1
   4  -6   6 63.9980 10.0251   1
  -4  -6  -6 72.4359 11.8859   1
   4   6   6 85.9026 11.3256   1
  -4  -7   6 250.490 25.6965   1
   4  -7  -6 231.703 16.3852   1
   3  -7  -6 283.451 19.4052   1
  -3  -7   6 248.654 25.4502   1
  -2  -7   6 98.4377 15.2834   1
   2  -7  -6 116.765 11.0785   1
  -1  -7   6 54.6660 10.8348   1
   1  -7  -6 50.2189 7.85421   1
   0  -7  -6 10.7854 5.35778   1
   0  -7   6 17.6074 7.10623   1
  -1  -7  -6 8.15320 5.58324   1
   1  -7   6 13.2079 6.59206   1
   2  -7   6 38.7101 8.42897   1
  -2  -7  -6 33.9092 8.48405   1
   3  -7   6 172.088 16.5891   1
  -3  -7  -6 177.667 18.2450   1
  -2  -8   6 126.820 18.9203   1
   2  -8  -6 146.905 13.7049   1
  -1  -8   6 90.5350 15.0027   1
   1  -8  -6 84.1350 11.1460   1
   0  -8  -6 225.027 19.0988   1
   0  -8   6 197.126 21.0252   1
  -1  -8  -6 182.852 17.5115   1
   1  -8   6 163.094 18.0702   1
   7   0  -7 42.0846 7.54348   3
   7   0  -7 42.8503 7.94039   1
   6   0  -7 301.359 21.3659   3
   6   0  -7 295.692 21.8863   1
   5   0  -7 638.284 40.2527   3
  -5   0   7 634.520 39.8289   1
  -5   0   7 652.994 40.7715   1
   5   0  -7 623.082 40.6032   1
  -4   0   7 1419.23 87.6937   1
   4   0  -7 1484.74 87.2703   1
   4   0  -7 1436.06 86.8207   3
  -3   0   7 463.337 30.3701   1
   3   0  -7 470.758 29.3099   3
   3   0  -7 464.937 30.3566   1
   3   0  -7 466.776 29.5230   1
   2   0  -7 4004.06 243.449   1
   2   0  -7 3945.21 245.181   3
   2   0  -7 3963.20 244.408   1
  -2   0   7 4571.24 244.080   1
  -1   0   7 511.491 35.9238   1
   1   0  -7 582.642 35.9286   1
   1   0  -7 562.531 34.0165   1
   1   0  -7 561.889 33.8260   3
   0   0  -7 280.345 18.1542   1
   0   0   7 292.638 19.5241   1
  -1   0  -7 174.709 11.3417   1
   1   0   7 160.969 11.6472   1
  -2   0  -7 480.812 29.3170   1
   2   0   7 467.765 29.7779   1
   3   0   7 12.1322 3.20024   1
  -3   0  -7 13.1237 2.69094   1
  -4   0  -7 87.1803 7.35560   1
   4   0   7 89.8868 8.64976   1
   5   0   7 1024.11 63.5669   1
   6   0   7 38.4406 7.14733   1
   7   0   7 46.0120 8.71233   1
   7  -1  -7 201.834 16.1018   3
   7  -1  -7 202.531 16.6944   1
   7   1  -7 189.051 17.0067   3
   7   1  -7 208.474 17.9846   1
   6  -1  -7 8.31366 4.01521   1
   6  -1  -7 8.81527 3.93368   3
   6   1  -7 -1.1552 3.58937   1
   6   1  -7 1.21515 4.06988   3
   5  -1  -7 81.4552 7.60671   3
   5  -1  -7 79.0269 7.94678   1
  -5  -1   7 72.1813 9.48546   1
   5   1  -7 75.9828 8.31646   3
   5   1  -7 86.0903 9.20752   1
  -4  -1   7 268.417 19.4683   1
   4  -1  -7 255.386 17.0389   3
   4  -1  -7 259.466 17.3365   1
   4  -1  -7 254.562 18.2575   1
  -4   1   7 235.815 16.6980   1
   4   1  -7 257.799 17.8291   3
   4   1  -7 252.314 18.1320   1
   3  -1  -7 35.4213 4.27419   1
   3  -1  -7 30.9649 4.06335   3
  -3  -1   7 30.2410 5.81022   1
   3  -1  -7 33.1753 4.95590   1
   3   1  -7 40.9999 5.16525   3
   3   1  -7 41.7796 5.29717   1
  -3   1   7 42.6877 4.66874   1
   2  -1  -7 197.955 12.7685   1
   2  -1  -7 195.822 12.6185   3
  -2  -1   7 195.685 15.1123   1
   2  -1  -7 178.652 14.1622   1
   2   1  -7 188.258 13.1628   3
  -2   1   7 180.579 13.6848   1
   2   1  -7 199.408 13.5282   1
   1   1  -7 85.4158 6.83131   3
   1   1  -7 85.0722 7.02517   1
  -1   1   7 85.9594 8.53958   1
   0  -1   7 1020.21 65.7262   1
   0  -1   7 1091.73 68.0505   1
   0  -1  -7 1116.71 65.6503   1
   0   1   7 1155.40 66.5790   1
   0   1  -7 1143.07 65.9528   1
   0   1  -7 1079.44 65.6554   3
  -1  -1  -7 3922.56 234.883   1
   1  -1   7 3611.89 235.078   1
   1  -1   7 3976.89 236.556   1
  -1   1  -7 4045.73 236.059   1
   1   1   7 4093.70 235.946   1
  -1   1  -7 4170.08 236.602   3
   2  -1   7 1231.76 81.3613   1
   2  -1   7 1269.95 81.3451   1
  -2  -1  -7 1251.16 81.3164   1
   2   1   7 1465.22 81.9867   1
  -2   1  -7 1497.49 81.0823   3
  -2   1  -7 1460.93 81.2281   1
   3  -1   7 2242.43 123.351   1
  -3  -1  -7 2087.88 123.170   1
   3  -1   7 2011.86 123.360   1
  -3   1  -7 2026.15 122.527   1
   3   1   7 1998.10 123.668   1
  -4  -1  -7 576.157 33.7556   1
   4  -1   7 552.066 33.9777   1
   4   1   7 467.030 34.1952   1
   5  -1   7 296.996 21.7685   1
  -5  -1  -7 287.381 22.8578   1
   5   1   7 366.650 23.2226   1
   6  -1   7 128.293 11.7839   1
   6   1   7 104.781 12.3466   1
   7  -1   7 14.3374 5.86302   1
   7   1   7 27.3194 7.53490   1
   7  -2  -7 36.1383 6.25353   3
   7  -2  -7 35.5409 6.36819   1
   7   2  -7 16.7551 6.84799   1
   6  -2  -7 226.403 16.8269   3
   6  -2  -7 240.046 17.3696   1
   6   2  -7 247.345 19.0809   3
   6   2  -7 247.496 19.7890   1
   5  -2  -7 875.070 50.3363   3
  -5  -2   7 846.862 54.0302   1
   5  -2  -7 882.129 50.7262   1
   5   2  -7 735.828 52.2316   1
   5   2  -7 760.446 51.8302   3
  -4  -2   7 823.688 56.2126   1
   4  -2  -7 876.588 54.0062   1
   4  -2  -7 778.655 52.6897   3
   4  -2  -7 794.171 52.8979   1
   4   2  -7 991.640 55.4942   1
   4   2  -7 1031.96 55.0090   3
  -3  -2   7 1271.64 75.9831   1
   3  -2  -7 1294.81 72.5486   1
   3  -2  -7 1200.66 73.8200   1
   3   2  -7 1152.32 73.6451   3
   3   2  -7 1165.44 74.0819   1
   2  -2  -7 1477.46 83.7940   1
  -2  -2   7 1384.58 86.9187   1
   2  -2  -7 1476.66 85.8559   1
   2   2  -7 1357.04 85.0453   1
   2   2  -7 1372.04 84.7428   3
  -1  -2   7 1433.12 88.5058   1
   1  -2  -7 1392.75 85.6123   1
   1  -2  -7 1457.82 86.4821   1
   1   2  -7 1475.73 86.4565   1
   1   2  -7 1463.11 86.1695   3
  -1   2   7 1440.32 87.6307   1
   0  -2  -7 185.739 12.5009   1
   0  -2   7 173.938 14.8804   1
   0  -2   7 181.615 12.1087   1
   1  -2   7 256.140 18.4909   1
   1  -2   7 272.231 17.0545   1
  -1  -2  -7 260.496 17.5122   1
   1  -2   7 261.561 16.8625   3
   1   2   7 254.586 17.5008   1
  -1   2  -7 259.594 16.9610   1
  -1   2  -7 268.321 16.8086   3
  -2  -2  -7 241.245 16.0081   1
   2  -2   7 231.336 15.4372   1
   2  -2   7 210.666 15.0696   1
   2   2   7 224.398 15.8819   1
  -2   2  -7 227.183 14.5697   3
   3  -2   7 199.172 13.7999   1
  -3  -2  -7 198.012 14.5450   1
   3  -2   7 205.568 13.8694   1
   3   2   7 193.212 14.7631   1
  -3   2  -7 191.376 12.5487   1
   4  -2   7 56.8240 6.26799   1
  -4  -2  -7 63.7026 7.21549   1
   4   2   7 37.7796 6.77668   1
   5  -2   7 22.0064 4.67784   1
  -5  -2  -7 20.4933 4.91644   1
   6  -2   7 278.194 19.3540   1
   6   2   7 235.228 20.6766   1
   7  -3  -7 3.14161 3.80136   1
   7  -3  -7 5.43802 3.68207   3
   7   3  -7 8.23168 6.74409   1
   6  -3  -7 79.4881 8.21518   1
  -6  -3   7 87.8521 11.8250   1
   6  -3  -7 74.0412 7.70746   3
  -6  -3   7 84.1126 13.2810   1
   6   3  -7 102.553 12.0339   1
   6   3  -7 101.383 11.2107   3
  -5  -3   7 418.353 29.9591   1
   5  -3  -7 398.975 24.6931   1
   5  -3  -7 415.084 24.5237   3
   5   3  -7 337.068 26.6138   3
   5   3  -7 337.204 27.2401   1
   4  -3  -7 52.6291 5.18616   1
   4  -3  -7 50.8386 6.43909   1
   4  -3  -7 53.4901 5.09832   3
  -4  -3   7 50.5366 9.02806   1
   4   3  -7 69.3884 8.60987   3
   4   3  -7 41.6360 7.00930   1
  -3  -3   7 303.521 22.2485   1
   3  -3  -7 278.600 19.5685   1
   3  -3  -7 284.468 17.5460   1
   3   3  -7 267.433 19.4713   3
   3   3  -7 262.351 19.8896   1
   2  -3  -7 115.983 9.46858   1
  -2  -3   7 126.666 12.8968   1
   2  -3  -7 132.748 10.5557   1
   2   3  -7 167.629 11.7425   1
   2   3  -7 165.314 11.2446   3
  -1  -3   7 124.047 12.9316   1
   1  -3  -7 131.217 10.3697   1
   1  -3  -7 137.578 10.4998   1
   1   3  -7 157.498 10.9905   3
   1   3  -7 158.825 11.3088   1
  -1   3   7 163.628 12.0245   1
   0  -3   7 760.280 47.6291   1
   0  -3   7 734.157 50.4204   1
   0  -3  -7 775.253 48.1204   1
   0   3   7 838.274 48.2405   1
   0   3  -7 800.996 47.7807   3
   0   3  -7 801.727 48.0546   1
   1  -3   7 2479.17 143.947   1
   1  -3   7 2522.99 147.209   1
   1  -3   7 2469.18 143.779   3
  -1  -3  -7 2572.71 145.162   1
   1   3   7 2431.96 144.779   1
  -1   3  -7 2269.32 143.705   3
  -1   3  -7 2349.11 143.912   1
  -2  -3  -7 865.478 54.6431   1
   2  -3   7 913.472 53.4917   1
   2  -3   7 811.803 54.4433   1
   2   3   7 922.497 54.6384   1
  -2   3  -7 902.785 52.3992   1
  -3  -3  -7 1218.47 76.3587   1
   3  -3   7 1245.22 75.1983   1
   3  -3   7 1132.05 74.8451   1
   3   3   7 1417.69 76.8985   1
  -4  -3  -7 657.956 40.6163   1
   4  -3   7 630.958 38.7889   1
   4   3   7 576.889 40.4036   1
   5  -3   7 135.112 11.4690   1
  -5  -3  -7 136.374 13.1430   1
   5   3   7 172.476 14.7931   1
   6  -3   7 93.8587 9.16705   1
   6   3   7 65.7788 10.9613   1
   7  -4  -7 67.0065 7.91056   1
   7  -4  -7 67.5772 7.53262   3
   7   4  -7 88.8316 13.6436   1
  -6  -4   7 145.934 16.2099   1
  -6  -4   7 170.429 18.6295   1
   6  -4  -7 161.602 12.2744   1
   6  -4  -7 160.466 11.8185   3
   6   4  -7 163.233 16.7409   1
   5  -4  -7 266.472 17.2158   1
  -5  -4   7 292.029 24.2409   1
   5  -4  -7 255.889 16.9655   3
   5   4  -7 236.531 20.8828   1
  -4  -4   7 778.031 53.4158   1
   4  -4  -7 749.247 47.3651   1
   4   4  -7 841.001 51.4718   1
   4   4  -7 809.731 50.5810   3
   3  -4  -7 791.805 47.8556   1
   3  -4  -7 816.768 48.8479   1
  -3  -4   7 791.413 52.9877   1
   3   4  -7 831.366 50.9138   1
   3   4  -7 743.404 49.9434   3
  -2  -4   7 622.182 43.4460   1
   2  -4  -7 674.539 39.6095   1
   2  -4  -7 641.646 39.6731   1
   2   4  -7 626.943 41.1753   1
   2   4  -7 645.092 40.8199   3
   1  -4  -7 515.419 35.4623   1
   1  -4  -7 534.061 35.5884   1
  -1  -4   7 577.080 38.9853   1
   1   4  -7 605.110 36.1932   3
   1   4  -7 638.760 36.7351   1
   0  -4   7 82.7979 10.6639   1
   0  -4  -7 101.892 8.78554   1
   0   4  -7 88.7854 7.62842   3
   0   4  -7 94.9258 7.99960   1
   0   4   7 100.305 8.21677   1
   1  -4   7 206.438 13.9787   1
  -1  -4  -7 196.831 15.3301   1
   1  -4   7 180.986 16.9812   1
   1  -4   7 188.938 13.6142   3
  -1   4  -7 217.417 13.5797   1
   1   4   7 237.263 15.1713   1
   2  -4   7 68.8380 9.70761   1
  -2  -4  -7 75.3470 8.64232   1
   2  -4   7 78.6827 6.19811   3
   2  -4   7 75.4404 6.28903   1
   2   4   7 64.3749 7.61947   1
   3  -4   7 163.997 13.2674   1
  -3  -4  -7 151.348 13.7229   1
   3   4   7 147.820 13.2898   1
   4  -4   7 96.1453 9.54617   1
  -4  -4  -7 108.616 11.7090   1
   4   4   7 122.138 11.8149   1
  -5  -4  -7 82.4261 11.0548   1
   5  -4   7 83.0761 8.42003   1
   5   4   7 67.4198 10.3717   1
   6  -4   7 138.619 11.6373   1
   6   4   7 108.485 14.5582   1
  -6  -5   7 74.4531 14.2955   1
   6  -5  -7 71.9569 6.88471   3
  -6  -5   7 73.9259 12.7125   1
   6  -5  -7 71.0735 7.24187   1
   6   5  -7 95.5045 13.9126   1
   5  -5  -7 20.8200 3.56209   1
   5  -5  -7 15.6227 3.21761   3
  -5  -5   7 15.3919 8.46044   1
   5   5  -7 26.1648 7.60444   1
  -4  -5   7 110.471 15.6811   1
   4  -5  -7 100.148 7.31957   1
   4   5  -7 63.3343 10.5765   1
  -3  -5   7 257.818 22.4323   1
   3  -5  -7 252.816 16.5746   1
   3   5  -7 231.139 19.3127   1
  -2  -5   7 142.510 15.2752   1
   2  -5  -7 132.337 10.9385   1
   2   5  -7 154.109 12.8040   1
   1  -5  -7 113.796 10.0265   1
  -1  -5   7 118.560 13.3849   1
   1   5  -7 117.033 10.2911   1
   0  -5   7 455.016 31.9439   1
   0  -5  -7 429.580 29.0956   1
   0   5   7 432.858 28.3920   1
   0   5  -7 449.890 28.2371   1
   1  -5   7 578.936 42.4532   1
  -1  -5  -7 641.105 41.3019   1
   1   5   7 689.629 40.5961   1
  -2  -5  -7 480.973 32.7001   1
   2  -5   7 504.778 33.8559   1
   2   5   7 462.018 31.5947   1
  -3  -5  -7 976.290 64.0342   1
   3  -5   7 1010.90 64.6143   1
   3   5   7 1046.38 63.5204   1
  -4  -5  -7 164.298 16.3165   1
   4  -5   7 179.754 15.9050   1
   4   5   7 182.353 16.0128   1
  -5  -5  -7 266.071 22.7998   1
   5  -5   7 302.269 21.4857   1
   5   5   7 280.224 23.0669   1
  -5  -6   7 69.9621 14.4034   1
   5  -6  -7 66.1901 6.04874   1
   5   6  -7 55.6463 10.8111   1
  -4  -6   7 548.900 41.7017   1
   4  -6  -7 530.397 33.3771   1
   4   6  -7 549.668 38.1176   1
   3  -6  -7 252.818 17.7735   1
  -3  -6   7 234.901 23.6563   1
   3   6  -7 284.650 21.0341   1
  -2  -6   7 423.206 33.0754   1
   2  -6  -7 427.002 28.0267   1
  -1  -6   7 141.140 15.5607   1
   1  -6  -7 130.388 11.6963   1
   0  -6   7 287.409 23.7050   1
   0  -6  -7 288.680 21.1904   1
   1  -6   7 70.6547 10.6598   1
  -1  -6  -7 59.3266 8.92188   1
   2  -6   7 11.1360 5.99342   1
  -2  -6  -7 7.93772 5.43509   1
  -3  -6  -7 11.1503 6.32613   1
   3  -6   7 12.1245 6.25766   1
   3   6   7 20.1569 5.76788   1
  -4  -6  -7 9.33403 6.78263   1
   4  -6   7 5.62144 6.15214   1
   4   6   7 0.44005 4.84288   1
  -4  -7   7 6.73440 9.25546   1
   4  -7  -7 17.3801 4.15112   1
   3  -7  -7 11.8009 4.30750   1
  -3  -7   7 8.38530 8.36811   1
   2  -7  -7 13.4448 4.88569   1
  -2  -7   7 4.28865 7.32611   1
  -1  -7   7 83.4826 13.6678   1
   1  -7  -7 81.3131 10.1923   1
   0  -7  -7 223.134 18.5106   1
   0  -7   7 225.301 21.1289   1
  -1  -7  -7 258.868 21.1635   1
   1  -7   7 251.400 22.3496   1
   2  -7   7 412.420 31.5678   1
  -2  -7  -7 433.814 31.3243   1
   3  -7   7 243.387 21.2776   1
  -3  -7  -7 255.087 22.1709   1
  -2  -8   7 65.1378 13.7367   1
   2  -8  -7 55.0018 8.77177   1
   1  -8  -7 159.968 15.3488   1
  -1  -8   7 147.574 19.8881   1
   0  -8   7 65.9112 12.5517   1
   0  -8  -7 71.2579 10.7450   1
   1  -8   7 5.00918 7.14131   1
  -1  -8  -7 10.3348 6.76046   1
   7   0  -8 54.0786 8.55731   3
   7   0  -8 45.1423 8.31079   1
   6   0  -8 201.443 15.9280   3
   6   0  -8 205.005 16.6719   1
   5   0  -8 1263.15 77.6231   1
  -5   0   8 1279.50 77.8589   1
   5   0  -8 1260.78 77.1600   3
  -4   0   8 330.435 23.5909   1
   4   0  -8 348.214 23.1049   1
   4   0  -8 341.803 22.6111   3
   3   0  -8 481.283 30.4905   3
  -3   0   8 507.909 32.0423   1
   3   0  -8 466.158 30.7242   1
   2   0  -8 965.720 58.4022   1
   2   0  -8 941.737 58.1342   3
  -2   0   8 995.257 60.3227   1
   1   0  -8 1415.91 81.2917   1
  -1   0   8 1278.51 83.5957   1
   1   0  -8 1373.24 81.0233   3
   0   0  -8 562.031 32.2972   1
   0   0   8 475.242 33.5243   1
   1   0   8 5.65689 2.30026   1
  -1   0  -8 6.97451 2.04814   1
  -2   0  -8 1067.56 63.0338   1
   2   0   8 1032.33 63.5939   1
  -3   0  -8 1280.32 76.5870   1
   3   0   8 1280.12 77.3632   1
  -4   0  -8 303.678 19.6713   1
   4   0   8 293.596 20.6908   1
   5   0   8 15.4106 4.79347   1
   6   0   8 336.604 24.6033   1
   7  -1  -8 0.98970 4.16567   3
   7  -1  -8 0.13228 4.30867   1
   7   1  -8 -1.9474 4.85016   1
   7   1  -8 0.00806 4.91050   3
   6  -1  -8 175.504 14.8533   1
   6  -1  -8 180.103 14.4080   3
   6   1  -8 186.480 16.0282   1
   6   1  -8 188.267 15.5448   3
   5  -1  -8 117.764 10.6073   3
  -5  -1   8 116.056 12.5084   1
   5  -1  -8 138.353 11.4040   1
   5   1  -8 150.076 12.5079   1
   5   1  -8 132.407 11.5395   3
  -4  -1   8 345.093 25.5028   1
   4  -1  -8 343.641 24.3327   1
   4  -1  -8 314.402 22.9695   3
   4  -1  -8 331.706 23.3578   1
   4   1  -8 391.273 24.1549   3
   4   1  -8 427.783 24.8964   1
  -3  -1   8 1444.62 85.3998   1
   3  -1  -8 1491.10 82.8809   1
   3  -1  -8 1434.60 82.5648   3
   3  -1  -8 1424.81 84.1753   1
   3   1  -8 1263.21 83.1099   3
   3   1  -8 1344.04 83.6541   1
  -3   1   8 1290.49 83.3360   1
  -2  -1   8 241.499 19.7143   1
   2  -1  -8 224.427 18.9089   1
   2  -1  -8 254.205 17.3001   1
   2  -1  -8 246.382 17.1379   3
  -2   1   8 320.046 19.4589   1
   2   1  -8 331.972 18.3254   3
   1  -1  -8 1818.84 105.317   1
   1  -1  -8 1872.90 103.707   1
  -1  -1   8 1635.56 106.502   1
  -1   1   8 1704.14 106.226   1
   1   1  -8 1723.34 103.954   3
   1   1  -8 1734.75 104.215   1
   0  -1   8 1983.65 120.526   1
   0  -1  -8 1915.41 117.711   1
   0   1   8 2013.61 118.950   1
   0   1  -8 2083.08 117.895   3
   0   1  -8 1960.62 118.047   1
  -1  -1  -8 2139.81 125.406   1
   1  -1   8 2109.67 126.214   1
  -1   1  -8 2078.92 125.410   1
  -1   1  -8 2171.99 125.254   3
   1   1   8 2094.27 125.830   1
  -2  -1  -8 665.013 43.9704   1
   2  -1   8 658.952 44.1505   1
  -2   1  -8 750.602 43.7704   3
   2   1   8 746.353 44.6862   1
  -2   1  -8 787.893 44.0679   1
  -3  -1  -8 188.135 14.1532   1
   3  -1   8 203.823 14.5314   1
   3   1   8 207.023 14.9984   1
  -3   1  -8 214.855 13.9214   1
  -4  -1  -8 267.730 17.8253   1
   4  -1   8 269.877 18.3095   1
  -4   1  -8 245.712 17.6078   1
   4   1   8 254.663 18.7614   1
   5  -1   8 162.182 13.2887   1
   5   1   8 157.701 13.8744   1
   6  -1   8 96.6779 10.4039   1
   6   1   8 82.0321 10.7837   1
   7  -2  -8 258.608 19.8215   3
   7  -2  -8 260.813 20.4845   1
   7   2  -8 296.258 23.5682   1
   7   2  -8 300.221 22.4470   3
   6  -2  -8 292.131 21.6802   1
   6  -2  -8 291.234 21.2292   3
   6   2  -8 343.415 24.6203   1
   6   2  -8 344.930 23.9376   3
  -5  -2   8 508.608 33.2568   1
   5  -2  -8 484.756 29.1424   3
   5  -2  -8 474.505 29.4924   1
   5   2  -8 397.957 30.4157   3
   5   2  -8 402.751 30.9546   1
   4  -2  -8 607.491 39.8028   3
   4  -2  -8 649.494 40.0838   1
   4  -2  -8 656.826 41.4012   1
  -4  -2   8 685.418 43.9756   1
   4   2  -8 649.153 42.0522   1
   4   2  -8 673.728 41.6516   3
   3  -2  -8 220.089 14.1592   1
  -3  -2   8 237.280 17.9924   1
   3  -2  -8 191.705 15.6582   1
  -3   2   8 206.841 13.8341   1
   3   2  -8 206.230 15.7274   1
   3   2  -8 211.638 15.3988   3
   2  -2  -8 265.845 17.7316   1
  -2  -2   8 278.362 21.3958   1
   2  -2  -8 284.406 19.8219   1
  -2   2   8 272.373 19.0035   1
   2   2  -8 297.744 18.9924   3
   2   2  -8 284.458 19.2499   1
   1  -2  -8 13.8092 3.29748   1
   1  -2  -8 12.4051 2.56394   1
  -1  -2   8 12.0985 4.83206   1
   1   2  -8 14.1278 3.22289   1
  -1   2   8 13.2108 4.16971   1
   1   2  -8 15.0872 3.13263   3
   0  -2   8 318.018 23.5632   1
   0   2   8 312.787 21.1420   1
   0   2  -8 324.404 20.8109   1
   0   2  -8 318.987 20.5365   3
   1  -2   8 397.760 25.1952   1
  -1  -2  -8 354.474 23.4456   1
   1  -2   8 381.868 23.2306   1
  -1   2  -8 343.578 23.0401   1
   1   2   8 354.862 23.5893   1
  -1   2  -8 355.331 22.9065   3
   2  -2   8 713.636 47.1771   1
  -2  -2  -8 791.927 47.7935   1
   2  -2   8 799.918 47.7251   1
  -2   2  -8 803.937 46.8708   1
   2   2   8 757.482 47.8211   1
   3  -2   8 526.964 29.2718   1
   3  -2   8 480.903 29.1698   1
  -3  -2  -8 520.669 29.8414   1
  -3   2  -8 418.661 27.7741   1
  -3   2  -8 407.154 27.7063   3
   3   2   8 387.963 29.3604   1
   4  -2   8 410.680 27.1064   1
  -4  -2  -8 385.153 27.4565   1
   4   2   8 456.046 28.5721   1
   5  -2   8 311.892 21.7578   1
  -5  -2  -8 334.619 22.2787   1
   5   2   8 293.022 22.9769   1
   6  -2   8 243.062 17.6485   1
   6   2   8 206.760 18.9719   1
   7  -3  -8 46.9431 6.88350   3
   7  -3  -8 54.9587 7.68878   1
   7   3  -8 50.8441 10.4603   1
  -6  -3   8 41.2159 10.0276   1
   6  -3  -8 45.5820 6.45084   1
   6  -3  -8 50.5816 6.42784   3
   6   3  -8 38.9884 8.37768   3
   6   3  -8 45.7181 9.39486   1
  -5  -3   8 848.616 53.0322   1
   5  -3  -8 742.660 47.1345   3
   5  -3  -8 750.570 47.4254   1
   5   3  -8 778.890 50.6901   1
   5   3  -8 771.722 49.9698   3
  -4  -3   8 10.2988 5.81984   1
   4  -3  -8 5.52288 2.50152   1
   4  -3  -8 6.21254 2.46589   3
   4   3  -8 15.9022 5.16599   3
   4   3  -8 12.8752 4.57607   1
  -3  -3   8 789.516 54.0422   1
   3  -3  -8 796.346 49.5198   1
   3  -3  -8 837.119 51.7556   1
   3   3  -8 830.962 51.6037   3
   3   3  -8 875.413 52.3699   1
   2  -3  -8 551.425 34.5813   1
   2  -3  -8 532.462 35.6019   1
  -2  -3   8 568.301 38.7925   1
  -2   3   8 576.363 34.8544   1
   2   3  -8 572.721 36.4120   1
   2   3  -8 598.126 36.0642   3
   1  -3  -8 696.552 41.5188   1
  -1  -3   8 696.935 44.7590   1
   1  -3  -8 726.907 41.2096   1
   1   3  -8 666.867 41.5146   3
   1   3  -8 610.090 41.6485   1
  -1   3   8 615.522 42.4970   1
   0  -3   8 1564.40 109.318   1
   0  -3  -8 1713.70 106.831   1
   0   3   8 1904.23 107.265   1
   0   3  -8 1846.43 106.677   3
   0   3  -8 1909.20 107.048   1
  -1  -3  -8 887.669 53.9406   1
   1  -3   8 857.543 56.1836   1
   1  -3   8 835.945 52.8685   1
   1  -3   8 876.247 52.7364   3
  -1   3  -8 933.987 53.1062   1
   1   3   8 858.510 53.7093   1
  -2  -3  -8 239.623 19.2621   1
   2  -3   8 248.129 19.6884   1
   2  -3   8 262.717 18.3398   1
   2   3   8 311.370 19.6942   1
  -2   3  -8 308.953 17.6871   1
  -2   3  -8 290.412 18.4274   3
   3  -3   8 1046.40 62.4608   1
  -3  -3  -8 1072.17 63.4503   1
   3   3   8 945.969 62.9950   1
   4  -3   8 49.3860 6.34942   1
  -4  -3  -8 55.5550 8.11226   1
   4   3   8 41.5107 7.27733   1
   5  -3   8 32.2616 5.40873   1
  -5  -3  -8 24.2522 6.00591   1
   5   3   8 8.80242 5.51552   1
   6  -3   8 82.2509 9.72242   1
   6   3   8 95.6652 12.3300   1
   6  -4  -8 182.414 13.9961   3
  -6  -4   8 196.165 20.9499   1
   6  -4  -8 201.888 14.6084   1
   6   4  -8 213.016 19.2163   1
  -5  -4   8 342.210 27.4832   1
   5  -4  -8 305.883 20.2680   3
   5  -4  -8 329.602 20.6760   1
   5   4  -8 314.551 24.5603   1
   5   4  -8 286.569 23.3899   3
  -4  -4   8 767.048 50.5963   1
   4  -4  -8 694.150 43.8386   1
   4   4  -8 749.069 47.8571   1
   4   4  -8 716.601 46.9298   3
  -3  -4   8 88.3918 12.4750   1
   3  -4  -8 97.0841 7.43552   1
   3   4  -8 86.3699 10.1579   1
   3   4  -8 90.5025 9.71570   3
   2  -4  -8 72.0203 7.04585   1
  -2  -4   8 72.1544 11.0098   1
   2  -4  -8 75.8283 6.94789   1
   2   4  -8 82.8869 8.22373   3
   2   4  -8 75.6560 8.59342   1
   1  -4  -8 17.2603 3.58405   1
  -1  -4   8 17.4284 6.26909   1
   1  -4  -8 15.2208 3.65843   1
   1   4  -8 16.8205 3.89891   3
   1   4  -8 22.8118 4.50269   1
  -1   4   8 21.4816 4.63034   1
   0  -4   8 166.424 15.6067   1
   0  -4  -8 185.857 12.8107   1
   0   4   8 159.414 12.4417   1
   0   4  -8 159.288 12.2098   1
   0   4  -8 149.400 11.7655   3
  -1  -4  -8 299.669 20.5495   1
   1  -4   8 302.984 18.8888   3
   1  -4   8 283.129 19.0322   1
   1  -4   8 286.808 22.8311   1
   1   4   8 297.834 20.0883   1
  -1   4  -8 278.620 18.6782   3
   2  -4   8 646.444 45.7560   1
  -2  -4  -8 695.591 44.4216   1
   2   4   8 736.400 44.1466   1
   3  -4   8 422.120 29.7845   1
  -3  -4  -8 449.129 29.9983   1
   4  -4   8 311.419 23.2177   1
  -4  -4  -8 330.130 24.7526   1
   4   4   8 379.673 25.1632   1
  -5  -4  -8 155.129 15.0177   1
   5  -4   8 143.067 12.5711   1
   5   4   8 140.805 14.6375   1
   6  -4   8 232.725 17.3237   1
   6   4   8 203.471 19.8249   1
   6  -5  -8 47.3121 5.70170   3
  -6  -5   8 40.2404 11.6257   1
   6  -5  -8 44.5170 5.86466   1
   6   5  -8 41.8544 9.70027   1
   5  -5  -8 97.9120 8.38003   1
  -5  -5   8 91.8669 15.5195   1
   5  -5  -8 92.3791 8.08883   3
   5   5  -8 148.099 14.5958   1
  -4  -5   8 222.109 21.4522   1
   4  -5  -8 216.265 13.7406   1
   4   5  -8 162.403 17.0807   1
   3  -5  -8 320.114 20.9942   1
  -3  -5   8 304.703 26.9224   1
   3   5  -8 337.798 24.0976   1
   2  -5  -8 365.751 23.6502   1
  -2  -5   8 384.109 28.8078   1
   2   5  -8 341.957 24.4730   3
   2   5  -8 346.551 25.1438   1
   1  -5  -8 528.407 34.5454   1
  -1  -5   8 558.761 38.6690   1
   1   5  -8 537.637 35.0364   1
   0  -5  -8 477.591 30.6573   1
   0  -5   8 473.822 33.7880   1
   0   5   8 458.291 30.0890   1
   0   5  -8 444.537 30.0478   1
  -1  -5  -8 397.376 27.6645   1
   1  -5   8 398.414 29.7077   1
   1   5   8 413.802 26.9290   1
  -2  -5  -8 707.878 46.2150   1
   2  -5   8 698.451 47.6234   1
   2   5   8 728.500 45.4914   1
  -3  -5  -8 19.5007 6.58890   1
   3  -5   8 29.0968 7.67512   1
   3   5   8 38.2234 6.94462   1
  -4  -5  -8 119.385 13.2383   1
   4  -5   8 128.165 13.5591   1
   4   5   8 99.5485 12.1297   1
   5  -5   8 12.9666 5.99755   1
  -5  -5  -8 22.9094 7.48867   1
   5   5   8 7.85738 6.09235   1
  -5  -6   8 116.255 18.2738   1
   5  -6  -8 103.858 8.32378   1
   5   6  -8 86.2905 13.1223   1
  -4  -6   8 203.368 22.0212   1
   4  -6  -8 184.957 13.4024   1
   4   6  -8 198.223 18.0587   1
   3  -6  -8 50.9468 6.31557   1
  -3  -6   8 51.6854 11.9521   1
   3   6  -8 34.2204 7.58249   1
  -2  -6   8 82.3483 13.7849   1
   2  -6  -8 75.5799 8.40566   1
  -1  -6   8 100.352 14.1816   1
   1  -6  -8 87.0706 9.55826   1
   0  -6  -8 68.7790 9.13698   1
   0  -6   8 86.1570 12.8545   1
   1  -6   8 171.403 16.9473   1
  -1  -6  -8 156.890 14.5720   1
  -2  -6  -8 346.252 25.4400   1
   2  -6   8 324.040 26.1675   1
  -3  -6  -8 175.005 16.7727   1
   3  -6   8 151.893 16.6421   1
  -4  -6  -8 408.017 29.8962   1
   4  -6   8 371.811 29.4379   1
   4   6   8 376.227 28.3785   1
  -4  -7   8 152.080 21.5637   1
   4  -7  -8 144.585 11.7028   1
  -3  -7   8 49.8758 13.2304   1
   3  -7  -8 54.9777 7.51968   1
  -2  -7   8 169.504 20.4166   1
   2  -7  -8 174.661 14.6294   1
  -1  -7   8 340.466 28.9318   1
   1  -7  -8 333.097 24.3947   1
   0  -7  -8 229.204 18.6073   1
   0  -7   8 214.612 21.5020   1
   1  -7   8 188.027 18.8673   1
  -1  -7  -8 179.622 16.7527   1
   2  -7   8 277.478 24.1430   1
  -2  -7  -8 281.329 23.1564   1
   3  -7   8 11.5001 7.40958   1
  -3  -7  -8 27.2427 8.49351   1
  -1  -8   8 10.5425 8.50286   1
   1  -8  -8 3.68012 5.55784   1
   0  -8  -8 41.5867 8.68108   1
   0  -8   8 29.5387 10.8783   1
   7   0  -9 143.724 14.4629   3
   7   0  -9 162.189 15.4782   1
   6   0  -9 5.37178 4.19360   3
   6   0  -9 6.44649 4.63027   1
   5   0  -9 183.986 14.5539   1
  -5   0   9 174.466 14.8131   1
   5   0  -9 175.384 14.1211   3
   4   0  -9 209.284 15.9089   1
  -4   0   9 223.676 16.8597   1
   4   0  -9 207.933 15.4901   3
  -3   0   9 8.11843 3.76676   1
   3   0  -9 3.22804 2.61937   1
   3   0  -9 4.02236 2.59414   3
  -2   0   9 1228.62 78.8654   1
   2   0  -9 1298.17 76.5415   3
   2   0  -9 1302.74 76.8030   1
   1   0  -9 41.7495 4.67447   1
  -1   0   9 37.5914 6.98098   1
   1   0  -9 41.4642 4.44241   3
   0   0   9 4978.19 293.663   1
   0   0  -9 4953.59 296.122   1
  -1   0  -9 1838.80 107.556   1
   1   0   9 1782.59 108.321   1
   2   0   9 763.884 46.7133   1
  -2   0  -9 747.930 45.9771   1
   3   0   9 503.276 33.3606   1
  -3   0  -9 540.578 32.6605   1
   4   0   9 6.84395 3.56896   1
  -4   0  -9 4.68214 2.65025   1
   5   0   9 161.865 13.7407   1
   6   0   9 5.18886 4.65074   1
   7  -1  -9 142.829 14.5200   1
   7  -1  -9 142.126 14.0103   3
   7   1  -9 181.614 16.4998   1
   7   1  -9 170.734 15.5218   3
   6  -1  -9 732.692 44.1449   3
   6  -1  -9 722.115 44.7170   1
   6   1  -9 657.159 45.5632   1
   6   1  -9 640.939 44.6959   3
   5  -1  -9 406.180 27.6895   1
  -5  -1   9 381.062 29.2780   1
   5  -1  -9 399.046 27.2242   3
   5   1  -9 458.103 28.5736   3
   5   1  -9 423.117 28.7569   1
  -4  -1   9 420.875 27.6475   1
   4  -1  -9 358.357 24.3582   3
   4  -1  -9 381.511 26.0084   1
   4  -1  -9 361.741 24.7096   1
   4   1  -9 371.554 25.1698   3
   4   1  -9 370.626 25.6387   1
   3  -1  -9 860.284 56.1773   3
   3  -1  -9 912.523 56.5153   1
  -3  -1   9 949.712 59.4755   1
   3  -1  -9 836.927 57.9744   1
  -3   1   9 973.561 57.8720   1
   3   1  -9 1006.35 57.4047   3
   3   1  -9 995.835 57.7875   1
   2  -1  -9 282.124 22.9508   1
   2  -1  -9 291.581 20.3472   3
  -2  -1   9 301.328 23.4960   1
   2  -1  -9 296.426 20.5223   1
   2   1  -9 370.115 21.4940   3
  -2   1   9 336.303 22.8018   1
   2   1  -9 371.450 21.8421   1
  -1  -1   9 522.161 31.2114   1
   1   1  -9 414.617 27.1467   3
   1   1  -9 382.741 27.2458   1
  -1   1   9 438.190 29.8985   1
   0  -1  -9 112.139 8.95973   1
   0  -1   9 112.595 11.6431   1
   0   1  -9 126.841 9.25773   3
   0   1  -9 128.322 9.45629   1
   0   1   9 136.876 10.7873   1
  -1  -1  -9 40.8480 4.66521   1
   1  -1   9 41.7865 5.91756   1
  -1   1  -9 36.5934 4.67692   1
  -1   1  -9 35.6234 4.28608   3
   1   1   9 43.9685 5.27745   1
   2  -1   9 56.8791 6.15430   1
  -2  -1  -9 51.8911 5.68331   1
  -2   1  -9 52.1729 5.18420   3
   2   1   9 56.0490 6.28598   1
  -2   1  -9 54.0466 5.48767   1
  -3   1  -9 99.8916 7.71612   3
   3   1   9 86.9129 8.73213   1
  -3   1  -9 97.6435 7.93267   1
  -4  -1  -9 441.250 28.4615   1
   4  -1   9 444.271 28.9648   1
   4   1   9 433.188 29.3637   1
   5  -1   9 715.039 45.6398   1
   5   1   9 720.827 46.2958   1
   6  -1   9 165.685 14.3066   1
   6   1   9 150.455 15.0306   1
   7  -2  -9 14.4382 5.55431   1
   7  -2  -9 13.3505 5.23329   3
   7   2  -9 26.9493 7.96812   1
   7   2  -9 30.8934 8.19294   3
   6  -2  -9 101.965 9.40351   3
   6  -2  -9 91.5859 9.88642   1
   6   2  -9 68.0664 10.7375   1
   6   2  -9 85.5961 11.5950   3
  -5  -2   9 476.664 33.2065   1
   5  -2  -9 436.728 29.2554   1
   5  -2  -9 451.532 28.9854   3
   5   2  -9 459.281 31.5347   1
   5   2  -9 422.145 30.4393   3
   4  -2  -9 183.753 15.2680   1
   4  -2  -9 202.247 13.6341   3
   4  -2  -9 190.681 13.8089   1
  -4  -2   9 206.509 17.7524   1
   4   2  -9 197.942 15.3551   3
   4   2  -9 185.845 15.6700   1
   3  -2  -9 38.8217 6.62884   1
   3  -2  -9 44.8592 4.79574   3
  -3  -2   9 52.1866 8.93825   1
   3  -2  -9 47.9143 5.01457   1
   2  -2  -9 453.313 30.4608   1
   2  -2  -9 470.933 32.4039   1
  -2  -2   9 432.864 34.0333   1
   2   2  -9 553.325 31.9806   3
  -2   2   9 515.781 32.4323   1
   2   2  -9 549.779 32.3993   1
  -1  -2   9 1876.72 123.638   1
   1  -2  -9 2013.44 120.229   1
  -1   2   9 2044.69 122.947   1
   1   2  -9 2095.86 121.305   1
   1   2  -9 2112.10 120.965   3
   0  -2  -9 1485.94 81.6732   1
   0  -2   9 1541.47 85.6960   1
   0   2   9 1264.58 82.3136   1
   0   2  -9 1206.51 81.4371   3
   0   2  -9 1343.03 81.9014   1
   1  -2   9 1044.77 67.4634   1
  -1  -2  -9 1092.16 65.7054   1
  -1   2  -9 1095.43 65.5629   1
   1   2   9 1094.76 66.0688   1
  -1   2  -9 1094.93 65.3137   3
  -2  -2  -9 671.920 45.8829   1
   2  -2   9 679.514 46.2403   1
  -2   2  -9 808.310 45.5634   1
   2   2   9 817.331 46.7108   1
   3  -2   9 697.760 44.2867   1
  -3  -2  -9 724.294 44.5714   1
   4  -2   9 156.663 13.1927   1
  -4  -2  -9 157.487 13.3574   1
   4   2   9 205.335 14.7905   1
   5  -2   9 99.4280 9.51632   1
  -5  -2  -9 88.7306 9.63829   1
   5   2   9 67.6547 10.1319   1
   6  -2   9 8.53552 4.75551   1
   6   2   9 3.35921 5.35602   1
   7  -3  -9 77.3885 9.25843   3
   7  -3  -9 75.4793 9.73348   1
   7   3  -9 86.6156 13.3029   1
   7   3  -9 100.563 12.9320   3
   6  -3  -9 521.155 32.4686   1
   6  -3  -9 495.496 31.8255   3
  -6  -3   9 502.044 42.6870   1
   6   3  -9 478.769 35.4807   1
   6   3  -9 464.997 34.4687   3
   5  -3  -9 216.480 15.6407   1
  -5  -3   9 223.260 20.9681   1
   5  -3  -9 218.175 15.3183   3
  -4  -3   9 478.471 34.3575   1
   4  -3  -9 458.633 28.7358   3
   4  -3  -9 469.267 28.9698   1
   4   3  -9 466.433 31.3238   3
   4   3  -9 431.467 31.6509   1
   3  -3  -9 970.742 54.8061   1
   3  -3  -9 952.387 56.9927   1
  -3  -3   9 947.535 60.0310   1
   3   3  -9 834.632 56.9610   1
   3   3  -9 838.408 56.4566   3
   2  -3  -9 186.953 13.6119   1
   2  -3  -9 175.943 12.2997   1
  -2  -3   9 185.096 17.0175   1
   2   3  -9 173.707 13.5909   3
   2   3  -9 168.716 13.9393   1
   1  -3  -9 234.173 18.6546   1
   1   3  -9 331.907 19.8935   3
  -1   3   9 304.962 21.3284   1
   1   3  -9 302.865 20.1123   1
   0  -3   9 109.355 12.8148   1
   0  -3  -9 112.565 9.92266   1
   0   3  -9 132.683 9.96045   3
   0   3   9 137.134 10.8232   1
   0   3  -9 141.387 10.4265   1
   1  -3   9 169.470 15.5735   1
  -1  -3  -9 155.537 12.7003   1
  -1   3  -9 174.037 12.1534   1
   1   3   9 171.968 12.8846   1
  -2   3  -9 38.4840 4.06228   3
   2   3   9 36.3941 5.51031   1
  -2   3  -9 27.8487 3.77737   1
   3  -3   9 397.496 26.4934   1
  -3  -3  -9 380.363 26.6815   1
   3   3   9 401.011 26.8865   1
   4  -3   9 165.680 13.6390   1
  -4  -3  -9 167.754 14.5033   1
   4   3   9 184.280 15.0435   1
  -5  -3  -9 356.858 24.9648   1
   5  -3   9 345.944 23.9701   1
   5   3   9 333.742 25.5203   1
   6  -3   9 267.634 20.6089   1
   6   3   9 292.700 23.0891   1
   6  -4  -9 114.756 10.3258   3
  -6  -4   9 140.054 18.8690   1
   6  -4  -9 117.543 10.7671   1
   6   4  -9 134.014 15.2138   1
  -5  -4   9 25.7966 9.15860   1
   5  -4  -9 26.4752 4.25199   3
   5  -4  -9 27.2412 4.57148   1
   5   4  -9 22.9833 7.49580   1
   5   4  -9 28.3388 7.07659   3
   4  -4  -9 157.646 11.0766   1
  -4  -4   9 168.546 17.9236   1
   4   4  -9 140.450 13.9941   3
   4   4  -9 154.043 14.8024   1
   3  -4  -9 20.0515 3.48083   1
  -3  -4   9 28.8432 8.34815   1
   3   4  -9 17.1342 5.38938   1
   3   4  -9 15.2281 5.09578   3
  -2  -4   9 224.179 19.9186   1
   2  -4  -9 219.443 15.3936   1
   2  -4  -9 215.630 14.8237   1
   2   4  -9 211.766 16.1451   3
  -2   4   9 199.419 13.7202   1
   2   4  -9 214.683 16.6448   1
  -1  -4   9 842.805 56.0134   1
   1  -4  -9 837.674 51.6279   1
   1   4  -9 856.005 52.6178   1
   1   4  -9 864.589 52.2016   3
  -1   4   9 797.456 52.9560   1
   0  -4   9 978.174 61.9373   1
   0  -4  -9 993.878 58.5453   1
   0   4   9 920.355 58.4840   1
   0   4  -9 916.059 58.1565   1
   0   4  -9 941.388 57.8953   3
  -1  -4  -9 792.678 51.1220   1
   1  -4   9 839.465 54.1893   1
   1   4   9 824.641 50.9502   1
  -2  -4  -9 756.836 48.2906   1
   2  -4   9 761.106 50.4740   1
   2   4   9 760.902 48.0178   1
  -3  -4  -9 282.771 20.3458   1
   3  -4   9 251.781 20.4484   1
   3   4   9 253.101 19.6438   1
  -4  -4  -9 76.7047 9.82081   1
   4  -4   9 76.2865 9.17647   1
   4   4   9 46.5038 8.40385   1
  -5  -4  -9 55.8960 9.28238   1
   5  -4   9 60.0360 8.42294   1
   5   4   9 66.4166 10.1492   1
   6  -5  -9 91.0159 9.25635   1
  -6  -5   9 121.136 18.8802   1
   6  -5  -9 97.6776 9.02591   3
   6   5  -9 115.765 15.3382   1
   5  -5  -9 289.825 19.0437   3
  -5  -5   9 307.060 27.9418   1
   5  -5  -9 293.278 19.2959   1
   5   5  -9 271.823 23.8462   1
  -4  -5   9 367.325 29.7640   1
   4  -5  -9 332.254 21.3005   1
   4   5  -9 308.135 25.2222   1
   3  -5  -9 166.741 13.2996   1
  -3  -5   9 165.275 19.6328   1
   3   5  -9 221.116 17.1136   1
   3   5  -9 212.287 16.2620   3
   2  -5  -9 77.6092 7.53022   1
  -2  -5   9 76.5478 12.6742   1
   2   5  -9 51.9775 8.33332   1
   2   5  -9 56.9333 8.08238   3
   1  -5  -9 263.782 19.7834   1
  -1  -5   9 283.000 24.3153   1
   1   5  -9 310.867 20.7720   1
   0  -5   9 109.244 13.5754   1
   0  -5  -9 112.665 10.3173   1
   0   5   9 104.174 10.1707   1
   1  -5   9 41.1335 9.14770   1
  -1  -5  -9 44.3118 7.27144   1
   1   5   9 49.4446 6.96950   1
   2  -5   9 143.959 15.1640   1
  -2  -5  -9 143.894 12.9784   1
   2   5   9 108.629 11.4797   1
  -3  -5  -9 175.513 17.1534   1
   3  -5   9 187.004 18.8286   1
   3   5   9 250.213 17.4730   1
   4  -5   9 190.172 17.4534   1
  -4  -5  -9 194.306 17.1930   1
   4   5   9 140.514 15.1517   1
   5  -5   9 244.531 21.0180   1
  -5  -5  -9 269.911 22.1305   1
   5   5   9 237.466 21.2378   1
  -5  -6   9 108.297 18.3096   1
   5  -6  -9 104.177 8.72741   1
   5   6  -9 87.4079 13.5054   1
   4  -6  -9 12.2999 3.60443   1
  -4  -6   9 11.6701 9.09282   1
   4   6  -9 5.24629 5.81121   1
   3  -6  -9 54.6301 6.86652   1
  -3  -6   9 43.6873 11.5617   1
   3   6  -9 32.3285 8.03126   1
   2  -6  -9 546.375 35.0392   1
  -2  -6   9 532.426 40.8809   1
   1  -6  -9 135.109 12.4593   1
  -1  -6   9 143.902 17.0253   1
   0  -6  -9 797.941 52.7725   1
   0  -6   9 878.158 57.1324   1
  -1  -6  -9 310.448 23.4549   1
   1  -6   9 318.630 26.1832   1
   2  -6   9 418.504 31.6640   1
  -2  -6  -9 415.210 30.0741   1
   3  -6   9 218.384 20.5636   1
  -3  -6  -9 217.878 19.2752   1
   4  -6   9 40.9971 10.2802   1
  -4  -6  -9 47.4760 9.74278   1
   4   6   9 66.1409 10.6326   1
  -3  -7   9 130.082 19.4312   1
   3  -7  -9 132.395 11.9468   1
  -2  -7   9 131.904 19.3686   1
   2  -7  -9 129.114 12.4328   1
  -1  -7   9 35.1022 10.7441   1
   1  -7  -9 37.9384 7.29413   1
   0  -7  -9 30.1525 7.27135   1
   0  -7   9 35.0947 10.2016   1
  -1  -7  -9 9.85098 5.92872   1
   1  -7   9 1.99735 7.08538   1
   2  -7   9 27.4587 9.24535   1
  -2  -7  -9 16.8129 7.33847   1
   7   0 -10 291.817 21.8219   3
   7   0 -10 258.282 22.3599   1
   6   0 -10 5.07914 4.83923   1
   6   0 -10 3.77525 4.43685   3
   5   0 -10 150.430 12.9329   3
   5   0 -10 152.950 13.4801   1
   4   0 -10 320.949 22.2973   3
   4   0 -10 322.945 22.6972   1
  -4   0  10 337.294 24.0083   1
  -3   0  10 363.510 24.4852   1
   3   0 -10 308.942 21.6726   3
   3   0 -10 321.118 22.0407   1
   2   0 -10 1557.43 93.1599   1
   2   0 -10 1618.82 92.9657   3
  -2   0  10 1485.12 95.6500   1
   1   0 -10 1338.24 83.6368   1
  -1   0  10 1394.53 86.9811   1
   1   0 -10 1461.32 83.5585   3
   0   0 -10 380.633 23.8994   1
   0   0  10 361.014 26.0011   1
   1   0  10 60.5644 6.91232   1
  -1   0 -10 63.5272 6.02911   1
   2   0  10 6.36261 3.07224   1
  -2   0 -10 5.13259 2.46132   1
  -3   0 -10 28.6543 4.32682   1
   3   0  10 34.6307 5.64883   1
  -4   0 -10 105.778 9.07464   1
   4   0  10 107.690 10.3347   1
   5   0  10 415.671 28.5736   1
   6   0  10 287.995 22.1690   1
   7  -1 -10 86.5072 11.2738   3
   7  -1 -10 99.5758 12.4209   1
   7   1 -10 131.389 13.5557   3
   7   1 -10 130.154 14.1045   1
   6  -1 -10 483.050 33.5896   1
   6  -1 -10 487.726 33.0596   3
   6   1 -10 530.007 34.4902   3
   6   1 -10 495.942 34.8477   1
  -5  -1  10 47.3263 8.78697   1
   5  -1 -10 44.0767 6.51421   3
   5  -1 -10 45.6502 6.82845   1
   5   1 -10 36.8992 7.14443   1
   5   1 -10 38.6710 6.98087   3
  -4  -1  10 88.1958 10.8973   1
   4  -1 -10 82.5665 7.95167   3
   4  -1 -10 84.3825 8.26019   1
  -4   1  10 81.3361 8.61298   1
   4   1 -10 78.2101 8.60249   3
   4   1 -10 80.6355 9.21382   1
   3  -1 -10 18.8155 3.62639   3
   3  -1 -10 15.9019 3.51256   1
  -3  -1  10 16.3180 5.68103   1
  -3   1  10 16.5092 4.61350   1
   3   1 -10 12.3095 3.88133   3
   3   1 -10 8.88303 3.65432   1
  -2  -1  10 263.732 20.6411   1
   2  -1 -10 239.752 16.9168   1
   2  -1 -10 251.268 16.7919   3
   2   1 -10 253.488 17.5917   3
  -2   1  10 259.767 19.5501   1
   2   1 -10 267.495 18.0380   1
  -1  -1  10 1362.20 79.9886   1
   1  -1 -10 1328.69 75.8108   1
   1   1 -10 1219.33 76.0133   3
   1   1 -10 1203.91 76.2659   1
  -1   1  10 1224.55 78.8488   1
   0  -1  10 261.313 22.0116   1
   0  -1 -10 252.384 18.9895   1
   0   1 -10 320.143 19.4572   3
   0   1  10 318.068 21.2583   1
   0   1 -10 326.226 19.7461   1
   1  -1  10 811.676 52.2771   1
  -1  -1 -10 844.634 50.7845   1
  -1   1 -10 846.942 50.6900   3
   1   1  10 828.596 51.6778   1
  -1   1 -10 837.366 50.9404   1
  -2  -1 -10 1307.63 78.1367   1
   2  -1  10 1262.43 78.8063   1
   2   1  10 1299.72 78.8744   1
  -2   1 -10 1351.50 77.8516   3
  -2   1 -10 1275.01 77.9993   1
   3  -1  10 548.914 39.0089   1
  -3  -1 -10 573.973 38.5934   1
   3   1  10 629.783 39.6691   1
  -3   1 -10 658.632 38.3197   3
  -3   1 -10 686.661 38.6595   1
  -4  -1 -10 663.256 40.4777   1
   4  -1  10 668.946 41.2753   1
   4   1  10 597.111 41.2092   1
   5  -1  10 114.746 11.4585   1
   5   1  10 118.507 11.8964   1
   6  -1  10 403.848 29.1491   1
   6   1  10 434.174 30.1751   1
   7  -2 -10 35.5798 7.08067   3
   7  -2 -10 30.8471 7.07333   1
   7   2 -10 29.9370 8.93696   1
   7   2 -10 28.9950 8.31362   3
   6  -2 -10 133.475 12.0617   1
   6  -2 -10 139.445 11.5906   3
   6   2 -10 94.9468 13.1467   3
   6   2 -10 91.5622 13.2867   1
   5  -2 -10 300.046 21.5308   1
  -5  -2  10 312.472 25.3620   1
   5  -2 -10 276.034 21.0548   3
   5   2 -10 360.618 24.3958   1
   5   2 -10 332.769 23.3518   3
   4  -2 -10 383.201 24.4689   3
   4  -2 -10 380.343 24.7301   1
  -4  -2  10 385.848 29.0021   1
   4   2 -10 380.608 26.3443   3
   4   2 -10 369.574 26.7392   1
   3  -2 -10 309.054 23.9971   1
   3  -2 -10 353.024 21.9451   1
  -3  -2  10 361.485 26.5371   1
   3  -2 -10 333.982 21.6584   3
   3   2 -10 338.609 23.6586   1
   3   2 -10 330.267 23.1112   3
  -2  -2  10 538.061 37.4115   1
   2  -2 -10 580.662 32.9700   1
  -2   2  10 478.298 34.7136   1
   2   2 -10 523.052 34.4028   1
   2   2 -10 522.378 33.9523   3
  -1  -2  10 697.137 49.1584   1
   1  -2 -10 698.701 45.2099   1
   1   2 -10 771.851 46.5062   1
   1   2 -10 749.002 46.0538   3
  -1   2  10 806.875 48.7092   1
   0  -2 -10 1008.26 61.7785   1
   0  -2  10 1134.93 66.2263   1
   0   2 -10 1014.08 62.0356   3
   0   2 -10 981.604 62.2931   1
   0   2  10 997.769 63.0985   1
   1  -2  10 194.967 16.5272   1
  -1  -2 -10 202.308 14.2572   1
  -1   2 -10 186.914 13.8059   3
  -1   2 -10 198.634 14.2186   1
   1   2  10 214.335 14.9734   1
  -2  -2 -10 82.2644 7.78373   1
   2  -2  10 78.9811 8.44566   1
  -2   2 -10 72.7055 6.96541   1
  -2   2 -10 66.4939 6.47872   3
   2   2  10 82.2792 8.20422   1
  -3  -2 -10 81.5766 8.26651   1
   3  -2  10 73.7283 8.28277   1
   3   2  10 80.1203 8.63627   1
  -3   2 -10 73.1693 7.38572   1
  -4  -2 -10 328.308 23.1023   1
   4  -2  10 334.212 23.2192   1
   4   2  10 346.178 24.0525   1
   5  -2  10 164.690 13.6176   1
   5   2  10 139.016 14.0039   1
   6  -2  10 221.026 18.0883   1
   6   2  10 224.080 19.5281   1
   7  -3 -10 217.702 17.4327   1
   7  -3 -10 204.943 16.7849   3
   7   3 -10 234.481 21.6327   1
   7   3 -10 223.119 20.1623   3
   6  -3 -10 160.373 13.1562   1
   6  -3 -10 146.524 12.4153   3
   6   3 -10 134.819 15.7323   1
   6   3 -10 137.574 15.1099   3
   5  -3 -10 32.6811 5.09454   3
  -5  -3  10 34.1937 9.53020   1
   5  -3 -10 34.7858 5.43735   1
   5   3 -10 16.3268 6.46353   1
   5   3 -10 13.9915 5.84503   3
   4  -3 -10 671.451 39.5221   1
  -4  -3  10 634.559 44.9877   1
   4  -3 -10 629.591 39.1697   3
   4   3 -10 633.613 41.7220   3
   4   3 -10 608.202 42.2981   1
   3  -3 -10 830.527 54.1951   1
  -3  -3  10 867.790 57.8538   1
   3  -3 -10 814.344 52.1197   1
   3   3 -10 935.914 54.5780   3
   3   3 -10 883.995 54.9701   1
  -2  -3  10 10.2804 5.93753   1
   2  -3 -10 11.1138 3.00227   1
   2  -3 -10 12.1583 3.82177   1
   2   3 -10 8.65324 4.13669   1
   2   3 -10 11.1770 3.87368   3
  -2   3  10 7.92605 3.46804   1
  -1  -3  10 235.710 21.7399   1
   1  -3 -10 255.934 17.8124   1
   1   3 -10 278.867 19.1409   1
   1   3 -10 291.966 18.7862   3
  -1   3  10 263.515 20.4341   1
   0  -3 -10 295.948 21.8557   1
   0  -3  10 316.872 25.6095   1
   0   3 -10 350.781 22.1235   3
   0   3  10 348.089 23.1663   1
   0   3 -10 350.205 22.4906   1
  -1  -3 -10 890.231 54.5397   1
   1  -3  10 937.834 58.0523   1
  -1   3 -10 869.342 53.9983   1
   1   3  10 878.855 54.7903   1
  -1   3 -10 850.643 53.7035   3
  -2  -3 -10 874.846 51.8289   1
   2  -3  10 880.049 53.5442   1
   2   3  10 734.744 51.4851   1
   3  -3  10 421.401 29.5140   1
  -3  -3 -10 410.118 29.2585   1
   3   3  10 483.976 29.9349   1
  -4  -3 -10 368.835 25.7376   1
   4  -3  10 331.181 24.9249   1
   4   3  10 396.169 26.2853   1
   5  -3  10 438.052 29.3205   1
  -5  -3 -10 427.402 29.6433   1
   5   3  10 418.192 30.4270   1
   6  -3  10 45.8261 7.97481   1
   6   3  10 63.3597 10.2518   1
   6  -4 -10 68.5836 8.20811   1
  -6  -4  10 71.6446 14.0136   1
   6  -4 -10 59.2075 7.48189   3
   6   4 -10 52.7578 10.6526   1
   6   4 -10 57.6928 10.5557   3
  -5  -4  10 151.505 18.6378   1
   5  -4 -10 155.110 11.7655   1
   5  -4 -10 141.798 11.2223   3
   4  -4 -10 116.466 9.67177   1
  -4  -4  10 127.642 17.7438   1
   4   4 -10 148.169 13.4440   3
   4   4 -10 129.339 13.5466   1
   3  -4 -10 622.323 38.9878   1
  -3  -4  10 659.862 45.7410   1
   3   4 -10 628.175 41.4988   3
   3   4 -10 635.936 42.1468   1
  -2  -4  10 680.380 49.0031   1
   2  -4 -10 683.913 43.3588   1
   2   4 -10 726.520 45.0466   3
   2   4 -10 723.465 45.6520   1
  -1  -4  10 644.130 47.5539   1
   1  -4 -10 705.294 43.1288   1
  -1   4  10 656.392 44.7718   1
   1   4 -10 728.264 43.7521   3
   1   4 -10 703.927 44.2111   1
   0  -4  10 268.813 22.9154   1
   0  -4 -10 325.348 19.7253   1
   0   4 -10 251.644 18.6710   3
   0   4 -10 268.992 19.2100   1
   0   4  10 256.983 19.6601   1
  -1  -4 -10 61.5312 8.60916   1
   1  -4  10 80.4516 12.4818   1
   1   4  10 109.029 9.64150   1
  -1   4 -10 97.9204 8.02217   1
   2  -4  10 298.429 24.3967   1
  -2  -4 -10 319.030 22.0842   1
   2   4  10 288.139 21.5286   1
  -3  -4 -10 27.5408 6.37311   1
   3  -4  10 28.5106 7.15485   1
   3   4  10 28.4066 6.18168   1
  -4  -4 -10 55.1596 8.82621   1
   4  -4  10 53.6224 8.50896   1
   4   4  10 42.6990 7.96984   1
   5  -4  10 128.145 13.0348   1
  -5  -4 -10 111.733 13.2267   1
   5   4  10 132.583 13.9199   1
   6  -5 -10 94.2968 9.68558   1
   6  -5 -10 100.658 9.44507   3
  -6  -5  10 114.632 18.6806   1
   6   5 -10 112.000 15.4044   1
  -5  -5  10 50.3760 12.8136   1
   5  -5 -10 53.1898 6.70826   1
   5  -5 -10 56.2706 6.47418   3
   5   5 -10 65.2523 11.4795   1
  -4  -5  10 18.5588 9.35519   1
   4  -5 -10 22.6667 4.09776   1
   4   5 -10 28.0012 7.57363   1
   4   5 -10 33.3318 7.53753   3
   3  -5 -10 65.7158 6.73489   1
  -3  -5  10 54.0947 12.4513   1
   3   5 -10 49.3551 8.46592   3
   3   5 -10 61.0401 9.30162   1
  -2  -5  10 83.1316 13.5202   1
   2  -5 -10 73.5687 7.74791   1
   2   5 -10 62.4721 8.70208   3
   2   5 -10 58.2834 8.84044   1
  -1  -5  10 625.065 45.0884   1
   1  -5 -10 663.626 40.1515   1
   1   5 -10 592.464 40.5775   1
   0  -5 -10 117.605 11.3003   1
   0  -5  10 121.445 15.2793   1
  -1  -5 -10 518.656 35.7625   1
   1  -5  10 525.993 38.8901   1
   1   5  10 576.090 35.7991   1
  -2  -5 -10 266.691 20.7882   1
   2  -5  10 290.178 23.7963   1
   2   5  10 262.156 20.1709   1
  -3  -5 -10 147.070 15.1204   1
   3  -5  10 151.314 16.9543   1
   3   5  10 180.390 14.9225   1
  -4  -5 -10 679.393 44.6655   1
   4  -5  10 668.031 45.8868   1
   4   5  10 634.990 43.9823   1
  -5  -6  10 265.976 28.5466   1
   5  -6 -10 266.280 18.0824   1
   5   6 -10 255.821 23.8600   1
   4  -6 -10 135.509 10.9287   1
  -4  -6  10 137.840 20.2019   1
   4   6 -10 135.794 15.4014   1
  -3  -6  10 165.425 20.8774   1
   3  -6 -10 173.988 13.4377   1
   2  -6 -10 259.624 19.0519   1
  -2  -6  10 271.302 25.6557   1
  -1  -6  10 404.907 32.7555   1
   1  -6 -10 396.377 27.4055   1
   0  -6 -10 172.837 14.9146   1
   0  -6  10 163.039 19.0698   1
   1  -6  10 232.246 22.5224   1
  -1  -6 -10 252.505 19.8120   1
  -2  -6 -10 161.463 15.2785   1
   2  -6  10 140.382 16.8740   1
  -3  -6 -10 50.6975 9.32559   1
   3  -6  10 50.8343 11.1712   1
  -3  -7  10 3.72226 9.32612   1
   3  -7 -10 11.9468 4.75440   1
   2  -7 -10 50.6760 7.97298   1
  -2  -7  10 57.9706 13.4457   1
  -1  -7  10 102.493 16.9734   1
   1  -7 -10 104.511 11.7168   1
   0  -7  10 173.423 20.0274   1
   0  -7 -10 155.022 15.2839   1
   1  -7  10 416.738 34.1149   1
  -1  -7 -10 424.676 30.6971   1
  -2  -7 -10 187.221 18.0790   1
   2  -7  10 197.091 20.7021   1
   7   0 -11 196.230 17.9613   3
   7   0 -11 209.355 19.0420   1
   6   0 -11 32.1198 7.51680   1
   6   0 -11 37.1785 7.32978   3
   5   0 -11 438.623 30.4683   1
   5   0 -11 445.640 30.0543   3
   4   0 -11 192.577 15.2170   3
  -4   0  11 211.815 17.3842   1
   4   0 -11 204.259 15.8333   1
   3   0 -11 148.389 11.9936   1
  -3   0  11 166.423 14.7602   1
   3   0 -11 136.441 11.3945   3
   2   0 -11 36.6967 4.90777   3
   2   0 -11 44.7094 5.42701   1
  -2   0  11 36.0527 7.35790   1
   1   0 -11 154.603 10.9771   3
   1   0 -11 137.647 11.0241   1
  -1   0  11 152.548 14.5670   1
   0   0 -11 605.249 38.1230   1
   0   0 -11 643.174 37.9767   3
   0   0  11 585.210 40.6037   1
  -1   0 -11 5.74872 2.84455   1
   1   0  11 7.28682 3.57899   1
  -2   0 -11 1170.00 68.9625   1
   2   0  11 1109.87 69.8678   1
   3   0  11 1264.24 77.2063   1
  -3   0 -11 1260.48 76.0840   1
   4   0  11 801.324 50.8252   1
   5   0  11 521.881 35.0480   1
   6   0  11 47.7045 8.36414   1
   7  -1 -11 33.1480 7.41357   3
   7  -1 -11 33.8568 8.13410   1
   7   1 -11 33.4137 8.53323   3
   7   1 -11 27.5525 8.37051   1
   6  -1 -11 15.6012 5.33876   3
   6  -1 -11 17.1089 5.76330   1
   6   1 -11 9.21076 5.78707   1
   6   1 -11 10.2596 5.86082   3
  -5  -1  11 52.7289 9.61612   1
   5  -1 -11 52.2599 7.39643   3
   5  -1 -11 53.8359 7.81421   1
   5   1 -11 63.5382 8.81311   3
   5   1 -11 49.0800 8.36552   1
  -4  -1  11 210.321 17.4969   1
   4  -1 -11 209.340 14.3310   1
   4  -1 -11 196.701 13.6987   3
   4   1 -11 152.530 14.7452   1
   4   1 -11 154.844 14.2394   3
  -4   1  11 162.717 14.6180   1
   3  -1 -11 896.949 55.6425   3
   3  -1 -11 965.977 56.0812   1
  -3  -1  11 929.001 59.9353   1
   3   1 -11 863.322 56.5329   3
  -3   1  11 923.414 58.2577   1
   2  -1 -11 616.775 35.8552   3
   2  -1 -11 592.142 36.0391   1
  -2  -1  11 547.516 39.6660   1
  -2   1  11 571.040 38.7718   1
   2   1 -11 561.789 36.4122   3
   2   1 -11 558.308 36.7856   1
  -1  -1  11 868.054 57.7955   1
   1  -1 -11 884.377 53.8449   1
   1   1 -11 875.437 54.1229   3
   1   1 -11 902.519 54.4950   1
  -1   1  11 899.321 57.4724   1
   0  -1 -11 1897.33 115.874   1
   0  -1  11 1880.02 119.469   1
   0   1 -11 1968.67 116.022   3
   0   1 -11 2039.59 116.379   1
   0   1  11 1964.01 118.244   1
  -1  -1 -11 553.044 30.8785   1
   1  -1  11 520.914 32.9020   1
   1   1  11 429.430 31.4365   1
  -1   1 -11 460.544 30.6907   1
  -1   1 -11 464.930 30.4035   3
   2  -1  11 615.232 38.3497   1
  -2  -1 -11 675.961 37.3673   1
   2   1  11 548.846 37.7895   1
  -2   1 -11 549.711 36.6122   3
  -2   1 -11 576.667 37.0085   1
  -3  -1 -11 163.253 13.2973   1
   3  -1  11 162.097 14.0331   1
   3   1  11 207.113 14.9161   1
  -3   1 -11 197.371 13.4401   1
   4  -1  11 35.3038 6.40382   1
  -4  -1 -11 35.3351 5.68949   1
   4   1  11 50.7465 7.45918   1
   5  -1  11 17.1923 5.54881   1
   5   1  11 17.4602 5.70901   1
   6  -1  11 142.934 13.8393   1
   6   1  11 119.836 13.6584   1
   7  -2 -11 148.525 13.7046   1
   7  -2 -11 136.561 12.7890   3
   7   2 -11 113.918 15.1089   3
   7   2 -11 90.3908 14.4552   1
   6  -2 -11 97.8603 10.7514   3
   6  -2 -11 115.334 11.5657   1
   6   2 -11 88.3518 12.7501   1
   6   2 -11 108.034 12.8216   3
   5  -2 -11 204.238 16.9158   3
  -5  -2  11 261.582 22.3483   1
   5  -2 -11 210.010 17.2647   1
   5   2 -11 281.874 20.5005   1
   5   2 -11 270.561 19.7475   3
   4  -2 -11 249.824 17.6726   1
  -4  -2  11 282.944 23.0359   1
   4  -2 -11 247.884 17.3890   3
   3  -2 -11 677.610 44.2168   1
   3  -2 -11 706.307 44.0579   3
  -3  -2  11 714.240 49.2306   1
   3   2 -11 752.679 45.8886   3
  -3   2  11 729.436 45.8403   1
   3   2 -11 748.948 46.4014   1
  -2  -2  11 12.6650 6.46092   1
   2  -2 -11 16.2519 3.30051   1
   2   2 -11 10.6260 3.98919   3
   2   2 -11 12.0692 4.14442   1
  -2   2  11 12.9802 4.96866   1
   1  -2 -11 28.3243 4.23495   1
  -1  -2  11 32.2210 7.43802   1
   1   2 -11 40.8377 5.70926   3
   1   2 -11 27.3009 5.07521   1
  -1   2  11 40.5686 7.64052   1
   0  -2  11 112.616 12.8878   1
   0  -2 -11 107.661 9.34975   1
   0   2  11 131.379 11.3512   1
   0   2 -11 116.223 9.94119   1
   0   2 -11 118.331 9.78476   3
  -1  -2 -11 575.202 38.7370   1
   1  -2  11 601.846 41.6416   1
  -1   2 -11 632.933 39.1129   1
  -1   2 -11 625.263 38.7223   3
   1   2  11 677.465 40.1043   1
   2  -2  11 374.667 26.5114   1
  -2  -2 -11 394.108 25.3727   1
  -2   2 -11 376.218 24.9045   1
   2   2  11 397.893 26.0598   1
  -2   2 -11 370.711 24.5771   3
   3  -2  11 665.229 41.6673   1
  -3  -2 -11 658.849 40.9171   1
   3   2  11 610.966 41.4623   1
  -4  -2 -11 470.025 32.3251   1
   4  -2  11 467.494 32.8281   1
   4   2  11 558.345 33.8856   1
   5  -2  11 543.756 35.2711   1
   5   2  11 507.294 35.7379   1
   6  -2  11 296.444 22.3201   1
   6   2  11 277.759 22.9319   1
   7  -3 -11 51.8603 7.99429   3
   7  -3 -11 48.9852 8.41429   1
   7   3 -11 43.7019 11.1285   1
   7   3 -11 54.9243 11.0710   3
   6  -3 -11 4.19596 4.25944   3
   6  -3 -11 3.10328 4.05389   1
   6   3 -11 5.33735 6.09609   1
   6   3 -11 -0.1027 5.33900   3
  -5  -3  11 63.8079 12.3230   1
   5  -3 -11 51.0213 6.37339   3
   5  -3 -11 43.0586 6.37916   1
   5   3 -11 41.9094 8.79375   1
   5   3 -11 42.3413 8.66841   3
   4  -3 -11 515.621 32.2621   3
   4  -3 -11 515.420 32.5446   1
  -4  -3  11 504.652 38.4410   1
   4   3 -11 517.809 35.7445   1
   4   3 -11 519.317 35.0334   3
   3  -3 -11 73.1472 6.71779   1
  -3  -3  11 62.4983 11.2998   1
   2  -3 -11 1310.52 75.6640   1
  -2  -3  11 1217.50 81.1800   1
  -2   3  11 1156.38 77.2777   1
   2   3 -11 1269.23 77.1493   3
   2   3 -11 1331.38 77.9017   1
   1  -3 -11 1339.35 76.2025   1
  -1  -3  11 1235.16 80.8232   1
   1   3 -11 1238.74 76.8357   3
   1   3 -11 1246.62 77.3236   1
  -1   3  11 1243.46 78.9409   1
   0  -3 -11 418.777 26.3443   1
   0  -3  11 421.337 30.5860   1
   0   3 -11 404.037 26.3773   3
   0   3 -11 392.532 26.6672   1
   0   3  11 370.217 27.2882   1
   1  -3  11 928.882 62.1573   1
  -1  -3 -11 953.624 58.7549   1
  -1   3 -11 963.477 58.5670   1
   1   3  11 946.644 59.3473   1
  -1   3 -11 968.715 58.2742   3
   2  -3  11 158.505 15.4940   1
  -2  -3 -11 174.224 13.7733   1
   3  -3  11 157.753 13.8671   1
  -3  -3 -11 154.665 13.1042   1
   3   3  11 130.721 12.9023   1
  -4  -3 -11 115.766 11.4603   1
   4  -3  11 108.386 11.5261   1
   4   3  11 102.176 11.4811   1
   5  -3  11 86.1153 10.5834   1
   5   3  11 83.7164 11.3691   1
   6  -4 -11 70.2987 8.26545   3
  -6  -4  11 78.5183 20.1987   1
   6  -4 -11 54.7964 7.93604   1
   6   4 -11 48.6450 10.8938   1
   6   4 -11 69.2354 11.7547   3
   5  -4 -11 311.757 20.6832   1
  -5  -4  11 311.090 28.5665   1
   5  -4 -11 303.605 20.2192   3
   5   4 -11 275.527 23.7564   3
   5   4 -11 302.652 25.1241   1
  -4  -4  11 151.825 19.4049   1
   4  -4 -11 156.303 12.0386   1
   4   4 -11 174.501 16.2735   1
   4   4 -11 171.960 15.5653   3
  -3  -4  11 112.644 16.4961   1
   3  -4 -11 120.965 9.23882   1
   3   4 -11 83.1689 11.5486   3
  -2  -4  11 86.5789 13.9269   1
   2  -4 -11 100.174 8.66437   1
  -1  -4  11 36.6075 9.71480   1
   1  -4 -11 39.3427 5.62257   1
   1   4 -11 35.5609 6.34183   1
   1   4 -11 34.3078 6.14747   3
  -1   4  11 40.0137 7.55389   1
   0  -4  11 36.2792 8.94234   1
   0  -4 -11 28.1292 5.49199   1
   0   4 -11 45.0055 6.58027   3
   0   4  11 47.4850 7.40137   1
   0   4 -11 44.8953 6.39030   1
   1  -4  11 215.950 19.5477   1
  -1  -4 -11 187.337 15.3327   1
   1   4  11 196.513 15.8577   1
  -2  -4 -11 252.695 20.7434   1
   2  -4  11 273.005 23.8474   1
   2   4  11 328.452 21.5667   1
  -3  -4 -11 821.177 52.7907   1
   3  -4  11 780.361 54.4566   1
   3   4  11 871.533 53.1464   1
   4  -4  11 298.081 23.3334   1
  -4  -4 -11 295.871 22.7599   1
   4   4  11 287.063 22.7053   1
  -5  -4 -11 312.453 24.8703   1
   5  -4  11 337.337 25.3992   1
   5   4  11 345.563 25.7878   1
   5  -5 -11 36.4348 5.41794   1
  -5  -5  11 53.8600 13.5098   1
   5  -5 -11 34.9964 5.25301   3
   5   5 -11 27.2981 8.64871   1
   5   5 -11 28.8838 8.24407   3
   4  -5 -11 55.8937 6.86196   1
  -4  -5  11 66.8684 14.4831   1
   4   5 -11 81.7700 11.4857   3
   4   5 -11 85.6136 11.8393   1
  -3  -5  11 396.833 33.5905   1
   3  -5 -11 418.875 25.9649   1
   3   5 -11 374.040 29.0411   1
   3   5 -11 385.263 28.3899   3
   2  -5 -11 441.202 29.0367   1
  -2  -5  11 447.361 35.7575   1
   2   5 -11 448.686 31.3582   1
  -1  -5  11 304.963 27.8931   1
   1  -5 -11 323.003 22.4422   1
   1   5 -11 331.638 23.5636   1
   0  -5  11 360.583 30.6879   1
   0  -5 -11 396.505 26.5028   1
   1  -5  11 784.483 49.4395   1
  -1  -5 -11 695.841 44.9653   1
   1   5  11 633.497 44.6012   1
  -2  -5 -11 291.915 22.9882   1
   2  -5  11 312.667 25.9948   1
   2   5  11 312.218 22.6009   1
   3  -5  11 34.2281 9.47107   1
  -3  -5 -11 41.9129 8.19614   1
   3   5  11 36.5074 7.64849   1
   4  -5  11 1.91088 6.52274   1
  -4  -5 -11 1.07348 5.78335   1
   4   5  11 2.60446 5.18064   1
   4  -6 -11 78.1907 8.09198   1
  -4  -6  11 64.1371 15.2179   1
   4   6 -11 84.4018 16.8831   1
  -3  -6  11 124.267 19.3310   1
   3  -6 -11 118.389 10.7495   1
   2  -6 -11 35.5379 6.31581   1
  -2  -6  11 30.4998 10.9234   1
   1  -6 -11 123.748 12.0730   1
  -1  -6  11 127.384 18.1052   1
   0  -6  11 259.749 26.0694   1
   0  -6 -11 301.287 21.7060   1
   1  -6  11 71.8173 13.5219   1
  -1  -6 -11 87.0574 11.0141   1
   2  -6  11 207.456 20.3987   1
  -2  -6 -11 185.925 17.5131   1
  -3  -6 -11 246.104 20.8069   1
   3  -6  11 218.825 22.5788   1
   3  -7 -11 120.589 11.7725   1
  -3  -7  11 119.941 20.7015   1
   2  -7 -11 272.781 20.6383   1
  -2  -7  11 263.717 27.7888   1
  -1  -7  11 268.721 27.9831   1
   1  -7 -11 288.375 21.8168   1
   0  -7  11 338.830 31.2587   1
   0  -7 -11 357.873 26.3917   1
  -1  -7 -11 190.568 17.7872   1
   1  -7  11 174.304 21.3161   1
   7   0 -12 5.07274 6.25422   1
   7   0 -12 6.56923 5.97884   3
   6   0 -12 283.227 22.3749   1
   6   0 -12 273.574 21.6965   3
   5   0 -12 118.155 12.5187   1
   5   0 -12 123.355 11.9055   3
   4   0 -12 4.21791 3.65350   1
   4   0 -12 4.59539 3.81183   3
  -4   0  12 8.26124 5.20175   1
   3   0 -12 110.756 9.65313   3
  -3   0  12 91.3770 12.1686   1
   3   0 -12 118.879 10.1090   1
  -2   0  12 578.133 41.8504   1
   2   0 -12 610.459 38.4001   3
   2   0 -12 651.118 38.8662   1
   1   0 -12 1546.48 89.2275   1
  -1   0  12 1482.35 92.9204   1
   1   0 -12 1421.25 88.7035   3
   0   0 -12 781.700 47.1527   1
   0   0 -12 747.209 46.7908   3
   0   0  12 761.494 50.1693   1
   1   0  12 2204.65 135.251   1
  -1   0 -12 2284.71 133.577   1
   2   0  12 673.085 42.9319   1
  -2   0 -12 663.516 41.6374   1
   3   0  12 432.111 29.0588   1
  -3   0 -12 423.691 27.7800   1
   4   0  12 199.247 16.4461   1
   5   0  12 138.681 13.6237   1
   6   0  12 234.492 19.6910   1
   7  -1 -12 35.9858 8.48814   1
   7  -1 -12 32.5067 7.93008   3
   7   1 -12 29.2319 8.40282   3
   7   1 -12 31.0281 8.98629   1
   6  -1 -12 245.250 19.6242   3
   6  -1 -12 228.465 20.1533   1
   6   1 -12 274.522 21.0743   3
   6   1 -12 266.562 21.8981   1
   5  -1 -12 175.504 15.3358   1
   5  -1 -12 165.901 14.5666   3
  -5  -1  12 201.688 18.6245   1
   5   1 -12 191.412 16.1645   3
   5   1 -12 204.135 16.8244   1
   4  -1 -12 396.245 26.4602   3
  -4  -1  12 414.093 30.7294   1
   4  -1 -12 398.882 26.7559   1
   4   1 -12 393.879 28.1283   1
  -4   1  12 419.672 28.4596   1
   4   1 -12 379.421 27.5119   3
   3  -1 -12 471.004 28.1651   1
   3  -1 -12 474.892 27.8534   3
  -3  -1  12 413.280 32.0663   1
  -3   1  12 404.689 30.4534   1
   3   1 -12 403.296 29.0359   1
   3   1 -12 400.306 28.5276   3
  -2  -1  12 410.857 31.4235   1
   2  -1 -12 441.133 27.0969   3
   2  -1 -12 421.646 27.3069   1
   2   1 -12 423.169 28.2207   1
  -2   1  12 421.795 30.6008   1
   2   1 -12 418.322 27.8051   3
   1  -1 -12 344.880 24.8191   1
  -1  -1  12 348.070 28.6844   1
  -1   1  12 387.505 28.6363   1
   1   1 -12 413.469 25.4165   3
   1   1 -12 432.172 25.8616   1
   0  -1  12 510.062 33.4499   1
   0  -1 -12 496.015 29.0544   1
   0   1 -12 431.315 28.8116   3
   0   1 -12 434.911 29.1497   1
   0   1  12 408.993 31.1805   1
  -1  -1 -12 379.747 25.2999   1
   1  -1  12 387.878 27.8503   1
   1   1  12 379.496 26.8318   1
  -1   1 -12 408.515 25.6119   1
  -1   1 -12 396.983 25.2626   3
   2  -1  12 32.1812 6.14650   1
  -2  -1 -12 27.9004 4.80909   1
   2   1  12 32.6431 5.96660   1
  -2   1 -12 31.0902 4.70161   3
  -2   1 -12 36.8933 5.15882   1
   3  -1  12 178.798 16.5669   1
  -3  -1 -12 187.641 15.6113   1
   3   1  12 254.657 17.4584   1
  -3   1 -12 257.767 16.0395   1
  -4  -1 -12 445.493 28.6715   1
   4  -1  12 459.041 29.9208   1
   4   1  12 396.084 29.6837   1
   5  -1  12 245.123 20.0167   1
   5   1  12 264.827 20.4416   1
   6  -1  12 452.594 30.7533   1
   6   1  12 389.600 30.4191   1
   7  -2 -12 22.5342 6.89789   3
   7  -2 -12 28.5939 7.26544   1
   7   2 -12 32.9364 9.69054   1
   7   2 -12 26.1051 8.90758   3
   6  -2 -12 15.6608 5.54645   1
   6  -2 -12 13.8836 5.21055   3
   6   2 -12 4.87636 6.14674   3
   6   2 -12 4.16518 6.02299   1
   5  -2 -12 51.1064 7.20750   1
   5  -2 -12 50.5873 7.01566   3
  -5  -2  12 50.4670 10.9863   1
   5   2 -12 37.6320 8.24378   1
   5   2 -12 40.3623 8.19214   3
   4  -2 -12 97.6803 8.59897   3
   4  -2 -12 101.340 9.03408   1
  -4  -2  12 99.5823 14.1758   1
   4   2 -12 76.9959 10.7944   1
   4   2 -12 88.9593 10.4096   3
   3  -2 -12 520.383 32.2169   3
  -3  -2  12 483.026 37.5708   1
   3  -2 -12 507.187 32.4044   1
  -3   2  12 505.385 34.4542   1
   3   2 -12 523.273 34.6122   1
   3   2 -12 523.853 34.0510   3
   2  -2 -12 174.749 12.3544   1
  -2  -2  12 163.209 17.3125   1
  -2   2  12 169.914 15.2745   1
   2   2 -12 156.489 13.3491   3
   2   2 -12 164.476 13.8885   1
  -1  -2  12 741.893 50.4177   1
   1  -2 -12 715.663 45.5249   1
   1   2 -12 763.346 46.9288   1
  -1   2  12 774.411 49.4762   1
   1   2 -12 717.856 46.3517   3
   0  -2  12 1432.46 81.7639   1
   0  -2 -12 1282.38 76.5460   1
   0   2 -12 1248.08 76.8512   3
   0   2 -12 1187.76 77.0836   1
   0   2  12 1223.56 78.6013   1
  -1  -2 -12 988.363 61.9172   1
   1  -2  12 931.576 64.9471   1
  -1   2 -12 1038.32 61.8265   3
   1   2  12 1083.17 63.4300   1
  -1   2 -12 1022.43 62.2183   1
  -2  -2 -12 1085.01 67.4262   1
   2  -2  12 1076.10 69.3051   1
   2   2  12 1182.54 68.6638   1
  -2   2 -12 1051.13 67.3632   3
  -2   2 -12 1127.35 67.2733   1
  -3  -2 -12 568.091 36.5604   1
   3  -2  12 539.888 37.4312   1
   3   2  12 592.669 37.6872   1
  -4  -2 -12 295.476 21.2610   1
   4  -2  12 327.200 22.5984   1
   4   2  12 272.893 22.0332   1
   5  -2  12 47.5130 8.48878   1
   5   2  12 65.7047 9.70630   1
   6  -3 -12 109.980 11.7873   3
   6  -3 -12 120.275 12.4485   1
   6   3 -12 145.425 15.6475   3
   6   3 -12 159.019 16.7197   1
   5  -3 -12 106.891 9.86607   3
  -5  -3  12 93.6929 15.4791   1
   5  -3 -12 106.061 10.2789   1
   5   3 -12 129.362 14.2565   1
   5   3 -12 114.715 13.4331   3
   4  -3 -12 446.597 30.2040   1
   4  -3 -12 447.666 29.8565   3
  -4  -3  12 476.093 37.1627   1
   4   3 -12 513.445 33.2484   3
   4   3 -12 504.101 33.8892   1
   3  -3 -12 232.190 15.9486   1
  -3  -3  12 226.451 22.2329   1
   3   3 -12 229.969 18.2181   3
   3   3 -12 227.010 18.7266   1
   2  -3 -12 851.187 47.8860   1
  -2  -3  12 782.517 54.0275   1
   2   3 -12 750.406 49.1633   3
   2   3 -12 768.425 49.8210   1
  -2   3  12 720.156 49.8703   1
  -1  -3  12 120.116 16.6499   1
   1   3 -12 189.815 14.2580   3
   1   3 -12 189.982 14.7011   1
  -1   3  12 199.856 16.7355   1
   0  -3 -12 164.506 11.9085   1
   0  -3  12 158.695 16.1921   1
   0   3 -12 136.922 12.1055   1
   0   3  12 135.495 13.1128   1
   0   3 -12 128.558 11.5241   3
   1  -3  12 92.2373 13.0837   1
  -1  -3 -12 91.4233 9.10804   1
  -1   3 -12 97.3431 8.94516   1
   1   3  12 80.2984 9.60054   1
  -1   3 -12 86.7462 8.37906   3
  -2  -3 -12 30.6246 5.89287   1
   2  -3  12 35.8618 8.21013   1
   2   3  12 40.0432 6.85974   1
  -3  -3 -12 199.604 16.1545   1
   3  -3  12 197.640 17.6182   1
   3   3  12 209.395 16.9033   1
   4  -3  12 335.997 23.5932   1
  -4  -3 -12 315.828 22.3281   1
   4   3  12 259.695 22.4352   1
   5  -3  12 261.025 21.3326   1
   5   3  12 269.717 21.6580   1
   6  -4 -12 9.88042 4.69951   1
   6  -4 -12 5.36858 4.42422   3
   6   4 -12 1.84535 6.28024   3
   6   4 -12 4.48962 6.90203   1
  -5  -4  12 30.5284 11.4786   1
   5  -4 -12 40.2287 5.70802   3
   5  -4 -12 45.5462 6.17321   1
   5   4 -12 34.9935 9.35759   1
   5   4 -12 32.3350 9.02479   3
   4  -4 -12 55.1144 6.93645   1
  -4  -4  12 54.5892 12.7623   1
   4   4 -12 75.5062 11.1115   3
   4   4 -12 69.7348 11.0287   1
  -3  -4  12 209.527 21.8883   1
   3  -4 -12 208.359 14.2100   1
   3   4 -12 175.442 16.2840   3
   3   4 -12 182.060 17.2917   1
   2  -4 -12 146.839 12.6734   1
  -2  -4  12 146.239 20.1708   1
   2   4 -12 187.912 15.4618   1
   2   4 -12 198.019 15.0216   3
  -1  -4  12 553.383 45.1873   1
   1  -4 -12 669.212 40.5314   1
  -1   4  12 638.360 43.3409   1
   1   4 -12 652.355 41.3731   3
   1   4 -12 660.563 41.9193   1
   0  -4  12 928.018 60.3263   1
   0  -4 -12 889.231 55.3930   1
   0   4  12 881.749 56.8737   1
   0   4 -12 873.645 55.8074   1
   1  -4  12 880.817 60.0867   1
  -1  -4 -12 851.276 55.9682   1
   1   4  12 958.750 57.0290   1
  -2  -4 -12 338.525 23.0968   1
   2  -4  12 345.487 26.7977   1
   2   4  12 273.574 22.7804   1
  -3  -4 -12 378.740 28.0012   1
   3  -4  12 374.016 30.4402   1
   3   4  12 434.476 28.8049   1
  -4  -4 -12 226.404 19.3047   1
   4  -4  12 223.583 20.7558   1
   4   4  12 264.744 20.4386   1
   5  -5 -12 190.994 14.3678   3
  -5  -5  12 164.036 23.7906   1
   5  -5 -12 202.923 14.8795   1
   5   5 -12 224.812 19.7060   3
   5   5 -12 186.899 19.6318   1
  -4  -5  12 179.512 22.6957   1
   4  -5 -12 160.816 12.5205   1
   4   5 -12 153.381 16.6782   1
   4   5 -12 162.813 16.1488   3
   3  -5 -12 231.364 16.6677   1
  -3  -5  12 214.250 24.4634   1
   3   5 -12 236.217 20.7633   3
   3   5 -12 246.097 20.6102   1
  -2  -5  12 229.313 24.1744   1
   2  -5 -12 235.110 16.6193   1
   2   5 -12 203.762 18.5985   1
   1  -5 -12 140.439 12.0313   1
  -1  -5  12 105.382 16.8609   1
   0  -5 -12 124.320 11.5948   1
   0  -5  12 107.775 16.0475   1
  -1  -5 -12 64.2239 8.97441   1
   1  -5  12 70.7684 12.6513   1
   1   5  12 69.6122 12.6840   1
   2  -5  12 74.2064 12.8115   1
  -2  -5 -12 83.6270 10.5692   1
   2   5  12 58.1418 9.16970   1
   3  -5  12 80.1077 13.7545   1
  -3  -5 -12 90.2246 11.7357   1
   3   5  12 98.4997 12.2125   1
  -4  -5 -12 113.300 13.6409   1
   4  -5  12 103.880 15.5312   1
   4   5  12 109.540 13.2926   1
   4  -6 -12 24.8308 5.15305   1
  -4  -6  12 32.5646 13.1132   1
   3  -6 -12 77.3784 8.66473   1
  -3  -6  12 76.9697 15.9875   1
   2  -6 -12 238.835 17.8490   1
  -2  -6  12 214.099 24.7921   1
  -1  -6  12 204.337 23.7647   1
   1  -6 -12 221.138 17.3362   1
   0  -6  12 188.227 21.7749   1
   0  -6 -12 181.811 16.1274   1
   1  -6  12 542.438 41.5063   1
  -1  -6 -12 546.968 37.0893   1
  -2  -6 -12 160.795 16.5486   1
   2  -6  12 187.306 19.9371   1
  -3  -6 -12 316.169 25.6979   1
   3  -6  12 342.168 28.9175   1
   2  -7 -12 141.467 13.4496   1
  -2  -7  12 131.203 20.9611   1
   1  -7 -12 86.8571 11.1624   1
  -1  -7  12 74.2067 16.1015   1
   0  -7 -12 42.9595 8.36283   1
   0  -7  12 26.7214 11.2869   1
   1  -7  12 11.2323 9.88352   1
  -1  -7 -12 23.3205 7.79914   1
   7   0 -13 163.486 17.3008   1
   7   0 -13 158.062 16.6470   3
   6   0 -13 80.1315 10.7764   3
   6   0 -13 64.4188 10.7155   1
   5   0 -13 108.631 11.7874   1
   5   0 -13 99.9744 11.1742   3
   4   0 -13 294.119 21.4481   3
   4   0 -13 288.615 21.7914   1
  -4   0  13 321.243 24.6536   1
   3   0 -13 825.782 49.0018   1
   3   0 -13 777.336 48.4168   3
  -3   0  13 712.924 51.7961   1
   2   0 -13 508.287 32.3718   3
   2   0 -13 533.203 32.8340   1
  -2   0  13 477.453 36.1496   1
   1   0 -13 1896.28 111.345   3
  -1   0  13 1843.01 115.638   1
   1   0 -13 1854.59 111.639   1
   0   0 -13 1021.17 59.7313   1
   0   0 -13 973.654 59.2802   3
   0   0  13 916.966 62.8115   1
   1   0  13 410.397 28.7390   1
  -1   0 -13 399.605 26.4097   1
  -2   0 -13 23.0749 4.68905   1
   2   0  13 35.5467 6.48662   1
  -3   0 -13 61.4958 7.37061   1
   3   0  13 59.5938 8.64694   1
   4   0  13 55.9810 8.64889   1
   5   0  13 298.590 23.2409   1
   7  -1 -13 142.648 14.5262   3
   7  -1 -13 123.438 14.7862   1
   7   1 -13 118.795 16.1218   1
   7   1 -13 128.654 15.3993   3
   6  -1 -13 103.145 12.3546   1
   6  -1 -13 88.2847 11.8582   3
   6   1 -13 109.975 13.6321   1
   6   1 -13 118.698 13.3334   3
   5  -1 -13 119.168 11.4958   1
  -5  -1  13 134.301 24.3580   1
   5  -1 -13 107.605 11.0487   3
   5   1 -13 91.5663 12.0044   1
   5   1 -13 97.3285 11.5684   3
   4  -1 -13 102.247 9.67196   3
  -4  -1  13 110.834 14.9821   1
   4  -1 -13 92.8401 9.76483   1
   4   1 -13 106.437 11.4418   1
   4   1 -13 112.533 11.1967   3
   3  -1 -13 32.5280 5.26343   1
   3  -1 -13 39.5023 5.41110   3
  -3  -1  13 39.3897 9.74124   1
  -3   1  13 32.3286 7.57823   1
   3   1 -13 37.3568 6.47969   3
   3   1 -13 36.8171 6.75093   1
  -2  -1  13 30.8980 8.43290   1
   2  -1 -13 21.3299 4.34064   1
   2  -1 -13 31.6967 4.89170   3
  -2   1  13 37.7943 8.16549   1
   2   1 -13 38.9189 6.33531   1
   2   1 -13 29.7143 5.12858   3
  -1  -1  13 643.779 43.2514   1
   1  -1 -13 591.841 38.4123   1
   1   1 -13 627.000 39.0980   1
  -1   1  13 616.173 42.4810   1
   1   1 -13 603.390 38.6665   3
   0  -1 -13 356.877 23.9353   1
   0  -1  13 341.310 27.8238   1
   0   1 -13 371.987 24.0229   3
   0   1 -13 385.214 24.4580   1
   0   1  13 364.951 27.1512   1
  -1  -1 -13 277.588 21.2657   1
   1  -1  13 285.776 24.1313   1
   1   1  13 330.706 23.6398   1
  -1   1 -13 361.827 22.0390   1
  -1   1 -13 351.530 21.5775   3
  -2  -1 -13 1423.06 84.2521   1
   2  -1  13 1435.76 86.3655   1
  -2   1 -13 1379.36 83.8510   3
   2   1  13 1375.22 85.6722   1
  -2   1 -13 1361.32 84.1656   1
  -3  -1 -13 370.546 24.9052   1
   3  -1  13 359.810 26.3034   1
   3   1  13 381.391 26.3550   1
   4  -1  13 475.158 31.4515   1
   4   1  13 423.240 30.9833   1
   5  -1  13 434.187 30.0682   1
   5   1  13 404.701 30.0503   1
   7  -2 -13 21.1287 6.78072   3
   7  -2 -13 13.9770 6.55125   1
   7   2 -13 10.3019 7.96603   3
   7   2 -13 7.88101 7.94052   1
   6  -2 -13 23.1544 6.20591   3
   6  -2 -13 18.0763 6.26565   1
   6   2 -13 19.1352 7.51852   3
   6   2 -13 10.9722 7.31407   1
  -5  -2  13 282.777 25.7968   1
   5  -2 -13 301.917 21.1469   1
   5  -2 -13 296.862 20.6310   3
   5   2 -13 278.881 23.3908   1
   5   2 -13 270.320 22.6670   3
   4  -2 -13 300.891 20.7602   3
   4  -2 -13 304.200 21.1459   1
  -4  -2  13 281.727 26.5647   1
   4   2 -13 333.115 24.0842   1
   4   2 -13 312.874 23.0923   3
  -3  -2  13 463.910 38.3369   1
   3  -2 -13 502.024 32.7125   3
   3  -2 -13 517.379 33.0809   1
   3   2 -13 548.980 34.9032   3
   3   2 -13 560.712 35.6668   1
  -3   2  13 513.531 35.5687   1
   2  -2 -13 915.195 50.9138   1
  -2  -2  13 859.852 56.6056   1
   2   2 -13 738.843 51.9909   1
   2   2 -13 743.044 51.5218   3
  -2   2  13 870.063 54.3472   1
   1  -2 -13 944.842 56.2299   1
  -1  -2  13 1034.51 62.1047   1
   1   2 -13 864.399 56.8643   3
  -1   2  13 910.173 60.0902   1
   1   2 -13 865.919 57.2670   1
   0  -2 -13 853.803 54.9258   1
   0  -2  13 895.883 59.7143   1
   0   2 -13 879.911 55.8196   1
   0   2 -13 951.374 55.6661   3
   0   2  13 909.641 57.9015   1
   1  -2  13 152.408 17.1617   1
  -1  -2 -13 163.250 14.1642   1
   1   2  13 218.644 16.5098   1
  -1   2 -13 222.867 14.6490   3
  -1   2 -13 206.127 14.9383   1
  -2  -2 -13 200.976 14.5581   1
   2  -2  13 187.539 16.7393   1
  -2   2 -13 170.966 13.7612   1
   2   2  13 166.598 15.0448   1
   3  -2  13 45.0799 8.08470   1
  -3  -2 -13 39.1295 6.43445   1
   3   2  13 33.7573 6.81420   1
   4  -2  13 51.9449 8.70045   1
  -4  -2 -13 47.0746 7.34928   1
   4   2  13 57.0054 9.08379   1
   5  -2  13 111.009 12.7206   1
   5   2  13 90.6884 12.1619   1
   6  -3 -13 238.290 19.2074   1
   6  -3 -13 230.484 18.6585   3
   6   3 -13 268.103 22.9718   3
   6   3 -13 258.414 23.2865   1
  -5  -3  13 46.9336 12.2317   1
   5  -3 -13 58.7256 7.42681   1
   5  -3 -13 61.6377 7.31317   3
   5   3 -13 50.5545 10.0365   3
   5   3 -13 39.4954 9.30644   1
   4  -3 -13 8.13883 3.71448   1
   4  -3 -13 11.0670 3.65504   3
  -4  -3  13 13.9744 8.45089   1
   4   3 -13 10.7255 6.00204   1
   4   3 -13 12.1590 5.93512   3
   3  -3 -13 87.0520 8.35604   1
  -3  -3  13 88.6044 15.1109   1
   3   3 -13 85.0200 10.8869   3
   3   3 -13 90.1005 11.6872   1
  -2  -3  13 680.760 52.6736   1
   2  -3 -13 792.274 46.7632   1
   2   3 -13 740.932 48.8246   1
  -2   3  13 808.896 49.8625   1
   2   3 -13 729.102 48.1587   3
   1  -3 -13 11.6651 3.94964   1
  -1  -3  13 9.69516 6.59119   1
   1   3 -13 24.0321 5.75662   1
   1   3 -13 20.0132 5.22173   3
  -1   3  13 21.7361 6.81230   1
   0  -3  13 753.235 55.2661   1
   0  -3 -13 742.238 50.7631   1
   0   3  13 887.649 53.7050   1
   0   3 -13 866.568 51.6203   3
   0   3 -13 856.751 52.0921   1
  -1  -3 -13 555.060 32.3373   1
   1  -3  13 550.235 37.1388   1
  -1   3 -13 421.810 31.7859   1
   1   3  13 451.835 32.9989   1
  -2  -3 -13 523.703 34.2509   1
   2  -3  13 513.735 37.6805   1
   2   3  13 525.799 35.2089   1
   3  -3  13 536.143 39.2924   1
  -3  -3 -13 552.023 37.1796   1
   3   3  13 610.883 38.3650   1
   4  -3  13 176.231 17.0353   1
  -4  -3 -13 174.368 15.2756   1
   4   3  13 183.760 16.5127   1
   5  -3  13 293.242 23.5113   1
   5   3  13 283.899 23.2672   1
   6  -4 -13 75.7426 9.29381   3
   6  -4 -13 87.9694 10.0174   1
   6   4 -13 93.9830 14.5633   3
   6   4 -13 82.4574 14.3095   1
   5  -4 -13 111.878 10.8603   1
  -5  -4  13 100.290 17.7824   1
   5  -4 -13 118.147 10.4950   3
   5   4 -13 149.959 16.7410   1
   5   4 -13 132.707 15.0237   3
   4  -4 -13 100.745 9.50012   1
  -4  -4  13 99.0187 17.1742   1
   4   4 -13 100.299 13.7875   1
   4   4 -13 105.729 13.3082   3
   3  -4 -13 352.745 22.2752   1
  -3  -4  13 335.095 30.2874   1
   3   4 -13 310.869 25.3837   1
   3   4 -13 311.675 24.7421   3
  -2  -4  13 915.458 67.9800   1
   2  -4 -13 983.126 61.1586   1
   2   4 -13 1055.84 63.3842   3
   2   4 -13 1032.19 64.0172   1
  -1  -4  13 319.922 27.5338   1
   1  -4 -13 346.455 21.6863   1
   1   4 -13 297.623 22.3442   3
   1   4 -13 266.577 22.5148   1
   0  -4 -13 551.747 35.8180   1
   0  -4  13 602.632 41.4287   1
   0   4  13 534.545 37.8013   1
   0   4 -13 534.446 36.4198   1
   1  -4  13 402.886 32.2241   1
  -1  -4 -13 385.881 27.8187   1
   1   4  13 435.473 29.1525   1
   2  -4  13 53.8053 11.4973   1
  -2  -4 -13 54.0062 8.48293   1
   2   4  13 53.0619 8.72822   1
  -3  -4 -13 3.33155 5.08839   1
   3  -4  13 0.17667 6.26669   1
   3   4  13 -2.0547 4.69011   1
  -4  -4 -13 82.9742 10.8138   1
   4  -4  13 82.1702 12.8932   1
   4   4  13 81.5133 11.4104   1
   5  -5 -13 133.524 11.3383   3
   5  -5 -13 139.113 11.8412   1
  -5  -5  13 138.554 22.2053   1
   5   5 -13 130.017 15.7388   3
   5   5 -13 132.395 17.2779   1
  -4  -5  13 9.08342 9.99879   1
   4  -5 -13 5.21734 3.68067   1
   4   5 -13 12.4857 6.95094   1
   4   5 -13 13.9273 6.95923   3
  -3  -5  13 24.9372 11.4219   1
   3  -5 -13 31.7326 5.51606   1
   3   5 -13 36.6737 8.51835   1
   2  -5 -13 19.3507 5.04818   1
  -2  -5  13 25.6510 10.3301   1
   2   5 -13 29.9664 7.30907   1
  -1  -5  13 123.609 18.5378   1
   1  -5 -13 119.996 11.6464   1
   0  -5 -13 553.025 36.1433   1
   0  -5  13 535.138 41.5619   1
   1  -5  13 71.0369 12.8181   1
  -1  -5 -13 46.9456 8.16164   1
  -2  -5 -13 407.616 29.9260   1
   2  -5  13 464.193 34.5699   1
   2   5  13 418.681 30.3307   1
  -3  -5 -13 268.160 21.1176   1
   3  -5  13 267.835 24.6025   1
   3   5  13 229.301 20.7167   1
  -4  -6  13 236.967 28.0461   1
   4  -6 -13 226.948 16.9479   1
  -3  -6  13 232.920 28.3797   1
   3  -6 -13 261.012 18.8511   1
  -2  -6  13 169.434 23.9477   1
   2  -6 -13 173.088 14.5700   1
   1  -6 -13 352.545 24.6509   1
  -1  -6  13 315.237 31.1041   1
   0  -6 -13 129.221 13.2965   1
   0  -6  13 123.686 18.9615   1
  -1  -6 -13 230.147 19.5622   1
   1  -6  13 232.458 24.2269   1
   2  -6  13 21.5352 9.90265   1
  -2  -6 -13 22.5454 7.38772   1
   1  -7 -13 52.4524 8.87675   1
  -1  -7  13 51.5734 14.4587   1
   0  -7 -13 95.3036 12.3724   1
   0  -7  13 96.3956 17.9720   1
   7   0 -14 65.5146 11.9761   1
   7   0 -14 63.7585 11.4062   3
   6   0 -14 113.531 13.4891   1
   6   0 -14 112.534 12.9639   3
   5   0 -14 73.4242 10.0394   3
   5   0 -14 81.3011 10.9295   1
  -4   0  14 525.142 41.0795   1
   4   0 -14 580.724 38.3190   3
   4   0 -14 641.077 39.1208   1
   3   0 -14 222.746 16.0101   3
   3   0 -14 218.255 16.3204   1
  -3   0  14 178.963 19.1712   1
   2   0 -14 44.3164 6.37041   1
   2   0 -14 44.1469 6.19995   3
  -2   0  14 32.4487 8.62728   1
   1   0 -14 23.6419 4.70792   1
  -1   0  14 26.0363 7.67036   1
   1   0 -14 19.7665 4.11238   3
   0   0  14 58.1171 10.2913   1
   0   0 -14 65.9624 7.31354   1
   0   0 -14 64.9081 6.90743   3
  -1   0 -14 432.573 27.7306   3
  -1   0 -14 428.450 28.0730   1
   1   0  14 418.974 30.7118   1
  -2   0 -14 9.24610 3.70631   1
   2   0  14 11.3289 5.39245   1
   3   0  14 1104.71 67.7389   1
  -3   0 -14 1042.14 65.6281   1
   4   0  14 479.761 33.4180   1
   5   0  14 295.339 23.4981   1
   7  -1 -14 67.4491 10.9893   3
   7  -1 -14 80.5151 12.4589   1
   7   1 -14 71.9277 13.1279   1
   7   1 -14 70.8426 12.3861   3
   6  -1 -14 4.09137 5.39200   3
   6  -1 -14 10.9046 5.95320   1
   6   1 -14 4.44118 6.41806   1
   6   1 -14 12.3899 6.60984   3
   5  -1 -14 35.9017 6.95948   1
   5  -1 -14 28.1001 6.42601   3
   5   1 -14 28.7586 7.23460   3
   5   1 -14 37.5090 8.23670   1
   4  -1 -14 239.561 17.2753   3
   4  -1 -14 254.878 17.9131   1
  -4  -1  14 205.354 21.3674   1
   4   1 -14 212.254 18.1319   3
   4   1 -14 225.386 18.9611   1
   3  -1 -14 502.964 30.1996   3
   3  -1 -14 489.793 30.5600   1
  -3  -1  14 445.771 35.4334   1
   3   1 -14 452.872 31.1887   3
  -3   1  14 409.913 33.3555   1
  -2  -1  14 775.398 52.1813   1
   2  -1 -14 739.089 46.9887   1
   2  -1 -14 758.956 46.6686   3
   2   1 -14 755.536 47.9496   1
  -2   1  14 757.403 50.9373   1
   2   1 -14 748.785 47.4352   3
   1  -1 -14 1758.17 108.555   1
  -1  -1  14 1856.73 113.609   1
   1   1 -14 1791.23 108.758   3
   1   1 -14 1855.97 109.232   1
  -1   1  14 1811.45 112.969   1
   0  -1  14 276.123 25.3444   1
   0  -1 -14 296.963 21.5187   1
   0   1  14 338.488 25.5634   1
   0   1 -14 333.436 21.9861   1
   0   1 -14 342.442 21.6306   3
   1  -1  14 1044.59 72.4299   1
  -1  -1 -14 1091.06 69.0831   1
  -1   1 -14 1185.86 69.4587   1
   1   1  14 1106.28 71.5462   1
  -1   1 -14 1238.37 69.2035   3
   2  -1  14 305.028 22.1583   1
  -2  -1 -14 296.108 19.3331   1
  -2   1 -14 248.964 18.4683   3
   2   1  14 258.517 20.7050   1
  -2   1 -14 251.503 18.8554   1
   3  -1  14 44.1699 8.10980   1
  -3  -1 -14 49.5894 6.79649   1
   3   1  14 46.9685 7.85786   1
   4  -1  14 45.8678 8.50716   1
   4   1  14 45.6336 8.20863   1
   5  -1  14 32.1549 7.90751   1
   5   1  14 34.4806 7.97799   1
   6  -2 -14 60.5313 9.42922   3
   6  -2 -14 64.4654 9.92464   1
   6   2 -14 79.5172 12.1229   3
   6   2 -14 74.1751 12.3163   1
   5  -2 -14 230.620 16.6700   3
  -5  -2  14 189.588 21.7682   1
   5  -2 -14 221.459 17.0940   1
   5   2 -14 209.001 18.9917   3
   5   2 -14 211.788 20.0028   1
   4  -2 -14 64.4840 6.78411   3
   4  -2 -14 56.2642 7.17007   1
  -4  -2  14 55.8983 12.1577   1
   4   2 -14 32.5867 8.09493   1
   4   2 -14 32.4894 7.45713   3
  -3  -2  14 315.043 27.5928   1
   3  -2 -14 344.148 21.3382   1
   3  -2 -14 353.827 21.0473   3
   3   2 -14 252.197 22.0567   3
   3   2 -14 253.004 22.6762   1
  -2  -2  14 653.422 51.0669   1
   2  -2 -14 704.029 45.7874   1
   2   2 -14 763.481 47.7838   1
   2   2 -14 726.930 47.0416   3
  -2   2  14 841.957 50.3024   1
  -1  -2  14 190.488 18.4168   1
   1  -2 -14 171.460 12.8836   1
   1   2 -14 159.372 13.5805   3
  -1   2  14 164.639 16.6333   1
   1   2 -14 158.689 14.0306   1
   0  -2 -14 158.540 11.9655   1
   0  -2  14 149.726 16.2379   1
   0   2  14 131.728 14.6752   1
   0   2 -14 127.351 12.1232   1
   0   2 -14 142.243 11.9375   3
  -1  -2 -14 272.004 18.7590   1
   1  -2  14 252.036 22.9102   1
  -1   2 -14 265.732 18.5670   3
   1   2  14 256.361 20.6036   1
  -1   2 -14 255.697 18.9468   1
   2  -2  14 197.130 19.5575   1
  -2  -2 -14 218.039 16.9203   1
   2   2  14 259.131 19.0640   1
  -2   2 -14 241.169 18.1500   1
  -3  -2 -14 473.793 30.3078   1
   3  -2  14 481.490 32.8027   1
   3   2  14 403.990 31.2294   1
   4  -2  14 595.273 42.1049   1
  -4  -2 -14 629.851 40.2282   1
   4   2  14 636.286 41.8819   1
   5  -2  14 227.686 19.9848   1
   5   2  14 226.327 19.8868   1
   6  -3 -14 -1.2816 4.54510   1
   6  -3 -14 2.80014 4.84134   3
   6   3 -14 1.63036 6.69015   1
   6   3 -14 -2.6147 6.45454   3
  -5  -3  14 72.9304 14.6787   1
   5  -3 -14 82.7047 8.71719   3
   5  -3 -14 77.4930 8.86253   1
   5   3 -14 61.3485 11.6815   3
   5   3 -14 51.6772 10.8494   1
   4  -3 -14 305.245 21.3142   1
   4  -3 -14 316.544 21.0610   3
  -4  -3  14 316.363 29.1512   1
   4   3 -14 300.587 24.1619   3
   4   3 -14 307.787 24.9550   1
   3  -3 -14 417.896 28.2798   1
  -3  -3  14 379.938 35.2083   1
   3   3 -14 463.257 31.6566   1
   3   3 -14 465.669 30.9061   3
  -2  -3  14 232.195 24.0040   1
   2  -3 -14 237.818 17.8264   1
   2   3 -14 281.433 19.9703   3
   2   3 -14 265.746 20.3574   1
   1  -3 -14 1270.01 74.9480   1
  -1  -3  14 1400.18 81.8699   1
   1   3 -14 1167.03 75.8791   3
  -1   3  14 1209.47 78.7928   1
   1   3 -14 1149.99 76.3679   1
   0  -3 -14 918.933 54.2396   1
   0  -3  14 919.112 59.5845   1
   0   3 -14 814.466 54.8818   1
   0   3 -14 823.941 54.4036   3
   0   3  14 884.991 57.1615   1
  -1  -3 -14 170.171 13.8365   1
   1  -3  14 168.504 18.0147   1
   1   3  14 178.251 15.6396   1
  -1   3 -14 154.345 13.7658   1
   2  -3  14 334.291 28.9575   1
  -2  -3 -14 371.069 25.6704   1
   2   3  14 394.264 27.1502   1
  -3  -3 -14 48.6003 7.91676   1
   3  -3  14 49.2087 10.3065   1
   3   3  14 56.0564 9.24409   1
   4  -3  14 110.228 13.9925   1
  -4  -3 -14 97.2482 11.2578   1
   4   3  14 85.8791 11.7638   1
   5  -4 -14 166.141 13.3730   3
  -5  -4  14 166.489 23.7731   1
   5  -4 -14 176.050 14.0421   1
   5   4 -14 173.108 19.2716   1
   5   4 -14 163.893 17.8480   3
  -4  -4  14 179.601 23.0710   1
   4  -4 -14 186.237 14.4049   1
   4  -4 -14 177.866 14.0421   3
   4   4 -14 193.384 17.9486   3
   4   4 -14 210.579 19.2438   1
   3  -4 -14 186.871 14.5376   1
  -3  -4  14 179.798 22.4663   1
   3   4 -14 202.127 17.7264   3
   3   4 -14 202.643 18.2400   1
  -2  -4  14 42.8066 12.3375   1
   2  -4 -14 33.7768 5.67214   1
   2   4 -14 21.1755 6.68817   1
   2   4 -14 21.3879 6.70576   3
  -1  -4  14 47.3258 11.9323   1
   1  -4 -14 46.7931 6.98690   1
   1   4 -14 65.8665 9.14685   1
   0  -4 -14 56.1270 7.79658   1
   0  -4  14 56.6894 11.8099   1
   0   4  14 48.8633 9.55788   1
   1  -4  14 133.779 16.5032   1
  -1  -4 -14 122.714 12.1291   1
   1   4  14 135.170 13.7697   1
  -2  -4 -14 203.396 16.1011   1
   2  -4  14 184.009 20.1575   1
   2   4  14 164.572 16.5184   1
  -3  -4 -14 256.552 19.9944   1
   3  -4  14 267.795 24.3822   1
   3   4  14 234.310 20.5244   1
   4  -4  14 321.996 28.3606   1
  -4  -4 -14 331.700 25.0271   1
   4   4  14 331.650 25.7671   1
  -5  -5  14 51.9883 15.4245   1
   5  -5 -14 46.3279 6.77497   3
   5  -5 -14 67.9534 8.26732   1
   5   5 -14 45.5372 12.0393   3
   5   5 -14 42.5806 10.7701   1
   4  -5 -14 41.8395 6.18800   1
  -4  -5  14 34.4086 13.7626   1
   4   5 -14 23.4664 8.84682   1
  -3  -5  14 348.625 34.2525   1
   3  -5 -14 357.692 25.0623   1
   3   5 -14 414.408 29.9188   1
   2  -5 -14 486.947 31.2969   1
  -2  -5  14 434.035 39.1069   1
  -1  -5  14 317.397 30.3562   1
   1  -5 -14 342.712 23.7764   1
   0  -5 -14 421.183 30.5258   1
   0  -5  14 498.363 37.4016   1
   1  -5  14 273.727 25.7070   1
  -1  -5 -14 259.354 20.4866   1
   2  -5  14 261.150 24.2249   1
  -2  -5 -14 216.809 19.0617   1
   3  -5  14 57.1456 12.8511   1
  -3  -5 -14 84.9352 11.4634   1
   3   5  14 68.6618 11.1661   1
  -3  -6  14 5.02419 10.4355   1
   3  -6 -14 6.91566 4.73371   1
   2  -6 -14 250.713 18.7628   1
  -2  -6  14 217.806 27.5396   1
  -1  -6  14 -2.0518 8.48689   1
   1  -6 -14 3.95268 5.12170   1
   0  -6  14 39.8347 12.4677   1
   0  -6 -14 32.0779 7.30631   1
   1  -6  14 73.5012 15.2026   1
  -1  -6 -14 79.5630 10.8306   1
  -2  -6 -14 95.0854 12.8481   1
   2  -6  14 92.6601 16.4836   1
   6   0 -15 73.5928 11.4668   1
   6   0 -15 64.3791 10.4696   3
   5   0 -15 0.69095 4.84785   1
   5   0 -15 1.52564 4.82600   3
   4   0 -15 231.054 17.7451   1
  -4   0  15 185.433 20.1581   1
   4   0 -15 212.445 17.1796   3
   3   0 -15 3.64495 3.89613   1
  -3   0  15 2.90350 5.94671   1
   3   0 -15 1.91802 3.86564   3
   2   0 -15 360.147 23.8674   3
   2   0 -15 343.501 24.1433   1
  -2   0  15 363.836 28.6672   1
  -1   0  15 16.8259 7.26683   1
   1   0 -15 14.4136 4.03505   3
   1   0 -15 18.9840 4.58684   1
   0   0 -15 554.757 34.9307   1
   0   0  15 496.825 38.7217   1
   0   0 -15 559.453 34.5653   3
  -1   0 -15 1154.97 68.7749   1
  -1   0 -15 1105.52 68.3194   3
   1   0  15 1102.34 72.0540   1
   2   0  15 443.507 31.5087   1
  -2   0 -15 426.878 28.7340   1
   3   0  15 525.567 35.7691   1
  -3   0 -15 495.565 33.1562   1
   4   0  15 204.624 18.3995   1
   5   0  15 101.617 13.3640   1
   6  -1 -15 91.7379 12.0010   3
   6  -1 -15 97.8136 12.3610   1
   6   1 -15 70.7225 12.4038   1
   6   1 -15 86.4925 13.0420   3
   5  -1 -15 244.286 17.4308   1
   5  -1 -15 226.515 16.8603   3
   5   1 -15 156.849 17.3479   1
   5   1 -15 146.595 16.5525   3
   4  -1 -15 713.717 44.9868   1
  -4  -1  15 662.001 49.9955   1
   4  -1 -15 717.654 44.5700   3
   4   1 -15 684.874 45.8155   3
   4   1 -15 715.667 46.6454   1
  -3  -1  15 277.941 26.0818   1
   3  -1 -15 279.499 20.8248   1
   3  -1 -15 290.581 20.4546   3
   3   1 -15 320.197 22.0631   3
   3   1 -15 311.385 22.5895   1
  -3   1  15 306.950 25.0447   1
  -2  -1  15 938.735 60.4558   1
   2  -1 -15 896.346 54.4395   3
   2  -1 -15 849.200 54.6594   1
   2   1 -15 840.577 55.5420   1
  -2   1  15 937.355 59.4477   1
   2   1 -15 870.860 55.1441   3
  -1  -1  15 710.002 49.3155   1
   1  -1 -15 670.891 44.2370   1
   1  -1 -15 712.699 44.0481   3
   1   1 -15 713.385 44.8609   1
   1   1 -15 708.386 44.4604   3
  -1   1  15 725.782 49.0058   1
   0  -1  15 1.76884 5.51045   1
   0  -1 -15 5.42465 3.50243   1
   0   1 -15 7.12117 3.63599   3
   0   1 -15 11.6236 4.09705   1
   0   1  15 7.08436 5.62172   1
   1  -1  15 111.453 14.5098   1
  -1  -1 -15 97.3804 9.50941   1
  -1   1 -15 90.1659 9.25692   1
   1   1  15 102.326 12.3653   1
  -1   1 -15 97.1187 9.25172   3
   2  -1  15 253.522 21.4163   1
  -2  -1 -15 248.641 18.2158   1
  -2   1 -15 257.199 18.2155   1
   2   1  15 244.272 20.4774   1
  -3  -1 -15 74.5457 9.04397   1
   3  -1  15 76.1019 11.0517   1
   3   1  15 89.1028 11.1103   1
   4  -1  15 334.836 25.4990   1
   4   1  15 313.735 25.1162   1
   5  -1  15 151.747 16.7827   1
   5   1  15 163.147 16.3297   1
   6  -2 -15 41.9095 8.33067   1
   6  -2 -15 40.4180 8.01674   3
   6   2 -15 33.7601 9.64853   1
   6   2 -15 35.2328 9.49535   3
  -5  -2  15 12.7629 9.47521   1
   5  -2 -15 8.41797 4.71727   3
   5  -2 -15 17.0442 5.35143   1
   5   2 -15 20.6126 7.77177   3
   5   2 -15 16.6015 7.64102   1
   4  -2 -15 16.3063 4.74155   1
   4  -2 -15 17.4287 4.50815   3
  -4  -2  15 12.5350 8.49695   1
   4   2 -15 11.4152 6.21256   1
   4   2 -15 6.96710 5.31550   3
  -3  -2  15 54.2476 13.0649   1
   3  -2 -15 72.8390 7.74948   3
   3  -2 -15 81.8895 8.35941   1
   3   2 -15 58.5374 9.66425   1
   3   2 -15 53.5241 8.81288   3
   2  -2 -15 803.569 50.6525   1
  -2  -2  15 818.347 56.8603   1
  -2   2  15 869.548 55.0398   1
   2   2 -15 765.805 51.6544   3
   2   2 -15 830.888 52.5856   1
   1   2 -15 106.511 11.6268   1
   1   2 -15 125.787 11.3803   3
  -1   2  15 119.838 14.7838   1
   0  -2  15 578.663 39.5105   1
   0  -2 -15 583.450 33.9646   1
   0   2 -15 475.069 34.1950   1
   0   2  15 481.608 37.0254   1
   0   2 -15 493.811 33.8574   3
   1  -2  15 414.478 32.8326   1
  -1  -2 -15 451.044 28.4009   1
   1   2  15 416.023 30.8349   1
  -1   2 -15 421.848 28.9490   3
  -1   2 -15 403.800 28.4541   1
   2  -2  15 418.687 32.0799   1
  -2  -2 -15 428.501 28.3914   1
   2   2  15 407.325 30.0931   1
  -3  -2 -15 426.406 29.5658   1
   3  -2  15 434.558 32.8504   1
   3   2  15 461.296 31.8488   1
   4  -2  15 324.276 25.8815   1
   4   2  15 316.172 24.9733   1
   6  -3 -15 149.527 14.2503   1
   6  -3 -15 137.993 13.5407   3
   6   3 -15 140.076 17.3369   3
   6   3 -15 147.144 18.4519   1
  -5  -3  15 59.2508 14.6823   1
   5  -3 -15 64.3114 8.74088   1
   5  -3 -15 78.3155 9.06284   3
   5   3 -15 90.8921 12.7069   3
   5   3 -15 97.5095 14.2070   1
  -4  -3  15 342.322 31.4138   1
   4  -3 -15 338.455 22.5098   1
   4  -3 -15 329.245 22.0418   3
   4   3 -15 297.694 25.0689   3
   4   3 -15 297.459 25.6473   1
  -3  -3  15 626.643 47.0419   1
   3  -3 -15 634.402 38.8626   1
   3   3 -15 604.658 40.9549   3
   3   3 -15 563.457 41.3942   1
  -2  -3  15 429.660 34.2036   1
   2  -3 -15 437.568 26.7138   1
   2   3 -15 360.928 28.5063   1
   2   3 -15 371.053 28.0648   3
  -1  -3  15 677.855 47.4809   1
   1  -3 -15 711.155 41.4630   1
  -1   3  15 637.619 45.3256   1
   1   3 -15 597.653 42.0742   3
   1   3 -15 618.259 42.8122   1
   0  -3  15 399.820 33.5826   1
   0  -3 -15 396.608 28.3274   1
   0   3  15 484.785 32.8421   1
   0   3 -15 439.286 29.8403   1
  -1  -3 -15 261.481 18.9909   1
   1  -3  15 246.102 23.4173   1
   1   3  15 245.205 20.9654   1
  -2  -3 -15 121.339 12.0920   1
   2  -3  15 99.3317 15.3341   1
   2   3  15 144.273 14.0393   1
   3  -3  15 230.131 21.7725   1
  -3  -3 -15 206.365 17.2664   1
   3   3  15 202.168 18.6741   1
  -4  -3 -15 139.940 13.2745   1
   4  -3  15 142.797 16.9015   1
   4   3  15 97.9730 13.5861   1
   5  -4 -15 10.6200 4.53199   3
  -5  -4  15 15.1421 11.0348   1
   5  -4 -15 8.74722 4.60265   1
   5   4 -15 14.5815 8.24160   3
   5   4 -15 20.8917 8.98751   1
  -4  -4  15 15.7788 10.9889   1
   4  -4 -15 19.0159 4.91997   3
   4  -4 -15 22.4746 5.12833   1
   4   4 -15 24.1157 8.49866   1
   4   4 -15 28.0411 8.60602   3
  -3  -4  15 84.6975 16.6328   1
   3  -4 -15 103.839 9.79709   1
   3   4 -15 95.9531 12.9404   3
   3   4 -15 80.5778 12.2121   1
  -2  -4  15 101.755 16.9485   1
   2   4 -15 67.7038 10.3452   3
   2   4 -15 59.5429 10.2660   1
  -1  -4  15 65.6973 14.2695   1
   1  -4 -15 59.6759 8.31385   1
   1   4 -15 104.539 11.3611   1
   0  -4  15 697.746 47.7076   1
   0  -4 -15 637.936 41.2047   1
   0   4  15 561.707 50.5824   1
   1  -4  15 295.396 25.2506   1
  -1  -4 -15 249.530 19.1291   1
   1   4  15 214.382 20.7012   1
  -2  -4 -15 502.893 34.8314   1
   2  -4  15 546.729 40.4566   1
   2   4  15 514.752 36.4323   1
   3  -4  15 227.817 23.5729   1
  -3  -4 -15 247.259 19.1697   1
   3   4  15 211.246 20.0144   1
  -4  -5  15 120.362 22.0196   1
   4  -5 -15 148.415 12.7616   1
   4   5 -15 135.365 17.0451   1
   3  -5 -15 370.093 25.5098   1
  -3  -5  15 312.283 34.1573   1
   3   5 -15 421.260 30.3354   1
  -2  -5  15 165.884 23.9438   1
   2  -5 -15 190.833 15.3580   1
   1  -5 -15 132.394 12.8066   1
  -1  -5  15 122.340 19.3411   1
   0  -5  15 190.729 21.8750   1
   0  -5 -15 168.841 15.1593   1
  -1  -5 -15 57.1431 9.22615   1
   1  -5  15 76.1431 14.5001   1
  -2  -5 -15 114.527 13.2100   1
   2  -5  15 126.555 18.2406   1
   3  -6 -15 15.1343 5.59697   1
  -3  -6  15 -0.8866 10.7309   1
   2  -6 -15 67.9692 9.29648   1
  -2  -6  15 48.2600 15.3864   1
  -1  -6  15 247.927 28.4808   1
   1  -6 -15 277.558 20.8156   1
   0  -6 -15 97.9155 12.1024   1
   0  -6  15 119.847 19.2618   1
  -1  -6 -15 169.263 16.7940   1
   1  -6  15 216.851 23.7366   1
   6   0 -16 80.1684 12.3236   1
   6   0 -16 72.0336 11.4345   3
   5   0 -16 221.776 18.9344   1
   5   0 -16 206.612 18.2697   3
   4   0 -16 98.3127 11.7584   1
   4   0 -16 103.024 11.1056   3
   3   0 -16 429.133 29.5394   1
  -3   0  16 419.039 33.8375   1
   3   0 -16 445.471 29.1847   3
   2   0 -16 1741.47 107.673   3
  -2   0  16 1908.21 113.305   1
   2   0 -16 1747.68 108.108   1
   1   0 -16 10.2392 4.04976   3
   1   0 -16 16.5276 4.70667   1
  -1   0  16 16.5135 7.60729   1
   0   0 -16 481.260 32.1422   1
   0   0 -16 515.342 31.9165   3
   0   0  16 469.261 36.7498   1
   1   0  16 28.3963 8.34105   1
  -1   0 -16 28.0286 5.27957   3
  -1   0 -16 27.4739 5.69121   1
   2   0  16 61.6888 10.3394   1
  -2   0 -16 74.4294 8.74990   1
  -2   0 -16 70.2890 7.99828   3
   3   0  16 -0.1052 5.49694   1
   4   0  16 34.1873 8.66415   1
   6  -1 -16 24.0589 7.49194   1
   6  -1 -16 18.7128 6.97055   3
   6   1 -16 30.2685 9.03144   3
   6   1 -16 31.7592 9.25198   1
   5  -1 -16 144.576 13.4741   3
   5  -1 -16 154.983 14.3006   1
   5   1 -16 130.260 14.3207   3
   5   1 -16 96.4205 14.1730   1
   4  -1 -16 292.385 19.8087   3
  -4  -1  16 252.631 25.2686   1
   4  -1 -16 278.790 20.2915   1
   4   1 -16 253.518 21.3828   1
   4   1 -16 239.831 20.5878   3
   3  -1 -16 35.1575 6.19192   1
   3  -1 -16 35.4095 6.01399   3
  -3  -1  16 27.8965 10.0313   1
  -3   1  16 50.6940 10.5430   1
   3   1 -16 62.8525 9.10864   1
   3   1 -16 46.4626 7.54561   3
   2  -1 -16 117.269 10.4949   3
   2  -1 -16 118.927 10.8507   1
  -2  -1  16 129.816 16.3286   1
   2   1 -16 113.894 11.7115   1
   2   1 -16 120.058 11.2786   3
  -2   1  16 122.402 15.3505   1
   1  -1 -16 78.4074 8.75220   1
   1  -1 -16 74.1701 8.37608   3
  -1  -1  16 96.6331 14.3202   1
   1   1 -16 90.5621 9.48334   1
   1   1 -16 87.1801 9.08585   3
  -1   1  16 73.0001 12.7720   1
   0  -1  16 393.621 29.8246   1
   0  -1 -16 389.850 24.3690   1
   0   1 -16 332.126 24.1342   1
   0   1  16 321.474 28.0144   1
   0   1 -16 327.007 23.6640   3
  -1  -1 -16 398.352 27.7929   1
   1  -1  16 377.346 31.9683   1
  -1   1 -16 427.514 27.8227   1
   1   1  16 444.668 31.6817   1
  -1   1 -16 413.463 27.3831   3
   2  -1  16 604.141 43.7062   1
  -2  -1 -16 594.272 39.9285   1
   2   1  16 662.414 43.1942   1
  -2   1 -16 632.672 39.8703   1
   3  -1  16 864.985 57.2105   1
  -3  -1 -16 842.220 53.7030   1
   3   1  16 864.844 56.3211   1
   4  -1  16 320.871 24.3251   1
   4   1  16 238.593 22.3931   1
   6  -2 -16 34.8203 7.63389   3
   6  -2 -16 32.2013 7.75285   1
   6   2 -16 19.6502 8.92170   1
   6   2 -16 13.5824 8.17699   3
   5  -2 -16 415.429 27.0729   1
   5  -2 -16 389.659 26.2524   3
   5   2 -16 335.452 28.5337   3
   5   2 -16 352.809 29.5558   1
   4  -2 -16 210.874 15.9742   1
   4  -2 -16 203.062 15.3707   3
  -4  -2  16 201.849 23.2216   1
   4   2 -16 191.518 18.4344   1
   4   2 -16 183.067 17.6024   3
   3  -2 -16 348.185 24.7076   1
   3  -2 -16 354.389 24.3671   3
  -3  -2  16 339.186 31.7930   1
   3   2 -16 387.621 27.4918   1
   3   2 -16 381.635 26.7250   3
   2  -2 -16 263.364 19.0917   1
  -2  -2  16 277.016 25.4044   1
   2  -2 -16 271.337 18.7525   3
   2   2 -16 258.721 20.1630   3
   2   2 -16 237.190 20.4737   1
  -2   2  16 290.478 23.6249   1
   1   2 -16 243.576 18.6934   3
  -1   2  16 236.705 22.3498   1
   1   2 -16 242.574 19.0681   1
   0  -2 -16 676.066 46.5167   1
   0  -2  16 725.904 52.2098   1
   0   2  16 774.574 51.5446   1
   0   2 -16 789.848 47.4291   3
   0   2 -16 760.554 47.8102   1
  -1  -2 -16 66.6604 8.14466   1
   1  -2  16 52.3516 11.0091   1
   1   2  16 36.9233 8.97206   1
  -1   2 -16 36.6905 6.80136   1
   2  -2  16 51.4690 11.5650   1
  -2  -2 -16 58.4203 8.02457   1
   2   2  16 63.1837 10.6716   1
   3  -2  16 3.76210 6.61435   1
  -3  -2 -16 3.97888 4.82675   1
   3   2  16 5.10520 5.92377   1
   4  -2  16 20.0991 8.50092   1
   4   2  16 30.1161 8.03635   1
  -5  -3  16 225.599 25.9218   1
   5  -3 -16 234.690 17.8513   1
   5  -3 -16 233.583 17.3073   3
   5   3 -16 206.588 21.5571   1
   5   3 -16 209.407 20.7969   3
  -4  -3  16 54.1387 14.2538   1
   4  -3 -16 67.0850 8.07880   1
   4  -3 -16 57.6507 7.29174   3
   4   3 -16 47.4542 9.79334   3
   4   3 -16 37.7517 9.26921   1
  -3  -3  16 88.4556 16.7317   1
   3  -3 -16 95.1451 9.28087   3
   3  -3 -16 82.9130 9.78718   1
   3   3 -16 101.036 12.6835   1
   3   3 -16 104.998 12.9431   3
  -2  -3  16 69.3522 14.0441   1
   2  -3 -16 72.7574 8.48342   1
   2   3 -16 57.3477 9.42035   3
   2   3 -16 53.0250 9.62125   1
  -1  -3  16 124.620 17.4448   1
   1  -3 -16 132.969 12.0014   1
   1   3 -16 137.300 13.0713   3
   1   3 -16 129.973 13.4751   1
  -1   3  16 145.079 16.3860   1
   0  -3 -16 12.9711 5.11999   1
   0  -3  16 9.03944 7.66378   1
   0   3 -16 29.2865 6.53429   1
   0   3  16 30.8409 8.81542   1
   1  -3  16 691.233 49.9084   1
  -1  -3 -16 699.722 44.3350   1
   1   3  16 677.809 47.2806   1
  -2  -3 -16 726.655 45.2162   1
   2  -3  16 720.900 50.7906   1
   2   3  16 644.920 46.9174   1
  -3  -3 -16 312.805 23.3519   1
   3  -3  16 311.902 27.8376   1
   3   3  16 313.484 25.1206   1
   5  -4 -16 156.740 12.9576   1
   5  -4 -16 159.581 12.6802   3
  -5  -4  16 107.946 20.6578   1
   5   4 -16 100.550 16.3224   1
   5   4 -16 114.753 16.4569   3
   4  -4 -16 134.391 11.9874   3
   4  -4 -16 127.612 12.2050   1
  -4  -4  16 99.3719 19.6699   1
   4   4 -16 162.826 17.5593   1
   4   4 -16 167.478 16.6006   3
   3  -4 -16 426.567 27.2640   1
  -3  -4  16 374.659 36.5281   1
   3   4 -16 406.304 31.1951   1
   3   4 -16 373.650 29.7795   3
  -2  -4  16 338.375 31.6182   1
   2  -4 -16 364.454 23.3684   1
   2   4 -16 277.857 25.2017   1
  -1  -4  16 464.749 37.9934   1
   1  -4 -16 463.828 30.9947   1
   1   4 -16 459.904 39.2965   1
   0  -4  16 133.565 18.8673   1
   0  -4 -16 148.645 13.4744   1
  -1  -4 -16 32.4807 7.14437   1
   1  -4  16 36.6113 10.7655   1
   1   4  16 38.0152 9.36590   1
   2  -4  16 95.8349 15.9731   1
  -2  -4 -16 91.5184 11.3368   1
   2   4  16 67.8611 11.5947   1
  -3  -4 -16 10.0497 6.08697   1
   3  -4  16 2.56505 8.51161   1
   3   4  16 5.76305 6.53426   1
  -4  -5  16 35.0578 15.4250   1
   4  -5 -16 61.9393 8.20224   1
   4   5 -16 54.9425 12.2034   1
  -3  -5  16 45.1289 14.3771   1
   3  -5 -16 43.6070 7.28206   1
  -2  -5  16 26.1053 12.1809   1
   2  -5 -16 21.4385 6.02597   1
  -1  -5  16 79.5936 16.4188   1
   1  -5 -16 84.6511 10.4049   1
   0  -5  16 138.505 19.4159   1
   0  -5 -16 102.928 12.0446   1
  -1  -5 -16 352.440 26.3333   1
   1  -5  16 379.934 32.6766   1
   2  -5  16 168.924 20.5210   1
  -2  -5 -16 138.413 14.9263   1
  -1  -6  16 87.0278 18.6309   1
   1  -6 -16 91.8747 11.4840   1
   0  -6  16 234.065 26.7919   1
   0  -6 -16 210.297 18.3700   1
   6   0 -17 132.475 15.6340   1
   6   0 -17 124.470 14.8335   3
   5   0 -17 310.684 24.2638   1
   5   0 -17 293.910 23.6000   3
   4   0 -17 148.528 14.3696   1
   4   0 -17 143.650 14.0317   3
  -3   0  17 333.879 29.6028   1
   3   0 -17 340.975 24.4034   3
   3   0 -17 367.569 25.2770   1
   2   0 -17 5.04950 4.14310   1
   2   0 -17 0.44302 3.84869   3
  -2   0  17 5.63992 6.95488   1
   1   0 -17 14.7708 4.75011   3
  -1   0  17 19.3091 7.89365   1
   1   0 -17 16.5156 4.98208   1
   0   0  17 26.1966 9.00376   1
   0   0 -17 32.0582 5.88691   1
   0   0 -17 36.6170 5.86157   3
   1   0  17 206.406 21.1915   1
  -1   0 -17 218.656 16.3812   1
  -1   0 -17 192.430 15.4507   3
   2   0  17 257.138 23.1210   1
  -2   0 -17 258.337 19.1781   1
   3   0  17 395.375 30.9780   1
   4   0  17 383.417 30.1778   1
   6  -1 -17 4.78210 6.18463   3
   6   1 -17 6.69060 7.10266   3
   6   1 -17 3.60470 6.98259   1
   5  -1 -17 55.0506 9.16854   1
   5  -1 -17 48.2266 8.43295   3
   5   1 -17 26.0914 8.22906   3
   5   1 -17 31.0944 8.94944   1
   4  -1 -17 59.0038 8.53146   3
   4  -1 -17 67.4513 9.32795   1
  -4  -1  17 43.2447 12.2746   1
   4   1 -17 90.2385 11.8010   1
   4   1 -17 93.4808 11.4352   3
   3  -1 -17 232.176 16.5068   3
  -3  -1  17 234.749 23.3039   1
   3  -1 -17 230.167 16.9502   1
  -3   1  17 184.604 24.9199   1
   3   1 -17 208.338 17.6170   3
   3   1 -17 197.791 17.9478   1
   2  -1 -17 90.7496 9.90452   3
   2  -1 -17 93.3365 10.3999   1
  -2  -1  17 95.8030 15.3186   1
   2   1 -17 133.348 12.0911   1
   2   1 -17 124.240 11.3922   3
  -2   1  17 150.295 16.4167   1
   1  -1 -17 491.363 31.9002   3
  -1  -1  17 490.343 37.6207   1
   1  -1 -17 456.836 32.1489   1
   1   1 -17 495.108 32.8115   1
   1   1 -17 511.971 32.4674   3
  -1   1  17 491.710 37.4675   1
   0  -1 -17 665.824 42.5141   1
   0  -1  17 656.854 48.0358   1
   0   1  17 595.949 46.8118   1
   0   1 -17 667.881 42.2204   3
   0   1 -17 707.779 42.9139   1
  -1  -1 -17 486.305 30.3804   1
   1  -1  17 470.699 36.0131   1
   1   1  17 418.037 34.0062   1
  -1   1 -17 432.721 29.9559   1
  -1   1 -17 435.153 29.5578   3
   2  -1  17 502.705 38.4748   1
  -2  -1 -17 531.863 34.0704   1
   2   1  17 490.212 37.1116   1
   3  -1  17 137.014 17.3982   1
  -3  -1 -17 135.428 14.0761   1
   3   1  17 111.872 15.1256   1
   4  -1  17 96.6428 14.5406   1
   4   1  17 88.9628 13.0790   1
   5  -2 -17 128.479 11.9364   3
   5  -2 -17 136.705 12.7576   1
   5   2 -17 94.4342 14.4265   1
   5   2 -17 93.5413 14.4388   3
   4  -2 -17 152.694 12.8965   3
   4  -2 -17 162.508 13.5721   1
  -4  -2  17 138.939 21.3887   1
   4   2 -17 126.393 14.8601   3
   4   2 -17 148.068 16.0780   1
  -3  -2  17 307.539 29.3285   1
   3  -2 -17 306.592 21.4957   3
   3  -2 -17 315.828 21.9584   1
   3   2 -17 296.974 24.0948   1
   3   2 -17 300.029 23.4328   3
   2  -2 -17 116.815 10.1588   3
   2  -2 -17 123.733 10.9983   1
  -2  -2  17 127.597 17.4813   1
   2   2 -17 67.4979 10.6451   1
   2   2 -17 88.2225 10.9801   3
  -2   2  17 82.9084 13.8803   1
  -1  -2  17 196.532 20.7990   1
   1  -2 -17 164.279 15.0614   1
   1   2 -17 197.605 16.1094   3
   1   2 -17 191.507 16.3821   1
  -1   2  17 209.060 20.1471   1
   0  -2  17 280.255 25.2222   1
   0  -2 -17 252.728 19.3889   1
   0   2 -17 278.145 20.0115   3
   0   2  17 251.132 24.2304   1
   0   2 -17 259.902 20.2872   1
   1  -2  17 56.9952 12.9385   1
  -1  -2 -17 59.0732 8.53434   1
   1   2  17 101.244 14.1205   1
  -1   2 -17 76.0116 9.24666   1
  -2  -2 -17 349.016 23.9454   1
   2  -2  17 335.188 29.0113   1
   2   2  17 295.757 26.1577   1
  -3  -2 -17 180.755 16.3201   1
   3  -2  17 194.831 20.9774   1
   3   2  17 217.411 19.3935   1
   5  -3 -17 26.9312 6.13823   3
   5  -3 -17 25.2705 6.45867   1
   5   3 -17 19.3097 8.59850   3
   5   3 -17 19.0631 9.06161   1
   4  -3 -17 80.7777 9.74003   1
   4  -3 -17 76.9300 8.98512   3
  -4  -3  17 59.8897 15.3100   1
   4   3 -17 64.6730 11.7776   3
   4   3 -17 58.5624 11.6939   1
  -3  -3  17 145.005 20.7518   1
   3  -3 -17 136.956 11.7542   3
   3  -3 -17 139.098 12.2339   1
   3   3 -17 115.357 13.7345   3
   3   3 -17 111.313 14.3844   1
   2  -3 -17 98.5325 10.9930   1
  -2  -3  17 114.323 18.1738   1
   2   3 -17 109.997 13.0449   1
   2   3 -17 122.899 12.8302   3
   1  -3 -17 476.137 31.4249   1
  -1  -3  17 503.327 38.4879   1
   1   3 -17 444.506 33.1463   1
   0  -3  17 429.929 32.9533   1
   0  -3 -17 418.101 26.8125   1
   0   3  17 354.125 30.7609   1
   0   3 -17 317.236 27.9380   1
   1  -3  17 730.764 53.2493   1
  -1  -3 -17 754.722 47.4132   1
   1   3  17 720.161 50.7668   1
   2  -3  17 88.3284 15.8472   1
  -2  -3 -17 89.7555 11.0184   1
   3  -3  17 352.641 31.9056   1
  -3  -3 -17 384.065 26.4684   1
   3   3  17 339.384 28.2445   1
   4  -4 -17 181.245 14.4874   3
  -4  -4  17 169.670 25.2858   1
   4  -4 -17 172.545 14.8494   1
   4   4 -17 166.145 18.2768   3
   4   4 -17 179.567 19.4356   1
  -3  -4  17 140.190 23.2784   1
   3  -4 -17 185.349 14.5985   1
   3   4 -17 133.811 17.3047   1
  -2  -4  17 27.6258 11.6459   1
   2  -4 -17 19.3342 5.67942   1
   2   4 -17 4.01079 5.75937   1
   1  -4 -17 -0.1568 4.65097   1
  -1  -4  17 5.62120 8.62936   1
   0  -4 -17 25.2436 6.46777   1
   0  -4  17 29.1473 10.6150   1
   1  -4  17 18.9202 9.41951   1
  -1  -4 -17 20.4690 6.53992   1
   2  -4  17 445.697 37.9627   1
  -2  -4 -17 459.769 32.4420   1
   2   4  17 475.255 34.9644   1
   3  -5 -17 41.1888 7.38258   1
  -3  -5  17 37.4560 14.7301   1
   2  -5 -17 129.884 12.8763   1
  -2  -5  17 90.6401 19.3136   1
  -1  -5  17 326.653 31.6128   1
   1  -5 -17 303.789 23.2116   1
   0  -5  17 258.064 26.0074   1
   0  -5 -17 213.466 19.0074   1
  -1  -5 -17 232.979 19.7259   1
   1  -5  17 246.158 25.9578   1
   5   0 -18 24.8523 7.68113   1
   5   0 -18 34.6920 8.07244   3
   4   0 -18 10.4713 5.81510   1
   4   0 -18 12.4647 5.94466   3
   3   0 -18 58.0461 8.72788   1
   3   0 -18 64.2944 8.76500   3
  -3   0  18 60.3989 12.9920   1
  -2   0  18 241.517 22.8251   1
   2   0 -18 224.310 17.8818   1
   2   0 -18 221.695 17.2328   3
  -1   0  18 215.557 22.2966   1
   1   0 -18 220.818 17.3729   1
   1   0 -18 234.409 17.0835   3
   0   0  18 1023.50 70.0789   1
   0   0 -18 1061.13 63.8407   3
   0   0 -18 1011.92 64.1846   1
  -1   0 -18 365.492 25.5730   1
   1   0  18 349.125 30.7501   1
  -1   0 -18 371.252 25.0197   3
   2   0  18 672.222 46.4982   1
  -2   0 -18 611.691 41.1295   1
   3   0  18 392.624 31.6403   1
   5  -1 -18 135.970 13.3857   3
   5  -1 -18 127.977 13.7355   1
   5   1 -18 115.824 14.5009   3
   5   1 -18 117.639 15.2128   1
   4  -1 -18 171.812 15.3597   1
  -4  -1  18 118.839 26.5182   1
   4  -1 -18 183.922 14.8268   3
   4   1 -18 156.794 15.7400   3
   4   1 -18 169.418 16.8923   1
   3  -1 -18 275.118 19.7197   3
  -3  -1  18 273.532 26.4808   1
   3  -1 -18 257.206 19.9565   1
   3   1 -18 273.024 21.0072   3
   3   1 -18 269.549 21.5428   1
  -2  -1  18 272.789 24.1966   1
   2  -1 -18 221.522 17.6853   1
   2  -1 -18 224.967 17.2158   3
   2   1 -18 229.073 18.5767   1
   2   1 -18 213.721 17.7276   3
  -2   1  18 225.105 22.4670   1
   1  -1 -18 99.7163 10.1406   3
   1  -1 -18 101.202 10.6280   1
  -1  -1  18 111.252 16.5229   1
  -1   1  18 101.621 15.7991   1
   1   1 -18 95.3471 10.8385   1
   1   1 -18 109.825 10.7539   3
   0  -1 -18 102.067 10.9003   1
   0  -1  18 90.7760 15.2699   1
   0  -1 -18 100.701 10.7032   3
   0   1  18 94.3098 15.3609   1
   0   1 -18 112.195 10.8921   3
   0   1 -18 121.710 11.4225   1
  -1  -1 -18 13.9484 5.15733   1
   1  -1  18 8.71998 7.68082   1
  -1   1 -18 18.4289 5.38549   1
   1   1  18 10.6364 8.29830   1
   2  -1  18 10.5707 8.39576   1
  -2  -1 -18 13.3952 5.45103   1
   2   1  18 15.9414 7.84799   1
   3  -1  18 59.4678 12.3649   1
   3   1  18 46.9302 10.8902   1
   5  -2 -18 47.0632 8.01795   1
   5  -2 -18 41.1587 7.61542   3
   5   2 -18 32.7613 9.64213   1
   5   2 -18 23.3531 8.63505   3
   4  -2 -18 33.1821 6.71667   1
  -4  -2  18 33.9610 12.1701   1
   4  -2 -18 35.6884 6.60332   3
   4   2 -18 27.1055 8.06656   3
   4   2 -18 29.1690 8.76169   1
  -3  -2  18 32.7752 11.5356   1
   3  -2 -18 26.2656 5.74366   3
   3  -2 -18 22.5548 5.81558   1
   3   2 -18 14.5823 6.21792   3
   3   2 -18 14.3297 6.33093   1
  -2  -2  18 211.665 23.2183   1
   2  -2 -18 177.351 16.0302   1
   2  -2 -18 189.560 15.5996   3
   2   2 -18 229.369 18.3305   1
   2   2 -18 215.850 17.4642   3
  -1  -2  18 428.266 33.7113   1
   1  -2 -18 359.515 27.0505   1
   1   2 -18 397.741 28.6499   1
   1   2 -18 408.340 28.0184   3
  -1   2  18 408.018 32.5462   1
   0  -2  18 317.678 29.3597   1
   0  -2 -18 308.848 23.3940   1
   0   2 -18 340.812 24.4506   1
   0   2  18 349.748 29.1115   1
   1  -2  18 884.034 60.3427   1
  -1  -2 -18 903.136 53.8869   1
   1   2  18 744.808 57.5393   1
  -2  -2 -18 568.900 38.5704   1
   2  -2  18 558.997 44.4971   1
   2   2  18 635.765 43.0561   1
  -3  -2 -18 357.368 25.1848   1
   3  -2  18 376.972 31.3793   1
   3   2  18 306.363 27.9094   1
   5  -3 -18 91.2866 10.2515   3
   5   3 -18 85.9395 14.0319   3
  -4  -3  18 168.658 24.8927   1
   4  -3 -18 156.993 14.1085   3
   4  -3 -18 166.281 14.9644   1
   4   3 -18 189.998 18.2263   3
   4   3 -18 176.831 18.6411   1
   3  -3 -18 156.812 13.8656   1
   3  -3 -18 160.694 13.5535   3
  -3  -3  18 161.733 23.0108   1
   2  -3 -18 250.491 19.0579   1
  -2  -3  18 254.612 26.4190   1
   2   3 -18 241.125 20.3592   3
   2   3 -18 231.110 20.8899   1
   1  -3 -18 145.947 13.4768   1
  -1  -3  18 174.072 20.4234   1
   1   3 -18 135.965 15.1782   1
   0  -3 -18 53.0358 8.27075   1
   0  -3  18 55.4674 12.9920   1
   0   3  18 53.0172 12.3349   1
   1  -3  18 18.9486 9.85721   1
  -1  -3 -18 21.4966 6.71389   1
   1   3  18 32.2236 10.1190   1
   2  -3  18 59.9957 14.1206   1
  -2  -3 -18 68.6253 10.0149   1
   2   3  18 68.2990 12.1708   1
   4  -4 -18 10.9056 5.08144   3
  -4  -4  18 7.57672 11.3592   1
   4  -4 -18 7.17741 5.32429   1
   4   4 -18 7.62616 7.77847   1
  -3  -4  18 0.37168 9.78874   1
   3  -4 -18 11.5920 5.46925   1
   3   4 -18 7.86476 7.22675   1
  -2  -4  18 181.789 24.7818   1
   2  -4 -18 143.539 13.5779   1
   2   4 -18 134.972 23.1327   1
   1  -4 -18 187.381 16.4505   1
  -1  -4  18 218.786 24.3080   1
   0  -4  18 288.475 28.5987   1
   0  -4 -18 288.103 22.0067   1
  -1  -4 -18 632.324 42.4820   1
   1  -4  18 663.958 49.0320   1
  -2  -4 -18 239.616 20.1083   1
   2  -4  18 254.521 26.8899   1
  -2  -5  18 129.009 22.6474   1
   2  -5 -18 136.275 13.9839   1
   1  -5 -18 69.4746 10.0797   1
  -1  -5  18 71.2449 16.8916   1
   0  -5  18 83.5400 16.9448   1
   0  -5 -18 73.5652 10.9048   1
   5   0 -19 69.5482 11.1105   3
   5   0 -19 84.2061 12.5299   1
   4   0 -19 100.520 12.0966   3
   4   0 -19 110.376 13.1917   1
  -3   0  19 254.754 25.4406   1
   3   0 -19 257.140 19.5810   3
   3   0 -19 247.504 19.9703   1
   2   0 -19 419.036 28.6656   3
   2   0 -19 395.091 29.1289   1
  -2   0  19 463.342 34.9121   1
   1   0 -19 960.691 62.4083   3
  -1   0  19 1107.38 69.5807   1
   1   0 -19 989.463 62.9557   1
   0   0 -19 171.979 14.5606   1
   0   0 -19 159.177 13.7881   3
   0   0  19 167.272 20.1907   1
   1   0  19 341.534 30.9837   1
  -1   0 -19 322.497 23.7088   3
  -1   0 -19 358.346 24.5871   1
   2   0  19 98.8186 16.2110   1
   3   0  19 4.71166 8.12500   1
   5  -1 -19 77.8485 10.8528   3
   5  -1 -19 67.7726 10.7758   1
   5   1 -19 73.4764 12.3867   1
   5   1 -19 75.8820 11.9751   3
   4  -1 -19 42.4546 7.98769   1
   4  -1 -19 51.9141 8.40024   3
   4   1 -19 40.5006 9.01143   1
   4   1 -19 41.1418 8.93989   3
   3  -1 -19 11.0001 5.39628   1
  -3  -1  19 11.6181 9.14976   1
   3  -1 -19 9.40580 4.92799   3
   3   1 -19 8.91219 5.92594   1
   3   1 -19 3.78431 5.39645   3
   2  -1 -19 0.25926 4.35897   1
   2  -1 -19 5.48226 4.49589   3
  -2  -1  19 7.65025 8.15675   1
   2   1 -19 3.52378 4.87231   3
   2   1 -19 0.30078 4.74569   1
  -2   1  19 1.12312 6.87836   1
   1  -1 -19 124.826 11.3474   3
   1  -1 -19 107.911 11.4627   1
  -1  -1  19 127.529 18.1575   1
   1   1 -19 101.650 11.6310   1
   1   1 -19 106.044 11.2594   3
  -1   1  19 118.980 16.9006   1
   0  -1 -19 186.387 16.8462   1
   0  -1 -19 205.594 16.5907   3
   0  -1  19 180.638 22.2459   1
   0   1  19 234.364 23.5495   1
   0   1 -19 231.685 16.9591   3
   0   1 -19 229.071 17.4546   1
   1  -1  19 314.609 28.5436   1
  -1  -1 -19 301.483 22.0118   1
  -1  -1 -19 318.865 21.5330   3
  -1   1 -19 262.143 21.2290   1
   1   1  19 250.661 26.5687   1
  -2  -1 -19 528.741 36.3020   1
   2  -1  19 555.303 42.8117   1
   2   1  19 554.253 41.5972   1
   3  -1  19 225.507 24.3231   1
   3   1  19 222.754 22.6963   1
   5  -2 -19 111.324 12.5019   1
   5  -2 -19 121.105 12.2050   3
   5   2 -19 88.4144 14.1683   3
   4  -2 -19 176.531 16.0965   3
   4  -2 -19 190.506 16.9209   1
  -4  -2  19 200.553 24.7852   1
   4   2 -19 229.265 19.4123   3
   4   2 -19 207.889 19.7715   1
  -3  -2  19 365.937 33.7218   1
   3  -2 -19 347.634 24.7580   3
   3  -2 -19 333.097 25.3186   1
   3   2 -19 370.705 27.3319   3
   3   2 -19 378.531 27.9826   1
  -2  -2  19 408.099 32.3077   1
   2  -2 -19 330.801 24.2877   1
   2  -2 -19 318.603 23.6261   3
   2   2 -19 335.495 26.1308   1
   2   2 -19 332.978 25.2021   3
  -1  -2  19 278.672 26.5052   1
   1  -2 -19 267.161 20.4463   1
   1  -2 -19 253.308 19.7581   3
   1   2 -19 256.511 21.2549   1
  -1   2  19 266.149 25.7277   1
   1   2 -19 287.498 21.2920   3
   0  -2 -19 494.068 33.0351   1
   0  -2  19 539.318 39.7993   1
   0   2 -19 461.651 33.3629   1
   0   2  19 444.753 38.2430   1
  -1  -2 -19 191.220 16.6331   1
   1  -2  19 183.550 22.8923   1
   1   2  19 212.525 22.7112   1
  -2  -2 -19 53.0421 8.83822   1
   2  -2  19 39.3158 12.3236   1
   2   2  19 53.2337 12.3030   1
  -4  -3  19 259.071 28.9926   1
   4  -3 -19 248.374 19.3070   1
   4  -3 -19 264.178 18.6360   3
   4   3 -19 203.137 21.9169   1
   4   3 -19 203.258 21.1725   3
   3  -3 -19 9.38435 5.37443   1
  -3  -3  19 5.49706 9.60004   1
   3  -3 -19 8.49972 5.16589   3
   3   3 -19 14.6439 6.87510   3
   3   3 -19 9.39394 7.02489   1
  -2  -3  19 45.6597 13.7369   1
   2  -3 -19 43.2860 7.81802   1
   2   3 -19 39.8501 9.22078   1
   1  -3 -19 32.9693 7.30861   1
  -1  -3  19 45.6875 12.7656   1
   1   3 -19 36.6725 8.44485   1
   0  -3 -19 98.2048 11.4980   1
   0  -3  19 90.9360 16.2192   1
   1  -3  19 190.714 23.1662   1
  -1  -3 -19 168.318 16.1526   1
   1   3  19 202.424 22.0783   1
  -2  -3 -19 414.908 30.2923   1
   2  -3  19 455.284 37.5962   1
   2   3  19 428.350 34.8587   1
   3  -4 -19 86.8770 11.3376   1
  -3  -4  19 96.3939 19.8764   1
   3   4 -19 131.232 16.0060   1
  -2  -4  19 435.156 39.6153   1
   2  -4 -19 434.644 30.4263   1
   1  -4 -19 234.872 19.4207   1
  -1  -4  19 259.713 27.3750   1
   0  -4  19 337.171 30.1449   1
   0  -4 -19 281.775 22.7863   1
   1  -4  19 85.4123 16.3299   1
  -1  -4 -19 87.8130 11.5532   1
   4   0 -20 221.648 19.0506   3
   4   0 -20 229.753 19.7181   1
   3   0 -20 459.801 32.4525   1
   3   0 -20 465.221 31.8090   3
   2   0 -20 2.17687 4.68322   3
   2   0 -20 1.24535 4.74944   1
  -2   0  20 0.55684 7.55194   1
   1   0 -20 6.62691 4.56140   1
  -1   0  20 6.53113 8.09084   1
   1   0 -20 8.86385 4.88113   3
   0   0 -20 1.05604 4.44894   3
   0   0 -20 4.77834 4.41826   1
   0   0  20 2.59395 7.97685   1
   1   0  20 2.19401 8.76377   1
  -1   0 -20 4.36853 4.70355   1
   2   0  20 105.024 17.6207   1
   4  -1 -20 124.307 12.3676   3
   4  -1 -20 111.049 12.5091   1
   4   1 -20 92.6294 13.2699   1
   4   1 -20 106.815 13.7677   3
  -3  -1  20 179.868 21.3574   1
   3  -1 -20 146.205 14.2785   1
   3  -1 -20 152.571 13.5821   3
   3   1 -20 135.919 14.5612   3
   3   1 -20 137.132 15.0528   1
   2  -1 -20 176.780 15.1546   3
   2  -1 -20 156.168 15.4921   1
  -2  -1  20 195.017 22.0151   1
   2   1 -20 209.129 17.1844   1
   2   1 -20 189.843 16.2500   3
   1  -1 -20 441.500 30.6347   3
   1  -1 -20 450.075 31.2186   1
  -1  -1  20 458.236 37.2454   1
   1   1 -20 464.033 31.7120   1
   1   1 -20 452.124 31.0975   3
  -1   1  20 466.335 37.4312   1
   0  -1 -20 400.206 28.0930   3
   0  -1 -20 417.345 28.8057   1
   0  -1  20 436.441 35.7046   1
   0   1 -20 398.092 28.7088   1
   0   1  20 406.665 35.0065   1
  -1  -1 -20 554.795 37.7801   3
  -1  -1 -20 576.918 38.4758   1
   1  -1  20 569.336 45.4488   1
   1   1  20 615.766 45.6289   1
   2  -1  20 237.952 26.4059   1
  -2  -1 -20 223.357 18.4661   1
   2   1  20 215.721 24.8081   1
   4  -2 -20 23.9751 6.82713   1
   4  -2 -20 28.8024 6.66515   3
   4   2 -20 14.9652 8.04837   1
   4   2 -20 7.01697 7.01052   3
  -3  -2  20 276.446 27.8298   1
   3  -2 -20 247.703 18.9267   3
   3  -2 -20 255.761 19.4983   1
   3   2 -20 210.100 20.5514   3
   3   2 -20 233.947 21.6145   1
   2  -2 -20 137.607 13.6604   1
  -2  -2  20 166.773 22.1918   1
   2  -2 -20 144.324 13.2529   3
   2   2 -20 133.734 14.3317   3
   2   2 -20 137.890 15.1705   1
   1  -2 -20 38.1388 7.54560   1
   1  -2 -20 40.7027 7.53022   3
  -1  -2  20 47.2502 12.7658   1
   1   2 -20 51.2502 9.10541   1
   0  -2  20 45.0845 12.6865   1
   0  -2 -20 30.0449 7.07495   1
   0   2  20 33.7628 11.5349   1
  -1  -2 -20 146.830 14.7817   1
   1  -2  20 133.418 20.6612   1
   1   2  20 161.112 20.5994   1
  -2  -2 -20 4.92925 5.86733   1
   2  -2  20 6.46981 9.66878   1
   2   2  20 27.2637 10.5423   1
  -3  -3  20 44.5383 14.9400   1
   3  -3 -20 53.6941 8.67477   1
   3  -3 -20 45.1343 7.96040   3
   3   3 -20 48.7733 10.7395   1
   3   3 -20 41.9938 10.5587   3
   2  -3 -20 162.560 15.7335   1
  -2  -3  20 181.815 23.5249   1
   2  -3 -20 168.604 15.3844   3
   2   3 -20 213.349 19.1815   1
  -1  -3  20 342.201 31.2007   1
   1  -3 -20 314.236 24.3909   1
   0  -3 -20 487.323 33.7998   1
   0  -3  20 485.699 40.2173   1
  -1  -3 -20 445.836 31.6788   1
   1  -3  20 465.772 39.2716   1
   1   3  20 447.966 41.3829   1
   1  -4 -20 49.3012 8.99410   1
   4   0 -21 17.6866 7.23679   3
   4   0 -21 13.8267 7.08468   1
   3   0 -21 6.58839 5.47787   3
   3   0 -21 8.77425 5.84213   1
   2   0 -21 37.7646 7.92583   1
  -2   0  21 51.8378 12.7165   1
   2   0 -21 32.1730 7.17421   3
   1   0 -21 95.4395 11.2935   3
  -1   0  21 109.979 17.6418   1
   1   0 -21 113.386 12.3352   1
   0   0  21 526.436 41.3712   1
   0   0 -21 483.867 32.7825   3
   0   0 -21 469.154 33.2412   1
  -1   0 -21 470.905 33.0672   1
   1   0  21 513.270 41.9813   1
   4  -1 -21 250.774 20.4755   3
   4  -1 -21 261.018 21.3159   1
   4   1 -21 274.084 22.2803   3
  -3  -1  21 133.410 20.4581   1
   3  -1 -21 147.416 14.3408   1
   3  -1 -21 129.316 13.2418   3
   3   1 -21 131.314 15.3173   1
   3   1 -21 138.613 14.6050   3
   2  -1 -21 235.932 18.9488   3
  -2  -1  21 275.308 26.9931   1
   2  -1 -21 222.274 19.2461   1
   2   1 -21 255.455 20.9472   1
   2   1 -21 256.426 20.3006   3
   1  -1 -21 113.968 12.5304   1
  -1  -1  21 115.425 18.2102   1
   1  -1 -21 124.131 12.1864   3
   1   1 -21 108.201 12.6205   1
  -1   1  21 113.727 17.5661   1
   1   1 -21 108.495 12.3817   3
   0  -1 -21 173.661 14.5843   3
   0  -1  21 184.044 22.1218   1
   0  -1 -21 166.017 15.0383   1
   0   1 -21 136.538 14.5188   1
   0   1  21 137.209 20.6615   1
  -1  -1 -21 113.229 12.6783   1
   1  -1  21 115.364 19.6143   1
   1   1  21 109.831 18.7381   1
   3  -2 -21 23.1722 6.58093   3
   3  -2 -21 20.9732 6.59701   1
  -3  -2  21 25.1733 12.1541   1
   3   2 -21 30.8096 8.11158   3
   3   2 -21 29.8731 8.34066   1
  -2  -2  21 135.808 20.3951   1
   2  -2 -21 150.429 14.2644   1
   2  -2 -21 149.410 13.7570   3
   2   2 -21 129.388 15.4632   1
   2   2 -21 120.374 14.2131   3
   1  -2 -21 188.601 16.7039   3
   1  -2 -21 190.926 17.4649   1
  -1  -2  21 209.570 23.9493   1
   1   2 -21 224.589 18.7857   1
   0  -2  21 318.685 30.4994   1
   0  -2 -21 290.838 23.6559   1
   0  -2 -21 309.096 23.0981   3
   0   2  21 328.718 30.3811   1
  -1  -2 -21 105.410 12.6206   1
   1  -2  21 82.8656 16.3363   1
   1   2  21 70.0865 16.1046   1
   2  -3 -21 206.011 18.3652   1
  -2  -3  21 230.643 26.9989   1
   2  -3 -21 202.166 17.4949   3
   2   3 -21 211.990 20.9049   1
   1  -3 -21 101.229 13.0832   1
  -1  -3  21 117.966 19.4010   1
   3   0 -22 138.770 15.5121   1
   3   0 -22 139.573 14.2853   3
   2   0 -22 197.245 17.6691   3
   2   0 -22 214.042 18.3845   1
  -2   0  22 202.690 25.5561   1
   1   0 -22 567.246 38.1559   1
   1   0 -22 545.827 37.1689   3
  -1   0  22 556.212 44.1562   1
   0   0  22 219.240 25.7692   1
   0   0 -22 201.979 17.7712   1
   2  -1 -22 13.2331 6.16752   3
  -2  -1  22 12.2736 9.96535   1
   2  -1 -22 11.7426 5.80184   1
   2   1 -22 13.7168 6.63750   3
   2   1 -22 6.25701 6.22440   1
   1  -1 -22 68.7217 9.56706   3
   1  -1 -22 67.4872 10.0063   1
  -1  -1  22 88.3709 16.5149   1
   1   1 -22 60.1066 10.1018   1
  -1   1  22 63.7850 15.8735   1
   0  -1 -22 10.3645 6.19924   1
   0  -1 -22 14.2865 6.25066   3
   0  -1  22 10.6664 10.2068   1
   0   1 -22 -1.7375 5.32170   1
   0   1  22 -0.4737 8.89551   1
   0   0   0    0.00    0.00   0

 _exptl_absorpt_process_details 'SADABS 2014/4'
 _exptl_absorpt_correction_type   multiscan
 _exptl_absorpt_correction_T_max  0.7454
 _exptl_absorpt_correction_T_min  0.5008
 _exptl_special_details
)
 The following wavelength and cell were deduced by SADABS from the
 direction cosines etc. They are given here for emergency use only:
 CELL 0.71057    6.475    6.904   18.068   89.970   99.362   90.017
)

;
_shelx_hkl_checksum              97882
loop_
_space_group_symop_operation_xyz
'x, y, z'
'-x, y+1/2, -z'
loop_
_atom_site_label
_atom_site_type_symbol
_atom_site_fract_x
_atom_site_fract_y
_atom_site_fract_z
_atom_site_U_iso_or_equiv
_atom_site_adp_type
_atom_site_occupancy
_atom_site_site_symmetry_order
_atom_site_calc_flag
_atom_site_refinement_flags_posn
_atom_site_refinement_flags_adp
_atom_site_refinement_flags_occupancy
_atom_site_disorder_assembly
_atom_site_disorder_group
Br1 Br 1.04391(5) 0.24985(8) 1.16284(2) 0.02261(12) Uani 1 1 d . . . . .
O1 O 0.5133(4) -0.0933(4) 0.72002(15) 0.0184(6) Uani 1 1 d . . . . .
O2 O 0.7875(5) 0.5258(5) 0.50787(16) 0.0269(7) Uani 1 1 d . . . . .
N1 N 0.5989(5) -0.1058(5) 0.65454(18) 0.0193(7) Uani 1 1 d . . . . .
C1 C 0.8898(5) 0.2301(8) 1.06461(18) 0.0182(8) Uani 1 1 d . . . . .
C2 C 0.9890(6) 0.2886(6) 1.0058(2) 0.0197(10) Uani 1 1 d . . . . .
H16 H 1.1284 0.3362 1.0152 0.024 Uiso 1 1 calc R U . . .
C3 C 0.8822(6) 0.2769(7) 0.93318(19) 0.0179(9) Uani 1 1 d . . . . .
H2 H 0.9503 0.3167 0.8929 0.021 Uiso 1 1 calc R U . . .
C4 C 0.6769(6) 0.2082(5) 0.9175(2) 0.0157(9) Uani 1 1 d . . . . .
C5 C 0.5683(6) 0.1992(5) 0.8396(2) 0.0161(9) Uani 1 1 d . . . . .
C6 C 0.6129(6) 0.3014(5) 0.7820(2) 0.0173(9) Uani 1 1 d . . . . .
H5 H 0.7270 0.3891 0.7853 0.021 Uiso 1 1 calc R U . . .
C7 C 0.4616(5) 0.2627(9) 0.71076(17) 0.0153(8) Uani 1 1 d . . . . .
C8 C 0.5697(4) 0.2466(9) 0.64234(16) 0.0143(6) Uani 1 1 d . . . . .
C9 C 0.6272(7) 0.4010(7) 0.6053(3) 0.0182(10) Uani 1 1 d . . . . .
H10 H 0.5979 0.5269 0.6220 0.022 Uiso 1 1 calc R U . . .
C10 C 0.7342(7) 0.3821(8) 0.5394(3) 0.0200(10) Uani 1 1 d . . . . .
C11 C 0.7688(6) 0.1854(7) 0.5147(2) 0.0227(11) Uani 1 1 d . . . . .
H1 H 0.8289 0.1672 0.4706 0.027 Uiso 1 1 calc R U . . .
C12 C 0.5835(6) 0.1454(6) 0.9783(2) 0.0169(8) Uani 1 1 d . . . . .
H4 H 0.4457 0.0938 0.9690 0.020 Uiso 1 1 calc R U . . .
C13 C 0.6885(6) 0.1570(6) 1.0518(2) 0.0174(8) Uani 1 1 d . . . . .
H3 H 0.6228 0.1154 1.0924 0.021 Uiso 1 1 calc R U . . .
C14 C 0.3816(6) 0.0691(6) 0.8145(2) 0.0176(9) Uani 1 1 d . . . . .
H15 H 0.2526 0.1235 0.8291 0.021 Uiso 1 1 calc R U . . .
H14 H 0.4052 -0.0625 0.8359 0.021 Uiso 1 1 calc R U . . .
C15 C 0.3680(7) 0.0661(6) 0.7289(2) 0.0163(9) Uani 1 1 d . . . . .
C16 C 0.6202(7) 0.0536(6) 0.6186(3) 0.0150(10) Uani 1 1 d . . . . .
C17 C 0.2946(7) 0.4233(7) 0.6993(2) 0.0223(10) Uani 1 1 d . . . . .
H7 H 0.2157 0.4223 0.7412 0.033 Uiso 1 1 calc R U . . .
H6 H 0.1989 0.4005 0.6523 0.033 Uiso 1 1 calc R U . . .
H8 H 0.3630 0.5493 0.6971 0.033 Uiso 1 1 calc R U . . .
C18 C 0.7187(7) 0.0307(7) 0.5520(3) 0.0218(10) Uani 1 1 d . . . . .
H9 H 0.7472 -0.0953 0.5352 0.026 Uiso 1 1 calc R U . . .
C19 C 0.1572(6) 0.0152(7) 0.6831(2) 0.0227(9) Uani 1 1 d . . . . .
H11 H 0.1668 0.0211 0.6296 0.034 Uiso 1 1 calc R U . . .
H13 H 0.0515 0.1076 0.6943 0.034 Uiso 1 1 calc R U . . .
H12 H 0.1173 -0.1160 0.6959 0.034 Uiso 1 1 calc R U . . .
loop_
_atom_site_aniso_label
_atom_site_aniso_U_11
_atom_site_aniso_U_22
_atom_site_aniso_U_33
_atom_site_aniso_U_23
_atom_site_aniso_U_13
_atom_site_aniso_U_12
Br1 0.0291(2) 0.0230(2) 0.01300(16) -0.0029(2) -0.00491(12) 0.0068(2)
O1 0.0252(15) 0.0138(15) 0.0155(14) 0.0009(11) 0.0009(11) -0.0006(11)
O2 0.0265(16) 0.0347(19) 0.0202(15) 0.0049(14) 0.0061(13) -0.0062(14)
N1 0.0201(17) 0.020(2) 0.0163(17) -0.0046(15) -0.0014(13) 0.0014(14)
C1 0.0225(17) 0.016(2) 0.0147(15) -0.003(2) -0.0028(12) 0.006(2)
C2 0.0214(18) 0.017(3) 0.0189(17) -0.0013(16) -0.0021(14) -0.0025(15)
C3 0.0247(18) 0.013(3) 0.0157(16) 0.0021(17) 0.0034(13) -0.0032(17)
C4 0.0217(18) 0.012(3) 0.0129(16) 0.0003(15) 0.0008(13) 0.0017(14)
C5 0.0170(18) 0.016(3) 0.0144(17) -0.0010(14) -0.0007(14) 0.0003(14)
C6 0.0203(18) 0.016(2) 0.0151(17) -0.0032(15) 0.0018(14) -0.0035(14)
C7 0.0178(15) 0.016(2) 0.0116(14) 0.000(2) 0.0005(12) -0.003(2)
C8 0.0138(14) 0.0180(17) 0.0097(13) 0.000(3) -0.0021(11) 0.000(2)
C9 0.019(2) 0.019(2) 0.016(2) -0.0034(19) -0.0015(17) 0.0002(17)
C10 0.016(2) 0.030(3) 0.013(2) 0.003(2) -0.0001(16) -0.003(2)
C11 0.018(2) 0.034(3) 0.016(2) -0.0033(17) 0.0034(16) 0.0021(16)
C12 0.0173(19) 0.014(2) 0.019(2) -0.0018(16) 0.0018(15) -0.0004(16)
C13 0.023(2) 0.017(2) 0.0136(18) -0.0005(16) 0.0048(15) 0.0038(16)
C14 0.021(2) 0.020(2) 0.0110(18) 0.0015(16) -0.0001(15) -0.0038(16)
C15 0.017(2) 0.019(2) 0.012(2) 0.0017(17) -0.0008(16) -0.0003(16)
C16 0.013(2) 0.018(2) 0.013(2) -0.0015(17) -0.0013(16) -0.0002(16)
C17 0.028(3) 0.022(2) 0.019(2) 0.0040(19) 0.0078(19) 0.0044(19)
C18 0.017(2) 0.029(3) 0.018(2) -0.008(2) -0.0013(17) 0.0035(19)
C19 0.019(2) 0.031(3) 0.017(2) -0.0020(19) 0.0001(16) -0.0077(18)
loop_
_atom_type_symbol
_atom_type_description
_atom_type_scat_dispersion_real
_atom_type_scat_dispersion_imag
_atom_type_scat_source
C C 0.0033 0.0016 'International Tables Vol C Tables 4.2.6.8 and 6.1.1.4'
H H 0.0000 0.0000 'International Tables Vol C Tables 4.2.6.8 and 6.1.1.4'
N N 0.0061 0.0033 'International Tables Vol C Tables 4.2.6.8 and 6.1.1.4'
O O 0.0106 0.0060 'International Tables Vol C Tables 4.2.6.8 and 6.1.1.4'
Br Br -0.2901 2.4595 'International Tables Vol C Tables 4.2.6.8 and 6.1.1.4'
loop_
_geom_angle_atom_site_label_1
_geom_angle_atom_site_label_2
_geom_angle_atom_site_label_3
_geom_angle
_geom_angle_site_symmetry_1
_geom_angle_site_symmetry_3
_geom_angle_publ_flag
N1 O1 C15 119.3(3) . . ?
C16 N1 O1 117.6(3) . . ?
C13 C1 C2 121.2(3) . . ?
C13 C1 Br1 121.5(3) . . ?
C2 C1 Br1 117.3(3) . . ?
C3 C2 C1 119.2(4) . . ?
C3 C2 H16 120.4 . . ?
C1 C2 H16 120.4 . . ?
C2 C3 C4 121.7(3) . . ?
C2 C3 H2 119.1 . . ?
C4 C3 H2 119.1 . . ?
C3 C4 C12 117.5(3) . . ?
C3 C4 C5 120.1(3) . . ?
C12 C4 C5 122.4(3) . . ?
C6 C5 C4 126.7(3) . . ?
C6 C5 C14 110.1(3) . . ?
C4 C5 C14 123.1(3) . . ?
C5 C6 C7 112.4(3) . . ?
C5 C6 H5 123.8 . . ?
C7 C6 H5 123.8 . . ?
C6 C7 C8 112.7(3) . . ?
C6 C7 C17 109.4(4) . . ?
C8 C7 C17 110.4(4) . . ?
C6 C7 C15 101.4(3) . . ?
C8 C7 C15 110.9(4) . . ?
C17 C7 C15 111.8(3) . . ?
C9 C8 C16 119.1(3) . . ?
C9 C8 C7 123.3(5) . . ?
C16 C8 C7 117.6(5) . . ?
C8 C9 C10 122.4(4) . . ?
C8 C9 H10 118.8 . . ?
C10 C9 H10 118.8 . . ?
O2 C10 C11 123.0(4) . . ?
O2 C10 C9 120.6(5) . . ?
C11 C10 C9 116.4(4) . . ?
C18 C11 C10 122.0(4) . . ?
C18 C11 H1 119.0 . . ?
C10 C11 H1 119.0 . . ?
C13 C12 C4 121.5(4) . . ?
C13 C12 H4 119.2 . . ?
C4 C12 H4 119.2 . . ?
C1 C13 C12 118.8(3) . . ?
C1 C13 H3 120.6 . . ?
C12 C13 H3 120.6 . . ?
C5 C14 C15 102.9(3) . . ?
C5 C14 H15 111.2 . . ?
C15 C14 H15 111.2 . . ?
C5 C14 H14 111.2 . . ?
C15 C14 H14 111.2 . . ?
H15 C14 H14 109.1 . . ?
O1 C15 C19 107.5(3) . . ?
O1 C15 C14 100.7(3) . . ?
C19 C15 C14 116.9(3) . . ?
O1 C15 C7 110.8(3) . . ?
C19 C15 C7 115.9(3) . . ?
C14 C15 C7 104.0(3) . . ?
N1 C16 C8 125.6(4) . . ?
N1 C16 C18 114.7(4) . . ?
C8 C16 C18 119.5(4) . . ?
C7 C17 H7 109.5 . . ?
C7 C17 H6 109.5 . . ?
H7 C17 H6 109.5 . . ?
C7 C17 H8 109.5 . . ?
H7 C17 H8 109.5 . . ?
H6 C17 H8 109.5 . . ?
C11 C18 C16 120.4(4) . . ?
C11 C18 H9 119.8 . . ?
C16 C18 H9 119.8 . . ?
C15 C19 H11 109.5 . . ?
C15 C19 H13 109.5 . . ?
H11 C19 H13 109.5 . . ?
C15 C19 H12 109.5 . . ?
H11 C19 H12 109.5 . . ?
H13 C19 H12 109.5 . . ?
loop_
_geom_bond_atom_site_label_1
_geom_bond_atom_site_label_2
_geom_bond_distance
_geom_bond_site_symmetry_2
_geom_bond_publ_flag
Br1 C1 1.896(3) . ?
O1 N1 1.388(4) . ?
O1 C15 1.474(5) . ?
O2 C10 1.222(6) . ?
N1 C16 1.297(6) . ?
C1 C13 1.382(6) . ?
C1 C2 1.388(5) . ?
C2 C3 1.383(5) . ?
C2 H16 0.9500 . ?
C3 C4 1.397(5) . ?
C3 H2 0.9500 . ?
C4 C12 1.405(5) . ?
C4 C5 1.471(5) . ?
C5 C6 1.327(5) . ?
C5 C14 1.516(5) . ?
C6 C7 1.511(5) . ?
C6 H5 0.9500 . ?
C7 C8 1.521(4) . ?
C7 C17 1.539(6) . ?
C7 C15 1.543(7) . ?
C8 C9 1.344(7) . ?
C8 C16 1.453(7) . ?
C9 C10 1.477(6) . ?
C9 H10 0.9500 . ?
C10 C11 1.458(7) . ?
C11 C18 1.331(7) . ?
C11 H1 0.9500 . ?
C12 C13 1.395(6) . ?
C12 H4 0.9500 . ?
C13 H3 0.9500 . ?
C14 C15 1.536(5) . ?
C14 H15 0.9900 . ?
C14 H14 0.9900 . ?
C15 C19 1.518(6) . ?
C16 C18 1.458(6) . ?
C17 H7 0.9800 . ?
C17 H6 0.9800 . ?
C17 H8 0.9800 . ?
C18 H9 0.9500 . ?
C19 H11 0.9800 . ?
C19 H13 0.9800 . ?
C19 H12 0.9800 . ?
