#------------------------------------------------------------------------------
#$Date: 2019-11-24 23:07:31 +0200 (Sun, 24 Nov 2019) $
#$Revision: 239686 $
#$URL: file:///home/coder/svn-repositories/cod/cif/4/51/70/4517004.cif $
#------------------------------------------------------------------------------
#
# This file is available in the Crystallography Open Database (COD),
# http://www.crystallography.net/
#
# All data on this site have been placed in the public domain by the
# contributors.
#
data_4517004
loop_
_publ_author_name
'Wilson, Jedediah'
'Chen, Eugene Y.-X.'
_publ_section_title
;
 Organocatalytic Cross-Coupling of Biofuranics to Multifunctional
 Difuranic C11 Building Blocks
;
_journal_issue                   9
_journal_name_full               'ACS Sustainable Chemistry &amp; Engineering'
_journal_page_first              4927
_journal_paper_doi               10.1021/acssuschemeng.6b01235
_journal_volume                  4
_journal_year                    2016
_chemical_formula_moiety         'C11 H10 O5'
_chemical_formula_sum            'C11 H10 O5'
_chemical_formula_weight         222.19
_space_group_crystal_system      triclinic
_space_group_IT_number           2
_space_group_name_Hall           '-P 1'
_space_group_name_H-M_alt        'P -1'
_atom_sites_solution_hydrogens   geom
_audit_creation_method           SHELXL-2014/7
_cell_angle_alpha                96.036(3)
_cell_angle_beta                 92.324(4)
_cell_angle_gamma                104.799(3)
_cell_formula_units_Z            2
_cell_length_a                   5.6317(6)
_cell_length_b                   7.7476(8)
_cell_length_c                   11.7256(13)
_cell_measurement_reflns_used    7534
_cell_measurement_temperature    120(2)
_cell_measurement_theta_max      29.68
_cell_measurement_theta_min      2.74
_cell_volume                     490.69(9)
_computing_cell_refinement       'Bruker SAINT'
_computing_data_collection       'Bruker APEX2'
_computing_data_reduction        'Bruker SAINT'
_computing_molecular_graphics    'Bruker SHELXTL'
_computing_publication_material  'Bruker SHELXTL'
_computing_structure_refinement  'SHELXL-2014/7 (Sheldrick, 2014)'
_computing_structure_solution    'SHELXS-97 (Sheldrick 2008)'
_diffrn_ambient_temperature      120(2)
_diffrn_measured_fraction_theta_full 0.992
_diffrn_measured_fraction_theta_max 0.992
_diffrn_measurement_device_type  'Bruker APEX-II CCD'
_diffrn_measurement_method       '\f and \w scans'
_diffrn_radiation_type           MoK\a
_diffrn_radiation_wavelength     0.71073
_diffrn_reflns_av_R_equivalents  0.0252
_diffrn_reflns_av_unetI/netI     0.0151
_diffrn_reflns_Laue_measured_fraction_full 0.992
_diffrn_reflns_Laue_measured_fraction_max 0.992
_diffrn_reflns_limit_h_max       6
_diffrn_reflns_limit_h_min       -6
_diffrn_reflns_limit_k_max       9
_diffrn_reflns_limit_k_min       -9
_diffrn_reflns_limit_l_max       13
_diffrn_reflns_limit_l_min       -13
_diffrn_reflns_number            10532
_diffrn_reflns_point_group_measured_fraction_full 0.992
_diffrn_reflns_point_group_measured_fraction_max 0.992
_diffrn_reflns_theta_full        24.709
_diffrn_reflns_theta_max         24.709
_diffrn_reflns_theta_min         1.751
_exptl_absorpt_coefficient_mu    0.120
_exptl_absorpt_correction_T_max  0.7458
_exptl_absorpt_correction_T_min  0.6671
_exptl_absorpt_correction_type   multi-scan
_exptl_absorpt_process_details   'SCALE (Bruker, 2009)'
_exptl_crystal_colour            colourless
_exptl_crystal_density_diffrn    1.504
_exptl_crystal_density_meas      ?
_exptl_crystal_density_method    'not measured'
_exptl_crystal_description       rod
_exptl_crystal_F_000             232
_exptl_crystal_size_max          0.556
_exptl_crystal_size_mid          0.146
_exptl_crystal_size_min          0.087
_refine_diff_density_max         0.451
_refine_diff_density_min         -0.324
_refine_diff_density_rms         0.061
_refine_ls_extinction_method     none
_refine_ls_goodness_of_fit_ref   1.089
_refine_ls_hydrogen_treatment    constr
_refine_ls_matrix_type           full
_refine_ls_number_parameters     147
_refine_ls_number_reflns         1658
_refine_ls_number_restraints     0
_refine_ls_restrained_S_all      1.089
_refine_ls_R_factor_all          0.0461
_refine_ls_R_factor_gt           0.0404
_refine_ls_shift/su_max          0.000
_refine_ls_shift/su_mean         0.000
_refine_ls_structure_factor_coef Fsqd
_refine_ls_weighting_details
'w=1/[\s^2^(Fo^2^)+(0.0561P)^2^+0.5512P] where P=(Fo^2^+2Fc^2^)/3'
_refine_ls_weighting_scheme      calc
_refine_ls_wR_factor_gt          0.1078
_refine_ls_wR_factor_ref         0.1221
_reflns_Friedel_coverage         0.000
_reflns_number_gt                1490
_reflns_number_total             1658
_reflns_threshold_expression     'I > 2\s(I)'
_cod_data_source_file            sc6b01235_si_001.cif
_cod_data_source_block           ec104
_cod_depositor_comments
;
The following automatic conversions were performed:

data item '_exptl_crystal_density_meas' value 'not measured' was
changed to '?' -- the value is perceived as not measured.

Automatic conversion script
Id: cif_fix_values 6909 2019-04-08 15:41:33Z antanas 
;
_cod_database_code               4517004
_shelx_shelxl_version_number     2014/7
_shelx_space_group_comment
; 
The symmetry employed for this shelxl refinement is uniquely defined 
by the following loop, which should always be used as a source of 
symmetry information in preference to the above space-group names. 
They are only intended as comments. 
;
_shelx_estimated_absorpt_t_min   0.936
_shelx_estimated_absorpt_t_max   0.990
_shelx_res_file
; 
  
    ec104.res created by SHELXL-2014/7 
  
  
TITL ec104 in P-1 
CELL 0.71073   5.63170   7.74760  11.72560  96.0365  92.3235 104.7992 
ZERR    2.00   0.00060   0.00080   0.00130   0.0033   0.0036   0.0032 
LATT 1 
SFAC C  H  O 
UNIT 22  20  10 
L.S. 10 
BOND 
ACTA 
FMAP 2 
PLAN 2 
SIZE 0.087 0.146 0.556 
TEMP -153.15 
WGHT    0.056100    0.551200 
FVAR       0.43568 
C1    1    0.413134    1.256834    0.944726    11.00000    0.02013    0.01534 = 
         0.01882    0.00245    0.00357    0.00377 
AFIX  23 
H1A   2    0.346609    1.341572    0.994925    11.00000   -1.20000 
H1B   2    0.521119    1.207790    0.993736    11.00000   -1.20000 
AFIX   0 
C2    1    0.206069    1.107259    0.890819    11.00000    0.02034    0.01306 = 
         0.01693    0.00375    0.00441    0.00588 
C3    1   -0.035454    1.094041    0.868023    11.00000    0.01940    0.01659 = 
         0.02898    0.00392    0.00418    0.00813 
AFIX  43 
H3    2   -0.116174    1.186718    0.883943    11.00000   -1.20000 
AFIX   0 
C4    1   -0.146777    0.915491    0.815709    11.00000    0.01406    0.01821 = 
         0.02966    0.00352   -0.00061    0.00340 
AFIX  43 
H4    2   -0.314939    0.866513    0.789706    11.00000   -1.20000 
AFIX   0 
C5    1    0.033674    0.829692    0.810377    11.00000    0.01422    0.01558 = 
         0.01974    0.00317    0.00075    0.00030 
C6    1    0.031305    0.638996    0.771315    11.00000    0.01589    0.01520 = 
         0.02553    0.00355   -0.00121    0.00262 
AFIX  13 
H6    2   -0.132263    0.578308    0.729888    11.00000   -1.20000 
AFIX   0 
C7    1    0.231312    0.627954    0.688214    11.00000    0.01848    0.01022 = 
         0.02464   -0.00247   -0.00343    0.00132 
C8    1    0.212236    0.699303    0.579818    11.00000    0.03053    0.01676 = 
         0.02282   -0.00219    0.00021    0.00387 
C9    1    0.027905    0.757697    0.534112    11.00000    0.03026    0.02525 = 
         0.01972    0.00498    0.00664    0.01700 
AFIX  43 
H9    2   -0.118718    0.765741    0.569109    11.00000   -1.20000 
AFIX   0 
C10   1    0.093267    0.804323    0.425221    11.00000    0.05344    0.03484 = 
         0.02868    0.00870   -0.00192    0.01758 
AFIX  43 
H10   2   -0.001657    0.848865    0.372288    11.00000   -1.20000 
AFIX   0 
C11   1    0.313650    0.774565    0.409626    11.00000    0.05234    0.03300 = 
         0.02616    0.00165    0.01241    0.00751 
AFIX  43 
H11   2    0.402844    0.795370    0.343159    11.00000   -1.20000 
AFIX   0 
O1    3    0.557636    1.353391    0.861910    11.00000    0.01935    0.01820 = 
         0.02481    0.00713    0.00355    0.00406 
AFIX 147 
H1    2    0.471998    1.407187    0.826110    11.00000   -1.50000 
AFIX   0 
O2    3    0.254951    0.944376    0.855632    11.00000    0.01433    0.01302 = 
         0.02162    0.00115    0.00051    0.00364 
O3    3    0.063637    0.542134    0.864890    11.00000    0.02564    0.01835 = 
         0.03154    0.01062    0.00413    0.00342 
AFIX 147 
H3A   2   -0.074436    0.483264    0.882299    11.00000   -1.50000 
AFIX   0 
O4    3    0.401281    0.562976    0.711975    11.00000    0.01918    0.02553 = 
         0.03015    0.00222   -0.00097    0.00931 
O5    3    0.392013    0.708286    0.506075    11.00000    0.03874    0.04073 = 
         0.04453    0.00362    0.00586    0.01069 
HKLF 4 
  
REM  ec104 in P-1 
REM R1 =  0.0404 for    1490 Fo > 4sig(Fo)  and  0.0461 for all    1658 data 
REM    147 parameters refined using      0 restraints 
  
END 
  
WGHT      0.0543      0.5587 
  
REM Highest difference peak  0.451,  deepest hole -0.324,  1-sigma level  0.061 
Q1    1   0.1105  0.8139  0.5590  11.00000  0.05    0.45 
Q2    1   0.0407  0.7042  0.5398  11.00000  0.05    0.42 
;
_shelx_res_checksum              66469
_shelx_hkl_file
; 
  -1   0   0  137.66    2.74 
  -1   0   0  132.07    2.63 
   1   0   0  134.75    2.73 
   1   0   0  134.18    2.64 
   1   0   0  135.64    2.73 
  -2   0   0   82.12    1.76 
  -2   0   0   83.95    1.66 
   2   0   0   84.36    1.92 
   2   0   0   85.05    1.71 
   2   0   0   85.10    1.74 
  -3   0   0   23.25    0.60 
   3   0   0   24.65    0.83 
   3   0   0   24.34    0.59 
   3   0   0   23.65    0.76 
  -4   0   0    8.26    0.32 
  -4   0   0    8.11    0.31 
   4   0   0    7.41    0.30 
   4   0   0    7.94    0.50 
   4   0   0    8.62    0.46 
  -5   0   0   43.10    1.05 
   5   0   0   43.31    1.47 
   5   0   0   43.06    1.27 
   5   0   0   42.27    1.04 
   5   0   0   43.20    1.34 
  -6   0   0   15.74    0.50 
   6   0   0   15.74    0.92 
   6   0   0   15.49    0.54 
   6   0   0   16.01    0.81 
   6  -1   0    1.15    0.35 
   6  -1   0    1.14    0.21 
   6  -1   0    0.90    0.26 
  -6   1   0    1.52    0.24 
   5  -1   0   65.44    1.64 
   5  -1   0   60.82    1.50 
   5  -1   0   63.23    1.90 
   5  -1   0   65.27    1.74 
  -5   1   0   61.53    1.53 
   4  -1   0    0.10    0.12 
   4  -1   0    0.23    0.11 
   4  -1   0    0.15    0.10 
   4  -1   0    0.32    0.17 
  -4   1   0    0.18    0.14 
  -4   1   0    0.15    0.12 
   3  -1   0   69.46    1.80 
   3  -1   0   69.24    1.53 
   3  -1   0   68.43    1.66 
   3  -1   0   69.43    1.55 
  -3   1   0   71.12    1.59 
  -3   1   0   68.29    1.58 
   2  -1   0   83.00    2.01 
   2  -1   0   80.54    1.88 
   2  -1   0   85.22    1.90 
   2  -1   0   84.26    1.78 
   2  -1   0   88.34    1.83 
  -2   1   0   84.45    1.84 
  -2   1   0   84.88    1.84 
   1  -1   0   58.21    1.31 
   1  -1   0   56.85    1.27 
   1  -1   0   57.88    1.34 
   1  -1   0   56.77    1.26 
   1  -1   0   56.75    1.25 
   1  -1   0   57.52    1.26 
   1  -1   0   58.10    1.21 
   1  -1   0   57.58    1.27 
  -1   1   0   56.63    1.25 
  -1   1   0   56.04    1.31 
  -1   1   0   56.20    1.26 
  -1   1   0   56.79    1.28 
  -1   1   0   58.05    1.35 
  -1   1   0   57.08    1.27 
  -1   1   0   55.95    1.21 
  -1   1   0   59.21    1.26 
   0  -1   0   -0.10    0.05 
   0  -1   0   -0.09    0.05 
   0  -1   0   -0.22    0.04 
   0  -1   0   -0.16    0.04 
   0  -1   0   -0.18    0.04 
   0  -1   0   -0.19    0.04 
   0   1   0   -0.14    0.05 
   0   1   0   -0.18    0.04 
   0   1   0   -0.17    0.03 
   0   1   0   -0.03    0.05 
   0   1   0   -0.10    0.05 
  -1  -1   0  693.53   13.94 
   1   1   0  687.86   13.85 
   1   1   0  685.77   13.88 
   1   1   0  683.88   13.47 
  -2  -1   0   97.21    1.98 
  -2  -1   0   96.54    1.98 
   2   1   0   96.51    1.92 
  -3  -1   0   17.82    0.44 
  -3  -1   0   17.77    0.44 
   3   1   0   17.04    0.42 
  -4  -1   0   35.43    0.79 
  -4  -1   0   34.70    0.79 
   4   1   0   33.79    1.11 
   4   1   0   33.88    0.78 
   5   1   0   15.15    0.75 
   5   1   0   14.76    0.43 
   5   1   0   16.64    0.86 
   5   1   0   15.85    0.71 
   6   1   0   25.44    1.02 
   6   1   0   22.85    1.13 
   6  -2   0    0.11    0.30 
   6  -2   0   -0.01    0.17 
   6  -2   0   -0.15    0.16 
   6  -2   0    0.28    0.28 
  -6   2   0    0.06    0.20 
   5  -2   0    2.61    0.29 
   5  -2   0    3.10    0.33 
   5  -2   0    2.57    0.40 
  -5   2   0    3.06    0.34 
   4  -2   0   49.26    1.17 
   4  -2   0   48.35    1.24 
   4  -2   0   50.11    1.48 
   4  -2   0   49.56    1.24 
   4  -2   0   48.92    1.31 
  -4   2   0   47.50    1.27 
   3  -2   0    0.72    0.14 
   3  -2   0    0.48    0.19 
   3  -2   0    0.81    0.16 
   3  -2   0    0.76    0.16 
   3  -2   0    0.38    0.08 
  -3   2   0    0.62    0.16 
   2  -2   0   62.70    1.40 
   2  -2   0   60.19    1.44 
   2  -2   0   62.15    1.44 
   2  -2   0   60.14    1.62 
   2  -2   0   62.17    1.41 
   2  -2   0   61.75    1.56 
  -2   2   0   61.74    1.49 
  -2   2   0   62.04    1.45 
  -2   2   0   61.71    1.53 
  -2   2   0   62.66    1.40 
   1  -2   0  240.08    5.25 
   1  -2   0  240.84    5.45 
   1  -2   0  235.86    5.28 
   1  -2   0  247.84    5.28 
   1  -2   0  243.51    5.06 
   1  -2   0  241.43    4.98 
   1  -2   0  245.59    4.82 
  -1   2   0  241.22    5.28 
  -1   2   0  236.02    4.97 
  -1   2   0  231.85    4.96 
  -1   2   0  240.91    5.05 
  -1   2   0  235.72    5.14 
   0  -2   0  111.79    2.37 
   0  -2   0  112.80    2.29 
   0  -2   0  114.68    2.56 
   0  -2   0  113.86    2.35 
   0  -2   0  113.72    2.42 
   0  -2   0  112.01    2.59 
   0  -2   0  109.02    2.37 
   0   2   0  108.46    2.58 
   0   2   0  113.26    2.30 
   0   2   0  114.60    2.37 
   0   2   0  109.06    2.46 
   0   2   0  109.58    2.58 
   0   2   0  110.24    2.35 
   0   2   0  109.22    2.42 
  -1  -2   0   36.59    0.86 
  -1  -2   0   37.25    0.87 
   1   2   0   37.90    0.89 
   1   2   0   37.93    0.95 
   1   2   0   36.71    0.83 
   1   2   0   37.38    0.85 
  -2  -2   0    3.78    0.17 
  -2  -2   0    3.88    0.18 
   2   2   0    3.82    0.16 
  -3  -2   0   26.46    0.60 
  -3  -2   0   26.44    0.61 
   3   2   0   26.38    0.60 
   3   2   0   26.23    0.60 
   4   2   0   44.48    0.95 
   4   2   0   44.58    1.41 
   5   2   0    3.97    0.47 
   5   2   0    4.64    0.45 
   6  -3   0    5.48    0.61 
   6  -3   0    6.53    0.73 
   6  -3   0    5.79    0.49 
   6  -3   0    5.28    0.45 
  -6   3   0    5.92    0.51 
   5  -3   0   12.89    0.59 
   5  -3   0   12.36    0.60 
   5  -3   0   11.26    0.70 
   5  -3   0   11.20    0.56 
   5  -3   0   12.12    0.78 
  -5   3   0   10.75    0.59 
   4  -3   0    4.93    0.36 
   4  -3   0    4.98    0.34 
   4  -3   0    5.16    0.46 
   4  -3   0    5.06    0.51 
   4  -3   0    5.00    0.37 
  -4   3   0    4.94    0.39 
   3  -3   0   42.40    1.15 
   3  -3   0   41.62    1.11 
   3  -3   0   43.07    0.98 
   3  -3   0   41.68    1.31 
   3  -3   0   40.34    1.25 
   3  -3   0   41.94    1.12 
  -3   3   0   42.87    1.25 
  -3   3   0   42.79    1.16 
   2  -3   0    0.16    0.13 
   2  -3   0   -0.04    0.14 
   2  -3   0   -0.05    0.17 
   2  -3   0    0.42    0.16 
   2  -3   0    0.12    0.14 
  -2   3   0   -0.08    0.13 
  -2   3   0    0.14    0.16 
  -2   3   0   -0.05    0.16 
  -2   3   0    0.34    0.11 
   1  -3   0  137.54    3.20 
   1  -3   0  135.66    2.86 
   1  -3   0  138.15    3.04 
   1  -3   0  132.76    3.15 
   1  -3   0  133.07    2.96 
  -1   3   0  137.31    2.94 
  -1   3   0  136.53    3.13 
  -1   3   0  136.53    3.07 
  -1   3   0  133.13    2.96 
   0  -3   0    2.02    0.24 
   0  -3   0    2.20    0.22 
   0  -3   0    1.82    0.12 
   0  -3   0    1.69    0.21 
   0   3   0    1.54    0.23 
   0   3   0    1.59    0.21 
   0   3   0    1.61    0.19 
   0   3   0    1.86    0.11 
   0   3   0    1.59    0.23 
  -1  -3   0   86.31    1.80 
  -1  -3   0   87.48    1.90 
  -1  -3   0   81.19    1.89 
   1   3   0   89.02    1.84 
   1   3   0   86.51    1.89 
   1   3   0   83.64    1.87 
   1   3   0   82.52    2.01 
   1   3   0   85.74    1.93 
  -2  -3   0   66.41    1.51 
   2   3   0   69.78    1.46 
   2   3   0   65.01    1.68 
   2   3   0   67.12    1.58 
  -3  -3   0    0.02    0.09 
  -3  -3   0   -0.02    0.08 
   3   3   0   -0.12    0.11 
   3   3   0   -0.11    0.18 
   3   3   0    0.01    0.07 
   4   3   0    7.04    0.53 
   4   3   0    7.24    0.46 
   4   3   0    5.99    0.22 
   5   3   0   46.38    1.44 
   5   3   0   45.52    1.60 
   6  -4   0    0.02    0.30 
   6  -4   0    0.66    0.41 
   6  -4   0    0.36    0.23 
   6  -4   0    0.17    0.22 
  -6   4   0    0.34    0.27 
   5  -4   0   13.67    0.65 
   5  -4   0   11.54    0.81 
   5  -4   0   13.33    0.62 
   5  -4   0   12.36    0.64 
   5  -4   0   11.21    0.73 
  -5   4   0   13.31    0.68 
   4  -4   0    0.70    0.19 
   4  -4   0    0.30    0.19 
   4  -4   0    0.72    0.25 
   4  -4   0    0.35    0.22 
   4  -4   0    0.45    0.20 
  -4   4   0    0.12    0.25 
  -4   4   0    0.59    0.21 
   3  -4   0  135.44    3.11 
   3  -4   0  139.20    3.03 
   3  -4   0  128.51    3.41 
   3  -4   0  134.17    3.32 
   3  -4   0  134.39    3.07 
  -3   4   0  136.46    3.26 
  -3   4   0  138.86    3.13 
  -3   4   0  133.77    3.15 
  -3   4   0  138.36    3.07 
   2  -4   0   22.81    0.79 
   2  -4   0   23.29    0.86 
   2  -4   0   23.33    0.83 
   2  -4   0   22.62    0.73 
  -2   4   0   23.01    0.85 
  -2   4   0   21.06    0.76 
  -2   4   0   23.78    0.72 
  -2   4   0   22.20    0.78 
   1  -4   0    5.73    0.39 
   1  -4   0    4.85    0.41 
   1  -4   0    5.68    0.35 
  -1   4   0    5.43    0.36 
  -1   4   0    4.43    0.35 
  -1   4   0    5.01    0.34 
  -1   4   0    5.00    0.34 
   0  -4   0    7.25    0.39 
   0  -4   0    7.91    0.37 
   0  -4   0    7.46    0.41 
   0   4   0    7.33    0.23 
   0   4   0    7.35    0.38 
   0   4   0    7.40    0.45 
   0   4   0    8.00    0.36 
   0   4   0    7.58    0.42 
  -1  -4   0    4.57    0.35 
  -1  -4   0    4.25    0.29 
  -1  -4   0    4.74    0.31 
   1   4   0    4.14    0.39 
   1   4   0    4.92    0.27 
   1   4   0    4.66    0.33 
   1   4   0    4.65    0.21 
   1   4   0    4.61    0.29 
  -2  -4   0    8.49    0.27 
  -2  -4   0    8.45    0.37 
  -2  -4   0    7.74    0.38 
   2   4   0    7.55    0.43 
   2   4   0    8.13    0.31 
   2   4   0    8.06    0.37 
   2   4   0    8.00    0.34 
   2   4   0    8.33    0.38 
   2   4   0    7.04    0.53 
  -3  -4   0    7.41    0.34 
   3   4   0    6.45    0.39 
   3   4   0    6.86    0.55 
   3   4   0    7.05    0.45 
  -4  -4   0   18.57    0.49 
   4   4   0   19.81    0.82 
   4   4   0   20.26    0.76 
   4   4   0   18.71    0.53 
   4   4   0   18.61    0.96 
   6  -5   0    2.66    0.52 
   6  -5   0    3.40    0.55 
   6  -5   0    3.22    0.47 
  -6   5   0    2.45    0.41 
   5  -5   0    8.41    0.69 
   5  -5   0    7.01    0.56 
   5  -5   0    7.44    0.71 
   5  -5   0    7.68    0.51 
   5  -5   0    8.08    0.57 
  -5   5   0    7.90    0.68 
  -5   5   0    7.38    0.60 
   4  -5   0   13.36    0.66 
   4  -5   0   14.05    0.60 
   4  -5   0   12.12    0.74 
   4  -5   0   13.31    0.68 
   4  -5   0   11.86    0.73 
  -4   5   0   11.98    0.70 
  -4   5   0   12.50    0.68 
   3  -5   0   15.86    0.70 
   3  -5   0   16.30    0.64 
   3  -5   0   14.98    0.74 
   3  -5   0   15.79    0.78 
   3  -5   0   16.06    0.72 
  -3   5   0   15.11    0.74 
  -3   5   0   16.53    0.75 
  -3   5   0   17.06    0.59 
  -3   5   0   16.76    0.73 
   2  -5   0   13.92    0.63 
   2  -5   0   13.02    0.61 
   2  -5   0   14.21    0.70 
   2  -5   0   13.33    0.64 
  -2   5   0   13.11    0.59 
  -2   5   0   13.37    0.57 
  -2   5   0   14.57    0.65 
  -2   5   0   12.68    0.66 
   1  -5   0   11.94    0.65 
   1  -5   0   12.05    0.56 
   1  -5   0   12.35    0.57 
   1  -5   0   12.67    0.61 
  -1   5   0   12.36    0.54 
  -1   5   0   11.01    0.55 
  -1   5   0   13.42    0.64 
  -1   5   0   12.10    0.59 
   0  -5   0    6.71    0.41 
   0  -5   0    7.17    0.42 
   0  -5   0    7.05    0.46 
   0   5   0    6.91    0.48 
   0   5   0    7.27    0.42 
   0   5   0    7.08    0.50 
   0   5   0    6.72    0.38 
  -1  -5   0    2.56    0.34 
  -1  -5   0    3.23    0.28 
   1   5   0    3.49    0.15 
   1   5   0    3.70    0.36 
   1   5   0    3.59    0.30 
   1   5   0    3.65    0.43 
   1   5   0    3.80    0.28 
  -2  -5   0    2.38    0.31 
   2   5   0    3.38    0.35 
   2   5   0    2.21    0.38 
   2   5   0    2.69    0.22 
   2   5   0    2.16    0.25 
  -3  -5   0   -0.02    0.15 
   3   5   0   -0.03    0.14 
   3   5   0    0.22    0.17 
   3   5   0    0.01    0.13 
   3   5   0   -0.34    0.25 
   4   5   0   10.69    0.82 
   4   5   0   10.23    0.56 
   4   5   0   10.88    0.42 
   4   5   0   10.59    0.64 
   5  -6   0   20.98    0.97 
   5  -6   0   24.55    1.03 
   5  -6   0   21.58    1.12 
   5  -6   0   23.87    0.89 
   5  -6   0   21.21    1.09 
  -5   6   0   23.55    1.05 
  -5   6   0   22.57    1.11 
   4  -6   0    1.63    0.29 
   4  -6   0    1.49    0.37 
   4  -6   0    1.85    0.35 
   4  -6   0    1.47    0.31 
   4  -6   0    1.72    0.42 
  -4   6   0    1.62    0.36 
  -4   6   0    1.52    0.42 
   3  -6   0   12.45    0.68 
   3  -6   0   12.16    0.70 
   3  -6   0   11.94    0.73 
   3  -6   0   13.05    0.71 
  -3   6   0   13.04    0.70 
  -3   6   0   13.14    0.71 
  -3   6   0   12.14    0.74 
  -3   6   0   13.16    0.59 
   2  -6   0    0.53    0.29 
   2  -6   0    0.19    0.20 
   2  -6   0   -0.11    0.28 
   2  -6   0   -0.10    0.22 
  -2   6   0    0.27    0.24 
  -2   6   0    0.11    0.20 
  -2   6   0   -0.08    0.18 
  -2   6   0    0.15    0.20 
   1  -6   0    9.99    0.59 
   1  -6   0   10.19    0.57 
   1  -6   0   11.18    0.69 
   1  -6   0   10.08    0.56 
  -1   6   0    9.64    0.59 
  -1   6   0    9.65    0.55 
  -1   6   0    9.82    0.52 
  -1   6   0    9.93    0.61 
   0  -6   0   18.28    0.79 
   0  -6   0   18.22    0.75 
   0  -6   0   19.80    0.72 
   0   6   0   20.42    0.84 
   0   6   0   19.13    0.75 
   0   6   0   18.08    0.69 
   0   6   0   17.95    0.86 
  -1  -6   0   10.44    0.58 
  -1  -6   0   10.37    0.47 
   1   6   0   10.18    0.50 
   1   6   0    8.51    0.66 
   1   6   0    9.79    0.59 
   1   6   0   10.62    0.50 
  -2  -6   0    4.46    0.42 
   2   6   0    5.41    0.38 
   2   6   0    4.21    0.54 
   2   6   0    5.00    0.49 
  -3  -6   0    6.13    0.44 
   3   6   0    5.89    0.42 
   3   6   0    6.47    0.54 
   3   6   0    6.58    0.66 
   5  -7   0    0.75    0.33 
   5  -7   0    0.40    0.36 
   5  -7   0    0.73    0.45 
   5  -7   0    1.64    0.42 
  -5   7   0    0.47    0.38 
  -5   7   0    0.73    0.34 
   4  -7   0    1.84    0.39 
   4  -7   0    2.28    0.47 
   4  -7   0    2.54    0.47 
   4  -7   0    2.68    0.45 
  -4   7   0    2.30    0.42 
  -4   7   0    3.12    0.53 
   3  -7   0    1.95    0.47 
   3  -7   0    2.23    0.38 
   3  -7   0    3.65    0.51 
   3  -7   0    2.89    0.46 
  -3   7   0    2.35    0.40 
  -3   7   0    2.80    0.41 
  -3   7   0    2.98    0.47 
  -3   7   0    2.78    0.47 
   2  -7   0    0.84    0.31 
   2  -7   0    0.57    0.26 
   2  -7   0    0.49    0.31 
   2  -7   0    0.52    0.29 
  -2   7   0    0.38    0.23 
  -2   7   0    0.62    0.26 
  -2   7   0    0.37    0.28 
  -2   7   0    0.53    0.26 
   1  -7   0   51.48    1.58 
   1  -7   0   53.10    1.51 
   1  -7   0   52.26    1.61 
  -1   7   0   51.18    1.49 
  -1   7   0   54.88    1.57 
  -1   7   0   50.71    1.65 
  -1   7   0   48.21    1.63 
   0  -7   0   13.54    0.74 
   0  -7   0   13.01    0.65 
   0   7   0   13.77    0.64 
   0   7   0   13.04    0.66 
   0   7   0   12.98    0.75 
   0   7   0   12.77    0.81 
  -1  -7   0    3.00    0.49 
   1   7   0    3.32    0.37 
   1   7   0    2.58    0.51 
   1   7   0    2.95    0.45 
  -2  -7   0    1.77    0.33 
   2   7   0    1.75    0.46 
   2   7   0    1.71    0.40 
   2   7   0    2.04    0.33 
   4  -8   0   20.83    1.18 
   4  -8   0   20.77    1.07 
   4  -8   0   21.51    1.12 
   4  -8   0   20.63    1.09 
  -4   8   0   20.34    1.12 
  -4   8   0   22.08    1.10 
   3  -8   0   11.88    0.81 
   3  -8   0   11.62    0.83 
   3  -8   0   12.48    0.83 
   3  -8   0   13.36    0.93 
  -3   8   0   13.84    0.83 
  -3   8   0   11.78    0.83 
  -3   8   0   12.03    0.72 
  -3   8   0   12.76    0.79 
   2  -8   0    0.55    0.34 
   2  -8   0   -0.21    0.28 
   2  -8   0    0.49    0.36 
   2  -8   0    0.11    0.28 
  -2   8   0    0.29    0.34 
  -2   8   0    0.53    0.30 
  -2   8   0    0.23    0.25 
  -2   8   0   -0.07    0.27 
   1  -8   0    1.56    0.36 
   1  -8   0    0.97    0.39 
   1  -8   0    1.18    0.28 
  -1   8   0    0.81    0.34 
  -1   8   0    1.35    0.32 
  -1   8   0    1.33    0.38 
  -1   8   0    1.72    0.36 
   0  -8   0    0.96    0.36 
   0   8   0    0.52    0.35 
   0   8   0    0.64    0.26 
   0   8   0    0.44    0.35 
  -1  -8   0    0.45    0.31 
   1   8   0    0.45    0.38 
   1   8   0    0.15    0.31 
   1   8   0   -0.14    0.22 
   2  -9   0    0.37    0.36 
   2  -9   0    0.28    0.35 
  -2   9   0   -0.12    0.32 
  -2   9   0    0.11    0.34 
  -2   9   0   -0.07    0.30 
   1  -9   0    0.41    0.39 
  -1   9   0   -0.39    0.26 
  -1   9   0    0.34    0.37 
  -1   9   0   -0.26    0.32 
  -1   9  -1    1.34    0.39 
  -1   9  -1    1.74    0.49 
  -1   9  -1    1.27    0.45 
   1  -9   1    0.99    0.42 
  -2   9  -1   -0.14    0.29 
  -2   9  -1    0.07    0.33 
  -2   9  -1   -0.47    0.23 
  -2   9  -1   -0.62    0.31 
   2  -9   1   -0.13    0.33 
   2  -9   1    0.21    0.42 
   2  -9   1   -0.02    0.32 
   1   8  -1    4.38    0.70 
   1   8  -1    5.48    0.64 
   1   8  -1    5.42    0.52 
  -1  -8   1    4.81    0.58 
   0   8  -1    6.54    0.54 
   0   8  -1    5.99    0.64 
   0   8  -1    6.14    0.67 
   0  -8   1    5.52    0.61 
  -1   8  -1   16.69    0.94 
  -1   8  -1   16.00    0.81 
  -1   8  -1   16.60    0.81 
  -1   8  -1   16.06    0.93 
   1  -8   1   17.29    0.74 
   1  -8   1   16.78    0.83 
   1  -8   1   18.11    0.95 
  -2   8  -1    1.11    0.36 
  -2   8  -1    1.63    0.34 
  -2   8  -1    0.80    0.33 
  -2   8  -1    1.30    0.34 
   2  -8   1    1.17    0.38 
   2  -8   1    0.93    0.29 
   2  -8   1    1.66    0.42 
   2  -8   1    0.46    0.29 
  -3   8  -1    0.37    0.23 
  -3   8  -1   -0.16    0.27 
  -3   8  -1    0.61    0.33 
  -3   8  -1    0.68    0.33 
   3  -8   1    0.76    0.41 
   3  -8   1    0.41    0.35 
   3  -8   1    0.43    0.34 
   3  -8   1    0.59    0.34 
  -4   8  -1    2.47    0.50 
  -4   8  -1    1.16    0.44 
  -4   8  -1    2.08    0.44 
   4  -8   1    2.35    0.49 
   4  -8   1    1.89    0.47 
   4  -8   1    1.56    0.50 
   4  -8   1    2.15    0.48 
   2   7  -1    3.83    0.65 
   2   7  -1    4.25    0.41 
   2   7  -1    5.05    0.56 
  -2  -7   1    3.92    0.49 
   1   7  -1   15.99    0.85 
   1   7  -1   15.53    0.95 
   1   7  -1   17.27    0.73 
  -1  -7   1   16.61    0.80 
   0   7  -1    1.63    0.38 
   0   7  -1    1.51    0.35 
   0   7  -1    1.63    0.31 
   0   7  -1    1.85    0.31 
   0  -7   1    1.24    0.31 
   0  -7   1    1.37    0.26 
  -1   7  -1    3.50    0.46 
  -1   7  -1    2.66    0.41 
  -1   7  -1    3.61    0.41 
  -1   7  -1    2.89    0.47 
   1  -7   1    2.03    0.34 
   1  -7   1    3.51    0.54 
   1  -7   1    3.03    0.44 
   1  -7   1    2.69    0.38 
  -2   7  -1   -0.13    0.19 
  -2   7  -1    0.20    0.25 
  -2   7  -1    0.01    0.21 
  -2   7  -1    0.01    0.22 
   2  -7   1    0.02    0.29 
   2  -7   1    0.08    0.26 
   2  -7   1   -0.08    0.23 
   2  -7   1    0.29    0.26 
  -3   7  -1   53.62    1.77 
  -3   7  -1   52.84    1.64 
  -3   7  -1   52.16    1.65 
  -3   7  -1   53.32    1.53 
   3  -7   1   50.03    1.66 
   3  -7   1   52.77    1.67 
   3  -7   1   52.27    1.61 
   3  -7   1   52.21    1.83 
  -4   7  -1   -0.34    0.28 
  -4   7  -1    0.02    0.28 
  -4   7  -1   -0.29    0.27 
   4  -7   1    0.33    0.32 
   4  -7   1    0.18    0.35 
   4  -7   1    0.12    0.29 
   4  -7   1    0.22    0.31 
  -5   7  -1   10.03    0.77 
  -5   7  -1    9.08    0.76 
   5  -7   1   10.12    0.75 
   5  -7   1   11.23    0.79 
   5  -7   1   10.17    0.66 
   5  -7   1    9.41    0.81 
   5  -7   1   12.20    0.92 
   3   6  -1    0.71    0.23 
   3   6  -1    0.67    0.38 
   3   6  -1    0.37    0.27 
  -3  -6   1    0.85    0.22 
   2   6  -1   39.77    1.18 
   2   6  -1   38.80    1.32 
   2   6  -1   39.24    1.49 
  -2  -6   1   37.48    1.14 
   1   6  -1   23.62    0.78 
   1   6  -1   23.98    0.82 
   1   6  -1   21.95    0.92 
   1   6  -1   23.18    0.63 
   1   6  -1   22.71    1.02 
  -1  -6   1   21.26    0.83 
  -1  -6   1   22.94    0.74 
   0   6  -1    1.98    0.17 
   0   6  -1    2.17    0.32 
   0   6  -1    1.87    0.27 
   0   6  -1    1.68    0.30 
   0   6  -1    1.89    0.36 
   0  -6   1    2.36    0.32 
   0  -6   1    1.59    0.28 
   0  -6   1    1.50    0.28 
  -1   6  -1    1.52    0.27 
  -1   6  -1    1.02    0.28 
  -1   6  -1    1.24    0.26 
  -1   6  -1    1.08    0.26 
   1  -6   1    0.84    0.22 
   1  -6   1    0.88    0.31 
   1  -6   1    1.49    0.29 
   1  -6   1    1.08    0.26 
  -2   6  -1   48.59    1.44 
  -2   6  -1   47.98    1.42 
  -2   6  -1   47.60    1.52 
  -2   6  -1   47.22    1.40 
   2  -6   1   47.42    1.46 
   2  -6   1   48.11    1.46 
   2  -6   1   47.54    1.58 
   2  -6   1   49.62    1.40 
  -3   6  -1   13.31    0.55 
  -3   6  -1   11.77    0.73 
  -3   6  -1   11.06    0.64 
  -3   6  -1   11.94    0.68 
   3  -6   1   12.54    0.68 
   3  -6   1   11.70    0.63 
   3  -6   1   12.38    0.70 
   3  -6   1   12.40    0.75 
   3  -6   1   12.26    0.66 
  -4   6  -1  158.45    3.80 
  -4   6  -1  151.72    3.88 
  -4   6  -1  159.26    3.75 
   4  -6   1  155.76    4.04 
   4  -6   1  157.42    3.72 
   4  -6   1  156.22    3.66 
   4  -6   1  154.67    3.62 
   4  -6   1  146.93    3.96 
  -5   6  -1    0.61    0.29 
  -5   6  -1    0.11    0.33 
   5  -6   1    0.45    0.25 
   5  -6   1    0.25    0.25 
   5  -6   1    0.31    0.34 
   5  -6   1    0.25    0.34 
   5  -6   1    0.29    0.27 
   4   5  -1    1.46    0.43 
   4   5  -1    1.26    0.28 
   4   5  -1    1.01    0.26 
   4   5  -1    1.48    0.19 
   3   5  -1   47.10    1.35 
   3   5  -1   48.46    1.49 
   3   5  -1   48.77    1.35 
   3   5  -1   43.95    1.62 
  -3  -5   1   45.90    1.19 
   2   5  -1    8.22    0.51 
   2   5  -1    6.89    0.40 
   2   5  -1    6.89    0.36 
   2   5  -1    6.94    0.61 
  -2  -5   1    6.86    0.40 
   1   5  -1   39.61    1.06 
   1   5  -1   38.74    1.32 
   1   5  -1   37.50    1.20 
   1   5  -1   38.53    1.09 
   1   5  -1   38.40    0.99 
  -1  -5   1   37.45    1.10 
  -1  -5   1   40.27    1.01 
   0   5  -1    1.27    0.22 
   0   5  -1    0.93    0.24 
   0   5  -1    1.26    0.21 
   0   5  -1    1.56    0.16 
   0   5  -1    0.87    0.24 
   0  -5   1    1.30    0.25 
   0  -5   1    0.99    0.19 
   0  -5   1    1.44    0.18 
   0  -5   1    1.41    0.22 
  -1   5  -1   69.97    1.78 
  -1   5  -1   68.94    1.77 
  -1   5  -1   70.54    1.89 
  -1   5  -1   70.75    1.88 
   1  -5   1   70.39    1.82 
   1  -5   1   71.18    1.82 
   1  -5   1   69.74    1.72 
   1  -5   1   71.04    1.95 
  -2   5  -1   17.14    0.77 
  -2   5  -1   18.32    0.74 
  -2   5  -1   19.21    0.75 
  -2   5  -1   19.39    0.68 
   2  -5   1   17.61    0.72 
   2  -5   1   18.36    0.74 
   2  -5   1   18.82    0.73 
   2  -5   1   18.57    0.82 
   2  -5   1   19.31    0.74 
  -3   5  -1   20.50    0.88 
  -3   5  -1   22.14    0.88 
  -3   5  -1   22.93    0.87 
  -3   5  -1   21.66    0.67 
   3  -5   1   20.52    0.90 
   3  -5   1   21.77    0.87 
   3  -5   1   22.10    0.80 
   3  -5   1   22.90    0.87 
   3  -5   1   21.73    0.84 
  -4   5  -1   17.45    0.78 
  -4   5  -1   15.15    0.79 
   4  -5   1   16.36    0.82 
   4  -5   1   16.12    0.84 
   4  -5   1   15.97    0.74 
   4  -5   1   15.54    0.74 
   4  -5   1   16.39    0.71 
  -5   5  -1    1.06    0.31 
  -5   5  -1    1.49    0.39 
   5  -5   1    0.98    0.39 
   5  -5   1    1.66    0.41 
   5  -5   1    1.47    0.33 
   5  -5   1    1.39    0.30 
   5  -5   1    1.01    0.30 
  -6   5  -1    2.80    0.44 
   6  -5   1    3.16    0.58 
   6  -5   1    2.96    0.45 
   6  -5   1    3.20    0.56 
   6  -5   1    2.68    0.40 
   5   4  -1    1.66    0.41 
   5   4  -1    1.52    0.31 
   4   4  -1    3.70    0.37 
   4   4  -1    4.13    0.41 
   4   4  -1    2.86    0.49 
   3   4  -1   53.34    1.48 
   3   4  -1   51.50    1.52 
   3   4  -1   52.61    1.41 
  -3  -4   1   50.85    1.21 
   2   4  -1   60.94    1.39 
   2   4  -1   59.94    1.64 
   2   4  -1   62.00    1.35 
   2   4  -1   59.16    1.52 
   2   4  -1   61.74    1.55 
  -2  -4   1   58.27    1.43 
  -2  -4   1   61.01    1.43 
   1   4  -1    0.87    0.16 
   1   4  -1    0.87    0.15 
   1   4  -1    1.11    0.14 
   1   4  -1    0.84    0.19 
  -1  -4   1    1.02    0.18 
  -1  -4   1    0.84    0.19 
  -1  -4   1    0.92    0.16 
   0   4  -1   95.54    2.23 
   0   4  -1   98.02    2.23 
   0   4  -1   94.95    2.23 
   0   4  -1   97.53    2.36 
   0  -4   1  104.17    2.37 
   0  -4   1   99.49    2.16 
   0  -4   1  101.12    2.24 
   0  -4   1   96.20    2.46 
   0  -4   1   96.35    2.25 
  -1   4  -1    1.69    0.26 
  -1   4  -1    1.70    0.26 
  -1   4  -1    1.37    0.20 
  -1   4  -1    1.09    0.21 
  -1   4  -1    1.61    0.23 
   1  -4   1    1.60    0.22 
   1  -4   1    1.73    0.27 
   1  -4   1    1.85    0.27 
   1  -4   1    1.64    0.28 
  -2   4  -1  121.54    2.91 
  -2   4  -1  120.45    2.80 
  -2   4  -1  122.99    2.82 
  -2   4  -1  124.88    2.83 
   2  -4   1  120.45    2.80 
   2  -4   1  120.66    3.00 
   2  -4   1  123.41    2.72 
   2  -4   1  122.08    2.82 
   2  -4   1  122.62    3.00 
  -3   4  -1   -0.02    0.20 
  -3   4  -1   -0.11    0.17 
  -3   4  -1    0.34    0.21 
  -3   4  -1    0.13    0.09 
   3  -4   1    0.12    0.17 
   3  -4   1    0.31    0.19 
   3  -4   1    0.21    0.17 
   3  -4   1    0.14    0.17 
   3  -4   1    0.38    0.24 
  -4   4  -1    5.80    0.45 
  -4   4  -1    5.54    0.49 
   4  -4   1    5.11    0.50 
   4  -4   1    4.94    0.39 
   4  -4   1    6.33    0.44 
   4  -4   1    5.36    0.51 
   4  -4   1    5.66    0.43 
  -5   4  -1   28.14    1.04 
   5  -4   1   29.18    1.01 
   5  -4   1   28.93    1.00 
   5  -4   1   28.68    1.18 
   5  -4   1   29.62    1.00 
   5  -4   1   28.50    1.24 
  -6   4  -1    0.58    0.29 
   6  -4   1    1.21    0.40 
   6  -4   1    0.45    0.24 
   6  -4   1    0.93    0.41 
   6  -4   1    0.91    0.30 
   5   3  -1    1.63    0.35 
   3   3  -1   82.94    2.14 
   3   3  -1   83.66    1.73 
  -3  -3   1   82.57    1.76 
  -3  -3   1   85.95    1.77 
   2   3  -1   30.53    0.97 
   2   3  -1   32.61    0.77 
   2   3  -1   33.11    0.91 
  -2  -3   1   33.13    0.81 
   1   3  -1   -0.11    0.08 
   1   3  -1   -0.01    0.09 
   1   3  -1    0.01    0.14 
   1   3  -1   -0.03    0.09 
   1   3  -1   -0.10    0.08 
  -1  -3   1    0.07    0.08 
  -1  -3   1   -0.06    0.11 
  -1  -3   1    0.18    0.11 
   0   3  -1  118.87    2.70 
   0   3  -1  113.10    2.53 
   0   3  -1  113.31    2.65 
   0   3  -1  114.17    2.52 
   0   3  -1  114.45    2.60 
   0  -3   1  116.56    2.55 
   0  -3   1  114.54    2.75 
   0  -3   1  119.56    2.70 
   0  -3   1  121.61    2.61 
   0  -3   1  115.47    2.44 
  -1   3  -1   72.05    1.67 
  -1   3  -1   71.65    1.74 
  -1   3  -1   69.25    1.70 
  -1   3  -1   70.32    1.66 
   1  -3   1   71.10    1.62 
   1  -3   1   69.12    1.69 
   1  -3   1   72.06    1.80 
   1  -3   1   73.95    1.75 
  -2   3  -1   15.99    0.59 
  -2   3  -1   16.59    0.62 
  -2   3  -1   15.53    0.63 
  -2   3  -1   16.76    0.46 
   2  -3   1   15.97    0.65 
   2  -3   1   15.52    0.60 
   2  -3   1   16.12    0.58 
   2  -3   1   15.96    0.57 
   2  -3   1   16.63    0.60 
  -3   3  -1  113.54    2.63 
  -3   3  -1  117.78    2.70 
  -3   3  -1  114.18    2.73 
   3  -3   1  114.76    2.55 
   3  -3   1  113.11    2.64 
   3  -3   1  112.19    2.83 
   3  -3   1  115.42    2.62 
   3  -3   1  114.97    2.92 
  -4   3  -1   20.38    0.74 
   4  -3   1   19.06    0.84 
   4  -3   1   18.10    0.87 
   4  -3   1   18.99    0.70 
   4  -3   1   19.51    0.71 
   4  -3   1   19.90    0.72 
  -5   3  -1   40.48    1.20 
   5  -3   1   39.89    1.22 
   5  -3   1   37.68    1.15 
   5  -3   1   39.56    1.51 
   5  -3   1   38.98    1.15 
   5  -3   1   36.62    1.37 
  -6   3  -1   10.63    0.63 
   6  -3   1   12.01    0.90 
   6  -3   1   10.98    0.81 
   6  -3   1   11.60    0.66 
   6  -3   1   10.52    0.58 
   5   2  -1    9.14    0.61 
   2   2  -1    1.83    0.10 
  -2  -2   1    1.77    0.12 
   1   2  -1    1.53    0.13 
   1   2  -1    1.83    0.16 
   1   2  -1    1.37    0.16 
   1   2  -1    1.50    0.13 
   1   2  -1    1.15    0.19 
  -1  -2   1    1.10    0.14 
   0   2  -1  122.05    2.74 
   0   2  -1  117.49    2.47 
   0   2  -1  119.51    2.67 
   0   2  -1  118.35    2.55 
   0   2  -1  119.49    2.56 
   0   2  -1  120.56    2.67 
   0  -2   1  121.72    2.47 
   0  -2   1  122.91    2.56 
   0  -2   1  123.37    2.74 
   0  -2   1  121.19    2.68 
   0  -2   1  119.99    2.75 
   0  -2   1  123.95    2.57 
  -1   2  -1   82.42    1.90 
  -1   2  -1   82.30    1.87 
  -1   2  -1   79.52    1.81 
  -1   2  -1   79.41    1.80 
   1  -2   1   81.71    1.75 
   1  -2   1   81.91    1.81 
   1  -2   1   79.10    1.84 
   1  -2   1   82.04    1.93 
   1  -2   1   82.84    1.93 
  -2   2  -1    8.55    0.38 
  -2   2  -1    8.71    0.41 
  -2   2  -1    8.89    0.40 
   2  -2   1    8.89    0.38 
   2  -2   1    8.53    0.43 
   2  -2   1    9.21    0.38 
   2  -2   1    8.65    0.38 
  -3   2  -1   16.24    0.56 
  -3   2  -1   15.29    0.59 
   3  -2   1   14.57    0.56 
   3  -2   1   15.03    0.54 
   3  -2   1   15.20    0.54 
   3  -2   1   15.75    0.66 
  -4   2  -1    0.90    0.20 
   4  -2   1    0.82    0.18 
   4  -2   1    0.58    0.16 
   4  -2   1    0.61    0.18 
   4  -2   1    0.96    0.27 
  -5   2  -1    4.70    0.39 
   5  -2   1    4.68    0.53 
   5  -2   1    5.29    0.37 
   5  -2   1    5.34    0.43 
  -6   2  -1    2.41    0.37 
   6  -2   1    2.66    0.34 
   6  -2   1    2.02    0.35 
   6  -2   1    2.32    0.45 
   6   1  -1   -0.01    0.23 
   6   1  -1    0.24    0.21 
   5   1  -1   20.31    0.86 
   5   1  -1   20.13    0.92 
   4   1  -1   42.95    0.91 
   1   1  -1    0.18    0.04 
   1   1  -1    0.13    0.03 
   1   1  -1    0.12    0.04 
  -1  -1   1    0.08    0.05 
  -1  -1   1    0.07    0.05 
   0   1  -1  176.91    3.51 
   0   1  -1  180.89    3.50 
   0   1  -1  169.75    3.62 
   0  -1   1  157.36    3.71 
  -1   1  -1  442.97    9.31 
  -1   1  -1  455.34    8.92 
  -1   1  -1  474.42    9.80 
  -1   1  -1  474.02    9.32 
  -1   1  -1  458.71    9.44 
  -1   1  -1  448.54    9.45 
  -1   1  -1  443.44    9.62 
  -1   1  -1  448.87    9.82 
   1  -1   1  475.94    9.21 
   1  -1   1  455.13    9.54 
   1  -1   1  438.14    9.79 
   1  -1   1  462.02    9.63 
   1  -1   1  443.76    8.92 
   1  -1   1  460.56    9.22 
   1  -1   1  461.76    9.21 
   1  -1   1  446.10    9.82 
  -2   1  -1  240.44    5.02 
  -2   1  -1  241.24    5.18 
  -2   1  -1  253.62    5.03 
   2  -1   1  244.01    5.01 
   2  -1   1  244.54    5.18 
   2  -1   1  243.33    5.28 
   2  -1   1  237.22    5.40 
   2  -1   1  239.68    4.86 
  -3   1  -1   22.07    0.64 
  -3   1  -1   21.50    0.63 
   3  -1   1   20.40    0.70 
   3  -1   1   20.68    0.78 
   3  -1   1   22.53    0.60 
   3  -1   1   21.29    0.61 
   3  -1   1   21.49    0.61 
  -4   1  -1    0.95    0.17 
  -4   1  -1    0.83    0.16 
   4  -1   1    0.96    0.15 
   4  -1   1    0.75    0.18 
   4  -1   1    0.75    0.15 
   4  -1   1    0.86    0.27 
   4  -1   1    0.82    0.15 
  -5   1  -1   12.08    0.51 
   5  -1   1   12.32    0.50 
   5  -1   1   12.27    0.63 
   5  -1   1   12.60    0.50 
   5  -1   1   12.38    0.75 
  -6   1  -1    0.02    0.17 
   6  -1   1    0.06    0.15 
   6  -1   1    0.03    0.19 
   6  -1   1    0.42    0.34 
   6   0  -1   42.94    1.57 
   6   0  -1   42.01    1.06 
   6   0  -1   44.19    1.42 
   6   0  -1   45.48    1.46 
   5   0  -1   30.31    1.01 
   5   0  -1   27.48    1.09 
   5   0  -1   27.77    0.74 
  -5   0   1   29.21    0.74 
   4   0  -1    3.19    0.30 
   4   0  -1    3.09    0.19 
   4   0  -1    3.18    0.33 
  -4   0   1    2.74    0.20 
  -4   0   1    3.07    0.20 
   3   0  -1    0.07    0.13 
   3   0  -1    0.35    0.08 
   3   0  -1    0.43    0.14 
  -3   0   1    0.36    0.09 
  -3   0   1    0.53    0.09 
   2   0  -1   15.66    0.38 
   2   0  -1   16.09    0.39 
   2   0  -1   16.40    0.38 
  -2   0   1   15.64    0.40 
   1   0  -1  113.29    2.29 
   1   0  -1  111.04    2.22 
   1   0  -1  112.13    2.29 
  -1   0   1  112.99    2.21 
  -1   0   1  112.47    2.30 
   0   0  -1   -0.01    0.02 
   0   0  -1    0.01    0.02 
   0   0  -1   -0.02    0.02 
   0   0  -1   -0.01    0.03 
   0   0  -1    0.00    0.02 
   0   0  -1   -0.01    0.02 
   0   0  -1    0.00    0.02 
   0   0  -1    0.01    0.02 
   0   0  -1   -0.01    0.02 
   0   0   1   -0.01    0.02 
   0   0   1    0.02    0.02 
   0   0   1    0.01    0.02 
   0   0   1    0.00    0.02 
   0   0   1    0.00    0.02 
   0   0   1    0.00    0.02 
   0   0   1   -0.01    0.02 
   0   0   1   -0.03    0.02 
   0   0   1   -0.01    0.02 
  -1   0  -1  138.97    3.04 
  -1   0  -1  141.11    2.94 
  -1   0  -1  139.80    2.82 
  -1   0  -1  135.89    2.82 
  -1   0  -1  140.39    2.72 
   1   0   1  132.17    2.81 
   1   0   1  135.51    2.73 
   1   0   1  136.13    3.05 
   1   0   1  140.11    2.82 
   1   0   1  138.32    3.04 
   1   0   1  135.68    2.94 
   1   0   1  131.05    2.82 
  -2   0  -1   10.61    0.33 
  -2   0  -1   10.64    0.34 
   2   0   1   10.98    0.32 
   2   0   1   10.87    0.38 
   2   0   1   10.83    0.33 
   2   0   1   11.04    0.43 
  -3   0  -1   26.60    0.68 
   3   0   1   26.36    0.77 
   3   0   1   24.97    0.89 
   3   0   1   26.42    0.64 
   3   0   1   25.43    0.82 
   3   0   1   25.04    0.65 
  -4   0  -1    9.67    0.39 
   4   0   1   11.48    0.56 
   4   0   1   10.98    0.48 
   4   0   1    9.88    0.38 
   4   0   1   10.36    0.59 
  -5   0  -1   25.27    0.74 
   5   0   1   24.30    1.07 
   5   0   1   26.16    0.89 
   5   0   1   25.73    0.99 
   5   0   1   24.45    0.71 
  -6   0  -1   17.66    0.59 
   6   0   1   16.40    0.99 
   6   0   1   17.62    0.60 
   6   0   1   17.84    0.87 
   6  -1  -1   13.16    0.79 
   6  -1  -1   13.26    0.67 
   6  -1  -1   12.55    0.93 
   6  -1  -1   12.88    0.52 
  -6   1   1   12.25    0.53 
   5  -1  -1    1.27    0.29 
   5  -1  -1    1.29    0.24 
   5  -1  -1    1.60    0.23 
  -5   1   1    1.15    0.20 
   4  -1  -1    0.01    0.14 
   4  -1  -1   -0.07    0.08 
   4  -1  -1    0.11    0.10 
   4  -1  -1   -0.12    0.10 
  -4   1   1    0.08    0.11 
  -4   1   1    0.05    0.13 
  -4   1   1    0.07    0.08 
   3  -1  -1   38.50    0.99 
   3  -1  -1   36.24    1.09 
   3  -1  -1   39.46    0.93 
   3  -1  -1   38.63    0.92 
  -3   1   1   39.09    0.96 
  -3   1   1   38.74    0.96 
   2  -1  -1   56.13    1.28 
   2  -1  -1   56.25    1.28 
   2  -1  -1   57.48    1.52 
   2  -1  -1   53.45    1.24 
   2  -1  -1   58.80    1.36 
   2  -1  -1   57.52    1.40 
  -2   1   1   56.53    1.29 
  -2   1   1   58.85    1.30 
   1  -1  -1   90.86    2.03 
   1  -1  -1   86.23    2.15 
   1  -1  -1   91.30    1.90 
   1  -1  -1   93.35    2.02 
   1  -1  -1   92.83    1.93 
   1  -1  -1   89.74    1.93 
   1  -1  -1   91.26    1.87 
   1  -1  -1   90.19    2.05 
  -1   1   1   88.23    2.05 
  -1   1   1   91.44    1.94 
  -1   1   1   91.44    1.87 
  -1   1   1   90.50    2.03 
  -1   1   1   93.59    2.16 
  -1   1   1   88.60    2.01 
  -1   1   1   91.57    1.90 
  -1   1   1   88.96    1.93 
   0  -1  -1   -0.48    0.12 
   0  -1  -1   -0.64    0.10 
   0  -1  -1    0.05    0.12 
   0  -1  -1   -0.34    0.07 
   0  -1  -1   -0.12    0.07 
   0   1   1   -0.15    0.12 
   0   1   1    0.05    0.07 
   0   1   1    0.07    0.13 
   0   1   1   -0.02    0.07 
   0   1   1    0.01    0.12 
   0   1   1   -0.35    0.13 
  -1  -1  -1  730.71   15.60 
  -1  -1  -1  750.60   15.58 
   1   1   1  775.67   16.18 
   1   1   1  783.85   15.57 
   1   1   1  762.88   15.18 
   1   1   1  771.62   15.63 
   1   1   1  783.84   17.24 
  -2  -1  -1   24.46    0.59 
   2   1   1   23.13    0.73 
   2   1   1   23.61    0.55 
   2   1   1   23.70    0.56 
  -3  -1  -1  109.20    2.34 
  -3  -1  -1  114.63    2.35 
   3   1   1  109.13    2.27 
   3   1   1  110.32    2.70 
  -4  -1  -1    0.13    0.09 
  -4  -1  -1    0.17    0.10 
   4   1   1    0.23    0.09 
   4   1   1    0.15    0.17 
   4   1   1    0.19    0.15 
  -5  -1  -1    4.19    0.25 
   5   1   1    4.46    0.42 
   5   1   1    4.39    0.47 
   5   1   1    4.09    0.25 
   5   1   1    4.49    0.55 
   6   1   1   12.17    0.78 
   6   1   1   11.78    0.85 
   6   1   1   12.33    0.70 
   6  -2  -1    2.63    0.49 
   6  -2  -1    4.42    0.38 
   6  -2  -1    5.09    0.56 
   6  -2  -1    5.75    0.43 
  -6   2   1    4.50    0.42 
   5  -2  -1    0.36    0.16 
   5  -2  -1    0.19    0.28 
   5  -2  -1    0.34    0.23 
   5  -2  -1    0.48    0.16 
  -5   2   1    0.30    0.18 
   4  -2  -1    0.89    0.22 
   4  -2  -1    0.59    0.25 
   4  -2  -1    1.10    0.18 
   4  -2  -1    0.90    0.17 
   4  -2  -1    0.86    0.18 
  -4   2   1    1.01    0.21 
   3  -2  -1   71.94    1.65 
   3  -2  -1   71.79    1.63 
   3  -2  -1   71.34    1.67 
   3  -2  -1   71.07    1.68 
   3  -2  -1   69.88    1.96 
   3  -2  -1   70.31    1.82 
  -3   2   1   73.52    1.70 
   2  -2  -1   46.51    1.29 
   2  -2  -1   44.77    1.19 
   2  -2  -1   45.59    1.11 
   2  -2  -1   44.75    1.13 
   2  -2  -1   46.93    1.10 
   2  -2  -1   45.24    1.06 
  -2   2   1   45.24    1.06 
  -2   2   1   46.16    1.14 
  -2   2   1   45.97    1.12 
   1  -2  -1  121.82    2.75 
   1  -2  -1  117.53    2.86 
   1  -2  -1  119.70    2.52 
   1  -2  -1  119.25    2.61 
   1  -2  -1  123.48    2.75 
  -1   2   1  121.31    2.76 
  -1   2   1  123.77    2.59 
  -1   2   1  119.83    2.70 
  -1   2   1  119.29    2.60 
  -1   2   1  119.44    2.58 
   0  -2  -1  715.65   14.01 
   0  -2  -1  716.91   14.47 
   0  -2  -1  722.02   16.33 
   0  -2  -1  711.68   14.34 
   0  -2  -1  689.11   14.34 
   0   2   1  702.91   14.53 
   0   2   1  709.14   14.48 
   0   2   1  721.79   13.89 
   0   2   1  722.97   15.24 
   0   2   1  687.75   15.48 
  -1  -2  -1  451.91    8.89 
  -1  -2  -1  447.72    9.21 
  -1  -2  -1  460.93    9.21 
   1   2   1  449.79    9.51 
   1   2   1  450.17    9.21 
   1   2   1  464.14    9.20 
   1   2   1  451.65   10.04 
   1   2   1  455.75    8.92 
  -2  -2  -1   56.98    1.29 
   2   2   1   57.82    1.57 
   2   2   1   57.48    1.25 
   2   2   1   57.86    1.40 
   2   2   1   59.10    1.26 
  -3  -2  -1    8.43    0.31 
  -3  -2  -1    8.50    0.30 
   3   2   1    7.92    0.29 
   3   2   1    8.08    0.29 
   3   2   1    8.37    0.47 
  -4  -2  -1   10.18    0.34 
   4   2   1   10.37    0.34 
   4   2   1    9.37    0.55 
   5   2   1   12.13    0.76 
   5   2   1   13.61    0.42 
   5   2   1   14.66    0.74 
   6  -3  -1   -0.01    0.27 
   6  -3  -1   -0.13    0.18 
   6  -3  -1    0.46    0.36 
   6  -3  -1    0.23    0.20 
  -6   3   1   -0.06    0.22 
   5  -3  -1   28.85    0.89 
   5  -3  -1   26.95    0.91 
   5  -3  -1   25.72    1.18 
   5  -3  -1   29.21    1.10 
  -5   3   1   29.45    0.98 
   4  -3  -1    4.50    0.36 
   4  -3  -1    4.91    0.24 
   4  -3  -1    5.51    0.32 
   4  -3  -1    4.73    0.43 
   4  -3  -1    5.25    0.37 
   4  -3  -1    4.04    0.49 
  -4   3   1    4.79    0.40 
   3  -3  -1    0.02    0.14 
   3  -3  -1    0.02    0.18 
   3  -3  -1    0.20    0.17 
   3  -3  -1   -0.05    0.13 
   3  -3  -1   -0.04    0.10 
  -3   3   1    0.00    0.15 
  -3   3   1   -0.15    0.19 
  -3   3   1   -0.08    0.13 
   2  -3  -1   26.17    0.89 
   2  -3  -1   27.25    0.73 
   2  -3  -1   26.20    0.78 
   2  -3  -1   26.32    0.86 
   2  -3  -1   26.42    0.81 
  -2   3   1   26.89    0.81 
  -2   3   1   26.75    0.87 
  -2   3   1   27.95    0.78 
   1  -3  -1  162.98    3.76 
   1  -3  -1  166.53    3.55 
   1  -3  -1  155.65    3.86 
   1  -3  -1  166.29    3.43 
  -1   3   1  163.08    3.66 
  -1   3   1  165.70    3.54 
  -1   3   1  165.85    3.49 
  -1   3   1  168.03    3.77 
   0  -3  -1  180.78    4.27 
   0  -3  -1  182.18    3.75 
   0  -3  -1  185.68    3.89 
   0   3   1  184.73    3.87 
   0   3   1  176.94    4.00 
   0   3   1  183.48    3.79 
   0   3   1  183.74    4.22 
  -1  -3  -1   40.89    1.00 
  -1  -3  -1   37.88    1.00 
  -1  -3  -1   39.92    0.93 
   1   3   1   37.05    1.02 
   1   3   1   39.11    0.93 
   1   3   1   39.29    1.18 
   1   3   1   38.44    0.96 
   1   3   1   39.91    0.96 
  -2  -3  -1    6.06    0.33 
  -2  -3  -1    6.26    0.29 
   2   3   1    5.37    0.45 
   2   3   1    6.04    0.25 
   2   3   1    5.87    0.28 
   2   3   1    6.41    0.30 
   2   3   1    5.49    0.32 
  -3  -3  -1    3.30    0.23 
   3   3   1    3.32    0.38 
   3   3   1    2.99    0.28 
   3   3   1    2.71    0.20 
   3   3   1    3.02    0.20 
  -4  -3  -1   14.22    0.43 
   4   3   1   14.54    0.63 
   4   3   1   13.50    0.73 
   4   3   1   13.73    0.43 
   5   3   1    1.58    0.31 
   5   3   1    1.25    0.35 
   5   3   1    0.75    0.29 
   6  -4  -1    1.07    0.37 
   6  -4  -1    1.69    0.33 
   6  -4  -1    1.92    0.50 
  -6   4   1    1.28    0.34 
   5  -4  -1   -0.19    0.27 
   5  -4  -1    0.16    0.19 
   5  -4  -1    0.04    0.23 
   5  -4  -1    0.02    0.18 
   5  -4  -1   -0.01    0.17 
  -5   4   1    0.36    0.22 
   4  -4  -1   10.53    0.56 
   4  -4  -1   10.65    0.67 
   4  -4  -1   11.43    0.58 
   4  -4  -1   12.20    0.49 
   4  -4  -1   10.91    0.63 
  -4   4   1   10.83    0.59 
  -4   4   1   12.31    0.69 
   3  -4  -1    2.02    0.35 
   3  -4  -1    1.82    0.29 
   3  -4  -1    1.64    0.26 
   3  -4  -1    1.51    0.26 
   3  -4  -1    1.76    0.23 
  -3   4   1    1.83    0.31 
  -3   4   1    2.33    0.33 
  -3   4   1    1.82    0.24 
   2  -4  -1   93.67    2.41 
   2  -4  -1   91.80    2.34 
   2  -4  -1   92.89    2.22 
   2  -4  -1   94.11    2.15 
  -2   4   1   94.91    2.25 
  -2   4   1   90.04    2.18 
  -2   4   1   89.66    2.30 
  -2   4   1   89.65    2.20 
   1  -4  -1    0.89    0.22 
   1  -4  -1    1.08    0.15 
   1  -4  -1    1.05    0.21 
   1  -4  -1    0.71    0.19 
   1  -4  -1    1.02    0.22 
  -1   4   1    0.61    0.18 
  -1   4   1    0.90    0.18 
  -1   4   1    1.17    0.22 
  -1   4   1    1.14    0.22 
   0  -4  -1   22.00    0.69 
   0  -4  -1   22.91    0.75 
   0  -4  -1   21.00    0.78 
   0   4   1   22.02    0.82 
   0   4   1   22.43    0.65 
   0   4   1   23.35    0.77 
   0   4   1   22.50    0.72 
  -1  -4  -1   15.37    0.52 
  -1  -4  -1   15.75    0.61 
   1   4   1   15.17    0.54 
   1   4   1   15.68    0.49 
   1   4   1   13.82    0.70 
   1   4   1   16.91    0.60 
  -2  -4  -1    9.28    0.42 
  -2  -4  -1    9.79    0.44 
   2   4   1    8.82    0.58 
   2   4   1    9.59    0.39 
   2   4   1   10.07    0.37 
   2   4   1    8.78    0.39 
   2   4   1    9.58    0.47 
  -3  -4  -1   10.81    0.45 
   3   4   1    9.41    0.66 
   3   4   1   11.41    0.48 
   3   4   1   12.02    0.56 
   3   4   1   11.19    0.43 
  -4  -4  -1    1.45    0.21 
   4   4   1    1.76    0.27 
   4   4   1    1.52    0.37 
   4   4   1    1.26    0.18 
   4   4   1    0.88    0.26 
   6  -5  -1    1.55    0.45 
   6  -5  -1    1.59    0.43 
   6  -5  -1    1.47    0.35 
  -6   5   1    1.90    0.38 
   5  -5  -1    0.26    0.31 
   5  -5  -1    0.46    0.27 
   5  -5  -1    0.55    0.20 
   5  -5  -1    0.29    0.30 
   5  -5  -1    0.12    0.23 
  -5   5   1    0.73    0.30 
   4  -5  -1    2.20    0.39 
   4  -5  -1    2.55    0.38 
   4  -5  -1    2.90    0.39 
   4  -5  -1    1.77    0.34 
   4  -5  -1    2.89    0.30 
  -4   5   1    1.95    0.37 
  -4   5   1    1.91    0.33 
  -4   5   1    2.22    0.23 
   3  -5  -1   21.66    0.83 
   3  -5  -1   21.98    0.91 
   3  -5  -1   23.25    0.87 
   3  -5  -1   20.46    0.91 
  -3   5   1   21.88    0.75 
  -3   5   1   22.22    0.87 
  -3   5   1   21.53    0.92 
   2  -5  -1   22.69    0.89 
   2  -5  -1   22.14    0.82 
   2  -5  -1   23.69    0.87 
   2  -5  -1   22.98    0.91 
  -2   5   1   23.28    0.85 
  -2   5   1   24.18    0.83 
  -2   5   1   23.76    0.83 
  -2   5   1   22.30    0.88 
   1  -5  -1   -0.05    0.17 
   1  -5  -1    0.21    0.21 
   1  -5  -1    0.17    0.20 
   1  -5  -1    0.26    0.17 
   1  -5  -1    0.30    0.11 
  -1   5   1    0.04    0.19 
  -1   5   1    0.30    0.17 
  -1   5   1    1.18    0.26 
  -1   5   1    0.68    0.20 
   0  -5  -1   47.96    1.43 
   0  -5  -1   48.40    1.35 
   0  -5  -1   51.13    1.29 
   0   5   1   46.98    1.39 
   0   5   1   49.70    1.31 
   0   5   1   46.11    1.48 
   0   5   1   47.26    1.23 
  -1  -5  -1    0.34    0.15 
  -1  -5  -1    0.25    0.19 
   1   5   1   -0.11    0.11 
   1   5   1    0.13    0.21 
   1   5   1    0.09    0.16 
   1   5   1    0.31    0.12 
  -2  -5  -1   15.87    0.64 
   2   5   1   16.47    0.49 
   2   5   1   16.42    0.69 
   2   5   1   15.25    0.82 
   2   5   1   14.97    0.55 
  -3  -5  -1    0.09    0.19 
   3   5   1    0.20    0.16 
   3   5   1   -0.23    0.24 
   3   5   1   -0.18    0.12 
  -4  -5  -1   11.85    0.47 
   4   5   1   10.49    0.46 
   4   5   1   12.12    0.86 
   4   5   1   11.66    0.66 
   5  -6  -1    1.95    0.40 
   5  -6  -1    1.55    0.29 
   5  -6  -1    1.71    0.43 
   5  -6  -1    1.58    0.37 
   5  -6  -1    1.17    0.40 
  -5   6   1    1.45    0.38 
  -5   6   1    2.19    0.47 
   4  -6  -1    3.04    0.49 
   4  -6  -1    3.86    0.50 
   4  -6  -1    4.25    0.56 
  -4   6   1    4.13    0.51 
  -4   6   1    4.08    0.55 
  -4   6   1    3.17    0.36 
   3  -6  -1   11.05    0.65 
   3  -6  -1   12.51    0.70 
   3  -6  -1   11.18    0.71 
   3  -6  -1   10.63    0.68 
  -3   6   1   11.61    0.66 
  -3   6   1   10.97    0.66 
  -3   6   1   10.68    0.70 
  -3   6   1   11.06    0.58 
   2  -6  -1   22.19    0.87 
   2  -6  -1   21.42    0.94 
   2  -6  -1   22.16    0.98 
   2  -6  -1   22.37    0.91 
  -2   6   1   21.43    0.83 
  -2   6   1   21.70    0.86 
  -2   6   1   23.43    0.98 
  -2   6   1   20.89    0.86 
   1  -6  -1   21.17    0.81 
   1  -6  -1   20.11    0.86 
   1  -6  -1   19.48    0.85 
  -1   6   1   20.58    0.74 
  -1   6   1   20.86    0.88 
  -1   6   1   20.55    0.87 
  -1   6   1   18.84    0.79 
   0  -6  -1    1.10    0.26 
   0  -6  -1    0.71    0.24 
   0  -6  -1    1.45    0.29 
   0   6   1    0.98    0.27 
   0   6   1    1.07    0.24 
   0   6   1    1.05    0.21 
   0   6   1    1.06    0.32 
  -1  -6  -1    0.45    0.17 
  -1  -6  -1    1.14    0.27 
   1   6   1    0.43    0.17 
   1   6   1    0.41    0.23 
   1   6   1    0.72    0.29 
   1   6   1    0.38    0.17 
  -2  -6  -1   22.62    0.87 
   2   6   1   24.54    0.95 
   2   6   1   23.23    1.13 
   2   6   1   23.20    0.76 
  -3  -6  -1    0.29    0.22 
   3   6   1    0.36    0.22 
   3   6   1    0.51    0.39 
   5  -7  -1   15.27    0.90 
   5  -7  -1   14.56    0.87 
   5  -7  -1   15.26    1.01 
   5  -7  -1   13.97    0.99 
  -5   7   1   15.06    0.90 
  -5   7   1   13.11    0.92 
   4  -7  -1    0.08    0.29 
   4  -7  -1    0.03    0.30 
   4  -7  -1    0.26    0.29 
   4  -7  -1    0.44    0.33 
  -4   7   1    0.44    0.29 
  -4   7   1    0.13    0.32 
   3  -7  -1   30.82    1.28 
   3  -7  -1   32.65    1.20 
   3  -7  -1   30.72    1.30 
   3  -7  -1   30.87    1.22 
  -3   7   1   32.85    1.15 
  -3   7   1   31.86    1.21 
  -3   7   1   30.64    1.16 
  -3   7   1   32.50    1.30 
   2  -7  -1    0.14    0.26 
   2  -7  -1    0.01    0.30 
   2  -7  -1    0.70    0.39 
   2  -7  -1    0.41    0.27 
  -2   7   1   -0.07    0.21 
  -2   7   1    0.49    0.26 
  -2   7   1    0.33    0.31 
  -2   7   1    0.49    0.27 
   1  -7  -1    4.17    0.56 
   1  -7  -1    5.35    0.51 
   1  -7  -1    5.87    0.57 
  -1   7   1    6.13    0.58 
  -1   7   1    6.42    0.58 
  -1   7   1    6.17    0.52 
  -1   7   1    6.08    0.46 
   0  -7  -1   34.32    1.23 
   0  -7  -1   36.12    1.14 
   0  -7  -1   34.44    1.22 
   0   7   1   33.38    1.16 
   0   7   1   33.69    1.34 
   0   7   1   36.93    1.09 
   0   7   1   32.98    1.24 
  -1  -7  -1    9.25    0.65 
   1   7   1    9.77    0.51 
   1   7   1   10.08    0.81 
   1   7   1    9.54    0.67 
  -2  -7  -1    2.28    0.37 
   2   7   1    1.88    0.48 
   4  -8  -1   18.57    1.08 
   4  -8  -1   16.41    0.97 
   4  -8  -1   20.35    1.08 
   4  -8  -1   19.23    1.12 
  -4   8   1   18.00    1.00 
  -4   8   1   17.39    1.08 
   3  -8  -1    1.10    0.38 
   3  -8  -1    1.06    0.42 
   3  -8  -1    1.56    0.43 
   3  -8  -1    1.80    0.47 
  -3   8   1    1.17    0.39 
  -3   8   1    1.99    0.41 
  -3   8   1    1.44    0.39 
  -3   8   1    0.84    0.35 
   2  -8  -1    8.19    0.72 
   2  -8  -1    7.81    0.77 
   2  -8  -1    9.26    0.71 
   2  -8  -1    7.73    0.69 
  -2   8   1    6.80    0.66 
  -2   8   1    9.47    0.64 
  -2   8   1    8.68    0.68 
  -2   8   1    7.16    0.71 
   1  -8  -1    0.74    0.30 
   1  -8  -1    0.54    0.31 
   1  -8  -1    1.15    0.36 
  -1   8   1    1.16    0.30 
  -1   8   1    0.37    0.33 
  -1   8   1    1.22    0.33 
  -1   8   1    0.86    0.37 
   0  -8  -1    0.13    0.30 
   0   8   1    0.49    0.23 
   0   8   1    0.39    0.37 
   0   8   1    0.05    0.29 
  -1  -8  -1    0.78    0.36 
   1   8   1    1.01    0.43 
   1   8   1    1.42    0.40 
  -1   9  -2   42.99    1.46 
  -1   9  -2   38.82    1.60 
  -1   9  -2   41.11    1.61 
   1  -9   2   36.95    1.51 
  -2   9  -2    1.32    0.49 
  -2   9  -2    1.45    0.38 
  -2   9  -2    1.37    0.40 
  -2   9  -2    1.92    0.43 
   2  -9   2    2.31    0.51 
   2  -9   2    1.61    0.49 
   2  -9   2    1.38    0.43 
   1   8  -2    0.62    0.40 
   1   8  -2    0.61    0.29 
   1   8  -2    0.20    0.32 
  -1  -8   2    0.38    0.32 
   0   8  -2    2.16    0.38 
   0   8  -2    2.82    0.51 
   0   8  -2    1.80    0.41 
   0  -8   2    2.25    0.42 
  -1   8  -2    5.09    0.60 
  -1   8  -2    5.95    0.54 
  -1   8  -2    5.37    0.59 
  -1   8  -2    5.11    0.51 
   1  -8   2    5.64    0.55 
   1  -8   2    5.84    0.64 
  -2   8  -2    3.82    0.50 
  -2   8  -2    4.22    0.60 
  -2   8  -2    4.03    0.52 
  -2   8  -2    4.89    0.55 
   2  -8   2    5.34    0.60 
   2  -8   2    4.53    0.68 
   2  -8   2    4.16    0.61 
  -3   8  -2    1.21    0.38 
  -3   8  -2    1.99    0.46 
  -3   8  -2    1.81    0.43 
  -3   8  -2    1.80    0.31 
   3  -8   2    1.53    0.42 
   3  -8   2    1.66    0.36 
   3  -8   2    2.39    0.46 
   3  -8   2    1.24    0.43 
  -4   8  -2   -0.15    0.36 
  -4   8  -2   -0.12    0.32 
  -4   8  -2    0.55    0.36 
   4  -8   2    0.42    0.35 
   4  -8   2   -0.12    0.32 
   4  -8   2   -0.18    0.31 
   4  -8   2   -0.06    0.41 
   2   7  -2    0.38    0.32 
   2   7  -2   -0.07    0.29 
   2   7  -2    0.32    0.23 
  -2  -7   2    0.09    0.24 
   1   7  -2   28.37    1.25 
   1   7  -2   29.27    1.18 
   1   7  -2   29.12    1.03 
  -1  -7   2   26.74    1.04 
   0   7  -2   64.87    1.92 
   0   7  -2   61.87    1.74 
   0   7  -2   61.58    1.70 
   0   7  -2   59.23    1.93 
   0  -7   2   59.98    1.77 
   0  -7   2   64.62    1.65 
  -1   7  -2    8.36    0.57 
  -1   7  -2    8.01    0.63 
  -1   7  -2    9.11    0.57 
  -1   7  -2    7.97    0.62 
   1  -7   2    8.04    0.70 
   1  -7   2    8.80    0.59 
   1  -7   2    7.78    0.45 
   1  -7   2    7.46    0.61 
  -2   7  -2    3.79    0.44 
  -2   7  -2    3.99    0.48 
  -2   7  -2    4.43    0.55 
  -2   7  -2    4.07    0.47 
   2  -7   2    3.48    0.48 
   2  -7   2    4.77    0.53 
   2  -7   2    5.19    0.48 
   2  -7   2    3.81    0.55 
  -3   7  -2   20.98    0.80 
  -3   7  -2   20.58    1.03 
  -3   7  -2   19.47    0.95 
  -3   7  -2   21.80    0.97 
   3  -7   2   20.71    0.90 
   3  -7   2   19.83    0.92 
   3  -7   2   20.44    1.09 
   3  -7   2   21.06    0.98 
  -4   7  -2   17.19    0.93 
  -4   7  -2   19.03    0.99 
  -4   7  -2   16.28    0.96 
   4  -7   2   18.24    1.06 
   4  -7   2   17.01    0.84 
   4  -7   2   18.34    0.93 
   4  -7   2   17.34    0.92 
   4  -7   2   15.90    0.88 
  -5   7  -2    8.81    0.77 
  -5   7  -2    9.10    0.79 
   5  -7   2    9.30    0.75 
   5  -7   2    9.30    0.79 
   5  -7   2    8.52    0.73 
   5  -7   2   10.21    0.91 
   5  -7   2    9.91    0.68 
   3   6  -2    6.36    0.71 
   3   6  -2    4.91    0.43 
   3   6  -2    4.77    0.52 
  -3  -6   2    5.54    0.40 
   2   6  -2   67.96    2.02 
   2   6  -2   69.44    1.85 
   2   6  -2   70.66    1.77 
  -2  -6   2   68.60    1.76 
   1   6  -2    0.39    0.23 
   1   6  -2    0.64    0.14 
   1   6  -2    0.92    0.21 
   1   6  -2    0.70    0.22 
  -1  -6   2    0.74    0.24 
   0   6  -2    1.82    0.21 
   0   6  -2    1.41    0.30 
   0   6  -2    1.55    0.34 
   0   6  -2    2.04    0.32 
   0   6  -2    1.42    0.25 
   0  -6   2    1.33    0.29 
   0  -6   2    1.36    0.25 
  -1   6  -2    4.70    0.46 
  -1   6  -2    5.22    0.42 
  -1   6  -2    5.29    0.34 
  -1   6  -2    4.41    0.44 
  -1   6  -2    4.63    0.40 
   1  -6   2    4.64    0.49 
   1  -6   2    4.80    0.36 
   1  -6   2    4.26    0.42 
   1  -6   2    5.43    0.47 
  -2   6  -2   17.46    0.71 
  -2   6  -2   18.46    0.80 
  -2   6  -2   16.80    0.83 
  -2   6  -2   16.43    0.75 
   2  -6   2   16.63    0.88 
   2  -6   2   17.65    0.73 
   2  -6   2   17.89    0.76 
   2  -6   2   15.43    0.76 
  -3   6  -2    1.73    0.27 
  -3   6  -2    2.71    0.44 
  -3   6  -2    1.74    0.35 
  -3   6  -2    1.61    0.33 
   3  -6   2    3.25    0.44 
   3  -6   2    1.74    0.33 
   3  -6   2    2.21    0.35 
   3  -6   2    2.00    0.41 
   3  -6   2    2.78    0.40 
  -4   6  -2    0.92    0.30 
  -4   6  -2    1.48    0.37 
  -4   6  -2    1.21    0.37 
   4  -6   2    1.45    0.47 
   4  -6   2    1.42    0.35 
   4  -6   2    1.40    0.33 
   4  -6   2    1.41    0.32 
   4  -6   2    1.20    0.34 
  -5   6  -2    0.16    0.33 
  -5   6  -2    0.37    0.29 
   5  -6   2    0.78    0.28 
   5  -6   2   -0.21    0.28 
   5  -6   2    0.33    0.28 
   5  -6   2    0.14    0.27 
   5  -6   2    0.21    0.35 
   4   5  -2    0.52    0.23 
   4   5  -2    0.59    0.23 
   4   5  -2    0.27    0.35 
   4   5  -2    0.36    0.24 
   3   5  -2   22.32    0.94 
   3   5  -2   21.15    0.81 
   3   5  -2   21.72    0.83 
  -3  -5   2   20.48    0.66 
   2   5  -2    3.65    0.33 
   2   5  -2    4.16    0.43 
   2   5  -2    3.31    0.29 
  -2  -5   2    2.92    0.31 
   1   5  -2    1.36    0.19 
   1   5  -2    1.74    0.24 
   1   5  -2    1.27    0.27 
   1   5  -2    2.11    0.27 
  -1  -5   2    1.61    0.23 
  -1  -5   2    1.79    0.26 
   0   5  -2    5.48    0.30 
   0   5  -2    4.62    0.34 
   0   5  -2    5.31    0.38 
   0   5  -2    5.22    0.44 
   0  -5   2    4.52    0.39 
   0  -5   2    5.35    0.37 
  -1   5  -2    4.79    0.32 
  -1   5  -2    5.08    0.40 
  -1   5  -2    4.88    0.44 
  -1   5  -2    4.42    0.38 
   1  -5   2    5.86    0.45 
   1  -5   2    4.95    0.39 
   1  -5   2    5.02    0.49 
   1  -5   2    5.24    0.32 
  -2   5  -2   34.67    1.16 
  -2   5  -2   34.08    1.10 
  -2   5  -2   36.17    1.13 
  -2   5  -2   35.09    1.03 
   2  -5   2   36.19    1.08 
   2  -5   2   37.28    1.10 
   2  -5   2   36.22    1.13 
   2  -5   2   34.70    1.11 
   2  -5   2   33.16    1.19 
  -3   5  -2    0.54    0.24 
  -3   5  -2    0.66    0.24 
  -3   5  -2    0.59    0.23 
  -3   5  -2    0.90    0.15 
   3  -5   2    0.40    0.27 
   3  -5   2    0.83    0.24 
   3  -5   2    0.49    0.22 
   3  -5   2    1.13    0.27 
   3  -5   2    0.83    0.24 
  -4   5  -2    3.48    0.49 
  -4   5  -2    3.48    0.47 
  -4   5  -2    3.54    0.44 
   4  -5   2    4.15    0.44 
   4  -5   2    3.64    0.47 
   4  -5   2    3.96    0.44 
   4  -5   2    3.14    0.52 
   4  -5   2    4.31    0.45 
  -5   5  -2   50.60    1.64 
  -5   5  -2   50.48    1.56 
   5  -5   2   49.29    1.50 
   5  -5   2   49.96    1.76 
   5  -5   2   47.67    1.71 
   5  -5   2   47.50    1.51 
   5  -5   2   48.97    1.50 
  -6   5  -2    2.30    0.41 
   6  -5   2    3.33    0.56 
   6  -5   2    2.60    0.41 
   6  -5   2    3.30    0.52 
   6  -5   2    2.14    0.52 
   5   4  -2    0.47    0.35 
   4   4  -2    2.14    0.35 
   4   4  -2    1.47    0.32 
   4   4  -2    1.48    0.27 
   3   4  -2   -0.20    0.16 
   3   4  -2    0.08    0.14 
   3   4  -2    0.19    0.14 
  -3  -4   2    0.20    0.11 
   2   4  -2    3.48    0.19 
   2   4  -2    3.16    0.28 
   2   4  -2    4.17    0.31 
   2   4  -2    3.49    0.23 
   2   4  -2    4.05    0.37 
  -2  -4   2    3.78    0.26 
  -2  -4   2    3.32    0.27 
   1   4  -2   16.38    0.67 
   1   4  -2   17.54    0.56 
   1   4  -2   16.96    0.62 
   1   4  -2   17.53    0.57 
  -1  -4   2   16.98    0.58 
  -1  -4   2   17.98    0.61 
  -1  -4   2   17.72    0.53 
   0   4  -2   27.95    0.74 
   0   4  -2   28.09    0.79 
   0   4  -2   27.74    0.84 
   0   4  -2   27.84    0.81 
   0   4  -2   26.01    0.88 
   0  -4   2   28.65    0.95 
   0  -4   2   27.14    0.84 
   0  -4   2   27.68    0.79 
  -1   4  -2    1.81    0.27 
  -1   4  -2    1.23    0.20 
  -1   4  -2    1.54    0.25 
  -1   4  -2    1.65    0.22 
   1  -4   2    1.47    0.24 
   1  -4   2    1.26    0.22 
   1  -4   2    1.87    0.29 
   1  -4   2    2.31    0.22 
   1  -4   2    1.78    0.27 
  -2   4  -2    3.06    0.25 
  -2   4  -2    2.95    0.34 
  -2   4  -2    2.88    0.32 
  -2   4  -2    2.94    0.32 
   2  -4   2    3.62    0.42 
   2  -4   2    3.26    0.35 
   2  -4   2    3.27    0.32 
   2  -4   2    3.67    0.34 
   2  -4   2    2.79    0.29 
  -3   4  -2    1.23    0.27 
  -3   4  -2    1.86    0.29 
  -3   4  -2    1.30    0.26 
   3  -4   2    1.91    0.28 
   3  -4   2    2.52    0.33 
   3  -4   2    1.89    0.30 
   3  -4   2    2.89    0.35 
   3  -4   2    1.44    0.28 
  -4   4  -2    5.75    0.49 
  -4   4  -2    6.46    0.47 
  -4   4  -2    6.08    0.53 
   4  -4   2    7.23    0.58 
   4  -4   2    5.83    0.45 
   4  -4   2    5.77    0.44 
   4  -4   2    5.80    0.46 
   4  -4   2    6.34    0.54 
  -5   4  -2   26.59    1.00 
   5  -4   2   27.22    1.18 
   5  -4   2   27.11    0.98 
   5  -4   2   27.84    1.03 
   5  -4   2   25.93    1.19 
   5  -4   2   27.79    0.99 
  -6   4  -2   12.19    0.72 
   6  -4   2   11.33    0.71 
   6  -4   2   10.99    0.66 
   6  -4   2   11.87    0.92 
   6  -4   2   10.75    0.85 
   3   3  -2    4.91    0.19 
  -3  -3   2    4.81    0.18 
  -3  -3   2    4.85    0.18 
   2   3  -2   14.56    0.62 
   2   3  -2   14.40    0.56 
   2   3  -2   14.84    0.42 
   2   3  -2   14.74    0.55 
  -2  -3   2   14.16    0.45 
   1   3  -2   -0.09    0.07 
   1   3  -2   -0.19    0.06 
   1   3  -2   -0.06    0.11 
   1   3  -2    0.00    0.08 
   1   3  -2    0.17    0.14 
   1   3  -2    0.17    0.08 
  -1  -3   2    0.29    0.11 
  -1  -3   2    0.18    0.12 
  -1  -3   2    0.00    0.09 
   0   3  -2    1.96    0.22 
   0   3  -2    2.17    0.27 
   0   3  -2    2.57    0.21 
   0   3  -2    2.05    0.23 
   0   3  -2    2.26    0.13 
   0  -3   2    2.10    0.25 
   0  -3   2    2.28    0.23 
   0  -3   2    2.43    0.29 
  -1   3  -2   -0.03    0.14 
  -1   3  -2    0.10    0.15 
  -1   3  -2   -0.19    0.11 
  -1   3  -2    0.04    0.12 
   1  -3   2   -0.10    0.15 
   1  -3   2   -0.18    0.10 
   1  -3   2   -0.08    0.14 
   1  -3   2    0.02    0.13 
   1  -3   2   -0.20    0.15 
  -2   3  -2   41.64    1.16 
  -2   3  -2   43.44    1.18 
  -2   3  -2   42.03    1.14 
   2  -3   2   43.21    1.11 
   2  -3   2   41.68    1.18 
   2  -3   2   40.45    1.17 
   2  -3   2   43.33    1.24 
   2  -3   2   42.55    1.14 
  -3   3  -2    0.51    0.24 
  -3   3  -2    0.56    0.20 
  -3   3  -2    0.67    0.22 
   3  -3   2    0.66    0.19 
   3  -3   2    0.57    0.24 
   3  -3   2    0.72    0.20 
   3  -3   2    0.45    0.18 
  -4   3  -2    0.13    0.20 
  -4   3  -2   -0.04    0.16 
   4  -3   2    0.03    0.17 
   4  -3   2    0.05    0.24 
   4  -3   2    0.14    0.16 
   4  -3   2   -0.06    0.16 
  -5   3  -2    0.25    0.20 
   5  -3   2    0.70    0.21 
   5  -3   2   -0.16    0.24 
   5  -3   2    0.87    0.23 
   5  -3   2    0.69    0.24 
  -6   3  -2    1.91    0.34 
   6  -3   2    1.00    0.27 
   6  -3   2    1.48    0.34 
   6  -3   2    1.78    0.44 
   2   2  -2   56.56    1.17 
  -2  -2   2   56.89    1.21 
  -2  -2   2   55.70    1.21 
   1   2  -2    8.12    0.34 
   1   2  -2    8.21    0.28 
   1   2  -2    7.45    0.35 
   1   2  -2    7.77    0.27 
  -1  -2   2    8.00    0.29 
  -1  -2   2    7.91    0.30 
   0   2  -2   55.60    1.31 
   0   2  -2   57.93    1.36 
   0   2  -2   55.45    1.35 
   0   2  -2   57.77    1.25 
   0   2  -2   55.83    1.28 
   0  -2   2   56.65    1.38 
   0  -2   2   55.69    1.29 
   0  -2   2   53.84    1.40 
   0  -2   2   56.36    1.29 
   0  -2   2   56.40    1.24 
   0  -2   2   55.46    1.35 
  -1   2  -2   59.64    1.49 
  -1   2  -2   61.20    1.42 
  -1   2  -2   61.51    1.44 
  -1   2  -2   58.73    1.40 
   1  -2   2   59.76    1.45 
   1  -2   2   60.88    1.37 
   1  -2   2   61.45    1.50 
   1  -2   2   61.49    1.42 
  -2   2  -2    1.85    0.24 
  -2   2  -2    1.55    0.21 
  -2   2  -2    2.09    0.26 
   2  -2   2    1.79    0.29 
   2  -2   2    1.89    0.23 
   2  -2   2    1.69    0.24 
   2  -2   2    1.56    0.22 
  -3   2  -2  143.01    3.17 
  -3   2  -2  137.54    3.08 
  -3   2  -2  142.01    3.16 
   3  -2   2  138.57    2.98 
   3  -2   2  139.99    3.06 
   3  -2   2  135.87    3.35 
   3  -2   2  138.92    3.18 
  -4   2  -2   10.50    0.51 
   4  -2   2   10.98    0.50 
   4  -2   2   11.08    0.49 
   4  -2   2   11.66    0.57 
   4  -2   2   12.00    0.66 
  -5   2  -2   -0.18    0.16 
   5  -2   2    0.06    0.18 
   5  -2   2   -0.16    0.15 
   5  -2   2   -0.09    0.25 
  -6   2  -2    0.54    0.24 
   6  -2   2    0.86    0.29 
   6  -2   2    0.63    0.36 
   6  -2   2    0.54    0.20 
   6   1  -2    0.35    0.23 
   5   1  -2   41.13    1.37 
   5   1  -2   49.72    1.52 
   4   1  -2   19.42    0.45 
   3   1  -2  117.86    2.34 
   2   1  -2   93.27    1.85 
   2   1  -2   92.05    1.85 
  -2  -1   2   93.83    1.92 
  -2  -1   2   92.69    1.91 
   1   1  -2    2.20    0.13 
   1   1  -2    1.96    0.20 
   1   1  -2    2.14    0.13 
   1   1  -2    2.10    0.13 
  -1  -1   2    2.28    0.14 
  -1  -1   2    2.08    0.11 
   0   1  -2    0.34    0.11 
   0   1  -2    0.32    0.10 
   0   1  -2    0.71    0.13 
   0   1  -2    0.46    0.13 
   0   1  -2    0.61    0.15 
   0   1  -2    0.76    0.15 
   0   1  -2    0.38    0.08 
   0   1  -2    0.53    0.15 
   0   1  -2    0.68    0.14 
   0  -1   2    0.42    0.14 
   0  -1   2    0.25    0.11 
   0  -1   2    0.47    0.14 
   0  -1   2    0.41    0.13 
   0  -1   2    0.39    0.14 
   0  -1   2    0.20    0.11 
   0  -1   2    0.50    0.08 
   0  -1   2    0.59    0.15 
  -1   1  -2  185.43    3.85 
  -1   1  -2  184.39    3.93 
  -1   1  -2  194.77    3.87 
  -1   1  -2  178.73    3.85 
  -1   1  -2  185.15    4.07 
  -1   1  -2  184.59    4.12 
   1  -1   2  184.47    4.07 
   1  -1   2  188.32    3.86 
   1  -1   2  183.17    3.96 
   1  -1   2  183.21    4.10 
   1  -1   2  185.51    3.73 
   1  -1   2  186.43    3.92 
  -2   1  -2   48.36    1.13 
  -2   1  -2   44.26    1.11 
  -2   1  -2   46.95    1.11 
  -2   1  -2   45.50    1.14 
   2  -1   2   46.15    1.11 
   2  -1   2   46.61    1.07 
   2  -1   2   44.02    1.07 
   2  -1   2   44.38    1.24 
   2  -1   2   46.36    1.18 
  -3   1  -2    1.08    0.17 
  -3   1  -2    1.22    0.21 
   3  -1   2    1.09    0.17 
   3  -1   2    1.48    0.25 
   3  -1   2    1.35    0.26 
   3  -1   2    1.03    0.14 
   3  -1   2    1.46    0.20 
  -4   1  -2   52.68    1.35 
  -4   1  -2   51.16    1.31 
   4  -1   2   53.18    1.30 
   4  -1   2   49.69    1.57 
   4  -1   2   51.41    1.27 
   4  -1   2   50.41    1.45 
   4  -1   2   52.10    1.28 
  -5   1  -2    4.18    0.34 
   5  -1   2    3.43    0.28 
   5  -1   2    4.39    0.33 
   5  -1   2    3.99    0.43 
   5  -1   2    4.16    0.53 
  -6   1  -2    0.60    0.22 
   6  -1   2    0.39    0.35 
   6  -1   2    1.18    0.31 
   6  -1   2    0.68    0.20 
   6   0  -2    1.22    0.39 
   6   0  -2    1.49    0.29 
   6   0  -2    1.71    0.37 
   6   0  -2    2.25    0.22 
   5   0  -2    1.91    0.19 
   5   0  -2    2.00    0.31 
   5   0  -2    2.30    0.36 
  -5   0   2    2.44    0.21 
   4   0  -2   63.34    1.41 
   4   0  -2   63.84    1.76 
   4   0  -2   67.40    1.67 
  -4   0   2   65.14    1.45 
  -4   0   2   65.21    1.45 
   3   0  -2   11.19    0.48 
   3   0  -2   11.55    0.34 
  -3   0   2   11.50    0.35 
   2   0  -2   14.84    0.39 
   2   0  -2   15.60    0.58 
   2   0  -2   14.54    0.39 
   2   0  -2   14.58    0.48 
  -2   0   2   14.76    0.37 
  -2   0   2   14.45    0.40 
   1   0  -2  126.26    2.69 
   1   0  -2  127.97    2.98 
   1   0  -2  130.15    2.66 
   1   0  -2  131.38    2.58 
   1   0  -2  126.45    2.57 
   1   0  -2  124.94    2.77 
   1   0  -2  128.09    2.66 
  -1   0   2  130.12    2.98 
  -1   0   2  131.43    2.67 
  -1   0   2  129.17    2.66 
  -1   0   2  127.51    2.57 
  -1   0   2  125.42    2.57 
   0   0  -2    2.38    0.13 
   0   0  -2    2.32    0.16 
   0   0  -2    2.49    0.15 
   0   0  -2    2.35    0.14 
   0   0  -2    1.86    0.16 
   0   0   2    1.67    0.15 
   0   0   2    2.52    0.15 
   0   0   2    2.42    0.18 
   0   0   2    2.09    0.16 
   0   0   2    2.51    0.15 
   0   0   2    2.24    0.14 
   0   0   2    2.29    0.14 
   0   0   2    2.30    0.16 
  -1   0  -2    0.27    0.10 
  -1   0  -2    0.24    0.11 
  -1   0  -2    0.27    0.08 
  -1   0  -2    0.30    0.10 
  -1   0  -2    0.24    0.10 
   1   0   2    0.54    0.11 
   1   0   2    0.36    0.10 
   1   0   2    0.27    0.10 
   1   0   2    0.28    0.05 
   1   0   2    0.33    0.08 
   1   0   2    0.38    0.12 
  -2   0  -2    7.43    0.32 
  -2   0  -2    7.09    0.30 
   2   0   2    7.98    0.28 
   2   0   2    7.81    0.30 
   2   0   2    7.26    0.29 
   2   0   2    7.14    0.32 
   2   0   2    7.16    0.39 
  -3   0  -2    5.39    0.30 
  -3   0  -2    5.23    0.30 
   3   0   2    5.21    0.30 
   3   0   2    5.39    0.26 
   3   0   2    5.39    0.38 
   3   0   2    5.30    0.27 
  -4   0  -2   14.02    0.50 
   4   0   2   13.24    0.72 
   4   0   2   13.64    0.48 
   4   0   2   14.00    0.44 
   4   0   2   13.63    0.65 
   4   0   2   14.29    0.56 
  -5   0  -2    1.34    0.21 
   5   0   2    1.13    0.22 
   5   0   2    1.63    0.33 
   5   0   2    0.77    0.31 
   5   0   2    1.25    0.20 
  -6   0  -2    0.42    0.21 
   6   0   2    1.28    0.35 
   6   0   2    0.56    0.18 
   6   0   2    0.55    0.37 
   6  -1  -2    2.20    0.39 
   6  -1  -2    1.77    0.43 
   6  -1  -2    2.26    0.33 
   6  -1  -2    2.45    0.28 
  -6   1   2    2.11    0.30 
   5  -1  -2   38.08    1.26 
   5  -1  -2   36.78    1.41 
   5  -1  -2   38.22    1.11 
   5  -1  -2   36.05    0.97 
  -5   1   2   36.47    1.00 
   4  -1  -2   31.69    0.90 
   4  -1  -2   32.25    1.02 
   4  -1  -2   30.75    0.83 
   4  -1  -2   32.45    1.19 
   4  -1  -2   31.76    0.80 
  -4   1   2   30.74    0.86 
  -4   1   2   30.80    0.86 
  -4   1   2   33.35    0.72 
   3  -1  -2    6.81    0.46 
   3  -1  -2    6.97    0.31 
   3  -1  -2    7.10    0.37 
   3  -1  -2    7.01    0.30 
   3  -1  -2    7.09    0.30 
  -3   1   2    7.18    0.28 
  -3   1   2    7.58    0.33 
  -3   1   2    6.81    0.32 
   2  -1  -2  110.37    2.52 
   2  -1  -2  110.38    2.34 
   2  -1  -2  109.91    2.31 
   2  -1  -2  109.96    2.72 
   2  -1  -2  112.56    2.38 
  -2   1   2  112.50    2.40 
  -2   1   2  110.61    2.39 
   1  -1  -2  477.50    9.66 
   1  -1  -2  465.85   10.35 
   1  -1  -2  480.32   10.41 
   1  -1  -2  465.66    9.49 
   1  -1  -2  471.07   10.69 
  -1   1   2  471.98   10.41 
  -1   1   2  490.98    9.67 
  -1   1   2  482.13   10.19 
  -1   1   2  483.70    9.67 
   0  -1  -2  119.99    2.60 
   0  -1  -2  128.41    2.60 
   0  -1  -2  122.85    2.51 
   0  -1  -2  123.31    2.88 
   0  -1  -2  122.58    2.70 
   0  -1  -2  123.24    2.62 
   0   1   2  118.08    2.51 
   0   1   2  124.21    2.62 
   0   1   2  123.87    2.81 
   0   1   2  123.43    2.51 
   0   1   2  122.27    2.70 
   0   1   2  122.90    2.60 
  -1  -1  -2    4.74    0.25 
  -1  -1  -2    4.78    0.25 
  -1  -1  -2    4.87    0.24 
   1   1   2    4.76    0.23 
   1   1   2    4.74    0.22 
   1   1   2    5.03    0.16 
   1   1   2    4.60    0.23 
   1   1   2    4.97    0.24 
   1   1   2    4.86    0.17 
   1   1   2    4.62    0.29 
  -2  -1  -2    3.15    0.23 
  -2  -1  -2    3.57    0.22 
   2   1   2    3.48    0.21 
   2   1   2    3.69    0.21 
   2   1   2    4.07    0.29 
   2   1   2    3.96    0.21 
  -3  -1  -2   75.22    1.67 
  -3  -1  -2   71.24    1.66 
   3   1   2   72.96    1.61 
   3   1   2   75.34    1.94 
   3   1   2   75.61    1.92 
   3   1   2   73.90    1.61 
  -4  -1  -2    9.91    0.40 
   4   1   2    8.96    0.58 
   4   1   2    9.25    0.50 
   4   1   2    9.05    0.37 
  -5  -1  -2   18.46    0.59 
   5   1   2   18.57    0.78 
   5   1   2   18.48    0.89 
   5   1   2   18.57    0.98 
   5   1   2   18.11    0.58 
   6   1   2   12.75    0.92 
   6   1   2   12.16    0.83 
   6   1   2   12.63    0.50 
   6  -2  -2    9.14    0.79 
   6  -2  -2    9.62    0.52 
   6  -2  -2    9.84    0.51 
   6  -2  -2   10.29    0.70 
  -6   2   2    9.02    0.53 
   5  -2  -2   35.99    1.22 
   5  -2  -2   35.38    1.01 
   5  -2  -2   33.83    1.36 
   5  -2  -2   35.83    1.02 
  -5   2   2   34.12    1.03 
   4  -2  -2   11.16    0.55 
   4  -2  -2   10.79    0.42 
   4  -2  -2   11.01    0.69 
   4  -2  -2   10.83    0.47 
   4  -2  -2   10.96    0.45 
  -4   2   2   11.66    0.51 
   3  -2  -2    6.56    0.34 
   3  -2  -2    7.61    0.49 
   3  -2  -2    6.31    0.34 
   3  -2  -2    6.36    0.37 
   3  -2  -2    7.09    0.27 
  -3   2   2    6.50    0.37 
   2  -2  -2   12.81    0.46 
   2  -2  -2   13.05    0.48 
   2  -2  -2   12.27    0.46 
   2  -2  -2   11.97    0.55 
   2  -2  -2   12.76    0.34 
  -2   2   2   12.33    0.51 
  -2   2   2   11.87    0.47 
  -2   2   2   12.73    0.34 
  -2   2   2   13.26    0.47 
   1  -2  -2   47.75    1.28 
   1  -2  -2   45.32    1.17 
   1  -2  -2   47.27    1.15 
   1  -2  -2   46.90    1.11 
  -1   2   2   46.68    1.18 
  -1   2   2   46.16    1.20 
  -1   2   2   45.98    1.14 
   0  -2  -2  973.74   20.01 
   0  -2  -2  968.62   22.32 
   0  -2  -2  970.34   19.53 
   0  -2  -2  944.50   20.82 
   0  -2  -2 1000.00   19.35 
   0   2   2  988.39   20.51 
   0   2   2  928.22   19.98 
   0   2   2  967.78   19.50 
   0   2   2  962.83   21.41 
  -1  -2  -2  303.91    6.23 
  -1  -2  -2  293.89    6.10 
  -1  -2  -2  304.78    6.10 
  -1  -2  -2  290.25    5.88 
   1   2   2  298.23    5.94 
   1   2   2  292.46    6.40 
   1   2   2  287.33    6.64 
   1   2   2  298.54    5.90 
   1   2   2  295.21    6.08 
   1   2   2  291.48    6.22 
  -2  -2  -2   22.38    0.63 
  -2  -2  -2   20.79    0.62 
   2   2   2   22.23    0.60 
   2   2   2   21.66    0.60 
   2   2   2   21.55    0.78 
   2   2   2   21.41    0.62 
   2   2   2   22.19    0.59 
  -3  -2  -2    0.03    0.12 
   3   2   2    0.11    0.09 
   3   2   2    0.08    0.08 
   3   2   2    0.12    0.12 
   3   2   2    0.06    0.14 
   3   2   2    0.13    0.08 
  -4  -2  -2    1.86    0.23 
   4   2   2    1.87    0.35 
   4   2   2    2.11    0.21 
   4   2   2    2.42    0.33 
  -5  -2  -2    0.37    0.13 
   5   2   2   -0.16    0.24 
   5   2   2    0.31    0.12 
   5   2   2    0.14    0.18 
   6  -3  -2   20.72    0.97 
   6  -3  -2   18.37    0.77 
   6  -3  -2   18.27    1.12 
  -6   3   2   19.37    0.82 
   5  -3  -2   58.98    2.01 
   5  -3  -2   62.73    1.82 
   5  -3  -2   62.12    1.60 
   5  -3  -2   59.54    1.52 
  -5   3   2   61.97    1.66 
   4  -3  -2    7.46    0.43 
   4  -3  -2    7.39    0.34 
   4  -3  -2    7.77    0.60 
   4  -3  -2    8.15    0.49 
   4  -3  -2    7.55    0.44 
  -4   3   2    7.62    0.47 
   3  -3  -2   55.04    1.38 
   3  -3  -2   52.98    1.40 
   3  -3  -2   53.63    1.64 
   3  -3  -2   55.59    1.27 
   3  -3  -2   53.14    1.48 
  -3   3   2   54.40    1.40 
  -3   3   2   54.22    1.43 
   2  -3  -2    0.89    0.23 
   2  -3  -2    0.35    0.15 
   2  -3  -2    0.40    0.15 
   2  -3  -2    0.51    0.25 
  -2   3   2    0.73    0.14 
  -2   3   2    1.13    0.21 
  -2   3   2    0.41    0.19 
  -2   3   2    0.55    0.16 
   1  -3  -2   18.22    0.69 
   1  -3  -2   19.16    0.62 
   1  -3  -2   19.11    0.64 
   1  -3  -2   17.84    0.64 
  -1   3   2   17.95    0.62 
  -1   3   2   18.46    0.56 
  -1   3   2   17.64    0.65 
  -1   3   2   18.57    0.65 
   0  -3  -2    0.38    0.14 
   0  -3  -2    0.66    0.17 
   0  -3  -2    0.48    0.19 
   0  -3  -2    0.68    0.11 
   0   3   2    0.42    0.14 
   0   3   2    0.55    0.10 
   0   3   2    0.44    0.15 
   0   3   2    0.31    0.17 
  -1  -3  -2  267.14    5.53 
  -1  -3  -2  256.45    5.49 
  -1  -3  -2  268.80    5.28 
   1   3   2  257.08    5.62 
   1   3   2  263.93    5.65 
   1   3   2  262.32    6.02 
   1   3   2  258.31    5.46 
   1   3   2  260.89    5.32 
  -2  -3  -2    5.11    0.32 
  -2  -3  -2    5.04    0.32 
   2   3   2    4.85    0.24 
   2   3   2    4.60    0.43 
   2   3   2    4.50    0.28 
   2   3   2    4.90    0.26 
   2   3   2    5.11    0.28 
  -3  -3  -2    2.76    0.27 
   3   3   2    2.81    0.23 
   3   3   2    3.09    0.29 
   3   3   2    2.53    0.37 
  -4  -3  -2    2.11    0.26 
   4   3   2    2.00    0.22 
   4   3   2    2.70    0.38 
   4   3   2    2.75    0.33 
   5   3   2    3.63    0.27 
   5   3   2    3.58    0.54 
   6  -4  -2    0.19    0.21 
   6  -4  -2   -0.13    0.34 
  -6   4   2   -0.08    0.23 
   5  -4  -2    5.50    0.36 
   5  -4  -2    5.70    0.47 
   5  -4  -2    5.58    0.65 
   5  -4  -2    5.53    0.45 
   5  -4  -2    5.31    0.55 
  -5   4   2    4.86    0.49 
   4  -4  -2   19.11    0.77 
   4  -4  -2   18.99    0.93 
   4  -4  -2   19.20    0.84 
   4  -4  -2   21.26    0.79 
   4  -4  -2   20.44    0.63 
  -4   4   2   21.44    0.82 
  -4   4   2   20.82    0.67 
   3  -4  -2    6.45    0.44 
   3  -4  -2    6.65    0.46 
   3  -4  -2    7.22    0.53 
   3  -4  -2    7.70    0.48 
  -3   4   2    6.38    0.48 
  -3   4   2    6.53    0.40 
  -3   4   2    6.14    0.45 
   2  -4  -2  223.29    4.93 
   2  -4  -2  224.87    4.78 
   2  -4  -2  221.84    5.20 
   2  -4  -2  234.44    5.44 
  -2   4   2  230.07    4.94 
  -2   4   2  228.38    5.21 
  -2   4   2  229.88    5.12 
   1  -4  -2    0.38    0.16 
   1  -4  -2    0.33    0.19 
   1  -4  -2    0.36    0.20 
   1  -4  -2    0.51    0.24 
  -1   4   2    0.38    0.15 
  -1   4   2    0.57    0.20 
  -1   4   2    0.45    0.20 
  -1   4   2    0.48    0.16 
   0  -4  -2  280.40    6.49 
   0  -4  -2  282.62    5.68 
   0  -4  -2  274.69    5.89 
   0   4   2  276.43    5.86 
   0   4   2  271.07    6.03 
   0   4   2  277.98    6.38 
   0   4   2  277.70    5.71 
  -1  -4  -2  127.70    2.67 
  -1  -4  -2  125.51    2.81 
   1   4   2  120.20    2.86 
   1   4   2  122.18    3.13 
   1   4   2  122.82    2.62 
   1   4   2  124.25    2.76 
  -2  -4  -2    7.83    0.43 
  -2  -4  -2    7.57    0.33 
   2   4   2    7.71    0.35 
   2   4   2    6.98    0.56 
   2   4   2    7.14    0.31 
   2   4   2    7.87    0.40 
  -3  -4  -2   49.53    1.28 
   3   4   2   50.18    1.39 
   3   4   2   49.27    1.24 
   3   4   2   49.76    1.67 
   3   4   2   50.47    1.25 
  -4  -4  -2    0.23    0.15 
   4   4   2   -0.03    0.12 
   4   4   2    0.41    0.27 
   4   4   2   -0.02    0.17 
   6  -5  -2    3.69    0.49 
   6  -5  -2    2.00    0.52 
  -6   5   2    3.41    0.48 
   5  -5  -2    4.84    0.61 
   5  -5  -2    5.59    0.51 
   5  -5  -2    3.85    0.54 
   5  -5  -2    4.61    0.49 
  -5   5   2    4.34    0.52 
   4  -5  -2   57.59    1.87 
   4  -5  -2   56.30    1.63 
   4  -5  -2   55.25    1.72 
  -4   5   2   57.80    1.51 
  -4   5   2   55.76    1.65 
  -4   5   2   54.83    1.77 
   3  -5  -2    0.14    0.20 
   3  -5  -2    0.01    0.20 
   3  -5  -2    0.41    0.25 
   3  -5  -2    0.41    0.22 
  -3   5   2   -0.09    0.21 
  -3   5   2   -0.10    0.19 
  -3   5   2   -0.31    0.17 
   2  -5  -2    1.64    0.33 
   2  -5  -2    1.22    0.26 
   2  -5  -2    1.33    0.29 
   2  -5  -2    1.70    0.30 
  -2   5   2    1.21    0.26 
  -2   5   2    1.80    0.30 
  -2   5   2    1.13    0.26 
  -2   5   2    1.60    0.25 
   1  -5  -2    3.97    0.20 
   1  -5  -2    3.88    0.41 
   1  -5  -2    4.28    0.39 
   1  -5  -2    3.58    0.43 
  -1   5   2    4.68    0.43 
  -1   5   2    4.48    0.39 
  -1   5   2    3.72    0.37 
  -1   5   2    4.12    0.31 
   0  -5  -2   76.23    1.84 
   0  -5  -2   77.15    2.10 
   0  -5  -2   75.80    1.94 
   0   5   2   71.49    2.09 
   0   5   2   77.51    1.90 
   0   5   2   79.30    1.76 
   0   5   2   72.18    1.95 
  -1  -5  -2   11.59    0.50 
  -1  -5  -2   10.29    0.55 
   1   5   2   10.37    0.49 
   1   5   2   10.89    0.41 
   1   5   2   12.33    0.58 
   1   5   2   11.05    0.66 
  -2  -5  -2   48.02    1.36 
   2   5   2   49.80    1.69 
   2   5   2   50.04    1.21 
   2   5   2   50.59    1.42 
  -3  -5  -2    2.74    0.37 
   3   5   2    3.10    0.31 
   3   5   2    2.91    0.34 
   3   5   2    3.13    0.51 
  -4  -5  -2    1.23    0.24 
   4   5   2    1.83    0.45 
   4   5   2    1.65    0.24 
   5  -6  -2    0.33    0.30 
   5  -6  -2    0.18    0.26 
   5  -6  -2   -0.15    0.24 
   5  -6  -2    0.16    0.32 
  -5   6   2    0.54    0.30 
   4  -6  -2   50.88    1.58 
   4  -6  -2   50.27    1.79 
   4  -6  -2   55.19    1.66 
   4  -6  -2   55.04    1.74 
  -4   6   2   53.56    1.50 
  -4   6   2   52.20    1.77 
  -4   6   2   52.85    1.65 
   3  -6  -2   50.56    1.74 
   3  -6  -2   52.36    1.55 
   3  -6  -2   54.04    1.70 
   3  -6  -2   52.02    1.61 
  -3   6   2   54.65    1.57 
  -3   6   2   53.90    1.62 
  -3   6   2   54.99    1.73 
   2  -6  -2    1.90    0.36 
   2  -6  -2    2.96    0.40 
   2  -6  -2    1.89    0.33 
   2  -6  -2    2.84    0.43 
  -2   6   2    2.44    0.38 
  -2   6   2    2.58    0.40 
  -2   6   2    2.68    0.40 
  -2   6   2    3.13    0.35 
   1  -6  -2    4.64    0.44 
   1  -6  -2    4.40    0.47 
   1  -6  -2    4.62    0.48 
  -1   6   2    5.06    0.37 
  -1   6   2    5.17    0.49 
  -1   6   2    5.23    0.50 
  -1   6   2    4.11    0.42 
   0  -6  -2   15.14    0.77 
   0  -6  -2   15.59    0.68 
   0  -6  -2   16.02    0.74 
   0   6   2   15.20    0.57 
   0   6   2   15.71    0.83 
   0   6   2   15.71    0.68 
   0   6   2   15.08    0.73 
  -1  -6  -2   22.15    0.89 
   1   6   2   23.32    0.91 
   1   6   2   23.04    0.82 
   1   6   2   23.09    0.70 
   1   6   2   23.18    1.04 
  -2  -6  -2    7.53    0.55 
   2   6   2    7.40    0.72 
   2   6   2    6.95    0.51 
  -3  -6  -2    0.58    0.25 
   3   6   2    0.34    0.36 
   3   6   2    0.30    0.24 
   3   6   2    0.30    0.19 
   5  -7  -2    0.23    0.29 
   5  -7  -2    0.21    0.29 
   5  -7  -2    0.63    0.44 
   5  -7  -2    0.45    0.37 
  -5   7   2    0.59    0.33 
  -5   7   2    0.20    0.36 
   4  -7  -2    1.24    0.39 
   4  -7  -2    1.33    0.44 
   4  -7  -2    1.92    0.40 
   4  -7  -2    1.74    0.43 
  -4   7   2    1.60    0.39 
  -4   7   2    1.61    0.43 
   3  -7  -2   21.12    1.03 
   3  -7  -2   20.71    1.05 
   3  -7  -2   20.83    0.98 
   3  -7  -2   18.56    0.92 
  -3   7   2   20.96    0.92 
  -3   7   2   19.99    1.03 
  -3   7   2   20.68    0.97 
   2  -7  -2    7.48    0.62 
   2  -7  -2    7.10    0.62 
   2  -7  -2    7.40    0.70 
   2  -7  -2    6.75    0.67 
  -2   7   2    7.02    0.51 
  -2   7   2    7.70    0.59 
  -2   7   2    8.55    0.69 
  -2   7   2    6.84    0.60 
   1  -7  -2    6.44    0.56 
   1  -7  -2    5.15    0.56 
   1  -7  -2    4.10    0.57 
  -1   7   2    6.07    0.59 
  -1   7   2    5.42    0.43 
  -1   7   2    5.82    0.58 
  -1   7   2    5.12    0.50 
   0  -7  -2    9.03    0.66 
   0  -7  -2    9.03    0.66 
   0  -7  -2    9.09    0.60 
   0   7   2    9.07    0.74 
   0   7   2    8.67    0.58 
   0   7   2    9.66    0.66 
   0   7   2    8.44    0.47 
  -1  -7  -2    7.58    0.62 
   1   7   2    7.16    0.60 
   1   7   2    6.90    0.67 
  -2  -7  -2    3.12    0.50 
   2   7   2    2.10    0.47 
   2   7   2    3.02    0.50 
   4  -8  -2   -0.18    0.32 
   4  -8  -2    0.09    0.41 
   4  -8  -2    0.04    0.36 
   4  -8  -2    0.30    0.33 
  -4   8   2   -0.09    0.29 
  -4   8   2    0.25    0.37 
   3  -8  -2   -0.18    0.38 
   3  -8  -2    0.02    0.34 
   3  -8  -2   -0.28    0.31 
   3  -8  -2   -0.05    0.32 
  -3   8   2   -0.06    0.29 
  -3   8   2    0.48    0.36 
  -3   8   2    0.13    0.30 
   2  -8  -2    3.80    0.59 
   2  -8  -2    5.11    0.65 
   2  -8  -2    4.50    0.65 
  -2   8   2    4.56    0.49 
  -2   8   2    4.29    0.56 
  -2   8   2    4.59    0.61 
  -2   8   2    4.47    0.60 
   1  -8  -2   -0.31    0.26 
   1  -8  -2    0.23    0.28 
   1  -8  -2    0.51    0.34 
  -1   8   2    0.07    0.21 
  -1   8   2   -0.16    0.27 
  -1   8   2   -0.01    0.24 
  -1   8   2    0.21    0.31 
   0  -8  -2   -0.31    0.26 
   0   8   2   -0.23    0.25 
   0   8   2    0.15    0.35 
  -1  -8  -2    1.07    0.40 
   1   8   2   -0.12    0.41 
  -1   9  -3    0.76    0.36 
  -1   9  -3    0.12    0.40 
  -1   9  -3    0.77    0.39 
  -1   9  -3    0.55    0.29 
   1  -9   3    1.15    0.43 
  -2   9  -3    8.83    0.74 
  -2   9  -3    7.55    0.69 
  -2   9  -3    7.45    0.71 
  -2   9  -3    7.18    0.80 
   2  -9   3    6.49    0.78 
   2  -9   3    7.66    0.75 
   2  -9   3    6.42    0.84 
   1   8  -3    0.35    0.33 
   1   8  -3   -0.11    0.30 
  -1  -8   3   -0.13    0.27 
   0   8  -3   26.13    1.23 
   0   8  -3   28.03    1.11 
   0   8  -3   26.65    1.23 
   0  -8   3   28.58    1.15 
  -1   8  -3    3.34    0.46 
  -1   8  -3    3.87    0.55 
  -1   8  -3    3.94    0.60 
  -1   8  -3    3.68    0.52 
   1  -8   3    5.06    0.63 
   1  -8   3    4.94    0.57 
   1  -8   3    3.04    0.54 
  -2   8  -3   22.50    1.10 
  -2   8  -3   21.73    0.99 
  -2   8  -3   25.11    1.08 
  -2   8  -3   24.73    1.05 
   2  -8   3   23.22    1.10 
   2  -8   3   23.92    1.05 
   2  -8   3   21.59    1.18 
  -3   8  -3    0.00    0.30 
  -3   8  -3    0.13    0.27 
  -3   8  -3   -0.31    0.25 
   3  -8   3    0.49    0.42 
   3  -8   3   -0.14    0.31 
   3  -8   3    0.13    0.31 
  -4   8  -3    0.22    0.34 
  -4   8  -3    0.72    0.36 
  -4   8  -3    0.14    0.33 
   4  -8   3    0.55    0.40 
   4  -8   3    0.13    0.27 
   4  -8   3   -0.31    0.26 
   4  -8   3   -0.07    0.32 
   4  -8   3   -0.28    0.33 
   2   7  -3   10.72    0.76 
   2   7  -3   10.33    0.65 
  -2  -7   3    9.51    0.61 
   1   7  -3   20.70    0.99 
   1   7  -3   18.84    0.84 
  -1  -7   3   19.44    0.87 
   0   7  -3   40.29    1.14 
   0   7  -3   37.56    1.23 
   0   7  -3   41.43    1.32 
   0   7  -3   41.28    1.44 
   0  -7   3   39.42    1.32 
   0  -7   3   40.15    1.21 
  -1   7  -3   22.68    1.04 
  -1   7  -3   24.51    0.84 
  -1   7  -3   23.98    0.95 
  -1   7  -3   25.30    0.99 
  -1   7  -3   23.13    0.98 
   1  -7   3   23.83    0.92 
   1  -7   3   24.07    1.00 
   1  -7   3   24.86    1.12 
  -2   7  -3    5.19    0.50 
  -2   7  -3    4.71    0.47 
  -2   7  -3    5.63    0.56 
  -2   7  -3    5.31    0.57 
   2  -7   3    4.68    0.68 
   2  -7   3    4.90    0.54 
   2  -7   3    4.62    0.52 
   2  -7   3    6.17    0.49 
  -3   7  -3    3.21    0.51 
  -3   7  -3    3.74    0.50 
  -3   7  -3    3.99    0.58 
  -3   7  -3    3.75    0.35 
   3  -7   3    3.10    0.53 
   3  -7   3    3.65    0.48 
   3  -7   3    3.27    0.47 
   3  -7   3    4.63    0.55 
   3  -7   3    3.46    0.48 
  -4   7  -3    5.45    0.59 
  -4   7  -3    6.57    0.64 
  -4   7  -3    6.64    0.67 
   4  -7   3    6.03    0.57 
   4  -7   3    6.50    0.65 
   4  -7   3    5.63    0.68 
   4  -7   3    5.62    0.59 
   4  -7   3    6.05    0.63 
  -5   7  -3   18.74    1.07 
  -5   7  -3   20.65    1.13 
  -5   7  -3   21.24    1.06 
   5  -7   3   21.96    1.23 
   5  -7   3   20.87    1.10 
   5  -7   3   19.89    1.04 
   5  -7   3   21.04    1.05 
   3   6  -3    0.51    0.24 
   3   6  -3    0.25    0.19 
   3   6  -3    0.78    0.32 
  -3  -6   3    0.20    0.18 
   2   6  -3    3.37    0.49 
   2   6  -3    4.30    0.41 
   2   6  -3    2.85    0.30 
  -2  -6   3    2.78    0.38 
   1   6  -3    5.10    0.44 
   1   6  -3    4.52    0.49 
   1   6  -3    5.18    0.35 
   1   6  -3    4.05    0.35 
  -1  -6   3    4.72    0.44 
   0   6  -3    8.67    0.44 
   0   6  -3    7.95    0.48 
   0   6  -3    8.61    0.54 
   0   6  -3    9.30    0.60 
   0  -6   3    8.19    0.54 
   0  -6   3    8.46    0.49 
  -1   6  -3   -0.20    0.19 
  -1   6  -3    0.34    0.19 
  -1   6  -3    0.07    0.14 
  -1   6  -3   -0.04    0.21 
   1  -6   3   -0.21    0.13 
   1  -6   3   -0.53    0.21 
   1  -6   3    0.25    0.20 
   1  -6   3   -0.13    0.20 
  -2   6  -3   42.99    1.42 
  -2   6  -3   44.04    1.38 
  -2   6  -3   43.11    1.27 
  -2   6  -3   41.89    1.33 
   2  -6   3   44.54    1.26 
   2  -6   3   42.54    1.38 
   2  -6   3   42.17    1.37 
   2  -6   3   43.15    1.31 
   2  -6   3   43.28    1.51 
  -3   6  -3   16.12    0.78 
  -3   6  -3   15.40    0.57 
  -3   6  -3   14.59    0.80 
  -3   6  -3   14.34    0.76 
   3  -6   3   16.34    0.79 
   3  -6   3   14.27    0.74 
   3  -6   3   14.37    0.87 
   3  -6   3   14.66    0.71 
   3  -6   3   13.19    0.72 
  -4   6  -3    0.10    0.27 
  -4   6  -3   -0.31    0.25 
  -4   6  -3    0.03    0.29 
   4  -6   3    0.08    0.26 
   4  -6   3    0.00    0.34 
   4  -6   3   -0.11    0.24 
   4  -6   3   -0.16    0.24 
   4  -6   3   -0.07    0.27 
  -5   6  -3   -0.04    0.26 
  -5   6  -3    0.20    0.29 
   5  -6   3   -0.09    0.26 
   5  -6   3   -0.15    0.24 
   5  -6   3    0.37    0.34 
   5  -6   3    0.02    0.26 
   5  -6   3    0.40    0.37 
   4   5  -3   -0.15    0.17 
   4   5  -3    0.19    0.25 
   3   5  -3    5.26    0.44 
   3   5  -3    6.10    0.53 
   3   5  -3    5.04    0.42 
  -3  -5   3    4.92    0.34 
   2   5  -3    0.53    0.25 
   2   5  -3    0.42    0.16 
   2   5  -3    0.81    0.23 
  -2  -5   3    0.16    0.16 
   1   5  -3   63.94    1.68 
   1   5  -3   66.54    1.83 
   1   5  -3   65.33    1.60 
   1   5  -3   63.88    1.72 
  -1  -5   3   68.44    1.54 
  -1  -5   3   64.15    1.66 
   0   5  -3  101.20    2.43 
   0   5  -3  104.00    2.34 
   0   5  -3  100.13    2.44 
   0   5  -3  101.50    2.56 
   0   5  -3  101.27    2.37 
   0  -5   3   99.09    2.41 
   0  -5   3   99.95    2.62 
   0  -5   3  102.86    2.30 
  -1   5  -3    3.22    0.36 
  -1   5  -3    3.34    0.37 
  -1   5  -3    3.35    0.35 
  -1   5  -3    3.57    0.31 
   1  -5   3    3.73    0.39 
   1  -5   3    3.26    0.24 
   1  -5   3    3.42    0.36 
   1  -5   3    3.42    0.43 
  -2   5  -3    2.81    0.39 
  -2   5  -3    2.18    0.35 
  -2   5  -3    2.18    0.35 
  -2   5  -3    2.74    0.34 
   2  -5   3    2.55    0.37 
   2  -5   3    2.94    0.46 
   2  -5   3    2.44    0.38 
   2  -5   3    2.96    0.38 
   2  -5   3    2.52    0.31 
  -3   5  -3   14.58    0.46 
  -3   5  -3   12.59    0.69 
  -3   5  -3   13.34    0.68 
  -3   5  -3   13.50    0.71 
   3  -5   3   12.81    0.73 
   3  -5   3   13.43    0.64 
   3  -5   3   12.18    0.64 
   3  -5   3   12.72    0.66 
   3  -5   3   13.38    0.68 
  -4   5  -3   51.28    1.64 
  -4   5  -3   51.73    1.62 
  -4   5  -3   53.83    1.60 
   4  -5   3   52.82    1.54 
   4  -5   3   54.21    1.59 
   4  -5   3   50.66    1.66 
   4  -5   3   52.75    1.74 
   4  -5   3   54.60    1.58 
  -5   5  -3    6.45    0.58 
  -5   5  -3    5.79    0.58 
   5  -5   3    7.24    0.57 
   5  -5   3    5.85    0.68 
   5  -5   3    7.11    0.62 
   5  -5   3    6.17    0.67 
   5  -5   3    6.02    0.56 
  -6   5  -3    0.12    0.29 
   6  -5   3    0.30    0.39 
   6  -5   3   -0.10    0.24 
   6  -5   3    0.56    0.42 
   4   4  -3    1.77    0.30 
   4   4  -3    1.39    0.29 
   4   4  -3    1.34    0.32 
   3   4  -3   14.95    0.66 
   3   4  -3   12.73    0.69 
   3   4  -3   14.24    0.64 
  -3  -4   3   12.80    0.43 
   2   4  -3   55.50    1.59 
   2   4  -3   55.19    1.28 
   2   4  -3   57.61    1.52 
   2   4  -3   54.45    1.48 
   2   4  -3   54.23    1.24 
  -2  -4   3   53.69    1.32 
  -2  -4   3   53.68    1.33 
   1   4  -3   62.13    1.61 
   1   4  -3   60.12    1.60 
   1   4  -3   61.95    1.49 
   1   4  -3   61.79    1.70 
   1   4  -3   65.32    1.54 
  -1  -4   3   64.21    1.54 
  -1  -4   3   64.84    1.43 
  -1  -4   3   63.53    1.55 
   0   4  -3   33.06    0.92 
   0   4  -3   30.89    0.93 
   0   4  -3   31.70    0.96 
   0   4  -3   31.69    1.01 
   0  -4   3   32.70    0.89 
   0  -4   3   31.75    0.94 
   0  -4   3   31.31    1.03 
  -1   4  -3    1.50    0.23 
  -1   4  -3    1.15    0.21 
  -1   4  -3    1.23    0.24 
  -1   4  -3    0.98    0.21 
   1  -4   3    1.60    0.29 
   1  -4   3    1.56    0.19 
   1  -4   3    0.94    0.22 
   1  -4   3    1.26    0.21 
   1  -4   3    1.50    0.24 
  -2   4  -3  121.47    2.88 
  -2   4  -3  124.32    3.02 
  -2   4  -3  126.56    2.87 
  -2   4  -3  126.65    2.95 
   2  -4   3  125.22    3.01 
   2  -4   3  128.72    2.79 
   2  -4   3  118.01    2.86 
   2  -4   3  122.13    2.94 
   2  -4   3  125.26    3.07 
  -3   4  -3    4.34    0.41 
  -3   4  -3    5.53    0.46 
  -3   4  -3    5.55    0.44 
   3  -4   3    4.94    0.43 
   3  -4   3    5.08    0.49 
   3  -4   3    5.93    0.43 
   3  -4   3    5.44    0.42 
   3  -4   3    4.61    0.41 
  -4   4  -3   17.05    0.82 
  -4   4  -3   17.06    0.75 
  -4   4  -3   16.79    0.74 
   4  -4   3   17.91    0.78 
   4  -4   3   16.46    0.72 
   4  -4   3   16.37    0.73 
   4  -4   3   16.79    0.84 
  -5   4  -3   36.07    1.23 
   5  -4   3   35.83    1.18 
   5  -4   3   37.03    1.20 
   5  -4   3   34.93    1.37 
   5  -4   3   36.39    1.26 
   5  -4   3   35.16    1.43 
  -6   4  -3    1.21    0.33 
   6  -4   3    0.72    0.27 
   6  -4   3    0.96    0.40 
   6  -4   3    0.87    0.43 
   3   3  -3   24.96    0.89 
   3   3  -3   25.78    0.92 
   3   3  -3   23.96    0.59 
  -3  -3   3   25.09    0.60 
  -3  -3   3   24.59    0.60 
   2   3  -3    9.58    0.47 
   2   3  -3    9.88    0.34 
   2   3  -3    9.82    0.46 
  -2  -3   3    9.30    0.36 
   1   3  -3   55.22    1.43 
   1   3  -3   54.66    1.49 
   1   3  -3   57.53    1.30 
   1   3  -3   57.01    1.32 
   1   3  -3   56.55    1.47 
  -1  -3   3   58.35    1.26 
  -1  -3   3   55.93    1.35 
  -1  -3   3   58.75    1.35 
   0   3  -3   43.74    1.16 
   0   3  -3   43.73    1.10 
   0   3  -3   44.15    1.15 
   0   3  -3   42.57    1.18 
   0  -3   3   42.91    1.19 
   0  -3   3   43.46    1.06 
   0  -3   3   43.87    1.12 
   0  -3   3   43.64    1.20 
  -1   3  -3   63.98    1.61 
  -1   3  -3   63.50    1.58 
  -1   3  -3   65.19    1.58 
  -1   3  -3   62.68    1.65 
   1  -3   3   65.85    1.53 
   1  -3   3   65.72    1.68 
   1  -3   3   65.02    1.59 
   1  -3   3   66.49    1.65 
   1  -3   3   65.83    1.56 
  -2   3  -3    0.73    0.18 
  -2   3  -3    0.66    0.19 
  -2   3  -3    0.91    0.15 
  -2   3  -3    0.95    0.20 
  -2   3  -3    0.49    0.17 
   2  -3   3    0.59    0.22 
   2  -3   3    0.63    0.18 
   2  -3   3    0.82    0.19 
   2  -3   3    0.79    0.23 
  -3   3  -3    1.22    0.26 
  -3   3  -3    0.77    0.22 
  -3   3  -3    1.37    0.24 
   3  -3   3    0.85    0.24 
   3  -3   3    1.45    0.26 
   3  -3   3    1.51    0.32 
   3  -3   3    2.05    0.31 
  -4   3  -3   21.29    0.81 
  -4   3  -3   21.93    0.81 
   4  -3   3   20.35    0.83 
   4  -3   3   20.92    0.92 
   4  -3   3   21.99    0.79 
   4  -3   3   23.43    0.80 
  -5   3  -3    6.15    0.49 
   5  -3   3    6.36    0.53 
   5  -3   3    5.95    0.59 
   5  -3   3    6.31    0.47 
   5  -3   3    6.56    0.48 
  -6   3  -3    0.99    0.30 
   6  -3   3    1.14    0.45 
   6  -3   3    1.10    0.28 
   6  -3   3    0.68    0.32 
   3   2  -3   74.51    1.55 
  -3  -2   3   75.81    1.58 
  -3  -2   3   76.64    1.58 
   2   2  -3    3.09    0.16 
  -2  -2   3    2.72    0.18 
   1   2  -3  157.76    3.55 
   1   2  -3  157.55    3.25 
   1   2  -3  153.94    3.36 
   1   2  -3  157.98    3.17 
   1   2  -3  145.02    3.55 
  -1  -2   3  157.23    3.28 
  -1  -2   3  160.88    3.14 
   0   2  -3   11.56    0.45 
   0   2  -3   11.69    0.44 
   0   2  -3   12.05    0.45 
   0   2  -3   11.61    0.42 
   0  -2   3   12.20    0.48 
   0  -2   3   12.37    0.41 
   0  -2   3   11.39    0.45 
   0  -2   3   12.10    0.43 
   0  -2   3   10.87    0.43 
  -1   2  -3   92.23    2.07 
  -1   2  -3   90.75    2.09 
  -1   2  -3   90.35    2.07 
  -1   2  -3   93.17    2.21 
  -1   2  -3   93.75    2.14 
   1  -2   3   92.97    2.14 
   1  -2   3   87.92    2.06 
   1  -2   3   93.70    2.01 
   1  -2   3   92.89    2.19 
  -2   2  -3  203.03    4.30 
  -2   2  -3  194.39    4.24 
  -2   2  -3  186.61    4.17 
  -2   2  -3  196.16    4.49 
  -2   2  -3  194.93    4.18 
   2  -2   3  195.14    4.17 
   2  -2   3  196.24    4.47 
   2  -2   3  194.58    4.04 
   2  -2   3  194.52    4.30 
  -3   2  -3    5.48    0.38 
  -3   2  -3    5.31    0.42 
  -3   2  -3    5.30    0.38 
   3  -2   3    5.01    0.45 
   3  -2   3    5.71    0.36 
   3  -2   3    5.84    0.41 
   3  -2   3    5.45    0.36 
  -4   2  -3   20.34    0.74 
   4  -2   3   21.64    0.83 
   4  -2   3   20.75    0.91 
   4  -2   3   20.97    0.72 
   4  -2   3   20.03    0.71 
  -5   2  -3   33.06    1.06 
   5  -2   3   31.61    1.01 
   5  -2   3   34.16    1.31 
   5  -2   3   34.03    1.19 
  -6   2  -3    0.08    0.22 
   6  -2   3    0.40    0.21 
   6  -2   3    0.44    0.28 
   6  -2   3    0.17    0.35 
   6   1  -3    0.37    0.23 
   6   1  -3   -0.33    0.27 
   5   1  -3   39.00    1.47 
   5   1  -3   39.76    1.24 
   5   1  -3   39.04    1.32 
   4   1  -3    2.44    0.14 
  -4  -1   3    2.22    0.13 
   3   1  -3   55.07    1.15 
  -3  -1   3   53.97    1.19 
  -3  -1   3   53.58    1.18 
   2   1  -3  140.94    3.41 
   2   1  -3  143.37    2.88 
   2   1  -3  144.36    2.89 
   2   1  -3  145.40    2.94 
  -2  -1   3  143.47    2.98 
   1   1  -3   79.64    1.97 
   1   1  -3   82.23    1.85 
   1   1  -3   81.97    1.95 
   1   1  -3   81.21    1.76 
   1   1  -3   83.98    1.72 
  -1  -1   3   82.92    1.70 
  -1  -1   3   82.08    1.78 
  -1  -1   3   82.48    1.78 
   0   1  -3  689.49   13.13 
   0   1  -3  668.33   15.22 
   0   1  -3  690.14   14.60 
   0   1  -3  650.69   15.12 
   0   1  -3  652.10   13.56 
   0   1  -3  643.20   13.93 
   0  -1   3  662.85   14.17 
   0  -1   3  680.92   13.43 
   0  -1   3  686.01   13.57 
   0  -1   3  699.34   13.95 
   0  -1   3  661.21   15.18 
   0  -1   3  672.19   14.47 
  -1   1  -3   60.05    1.39 
  -1   1  -3   62.77    1.47 
  -1   1  -3   63.08    1.38 
   1  -1   3   62.80    1.38 
   1  -1   3   61.39    1.46 
   1  -1   3   58.33    1.46 
   1  -1   3   61.64    1.38 
   1  -1   3   62.21    1.42 
   1  -1   3   58.64    1.49 
  -2   1  -3   12.22    0.54 
  -2   1  -3   13.41    0.41 
  -2   1  -3   12.94    0.48 
  -2   1  -3   12.15    0.47 
  -2   1  -3   13.41    0.42 
   2  -1   3   12.96    0.47 
   2  -1   3   12.98    0.46 
   2  -1   3   12.03    0.53 
   2  -1   3   12.58    0.41 
   2  -1   3   13.06    0.41 
  -3   1  -3   25.62    0.79 
   3  -1   3   25.82    0.93 
   3  -1   3   25.33    0.76 
   3  -1   3   26.22    0.71 
   3  -1   3   25.07    0.86 
   3  -1   3   25.96    0.76 
  -4   1  -3    4.26    0.34 
   4  -1   3    4.10    0.41 
   4  -1   3    5.19    0.50 
   4  -1   3    4.31    0.32 
   4  -1   3    3.87    0.25 
   4  -1   3    4.43    0.31 
  -5   1  -3    2.83    0.35 
   5  -1   3    2.08    0.36 
   5  -1   3    3.15    0.47 
   5  -1   3    2.33    0.31 
  -6   1  -3    7.45    0.51 
   6  -1   3    9.86    0.82 
   6  -1   3    7.99    0.48 
   6  -1   3    8.41    0.68 
   6   0  -3    0.44    0.13 
   6   0  -3    0.44    0.23 
   6   0  -3    0.02    0.21 
   6   0  -3    0.23    0.31 
   5   0  -3    0.01    0.16 
   5   0  -3    0.06    0.10 
   5   0  -3    0.01    0.17 
   5   0  -3    0.20    0.25 
  -5   0   3    0.15    0.12 
   4   0  -3    0.34    0.13 
   4   0  -3    0.12    0.19 
   4   0  -3    0.15    0.09 
   4   0  -3    0.08    0.14 
  -4   0   3   -0.01    0.09 
  -4   0   3   -0.02    0.09 
   3   0  -3    8.72    0.32 
   3   0  -3    8.91    0.50 
   3   0  -3    8.98    0.29 
   3   0  -3    9.74    0.42 
  -3   0   3    9.02    0.34 
   2   0  -3  165.62    3.78 
   2   0  -3  169.90    3.56 
   2   0  -3  171.71    4.07 
   2   0  -3  169.41    3.47 
  -2   0   3  178.22    3.59 
  -2   0   3  172.12    3.59 
  -2   0   3  176.77    3.44 
   1   0  -3  270.80    5.27 
   1   0  -3  266.78    5.51 
   1   0  -3  264.92    5.43 
   1   0  -3  251.42    5.83 
   1   0  -3  258.33    5.26 
   1   0  -3  260.44    6.02 
  -1   0   3  261.76    5.44 
  -1   0   3  265.35    5.92 
  -1   0   3  272.89    5.26 
  -1   0   3  269.01    5.51 
  -1   0   3  272.75    5.44 
   0   0  -3  791.60   15.57 
   0   0  -3  750.27   15.23 
   0   0  -3  766.45   15.38 
   0   0  -3  671.26   16.87 
   0   0  -3  758.33   14.93 
   0   0  -3  654.82   16.22 
   0   0   3  761.92   16.39 
   0   0   3  731.28   15.24 
   0   0   3  740.84   16.83 
   0   0   3  769.40   14.85 
   0   0   3  751.11   15.35 
  -1   0  -3  140.11    3.24 
  -1   0  -3  141.38    3.03 
  -1   0  -3  144.84    2.96 
  -1   0  -3  145.91    3.04 
   1   0   3  146.76    2.96 
   1   0   3  142.59    3.02 
   1   0   3  139.40    3.13 
   1   0   3  143.29    3.25 
   1   0   3  139.11    2.93 
  -2   0  -3   16.47    0.53 
  -2   0  -3   16.55    0.55 
   2   0   3   16.60    0.52 
   2   0   3   16.62    0.51 
   2   0   3   15.27    0.61 
   2   0   3   17.17    0.43 
   2   0   3   17.10    0.55 
  -3   0  -3   73.43    1.68 
  -3   0  -3   73.17    1.66 
   3   0   3   69.81    1.76 
   3   0   3   65.71    1.90 
   3   0   3   69.82    1.84 
   3   0   3   68.46    1.59 
   3   0   3   70.37    1.62 
  -4   0  -3   31.80    0.92 
   4   0   3   32.51    1.20 
   4   0   3   32.69    1.12 
   4   0   3   31.89    0.98 
   4   0   3   31.71    0.88 
   4   0   3   31.79    0.86 
  -5   0  -3    1.06    0.23 
   5   0   3    1.48    0.39 
   5   0   3    1.39    0.32 
   5   0   3    1.33    0.21 
   5   0   3    1.51    0.26 
  -6   0  -3   -0.04    0.19 
   6   0   3    0.55    0.32 
   6   0   3   -0.20    0.32 
   6   0   3   -0.04    0.16 
   6  -1  -3    1.25    0.32 
   6  -1  -3    1.37    0.42 
   6  -1  -3    1.28    0.21 
  -6   1   3    1.37    0.23 
   5  -1  -3    5.02    0.42 
   5  -1  -3    4.62    0.57 
   5  -1  -3    5.14    0.35 
   5  -1  -3    5.72    0.33 
  -5   1   3    4.94    0.34 
   4  -1  -3    7.84    0.36 
   4  -1  -3    8.05    0.36 
   4  -1  -3    7.80    0.33 
   4  -1  -3    9.25    0.62 
   4  -1  -3    7.55    0.44 
  -4   1   3    7.58    0.38 
  -4   1   3    7.68    0.28 
  -4   1   3    8.00    0.38 
   3  -1  -3  147.08    3.65 
   3  -1  -3  151.23    3.13 
   3  -1  -3  147.82    3.06 
   3  -1  -3  146.57    3.13 
   3  -1  -3  142.24    3.35 
  -3   1   3  151.01    3.18 
  -3   1   3  139.19    3.15 
  -3   1   3  147.88    3.01 
   2  -1  -3  201.52    4.12 
   2  -1  -3  206.64    4.25 
   2  -1  -3  200.70    4.44 
   2  -1  -3  197.34    4.77 
  -2   1   3  207.48    4.11 
  -2   1   3  197.03    4.25 
  -2   1   3  209.92    4.45 
  -2   1   3  197.08    4.61 
  -2   1   3  207.26    4.27 
   1  -1  -3   38.71    1.04 
   1  -1  -3   39.36    0.96 
   1  -1  -3   40.16    0.99 
   1  -1  -3   40.71    0.94 
  -1   1   3   41.55    0.87 
  -1   1   3   38.71    0.95 
  -1   1   3   39.05    1.07 
  -1   1   3   40.72    0.94 
  -1   1   3   38.81    0.98 
   0  -1  -3   39.42    1.00 
   0  -1  -3   41.16    1.01 
   0  -1  -3   40.64    0.95 
   0  -1  -3   40.26    0.96 
   0   1   3   41.39    1.01 
   0   1   3   40.02    0.99 
   0   1   3   40.61    0.98 
   0   1   3   39.76    1.09 
   0   1   3   40.69    0.97 
  -1  -1  -3    3.86    0.26 
  -1  -1  -3    3.90    0.26 
  -1  -1  -3    3.81    0.25 
   1   1   3    3.98    0.30 
   1   1   3    4.78    0.26 
   1   1   3    3.75    0.27 
   1   1   3    3.97    0.14 
   1   1   3    3.67    0.24 
   1   1   3    4.45    0.14 
  -2  -1  -3  104.35    2.27 
  -2  -1  -3  103.48    2.27 
   2   1   3   99.87    2.44 
   2   1   3  105.89    2.20 
   2   1   3  105.75    2.20 
   2   1   3  100.01    2.49 
   2   1   3   98.89    2.19 
   2   1   3  103.85    2.25 
   2   1   3  101.66    2.22 
  -3  -1  -3   30.83    0.85 
  -3  -1  -3   30.14    0.84 
   3   1   3   29.40    1.02 
   3   1   3   30.29    0.97 
   3   1   3   29.52    0.80 
   3   1   3   30.51    0.81 
   3   1   3   30.46    0.80 
  -4  -1  -3   55.36    1.39 
   4   1   3   55.28    1.59 
   4   1   3   55.17    1.33 
   4   1   3   56.39    1.68 
  -5  -1  -3   14.33    0.57 
   5   1   3   13.74    0.89 
   5   1   3   14.67    0.56 
   5   1   3   14.38    0.69 
   5   1   3   15.29    0.85 
   6  -2  -3   29.55    0.96 
   6  -2  -3   32.15    1.20 
   6  -2  -3   30.40    1.43 
  -6   2   3   30.47    1.01 
   5  -2  -3   17.28    0.94 
   5  -2  -3   17.74    0.65 
   5  -2  -3   19.51    0.80 
   5  -2  -3   17.34    0.60 
  -5   2   3   17.76    0.68 
   4  -2  -3   11.57    0.49 
   4  -2  -3   11.28    0.39 
   4  -2  -3   12.18    0.71 
   4  -2  -3   12.49    0.49 
   4  -2  -3   10.81    0.53 
  -4   2   3   10.87    0.50 
  -4   2   3   11.36    0.45 
   3  -2  -3    3.72    0.29 
   3  -2  -3    3.29    0.29 
   3  -2  -3    3.99    0.29 
   3  -2  -3    4.47    0.17 
   3  -2  -3    3.90    0.41 
  -3   2   3    3.63    0.30 
   2  -2  -3    2.36    0.26 
   2  -2  -3    2.10    0.25 
   2  -2  -3    2.46    0.29 
   2  -2  -3    2.14    0.23 
  -2   2   3    2.35    0.25 
  -2   2   3    2.57    0.35 
   1  -2  -3    8.00    0.36 
   1  -2  -3    8.14    0.34 
   1  -2  -3    7.23    0.34 
   1  -2  -3    7.69    0.41 
   1  -2  -3    7.96    0.38 
  -1   2   3    7.29    0.40 
  -1   2   3    7.11    0.37 
  -1   2   3    7.72    0.38 
   0  -2  -3    3.19    0.19 
   0  -2  -3    2.83    0.24 
   0  -2  -3    2.88    0.31 
   0  -2  -3    3.08    0.14 
   0  -2  -3    2.55    0.27 
   0   2   3    3.06    0.17 
   0   2   3    2.87    0.30 
   0   2   3    2.70    0.21 
   0   2   3    3.34    0.26 
  -1  -2  -3   28.42    0.70 
  -1  -2  -3   26.54    0.74 
  -1  -2  -3   26.81    0.78 
  -1  -2  -3   27.34    0.73 
   1   2   3   26.49    0.87 
   1   2   3   27.07    0.73 
   1   2   3   26.16    0.74 
   1   2   3   26.86    0.75 
   1   2   3   27.58    0.69 
  -2  -2  -3   26.85    0.78 
  -2  -2  -3   28.06    0.79 
   2   2   3   28.42    0.66 
   2   2   3   27.42    0.75 
   2   2   3   25.43    0.74 
   2   2   3   27.93    0.76 
   2   2   3   26.31    0.92 
   2   2   3   27.13    0.70 
  -3  -2  -3   15.22    0.54 
  -3  -2  -3   14.89    0.55 
   3   2   3   15.27    0.48 
   3   2   3   16.04    0.69 
   3   2   3   15.09    0.50 
   3   2   3   13.86    0.51 
   3   2   3   17.02    0.76 
  -4  -2  -3   -0.08    0.13 
   4   2   3    0.25    0.17 
   4   2   3    0.49    0.25 
   4   2   3    0.25    0.13 
   4   2   3    0.20    0.14 
  -5  -2  -3    0.36    0.18 
   5   2   3    0.40    0.22 
   5   2   3    0.37    0.15 
   5   2   3    0.10    0.30 
   6  -3  -3    1.58    0.49 
   6  -3  -3    1.25    0.34 
   6  -3  -3    1.12    0.26 
  -6   3   3    1.22    0.30 
   5  -3  -3   55.19    1.47 
   5  -3  -3   55.34    1.64 
   5  -3  -3   53.59    1.89 
  -5   3   3   53.50    1.52 
   4  -3  -3   43.26    1.30 
   4  -3  -3   44.51    1.51 
   4  -3  -3   41.71    1.20 
   4  -3  -3   41.73    1.19 
   4  -3  -3   44.31    1.02 
  -4   3   3   41.33    1.24 
   3  -3  -3    5.95    0.40 
   3  -3  -3    4.91    0.45 
   3  -3  -3    5.43    0.38 
   3  -3  -3    5.54    0.38 
  -3   3   3    5.69    0.22 
  -3   3   3    5.53    0.41 
  -3   3   3    5.28    0.37 
   2  -3  -3   14.86    0.58 
   2  -3  -3   13.73    0.56 
   2  -3  -3   14.97    0.59 
   2  -3  -3   15.46    0.67 
  -2   3   3   15.45    0.59 
  -2   3   3   15.44    0.44 
  -2   3   3   14.88    0.64 
  -2   3   3   15.86    0.61 
   1  -3  -3   59.76    1.52 
   1  -3  -3   62.05    1.48 
   1  -3  -3   62.30    1.47 
   1  -3  -3   60.65    1.70 
   1  -3  -3   60.51    1.57 
  -1   3   3   61.40    1.64 
  -1   3   3   60.93    1.56 
  -1   3   3   60.06    1.52 
   0  -3  -3   15.50    0.41 
   0  -3  -3   15.30    0.55 
   0  -3  -3   14.99    0.41 
   0  -3  -3   14.98    0.59 
   0  -3  -3   15.49    0.67 
   0   3   3   16.54    0.58 
   0   3   3   14.78    0.56 
   0   3   3   14.56    0.64 
  -1  -3  -3  236.20    5.16 
  -1  -3  -3  248.53    4.96 
   1   3   3  245.87    5.28 
   1   3   3  241.78    5.12 
   1   3   3  248.87    5.23 
   1   3   3  236.84    5.64 
  -2  -3  -3    1.21    0.21 
  -2  -3  -3    1.24    0.20 
   2   3   3    1.06    0.12 
   2   3   3    1.04    0.18 
   2   3   3    1.04    0.17 
   2   3   3    1.07    0.17 
   2   3   3    1.26    0.28 
  -3  -3  -3    1.11    0.20 
   3   3   3    1.18    0.18 
   3   3   3    0.94    0.18 
   3   3   3    0.97    0.27 
   3   3   3    1.25    0.19 
  -4  -3  -3    1.18    0.22 
   4   3   3    1.01    0.19 
   4   3   3    1.51    0.38 
   4   3   3    1.78    0.26 
   4   3   3    1.06    0.30 
  -5  -3  -3    0.65    0.18 
   5   3   3    0.54    0.38 
   5   3   3    0.37    0.16 
   6  -4  -3   -0.01    0.33 
   6  -4  -3    0.03    0.28 
   6  -4  -3    0.58    0.25 
  -6   4   3    0.50    0.27 
   5  -4  -3    4.50    0.44 
   5  -4  -3    4.80    0.59 
   5  -4  -3    4.69    0.52 
   5  -4  -3    4.26    0.43 
  -5   4   3    4.48    0.48 
   4  -4  -3    6.66    0.51 
   4  -4  -3    7.23    0.61 
   4  -4  -3    6.85    0.48 
   4  -4  -3    6.22    0.47 
  -4   4   3    6.88    0.51 
  -4   4   3    6.73    0.42 
   3  -4  -3   45.64    1.28 
   3  -4  -3   44.89    1.49 
   3  -4  -3   46.10    1.36 
   3  -4  -3   45.03    1.31 
  -3   4   3   45.84    1.30 
  -3   4   3   46.19    1.43 
  -3   4   3   43.29    1.32 
   2  -4  -3    2.64    0.37 
   2  -4  -3    3.27    0.45 
   2  -4  -3    3.56    0.36 
   2  -4  -3    3.88    0.40 
  -2   4   3    3.08    0.37 
  -2   4   3    3.42    0.41 
  -2   4   3    2.85    0.33 
   1  -4  -3   10.48    0.38 
   1  -4  -3   10.70    0.53 
   1  -4  -3    9.66    0.56 
   1  -4  -3   10.09    0.53 
  -1   4   3   10.05    0.56 
  -1   4   3    9.83    0.51 
  -1   4   3   11.34    0.53 
   0  -4  -3    6.88    0.53 
   0  -4  -3    7.74    0.49 
   0  -4  -3    8.17    0.47 
   0   4   3    7.43    0.42 
   0   4   3    7.41    0.42 
   0   4   3    8.04    0.31 
   0   4   3    7.12    0.55 
  -1  -4  -3    5.17    0.40 
  -1  -4  -3    5.31    0.36 
   1   4   3    5.64    0.35 
   1   4   3    5.72    0.35 
   1   4   3    4.77    0.48 
   1   4   3    5.55    0.20 
  -2  -4  -3  115.42    2.68 
   2   4   3  114.07    2.58 
   2   4   3  117.05    2.42 
   2   4   3  111.48    3.04 
   2   4   3  118.18    2.61 
   2   4   3  117.71    2.70 
  -3  -4  -3    5.31    0.40 
   3   4   3    5.25    0.55 
   3   4   3    4.50    0.33 
   3   4   3    5.15    0.36 
  -4  -4  -3    2.05    0.28 
   4   4   3    2.07    0.29 
   4   4   3    2.15    0.42 
   6  -5  -3    2.26    0.39 
   6  -5  -3    2.78    0.60 
  -6   5   3    2.10    0.43 
   5  -5  -3   20.69    1.10 
   5  -5  -3   21.49    1.00 
   5  -5  -3   22.28    0.92 
   5  -5  -3   21.30    0.91 
  -5   5   3   20.56    0.96 
   4  -5  -3   19.78    0.90 
   4  -5  -3   18.49    0.98 
   4  -5  -3   19.18    0.82 
   4  -5  -3   19.39    0.84 
  -4   5   3   20.60    0.78 
  -4   5   3   18.42    0.86 
  -4   5   3   18.72    0.92 
   3  -5  -3   28.45    1.03 
   3  -5  -3   26.95    0.97 
   3  -5  -3   27.99    1.01 
   3  -5  -3   26.85    1.11 
  -3   5   3   26.03    0.96 
  -3   5   3   27.81    1.01 
  -3   5   3   25.46    1.04 
   2  -5  -3    0.07    0.20 
   2  -5  -3   -0.04    0.19 
   2  -5  -3    0.26    0.24 
   2  -5  -3   -0.02    0.18 
  -2   5   3    0.24    0.23 
  -2   5   3   -0.38    0.14 
  -2   5   3   -0.13    0.19 
   1  -5  -3    9.21    0.62 
   1  -5  -3    9.69    0.32 
   1  -5  -3    9.99    0.58 
   1  -5  -3    9.60    0.56 
   1  -5  -3    9.92    0.33 
  -1   5   3    9.56    0.61 
  -1   5   3    8.93    0.55 
  -1   5   3    9.19    0.53 
   0  -5  -3    6.92    0.45 
   0  -5  -3    6.98    0.49 
   0  -5  -3    6.56    0.51 
   0   5   3    6.09    0.45 
   0   5   3    7.50    0.46 
   0   5   3    6.71    0.32 
   0   5   3    6.49    0.52 
  -1  -5  -3  147.91    3.22 
  -1  -5  -3  146.01    3.40 
   1   5   3  148.88    3.80 
   1   5   3  144.22    3.34 
   1   5   3  147.93    3.45 
   1   5   3  151.64    3.10 
  -2  -5  -3   27.38    0.96 
   2   5   3   29.06    0.95 
   2   5   3   26.95    1.17 
  -3  -5  -3    2.73    0.40 
   3   5   3    2.45    0.33 
   3   5   3    3.30    0.57 
   3   5   3    3.24    0.34 
   5  -6  -3    0.07    0.30 
   5  -6  -3   -0.07    0.26 
   5  -6  -3    0.40    0.36 
   5  -6  -3    0.13    0.25 
  -5   6   3    0.24    0.28 
   4  -6  -3    0.02    0.28 
   4  -6  -3    0.03    0.24 
   4  -6  -3   -0.37    0.24 
   4  -6  -3   -0.04    0.31 
  -4   6   3    0.07    0.24 
  -4   6   3    0.16    0.24 
  -4   6   3    0.30    0.28 
   3  -6  -3    0.42    0.26 
   3  -6  -3    0.11    0.24 
   3  -6  -3    0.08    0.23 
   3  -6  -3    0.08    0.28 
  -3   6   3   -0.15    0.20 
  -3   6   3    0.02    0.27 
  -3   6   3    0.45    0.27 
   2  -6  -3    0.33    0.26 
   2  -6  -3    0.40    0.27 
   2  -6  -3    0.16    0.26 
   2  -6  -3   -0.21    0.29 
  -2   6   3   -0.12    0.21 
  -2   6   3    0.57    0.24 
  -2   6   3    0.43    0.24 
   1  -6  -3   51.29    1.53 
   1  -6  -3   49.70    1.63 
   1  -6  -3   49.27    1.44 
  -1   6   3   53.11    1.51 
  -1   6   3   46.97    1.59 
  -1   6   3   48.71    1.32 
  -1   6   3   50.10    1.54 
   0  -6  -3    9.37    0.64 
   0  -6  -3    9.96    0.58 
   0  -6  -3    9.28    0.61 
   0   6   3    9.52    0.57 
   0   6   3    9.65    0.43 
   0   6   3   10.15    0.68 
   0   6   3   11.21    0.63 
  -1  -6  -3   11.80    0.68 
   1   6   3   12.25    0.81 
   1   6   3   12.01    0.61 
   1   6   3   11.46    0.62 
  -2  -6  -3    3.07    0.46 
   2   6   3    3.05    0.41 
   2   6   3    2.77    0.53 
  -3  -6  -3    0.56    0.29 
   3   6   3    0.41    0.39 
   3   6   3    0.29    0.21 
   3   6   3    0.35    0.28 
   5  -7  -3    4.72    0.64 
   5  -7  -3    3.32    0.54 
   5  -7  -3    2.52    0.58 
  -5   7   3    3.63    0.57 
  -5   7   3    4.35    0.73 
   4  -7  -3    2.20    0.46 
   4  -7  -3    2.07    0.49 
   4  -7  -3    2.18    0.41 
   4  -7  -3    2.13    0.42 
  -4   7   3    1.87    0.47 
  -4   7   3    2.04    0.38 
  -4   7   3    1.88    0.40 
   3  -7  -3    2.71    0.52 
   3  -7  -3    2.67    0.45 
   3  -7  -3    3.08    0.50 
   3  -7  -3    2.92    0.48 
  -3   7   3    3.70    0.54 
  -3   7   3    2.40    0.44 
  -3   7   3    2.41    0.43 
   2  -7  -3   16.34    0.89 
   2  -7  -3   18.51    0.88 
   2  -7  -3   17.62    0.98 
  -2   7   3   18.41    0.87 
  -2   7   3   16.78    0.91 
  -2   7   3   17.11    0.91 
   1  -7  -3    0.52    0.35 
   1  -7  -3    0.64    0.31 
   1  -7  -3    1.00    0.32 
  -1   7   3    1.18    0.30 
  -1   7   3    1.00    0.36 
  -1   7   3    1.00    0.32 
  -1   7   3    1.11    0.24 
   0  -7  -3    1.61    0.32 
   0  -7  -3    1.37    0.34 
   0  -7  -3    1.08    0.34 
   0   7   3    1.19    0.34 
   0   7   3    1.72    0.44 
   0   7   3    1.19    0.30 
  -1  -7  -3    2.09    0.40 
   1   7   3    2.38    0.40 
   1   7   3    2.46    0.51 
  -2  -7  -3    1.09    0.35 
   2   7   3    1.43    0.48 
   2   7   3    2.08    0.39 
   3  -8  -3   15.22    0.98 
   3  -8  -3   15.47    1.05 
   3  -8  -3   13.48    0.89 
   3  -8  -3   14.53    0.94 
  -3   8   3   15.09    0.99 
  -3   8   3   15.25    0.93 
  -3   8   3   15.33    0.91 
   2  -8  -3    0.41    0.35 
   2  -8  -3    0.61    0.34 
   2  -8  -3    0.32    0.38 
  -2   8   3    0.40    0.29 
  -2   8   3   -0.03    0.29 
  -2   8   3   -0.47    0.29 
   1  -8  -3    5.40    0.63 
   1  -8  -3    5.07    0.64 
   1  -8  -3    4.07    0.61 
  -1   8   3    5.38    0.61 
  -1   8   3    5.94    0.60 
  -1   8   3    5.02    0.67 
   0  -8  -3    0.34    0.32 
   0  -8  -3    0.45    0.36 
   0   8   3    0.28    0.37 
   0   8   3    0.53    0.33 
   1   8  -4    2.94    0.53 
   1   8  -4    2.37    0.52 
   1   8  -4    2.94    0.49 
  -1  -8   4    2.75    0.45 
   0   8  -4   -0.10    0.35 
   0   8  -4   -0.30    0.30 
   0   8  -4   -0.06    0.26 
   0  -8   4    0.26    0.30 
  -1   8  -4   36.48    1.19 
  -1   8  -4   37.16    1.40 
  -1   8  -4   37.11    1.48 
  -1   8  -4   36.86    1.29 
  -1   8  -4   38.81    1.38 
   1  -8   4   35.65    1.49 
   1  -8   4   38.10    1.28 
   1  -8   4   35.88    1.38 
  -2   8  -4    0.58    0.27 
  -2   8  -4    0.21    0.28 
  -2   8  -4    0.57    0.30 
  -2   8  -4    0.82    0.37 
   2  -8   4   -0.27    0.29 
   2  -8   4    0.06    0.36 
   2  -8   4    0.28    0.32 
  -3   8  -4   40.88    1.52 
  -3   8  -4   39.68    1.59 
  -3   8  -4   41.35    1.50 
   3  -8   4   40.79    1.65 
   3  -8   4   40.94    1.47 
   3  -8   4   38.31    1.51 
  -4   8  -4    0.92    0.47 
  -4   8  -4    0.82    0.43 
  -4   8  -4    0.97    0.37 
   4  -8   4    1.18    0.43 
   4  -8   4    1.17    0.44 
   4  -8   4    1.50    0.53 
   4  -8   4    1.01    0.41 
   2   7  -4    0.63    0.30 
   2   7  -4   -0.18    0.31 
  -2  -7   4    0.58    0.27 
   1   7  -4   22.12    0.98 
   1   7  -4   24.01    1.11 
   1   7  -4   24.58    0.86 
  -1  -7   4   24.33    0.97 
   0   7  -4   15.12    0.83 
   0   7  -4   15.28    0.72 
   0   7  -4   15.85    0.80 
   0   7  -4   17.52    0.69 
   0  -7   4   15.26    0.70 
   0  -7   4   15.06    0.78 
  -1   7  -4   20.61    0.94 
  -1   7  -4   21.86    0.83 
  -1   7  -4   23.33    0.91 
  -1   7  -4   21.27    1.01 
   1  -7   4   20.11    0.93 
   1  -7   4   20.85    0.89 
   1  -7   4   19.97    1.04 
  -2   7  -4    1.53    0.40 
  -2   7  -4    1.53    0.30 
  -2   7  -4    2.55    0.40 
  -2   7  -4    1.50    0.32 
  -2   7  -4    1.43    0.40 
   2  -7   4    0.74    0.43 
   2  -7   4    1.15    0.34 
   2  -7   4    1.84    0.36 
  -3   7  -4    0.47    0.34 
  -3   7  -4    0.95    0.22 
  -3   7  -4    0.44    0.34 
  -3   7  -4    0.90    0.32 
   3  -7   4    1.21    0.36 
   3  -7   4    0.59    0.32 
   3  -7   4    1.01    0.35 
   3  -7   4    0.69    0.40 
   3  -7   4    0.95    0.26 
  -4   7  -4    9.98    0.75 
  -4   7  -4    9.25    0.76 
  -4   7  -4   10.36    0.79 
   4  -7   4   12.72    0.81 
   4  -7   4   10.14    0.83 
   4  -7   4    9.34    0.72 
   4  -7   4   11.37    0.76 
   4  -7   4   10.17    0.71 
  -5   7  -4   11.12    0.90 
  -5   7  -4   11.85    0.87 
  -5   7  -4   11.96    0.88 
   5  -7   4   11.36    0.85 
   5  -7   4   12.47    1.02 
   5  -7   4   10.90    0.82 
   5  -7   4   12.15    0.84 
   3   6  -4    5.00    0.61 
   3   6  -4    6.45    0.49 
   3   6  -4    8.14    0.58 
  -3  -6   4    5.50    0.42 
   2   6  -4    0.22    0.25 
   2   6  -4    0.05    0.20 
   2   6  -4   -0.03    0.14 
  -2  -6   4    0.02    0.20 
   1   6  -4    5.83    0.40 
   1   6  -4    5.71    0.56 
   1   6  -4    5.25    0.47 
   1   6  -4    5.87    0.41 
  -1  -6   4    4.97    0.46 
   0   6  -4   12.34    0.57 
   0   6  -4   12.02    0.68 
   0   6  -4   12.32    0.59 
   0   6  -4   12.02    0.65 
   0  -6   4   12.67    0.60 
   0  -6   4   12.03    0.65 
   0  -6   4   12.57    0.74 
  -1   6  -4   16.49    0.72 
  -1   6  -4   15.33    0.67 
  -1   6  -4   16.42    0.77 
  -1   6  -4   15.37    0.79 
   1  -6   4   17.33    0.79 
   1  -6   4   17.13    0.48 
   1  -6   4   16.39    0.84 
   1  -6   4   16.01    0.70 
  -2   6  -4   81.49    2.11 
  -2   6  -4   79.56    2.13 
  -2   6  -4   78.70    2.14 
  -2   6  -4   70.37    2.15 
   2  -6   4   77.81    2.16 
   2  -6   4   81.57    2.01 
   2  -6   4   78.65    2.05 
   2  -6   4   81.22    2.15 
   2  -6   4   76.79    2.26 
  -3   6  -4   23.13    0.96 
  -3   6  -4   24.15    1.02 
  -3   6  -4   23.47    0.75 
  -3   6  -4   21.35    0.98 
   3  -6   4   21.16    0.95 
   3  -6   4   23.97    0.90 
   3  -6   4   21.83    0.94 
   3  -6   4   21.70    1.04 
   3  -6   4   22.39    0.98 
  -4   6  -4    0.15    0.29 
  -4   6  -4    0.07    0.29 
  -4   6  -4    0.25    0.29 
   4  -6   4    0.54    0.30 
   4  -6   4    0.34    0.37 
   4  -6   4    0.52    0.28 
   4  -6   4    0.01    0.25 
   4  -6   4    0.37    0.28 
  -5   6  -4    0.16    0.29 
  -5   6  -4   -0.24    0.27 
  -5   6  -4   -0.40    0.25 
   5  -6   4    0.00    0.28 
   5  -6   4    0.07    0.33 
   5  -6   4    0.05    0.26 
   5  -6   4    0.13    0.34 
   5  -6   4    0.23    0.31 
   4   5  -4    2.22    0.44 
   4   5  -4    1.25    0.33 
   4   5  -4    1.69    0.32 
   3   5  -4   24.64    1.06 
   3   5  -4   23.51    0.96 
   3   5  -4   23.92    0.94 
  -3  -5   4   24.22    0.74 
   2   5  -4    0.82    0.19 
   2   5  -4    0.57    0.25 
   2   5  -4    0.82    0.23 
  -2  -5   4    0.72    0.20 
   1   5  -4    0.23    0.14 
   1   5  -4   -0.04    0.07 
   1   5  -4    0.31    0.15 
   1   5  -4    0.46    0.22 
   1   5  -4   -0.02    0.16 
  -1  -5   4    0.14    0.14 
  -1  -5   4    0.00    0.17 
   0   5  -4   -0.04    0.15 
   0   5  -4   -0.08    0.15 
   0   5  -4    0.20    0.19 
   0   5  -4   -0.15    0.14 
   0  -5   4   -0.17    0.21 
   0  -5   4   -0.15    0.14 
   0  -5   4    0.06    0.20 
  -1   5  -4   84.37    2.22 
  -1   5  -4   87.61    2.20 
  -1   5  -4   85.27    2.11 
  -1   5  -4   81.81    2.13 
   1  -5   4   84.56    2.23 
   1  -5   4   85.88    2.05 
   1  -5   4   84.81    2.14 
   1  -5   4   85.16    1.98 
   1  -5   4   85.01    2.29 
  -2   5  -4   22.93    0.90 
  -2   5  -4   22.74    0.89 
  -2   5  -4   23.04    0.87 
  -2   5  -4   22.94    0.90 
   2  -5   4   23.43    0.86 
   2  -5   4   21.36    0.90 
   2  -5   4   22.54    0.96 
   2  -5   4   23.18    0.89 
   2  -5   4   23.84    0.77 
  -3   5  -4    5.18    0.50 
  -3   5  -4    5.63    0.29 
  -3   5  -4    5.17    0.47 
  -3   5  -4    4.48    0.47 
   3  -5   4    5.47    0.44 
   3  -5   4    6.13    0.54 
   3  -5   4    5.00    0.46 
   3  -5   4    6.66    0.63 
   3  -5   4    5.42    0.47 
  -4   5  -4   34.12    1.23 
  -4   5  -4   34.12    1.26 
  -4   5  -4   34.96    1.23 
   4  -5   4   32.61    1.34 
   4  -5   4   36.94    1.26 
   4  -5   4   36.80    1.24 
   4  -5   4   38.00    1.30 
   4  -5   4   35.59    1.20 
  -5   5  -4   15.43    0.85 
  -5   5  -4   15.32    0.82 
   5  -5   4   15.54    0.87 
   5  -5   4   17.48    0.84 
   5  -5   4   16.04    0.93 
   5  -5   4   17.91    1.01 
   5  -5   4   15.33    0.81 
   4   4  -4    2.76    0.39 
   4   4  -4    2.94    0.41 
   4   4  -4    2.45    0.42 
   3   4  -4    0.47    0.25 
   3   4  -4    0.14    0.19 
   3   4  -4    0.02    0.13 
  -3  -4   4   -0.24    0.11 
   2   4  -4   97.39    2.50 
   2   4  -4   99.02    2.43 
   2   4  -4  101.70    2.17 
   2   4  -4   99.86    2.56 
   2   4  -4  100.54    2.18 
  -2  -4   4   98.27    2.25 
   1   4  -4    0.11    0.15 
   1   4  -4    0.19    0.19 
   1   4  -4    0.00    0.11 
   1   4  -4   -0.02    0.06 
   1   4  -4    0.25    0.13 
  -1  -4   4    0.30    0.13 
  -1  -4   4    0.27    0.16 
   0   4  -4   13.71    0.54 
   0   4  -4   13.74    0.58 
   0   4  -4   12.78    0.60 
   0  -4   4   13.24    0.63 
   0  -4   4   14.37    0.57 
   0  -4   4   13.03    0.57 
  -1   4  -4    8.28    0.47 
  -1   4  -4    8.02    0.45 
  -1   4  -4    8.14    0.47 
   1  -4   4    7.35    0.46 
   1  -4   4    8.49    0.46 
   1  -4   4    7.56    0.50 
   1  -4   4    7.85    0.48 
   1  -4   4    8.35    0.33 
  -2   4  -4    0.81    0.25 
  -2   4  -4    1.00    0.25 
  -2   4  -4    0.94    0.24 
  -2   4  -4    1.10    0.26 
   2  -4   4    0.92    0.19 
   2  -4   4    1.04    0.27 
   2  -4   4    1.10    0.25 
   2  -4   4    0.67    0.28 
   2  -4   4    0.90    0.24 
  -3   4  -4    0.23    0.19 
  -3   4  -4    0.35    0.10 
  -3   4  -4    0.31    0.20 
  -3   4  -4    0.36    0.25 
   3  -4   4    0.64    0.27 
   3  -4   4    0.38    0.20 
   3  -4   4    0.60    0.28 
   3  -4   4    0.28    0.20 
  -4   4  -4    3.51    0.40 
  -4   4  -4    3.38    0.42 
  -4   4  -4    4.12    0.49 
   4  -4   4    2.95    0.38 
   4  -4   4    3.46    0.51 
   4  -4   4    3.29    0.45 
   4  -4   4    3.07    0.39 
  -5   4  -4    7.96    0.58 
  -5   4  -4    9.20    0.62 
   5  -4   4    9.07    0.76 
   5  -4   4    7.85    0.57 
   5  -4   4    9.26    0.67 
   5  -4   4    9.51    0.61 
  -6   4  -4   -0.02    0.26 
   6  -4   4   -0.09    0.36 
   6  -4   4   -0.05    0.30 
   6  -4   4    0.19    0.24 
   5   3  -4    0.01    0.20 
   5   3  -4    0.09    0.25 
   4   3  -4   10.96    0.65 
   3   3  -4    0.85    0.12 
   3   3  -4    0.80    0.25 
   3   3  -4    0.80    0.22 
  -3  -3   4    0.97    0.14 
  -3  -3   4    1.01    0.14 
   2   3  -4   19.18    0.74 
   2   3  -4   19.21    0.74 
   2   3  -4   20.16    0.57 
   2   3  -4   21.31    0.55 
   2   3  -4   20.44    0.67 
  -2  -3   4   19.87    0.60 
  -2  -3   4   20.82    0.61 
  -2  -3   4   19.94    0.47 
   1   3  -4   10.15    0.32 
   1   3  -4    9.68    0.47 
   1   3  -4    9.77    0.46 
   1   3  -4    9.84    0.39 
   1   3  -4    8.55    0.47 
  -1  -3   4   10.19    0.42 
  -1  -3   4   10.34    0.38 
   0   3  -4   47.90    1.25 
   0   3  -4   48.11    1.30 
   0   3  -4   46.86    1.19 
   0   3  -4   45.48    1.27 
   0  -3   4   46.24    1.15 
   0  -3   4   47.46    1.21 
   0  -3   4   46.50    1.29 
   0  -3   4   45.73    1.27 
  -1   3  -4    0.49    0.19 
  -1   3  -4    0.15    0.20 
  -1   3  -4    0.48    0.16 
  -1   3  -4    0.51    0.16 
   1  -3   4    0.20    0.20 
   1  -3   4    0.80    0.19 
   1  -3   4    0.53    0.23 
   1  -3   4    0.54    0.18 
  -2   3  -4   61.23    1.61 
  -2   3  -4   63.30    1.73 
  -2   3  -4   62.09    1.60 
  -2   3  -4   63.85    1.60 
   2  -3   4   64.46    1.73 
   2  -3   4   62.44    1.67 
   2  -3   4   62.67    1.61 
   2  -3   4   63.45    1.57 
  -3   3  -4   63.15    1.68 
  -3   3  -4   65.29    1.71 
  -3   3  -4   65.21    1.74 
   3  -3   4   65.23    1.87 
   3  -3   4   68.53    1.72 
   3  -3   4   66.83    1.79 
   3  -3   4   69.73    1.68 
  -4   3  -4    3.57    0.41 
  -4   3  -4    3.72    0.37 
  -4   3  -4    4.33    0.42 
   4  -3   4    3.57    0.50 
   4  -3   4    4.18    0.40 
   4  -3   4    3.37    0.43 
   4  -3   4    3.89    0.38 
  -5   3  -4   67.88    1.89 
   5  -3   4   69.47    2.18 
   5  -3   4   68.23    1.83 
   5  -3   4   72.58    2.03 
   5  -3   4   69.55    1.94 
  -6   3  -4    0.27    0.27 
   6  -3   4    0.50    0.32 
   6  -3   4    1.03    0.29 
   6  -3   4    0.72    0.42 
   5   2  -4    3.86    0.46 
   4   2  -4   20.97    0.89 
   3   2  -4    1.08    0.25 
   3   2  -4    1.05    0.21 
   3   2  -4    1.12    0.13 
  -3  -2   4    0.96    0.15 
  -3  -2   4    1.21    0.15 
   2   2  -4    1.89    0.16 
   2   2  -4    2.26    0.23 
   2   2  -4    2.12    0.17 
   2   2  -4    1.99    0.28 
  -2  -2   4    2.16    0.16 
  -2  -2   4    2.25    0.23 
  -2  -2   4    1.92    0.19 
   1   2  -4    8.32    0.32 
   1   2  -4    9.07    0.35 
   1   2  -4    8.34    0.42 
   1   2  -4    8.63    0.34 
   1   2  -4    8.74    0.43 
  -1  -2   4    9.04    0.37 
  -1  -2   4    9.01    0.37 
  -1  -2   4    9.08    0.34 
   0   2  -4  310.16    6.95 
   0   2  -4  317.16    6.53 
   0   2  -4  316.05    6.51 
   0   2  -4  319.69    6.72 
   0  -2   4  305.42    6.29 
   0  -2   4  317.86    6.52 
   0  -2   4  309.00    6.70 
   0  -2   4  313.98    6.85 
   0  -2   4  319.34    7.00 
  -1   2  -4   12.70    0.53 
  -1   2  -4   11.92    0.49 
  -1   2  -4   12.60    0.46 
  -1   2  -4   12.12    0.49 
   1  -2   4   12.32    0.50 
   1  -2   4   13.03    0.51 
   1  -2   4   13.20    0.49 
  -2   2  -4    1.40    0.23 
  -2   2  -4    1.34    0.22 
  -2   2  -4    1.68    0.26 
  -2   2  -4    1.17    0.18 
  -2   2  -4    1.77    0.22 
   2  -2   4    1.53    0.23 
   2  -2   4    1.40    0.22 
   2  -2   4    1.22    0.23 
   2  -2   4    1.13    0.22 
  -3   2  -4    0.48    0.15 
  -3   2  -4    0.42    0.11 
  -3   2  -4    0.25    0.19 
  -3   2  -4    0.44    0.20 
   3  -2   4    0.37    0.17 
   3  -2   4    0.09    0.17 
   3  -2   4    0.21    0.19 
   3  -2   4    0.47    0.10 
   3  -2   4   -0.19    0.21 
  -4   2  -4   -0.02    0.17 
   4  -2   4    0.00    0.14 
   4  -2   4   -0.06    0.15 
   4  -2   4   -0.10    0.19 
   4  -2   4    0.16    0.07 
   4  -2   4   -0.02    0.20 
  -5   2  -4    7.16    0.52 
   5  -2   4    8.61    0.71 
   5  -2   4    6.34    0.46 
   5  -2   4    7.58    0.60 
  -6   2  -4   25.20    0.97 
   6  -2   4   23.77    0.92 
   6  -2   4   26.83    1.31 
   6  -2   4   25.59    1.16 
   6   1  -4    4.40    0.49 
   6   1  -4    4.93    0.49 
   6   1  -4    3.53    0.58 
   5   1  -4   19.07    0.97 
   5   1  -4   21.50    0.56 
   5   1  -4   21.80    0.88 
   4   1  -4   18.45    0.71 
   4   1  -4   16.97    0.80 
   4   1  -4   16.99    0.49 
  -4  -1   4   17.61    0.49 
   3   1  -4    8.29    0.30 
   3   1  -4    8.10    0.30 
   3   1  -4    8.22    0.46 
  -3  -1   4    8.12    0.31 
   2   1  -4   26.83    0.66 
   2   1  -4   25.40    0.65 
   2   1  -4   26.20    0.82 
   2   1  -4   25.82    0.88 
   2   1  -4   24.79    0.65 
  -2  -1   4   25.98    0.69 
  -2  -1   4   26.78    0.69 
   1   1  -4   53.21    1.24 
   1   1  -4   56.25    1.24 
   1   1  -4   52.26    1.42 
   1   1  -4   54.09    1.37 
   1   1  -4   53.35    1.26 
   1   1  -4   53.97    1.34 
  -1  -1   4   56.31    1.32 
  -1  -1   4   55.13    1.22 
  -1  -1   4   54.25    1.28 
  -1  -1   4   55.70    1.28 
   0   1  -4  235.63    4.98 
   0   1  -4  221.74    5.12 
   0   1  -4  225.63    4.79 
   0   1  -4  232.87    4.78 
   0   1  -4  234.83    5.21 
   0  -1   4  225.10    5.18 
   0  -1   4  229.20    4.90 
   0  -1   4  224.63    4.79 
   0  -1   4  235.38    5.21 
   0  -1   4  229.58    4.64 
   0  -1   4  228.44    4.98 
  -1   1  -4   22.59    0.60 
  -1   1  -4   22.98    0.74 
  -1   1  -4   23.42    0.70 
  -1   1  -4   23.21    0.66 
   1  -1   4   22.95    0.67 
   1  -1   4   22.54    0.69 
   1  -1   4   23.36    0.69 
   1  -1   4   22.66    0.70 
   1  -1   4   23.69    0.73 
  -2   1  -4   76.78    1.84 
  -2   1  -4   79.25    1.74 
  -2   1  -4   79.09    2.02 
  -2   1  -4   76.55    1.80 
   2  -1   4   77.40    1.93 
   2  -1   4   82.47    1.89 
   2  -1   4   77.20    1.83 
   2  -1   4   76.77    1.78 
   2  -1   4   78.84    1.74 
   2  -1   4   75.19    1.98 
  -3   1  -4    9.88    0.49 
  -3   1  -4    8.55    0.45 
   3  -1   4    9.11    0.43 
   3  -1   4    8.30    0.44 
   3  -1   4    9.71    0.59 
   3  -1   4    8.08    0.50 
   3  -1   4   10.10    0.39 
  -4   1  -4    1.75    0.26 
   4  -1   4    1.42    0.32 
   4  -1   4    2.18    0.28 
   4  -1   4    2.34    0.23 
   4  -1   4    2.40    0.36 
   4  -1   4    2.86    0.30 
  -5   1  -4   33.52    1.07 
   5  -1   4   33.42    1.26 
   5  -1   4   33.72    1.36 
   5  -1   4   33.92    1.03 
   6  -1   4   10.73    0.83 
   6  -1   4   11.18    0.81 
   6  -1   4   10.09    0.56 
   6   0  -4   12.05    0.89 
   6   0  -4   12.87    0.72 
   6   0  -4   12.24    0.46 
   5   0  -4   22.00    1.05 
   5   0  -4   21.49    0.86 
   5   0  -4   21.12    0.63 
   5   0  -4   22.32    0.78 
  -5   0   4   21.16    0.64 
   4   0  -4    0.06    0.19 
   4   0  -4   -0.05    0.13 
   4   0  -4    0.00    0.10 
  -4   0   4   -0.06    0.11 
   3   0  -4    0.26    0.11 
   3   0  -4    0.49    0.18 
   3   0  -4    0.24    0.11 
   3   0  -4    0.52    0.14 
  -3   0   4    0.55    0.16 
  -3   0   4    0.50    0.13 
   2   0  -4   90.31    1.99 
   2   0  -4   89.79    2.30 
   2   0  -4   92.37    1.95 
   2   0  -4   89.47    1.99 
   2   0  -4   89.42    1.95 
   2   0  -4   91.94    2.03 
  -2   0   4   91.29    1.92 
  -2   0   4   89.48    2.02 
  -2   0   4   93.22    2.03 
   1   0  -4  194.40    4.37 
   1   0  -4  199.52    4.08 
   1   0  -4  193.56    4.06 
   1   0  -4  191.60    4.48 
  -1   0   4  197.44    4.07 
  -1   0   4  190.19    4.06 
  -1   0   4  189.35    3.92 
  -1   0   4  189.35    4.43 
  -1   0   4  193.26    4.08 
   0   0  -4  137.35    3.17 
   0   0  -4  137.88    3.27 
   0   0  -4  141.06    2.92 
   0   0   4  135.51    2.98 
   0   0   4  142.15    3.02 
   0   0   4  138.51    2.89 
   0   0   4  137.57    3.05 
  -1   0  -4    2.13    0.26 
  -1   0  -4    1.79    0.24 
  -1   0  -4    1.93    0.10 
  -1   0  -4    1.90    0.17 
   1   0   4    1.70    0.24 
   1   0   4    2.04    0.17 
   1   0   4    2.16    0.23 
   1   0   4    1.98    0.23 
   1   0   4    1.89    0.26 
  -2   0  -4    0.67    0.19 
  -2   0  -4    0.01    0.15 
  -2   0  -4    0.10    0.10 
   2   0   4    0.17    0.13 
   2   0   4   -0.16    0.10 
   2   0   4    0.15    0.17 
   2   0   4    0.06    0.17 
   2   0   4    0.28    0.13 
  -3   0  -4   44.56    1.17 
   3   0   4   43.20    1.13 
   3   0   4   43.10    1.31 
   3   0   4   44.47    1.02 
   3   0   4   41.99    1.12 
   3   0   4   42.88    1.20 
   3   0   4   42.23    1.35 
  -4   0  -4   72.44    1.77 
   4   0   4   73.55    1.87 
   4   0   4   71.94    2.00 
   4   0   4   72.20    1.71 
   4   0   4   68.55    1.69 
   4   0   4   66.52    2.05 
  -5   0  -4   -0.13    0.18 
   5   0   4    0.00    0.30 
   5   0   4    0.15    0.28 
   5   0   4    0.15    0.16 
   5   0   4   -0.21    0.13 
   6  -1  -4    0.60    0.18 
   6  -1  -4    1.13    0.42 
   6  -1  -4    1.11    0.28 
  -6   1   4    0.82    0.21 
   5  -1  -4   19.07    0.65 
   5  -1  -4   20.05    0.66 
   5  -1  -4   18.56    0.97 
   5  -1  -4   21.40    0.83 
  -5   1   4   18.76    0.67 
   4  -1  -4    1.12    0.27 
   4  -1  -4    0.89    0.19 
   4  -1  -4    1.05    0.18 
   4  -1  -4    1.13    0.15 
   4  -1  -4    1.07    0.16 
  -4   1   4    1.23    0.20 
   3  -1  -4    6.21    0.31 
   3  -1  -4    7.19    0.50 
   3  -1  -4    6.26    0.33 
   3  -1  -4    6.82    0.23 
   3  -1  -4    6.63    0.33 
  -3   1   4    6.61    0.32 
  -3   1   4    7.41    0.37 
  -3   1   4    6.36    0.38 
   2  -1  -4    6.82    0.27 
   2  -1  -4    7.20    0.34 
   2  -1  -4    6.71    0.34 
   2  -1  -4    6.23    0.41 
  -2   1   4    6.81    0.35 
  -2   1   4    6.99    0.27 
  -2   1   4    6.27    0.41 
  -2   1   4    6.31    0.32 
   1  -1  -4   74.31    1.92 
   1  -1  -4   74.82    1.83 
   1  -1  -4   74.38    1.67 
   1  -1  -4   74.64    1.72 
  -1   1   4   75.13    1.73 
  -1   1   4   75.99    1.67 
  -1   1   4   75.27    1.62 
  -1   1   4   73.03    1.66 
  -1   1   4   71.33    1.87 
   0  -1  -4    0.50    0.13 
   0  -1  -4    0.87    0.13 
   0  -1  -4    0.51    0.13 
   0  -1  -4    0.79    0.13 
   0  -1  -4    0.54    0.16 
   0  -1  -4    0.56    0.16 
   0   1   4    0.54    0.18 
   0   1   4    0.35    0.15 
   0   1   4    0.90    0.17 
   0   1   4    0.59    0.14 
  -1  -1  -4    1.85    0.23 
  -1  -1  -4    1.83    0.12 
  -1  -1  -4    1.91    0.25 
   1   1   4    2.22    0.12 
   1   1   4    2.07    0.24 
   1   1   4    2.15    0.29 
   1   1   4    1.84    0.23 
   1   1   4    2.37    0.27 
  -2  -1  -4  149.50    3.27 
   2   1   4  148.69    3.24 
   2   1   4  146.05    3.44 
   2   1   4  153.71    3.56 
   2   1   4  153.11    3.12 
   2   1   4  147.20    3.16 
  -3  -1  -4    1.61    0.24 
   3   1   4    1.37    0.14 
   3   1   4    1.15    0.19 
   3   1   4    0.94    0.28 
   3   1   4    1.33    0.19 
   3   1   4    2.17    0.14 
   3   1   4    1.46    0.24 
  -4  -1  -4    0.36    0.19 
   4   1   4    0.49    0.18 
   4   1   4    0.23    0.25 
   4   1   4    0.42    0.17 
  -5  -1  -4    7.55    0.48 
   5   1   4    8.31    0.45 
   5   1   4    7.88    0.73 
   5   1   4    7.62    0.52 
   5   1   4    7.52    0.68 
   6  -2  -4   -0.01    0.18 
   6  -2  -4   -0.10    0.20 
   6  -2  -4   -0.04    0.34 
  -6   2   4   -0.04    0.22 
   5  -2  -4    1.93    0.42 
   5  -2  -4    1.62    0.27 
   5  -2  -4    1.76    0.26 
  -5   2   4    1.44    0.26 
   4  -2  -4   13.61    0.76 
   4  -2  -4   11.37    0.33 
   4  -2  -4   12.48    0.52 
   4  -2  -4   11.55    0.53 
   4  -2  -4   11.84    0.51 
  -4   2   4   11.55    0.54 
  -4   2   4   12.60    0.48 
   3  -2  -4   28.33    0.87 
   3  -2  -4   28.38    1.06 
   3  -2  -4   28.21    0.86 
   3  -2  -4   30.49    0.87 
  -3   2   4   29.42    0.96 
  -3   2   4   30.11    0.91 
  -3   2   4   29.41    0.84 
   2  -2  -4   76.38    1.83 
   2  -2  -4   75.95    2.08 
   2  -2  -4   75.24    1.78 
   2  -2  -4   79.56    1.84 
  -2   2   4   78.38    1.85 
  -2   2   4   75.28    1.97 
  -2   2   4   79.10    1.78 
   1  -2  -4   33.38    0.96 
   1  -2  -4   34.73    0.98 
   1  -2  -4   34.58    0.94 
   1  -2  -4   34.66    1.09 
  -1   2   4   34.65    0.94 
  -1   2   4   36.72    0.98 
  -1   2   4   36.08    0.85 
  -1   2   4   34.24    1.05 
   0  -2  -4   -0.04    0.14 
   0  -2  -4    0.09    0.11 
   0  -2  -4   -0.05    0.12 
   0  -2  -4   -0.03    0.14 
   0   2   4   -0.13    0.13 
   0   2   4   -0.05    0.12 
   0   2   4    0.04    0.11 
   0   2   4    0.06    0.13 
  -1  -2  -4   55.15    1.43 
  -1  -2  -4   57.13    1.66 
  -1  -2  -4   58.13    1.37 
  -1  -2  -4   56.98    1.42 
  -1  -2  -4   59.98    1.31 
   1   2   4   56.49    1.41 
   1   2   4   59.79    1.31 
   1   2   4   55.83    1.58 
   1   2   4   57.35    1.38 
   1   2   4   54.60    1.48 
  -2  -2  -4    0.53    0.19 
   2   2   4    0.14    0.22 
   2   2   4    0.23    0.15 
   2   2   4    0.28    0.14 
   2   2   4    0.51    0.20 
   2   2   4    0.05    0.06 
   2   2   4    0.40    0.08 
  -3  -2  -4   11.24    0.52 
   3   2   4   11.39    0.62 
   3   2   4   12.12    0.49 
   3   2   4   11.32    0.65 
   3   2   4   11.66    0.46 
   3   2   4   12.17    0.38 
  -4  -2  -4   20.01    0.73 
   4   2   4   21.00    0.90 
   4   2   4   21.01    0.70 
   4   2   4   21.34    0.99 
  -5  -2  -4    0.05    0.18 
   5   2   4    0.28    0.22 
   5   2   4    0.33    0.17 
   5   2   4   -0.23    0.28 
   6  -3  -4    9.16    0.88 
   6  -3  -4    8.08    0.55 
   6  -3  -4    8.89    0.64 
  -6   3   4    8.05    0.59 
   5  -3  -4    2.62    0.49 
   5  -3  -4    3.62    0.39 
   5  -3  -4    3.86    0.42 
  -5   3   4    3.27    0.42 
   4  -3  -4    1.65    0.27 
   4  -3  -4    0.99    0.23 
   4  -3  -4    1.50    0.33 
   4  -3  -4    1.34    0.24 
  -4   3   4    1.31    0.25 
   3  -3  -4   13.91    0.59 
   3  -3  -4   13.55    0.59 
   3  -3  -4   13.64    0.57 
   3  -3  -4   14.11    0.73 
  -3   3   4   14.10    0.62 
  -3   3   4   13.50    0.61 
   2  -3  -4    1.24    0.26 
   2  -3  -4    1.51    0.25 
   2  -3  -4    1.22    0.23 
   2  -3  -4    0.94    0.21 
  -2   3   4    1.34    0.26 
  -2   3   4    1.06    0.25 
  -2   3   4    1.17    0.23 
  -2   3   4    1.44    0.18 
   1  -3  -4  198.27    4.17 
   1  -3  -4  199.59    4.41 
   1  -3  -4  200.13    4.78 
   1  -3  -4  197.18    4.31 
  -1   3   4  195.53    4.63 
  -1   3   4  196.42    4.30 
  -1   3   4  196.57    4.39 
   0  -3  -4    0.01    0.14 
   0  -3  -4    0.06    0.10 
   0  -3  -4   -0.10    0.19 
   0  -3  -4    0.02    0.15 
   0  -3  -4    0.11    0.08 
   0   3   4   -0.01    0.14 
   0   3   4   -0.11    0.17 
   0   3   4    0.18    0.13 
  -1  -3  -4   37.68    1.13 
  -1  -3  -4   41.00    1.06 
  -1  -3  -4   39.47    1.33 
   1   3   4   39.00    1.07 
   1   3   4   39.15    1.26 
   1   3   4   38.79    1.08 
   1   3   4   39.79    1.02 
  -2  -3  -4    2.47    0.34 
   2   3   4    1.86    0.26 
   2   3   4    2.35    0.20 
   2   3   4    2.13    0.25 
   2   3   4    1.69    0.30 
  -3  -3  -4    0.68    0.21 
   3   3   4    0.61    0.11 
   3   3   4    0.58    0.29 
   3   3   4    0.64    0.18 
   3   3   4    0.69    0.26 
   3   3   4    0.36    0.12 
  -4  -3  -4    9.09    0.52 
   4   3   4   10.15    0.76 
   4   3   4   10.03    0.49 
   4   3   4   10.07    0.68 
   6  -4  -4    2.68    0.40 
   6  -4  -4    2.45    0.43 
   6  -4  -4    1.90    0.50 
  -6   4   4    3.80    0.53 
   5  -4  -4   38.40    1.25 
   5  -4  -4   40.65    1.34 
   5  -4  -4   38.90    1.58 
  -5   4   4   38.49    1.30 
   4  -4  -4   27.45    0.98 
   4  -4  -4   26.76    1.17 
   4  -4  -4   27.83    0.98 
   4  -4  -4   31.17    1.03 
  -4   4   4   27.49    1.01 
  -4   4   4   29.12    0.98 
   3  -4  -4   80.82    2.02 
   3  -4  -4   81.37    2.08 
   3  -4  -4   80.11    2.34 
   3  -4  -4   83.23    2.14 
  -3   4   4   85.71    2.11 
  -3   4   4   80.90    2.21 
  -3   4   4   79.05    2.14 
   2  -4  -4    1.76    0.31 
   2  -4  -4    2.13    0.31 
   2  -4  -4    2.79    0.36 
   2  -4  -4    2.38    0.35 
  -2   4   4    2.16    0.35 
  -2   4   4    2.26    0.33 
  -2   4   4    2.77    0.39 
   1  -4  -4    1.06    0.15 
   1  -4  -4    1.29    0.29 
   1  -4  -4    1.05    0.25 
   1  -4  -4    1.09    0.30 
  -1   4   4    1.15    0.29 
  -1   4   4    1.35    0.26 
  -1   4   4    1.14    0.25 
   0  -4  -4   78.57    1.69 
   0  -4  -4   75.66    2.21 
   0  -4  -4   79.43    1.90 
   0  -4  -4   81.64    1.76 
   0  -4  -4   79.39    2.00 
   0   4   4   78.88    2.18 
   0   4   4   79.91    1.96 
   0   4   4   76.66    1.94 
  -1  -4  -4   51.32    1.33 
  -1  -4  -4   50.98    1.64 
  -1  -4  -4   50.26    1.42 
   1   4   4   50.81    1.62 
   1   4   4   53.05    1.19 
   1   4   4   51.81    1.36 
   1   4   4   51.54    1.38 
  -2  -4  -4    6.33    0.46 
   2   4   4    5.64    0.56 
   2   4   4    5.65    0.36 
   2   4   4    4.95    0.38 
   2   4   4    6.30    0.37 
  -3  -4  -4    0.56    0.22 
   3   4   4    0.52    0.17 
   3   4   4    0.61    0.20 
   3   4   4    0.88    0.33 
  -4  -4  -4    1.20    0.27 
   4   4   4    0.73    0.36 
   4   4   4    1.14    0.23 
   4   4   4    1.80    0.41 
   5  -5  -4    6.17    0.58 
   5  -5  -4    6.58    0.58 
   5  -5  -4    5.38    0.70 
   5  -5  -4    6.83    0.58 
  -5   5   4    5.27    0.56 
   4  -5  -4   67.49    1.89 
   4  -5  -4   62.42    2.08 
   4  -5  -4   64.30    1.82 
  -4   5   4   63.86    1.84 
  -4   5   4   60.86    1.79 
   3  -5  -4   17.61    0.93 
   3  -5  -4   19.29    0.83 
   3  -5  -4   19.56    0.83 
   3  -5  -4   19.71    0.82 
  -3   5   4   18.53    0.90 
  -3   5   4   19.71    0.84 
  -3   5   4   19.12    0.83 
   2  -5  -4   15.59    0.74 
   2  -5  -4   15.03    0.71 
   2  -5  -4   16.15    0.86 
   2  -5  -4   15.58    0.72 
  -2   5   4   14.95    0.76 
  -2   5   4   15.33    0.75 
  -2   5   4   15.00    0.70 
   1  -5  -4   17.45    0.74 
   1  -5  -4   16.16    0.76 
   1  -5  -4   16.77    0.85 
   1  -5  -4   17.43    0.51 
  -1   5   4   17.20    0.82 
  -1   5   4   17.29    0.75 
  -1   5   4   15.74    0.72 
   0  -5  -4   21.84    0.97 
   0  -5  -4   21.65    0.80 
   0  -5  -4   21.17    0.86 
   0   5   4   22.50    0.83 
   0   5   4   21.82    0.82 
   0   5   4   22.75    0.96 
  -1  -5  -4    9.11    0.58 
  -1  -5  -4   10.15    0.54 
   1   5   4    8.88    0.50 
   1   5   4    9.45    0.52 
   1   5   4    9.93    0.67 
  -2  -5  -4   25.21    0.95 
   2   5   4   25.04    0.88 
   2   5   4   23.92    1.13 
   2   5   4   26.31    0.88 
  -3  -5  -4    3.65    0.47 
   3   5   4    2.88    0.36 
   3   5   4    4.24    0.61 
   5  -6  -4    1.48    0.39 
   5  -6  -4    1.15    0.45 
   5  -6  -4    1.70    0.41 
   5  -6  -4    1.64    0.37 
  -5   6   4    1.61    0.42 
   4  -6  -4    8.73    0.82 
   4  -6  -4    9.66    0.71 
   4  -6  -4   11.33    0.73 
   4  -6  -4    9.97    0.70 
  -4   6   4   10.50    0.71 
  -4   6   4   10.04    0.79 
  -4   6   4    9.20    0.63 
   3  -6  -4   14.64    0.81 
   3  -6  -4   15.55    0.97 
   3  -6  -4   16.68    0.83 
   3  -6  -4   15.27    0.79 
  -3   6   4   14.66    0.86 
  -3   6   4   16.17    0.82 
  -3   6   4   15.54    0.85 
   2  -6  -4   17.29    0.82 
   2  -6  -4   19.08    0.63 
   2  -6  -4   18.29    0.97 
   2  -6  -4   19.51    0.88 
  -2   6   4   16.93    0.82 
  -2   6   4   16.80    0.88 
  -2   6   4   17.48    0.87 
   1  -6  -4   55.22    1.57 
   1  -6  -4   56.21    1.67 
   1  -6  -4   54.89    1.81 
  -1   6   4   51.96    1.74 
  -1   6   4   53.56    1.61 
  -1   6   4   55.01    1.64 
   0  -6  -4    4.41    0.53 
   0  -6  -4    4.70    0.52 
   0  -6  -4    4.53    0.46 
   0   6   4    4.03    0.43 
   0   6   4    3.31    0.54 
   0   6   4    5.07    0.46 
  -1  -6  -4    6.17    0.57 
   1   6   4    5.88    0.50 
   1   6   4    6.40    0.67 
   1   6   4    7.02    0.49 
  -2  -6  -4   10.86    0.71 
   2   6   4   12.27    0.65 
   2   6   4   12.43    0.65 
   2   6   4   11.67    0.89 
   4  -7  -4    0.49    0.36 
   4  -7  -4    0.92    0.38 
   4  -7  -4    1.26    0.47 
  -4   7   4    0.13    0.30 
  -4   7   4    0.84    0.35 
  -4   7   4    1.69    0.47 
   3  -7  -4    0.99    0.36 
   3  -7  -4    1.49    0.39 
   3  -7  -4    1.31    0.42 
   3  -7  -4    0.83    0.37 
  -3   7   4    1.36    0.38 
  -3   7   4    0.73    0.36 
  -3   7   4    1.06    0.38 
   2  -7  -4    6.38    0.74 
   2  -7  -4    6.51    0.65 
   2  -7  -4    6.24    0.64 
  -2   7   4    6.57    0.65 
  -2   7   4    5.50    0.58 
  -2   7   4    5.58    0.67 
   1  -7  -4    2.49    0.44 
   1  -7  -4    2.82    0.43 
   1  -7  -4    2.83    0.51 
  -1   7   4    2.19    0.48 
  -1   7   4    3.65    0.51 
  -1   7   4    2.07    0.38 
   0  -7  -4    8.00    0.70 
   0  -7  -4    9.87    0.62 
   0  -7  -4    8.72    0.72 
   0   7   4    8.77    0.63 
   0   7   4    9.83    0.63 
   0   7   4    8.24    0.76 
  -1  -7  -4   25.65    1.10 
   1   7   4   25.64    1.25 
   1   7   4   26.75    1.06 
   3  -8  -4    2.21    0.60 
   3  -8  -4    3.11    0.56 
   3  -8  -4    2.02    0.51 
  -3   8   4    2.33    0.51 
  -3   8   4    2.44    0.48 
  -3   8   4    3.32    0.58 
   2  -8  -4    1.95    0.46 
   2  -8  -4    2.01    0.53 
   2  -8  -4    2.86    0.52 
  -2   8   4    2.97    0.55 
  -2   8   4    3.83    0.62 
  -2   8   4    2.47    0.44 
   1  -8  -4    0.92    0.40 
   1  -8  -4    0.12    0.34 
   1  -8  -4    0.49    0.38 
  -1   8   4    0.03    0.28 
  -1   8   4    0.33    0.39 
  -1   8   4    0.35    0.34 
   0  -8  -4    5.91    0.72 
   0  -8  -4    5.67    0.69 
   0   8   4    4.31    0.68 
   1   8  -5    3.08    0.56 
   1   8  -5    4.34    0.60 
  -1  -8   5    4.89    0.62 
   0   8  -5    9.35    0.80 
   0   8  -5    8.85    0.71 
   0  -8   5   10.38    0.75 
  -1   8  -5   -0.14    0.30 
  -1   8  -5   -0.14    0.21 
  -1   8  -5   -0.30    0.27 
  -1   8  -5   -0.11    0.23 
   1  -8   5    0.03    0.24 
   1  -8   5   -0.17    0.35 
   1  -8   5   -0.71    0.23 
  -2   8  -5    4.24    0.51 
  -2   8  -5    3.52    0.49 
  -2   8  -5    4.85    0.57 
  -2   8  -5    3.79    0.59 
  -2   8  -5    4.11    0.58 
   2  -8   5    4.33    0.59 
   2  -8   5    4.18    0.64 
   2  -8   5    3.85    0.57 
  -3   8  -5    2.61    0.50 
  -3   8  -5    2.93    0.53 
  -3   8  -5    2.92    0.52 
   3  -8   5    2.45    0.47 
   3  -8   5    3.76    0.62 
   3  -8   5    3.75    0.68 
   3  -8   5    2.25    0.45 
   2   7  -5   -0.01    0.35 
   2   7  -5   -0.08    0.26 
  -2  -7   5    0.08    0.24 
   1   7  -5   29.34    1.23 
   1   7  -5   27.65    1.00 
   1   7  -5   26.89    1.11 
  -1  -7   5   25.19    1.02 
   0   7  -5   17.79    0.90 
   0   7  -5   19.65    0.98 
   0   7  -5   18.72    0.79 
   0   7  -5   17.78    0.79 
   0  -7   5   19.51    0.78 
   0  -7   5   19.67    0.91 
  -1   7  -5    3.83    0.54 
  -1   7  -5    4.14    0.44 
  -1   7  -5    4.18    0.47 
  -1   7  -5    3.57    0.50 
   1  -7   5    3.86    0.48 
   1  -7   5    2.82    0.51 
   1  -7   5    3.66    0.51 
  -2   7  -5   34.61    1.32 
  -2   7  -5   35.80    1.38 
  -2   7  -5   36.48    1.28 
  -2   7  -5   36.16    1.26 
   2  -7   5   33.54    1.24 
   2  -7   5   36.83    1.34 
   2  -7   5   35.60    1.37 
   2  -7   5   37.43    1.45 
  -3   7  -5   44.69    1.59 
  -3   7  -5   43.95    1.51 
  -3   7  -5   45.93    1.60 
   3  -7   5   44.79    1.56 
   3  -7   5   43.86    1.71 
   3  -7   5   44.71    1.58 
   3  -7   5   43.84    1.49 
  -4   7  -5    0.30    0.33 
  -4   7  -5    0.39    0.37 
  -4   7  -5    0.46    0.35 
   4  -7   5    0.15    0.34 
   4  -7   5    0.19    0.33 
   4  -7   5    0.54    0.26 
   4  -7   5    0.60    0.46 
   4  -7   5    0.22    0.33 
   3   6  -5   75.14    2.14 
   3   6  -5   73.62    2.30 
   3   6  -5   75.44    2.17 
  -3  -6   5   74.78    1.85 
   2   6  -5   26.67    1.18 
   2   6  -5   28.41    1.02 
   2   6  -5   27.97    1.09 
  -2  -6   5   26.36    0.95 
   1   6  -5    4.06    0.52 
   1   6  -5    4.02    0.39 
   1   6  -5    4.30    0.45 
  -1  -6   5    4.15    0.45 
   0   6  -5    7.98    0.61 
   0   6  -5    8.68    0.59 
   0   6  -5    7.10    0.48 
   0   6  -5    8.60    0.52 
   0  -6   5    7.86    0.55 
   0  -6   5    9.40    0.65 
   0  -6   5    6.97    0.49 
  -1   6  -5   13.65    0.71 
  -1   6  -5   12.97    0.73 
  -1   6  -5   13.89    0.67 
  -1   6  -5   13.66    0.67 
   1  -6   5   13.81    0.72 
   1  -6   5   12.08    0.77 
   1  -6   5   14.43    0.69 
  -2   6  -5   78.08    2.21 
  -2   6  -5   79.21    2.22 
  -2   6  -5   79.11    2.13 
  -2   6  -5   81.11    2.19 
   2  -6   5   79.03    2.22 
   2  -6   5   76.70    2.15 
   2  -6   5   77.36    2.30 
   2  -6   5   78.70    2.07 
   2  -6   5   82.06    1.99 
  -3   6  -5   26.72    1.11 
  -3   6  -5   25.38    1.09 
  -3   6  -5   24.94    1.08 
  -3   6  -5   25.13    1.04 
   3  -6   5   25.43    1.05 
   3  -6   5   26.25    1.20 
   3  -6   5   25.45    1.10 
   3  -6   5   26.90    0.95 
   3  -6   5   24.74    1.01 
  -4   6  -5   11.07    0.74 
  -4   6  -5   10.22    0.73 
  -4   6  -5   10.21    0.73 
   4  -6   5    9.92    0.67 
   4  -6   5    9.84    0.85 
   4  -6   5   10.22    0.73 
   4  -6   5   10.72    0.72 
   4  -6   5    9.53    0.74 
  -5   6  -5   11.16    0.85 
  -5   6  -5   10.68    0.78 
  -5   6  -5   11.32    0.76 
   5  -6   5   10.97    0.78 
   5  -6   5   10.28    0.79 
   5  -6   5   10.48    0.86 
   5  -6   5    9.76    0.79 
   5  -6   5   10.69    0.75 
   4   5  -5    2.09    0.46 
   4   5  -5    1.33    0.35 
   4   5  -5    1.56    0.33 
   3   5  -5    0.77    0.28 
   3   5  -5    0.06    0.29 
   3   5  -5    0.20    0.19 
  -3  -5   5    0.31    0.17 
   2   5  -5    1.59    0.31 
   2   5  -5    1.18    0.33 
   2   5  -5    1.18    0.20 
   2   5  -5    1.29    0.25 
  -2  -5   5    1.14    0.24 
   1   5  -5    8.20    0.53 
   1   5  -5    8.54    0.44 
   1   5  -5    7.97    0.57 
   1   5  -5    8.85    0.51 
  -1  -5   5    8.79    0.51 
  -1  -5   5    8.46    0.43 
   0   5  -5   11.82    0.64 
   0   5  -5   12.26    0.59 
   0   5  -5   11.40    0.62 
   0   5  -5   12.47    0.57 
   0  -5   5   11.12    0.60 
   0  -5   5   13.13    0.57 
   0  -5   5   12.39    0.65 
  -1   5  -5    4.37    0.44 
  -1   5  -5    4.01    0.40 
  -1   5  -5    4.82    0.41 
  -1   5  -5    4.46    0.41 
   1  -5   5    3.94    0.43 
   1  -5   5    4.86    0.42 
   1  -5   5    4.16    0.49 
   1  -5   5    3.79    0.46 
  -2   5  -5    5.89    0.48 
  -2   5  -5    6.00    0.49 
  -2   5  -5    7.06    0.54 
  -2   5  -5    6.08    0.49 
   2  -5   5    6.37    0.50 
   2  -5   5    5.82    0.48 
   2  -5   5    6.90    0.59 
   2  -5   5    5.93    0.51 
   2  -5   5    5.94    0.36 
  -3   5  -5   43.02    1.44 
  -3   5  -5   40.41    1.33 
  -3   5  -5   41.13    1.37 
  -3   5  -5   42.04    1.34 
   3  -5   5   41.60    1.29 
   3  -5   5   40.78    1.38 
   3  -5   5   40.75    1.33 
   3  -5   5   40.15    1.29 
   3  -5   5   40.23    1.45 
  -4   5  -5    0.37    0.25 
  -4   5  -5    0.00    0.27 
  -4   5  -5    0.32    0.25 
   4  -5   5    0.39    0.27 
   4  -5   5    0.53    0.34 
   4  -5   5    0.38    0.26 
   4  -5   5    0.04    0.25 
   4  -5   5    0.27    0.33 
  -5   5  -5    2.63    0.45 
  -5   5  -5    1.86    0.40 
  -5   5  -5    1.50    0.42 
   5  -5   5    1.79    0.38 
   5  -5   5    2.88    0.51 
   5  -5   5    1.62    0.42 
   5  -5   5    2.09    0.44 
   5  -5   5    2.42    0.40 
   4   4  -5    1.83    0.44 
   4   4  -5    2.12    0.39 
   4   4  -5    2.28    0.39 
   4   4  -5    2.20    0.37 
   3   4  -5    0.60    0.23 
   3   4  -5    0.79    0.21 
   3   4  -5    0.99    0.31 
   3   4  -5    0.64    0.22 
  -3  -4   5    0.81    0.17 
   2   4  -5    0.24    0.21 
   2   4  -5    1.01    0.16 
   2   4  -5    0.88    0.16 
   2   4  -5    0.89    0.26 
   2   4  -5    0.85    0.21 
  -2  -4   5    0.94    0.20 
   1   4  -5    0.91    0.25 
   1   4  -5    0.60    0.16 
   1   4  -5    1.11    0.26 
   1   4  -5    0.92    0.20 
  -1  -4   5    0.32    0.15 
  -1  -4   5    0.58    0.19 
   0   4  -5   15.85    0.70 
   0   4  -5   14.80    0.65 
   0   4  -5   15.87    0.68 
   0   4  -5   15.59    0.62 
   0  -4   5   14.77    0.65 
   0  -4   5   16.36    0.61 
   0  -4   5   16.43    0.75 
   0  -4   5   15.06    0.65 
  -1   4  -5    5.01    0.40 
  -1   4  -5    5.06    0.43 
  -1   4  -5    5.16    0.42 
  -1   4  -5    4.03    0.43 
   1  -4   5    5.41    0.42 
   1  -4   5    4.44    0.45 
   1  -4   5    5.10    0.22 
   1  -4   5    4.34    0.48 
   1  -4   5    4.50    0.22 
   1  -4   5    4.93    0.44 
  -2   4  -5    0.00    0.18 
  -2   4  -5   -0.03    0.15 
  -2   4  -5   -0.04    0.16 
  -2   4  -5    0.07    0.18 
   2  -4   5   -0.18    0.17 
   2  -4   5   -0.10    0.18 
   2  -4   5    0.22    0.19 
   2  -4   5    0.02    0.20 
  -3   4  -5    5.78    0.50 
  -3   4  -5    6.39    0.49 
  -3   4  -5    5.87    0.51 
  -3   4  -5    5.06    0.43 
   3  -4   5    5.89    0.53 
   3  -4   5    6.03    0.47 
   3  -4   5    5.77    0.55 
   3  -4   5    6.52    0.47 
  -4   4  -5    4.16    0.46 
  -4   4  -5    4.83    0.45 
   4  -4   5    5.08    0.47 
   4  -4   5    4.16    0.45 
   4  -4   5    4.48    0.52 
   4  -4   5    4.56    0.57 
  -5   4  -5    1.45    0.34 
  -5   4  -5    2.54    0.42 
   5  -4   5    1.69    0.34 
   5  -4   5    2.15    0.38 
   5  -4   5    2.69    0.50 
   5  -4   5    1.97    0.40 
   5   3  -5   -0.06    0.19 
   5   3  -5    0.12    0.25 
   4   3  -5    4.07    0.42 
   4   3  -5    4.35    0.47 
   4   3  -5    3.56    0.45 
  -4  -3   5    4.35    0.19 
   3   3  -5   39.74    1.30 
   3   3  -5   37.98    1.24 
   3   3  -5   38.52    1.20 
  -3  -3   5   37.31    0.97 
   2   3  -5    5.29    0.29 
   2   3  -5    5.35    0.31 
   2   3  -5    5.08    0.42 
   2   3  -5    4.77    0.39 
  -2  -3   5    5.09    0.31 
  -2  -3   5    5.33    0.33 
   1   3  -5   88.15    2.23 
   1   3  -5   87.70    2.16 
   1   3  -5   89.49    2.03 
   1   3  -5   90.89    2.07 
   1   3  -5   87.95    2.26 
  -1  -3   5   90.16    1.96 
  -1  -3   5   89.05    2.07 
   0   3  -5   13.40    0.57 
   0   3  -5   13.12    0.53 
   0   3  -5   13.90    0.58 
   0   3  -5   13.80    0.60 
   0  -3   5   14.02    0.53 
   0  -3   5   13.48    0.60 
   0  -3   5   13.19    0.55 
   0  -3   5   13.85    0.59 
  -1   3  -5   21.74    0.72 
  -1   3  -5   20.00    0.72 
  -1   3  -5   20.56    0.74 
  -1   3  -5   19.44    0.77 
   1  -3   5   21.73    0.75 
   1  -3   5   20.84    0.77 
   1  -3   5   21.53    0.81 
   1  -3   5   21.62    0.72 
   1  -3   5   22.03    0.63 
  -2   3  -5   19.93    0.76 
  -2   3  -5   21.65    0.73 
  -2   3  -5   19.37    0.75 
   2  -3   5   20.15    0.75 
   2  -3   5   21.05    0.80 
   2  -3   5   19.64    0.82 
   2  -3   5   19.91    0.75 
  -3   3  -5   42.81    1.41 
  -3   3  -5   43.85    1.30 
  -3   3  -5   42.23    1.19 
  -3   3  -5   43.02    1.28 
  -3   3  -5   44.48    1.08 
   3  -3   5   40.91    1.22 
   3  -3   5   42.87    1.39 
   3  -3   5   42.97    1.26 
   3  -3   5   42.29    1.33 
  -4   3  -5    4.11    0.47 
  -4   3  -5    4.54    0.44 
  -4   3  -5    5.57    0.41 
   4  -3   5    4.88    0.45 
   4  -3   5    5.24    0.46 
   4  -3   5    4.90    0.51 
   4  -3   5    4.96    0.57 
  -5   3  -5   18.69    0.87 
   5  -3   5   18.64    0.81 
   5  -3   5   17.36    1.01 
   5  -3   5   19.87    0.95 
  -6   3  -5    0.01    0.26 
   6  -3   5    0.05    0.31 
   6  -3   5    0.38    0.38 
   6  -3   5   -0.03    0.22 
   5   2  -5   20.84    1.00 
   5   2  -5   22.25    0.92 
   5   2  -5   22.16    1.08 
   4   2  -5   12.37    0.75 
   4   2  -5   14.77    0.72 
  -4  -2   5   13.64    0.42 
   3   2  -5    5.94    0.40 
   3   2  -5    5.49    0.27 
   3   2  -5    6.04    0.47 
  -3  -2   5    4.72    0.28 
   2   2  -5   14.37    0.55 
   2   2  -5   14.54    0.66 
   2   2  -5   14.72    0.48 
   2   2  -5   14.57    0.46 
  -2  -2   5   13.69    0.51 
  -2  -2   5   15.01    0.50 
   1   2  -5  123.95    2.85 
   1   2  -5  120.63    2.66 
   1   2  -5  119.36    2.76 
   1   2  -5  121.65    2.95 
  -1  -2   5  120.23    2.69 
  -1  -2   5  124.32    2.58 
  -1  -2   5  124.36    2.81 
   0   2  -5  207.57    4.64 
   0   2  -5  202.92    4.49 
   0   2  -5  205.51    4.37 
   0   2  -5  200.39    4.69 
   0   2  -5  203.91    4.39 
   0  -2   5  210.53    4.65 
   0  -2   5  203.31    4.22 
   0  -2   5  206.95    4.55 
   0  -2   5  201.66    4.37 
   0  -2   5  204.09    4.51 
  -1   2  -5   88.00    2.21 
  -1   2  -5   88.02    2.03 
  -1   2  -5   83.65    2.02 
  -1   2  -5   84.92    2.04 
   1  -2   5   86.57    2.05 
   1  -2   5   88.54    2.13 
   1  -2   5   87.72    2.12 
   1  -2   5   87.93    1.98 
  -2   2  -5   28.83    0.88 
  -2   2  -5   27.48    0.98 
  -2   2  -5   29.59    0.80 
  -2   2  -5   28.75    0.91 
   2  -2   5   27.27    0.94 
   2  -2   5   29.53    0.90 
   2  -2   5   29.18    0.83 
   2  -2   5   28.77    0.88 
   2  -2   5   28.30    0.95 
  -3   2  -5    3.63    0.37 
  -3   2  -5    3.46    0.28 
  -3   2  -5    3.71    0.45 
  -3   2  -5    3.70    0.37 
   3  -2   5    3.61    0.36 
   3  -2   5    3.89    0.40 
   3  -2   5    3.78    0.41 
   3  -2   5    4.22    0.36 
   3  -2   5    4.45    0.26 
  -4   2  -5    0.09    0.19 
   4  -2   5    0.98    0.17 
   4  -2   5    0.69    0.27 
   4  -2   5    0.22    0.18 
   4  -2   5    0.69    0.22 
   4  -2   5    0.46    0.26 
  -5   2  -5   27.34    1.01 
   5  -2   5   26.47    1.14 
   5  -2   5   27.84    0.97 
   5  -2   5   26.11    1.22 
  -6   2  -5    1.16    0.33 
   6  -2   5    1.31    0.43 
   6  -2   5    0.80    0.26 
   6  -2   5    1.19    0.43 
   5   1  -5   12.02    0.42 
   5   1  -5   12.63    0.77 
   5   1  -5   12.88    0.65 
  -5  -1   5   11.92    0.39 
   4   1  -5    2.87    0.39 
   4   1  -5    2.85    0.31 
   4   1  -5    2.88    0.22 
  -4  -1   5    2.90    0.24 
   3   1  -5   21.08    0.87 
   3   1  -5   20.46    0.60 
   3   1  -5   20.45    0.80 
   3   1  -5   21.13    0.56 
   3   1  -5   21.24    0.61 
  -3  -1   5   20.26    0.62 
  -3  -1   5   21.58    0.48 
  -3  -1   5   21.69    0.63 
   2   1  -5   41.93    1.01 
   2   1  -5   40.40    1.00 
   2   1  -5   40.77    1.00 
   2   1  -5   41.01    1.00 
   2   1  -5   39.04    1.17 
   2   1  -5   41.87    1.25 
  -2  -1   5   40.95    1.06 
  -2  -1   5   41.85    0.98 
  -2  -1   5   40.65    1.04 
   1   1  -5    9.37    0.27 
   1   1  -5    8.68    0.43 
   1   1  -5    9.20    0.39 
   1   1  -5    9.53    0.40 
   1   1  -5    9.24    0.46 
  -1  -1   5    9.59    0.39 
  -1  -1   5    7.66    0.40 
  -1  -1   5    8.87    0.40 
   0   1  -5  138.32    3.04 
   0   1  -5  138.24    3.27 
   0   1  -5  142.16    3.09 
   0   1  -5  136.84    3.02 
   0   1  -5  139.51    3.27 
   0  -1   5  139.15    3.29 
   0  -1   5  137.24    3.09 
   0  -1   5  139.21    3.04 
   0  -1   5  138.60    2.94 
   0  -1   5  141.19    3.09 
  -1   1  -5   23.85    0.76 
  -1   1  -5   23.92    0.82 
  -1   1  -5   24.00    0.71 
  -1   1  -5   25.26    0.65 
   1  -1   5   23.79    0.77 
   1  -1   5   24.08    0.74 
   1  -1   5   23.24    0.74 
   1  -1   5   25.27    0.77 
   1  -1   5   23.79    0.78 
  -2   1  -5   59.01    1.31 
  -2   1  -5   55.94    1.47 
  -2   1  -5   58.05    1.42 
   2  -1   5   57.50    1.55 
   2  -1   5   57.29    1.49 
   2  -1   5   57.04    1.43 
   2  -1   5   60.17    1.31 
   2  -1   5   59.28    1.59 
   2  -1   5   54.73    1.46 
  -3   1  -5   34.94    1.03 
  -3   1  -5   33.92    1.05 
   3  -1   5   34.87    1.19 
   3  -1   5   37.18    0.90 
   3  -1   5   33.70    1.14 
   3  -1   5   34.73    1.00 
   3  -1   5   33.74    1.01 
   3  -1   5   34.22    1.00 
  -4   1  -5    0.19    0.20 
   4  -1   5    0.62    0.20 
   4  -1   5    0.61    0.17 
   4  -1   5    0.22    0.24 
   4  -1   5    0.57    0.27 
   4  -1   5    0.39    0.19 
  -5   1  -5    0.21    0.22 
   5  -1   5    0.22    0.30 
   5  -1   5    0.22    0.29 
   5  -1   5   -0.37    0.15 
   6   0  -5   10.96    0.66 
   6   0  -5    9.91    0.83 
   6   0  -5   10.53    0.45 
   5   0  -5   16.33    0.57 
   5   0  -5   17.35    0.73 
   5   0  -5   17.76    0.93 
   5   0  -5   16.43    0.64 
  -5   0   5   15.82    0.58 
   4   0  -5   24.48    1.01 
   4   0  -5   24.69    0.81 
   4   0  -5   24.16    0.71 
  -4   0   5   24.77    0.74 
   3   0  -5   56.50    1.69 
   3   0  -5   58.33    1.36 
   3   0  -5   57.99    1.36 
   3   0  -5   58.31    1.41 
  -3   0   5   57.97    1.42 
  -3   0   5   59.21    1.42 
  -3   0   5   56.82    1.30 
   2   0  -5   20.81    0.64 
   2   0  -5   20.96    0.64 
   2   0  -5   21.36    0.77 
   2   0  -5   21.72    0.59 
   2   0  -5   23.55    0.82 
  -2   0   5   21.99    0.62 
  -2   0   5   21.67    0.68 
   1   0  -5   76.64    1.93 
   1   0  -5   74.10    1.74 
   1   0  -5   73.85    1.90 
  -1   0   5   73.02    1.75 
  -1   0   5   76.16    1.70 
  -1   0   5   74.62    1.68 
   0   0  -5   37.89    1.07 
   0   0  -5   37.77    0.93 
   0   0  -5   37.94    1.09 
   0   0  -5   35.81    0.99 
   0   0   5   35.30    0.99 
   0   0   5   36.59    1.09 
   0   0   5   35.43    0.95 
   0   0   5   37.29    0.92 
   0   0   5   37.61    0.98 
  -1   0  -5   36.07    0.81 
  -1   0  -5   36.59    1.00 
  -1   0  -5   35.95    1.07 
  -1   0  -5   35.59    0.89 
   1   0   5   35.80    1.01 
   1   0   5   36.13    1.02 
   1   0   5   35.15    0.96 
   1   0   5   33.99    0.98 
   1   0   5   35.51    1.05 
  -2   0  -5   33.59    0.87 
  -2   0  -5   32.35    0.96 
  -2   0  -5   32.33    1.05 
   2   0   5   33.85    1.01 
   2   0   5   33.00    1.06 
   2   0   5   32.38    1.04 
   2   0   5   32.68    0.93 
   2   0   5   34.31    0.96 
  -3   0  -5   44.18    1.25 
   3   0   5   45.48    1.21 
   3   0   5   46.41    1.40 
   3   0   5   45.01    1.43 
   3   0   5   43.91    1.28 
   3   0   5   44.75    1.21 
  -4   0  -5   10.12    0.56 
   4   0   5   10.78    0.51 
   4   0   5    8.99    0.67 
   4   0   5   10.13    0.51 
   4   0   5   10.11    0.71 
   4   0   5   10.60    0.52 
  -5   0  -5   10.17    0.58 
   5   0   5    8.86    0.53 
   5   0   5   10.49    0.76 
   5   0   5   11.18    0.56 
   5   0   5    9.65    0.79 
   6  -1  -5   15.92    0.63 
   6  -1  -5   16.38    0.78 
   6  -1  -5   15.97    1.04 
  -6   1   5   15.29    0.65 
   5  -1  -5    0.57    0.17 
   5  -1  -5    0.43    0.19 
   5  -1  -5    0.40    0.32 
  -5   1   5    0.55    0.20 
   4  -1  -5  100.83    2.45 
   4  -1  -5  101.52    2.30 
   4  -1  -5  102.04    2.28 
   4  -1  -5  102.95    2.84 
   4  -1  -5  101.96    2.22 
  -4   1   5  102.53    2.37 
   3  -1  -5    0.15    0.14 
   3  -1  -5    0.26    0.20 
   3  -1  -5    0.28    0.14 
   3  -1  -5    0.08    0.09 
  -3   1   5    0.10    0.14 
  -3   1   5    0.32    0.14 
   2  -1  -5  136.42    2.95 
   2  -1  -5  134.68    3.04 
   2  -1  -5  136.11    3.42 
   2  -1  -5  140.68    3.32 
   2  -1  -5  141.33    3.02 
  -2   1   5  136.63    3.35 
  -2   1   5  138.84    2.94 
  -2   1   5  139.78    3.06 
   1  -1  -5    0.15    0.14 
   1  -1  -5   -0.01    0.13 
   1  -1  -5   -0.02    0.08 
   1  -1  -5    0.00    0.13 
   1  -1  -5    0.30    0.19 
  -1   1   5    0.24    0.14 
  -1   1   5    0.49    0.23 
  -1   1   5    0.01    0.12 
  -1   1   5   -0.41    0.14 
   0  -1  -5   17.81    0.49 
   0  -1  -5   17.14    0.58 
   0  -1  -5   17.70    0.62 
   0  -1  -5   17.22    0.61 
   0   1   5   17.03    0.57 
   0   1   5   17.39    0.59 
   0   1   5   17.28    0.68 
   0   1   5   16.56    0.60 
  -1  -1  -5   42.99    1.18 
  -1  -1  -5   47.17    1.00 
  -1  -1  -5   45.49    1.23 
   1   1   5   45.20    1.16 
   1   1   5   41.14    1.28 
   1   1   5   46.29    1.19 
   1   1   5   45.95    1.24 
  -2  -1  -5   37.53    1.09 
  -2  -1  -5   37.62    1.14 
   2   1   5   37.23    1.03 
   2   1   5   36.26    1.16 
   2   1   5   37.85    1.04 
   2   1   5   38.09    0.88 
   2   1   5   36.58    1.15 
  -3  -1  -5    0.60    0.21 
   3   1   5    0.36    0.16 
   3   1   5    0.50    0.17 
   3   1   5    0.12    0.21 
   3   1   5    0.69    0.20 
  -4  -1  -5    0.10    0.20 
   4   1   5    0.12    0.17 
   4   1   5    0.31    0.18 
   4   1   5    0.33    0.27 
   4   1   5   -0.22    0.25 
  -5  -1  -5    3.07    0.43 
   5   1   5    3.44    0.40 
   5   1   5    3.77    0.37 
   5   1   5    4.40    0.64 
   5   1   5    4.13    0.55 
   6  -2  -5    0.63    0.40 
   6  -2  -5    0.82    0.27 
   6  -2  -5    0.76    0.23 
  -6   2   5    1.05    0.27 
   5  -2  -5    5.51    0.42 
   5  -2  -5    5.15    0.42 
   5  -2  -5    5.44    0.65 
  -5   2   5    5.86    0.45 
   4  -2  -5    0.22    0.15 
   4  -2  -5   -0.05    0.22 
   4  -2  -5   -0.07    0.14 
   4  -2  -5    0.02    0.15 
  -4   2   5   -0.14    0.16 
  -4   2   5    0.24    0.14 
   3  -2  -5   13.86    0.56 
   3  -2  -5   13.09    0.70 
   3  -2  -5   13.27    0.56 
   3  -2  -5   14.08    0.50 
  -3   2   5   13.77    0.64 
  -3   2   5   13.42    0.55 
  -3   2   5   13.07    0.58 
   2  -2  -5   21.19    0.86 
   2  -2  -5   22.03    0.75 
   2  -2  -5   23.06    0.81 
   2  -2  -5   24.02    0.75 
   2  -2  -5   22.34    0.65 
  -2   2   5   23.42    0.77 
  -2   2   5   20.49    0.81 
  -2   2   5   21.96    0.72 
   1  -2  -5   41.15    1.14 
   1  -2  -5   44.27    1.18 
   1  -2  -5   42.91    1.19 
   1  -2  -5   41.73    1.31 
  -1   2   5   43.79    1.04 
  -1   2   5   43.52    1.29 
  -1   2   5   42.74    1.14 
  -1   2   5   43.85    1.19 
   0  -2  -5    0.27    0.16 
   0  -2  -5    0.17    0.16 
   0  -2  -5    0.13    0.18 
   0   2   5    0.38    0.20 
   0   2   5    0.23    0.16 
   0   2   5    0.13    0.16 
   0   2   5    0.27    0.15 
  -1  -2  -5   27.24    0.83 
  -1  -2  -5   26.41    0.85 
  -1  -2  -5   26.54    0.67 
  -1  -2  -5   27.81    1.01 
  -1  -2  -5   27.76    0.83 
   1   2   5   26.22    0.82 
   1   2   5   25.21    0.93 
   1   2   5   26.39    0.87 
   1   2   5   27.45    0.83 
  -2  -2  -5    2.01    0.31 
   2   2   5    2.37    0.35 
   2   2   5    2.46    0.39 
   2   2   5    3.06    0.31 
   2   2   5    2.35    0.27 
  -3  -2  -5    1.17    0.24 
   3   2   5    1.17    0.28 
   3   2   5    1.47    0.34 
   3   2   5    2.07    0.27 
   3   2   5    1.60    0.24 
  -4  -2  -5    3.22    0.42 
   4   2   5    3.26    0.50 
   4   2   5    3.54    0.35 
   4   2   5    3.53    0.45 
  -5  -2  -5    0.63    0.26 
   5   2   5    0.47    0.32 
   5   2   5    0.75    0.43 
   5   2   5    0.81    0.22 
   5   2   5    0.62    0.28 
   6  -3  -5    0.35    0.23 
   6  -3  -5    0.48    0.35 
   6  -3  -5    0.65    0.29 
  -6   3   5    0.58    0.30 
   5  -3  -5    4.50    0.43 
   5  -3  -5    4.13    0.43 
   5  -3  -5    4.26    0.62 
  -5   3   5    3.60    0.45 
   4  -3  -5    8.29    0.47 
   4  -3  -5    7.11    0.47 
   4  -3  -5    7.84    0.49 
   4  -3  -5    7.85    0.64 
  -4   3   5    7.59    0.47 
  -4   3   5    7.51    0.51 
   3  -3  -5   25.17    1.05 
   3  -3  -5   25.30    0.88 
   3  -3  -5   26.41    0.84 
   3  -3  -5   26.64    0.89 
  -3   3   5   25.00    0.92 
  -3   3   5   25.05    0.85 
  -3   3   5   26.45    0.92 
   2  -3  -5   40.08    1.11 
   2  -3  -5   38.67    1.17 
   2  -3  -5   39.90    1.18 
   2  -3  -5   37.55    1.13 
   2  -3  -5   38.57    1.31 
  -2   3   5   40.31    1.13 
  -2   3   5   40.43    0.90 
  -2   3   5   38.71    1.25 
  -2   3   5   41.21    0.91 
  -2   3   5   38.54    1.17 
   1  -3  -5   89.41    2.16 
   1  -3  -5   90.33    2.11 
   1  -3  -5   87.48    2.17 
   1  -3  -5   89.92    2.43 
  -1   3   5   88.67    2.17 
  -1   3   5   90.08    2.35 
  -1   3   5   86.56    2.16 
  -1   3   5   90.87    2.11 
   0  -3  -5    3.56    0.16 
   0  -3  -5    3.40    0.37 
   0  -3  -5    3.91    0.42 
   0  -3  -5    3.20    0.37 
   0  -3  -5    3.83    0.28 
   0   3   5    3.40    0.29 
   0   3   5    3.39    0.33 
   0   3   5    3.65    0.36 
   0   3   5    3.97    0.44 
  -1  -3  -5    4.86    0.31 
  -1  -3  -5    4.57    0.40 
  -1  -3  -5    5.32    0.37 
  -1  -3  -5    4.37    0.44 
   1   3   5    5.21    0.28 
   1   3   5    5.15    0.38 
   1   3   5    4.90    0.47 
   1   3   5    4.97    0.36 
  -2  -3  -5   11.16    0.56 
   2   3   5   10.28    0.37 
   2   3   5   10.96    0.50 
   2   3   5   10.67    0.63 
   2   3   5   10.55    0.65 
   2   3   5   11.13    0.52 
  -3  -3  -5    1.40    0.27 
   3   3   5    1.21    0.32 
   3   3   5    2.46    0.43 
   3   3   5    1.79    0.26 
  -4  -3  -5    2.12    0.32 
   4   3   5    1.70    0.42 
   4   3   5    1.90    0.28 
   4   3   5    3.12    0.47 
   6  -4  -5    9.85    0.66 
   6  -4  -5   10.32    0.95 
   6  -4  -5    8.73    0.68 
  -6   4   5    8.91    0.69 
   5  -4  -5    0.20    0.23 
   5  -4  -5    0.43    0.26 
   5  -4  -5    0.15    0.36 
  -5   4   5    0.55    0.29 
   4  -4  -5   27.50    1.21 
   4  -4  -5   26.28    0.99 
   4  -4  -5   27.20    0.99 
   4  -4  -5   28.41    0.98 
  -4   4   5   27.43    1.02 
  -4   4   5   26.66    1.01 
   3  -4  -5    0.12    0.21 
   3  -4  -5    0.31    0.17 
   3  -4  -5    0.17    0.20 
   3  -4  -5    0.20    0.26 
  -3   4   5    0.04    0.24 
  -3   4   5    0.16    0.20 
   2  -4  -5   63.48    1.98 
   2  -4  -5   65.83    1.78 
   2  -4  -5   65.46    1.73 
   2  -4  -5   66.38    1.73 
  -2   4   5   65.87    1.82 
  -2   4   5   67.81    1.89 
  -2   4   5   65.56    1.78 
   1  -4  -5   19.43    0.63 
   1  -4  -5   19.33    0.79 
   1  -4  -5   19.34    0.77 
   1  -4  -5   19.26    0.88 
  -1   4   5   18.58    0.76 
  -1   4   5   20.10    0.76 
  -1   4   5   18.46    0.85 
   0  -4  -5    1.21    0.29 
   0  -4  -5    0.65    0.27 
   0  -4  -5    0.93    0.23 
   0  -4  -5    1.05    0.12 
   0  -4  -5    0.96    0.16 
   0   4   5    1.20    0.24 
   0   4   5    1.14    0.30 
   0   4   5    1.37    0.23 
   0   4   5    1.12    0.26 
  -1  -4  -5   24.63    1.07 
  -1  -4  -5   25.34    0.85 
  -1  -4  -5   26.01    0.94 
   1   4   5   26.73    0.89 
   1   4   5   24.92    0.87 
   1   4   5   24.49    1.05 
   1   4   5   25.49    0.80 
  -2  -4  -5   72.48    1.92 
   2   4   5   73.09    2.20 
   2   4   5   73.98    1.85 
   2   4   5   70.88    1.84 
   2   4   5   75.40    1.77 
  -3  -4  -5   22.19    0.88 
   3   4   5   23.09    1.09 
   3   4   5   21.20    0.81 
   3   4   5   22.46    1.07 
  -4  -4  -5    4.02    0.49 
   4   4   5    2.60    0.49 
   4   4   5    2.39    0.49 
   4   4   5    2.77    0.38 
   5  -5  -5    1.16    0.45 
   5  -5  -5    0.39    0.27 
   5  -5  -5    0.69    0.30 
   5  -5  -5    0.79    0.29 
  -5   5   5    0.67    0.34 
   4  -5  -5    5.35    0.54 
   4  -5  -5    5.93    0.52 
   4  -5  -5    5.28    0.54 
   4  -5  -5    4.89    0.64 
  -4   5   5    5.33    0.54 
  -4   5   5    5.93    0.56 
   3  -5  -5   40.02    1.34 
   3  -5  -5   41.60    1.54 
   3  -5  -5   40.02    1.30 
   3  -5  -5   40.36    1.30 
  -3   5   5   39.18    1.37 
  -3   5   5   42.05    1.35 
  -3   5   5   39.50    1.40 
   2  -5  -5   23.93    0.80 
   2  -5  -5   24.37    0.98 
   2  -5  -5   24.52    1.10 
   2  -5  -5   23.87    0.93 
  -2   5   5   25.06    0.96 
  -2   5   5   23.56    0.96 
  -2   5   5   24.77    1.04 
   1  -5  -5    2.15    0.34 
   1  -5  -5    2.31    0.22 
   1  -5  -5    1.61    0.31 
   1  -5  -5    1.73    0.43 
  -1   5   5    1.66    0.30 
  -1   5   5    1.73    0.30 
  -1   5   5    1.68    0.37 
   0  -5  -5   53.12    1.75 
   0  -5  -5   53.47    1.48 
   0  -5  -5   52.75    1.56 
   0   5   5   51.80    1.51 
   0   5   5   50.43    1.69 
   0   5   5   52.86    1.48 
  -1  -5  -5    5.59    0.50 
  -1  -5  -5    5.40    0.46 
   1   5   5    5.24    0.40 
   1   5   5    6.26    0.46 
   1   5   5    5.13    0.55 
   1   5   5    4.66    0.44 
  -2  -5  -5   -0.14    0.24 
   2   5   5    0.10    0.27 
   2   5   5    0.29    0.21 
   2   5   5    0.36    0.19 
  -3  -5  -5    0.94    0.29 
   3   5   5    1.50    0.45 
   3   5   5    0.71    0.25 
   5  -6  -5   12.96    0.78 
   5  -6  -5   10.82    0.94 
   5  -6  -5   12.69    0.83 
   5  -6  -5   13.32    0.82 
  -5   6   5   13.18    0.85 
   4  -6  -5    0.44    0.26 
   4  -6  -5    0.72    0.33 
   4  -6  -5    0.11    0.33 
   4  -6  -5   -0.07    0.27 
  -4   6   5    0.46    0.31 
  -4   6   5    0.22    0.30 
   3  -6  -5    0.23    0.29 
   3  -6  -5    0.77    0.35 
   3  -6  -5    0.84    0.40 
   3  -6  -5    0.85    0.30 
  -3   6   5    0.11    0.34 
  -3   6   5    0.28    0.26 
  -3   6   5    0.78    0.35 
   2  -6  -5   -0.02    0.12 
   2  -6  -5    0.29    0.26 
   2  -6  -5    1.05    0.46 
   2  -6  -5   -0.14    0.27 
  -2   6   5    0.47    0.34 
  -2   6   5   -0.06    0.25 
  -2   6   5    0.16    0.24 
   1  -6  -5    2.58    0.41 
   1  -6  -5    2.74    0.53 
   1  -6  -5    3.65    0.50 
  -1   6   5    3.41    0.45 
  -1   6   5    3.33    0.56 
  -1   6   5    3.51    0.45 
   0  -6  -5   13.79    0.71 
   0  -6  -5   12.03    0.82 
   0  -6  -5   14.55    0.78 
   0   6   5   13.18    0.86 
   0   6   5   13.12    0.71 
   0   6   5   14.58    0.72 
  -1  -6  -5    0.67    0.34 
   1   6   5    0.77    0.25 
   1   6   5    0.99    0.27 
   1   6   5    0.59    0.41 
   1   6   5    0.60    0.27 
  -2  -6  -5   12.45    0.77 
   2   6   5   14.17    0.97 
   2   6   5   12.72    0.70 
   4  -7  -5   25.83    1.19 
   4  -7  -5   25.54    1.37 
   4  -7  -5   28.31    1.24 
  -4   7   5   26.48    1.27 
  -4   7   5   24.91    1.19 
  -4   7   5   27.24    1.19 
   3  -7  -5   13.20    0.84 
   3  -7  -5   11.65    0.84 
   3  -7  -5   12.21    0.97 
  -3   7   5   12.17    0.88 
  -3   7   5   11.82    0.85 
  -3   7   5   13.32    0.83 
   2  -7  -5    1.39    0.39 
   2  -7  -5    0.19    0.36 
   2  -7  -5    0.46    0.33 
  -2   7   5    0.08    0.29 
  -2   7   5    0.53    0.37 
  -2   7   5    0.36    0.31 
   1  -7  -5   12.49    0.79 
   1  -7  -5   13.22    0.89 
   1  -7  -5   14.46    0.87 
  -1   7   5   12.05    0.87 
  -1   7   5   11.31    0.75 
  -1   7   5   13.66    0.80 
   0  -7  -5    0.48    0.38 
   0  -7  -5    0.26    0.30 
   0  -7  -5    0.66    0.26 
   0   7   5    0.53    0.28 
   0   7   5    0.52    0.28 
   0   7   5    0.35    0.38 
  -1  -7  -5   26.88    1.16 
   1   7   5   28.18    1.11 
   1   7   5   27.35    1.07 
   1   7   5   25.92    1.34 
   2  -8  -5    1.97    0.51 
   2  -8  -5    2.51    0.50 
   2  -8  -5    2.49    0.60 
  -2   8   5    1.79    0.45 
  -2   8   5    1.93    0.54 
  -2   8   5    1.84    0.45 
   1  -8  -5    8.10    0.82 
   1  -8  -5    8.52    0.76 
   1  -8  -5    6.99    0.82 
  -1   8   5   10.99    0.76 
  -1   8   5    7.49    0.84 
   0   8  -6    9.88    0.77 
   0   8  -6   10.40    0.81 
   0   8  -6   11.94    0.68 
   0  -8   6   10.46    0.78 
  -1   8  -6    3.06    0.49 
  -1   8  -6    2.94    0.44 
  -1   8  -6    2.10    0.47 
  -1   8  -6    2.89    0.52 
   1  -8   6    2.95    0.57 
   1  -8   6    1.83    0.35 
   1  -8   6    2.83    0.47 
  -2   8  -6    4.93    0.58 
  -2   8  -6    4.76    0.56 
  -2   8  -6    4.17    0.61 
  -2   8  -6    4.56    0.68 
   2  -8   6    4.67    0.65 
   2  -8   6    3.20    0.48 
   2  -8   6    3.58    0.63 
  -3   8  -6    2.24    0.47 
  -3   8  -6    1.66    0.47 
  -3   8  -6    2.39    0.48 
   3  -8   6    2.07    0.47 
   3  -8   6    2.58    0.50 
   3  -8   6    2.53    0.61 
   3  -8   6    2.18    0.48 
   2   7  -6    2.54    0.43 
   2   7  -6    2.46    0.53 
   2   7  -6    4.58    0.59 
  -2  -7   6    2.58    0.41 
   1   7  -6    2.47    0.39 
   1   7  -6    2.06    0.43 
   1   7  -6    2.55    0.47 
  -1  -7   6    2.62    0.41 
   0   7  -6    5.59    0.50 
   0   7  -6    5.09    0.48 
   0   7  -6    4.25    0.56 
   0   7  -6    5.12    0.56 
   0  -7   6    5.88    0.58 
  -1   7  -6    0.09    0.30 
  -1   7  -6    0.33    0.24 
  -1   7  -6    0.18    0.24 
  -1   7  -6    0.30    0.30 
   1  -7   6    0.14    0.25 
   1  -7   6   -0.01    0.26 
   1  -7   6    0.36    0.36 
  -2   7  -6   32.11    1.27 
  -2   7  -6   30.80    1.31 
  -2   7  -6   33.60    1.26 
  -2   7  -6   31.54    1.22 
   2  -7   6   35.53    1.31 
   2  -7   6   31.40    1.33 
   2  -7   6   33.96    1.24 
   2  -7   6   33.73    1.42 
  -3   7  -6    1.06    0.35 
  -3   7  -6    1.34    0.40 
  -3   7  -6    1.44    0.41 
  -3   7  -6    1.86    0.45 
   3  -7   6    1.65    0.42 
   3  -7   6    1.43    0.40 
   3  -7   6    1.33    0.39 
   3  -7   6    1.57    0.51 
  -4   7  -6    5.48    0.69 
  -4   7  -6    6.43    0.70 
  -4   7  -6    5.51    0.65 
   4  -7   6    7.28    0.72 
   4  -7   6    6.86    0.68 
   4  -7   6    6.94    0.80 
   4  -7   6    6.48    0.73 
   3   6  -6    3.51    0.53 
   3   6  -6    2.78    0.52 
   3   6  -6    2.88    0.43 
  -3  -6   6    2.24    0.34 
   2   6  -6   21.20    0.90 
   2   6  -6   20.51    1.04 
   2   6  -6   17.96    0.92 
  -2  -6   6   18.37    0.79 
   1   6  -6   21.20    0.94 
   1   6  -6   21.76    0.98 
   1   6  -6   21.40    0.89 
  -1  -6   6   19.64    0.85 
   0   6  -6    2.29    0.37 
   0   6  -6    2.68    0.38 
   0   6  -6    2.80    0.46 
   0   6  -6    3.23    0.46 
   0  -6   6    2.87    0.43 
   0  -6   6    2.99    0.50 
   0  -6   6    2.78    0.40 
  -1   6  -6    0.48    0.25 
  -1   6  -6    0.67    0.29 
  -1   6  -6    0.52    0.24 
  -1   6  -6    0.22    0.27 
   1  -6   6   -0.29    0.23 
   1  -6   6    0.18    0.24 
   1  -6   6    1.00    0.34 
   1  -6   6    0.31    0.30 
  -2   6  -6   42.68    1.45 
  -2   6  -6   45.90    1.47 
  -2   6  -6   43.33    1.39 
  -2   6  -6   41.10    1.45 
   2  -6   6   44.09    1.44 
   2  -6   6   42.65    1.54 
   2  -6   6   40.38    1.34 
   2  -6   6   43.31    1.50 
  -3   6  -6   43.57    1.54 
  -3   6  -6   42.82    1.51 
  -3   6  -6   43.20    1.46 
  -3   6  -6   42.58    1.47 
   3  -6   6   42.97    1.32 
   3  -6   6   43.79    1.61 
   3  -6   6   44.92    1.56 
   3  -6   6   42.86    1.42 
   3  -6   6   44.60    1.49 
  -4   6  -6    1.63    0.41 
  -4   6  -6    1.53    0.40 
  -4   6  -6    1.46    0.40 
   4  -6   6    2.14    0.43 
   4  -6   6    1.48    0.37 
   4  -6   6    1.24    0.38 
   4  -6   6    1.19    0.34 
   4  -6   6    1.42    0.44 
  -5   6  -6    0.90    0.36 
  -5   6  -6    1.02    0.38 
  -5   6  -6    1.86    0.45 
   5  -6   6    1.03    0.42 
   5  -6   6    1.01    0.35 
   5  -6   6    1.12    0.38 
   5  -6   6    0.99    0.46 
   5  -6   6    0.77    0.40 
   4   5  -6    9.03    0.72 
   4   5  -6    8.24    0.78 
   3   5  -6    9.35    0.70 
   3   5  -6   10.46    0.65 
   3   5  -6   10.29    0.76 
  -3  -5   6    9.39    0.49 
   2   5  -6   47.62    1.62 
   2   5  -6   52.35    1.57 
   2   5  -6   52.38    1.57 
  -2  -5   6   48.06    1.36 
   1   5  -6    1.29    0.33 
   1   5  -6    1.41    0.25 
   1   5  -6    1.03    0.24 
   1   5  -6    2.08    0.35 
  -1  -5   6    1.45    0.28 
  -1  -5   6    1.52    0.24 
   0   5  -6  154.95    3.52 
   0   5  -6  156.26    3.64 
   0   5  -6  155.76    3.78 
   0   5  -6  154.94    3.75 
   0  -5   6  155.39    3.41 
   0  -5   6  152.22    3.57 
   0  -5   6  155.40    3.77 
  -1   5  -6    1.45    0.31 
  -1   5  -6    0.97    0.24 
  -1   5  -6    1.12    0.28 
  -1   5  -6    0.96    0.24 
   1  -5   6    1.15    0.32 
   1  -5   6    1.22    0.32 
   1  -5   6    1.30    0.29 
   1  -5   6    1.04    0.25 
  -2   5  -6   25.55    1.03 
  -2   5  -6   26.91    1.01 
  -2   5  -6   24.86    1.00 
   2  -5   6   25.83    1.06 
   2  -5   6   26.97    1.01 
   2  -5   6   25.61    1.08 
   2  -5   6   26.51    0.96 
   2  -5   6   28.53    0.83 
  -3   5  -6   27.51    1.05 
  -3   5  -6   29.32    1.16 
  -3   5  -6   26.82    1.08 
   3  -5   6   29.91    1.07 
   3  -5   6   30.03    1.17 
   3  -5   6   28.65    1.09 
   3  -5   6   27.44    1.18 
  -4   5  -6   -0.19    0.25 
  -4   5  -6   -0.03    0.30 
   4  -5   6   -0.08    0.33 
   4  -5   6   -0.51    0.28 
   4  -5   6    0.03    0.24 
   4  -5   6    0.03    0.23 
  -5   5  -6    6.32    0.63 
  -5   5  -6    6.08    0.58 
  -5   5  -6    5.26    0.66 
   5  -5   6    5.90    0.70 
   5  -5   6    5.16    0.56 
   5  -5   6    5.47    0.58 
   5  -5   6    6.84    0.72 
   4   4  -6    2.10    0.39 
   4   4  -6    2.32    0.39 
   4   4  -6    2.36    0.45 
  -4  -4   6    2.08    0.21 
   3   4  -6   16.34    0.88 
   3   4  -6   16.04    0.80 
   3   4  -6   17.51    0.82 
   3   4  -6   17.35    0.69 
  -3  -4   6   15.55    0.60 
   2   4  -6    2.61    0.37 
   2   4  -6    2.54    0.36 
   2   4  -6    1.84    0.21 
   2   4  -6    2.02    0.34 
  -2  -4   6    2.08    0.31 
   1   4  -6    9.64    0.59 
   1   4  -6   10.76    0.58 
   1   4  -6    9.50    0.46 
   1   4  -6    8.87    0.55 
  -1  -4   6    9.84    0.51 
  -1  -4   6    9.99    0.45 
   0   4  -6    6.45    0.47 
   0   4  -6    7.01    0.48 
   0   4  -6    6.87    0.43 
   0   4  -6    6.40    0.44 
   0  -4   6    6.14    0.45 
   0  -4   6    7.35    0.54 
   0  -4   6    6.98    0.43 
   0  -4   6    6.47    0.45 
  -1   4  -6    0.84    0.23 
  -1   4  -6    0.95    0.27 
  -1   4  -6    0.79    0.24 
  -1   4  -6    0.50    0.22 
   1  -4   6    1.38    0.16 
   1  -4   6    0.73    0.23 
   1  -4   6    0.82    0.27 
   1  -4   6    0.76    0.23 
   1  -4   6    0.73    0.25 
  -2   4  -6   76.18    2.12 
  -2   4  -6   76.06    1.98 
  -2   4  -6   75.55    1.98 
  -2   4  -6   76.82    2.01 
   2  -4   6   74.45    1.92 
   2  -4   6   79.25    2.02 
   2  -4   6   74.78    2.09 
  -3   4  -6    9.20    0.55 
  -3   4  -6    9.08    0.59 
  -3   4  -6    9.82    0.67 
  -3   4  -6    8.44    0.59 
   3  -4   6    9.82    0.59 
   3  -4   6    9.55    0.60 
   3  -4   6    9.22    0.66 
   3  -4   6    8.43    0.61 
  -4   4  -6   23.45    1.00 
  -4   4  -6   23.77    0.90 
  -4   4  -6   23.85    0.98 
   4  -4   6   25.04    0.98 
   4  -4   6   24.12    1.11 
   4  -4   6   23.80    1.03 
   4  -4   6   21.97    0.92 
  -5   4  -6    2.43    0.45 
  -5   4  -6    2.32    0.38 
  -5   4  -6    1.94    0.42 
   5  -4   6    2.37    0.48 
   5  -4   6    1.19    0.43 
   5  -4   6    2.62    0.40 
   5  -4   6    2.24    0.40 
   5   3  -6    7.17    0.67 
   5   3  -6    7.61    0.69 
   5   3  -6    7.79    0.61 
   4   3  -6    0.99    0.26 
   4   3  -6    1.64    0.35 
   4   3  -6    0.81    0.35 
  -4  -3   6    1.32    0.18 
   3   3  -6   67.59    1.82 
   3   3  -6   65.20    1.94 
   3   3  -6   65.37    1.84 
  -3  -3   6   62.15    1.55 
   2   3  -6   17.87    0.62 
   2   3  -6   18.53    0.79 
   2   3  -6   18.71    0.59 
   2   3  -6   17.52    0.76 
  -2  -3   6   18.86    0.65 
  -2  -3   6   17.98    0.55 
   1   3  -6    0.69    0.23 
   1   3  -6    0.35    0.21 
   1   3  -6    0.39    0.09 
   1   3  -6    0.09    0.14 
   1   3  -6    0.10    0.15 
  -1  -3   6    0.16    0.15 
  -1  -3   6    0.04    0.14 
   0   3  -6   31.32    1.05 
   0   3  -6   29.96    0.98 
   0   3  -6   30.65    0.94 
   0   3  -6   30.17    0.98 
   0  -3   6   31.15    0.96 
   0  -3   6   32.18    0.79 
   0  -3   6   31.83    0.94 
   0  -3   6   31.38    1.02 
   0  -3   6   30.99    0.97 
  -1   3  -6   34.88    1.06 
  -1   3  -6   35.16    1.08 
  -1   3  -6   34.64    1.05 
  -1   3  -6   33.69    1.14 
   1  -3   6   35.83    1.08 
   1  -3   6   36.52    1.06 
   1  -3   6   34.02    1.12 
   1  -3   6   34.12    1.10 
  -2   3  -6    9.71    0.47 
  -2   3  -6    9.02    0.52 
  -2   3  -6    9.70    0.53 
  -2   3  -6    9.54    0.57 
   2  -3   6    9.47    0.52 
   2  -3   6    8.79    0.55 
   2  -3   6    8.69    0.55 
   2  -3   6    8.90    0.52 
  -3   3  -6   53.79    1.51 
  -3   3  -6   54.80    1.69 
  -3   3  -6   53.17    1.41 
  -3   3  -6   50.98    1.51 
   3  -3   6   54.59    1.64 
   3  -3   6   50.79    1.45 
   3  -3   6   51.64    1.50 
   3  -3   6   50.76    1.56 
  -4   3  -6   10.67    0.64 
  -4   3  -6   10.55    0.63 
  -4   3  -6   10.02    0.52 
   4  -3   6   10.19    0.70 
   4  -3   6    9.81    0.73 
   4  -3   6    9.69    0.59 
   4  -3   6   10.45    0.62 
  -5   3  -6    0.58    0.29 
   5  -3   6    0.88    0.42 
   5  -3   6    0.14    0.23 
   5  -3   6    0.90    0.34 
   5   2  -6   12.03    0.76 
   5   2  -6   12.73    0.87 
   5   2  -6   13.49    0.68 
   4   2  -6    0.21    0.26 
   4   2  -6    0.03    0.17 
  -4  -2   6    0.07    0.14 
   3   2  -6   -0.15    0.17 
   3   2  -6   -0.07    0.12 
  -3  -2   6   -0.06    0.12 
   2   2  -6   16.46    0.54 
   2   2  -6   14.94    0.70 
   2   2  -6   15.18    0.58 
  -2  -2   6   14.59    0.56 
  -2  -2   6   15.70    0.57 
  -2  -2   6   15.94    0.51 
   1   2  -6  148.88    3.58 
   1   2  -6  150.75    3.48 
   1   2  -6  150.58    3.35 
   1   2  -6  148.59    3.26 
  -1  -2   6  150.13    3.38 
  -1  -2   6  143.00    3.28 
  -1  -2   6  149.68    3.15 
   0   2  -6  121.57    2.78 
   0   2  -6  121.73    2.83 
   0   2  -6  121.39    2.89 
   0   2  -6  122.56    2.80 
   0   2  -6  118.93    3.00 
   0  -2   6  126.14    2.83 
   0  -2   6  123.49    2.87 
   0  -2   6  125.13    2.69 
   0  -2   6  126.62    2.80 
  -1   2  -6   14.13    0.51 
  -1   2  -6   12.73    0.55 
  -1   2  -6   13.41    0.63 
  -1   2  -6   13.36    0.58 
   1  -2   6   13.40    0.56 
   1  -2   6   12.15    0.56 
   1  -2   6   13.30    0.56 
   1  -2   6   13.23    0.63 
  -2   2  -6   18.06    0.80 
  -2   2  -6   17.90    0.59 
  -2   2  -6   17.48    0.68 
  -2   2  -6   17.38    0.72 
   2  -2   6   17.81    0.78 
   2  -2   6   16.67    0.69 
   2  -2   6   19.02    0.66 
   2  -2   6   19.45    0.78 
   2  -2   6   18.47    0.71 
  -3   2  -6    1.36    0.32 
  -3   2  -6    1.55    0.22 
  -3   2  -6    1.28    0.28 
  -3   2  -6    1.44    0.27 
   3  -2   6    1.41    0.26 
   3  -2   6    1.72    0.23 
   3  -2   6    1.45    0.32 
   3  -2   6    1.42    0.30 
   3  -2   6    1.68    0.27 
  -4   2  -6    0.06    0.22 
  -4   2  -6    0.16    0.20 
   4  -2   6    0.26    0.24 
   4  -2   6    0.40    0.14 
   4  -2   6    0.44    0.22 
   4  -2   6   -0.05    0.26 
   4  -2   6    0.10    0.21 
  -5   2  -6    7.44    0.58 
   5  -2   6    7.28    0.55 
   5  -2   6    8.09    0.76 
   5  -2   6    7.69    0.71 
   5   1  -6    0.65    0.24 
   5   1  -6    0.98    0.17 
   5   1  -6    1.06    0.32 
   5   1  -6    1.26    0.38 
  -5  -1   6    1.04    0.19 
   4   1  -6    9.24    0.46 
   4   1  -6    9.44    0.60 
   4   1  -6    8.52    0.39 
   4   1  -6    8.69    0.64 
  -4  -1   6    8.55    0.41 
   3   1  -6   10.95    0.43 
   3   1  -6   10.80    0.43 
   3   1  -6   10.96    0.40 
   3   1  -6   10.08    0.55 
   3   1  -6   10.25    0.39 
   3   1  -6    9.29    0.60 
  -3  -1   6   10.14    0.45 
   2   1  -6    7.57    0.24 
   2   1  -6    7.17    0.37 
   2   1  -6    7.57    0.41 
   2   1  -6    7.71    0.52 
  -2  -1   6    7.57    0.35 
  -2  -1   6    7.49    0.43 
   1   1  -6   40.71    0.92 
   1   1  -6   39.91    1.12 
   1   1  -6   40.97    1.15 
   1   1  -6   39.63    1.07 
   1   1  -6   40.05    1.22 
  -1  -1   6   42.06    1.11 
  -1  -1   6   40.89    1.09 
  -1  -1   6   40.24    1.04 
   0   1  -6    0.58    0.17 
   0   1  -6    0.99    0.20 
   0   1  -6    0.59    0.16 
   0   1  -6    0.65    0.20 
   0  -1   6    0.81    0.14 
   0  -1   6    0.56    0.21 
   0  -1   6    0.98    0.20 
   0  -1   6    0.77    0.18 
   0  -1   6    0.66    0.19 
  -1   1  -6   16.32    0.70 
  -1   1  -6   16.19    0.50 
  -1   1  -6   15.91    0.57 
  -1   1  -6   15.80    0.63 
   1  -1   6   16.15    0.60 
   1  -1   6   16.41    0.63 
   1  -1   6   15.20    0.62 
   1  -1   6   16.45    0.61 
   1  -1   6   17.04    0.65 
  -2   1  -6   25.39    0.86 
  -2   1  -6   23.99    0.76 
  -2   1  -6   24.42    0.62 
  -2   1  -6   23.30    0.92 
   2  -1   6   23.72    0.82 
   2  -1   6   24.54    0.82 
   2  -1   6   24.56    0.92 
   2  -1   6   25.69    0.91 
   2  -1   6   25.05    0.82 
  -3   1  -6    3.14    0.39 
  -3   1  -6    4.24    0.46 
  -3   1  -6    3.44    0.33 
   3  -1   6    3.31    0.45 
   3  -1   6    3.84    0.33 
   3  -1   6    3.78    0.18 
   3  -1   6    4.06    0.37 
   3  -1   6    3.68    0.35 
   3  -1   6    3.80    0.45 
  -4   1  -6   27.77    1.03 
   4  -1   6   30.39    1.00 
   4  -1   6   28.62    1.21 
   4  -1   6   30.55    1.19 
   4  -1   6   29.98    1.00 
   4  -1   6   31.54    0.97 
  -5   1  -6    2.72    0.40 
   5  -1   6    2.54    0.49 
   5  -1   6    2.73    0.53 
   5  -1   6    2.20    0.35 
   5   0  -6    0.18    0.15 
   5   0  -6    0.51    0.30 
   5   0  -6   -0.19    0.15 
  -5   0   6    0.44    0.19 
   4   0  -6    0.26    0.23 
   4   0  -6    0.29    0.15 
   4   0  -6    0.12    0.14 
  -4   0   6    0.21    0.17 
   3   0  -6   15.42    0.75 
   3   0  -6   15.24    0.46 
   3   0  -6   16.25    0.58 
   3   0  -6   15.92    0.55 
   3   0  -6   16.08    0.73 
  -3   0   6   15.95    0.52 
  -3   0   6   15.37    0.60 
   2   0  -6   15.88    0.66 
   2   0  -6   15.96    0.58 
   2   0  -6   15.78    0.70 
  -2   0   6   16.90    0.59 
  -2   0   6   16.81    0.62 
   1   0  -6   32.26    1.00 
   1   0  -6   30.56    0.90 
   1   0  -6   29.99    0.87 
   1   0  -6   30.00    0.99 
  -1   0   6   31.24    0.84 
  -1   0   6   31.88    0.88 
  -1   0   6   31.74    0.93 
   0   0  -6   16.40    0.54 
   0   0  -6   15.62    0.65 
   0   0  -6   17.82    0.67 
   0   0  -6   15.63    0.61 
   0   0   6   16.04    0.59 
   0   0   6   15.65    0.50 
   0   0   6   16.08    0.68 
   0   0   6   16.45    0.62 
   0   0   6   15.74    0.58 
  -1   0  -6   89.53    1.92 
  -1   0  -6   88.36    2.10 
  -1   0  -6   89.06    1.97 
  -1   0  -6   85.60    2.22 
   1   0   6   90.81    2.10 
   1   0   6   82.65    2.13 
   1   0   6   86.87    2.24 
   1   0   6   88.46    2.04 
   1   0   6   89.40    2.15 
  -2   0  -6    1.06    0.26 
  -2   0  -6    1.17    0.25 
  -2   0  -6    1.11    0.17 
   2   0   6    1.04    0.23 
   2   0   6    0.96    0.26 
   2   0   6    0.88    0.22 
   2   0   6    0.96    0.26 
   2   0   6    1.86    0.29 
  -3   0  -6   21.59    0.81 
   3   0   6   20.65    0.75 
   3   0   6   22.30    0.90 
   3   0   6   20.41    0.89 
   3   0   6   22.28    0.78 
   3   0   6   19.54    0.78 
  -4   0  -6    2.74    0.42 
   4   0   6    2.05    0.30 
   4   0   6    2.91    0.36 
   4   0   6    2.25    0.43 
   4   0   6    2.30    0.39 
  -5   0  -6    1.02    0.31 
   5   0   6    1.03    0.41 
   5   0   6    0.64    0.32 
   5   0   6    0.99    0.26 
   5   0   6    1.55    0.33 
   6  -1  -6   20.51    0.75 
   6  -1  -6   21.47    1.22 
  -6   1   6   19.99    0.77 
   5  -1  -6    5.76    0.65 
   5  -1  -6    4.58    0.37 
   5  -1  -6    4.59    0.38 
  -5   1   6    5.00    0.42 
   4  -1  -6    0.63    0.19 
   4  -1  -6    0.55    0.15 
   4  -1  -6    0.39    0.17 
   4  -1  -6    0.33    0.24 
  -4   1   6    0.50    0.20 
   3  -1  -6   24.81    0.65 
   3  -1  -6   22.72    0.77 
   3  -1  -6   24.92    0.99 
   3  -1  -6   24.91    0.99 
   3  -1  -6   25.21    0.79 
  -3   1   6   24.02    0.74 
  -3   1   6   24.02    0.82 
   2  -1  -6    2.26    0.31 
   2  -1  -6    2.25    0.29 
   2  -1  -6    1.92    0.32 
   2  -1  -6    2.84    0.29 
   2  -1  -6    2.41    0.14 
  -2   1   6    1.64    0.24 
  -2   1   6    2.46    0.33 
  -2   1   6    1.47    0.31 
   1  -1  -6    0.91    0.24 
   1  -1  -6    0.78    0.20 
   1  -1  -6    0.78    0.20 
   1  -1  -6    0.68    0.19 
  -1   1   6    0.97    0.22 
  -1   1   6    0.91    0.14 
  -1   1   6    0.88    0.24 
  -1   1   6    1.06    0.18 
  -1   1   6    1.46    0.23 
   0  -1  -6    6.35    0.40 
   0  -1  -6    6.20    0.40 
   0  -1  -6    5.98    0.43 
   0  -1  -6    6.00    0.28 
   0  -1  -6    6.39    0.38 
   0   1   6    5.84    0.36 
   0   1   6    6.60    0.40 
   0   1   6    5.43    0.45 
   0   1   6    6.38    0.40 
  -1  -1  -6    1.55    0.26 
  -1  -1  -6    1.77    0.31 
  -1  -1  -6    2.03    0.29 
  -1  -1  -6    1.48    0.13 
  -1  -1  -6    1.68    0.18 
   1   1   6    1.77    0.26 
   1   1   6    1.27    0.21 
   1   1   6    1.77    0.26 
   1   1   6    1.67    0.28 
  -2  -1  -6   42.29    1.26 
  -2  -1  -6   40.05    1.18 
   2   1   6   39.71    1.26 
   2   1   6   37.75    1.25 
   2   1   6   40.85    1.13 
   2   1   6   41.20    1.14 
  -3  -1  -6   43.41    1.29 
   3   1   6   43.97    1.44 
   3   1   6   45.97    1.26 
   3   1   6   45.01    1.39 
   3   1   6   44.36    1.25 
  -4  -1  -6    0.42    0.24 
   4   1   6    0.33    0.30 
   4   1   6    0.25    0.19 
   4   1   6    0.31    0.21 
   4   1   6    0.01    0.27 
  -5  -1  -6    9.04    0.61 
   5   1   6    7.67    0.53 
   5   1   6    9.17    0.83 
   5   1   6    9.65    0.82 
   5   1   6    8.26    0.59 
   6  -2  -6    6.32    0.79 
   6  -2  -6    4.88    0.46 
  -6   2   6    5.27    0.51 
   5  -2  -6   14.05    0.91 
   5  -2  -6   12.75    0.60 
   5  -2  -6   13.35    0.62 
  -5   2   6   11.69    0.64 
   4  -2  -6   -0.01    0.14 
   4  -2  -6    0.23    0.18 
   4  -2  -6    0.09    0.24 
   4  -2  -6   -0.04    0.16 
  -4   2   6   -0.05    0.17 
  -4   2   6    0.28    0.15 
   3  -2  -6   16.82    0.82 
   3  -2  -6   16.67    0.54 
   3  -2  -6   15.20    0.74 
   3  -2  -6   17.72    0.68 
   3  -2  -6   16.53    0.66 
  -3   2   6   17.58    0.65 
  -3   2   6   16.36    0.75 
  -3   2   6   16.71    0.69 
   2  -2  -6   24.90    0.84 
   2  -2  -6   24.59    0.83 
   2  -2  -6   24.28    0.96 
   2  -2  -6   24.59    0.89 
  -2   2   6   25.88    0.82 
  -2   2   6   25.03    0.86 
  -2   2   6   25.82    0.95 
   1  -2  -6   10.77    0.54 
   1  -2  -6   11.24    0.54 
   1  -2  -6   11.33    0.62 
   1  -2  -6   11.53    0.53 
  -1   2   6   11.89    0.55 
  -1   2   6   10.38    0.61 
  -1   2   6   10.38    0.53 
  -1   2   6   11.45    0.44 
   0  -2  -6    1.48    0.26 
   0  -2  -6    1.26    0.25 
   0  -2  -6    2.14    0.30 
   0  -2  -6    1.45    0.26 
   0  -2  -6    1.87    0.18 
   0   2   6    1.31    0.28 
   0   2   6    2.05    0.32 
   0   2   6    1.82    0.27 
   0   2   6    1.69    0.26 
  -1  -2  -6   35.06    1.23 
  -1  -2  -6   34.07    1.03 
  -1  -2  -6   35.19    1.01 
  -1  -2  -6   35.34    0.83 
  -1  -2  -6   33.69    1.06 
   1   2   6   35.21    1.05 
   1   2   6   36.57    1.04 
   1   2   6   32.67    1.07 
   1   2   6   34.13    1.17 
  -2  -2  -6    0.94    0.22 
  -2  -2  -6    0.71    0.22 
   2   2   6    0.66    0.20 
   2   2   6    0.89    0.20 
   2   2   6    0.47    0.25 
   2   2   6    1.11    0.27 
  -3  -2  -6   23.65    0.89 
   3   2   6   26.04    1.06 
   3   2   6   25.14    0.84 
   3   2   6   26.17    1.03 
   3   2   6   24.89    0.85 
  -4  -2  -6   11.78    0.67 
   4   2   6   12.74    0.75 
   4   2   6   12.86    0.85 
   4   2   6   11.38    0.60 
   5  -3  -6   26.82    0.97 
   5  -3  -6   26.42    1.29 
   5  -3  -6   27.36    0.98 
  -5   3   6   27.26    1.03 
   4  -3  -6    5.10    0.45 
   4  -3  -6    4.29    0.57 
   4  -3  -6    5.03    0.38 
   4  -3  -6    4.71    0.44 
  -4   3   6    4.97    0.42 
  -4   3   6    5.38    0.48 
   3  -3  -6   -0.02    0.20 
   3  -3  -6    0.06    0.24 
   3  -3  -6   -0.19    0.16 
   3  -3  -6   -0.06    0.16 
   3  -3  -6    0.11    0.12 
  -3   3   6   -0.09    0.16 
  -3   3   6   -0.38    0.21 
  -3   3   6   -0.10    0.16 
   2  -3  -6   33.20    1.10 
   2  -3  -6   36.19    1.28 
   2  -3  -6   34.42    1.10 
   2  -3  -6   35.25    1.09 
  -2   3   6   36.01    1.09 
  -2   3   6   36.65    0.83 
  -2   3   6   33.55    1.20 
  -2   3   6   35.84    1.12 
   1  -3  -6   97.92    2.33 
   1  -3  -6   97.70    2.41 
   1  -3  -6   94.04    2.67 
   1  -3  -6  100.00    2.41 
  -1   3   6   97.01    2.60 
  -1   3   6  100.57    2.26 
  -1   3   6   98.89    2.33 
  -1   3   6  100.64    2.41 
   0  -3  -6    0.09    0.07 
   0  -3  -6   -0.19    0.16 
   0  -3  -6    0.01    0.14 
   0  -3  -6    0.07    0.19 
   0  -3  -6    0.28    0.22 
   0  -3  -6   -0.08    0.07 
   0   3   6    0.17    0.16 
   0   3   6    0.00    0.20 
   0   3   6    0.01    0.16 
   0   3   6    0.30    0.18 
  -1  -3  -6    5.98    0.35 
  -1  -3  -6    6.38    0.47 
  -1  -3  -6    4.46    0.50 
  -1  -3  -6    6.53    0.42 
   1   3   6    6.05    0.53 
   1   3   6    6.30    0.44 
   1   3   6    5.74    0.42 
   1   3   6    6.22    0.48 
   1   3   6    6.17    0.30 
  -2  -3  -6   19.61    0.79 
   2   3   6   19.24    0.74 
   2   3   6   19.96    0.51 
   2   3   6   20.57    0.77 
   2   3   6   19.40    0.91 
   2   3   6   19.56    0.88 
  -3  -3  -6    1.77    0.32 
   3   3   6    1.35    0.27 
   3   3   6    1.22    0.35 
   3   3   6    1.90    0.41 
  -4  -3  -6    1.55    0.33 
   4   3   6    1.24    0.27 
   4   3   6    1.29    0.38 
   4   3   6    1.03    0.39 
   5  -4  -6    2.01    0.34 
   5  -4  -6    1.60    0.45 
   5  -4  -6    1.15    0.31 
  -5   4   6    0.95    0.31 
   4  -4  -6   30.99    1.02 
   4  -4  -6   28.40    1.06 
   4  -4  -6   28.21    1.26 
   4  -4  -6   30.38    1.09 
  -4   4   6   31.41    1.14 
  -4   4   6   31.45    1.05 
  -4   4   6   26.95    1.09 
   3  -4  -6   15.88    0.66 
   3  -4  -6   14.81    0.86 
   3  -4  -6   13.50    0.70 
   3  -4  -6   14.64    0.72 
   3  -4  -6   16.84    0.76 
  -3   4   6   14.77    0.71 
  -3   4   6   15.19    0.78 
  -3   4   6   16.83    0.76 
   2  -4  -6    2.54    0.41 
   2  -4  -6    1.97    0.40 
   2  -4  -6    1.98    0.32 
   2  -4  -6    1.95    0.30 
  -2   4   6    1.68    0.22 
  -2   4   6    2.15    0.32 
  -2   4   6    2.78    0.48 
  -2   4   6    1.78    0.31 
   1  -4  -6    1.68    0.36 
   1  -4  -6    2.04    0.27 
   1  -4  -6    1.84    0.31 
   1  -4  -6    1.63    0.30 
  -1   4   6    1.35    0.34 
  -1   4   6    1.19    0.26 
  -1   4   6    1.42    0.28 
  -1   4   6    1.24    0.27 
   0  -4  -6   29.47    0.82 
   0  -4  -6   28.69    0.97 
   0  -4  -6   28.26    1.03 
   0  -4  -6   26.52    1.13 
   0   4   6   29.79    1.00 
   0   4   6   29.38    0.91 
   0   4   6   25.53    0.95 
   0   4   6   28.47    1.12 
  -1  -4  -6   14.23    0.64 
  -1  -4  -6   13.93    0.83 
  -1  -4  -6   13.04    0.69 
   1   4   6   12.21    0.69 
   1   4   6   14.17    0.54 
   1   4   6   13.19    0.64 
   1   4   6   13.73    0.77 
   1   4   6   14.09    0.65 
  -2  -4  -6   21.19    0.87 
   2   4   6   19.12    0.99 
   2   4   6   19.90    0.78 
   2   4   6   19.24    0.80 
   2   4   6   19.46    0.93 
  -3  -4  -6    1.70    0.34 
   3   4   6    1.35    0.42 
   3   4   6    1.50    0.39 
   3   4   6    1.80    0.31 
   5  -5  -6   10.74    0.92 
   5  -5  -6   11.51    0.76 
   5  -5  -6   12.80    0.71 
  -5   5   6   12.08    0.80 
   4  -5  -6   13.22    0.95 
   4  -5  -6   15.30    0.73 
   4  -5  -6   13.64    0.77 
   4  -5  -6   15.77    0.82 
  -4   5   6   14.77    0.78 
  -4   5   6   14.05    0.79 
  -4   5   6   12.98    0.80 
   3  -5  -6    0.85    0.38 
   3  -5  -6    0.60    0.28 
   3  -5  -6    1.23    0.28 
   3  -5  -6    0.37    0.24 
   3  -5  -6    0.99    0.32 
  -3   5   6    0.67    0.40 
  -3   5   6    0.56    0.28 
   2  -5  -6    0.05    0.17 
   2  -5  -6    0.29    0.24 
   2  -5  -6    0.12    0.28 
   2  -5  -6   -0.07    0.21 
  -2   5   6    0.31    0.30 
  -2   5   6    0.10    0.25 
  -2   5   6    0.06    0.20 
   1  -5  -6    1.33    0.33 
   1  -5  -6    1.76    0.23 
   1  -5  -6    1.01    0.28 
   1  -5  -6    1.49    0.40 
  -1   5   6    1.06    0.27 
  -1   5   6    1.45    0.30 
  -1   5   6    2.18    0.43 
   0  -5  -6   48.07    1.72 
   0  -5  -6   48.67    1.54 
   0  -5  -6   51.14    1.46 
   0   5   6   47.28    1.46 
   0   5   6   49.16    1.42 
   0   5   6   51.50    1.50 
   0   5   6   48.49    1.69 
  -1  -5  -6   -0.01    0.23 
  -1  -5  -6    0.91    0.31 
   1   5   6    0.36    0.22 
   1   5   6    0.59    0.36 
   1   5   6    0.67    0.25 
   1   5   6    0.83    0.22 
  -2  -5  -6   13.13    0.77 
   2   5   6   12.26    0.83 
   2   5   6   15.22    0.94 
   2   5   6   11.78    0.68 
  -3  -5  -6    0.96    0.34 
   3   5   6    0.49    0.24 
   3   5   6    1.05    0.44 
   3   5   6    0.68    0.41 
   4  -6  -6   21.61    1.23 
   4  -6  -6   22.41    1.07 
   4  -6  -6   21.10    1.02 
   4  -6  -6   21.73    0.98 
  -4   6   6   23.36    1.09 
  -4   6   6   22.47    1.06 
   3  -6  -6    7.12    0.68 
   3  -6  -6    5.91    0.47 
   3  -6  -6    6.45    0.71 
   3  -6  -6    6.60    0.63 
  -3   6   6    7.62    0.67 
  -3   6   6    6.28    0.70 
  -3   6   6    7.19    0.68 
   2  -6  -6   21.66    0.99 
   2  -6  -6   23.88    1.06 
   2  -6  -6   23.90    1.22 
  -2   6   6   23.03    1.03 
  -2   6   6   23.16    1.12 
  -2   6   6   23.47    1.02 
   1  -6  -6   15.88    0.88 
   1  -6  -6   15.46    0.97 
   1  -6  -6   16.99    0.85 
  -1   6   6   16.10    0.83 
  -1   6   6   15.49    0.94 
  -1   6   6   16.36    0.82 
   0  -6  -6    0.11    0.28 
   0  -6  -6    0.69    0.29 
   0  -6  -6    0.81    0.39 
   0   6   6    0.67    0.30 
   0   6   6    0.48    0.27 
   0   6   6    0.17    0.35 
   0   6   6    0.87    0.28 
  -1  -6  -6    2.53    0.44 
   1   6   6    1.93    0.37 
   1   6   6    1.92    0.35 
   1   6   6    1.74    0.46 
   1   6   6    2.13    0.34 
  -2  -6  -6    4.55    0.63 
   2   6   6    3.67    0.61 
   2   6   6    5.18    0.54 
   3  -7  -6   23.76    1.34 
   3  -7  -6   22.40    1.10 
   3  -7  -6   22.48    1.15 
  -3   7   6   23.57    1.20 
  -3   7   6   23.96    1.14 
  -3   7   6   23.58    1.14 
   2  -7  -6    0.03    0.32 
   2  -7  -6    0.32    0.39 
   2  -7  -6    0.54    0.35 
  -2   7   6    0.24    0.28 
  -2   7   6    0.60    0.33 
  -2   7   6    0.02    0.39 
   1  -7  -6    1.67    0.47 
   1  -7  -6    2.00    0.41 
   1  -7  -6    2.54    0.49 
  -1   7   6    2.22    0.40 
  -1   7   6    2.59    0.44 
  -1   7   6    2.62    0.51 
   0  -7  -6    0.33    0.37 
   0  -7  -6   -0.04    0.30 
   0  -7  -6    0.67    0.29 
   0   7   6   -0.01    0.28 
   0   7   6    0.01    0.23 
   0   7   6   -0.28    0.34 
   0   7   6    0.56    0.30 
   0   8  -7   23.16    1.17 
   0   8  -7   23.53    1.24 
   0   8  -7   26.18    1.07 
   0  -8   7   24.37    1.14 
  -1   8  -7    1.28    0.46 
  -1   8  -7    1.64    0.46 
  -1   8  -7    1.50    0.36 
  -1   8  -7    1.86    0.37 
   1  -8   7    2.01    0.38 
   1  -8   7    1.53    0.47 
   1  -8   7    1.62    0.44 
  -2   8  -7    3.16    0.57 
  -2   8  -7    1.79    0.48 
  -2   8  -7    1.33    0.39 
   2  -8   7    1.89    0.48 
   2  -8   7    1.17    0.48 
   2  -8   7    2.88    0.54 
   1   7  -7    3.29    0.56 
   1   7  -7    3.05    0.48 
   1   7  -7    3.58    0.53 
  -1  -7   7    3.75    0.52 
   0   7  -7   22.57    1.02 
   0   7  -7   19.67    0.91 
   0   7  -7   19.14    0.85 
   0   7  -7   18.80    1.02 
   0  -7   7   19.88    0.95 
  -1   7  -7    4.01    0.50 
  -1   7  -7    5.09    0.55 
  -1   7  -7    3.86    0.59 
  -1   7  -7    4.99    0.62 
   1  -7   7    4.12    0.54 
   1  -7   7    4.72    0.58 
   1  -7   7    3.98    0.60 
  -2   7  -7    0.27    0.29 
  -2   7  -7    0.39    0.34 
  -2   7  -7    0.90    0.32 
  -2   7  -7    0.29    0.32 
   2  -7   7    0.46    0.37 
   2  -7   7    0.56    0.38 
   2  -7   7    0.70    0.33 
   2  -7   7    0.51    0.35 
  -3   7  -7    6.92    0.67 
  -3   7  -7    6.26    0.70 
  -3   7  -7    6.24    0.72 
  -3   7  -7    6.07    0.68 
   3  -7   7    7.24    0.71 
   3  -7   7    7.57    0.72 
   3  -7   7    8.10    0.86 
   3  -7   7    7.42    0.71 
  -4   7  -7    6.70    0.74 
  -4   7  -7    5.99    0.72 
  -4   7  -7    7.72    0.79 
   4  -7   7    6.33    0.73 
   4  -7   7    6.51    0.77 
   4  -7   7    7.45    0.91 
   4  -7   7    5.95    0.70 
   2   6  -7   18.57    0.90 
   2   6  -7   18.04    0.91 
   2   6  -7   16.36    0.94 
  -2  -6   7   16.86    0.78 
   1   6  -7    2.71    0.44 
   1   6  -7    2.32    0.38 
   1   6  -7    2.65    0.47 
  -1  -6   7    2.09    0.36 
   0   6  -7    0.02    0.25 
   0   6  -7   -0.05    0.26 
   0   6  -7    0.20    0.22 
   0   6  -7    0.12    0.23 
   0  -6   7    0.36    0.23 
   0  -6   7    0.03    0.22 
   0  -6   7    0.08    0.26 
  -1   6  -7    7.37    0.57 
  -1   6  -7    6.99    0.55 
  -1   6  -7    7.32    0.63 
  -1   6  -7    6.53    0.59 
   1  -6   7    5.37    0.69 
   1  -6   7    6.76    0.68 
   1  -6   7    5.54    0.52 
   1  -6   7    6.82    0.58 
  -2   6  -7   10.83    0.72 
  -2   6  -7   10.93    0.69 
  -2   6  -7   11.00    0.78 
  -2   6  -7   11.40    0.72 
   2  -6   7   11.09    0.70 
   2  -6   7   11.35    0.86 
   2  -6   7   10.89    0.81 
   2  -6   7   11.09    0.73 
  -3   6  -7    2.05    0.43 
  -3   6  -7    1.93    0.44 
  -3   6  -7    1.83    0.39 
  -3   6  -7    1.46    0.40 
   3  -6   7    1.26    0.43 
   3  -6   7    1.77    0.29 
   3  -6   7    1.93    0.39 
   3  -6   7    1.71    0.39 
   3  -6   7    1.91    0.47 
  -4   6  -7    1.03    0.36 
  -4   6  -7    0.72    0.36 
  -4   6  -7    1.56    0.45 
   4  -6   7    0.86    0.42 
   4  -6   7    0.33    0.34 
   4  -6   7    0.61    0.40 
   4  -6   7    1.32    0.32 
   4  -6   7    0.59    0.34 
   3   5  -7    7.19    0.65 
   3   5  -7    7.17    0.66 
   3   5  -7    7.73    0.63 
  -3  -5   7    6.04    0.47 
   2   5  -7    2.65    0.42 
   2   5  -7    1.60    0.36 
   2   5  -7    1.91    0.38 
  -2  -5   7    1.98    0.31 
   1   5  -7    4.98    0.49 
   1   5  -7    5.15    0.41 
   1   5  -7    4.32    0.51 
   1   5  -7    4.24    0.49 
  -1  -5   7    5.32    0.38 
  -1  -5   7    4.65    0.47 
   0   5  -7   -0.10    0.22 
   0   5  -7    0.19    0.23 
   0   5  -7   -0.01    0.18 
   0   5  -7   -0.07    0.20 
   0  -5   7   -0.35    0.19 
   0  -5   7    0.37    0.22 
   0  -5   7   -0.04    0.21 
   0  -5   7   -0.10    0.22 
  -1   5  -7    3.19    0.42 
  -1   5  -7    2.94    0.41 
  -1   5  -7    3.58    0.45 
  -1   5  -7    3.18    0.42 
   1  -5   7    2.75    0.44 
   1  -5   7    2.39    0.38 
   1  -5   7    3.54    0.44 
   1  -5   7    2.48    0.37 
  -2   5  -7    4.56    0.49 
  -2   5  -7    5.54    0.51 
  -2   5  -7    4.97    0.49 
  -2   5  -7    5.11    0.51 
   2  -5   7    5.37    0.53 
   2  -5   7    4.33    0.60 
   2  -5   7    5.19    0.35 
   2  -5   7    6.25    0.53 
   2  -5   7    6.26    0.63 
  -3   5  -7    3.74    0.50 
  -3   5  -7    3.73    0.59 
  -3   5  -7    3.54    0.49 
  -3   5  -7    2.77    0.46 
   3  -5   7    3.65    0.49 
   3  -5   7    4.30    0.66 
   3  -5   7    3.45    0.48 
   3  -5   7    4.57    0.64 
  -4   5  -7   51.36    1.57 
  -4   5  -7   51.76    1.68 
   4  -5   7   51.94    1.80 
   4  -5   7   52.76    1.66 
   4  -5   7   48.17    1.59 
   4  -5   7   50.41    1.72 
  -5   5  -7    8.14    0.76 
  -5   5  -7    7.92    0.70 
  -5   5  -7    7.60    0.58 
   5  -5   7    7.54    0.65 
   5  -5   7    7.88    0.69 
   5  -5   7    7.66    0.78 
   5  -5   7    6.54    0.79 
   4   4  -7    0.66    0.32 
   4   4  -7    1.14    0.35 
  -4  -4   7    1.35    0.22 
   3   4  -7   30.78    1.29 
   3   4  -7   31.83    1.22 
   3   4  -7   33.21    1.05 
   3   4  -7   31.14    1.24 
  -3  -4   7   32.16    0.98 
   2   4  -7    0.14    0.24 
   2   4  -7    0.68    0.26 
   2   4  -7    0.38    0.24 
   2   4  -7    0.40    0.12 
  -2  -4   7    0.51    0.21 
   1   4  -7    8.35    0.57 
   1   4  -7    8.29    0.56 
   1   4  -7    8.75    0.47 
   1   4  -7    8.00    0.55 
  -1  -4   7    8.21    0.50 
  -1  -4   7    7.62    0.44 
   0   4  -7    0.47    0.24 
   0   4  -7    0.45    0.19 
   0   4  -7    0.53    0.23 
   0   4  -7    0.00    0.19 
   0  -4   7    0.24    0.25 
   0  -4   7    0.44    0.20 
   0  -4   7    0.22    0.20 
   0  -4   7    0.17    0.18 
  -1   4  -7   31.52    1.07 
  -1   4  -7   34.31    1.19 
  -1   4  -7   33.06    1.08 
  -1   4  -7   33.59    1.13 
   1  -4   7   31.46    1.04 
   1  -4   7   33.08    1.11 
   1  -4   7   32.31    1.09 
   1  -4   7   35.30    1.20 
  -2   4  -7   11.63    0.64 
  -2   4  -7   11.93    0.74 
  -2   4  -7   12.47    0.63 
  -2   4  -7   12.01    0.68 
   2  -4   7   13.37    0.78 
   2  -4   7   12.34    0.65 
   2  -4   7   13.02    0.69 
   2  -4   7   13.32    0.76 
  -3   4  -7   31.66    1.25 
  -3   4  -7   31.62    1.15 
  -3   4  -7   32.41    1.06 
  -3   4  -7   32.11    1.16 
   3  -4   7   32.49    1.24 
   3  -4   7   31.72    1.12 
   3  -4   7   32.64    1.24 
   3  -4   7   30.13    1.13 
  -4   4  -7    0.58    0.29 
  -4   4  -7    0.96    0.27 
  -4   4  -7    0.82    0.32 
   4  -4   7    0.22    0.24 
   4  -4   7    1.14    0.39 
   4  -4   7    0.63    0.37 
   4  -4   7    0.33    0.29 
  -5   4  -7   18.07    0.97 
  -5   4  -7   20.69    1.00 
   5  -4   7   19.34    0.93 
   5  -4   7   19.44    1.04 
   5  -4   7   18.95    0.92 
   5  -4   7   19.52    1.08 
   4   3  -7   17.62    0.82 
   4   3  -7   18.04    0.97 
   4   3  -7   15.50    0.87 
  -4  -3   7   17.39    0.60 
   3   3  -7   11.26    0.69 
   3   3  -7   11.12    0.70 
   3   3  -7   10.10    0.53 
  -3  -3   7   10.38    0.50 
   2   3  -7   34.71    1.18 
   2   3  -7   34.72    1.01 
   2   3  -7   34.09    0.97 
   2   3  -7   34.75    1.23 
  -2  -3   7   33.30    1.02 
  -2  -3   7   35.87    0.92 
   1   3  -7    4.35    0.24 
   1   3  -7    3.85    0.39 
   1   3  -7    4.48    0.36 
   1   3  -7    4.54    0.44 
   1   3  -7    3.55    0.43 
  -1  -3   7    3.08    0.43 
  -1  -3   7    3.56    0.33 
  -1  -3   7    4.09    0.37 
   0   3  -7    0.60    0.21 
   0   3  -7    0.91    0.23 
   0   3  -7    0.73    0.21 
   0   3  -7    1.40    0.27 
   0  -3   7    0.68    0.21 
   0  -3   7    1.12    0.18 
   0  -3   7    0.83    0.21 
   0  -3   7    1.21    0.28 
   0  -3   7    0.83    0.22 
  -1   3  -7   51.24    1.44 
  -1   3  -7   51.30    1.40 
  -1   3  -7   51.36    1.56 
  -1   3  -7   51.38    1.43 
   1  -3   7   51.30    1.45 
   1  -3   7   49.55    1.48 
   1  -3   7   49.75    1.43 
   1  -3   7   50.21    1.38 
  -2   3  -7   39.93    1.15 
  -2   3  -7   41.19    1.24 
  -2   3  -7   39.89    1.37 
  -2   3  -7   39.68    1.26 
   2  -3   7   39.99    1.21 
   2  -3   7   39.46    1.31 
   2  -3   7   40.42    1.29 
   2  -3   7   41.62    1.26 
  -3   3  -7   90.93    2.59 
  -3   3  -7   92.19    2.23 
  -3   3  -7   93.21    2.35 
  -3   3  -7   92.78    2.38 
   3  -3   7   93.68    2.53 
   3  -3   7   96.00    2.39 
   3  -3   7   88.64    2.29 
   3  -3   7   94.74    2.49 
  -4   3  -7    0.11    0.16 
  -4   3  -7    0.35    0.25 
  -4   3  -7    0.24    0.25 
   4  -3   7    0.07    0.22 
   4  -3   7    0.30    0.23 
   4  -3   7   -0.34    0.29 
   4  -3   7    0.10    0.30 
  -5   3  -7    0.00    0.27 
   5  -3   7   -0.04    0.28 
   5  -3   7    0.03    0.26 
   5  -3   7    0.12    0.35 
   5   2  -7    7.44    0.73 
  -5  -2   7    6.74    0.39 
   4   2  -7   17.77    0.82 
   4   2  -7   16.13    0.65 
   4   2  -7   15.97    0.90 
  -4  -2   7   16.20    0.61 
   3   2  -7   14.12    0.65 
   3   2  -7   13.66    0.74 
   3   2  -7   14.82    0.79 
  -3  -2   7   14.72    0.58 
   2   2  -7   37.00    1.18 
   2   2  -7   38.14    1.28 
   2   2  -7   37.23    1.03 
   2   2  -7   36.47    1.10 
  -2  -2   7   38.32    0.98 
  -2  -2   7   36.16    1.07 
   1   2  -7   60.80    1.60 
   1   2  -7   60.17    1.56 
   1   2  -7   59.45    1.72 
   1   2  -7   59.95    1.52 
  -1  -2   7   58.77    1.55 
  -1  -2   7   58.79    1.57 
  -1  -2   7   60.33    1.47 
   0   2  -7  148.63    3.36 
   0   2  -7  150.18    3.53 
   0   2  -7  148.79    3.37 
   0   2  -7  149.49    3.42 
   0   2  -7  155.99    3.66 
   0  -2   7  146.89    3.38 
   0  -2   7  148.90    3.45 
   0  -2   7  148.90    3.40 
   0  -2   7  148.06    3.26 
  -1   2  -7    2.58    0.35 
  -1   2  -7    2.29    0.32 
  -1   2  -7    2.33    0.40 
  -1   2  -7    2.64    0.28 
   1  -2   7    2.08    0.31 
   1  -2   7    2.40    0.35 
   1  -2   7    1.91    0.31 
   1  -2   7    3.04    0.38 
  -2   2  -7    3.33    0.45 
  -2   2  -7    2.28    0.34 
  -2   2  -7    3.73    0.41 
  -2   2  -7    2.96    0.26 
   2  -2   7    3.08    0.43 
   2  -2   7    3.00    0.41 
   2  -2   7    2.76    0.32 
   2  -2   7    2.90    0.37 
   2  -2   7    2.70    0.36 
  -3   2  -7    7.46    0.56 
  -3   2  -7    8.21    0.50 
  -3   2  -7    8.58    0.37 
  -3   2  -7    8.76    0.61 
   3  -2   7    8.66    0.46 
   3  -2   7    7.93    0.60 
   3  -2   7    8.30    0.52 
   3  -2   7    7.39    0.60 
   3  -2   7    9.32    0.54 
  -4   2  -7   15.72    0.79 
  -4   2  -7   16.70    0.77 
   4  -2   7   17.45    0.78 
   4  -2   7   16.99    0.64 
   4  -2   7   16.96    0.77 
   4  -2   7   16.43    0.89 
   4  -2   7   14.55    0.88 
  -5   2  -7    7.94    0.64 
   5  -2   7    7.90    0.59 
   5  -2   7    9.57    0.82 
   5  -2   7    9.13    0.78 
   5   1  -7    0.79    0.30 
   5   1  -7   -0.10    0.29 
  -5  -1   7    0.23    0.18 
   4   1  -7    0.78    0.25 
   4   1  -7    0.08    0.26 
   4   1  -7    0.74    0.18 
   4   1  -7    0.73    0.18 
  -4  -1   7    0.89    0.21 
   3   1  -7    2.21    0.18 
   3   1  -7    1.78    0.25 
   3   1  -7    2.13    0.32 
   3   1  -7    2.35    0.39 
   3   1  -7    1.96    0.24 
  -3  -1   7    2.30    0.30 
   2   1  -7   10.36    0.61 
   2   1  -7   10.82    0.52 
   2   1  -7   11.00    0.48 
  -2  -1   7    9.93    0.45 
  -2  -1   7   11.05    0.51 
   1   1  -7  212.82    4.95 
   1   1  -7  210.13    4.58 
   1   1  -7  210.94    4.55 
   1   1  -7  211.69    4.97 
  -1  -1   7  207.49    4.41 
  -1  -1   7  213.55    4.63 
  -1  -1   7  210.13    4.58 
   0   1  -7   18.75    0.68 
   0   1  -7   20.16    0.72 
   0   1  -7   19.12    0.78 
   0   1  -7   19.22    0.71 
   0  -1   7   19.90    0.80 
   0  -1   7   19.50    0.72 
   0  -1   7   19.76    0.73 
   0  -1   7   20.09    0.71 
   0  -1   7   20.32    0.62 
  -1   1  -7    6.25    0.39 
  -1   1  -7    6.17    0.45 
  -1   1  -7    5.20    0.46 
  -1   1  -7    6.21    0.31 
   1  -1   7    5.73    0.49 
   1  -1   7    5.43    0.41 
   1  -1   7    5.69    0.46 
   1  -1   7    5.66    0.42 
   1  -1   7    5.56    0.43 
  -2   1  -7   10.37    0.60 
  -2   1  -7   11.37    0.50 
  -2   1  -7   10.55    0.35 
  -2   1  -7   10.52    0.57 
   2  -1   7   10.98    0.56 
   2  -1   7   10.66    0.55 
   2  -1   7   10.21    0.59 
   2  -1   7   11.43    0.56 
   2  -1   7   11.34    0.60 
  -3   1  -7   10.86    0.52 
  -3   1  -7    9.50    0.58 
  -3   1  -7    9.53    0.63 
   3  -1   7   11.49    0.68 
   3  -1   7   11.18    0.58 
   3  -1   7    9.63    0.62 
   3  -1   7   10.53    0.55 
   3  -1   7    9.82    0.56 
  -4   1  -7   73.76    2.05 
   4  -1   7   81.53    2.06 
   4  -1   7   72.29    2.27 
   4  -1   7   76.05    1.99 
   4  -1   7   77.96    2.01 
   4  -1   7   77.35    2.24 
  -5   1  -7    0.53    0.28 
   5  -1   7    0.33    0.24 
   5  -1   7    0.72    0.39 
   5  -1   7    0.95    0.42 
   5   0  -7   13.76    0.92 
   5   0  -7   15.55    0.93 
   5   0  -7   14.54    0.61 
  -5   0   7   15.90    0.65 
   4   0  -7   -0.25    0.10 
   4   0  -7    0.10    0.22 
   4   0  -7   -0.15    0.14 
   4   0  -7    0.19    0.26 
  -4   0   7   -0.28    0.16 
   3   0  -7   14.56    0.56 
   3   0  -7   13.93    0.70 
   3   0  -7   14.03    0.76 
   3   0  -7   14.35    0.58 
  -3   0   7   13.67    0.61 
  -3   0   7   14.75    0.54 
   2   0  -7    3.86    0.32 
   2   0  -7    3.58    0.36 
   2   0  -7    3.63    0.40 
   2   0  -7    3.95    0.34 
  -2   0   7    3.39    0.35 
  -2   0   7    4.00    0.34 
   1   0  -7    0.02    0.13 
   1   0  -7    0.00    0.15 
   1   0  -7    0.01    0.16 
   1   0  -7    0.00    0.21 
   1   0  -7    0.23    0.20 
  -1   0   7    0.03    0.14 
  -1   0   7    0.21    0.18 
  -1   0   7   -0.04    0.20 
  -1   0   7    0.24    0.21 
   0   0  -7  153.95    3.67 
   0   0  -7  155.22    3.43 
   0   0  -7  150.12    3.32 
   0   0  -7  154.23    3.76 
   0   0   7  156.14    3.34 
   0   0   7  149.95    3.43 
   0   0   7  148.45    3.44 
   0   0   7  145.05    3.70 
   0   0   7  160.31    3.44 
  -1   0  -7    4.14    0.42 
  -1   0  -7    4.18    0.42 
  -1   0  -7    4.33    0.28 
  -1   0  -7    3.80    0.21 
   1   0   7    3.80    0.39 
   1   0   7    4.08    0.44 
   1   0   7    4.69    0.43 
   1   0   7    3.91    0.34 
   1   0   7    3.90    0.38 
  -2   0  -7   31.51    0.89 
  -2   0  -7   33.54    1.13 
  -2   0  -7   33.72    1.07 
   2   0   7   32.86    1.02 
   2   0   7   32.48    1.12 
   2   0   7   32.22    1.10 
   2   0   7   31.41    1.08 
   2   0   7   33.83    1.05 
  -3   0  -7   -0.32    0.20 
  -3   0  -7    0.27    0.25 
   3   0   7    0.23    0.20 
   3   0   7    0.24    0.24 
   3   0   7    0.22    0.17 
   3   0   7    0.54    0.27 
   3   0   7    0.13    0.19 
  -4   0  -7   11.50    0.68 
   4   0   7   10.98    0.80 
   4   0   7   11.51    0.78 
   4   0   7   11.10    0.63 
   4   0   7   13.03    0.65 
  -5   0  -7    3.60    0.52 
   5   0   7    3.21    0.57 
   5   0   7    3.26    0.45 
   5   0   7    2.37    0.50 
   5  -1  -7   21.91    0.80 
   5  -1  -7   23.52    1.15 
   5  -1  -7   21.77    1.13 
  -5   1   7   21.23    0.84 
   4  -1  -7    0.87    0.31 
   4  -1  -7    0.66    0.31 
   4  -1  -7    0.40    0.19 
  -4   1   7    0.53    0.23 
   3  -1  -7    5.75    0.50 
   3  -1  -7    5.85    0.52 
   3  -1  -7    5.47    0.39 
   3  -1  -7    5.31    0.40 
  -3   1   7    5.73    0.43 
  -3   1   7    5.33    0.38 
   2  -1  -7    7.70    0.46 
   2  -1  -7    8.47    0.29 
   2  -1  -7    8.02    0.52 
   2  -1  -7    6.79    0.50 
   2  -1  -7    9.20    0.48 
  -2   1   7    7.69    0.45 
  -2   1   7    7.66    0.56 
  -2   1   7    8.02    0.49 
  -2   1   7    7.93    0.31 
   1  -1  -7   17.41    0.76 
   1  -1  -7   16.81    0.68 
   1  -1  -7   16.03    0.66 
   1  -1  -7   16.10    0.72 
  -1   1   7   16.75    0.69 
  -1   1   7   17.34    0.48 
  -1   1   7   16.40    0.67 
  -1   1   7   15.82    0.55 
   0  -1  -7   87.60    1.92 
   0  -1  -7   83.07    2.02 
   0  -1  -7   82.90    2.08 
   0  -1  -7   83.51    2.18 
   0  -1  -7   82.13    2.31 
   0   1   7   85.92    2.04 
   0   1   7   84.19    2.27 
   0   1   7   82.59    2.08 
   0   1   7   87.20    2.06 
  -1  -1  -7    1.60    0.19 
  -1  -1  -7    2.03    0.32 
  -1  -1  -7    1.77    0.15 
  -1  -1  -7    1.96    0.34 
  -1  -1  -7    1.64    0.27 
   1   1   7    2.17    0.31 
   1   1   7    2.20    0.34 
   1   1   7    2.61    0.33 
   1   1   7    2.04    0.33 
  -2  -1  -7    7.52    0.30 
  -2  -1  -7    6.71    0.48 
  -2  -1  -7    6.50    0.49 
   2   1   7    6.75    0.45 
   2   1   7    7.33    0.45 
   2   1   7    6.63    0.50 
   2   1   7    7.71    0.53 
  -3  -1  -7    4.87    0.47 
   3   1   7    5.51    0.51 
   3   1   7    5.30    0.41 
   3   1   7    4.40    0.54 
   3   1   7    5.10    0.44 
  -4  -1  -7    6.18    0.56 
   4   1   7    4.21    0.51 
   4   1   7    3.97    0.57 
   4   1   7    4.96    0.46 
   4   1   7    5.94    0.69 
   5  -2  -7    7.12    0.50 
   5  -2  -7    5.97    0.69 
  -5   2   7    6.50    0.53 
   4  -2  -7   12.01    0.78 
   4  -2  -7   10.97    0.58 
   4  -2  -7   12.13    0.47 
   4  -2  -7   11.13    0.76 
   4  -2  -7   11.52    0.58 
  -4   2   7   11.80    0.63 
   3  -2  -7   47.68    1.33 
   3  -2  -7   46.83    1.58 
   3  -2  -7   46.85    1.51 
   3  -2  -7   46.69    1.34 
  -3   2   7   44.97    1.36 
  -3   2   7   47.02    1.29 
  -3   2   7   45.60    1.50 
   2  -2  -7    0.63    0.22 
   2  -2  -7    1.34    0.27 
   2  -2  -7    0.84    0.22 
   2  -2  -7    0.89    0.26 
  -2   2   7    0.97    0.27 
  -2   2   7    0.85    0.14 
  -2   2   7    0.99    0.23 
  -2   2   7    1.03    0.12 
  -2   2   7    1.13    0.31 
   1  -2  -7   15.53    0.76 
   1  -2  -7   14.00    0.63 
   1  -2  -7   13.12    0.62 
   1  -2  -7   12.72    0.63 
  -1   2   7   13.51    0.70 
  -1   2   7   13.88    0.52 
  -1   2   7   13.66    0.62 
  -1   2   7   13.53    0.64 
   0  -2  -7    0.05    0.17 
   0  -2  -7    0.18    0.18 
   0  -2  -7    0.48    0.25 
   0  -2  -7    0.36    0.20 
   0  -2  -7    0.09    0.11 
   0   2   7    0.13    0.19 
   0   2   7    0.40    0.19 
   0   2   7    0.07    0.23 
   0   2   7    0.00    0.15 
  -1  -2  -7   63.55    1.70 
  -1  -2  -7   65.17    1.97 
  -1  -2  -7   60.16    1.69 
  -1  -2  -7   63.53    1.42 
   1   2   7   63.45    1.66 
   1   2   7   63.30    1.68 
   1   2   7   64.65    1.87 
   1   2   7   63.41    1.72 
  -2  -2  -7    6.85    0.50 
  -2  -2  -7    5.03    0.43 
   2   2   7    5.03    0.41 
   2   2   7    4.67    0.41 
   2   2   7    5.41    0.51 
   2   2   7    5.12    0.50 
  -3  -2  -7    0.60    0.27 
   3   2   7    0.88    0.24 
   3   2   7    0.93    0.23 
   3   2   7    1.46    0.37 
   3   2   7    0.90    0.30 
  -4  -2  -7    4.80    0.56 
   4   2   7    4.57    0.46 
   4   2   7    5.10    0.61 
   4   2   7    4.28    0.55 
   5  -3  -7   13.64    0.96 
   5  -3  -7   13.63    0.70 
  -5   3   7   13.10    0.75 
   4  -3  -7   31.73    1.36 
   4  -3  -7   31.98    1.29 
   4  -3  -7   34.66    1.00 
   4  -3  -7   34.06    1.11 
   4  -3  -7   33.66    1.12 
  -4   3   7   32.70    1.23 
  -4   3   7   32.15    1.15 
  -4   3   7   32.30    1.05 
   3  -3  -7    0.83    0.26 
   3  -3  -7    0.48    0.26 
   3  -3  -7    0.60    0.25 
   3  -3  -7    0.80    0.27 
  -3   3   7    0.15    0.20 
  -3   3   7    0.62    0.28 
  -3   3   7    0.58    0.23 
   2  -3  -7    4.30    0.52 
   2  -3  -7    4.59    0.43 
   2  -3  -7    4.76    0.45 
   2  -3  -7    5.14    0.44 
  -2   3   7    4.98    0.44 
  -2   3   7    5.50    0.26 
  -2   3   7    5.32    0.47 
  -2   3   7    4.63    0.55 
   1  -3  -7   25.43    0.91 
   1  -3  -7   24.36    1.05 
   1  -3  -7   25.01    0.94 
   1  -3  -7   25.43    0.87 
  -1   3   7   23.55    1.01 
  -1   3   7   26.01    0.78 
  -1   3   7   27.05    0.93 
  -1   3   7   26.30    0.95 
   0  -3  -7    7.37    0.49 
   0  -3  -7    6.60    0.41 
   0  -3  -7    6.69    0.25 
   0  -3  -7    6.85    0.56 
   0  -3  -7    7.17    0.53 
   0   3   7    5.80    0.46 
   0   3   7    6.18    0.44 
   0   3   7    7.04    0.50 
   0   3   7    7.20    0.59 
  -1  -3  -7    4.69    0.36 
  -1  -3  -7    4.73    0.46 
  -1  -3  -7    4.50    0.42 
  -1  -3  -7    4.02    0.52 
   1   3   7    5.21    0.43 
   1   3   7    4.68    0.43 
   1   3   7    5.17    0.54 
   1   3   7    4.80    0.45 
  -2  -3  -7    2.14    0.34 
   2   3   7    3.84    0.42 
   2   3   7    3.02    0.48 
   2   3   7    3.06    0.50 
   2   3   7    3.64    0.40 
  -3  -3  -7    0.78    0.30 
   3   3   7    0.51    0.24 
   3   3   7    0.31    0.34 
   3   3   7    0.68    0.35 
  -4  -3  -7    0.94    0.35 
   4   3   7    0.62    0.40 
   4   3   7    0.61    0.27 
   4   3   7    0.13    0.34 
   5  -4  -7    7.62    0.61 
   5  -4  -7    8.01    0.77 
  -5   4   7    7.29    0.64 
   4  -4  -7   11.21    0.68 
   4  -4  -7   11.16    0.86 
   4  -4  -7   10.96    0.67 
   4  -4  -7    9.87    0.74 
   4  -4  -7   11.37    0.57 
  -4   4   7   10.22    0.73 
  -4   4   7   10.87    0.70 
  -4   4   7   11.17    0.66 
   3  -4  -7   48.18    1.53 
   3  -4  -7   50.75    1.53 
   3  -4  -7   48.03    1.75 
   3  -4  -7   49.39    1.49 
  -3   4   7   49.56    1.46 
  -3   4   7   49.10    1.64 
  -3   4   7   48.57    1.52 
   2  -4  -7    3.85    0.47 
   2  -4  -7    4.27    0.40 
   2  -4  -7    4.22    0.57 
   2  -4  -7    3.61    0.45 
  -2   4   7    4.34    0.57 
  -2   4   7    4.76    0.48 
  -2   4   7    4.13    0.27 
  -2   4   7    4.29    0.45 
   1  -4  -7    4.05    0.50 
   1  -4  -7    3.14    0.48 
   1  -4  -7    4.20    0.36 
   1  -4  -7    3.92    0.45 
  -1   4   7    4.58    0.37 
  -1   4   7    4.27    0.55 
  -1   4   7    3.20    0.42 
  -1   4   7    4.39    0.45 
   0  -4  -7    1.42    0.32 
   0  -4  -7    0.96    0.30 
   0  -4  -7    1.14    0.35 
   0  -4  -7    1.36    0.23 
   0   4   7    1.13    0.36 
   0   4   7    0.68    0.24 
   0   4   7    1.27    0.29 
   0   4   7    1.12    0.27 
  -1  -4  -7   27.64    1.23 
  -1  -4  -7   27.65    1.00 
  -1  -4  -7   28.22    0.86 
  -1  -4  -7   29.34    1.09 
   1   4   7   28.30    1.01 
   1   4   7   28.37    0.84 
   1   4   7   28.87    1.03 
   1   4   7   27.66    1.07 
   1   4   7   28.33    1.21 
  -2  -4  -7    0.90    0.31 
   2   4   7    0.52    0.35 
   2   4   7    0.99    0.35 
   2   4   7    1.21    0.27 
   2   4   7    1.18    0.29 
  -3  -4  -7   -0.10    0.26 
   3   4   7   -0.31    0.20 
   3   4   7    0.39    0.36 
   3   4   7    0.14    0.33 
   5  -5  -7    1.87    0.52 
   5  -5  -7    2.28    0.45 
  -5   5   7    3.00    0.48 
  -5   5   7    2.34    0.45 
   4  -5  -7   17.28    0.89 
   4  -5  -7   17.13    0.79 
   4  -5  -7   17.46    0.92 
   4  -5  -7   16.22    1.05 
   4  -5  -7   17.69    0.90 
  -4   5   7   20.50    0.93 
  -4   5   7   17.99    0.92 
  -4   5   7   17.99    0.95 
   3  -5  -7    1.34    0.34 
   3  -5  -7    1.28    0.31 
   3  -5  -7    0.20    0.37 
   3  -5  -7    0.88    0.33 
  -3   5   7    1.36    0.38 
  -3   5   7    0.71    0.29 
  -3   5   7    1.18    0.40 
   2  -5  -7    6.24    0.46 
   2  -5  -7    6.82    0.59 
   2  -5  -7    7.34    0.63 
   2  -5  -7    5.59    0.76 
  -2   5   7    6.10    0.35 
  -2   5   7    5.94    0.56 
  -2   5   7    6.24    0.57 
  -2   5   7    6.10    0.72 
   1  -5  -7  106.49    2.75 
   1  -5  -7  102.87    3.06 
   1  -5  -7  104.20    2.63 
   1  -5  -7  106.68    2.53 
  -1   5   7  111.30    2.69 
  -1   5   7  106.65    2.56 
  -1   5   7   98.27    2.94 
  -1   5   7  102.47    2.62 
  -1   5   7  104.18    2.70 
   0  -5  -7    0.81    0.29 
   0  -5  -7    0.92    0.38 
   0  -5  -7    1.49    0.34 
   0   5   7    1.33    0.32 
   0   5   7    1.78    0.35 
   0   5   7    0.17    0.32 
   0   5   7    1.29    0.27 
   0   5   7    1.54    0.33 
  -1  -5  -7    3.69    0.55 
  -1  -5  -7    3.88    0.47 
   1   5   7    3.18    0.48 
   1   5   7    2.64    0.51 
   1   5   7    3.41    0.46 
   1   5   7    3.46    0.50 
   1   5   7    3.75    0.36 
  -2  -5  -7    2.38    0.43 
   2   5   7    2.33    0.39 
   2   5   7    2.92    0.50 
   2   5   7    1.80    0.44 
   4  -6  -7   -0.15    0.39 
   4  -6  -7   -0.30    0.30 
   4  -6  -7   -0.01    0.31 
   4  -6  -7   -0.27    0.29 
  -4   6   7   -0.23    0.35 
  -4   6   7   -0.21    0.30 
  -4   6   7   -0.24    0.35 
   3  -6  -7    0.27    0.37 
   3  -6  -7    0.57    0.31 
   3  -6  -7   -0.19    0.17 
   3  -6  -7    0.24    0.30 
  -3   6   7    0.48    0.40 
  -3   6   7    0.83    0.34 
  -3   6   7   -0.22    0.29 
   2  -6  -7    0.65    0.34 
   2  -6  -7    0.23    0.40 
   2  -6  -7    0.42    0.33 
  -2   6   7    0.28    0.29 
  -2   6   7    0.40    0.39 
  -2   6   7    0.73    0.32 
  -2   6   7    0.71    0.32 
   1  -6  -7    9.21    0.72 
   1  -6  -7    7.96    0.72 
   1  -6  -7    8.16    0.75 
  -1   6   7    9.49    0.79 
  -1   6   7    9.62    0.69 
  -1   6   7    7.65    0.67 
  -1   6   7    9.77    0.67 
   0  -6  -7    3.82    0.59 
   0  -6  -7    4.44    0.57 
   0  -6  -7    3.49    0.63 
   0   6   7    5.08    0.54 
   0   6   7    3.59    0.46 
   0   6   7    3.37    0.51 
   0   6   7    5.72    0.70 
  -1  -6  -7   -0.05    0.29 
   1   6   7    0.35    0.26 
   1   6   7    0.15    0.33 
   1   6   7    0.03    0.32 
   3  -7  -7    3.72    0.59 
   3  -7  -7    4.94    0.87 
   3  -7  -7    3.72    0.56 
  -3   7   7    3.88    0.64 
  -3   7   7    4.47    0.64 
   2  -7  -7    7.43    0.83 
   2  -7  -7    8.19    0.78 
   2  -7  -7    8.69    0.82 
  -2   7   7    8.06    0.71 
  -2   7   7    9.00    0.75 
  -2   7   7    8.65    0.93 
  -2   7   7    7.79    0.74 
   1  -7  -7    6.24    0.72 
   1  -7  -7    7.77    0.77 
   1  -7  -7    6.01    0.78 
  -1   7   7    7.96    0.72 
  -1   7   7    6.89    0.67 
  -1   7   7    7.71    0.84 
   0  -7  -7   -0.07    0.34 
   0  -7  -7   -0.32    0.24 
   0  -7  -7   -0.10    0.38 
   0   7   7   -0.14    0.25 
   0   7   7    0.69    0.46 
   0   7   7   -0.25    0.29 
   0   7   7   -0.32    0.23 
   1   7  -8    0.35    0.38 
   1   7  -8    0.36    0.33 
  -1  -7   8   -0.50    0.25 
   0   7  -8    0.70    0.38 
   0   7  -8    1.45    0.43 
   0   7  -8    1.74    0.39 
   0  -7   8    2.13    0.42 
  -1   7  -8    5.83    0.66 
  -1   7  -8    5.04    0.58 
  -1   7  -8    5.60    0.65 
  -1   7  -8    6.13    0.60 
   1  -7   8    5.21    0.66 
   1  -7   8    3.99    0.61 
   1  -7   8    5.55    0.58 
  -2   7  -8    0.62    0.33 
  -2   7  -8    1.11    0.43 
  -2   7  -8    1.01    0.39 
  -2   7  -8    0.66    0.36 
   2  -7   8    1.40    0.47 
   2  -7   8    1.74    0.46 
   2  -7   8    1.46    0.39 
   2  -7   8    0.76    0.44 
  -3   7  -8   37.32    1.51 
  -3   7  -8   38.43    1.55 
  -3   7  -8   37.83    1.49 
  -3   7  -8   39.47    1.48 
   3  -7   8   39.81    1.53 
   3  -7   8   40.06    1.47 
   3  -7   8   39.66    1.61 
   3  -7   8   38.45    1.65 
   2   6  -8   10.09    0.83 
   2   6  -8   10.19    0.74 
   2   6  -8    9.96    0.78 
  -2  -6   8   10.56    0.66 
   1   6  -8   17.35    0.97 
   1   6  -8   18.27    0.94 
   1   6  -8   17.64    0.90 
  -1  -6   8   16.10    0.83 
   0   6  -8   12.40    0.77 
   0   6  -8   12.30    0.80 
   0   6  -8   12.56    0.70 
   0   6  -8   12.89    0.77 
   0  -6   8   13.29    0.77 
   0  -6   8   13.59    0.69 
   0  -6   8   12.89    0.77 
  -1   6  -8   17.19    0.92 
  -1   6  -8   18.94    0.94 
  -1   6  -8   18.30    0.91 
   1  -6   8   18.57    0.91 
   1  -6   8   17.52    0.95 
   1  -6   8   17.14    0.84 
   1  -6   8   17.17    0.95 
  -2   6  -8    2.75    0.46 
  -2   6  -8    2.84    0.45 
  -2   6  -8    2.63    0.46 
  -2   6  -8    3.12    0.50 
   2  -6   8    2.57    0.52 
   2  -6   8    1.54    0.41 
   2  -6   8    2.44    0.43 
   2  -6   8    2.58    0.46 
  -3   6  -8    0.76    0.36 
  -3   6  -8    0.75    0.39 
  -3   6  -8    0.91    0.36 
  -3   6  -8    0.86    0.35 
   3  -6   8    1.27    0.40 
   3  -6   8    0.01    0.29 
   3  -6   8    0.56    0.35 
   3  -6   8    1.47    0.47 
  -4   6  -8    0.62    0.36 
  -4   6  -8    0.44    0.34 
  -4   6  -8    0.78    0.38 
   4  -6   8    1.24    0.47 
   4  -6   8    0.71    0.35 
   4  -6   8    0.54    0.43 
   4  -6   8    0.63    0.30 
   4  -6   8    1.03    0.37 
   3   5  -8    4.21    0.59 
   3   5  -8    4.59    0.57 
   3   5  -8    4.81    0.57 
  -3  -5   8    3.77    0.45 
   2   5  -8    5.04    0.56 
   2   5  -8    4.29    0.54 
   2   5  -8    3.79    0.54 
  -2  -5   8    3.70    0.47 
   1   5  -8    2.07    0.37 
   1   5  -8    2.66    0.43 
   1   5  -8    2.40    0.33 
   1   5  -8    2.98    0.46 
  -1  -5   8    2.74    0.43 
   0   5  -8    0.70    0.29 
   0   5  -8    0.52    0.23 
   0   5  -8    0.42    0.26 
   0   5  -8    0.39    0.26 
   0  -5   8    0.29    0.24 
   0  -5   8   -0.14    0.28 
   0  -5   8    0.75    0.28 
   0  -5   8    0.41    0.26 
  -1   5  -8   35.22    1.23 
  -1   5  -8   35.77    1.20 
  -1   5  -8   37.48    1.33 
  -1   5  -8   35.43    1.28 
   1  -5   8   35.05    1.33 
   1  -5   8   35.03    1.17 
   1  -5   8   32.79    1.22 
   1  -5   8   35.51    1.25 
  -2   5  -8   14.22    0.79 
  -2   5  -8   13.51    0.74 
  -2   5  -8   14.14    0.84 
  -2   5  -8   14.72    0.78 
   2  -5   8   14.05    0.88 
   2  -5   8   12.82    0.76 
   2  -5   8   13.32    0.74 
   2  -5   8   15.22    0.88 
  -3   5  -8    3.06    0.50 
  -3   5  -8    3.62    0.57 
  -3   5  -8    3.60    0.56 
  -3   5  -8    3.11    0.49 
   3  -5   8    4.20    0.52 
   3  -5   8    3.02    0.52 
   3  -5   8    3.27    0.52 
   3  -5   8    3.36    0.49 
  -4   5  -8   10.41    0.79 
  -4   5  -8    8.73    0.74 
  -4   5  -8   10.22    0.68 
  -4   5  -8   11.13    0.84 
   4  -5   8   11.67    0.78 
   4  -5   8   10.61    0.73 
   4  -5   8   10.34    0.79 
   4  -5   8   10.10    0.85 
   4   4  -8    9.42    0.79 
   4   4  -8    9.20    0.77 
  -4  -4   8    9.39    0.51 
   3   4  -8    0.17    0.33 
   3   4  -8    0.56    0.30 
   3   4  -8   -0.01    0.26 
  -3  -4   8    0.03    0.19 
   2   4  -8   56.26    1.78 
   2   4  -8   57.93    1.75 
   2   4  -8   56.92    1.80 
  -2  -4   8   56.60    1.56 
   1   4  -8   16.46    0.80 
   1   4  -8   17.91    0.71 
   1   4  -8   16.30    0.81 
   1   4  -8   16.86    0.81 
  -1  -4   8   17.99    0.76 
  -1  -4   8   18.06    0.69 
   0   4  -8    1.52    0.32 
   0   4  -8    1.51    0.34 
   0   4  -8    1.61    0.30 
   0   4  -8    1.21    0.30 
   0  -4   8    1.44    0.28 
   0  -4   8    1.31    0.32 
   0  -4   8    1.60    0.28 
   0  -4   8    2.10    0.33 
  -1   4  -8    3.28    0.44 
  -1   4  -8    2.84    0.43 
  -1   4  -8    3.68    0.43 
  -1   4  -8    3.20    0.38 
   1  -4   8    2.90    0.41 
   1  -4   8    3.22    0.45 
   1  -4   8    3.33    0.43 
   1  -4   8    2.26    0.36 
  -2   4  -8   24.06    0.97 
  -2   4  -8   24.73    1.09 
  -2   4  -8   24.04    0.98 
  -2   4  -8   24.17    0.90 
   2  -4   8   24.95    1.04 
   2  -4   8   25.87    1.03 
   2  -4   8   23.42    0.94 
   2  -4   8   25.17    0.99 
  -3   4  -8   13.59    0.77 
  -3   4  -8   14.39    0.71 
  -3   4  -8   13.42    0.76 
  -3   4  -8   14.62    0.85 
   3  -4   8   12.94    0.82 
   3  -4   8   14.26    0.76 
   3  -4   8   12.96    0.83 
   3  -4   8   14.72    0.79 
  -4   4  -8    0.02    0.27 
  -4   4  -8    0.01    0.33 
  -4   4  -8    0.16    0.30 
  -4   4  -8   -0.06    0.17 
   4  -4   8    0.47    0.30 
   4  -4   8   -0.18    0.26 
   4  -4   8    0.23    0.35 
   4  -4   8    0.76    0.39 
  -5   4  -8    2.43    0.46 
  -5   4  -8    2.29    0.47 
   5  -4   8    2.93    0.57 
   5  -4   8    1.67    0.52 
   5  -4   8    2.29    0.47 
   5  -4   8    2.08    0.43 
   4   3  -8    4.82    0.64 
   4   3  -8    3.73    0.42 
   4   3  -8    2.85    0.48 
  -4  -3   8    3.73    0.39 
   3   3  -8   45.55    1.58 
   3   3  -8   46.04    1.36 
   3   3  -8   40.40    1.45 
  -3  -3   8   44.42    1.26 
   2   3  -8   21.76    0.74 
   2   3  -8   21.15    0.95 
   2   3  -8   23.29    0.76 
   2   3  -8   21.15    0.90 
  -2  -3   8   21.00    0.80 
   1   3  -8    9.19    0.49 
   1   3  -8    7.54    0.52 
   1   3  -8    8.15    0.56 
   1   3  -8    8.30    0.36 
   1   3  -8    7.13    0.53 
  -1  -3   8    7.32    0.46 
  -1  -3   8    6.71    0.47 
  -1  -3   8    8.09    0.55 
   0   3  -8   96.02    2.38 
   0   3  -8   91.54    2.37 
   0   3  -8   95.82    2.56 
   0   3  -8   94.28    2.33 
   0  -3   8   96.32    2.25 
   0  -3   8   96.70    2.32 
   0  -3   8   93.09    2.42 
   0  -3   8   93.46    2.35 
  -1   3  -8    1.28    0.24 
  -1   3  -8    1.27    0.27 
  -1   3  -8    1.42    0.28 
  -1   3  -8    1.35    0.29 
   1  -3   8    1.30    0.31 
   1  -3   8    0.91    0.27 
   1  -3   8    1.58    0.30 
   1  -3   8    1.03    0.26 
  -2   3  -8    0.39    0.25 
  -2   3  -8    0.40    0.19 
  -2   3  -8    0.22    0.21 
  -2   3  -8    0.45    0.24 
   2  -3   8    1.13    0.30 
   2  -3   8    0.37    0.23 
   2  -3   8    0.00    0.21 
   2  -3   8    0.65    0.30 
  -3   3  -8    1.79    0.27 
  -3   3  -8    1.88    0.35 
  -3   3  -8    1.98    0.35 
  -3   3  -8    1.63    0.36 
   3  -3   8    1.89    0.36 
   3  -3   8    1.67    0.35 
   3  -3   8    1.75    0.38 
   3  -3   8    1.49    0.33 
  -4   3  -8   15.45    0.86 
  -4   3  -8   15.51    0.80 
  -4   3  -8   16.59    1.01 
   4  -3   8   14.69    0.96 
   4  -3   8   17.08    0.84 
   4  -3   8   17.98    0.85 
   4  -3   8   17.30    0.96 
  -5   3  -8    0.23    0.29 
   5  -3   8   -0.30    0.35 
   5  -3   8    0.19    0.27 
   5  -3   8   -0.24    0.34 
   4   2  -8    2.04    0.45 
   4   2  -8    1.41    0.33 
   4   2  -8    1.08    0.36 
  -4  -2   8    0.95    0.24 
   3   2  -8   26.94    0.97 
   3   2  -8   26.23    1.11 
   3   2  -8   26.18    1.06 
  -3  -2   8   25.65    0.88 
   2   2  -8    4.95    0.51 
   2   2  -8    5.17    0.48 
   2   2  -8    5.48    0.39 
   2   2  -8    4.91    0.37 
  -2  -2   8    5.18    0.37 
  -2  -2   8    4.96    0.41 
   1   2  -8    2.09    0.34 
   1   2  -8    2.82    0.28 
   1   2  -8    2.66    0.41 
   1   2  -8    2.18    0.32 
  -1  -2   8    2.19    0.32 
  -1  -2   8    2.62    0.38 
  -1  -2   8    2.71    0.35 
   0   2  -8   33.81    1.06 
   0   2  -8   34.31    1.04 
   0   2  -8   31.96    1.04 
   0   2  -8   33.13    1.01 
   0   2  -8   33.63    1.18 
   0  -2   8   31.35    1.08 
   0  -2   8   34.85    1.09 
   0  -2   8   33.51    0.95 
   0  -2   8   32.78    1.03 
  -1   2  -8   40.60    1.36 
  -1   2  -8   41.24    1.25 
  -1   2  -8   40.27    1.13 
   1  -2   8   39.17    1.20 
   1  -2   8   40.14    1.29 
   1  -2   8   41.02    1.20 
   1  -2   8   41.49    1.26 
  -2   2  -8    4.64    0.54 
  -2   2  -8    5.02    0.49 
  -2   2  -8    5.37    0.46 
  -2   2  -8    4.97    0.33 
   2  -2   8    4.25    0.43 
   2  -2   8    4.55    0.50 
   2  -2   8    5.17    0.42 
   2  -2   8    5.28    0.47 
   2  -2   8    4.35    0.44 
  -3   2  -8   38.74    1.25 
  -3   2  -8   35.63    1.14 
  -3   2  -8   34.11    1.32 
  -3   2  -8   35.68    0.92 
   3  -2   8   36.77    1.15 
   3  -2   8   33.35    1.26 
   3  -2   8   33.62    1.18 
   3  -2   8   34.30    1.17 
   3  -2   8   37.54    1.32 
  -4   2  -8   40.31    1.30 
  -4   2  -8   39.43    1.39 
   4  -2   8   39.61    1.49 
   4  -2   8   41.91    1.35 
   4  -2   8   42.15    1.24 
   4  -2   8   39.92    1.34 
   4  -2   8   40.87    1.55 
  -5   2  -8    7.29    0.68 
   5  -2   8    8.49    0.85 
   5  -2   8    8.43    0.64 
   5  -2   8    6.15    0.74 
   5   1  -8    0.61    0.38 
   5   1  -8    0.67    0.31 
  -5  -1   8    0.38    0.22 
   4   1  -8    0.18    0.21 
   4   1  -8    0.10    0.25 
  -4  -1   8    0.22    0.20 
   3   1  -8    7.72    0.43 
   3   1  -8    7.33    0.60 
   3   1  -8    9.21    0.55 
  -3  -1   8    8.13    0.49 
   2   1  -8  156.37    3.56 
   2   1  -8  151.74    3.77 
   2   1  -8  151.39    3.41 
   2   1  -8  145.16    3.79 
  -2  -1   8  159.48    3.32 
  -2  -1   8  151.16    3.46 
   1   1  -8    2.12    0.33 
   1   1  -8    2.87    0.40 
   1   1  -8    2.65    0.32 
   1   1  -8    2.49    0.35 
  -1  -1   8    2.19    0.35 
  -1  -1   8    2.30    0.35 
  -1  -1   8    2.61    0.34 
   0   1  -8   26.98    1.03 
   0   1  -8   28.12    0.94 
   0   1  -8   27.67    0.94 
   0   1  -8   27.54    0.89 
   0  -1   8   29.24    1.05 
   0  -1   8   27.37    0.91 
   0  -1   8   28.24    0.94 
   0  -1   8   28.03    0.95 
   0  -1   8   27.42    0.80 
  -1   1  -8   13.64    0.72 
  -1   1  -8   12.71    0.55 
  -1   1  -8   14.43    0.67 
  -1   1  -8   12.37    0.47 
   1  -1   8   12.34    0.65 
   1  -1   8   13.07    0.58 
   1  -1   8   12.95    0.63 
   1  -1   8   13.03    0.64 
   1  -1   8   13.11    0.67 
  -2   1  -8   32.06    0.76 
  -2   1  -8   32.14    1.08 
  -2   1  -8   28.78    0.93 
  -2   1  -8   27.63    1.11 
   2  -1   8   29.53    1.05 
   2  -1   8   30.73    1.06 
   2  -1   8   29.31    1.03 
   2  -1   8   29.60    1.01 
   2  -1   8   30.87    1.11 
  -3   1  -8   81.93    2.37 
  -3   1  -8   82.18    2.18 
  -3   1  -8   81.66    2.02 
   3  -1   8   83.46    2.16 
   3  -1   8   82.27    2.11 
   3  -1   8   83.44    2.33 
   3  -1   8   76.87    2.27 
   3  -1   8   83.67    2.21 
  -4   1  -8   15.89    0.85 
   4  -1   8   17.44    0.76 
   4  -1   8   15.79    0.77 
   4  -1   8   15.64    0.95 
   4  -1   8   15.56    0.93 
   4  -1   8   15.02    0.74 
  -5   1  -8    7.89    0.70 
   5  -1   8    8.82    0.82 
   5  -1   8    6.47    0.59 
   5  -1   8    7.21    0.80 
   5   0  -8    0.27    0.29 
   5   0  -8   -0.14    0.16 
   5   0  -8   -0.17    0.31 
  -5   0   8   -0.06    0.20 
   4   0  -8    9.84    0.69 
   4   0  -8    8.94    0.50 
   4   0  -8    8.21    0.71 
  -4   0   8    8.94    0.54 
   3   0  -8   11.35    0.67 
   3   0  -8   11.65    0.54 
   3   0  -8   12.24    0.75 
   3   0  -8   12.05    0.55 
  -3   0   8   10.99    0.58 
  -3   0   8   11.72    0.52 
   2   0  -8   17.08    0.76 
   2   0  -8   16.74    0.80 
   2   0  -8   16.75    0.68 
   2   0  -8   16.93    0.67 
  -2   0   8   17.48    0.58 
  -2   0   8   17.48    0.72 
  -2   0   8   17.55    0.67 
   1   0  -8    3.06    0.36 
   1   0  -8    2.74    0.36 
   1   0  -8    3.24    0.33 
   1   0  -8    2.74    0.40 
  -1   0   8    2.56    0.36 
  -1   0   8    3.08    0.36 
  -1   0   8    2.27    0.33 
  -1   0   8    2.69    0.40 
   0   0  -8    1.84    0.29 
   0   0  -8    2.29    0.27 
   0   0  -8    1.81    0.32 
   0   0  -8    1.85    0.30 
   0   0   8    2.12    0.33 
   0   0   8    2.26    0.34 
   0   0   8    1.69    0.25 
   0   0   8    1.43    0.27 
   0   0   8    1.82    0.32 
  -1   0  -8    0.14    0.21 
  -1   0  -8    0.21    0.14 
  -1   0  -8    0.04    0.09 
  -1   0  -8    0.12    0.23 
   1   0   8    0.27    0.22 
   1   0   8    0.40    0.19 
   1   0   8   -0.02    0.20 
   1   0   8    0.32    0.20 
   1   0   8    0.11    0.21 
  -2   0  -8    0.45    0.23 
  -2   0  -8   -0.07    0.21 
  -2   0  -8    0.21    0.15 
   2   0   8    0.11    0.18 
   2   0   8    0.11    0.23 
   2   0   8    0.08    0.21 
   2   0   8    0.06    0.18 
   2   0   8    0.62    0.25 
  -3   0  -8   -0.20    0.14 
  -3   0  -8    0.05    0.22 
  -3   0  -8   -0.04    0.25 
   3   0   8    0.32    0.23 
   3   0   8    0.03    0.24 
   3   0   8    0.45    0.29 
   3   0   8    0.00    0.21 
   3   0   8   -0.11    0.17 
  -4   0  -8   -0.16    0.25 
   4   0   8   -0.04    0.23 
   4   0   8    0.53    0.34 
   4   0   8    0.18    0.24 
   4   0   8    0.23    0.34 
   5  -1  -8    0.13    0.19 
   5  -1  -8   -0.03    0.31 
   5  -1  -8   -0.07    0.30 
  -5   1   8   -0.27    0.21 
   4  -1  -8   14.85    0.87 
   4  -1  -8   16.23    0.92 
   4  -1  -8   15.69    0.69 
  -4   1   8   15.81    0.73 
   3  -1  -8    1.19    0.30 
   3  -1  -8    1.97    0.30 
   3  -1  -8    1.83    0.29 
   3  -1  -8    1.27    0.31 
  -3   1   8    1.42    0.29 
  -3   1   8    1.60    0.27 
   2  -1  -8   21.04    0.81 
   2  -1  -8   21.20    0.91 
   2  -1  -8   22.88    0.83 
   2  -1  -8   22.83    0.95 
  -2   1   8   23.26    0.99 
  -2   1   8   24.09    0.88 
  -2   1   8   20.95    0.78 
  -2   1   8   23.28    0.64 
   1  -1  -8    0.24    0.19 
   1  -1  -8   -0.01    0.16 
   1  -1  -8    0.27    0.23 
   1  -1  -8    0.10    0.16 
   1  -1  -8    0.55    0.24 
  -1   1   8    0.27    0.10 
  -1   1   8   -0.07    0.09 
  -1   1   8    0.14    0.20 
  -1   1   8   -0.16    0.19 
  -1   1   8    0.10    0.25 
  -1   1   8   -0.22    0.15 
   0  -1  -8    6.88    0.51 
   0  -1  -8    7.55    0.54 
   0  -1  -8    7.97    0.52 
   0  -1  -8    8.02    0.38 
   0   1   8    7.66    0.55 
   0   1   8    7.18    0.46 
   0   1   8    7.60    0.51 
   0   1   8    7.62    0.49 
  -1  -1  -8    3.08    0.40 
  -1  -1  -8    2.67    0.37 
  -1  -1  -8    2.42    0.23 
   1   1   8    2.70    0.43 
   1   1   8    3.29    0.37 
   1   1   8    3.07    0.39 
   1   1   8    2.34    0.36 
  -2  -1  -8   12.45    0.66 
  -2  -1  -8   12.71    0.42 
  -2  -1  -8   12.21    0.67 
   2   1   8   11.64    0.61 
   2   1   8   11.82    0.63 
   2   1   8   11.51    0.69 
   2   1   8   12.26    0.67 
  -3  -1  -8   16.99    0.82 
  -3  -1  -8   16.39    0.84 
   3   1   8   16.56    0.91 
   3   1   8   16.16    0.83 
   3   1   8   17.56    0.77 
   3   1   8   17.03    0.89 
   3   1   8   17.05    0.75 
  -4  -1  -8    3.63    0.49 
   4   1   8    2.92    0.46 
   4   1   8    2.51    0.48 
   4   1   8    2.81    0.49 
   4   1   8    3.30    0.56 
   5  -2  -8    0.99    0.42 
   5  -2  -8    0.71    0.39 
   5  -2  -8    1.32    0.29 
  -5   2   8    1.24    0.34 
   4  -2  -8    3.59    0.50 
   4  -2  -8    3.51    0.56 
   4  -2  -8    5.16    0.46 
   4  -2  -8    3.71    0.43 
  -4   2   8    3.93    0.48 
   3  -2  -8   17.54    0.90 
   3  -2  -8   16.95    0.75 
   3  -2  -8   15.91    0.84 
   3  -2  -8   17.59    0.74 
  -3   2   8   15.78    0.76 
  -3   2   8   16.89    0.72 
  -3   2   8   15.99    0.85 
   2  -2  -8    1.46    0.29 
   2  -2  -8    1.38    0.34 
   2  -2  -8    1.74    0.31 
   2  -2  -8    1.63    0.30 
  -2   2   8    1.59    0.22 
  -2   2   8    1.67    0.32 
  -2   2   8    1.74    0.30 
  -2   2   8    0.92    0.31 
   1  -2  -8    0.24    0.26 
   1  -2  -8   -0.02    0.19 
   1  -2  -8   -0.02    0.18 
   1  -2  -8   -0.08    0.17 
  -1   2   8    0.00    0.16 
  -1   2   8    0.11    0.26 
  -1   2   8    0.05    0.19 
  -1   2   8    0.17    0.20 
   0  -2  -8    8.42    0.53 
   0  -2  -8    9.31    0.37 
   0  -2  -8    8.99    0.55 
   0  -2  -8    9.36    0.65 
   0   2   8   10.55    0.68 
   0   2   8    8.09    0.53 
   0   2   8    8.73    0.50 
   0   2   8    8.12    0.53 
  -1  -2  -8   56.42    1.87 
  -1  -2  -8   55.86    1.62 
  -1  -2  -8   55.05    1.63 
  -1  -2  -8   57.09    1.22 
   1   2   8   58.08    1.64 
   1   2   8   56.49    1.58 
   1   2   8   59.62    1.81 
   1   2   8   59.79    1.63 
  -2  -2  -8    0.05    0.21 
  -2  -2  -8    0.24    0.22 
   2   2   8    0.30    0.20 
   2   2   8    0.82    0.31 
   2   2   8   -0.06    0.18 
   2   2   8    0.46    0.28 
  -3  -2  -8    0.16    0.28 
   3   2   8    0.04    0.22 
   3   2   8    0.10    0.31 
   3   2   8   -0.06    0.28 
  -4  -2  -8    1.32    0.37 
   4   2   8    1.22    0.45 
   4   2   8    1.41    0.45 
   4   2   8    1.60    0.34 
   5  -3  -8    0.74    0.28 
   5  -3  -8    0.37    0.38 
   5  -3  -8    1.76    0.48 
  -5   3   8    1.70    0.37 
   4  -3  -8   14.77    0.75 
   4  -3  -8   14.99    0.75 
   4  -3  -8   14.99    0.93 
   4  -3  -8   14.73    0.90 
  -4   3   8   14.58    0.79 
  -4   3   8   15.03    0.71 
  -4   3   8   14.92    0.87 
   3  -3  -8    9.06    0.64 
   3  -3  -8    8.14    0.68 
   3  -3  -8    8.47    0.58 
   3  -3  -8   10.43    0.62 
  -3   3   8    8.49    0.60 
  -3   3   8    9.19    0.58 
  -3   3   8    8.24    0.68 
   2  -3  -8    2.83    0.50 
   2  -3  -8    2.06    0.33 
   2  -3  -8    1.46    0.31 
   2  -3  -8    1.62    0.31 
  -2   3   8    2.49    0.37 
  -2   3   8    2.07    0.41 
  -2   3   8    2.56    0.22 
  -2   3   8    2.27    0.36 
   1  -3  -8    8.93    0.67 
   1  -3  -8    8.52    0.58 
   1  -3  -8    8.46    0.52 
   1  -3  -8    8.14    0.57 
  -1   3   8    8.86    0.59 
  -1   3   8    7.79    0.43 
  -1   3   8    8.33    0.65 
  -1   3   8    8.97    0.58 
   0  -3  -8   13.14    0.68 
   0  -3  -8   14.20    0.41 
   0  -3  -8   13.61    0.64 
   0  -3  -8   13.33    0.73 
   0  -3  -8   13.85    0.82 
   0   3   8   13.54    0.64 
   0   3   8   14.51    0.84 
   0   3   8   14.03    0.70 
   0   3   8   14.54    0.72 
  -1  -3  -8    0.79    0.35 
  -1  -3  -8    0.94    0.23 
  -1  -3  -8    1.16    0.31 
   1   3   8    1.02    0.29 
   1   3   8    1.25    0.29 
   1   3   8    1.06    0.33 
   1   3   8    0.46    0.23 
  -2  -3  -8   63.82    1.88 
  -2  -3  -8   67.77    1.87 
   2   3   8   67.70    2.12 
   2   3   8   66.90    1.85 
   2   3   8   65.27    1.98 
   2   3   8   70.10    1.86 
  -3  -3  -8    1.68    0.37 
   3   3   8    2.08    0.44 
   3   3   8    1.76    0.44 
   3   3   8    1.58    0.34 
   5  -4  -8    6.48    0.63 
   5  -4  -8    6.93    0.78 
   5  -4  -8    6.04    0.81 
  -5   4   8    6.29    0.64 
   4  -4  -8    0.48    0.31 
   4  -4  -8    0.16    0.25 
   4  -4  -8    0.33    0.28 
   4  -4  -8    0.41    0.33 
  -4   4   8    0.61    0.30 
  -4   4   8    0.30    0.23 
  -4   4   8    0.38    0.33 
   3  -4  -8    5.76    0.72 
   3  -4  -8    6.73    0.57 
   3  -4  -8    6.15    0.57 
   3  -4  -8    6.44    0.57 
  -3   4   8    6.61    0.67 
  -3   4   8    5.99    0.56 
  -3   4   8    6.77    0.57 
   2  -4  -8    6.04    0.68 
   2  -4  -8    5.85    0.48 
   2  -4  -8    5.53    0.56 
   2  -4  -8    4.97    0.52 
  -2   4   8    4.47    0.50 
  -2   4   8    4.60    0.52 
  -2   4   8    6.17    0.69 
   1  -4  -8   11.93    0.72 
   1  -4  -8   10.76    0.77 
   1  -4  -8   11.07    0.68 
   1  -4  -8   12.40    0.61 
  -1   4   8   11.86    0.83 
  -1   4   8   10.41    0.66 
  -1   4   8   12.35    0.71 
  -1   4   8   11.84    0.56 
   0  -4  -8    3.71    0.53 
   0  -4  -8    3.38    0.41 
   0  -4  -8    3.25    0.55 
   0  -4  -8    2.89    0.45 
   0   4   8    3.65    0.60 
   0   4   8    3.85    0.47 
   0   4   8    2.66    0.41 
   0   4   8    2.55    0.38 
  -1  -4  -8    6.26    0.62 
  -1  -4  -8    6.50    0.59 
  -1  -4  -8    6.33    0.41 
  -1  -4  -8    6.49    0.66 
   1   4   8    7.17    0.66 
   1   4   8    7.06    0.54 
   1   4   8    8.09    0.60 
   1   4   8    6.39    0.58 
  -2  -4  -8    1.85    0.38 
   2   4   8    1.61    0.39 
   2   4   8    2.15    0.35 
   2   4   8    1.83    0.42 
   2   4   8    1.17    0.40 
  -3  -4  -8   11.03    0.80 
   3   4   8   11.27    0.92 
   3   4   8   13.02    0.74 
   3   4   8   10.79    0.87 
   4  -5  -8   -0.60    0.25 
   4  -5  -8    0.22    0.39 
   4  -5  -8    0.25    0.33 
   4  -5  -8    0.63    0.34 
  -4   5   8    0.23    0.35 
  -4   5   8    0.99    0.36 
  -4   5   8    0.14    0.31 
   3  -5  -8    3.69    0.52 
   3  -5  -8    1.96    0.37 
   3  -5  -8    2.57    0.55 
   3  -5  -8    3.09    0.49 
  -3   5   8    3.82    0.55 
  -3   5   8    2.88    0.51 
  -3   5   8    2.73    0.45 
   2  -5  -8    4.97    0.62 
   2  -5  -8    5.42    0.47 
   2  -5  -8    4.81    0.73 
   2  -5  -8    6.11    0.63 
  -2   5   8    5.68    0.59 
  -2   5   8    5.67    0.72 
  -2   5   8    5.60    0.59 
   1  -5  -8    5.81    0.64 
   1  -5  -8    6.30    0.63 
   1  -5  -8    6.41    0.68 
  -1   5   8    5.33    0.57 
  -1   5   8    5.98    0.66 
  -1   5   8    6.73    0.49 
  -1   5   8    5.77    0.57 
   0  -5  -8   28.57    1.31 
   0  -5  -8   29.09    1.19 
   0  -5  -8   29.08    1.13 
   0   5   8   27.73    1.08 
   0   5   8   25.18    1.08 
   0   5   8   27.92    1.13 
   0   5   8   29.32    1.34 
  -1  -5  -8    1.37    0.37 
  -1  -5  -8    2.29    0.37 
   1   5   8    1.32    0.32 
   1   5   8    2.27    0.51 
   1   5   8    1.07    0.37 
   1   5   8    1.60    0.37 
  -2  -5  -8   -0.10    0.30 
   2   5   8    0.46    0.28 
   2   5   8    0.03    0.34 
   2   5   8    0.12    0.39 
   3  -6  -8    3.78    0.59 
   3  -6  -8    4.28    0.73 
   3  -6  -8    4.27    0.64 
  -3   6   8    3.75    0.60 
  -3   6   8    3.79    0.65 
  -3   6   8    3.25    0.53 
   2  -6  -8    0.52    0.43 
   2  -6  -8    0.30    0.34 
   2  -6  -8    0.56    0.36 
  -2   6   8    1.19    0.39 
  -2   6   8    0.22    0.42 
  -2   6   8    0.24    0.30 
   1  -6  -8    2.64    0.49 
   1  -6  -8    3.21    0.55 
   1  -6  -8    3.20    0.61 
  -1   6   8    2.55    0.53 
  -1   6   8    2.21    0.44 
  -1   6   8    3.60    0.45 
  -1   6   8    1.64    0.39 
   0  -6  -8    9.02    0.74 
   0  -6  -8    7.13    0.80 
   0  -6  -8   10.60    0.82 
   0   6   8    8.76    0.71 
   0   6   8    8.96    0.60 
   0   6   8    9.33    0.70 
   0   6   8    8.39    0.69 
   0   6   8    7.59    0.84 
   0   7  -9    1.19    0.44 
   0   7  -9    0.61    0.39 
   0   7  -9    1.65    0.41 
   0  -7   9    1.28    0.37 
  -1   7  -9   -0.26    0.26 
  -1   7  -9    0.19    0.35 
  -1   7  -9    0.45    0.32 
  -1   7  -9    0.31    0.37 
   1  -7   9    0.19    0.30 
   1  -7   9   -0.17    0.33 
   1  -7   9   -0.31    0.33 
   1  -7   9    0.00    0.38 
  -2   7  -9   35.91    1.35 
  -2   7  -9   33.52    1.41 
  -2   7  -9   31.93    1.40 
  -2   7  -9   30.72    1.36 
   2  -7   9   34.28    1.34 
   2  -7   9   33.53    1.38 
   2  -7   9   30.93    1.45 
   2  -7   9   33.29    1.48 
   2   6  -9    1.98    0.45 
   2   6  -9    1.92    0.48 
   2   6  -9    1.31    0.45 
  -2  -6   9    2.07    0.41 
   1   6  -9    3.58    0.57 
   1   6  -9    4.82    0.65 
   1   6  -9    5.06    0.62 
  -1  -6   9    3.59    0.54 
   0   6  -9    4.78    0.61 
   0   6  -9    5.95    0.64 
   0   6  -9    6.24    0.56 
   0   6  -9    5.33    0.61 
   0  -6   9    6.46    0.60 
   0  -6   9    5.87    0.60 
   0  -6   9    6.54    0.53 
  -1   6  -9   16.88    0.94 
  -1   6  -9   14.42    0.87 
  -1   6  -9   16.33    0.89 
   1  -6   9   16.17    0.99 
   1  -6   9   16.14    0.85 
   1  -6   9   15.97    0.87 
   1  -6   9   17.04    0.91 
  -2   6  -9    2.25    0.43 
  -2   6  -9    1.46    0.39 
  -2   6  -9    1.27    0.37 
  -2   6  -9    1.83    0.42 
   2  -6   9    2.20    0.46 
   2  -6   9    1.58    0.44 
   2  -6   9    1.56    0.37 
   2  -6   9    1.30    0.44 
  -3   6  -9   -0.09    0.31 
  -3   6  -9    0.09    0.35 
  -3   6  -9    0.25    0.34 
  -3   6  -9    0.06    0.30 
   3  -6   9   -0.09    0.32 
   3  -6   9   -0.27    0.29 
   3  -6   9   -0.34    0.32 
   3  -6   9    0.27    0.43 
   3   5  -9    4.87    0.72 
   3   5  -9    5.27    0.68 
   3   5  -9    6.24    0.69 
  -3  -5   9    4.85    0.53 
   2   5  -9    2.40    0.45 
   2   5  -9    2.08    0.46 
   2   5  -9    1.80    0.43 
  -2  -5   9    2.32    0.38 
   1   5  -9   -0.25    0.27 
   1   5  -9    0.20    0.22 
   1   5  -9   -0.01    0.26 
   1   5  -9   -0.02    0.26 
  -1  -5   9   -0.14    0.25 
   0   5  -9   33.72    1.18 
   0   5  -9   33.89    1.28 
   0   5  -9   36.82    1.37 
   0   5  -9   34.44    1.29 
   0  -5   9   34.90    1.24 
   0  -5   9   34.67    1.16 
   0  -5   9   34.69    1.34 
   0  -5   9   34.98    1.21 
  -1   5  -9    1.68    0.36 
  -1   5  -9    1.75    0.42 
  -1   5  -9    2.09    0.42 
  -1   5  -9    1.50    0.34 
   1  -5   9    1.56    0.36 
   1  -5   9    1.42    0.39 
   1  -5   9    1.51    0.37 
   1  -5   9    1.38    0.33 
  -2   5  -9    2.82    0.48 
  -2   5  -9    2.47    0.49 
  -2   5  -9    3.13    0.51 
  -2   5  -9    2.98    0.47 
   2  -5   9    3.83    0.66 
   2  -5   9    3.35    0.53 
   2  -5   9    2.38    0.40 
   2  -5   9    2.90    0.51 
  -3   5  -9    0.46    0.33 
  -3   5  -9    0.61    0.36 
  -3   5  -9    0.57    0.33 
  -3   5  -9    0.59    0.31 
   3  -5   9    0.50    0.38 
   3  -5   9    1.17    0.36 
   3  -5   9    0.55    0.32 
   3  -5   9    0.41    0.37 
  -4   5  -9    9.91    0.89 
  -4   5  -9    9.86    0.64 
  -4   5  -9   11.34    0.84 
  -4   5  -9    9.94    0.77 
   4  -5   9   11.51    0.80 
   4  -5   9    9.92    0.87 
   4  -5   9   10.04    0.89 
   4  -5   9   10.95    0.80 
   3   4  -9   -0.18    0.28 
   3   4  -9    0.02    0.32 
   3   4  -9    0.16    0.31 
  -3  -4   9   -0.15    0.21 
   2   4  -9    0.28    0.30 
   2   4  -9    0.35    0.30 
   2   4  -9    0.69    0.31 
  -2  -4   9    0.19    0.25 
   1   4  -9   17.48    0.86 
   1   4  -9   15.60    0.81 
   1   4  -9   18.06    0.91 
   1   4  -9   18.50    0.76 
  -1  -4   9   17.11    0.70 
  -1  -4   9   16.63    0.79 
   0   4  -9   32.88    1.28 
   0   4  -9   33.71    1.12 
   0   4  -9   32.30    1.18 
   0   4  -9   33.19    1.17 
   0  -4   9   33.44    1.10 
   0  -4   9   32.58    1.16 
   0  -4   9   32.18    1.22 
   0  -4   9   31.74    1.07 
  -1   4  -9    2.89    0.41 
  -1   4  -9    2.31    0.38 
  -1   4  -9    2.07    0.38 
  -1   4  -9    2.99    0.42 
   1  -4   9    2.82    0.45 
   1  -4   9    2.53    0.40 
   1  -4   9    2.89    0.47 
   1  -4   9    3.43    0.45 
  -2   4  -9    0.33    0.32 
  -2   4  -9    1.10    0.36 
  -2   4  -9    0.80    0.30 
  -2   4  -9    0.62    0.25 
   2  -4   9    0.32    0.31 
   2  -4   9    0.34    0.28 
   2  -4   9    0.22    0.28 
   2  -4   9    0.35    0.32 
  -3   4  -9    2.51    0.46 
  -3   4  -9    2.92    0.42 
  -3   4  -9    2.44    0.42 
  -3   4  -9    1.92    0.43 
   3  -4   9    2.19    0.42 
   3  -4   9    2.14    0.46 
   3  -4   9    1.84    0.38 
   3  -4   9    1.97    0.45 
  -4   4  -9    3.51    0.60 
  -4   4  -9    1.76    0.41 
  -4   4  -9    3.89    0.56 
   4  -4   9    3.07    0.48 
   4  -4   9    2.12    0.45 
   4  -4   9    2.37    0.50 
   4  -4   9    2.87    0.57 
   4   3  -9    6.10    0.69 
   4   3  -9    8.99    0.79 
  -4  -3   9    7.88    0.55 
   3   3  -9    0.32    0.33 
   3   3  -9    1.08    0.24 
   3   3  -9    0.90    0.38 
  -3  -3   9    0.57    0.25 
   2   3  -9    0.29    0.16 
   2   3  -9    0.40    0.28 
   2   3  -9    0.20    0.25 
   2   3  -9    0.35    0.19 
  -2  -3   9    0.28    0.22 
   1   3  -9    2.01    0.31 
   1   3  -9    2.68    0.25 
   1   3  -9    2.22    0.37 
   1   3  -9    1.72    0.33 
   1   3  -9    1.85    0.37 
  -1  -3   9    1.77    0.34 
  -1  -3   9    2.34    0.32 
  -1  -3   9    1.90    0.32 
   0   3  -9   12.01    0.64 
   0   3  -9   12.95    0.69 
   0   3  -9   12.89    0.76 
   0   3  -9   14.90    0.69 
   0  -3   9   12.47    0.67 
   0  -3   9   14.23    0.75 
   0  -3   9   12.89    0.58 
   0  -3   9   13.77    0.67 
  -1   3  -9   -0.26    0.20 
  -1   3  -9    0.15    0.24 
  -1   3  -9    0.20    0.22 
  -1   3  -9    0.21    0.18 
   1  -3   9    0.15    0.21 
   1  -3   9    0.04    0.24 
   1  -3   9   -0.02    0.24 
   1  -3   9    0.39    0.24 
  -2   3  -9   16.65    0.66 
  -2   3  -9   15.40    0.87 
  -2   3  -9   15.44    0.76 
  -2   3  -9   14.16    0.78 
   2  -3   9   15.02    0.86 
   2  -3   9   14.70    0.76 
   2  -3   9   14.08    0.77 
   2  -3   9   14.25    0.77 
  -3   3  -9    0.07    0.25 
  -3   3  -9    0.13    0.19 
  -3   3  -9    0.56    0.31 
  -3   3  -9    0.07    0.28 
   3  -3   9    0.57    0.27 
   3  -3   9    0.32    0.27 
   3  -3   9    0.79    0.33 
   3  -3   9    0.03    0.30 
  -4   3  -9    3.50    0.53 
  -4   3  -9    3.98    0.55 
  -4   3  -9    3.16    0.56 
   4  -3   9    2.76    0.54 
   4  -3   9    3.46    0.56 
   4  -3   9    2.58    0.42 
   4  -3   9    2.21    0.41 
   4   2  -9    0.30    0.30 
   4   2  -9    0.62    0.26 
   4   2  -9    0.51    0.33 
  -4  -2   9    0.13    0.24 
   3   2  -9    4.47    0.53 
   3   2  -9    4.50    0.42 
   3   2  -9    4.74    0.58 
  -3  -2   9    4.18    0.44 
   2   2  -9   49.15    1.53 
   2   2  -9   48.30    1.46 
   2   2  -9   51.12    1.39 
   2   2  -9   49.98    1.67 
  -2  -2   9   50.87    1.33 
  -2  -2   9   48.09    1.43 
   1   2  -9   76.91    2.07 
   1   2  -9   77.18    2.01 
   1   2  -9   79.41    2.27 
   1   2  -9   82.34    2.10 
  -1  -2   9   77.70    2.05 
  -1  -2   9   79.89    2.07 
  -1  -2   9   81.16    1.96 
   0   2  -9    6.54    0.42 
   0   2  -9    5.63    0.54 
   0   2  -9    7.17    0.51 
   0   2  -9    6.87    0.49 
   0   2  -9    6.95    0.46 
   0  -2   9    6.74    0.49 
   0  -2   9    6.03    0.49 
   0  -2   9    4.85    0.57 
   0  -2   9    6.45    0.42 
  -1   2  -9   21.68    0.75 
  -1   2  -9   20.98    0.88 
  -1   2  -9   20.84    0.99 
  -1   2  -9   21.83    0.85 
   1  -2   9   21.45    0.94 
   1  -2   9   21.90    0.86 
   1  -2   9   22.05    0.82 
   1  -2   9   22.37    0.90 
  -2   2  -9    0.08    0.22 
  -2   2  -9    0.38    0.23 
  -2   2  -9    0.13    0.15 
  -2   2  -9   -0.15    0.24 
   2  -2   9    0.20    0.27 
   2  -2   9    0.26    0.23 
   2  -2   9    0.31    0.21 
   2  -2   9   -0.07    0.19 
   2  -2   9   -0.08    0.22 
  -3   2  -9   33.74    1.34 
  -3   2  -9   33.26    1.23 
  -3   2  -9   32.55    1.10 
   3  -2   9   34.48    1.21 
   3  -2   9   32.76    1.27 
   3  -2   9   32.48    1.30 
   3  -2   9   34.17    1.15 
   3  -2   9   30.60    1.15 
  -4   2  -9   -0.02    0.28 
  -4   2  -9    1.20    0.35 
  -4   2  -9    0.41    0.27 
   4  -2   9    0.20    0.25 
   4  -2   9    0.28    0.27 
   4  -2   9   -0.20    0.32 
   4  -2   9   -0.28    0.31 
   4   1  -9    4.27    0.51 
   4   1  -9    2.56    0.51 
  -4  -1   9    4.92    0.46 
   3   1  -9   37.65    1.41 
   3   1  -9   36.21    1.29 
   3   1  -9   36.55    1.28 
  -3  -1   9   33.78    1.13 
   2   1  -9   13.36    0.61 
   2   1  -9   12.42    0.64 
   2   1  -9   13.16    0.68 
   2   1  -9   12.60    0.73 
  -2  -1   9   11.95    0.58 
  -2  -1   9   11.37    0.62 
   1   1  -9   27.78    1.06 
   1   1  -9   26.09    0.95 
   1   1  -9   25.00    0.91 
   1   1  -9   25.83    0.91 
  -1  -1   9   25.03    0.88 
  -1  -1   9   24.42    0.89 
  -1  -1   9   25.47    0.93 
   0   1  -9    0.03    0.21 
   0   1  -9    0.04    0.17 
   0   1  -9    0.11    0.23 
   0   1  -9    0.09    0.17 
   0  -1   9    0.22    0.24 
   0  -1   9    0.00    0.14 
   0  -1   9   -0.06    0.24 
   0  -1   9    0.41    0.22 
   0  -1   9    0.29    0.22 
  -1   1  -9   12.12    0.48 
  -1   1  -9   12.00    0.66 
  -1   1  -9   12.39    0.59 
  -1   1  -9   12.76    0.80 
   1  -1   9   12.17    0.68 
   1  -1   9   11.63    0.65 
   1  -1   9   12.19    0.65 
   1  -1   9   12.23    0.59 
   1  -1   9   13.74    0.73 
  -2   1  -9   13.03    0.61 
  -2   1  -9   12.01    0.70 
  -2   1  -9   13.50    0.80 
   2  -1   9   13.22    0.69 
   2  -1   9   13.15    0.70 
   2  -1   9   13.52    0.69 
   2  -1   9   14.36    0.78 
   2  -1   9   13.97    0.71 
  -3   1  -9    3.29    0.39 
  -3   1  -9    3.30    0.47 
  -3   1  -9    3.26    0.49 
   3  -1   9    2.63    0.42 
   3  -1   9    2.97    0.45 
   3  -1   9    2.67    0.47 
   3  -1   9    4.40    0.48 
   3  -1   9    4.10    0.56 
  -4   1  -9   33.41    1.30 
   4  -1   9   37.12    1.25 
   4  -1   9   34.51    1.22 
   4  -1   9   34.75    1.23 
   4  -1   9   32.46    1.38 
   4  -1   9   32.05    1.40 
   5   0  -9    1.28    0.28 
   5   0  -9    1.52    0.46 
  -5   0   9    1.19    0.31 
   4   0  -9    0.00    0.30 
   4   0  -9    0.56    0.30 
   4   0  -9    0.34    0.21 
  -4   0   9    0.05    0.21 
   3   0  -9   -0.17    0.21 
   3   0  -9   -0.31    0.20 
   3   0  -9    0.01    0.16 
   3   0  -9    0.23    0.19 
  -3   0   9    0.01    0.16 
  -3   0   9   -0.04    0.18 
   2   0  -9    4.68    0.43 
   2   0  -9    4.75    0.49 
   2   0  -9    5.49    0.48 
   2   0  -9    4.45    0.46 
   2   0  -9    5.08    0.42 
  -2   0   9    5.32    0.35 
  -2   0   9    4.91    0.47 
  -2   0   9    5.14    0.42 
   1   0  -9   24.73    0.96 
   1   0  -9   24.62    0.86 
   1   0  -9   22.99    0.98 
   1   0  -9   24.76    0.90 
  -1   0   9   22.36    1.02 
  -1   0   9   24.57    0.82 
  -1   0   9   24.07    0.87 
  -1   0   9   23.25    0.91 
   0   0  -9    0.87    0.24 
   0   0  -9    0.82    0.21 
   0   0  -9    0.65    0.22 
   0   0  -9    0.60    0.24 
   0   0   9    0.80    0.26 
   0   0   9    0.68    0.26 
   0   0   9    0.64    0.17 
   0   0   9    0.70    0.29 
   0   0   9    0.76    0.24 
  -1   0  -9   52.57    1.27 
  -1   0  -9   49.87    1.53 
  -1   0  -9   53.77    1.66 
  -1   0  -9   54.28    1.38 
   1   0   9   51.72    1.50 
   1   0   9   53.29    1.49 
   1   0   9   51.48    1.66 
   1   0   9   51.88    1.55 
   1   0   9   53.48    1.54 
  -2   0  -9    4.57    0.35 
  -2   0  -9    4.63    0.52 
  -2   0  -9    4.75    0.52 
   2   0   9    4.81    0.53 
   2   0   9    4.48    0.46 
   2   0   9    4.30    0.49 
   2   0   9    4.34    0.53 
   2   0   9    4.77    0.47 
  -3   0  -9    0.07    0.28 
  -3   0  -9    0.02    0.14 
  -3   0  -9   -0.15    0.25 
   3   0   9    0.11    0.26 
   3   0   9    0.60    0.33 
   3   0   9    0.44    0.31 
   3   0   9    0.30    0.26 
   3   0   9    0.10    0.22 
  -4   0  -9   41.82    1.45 
   4   0   9   40.72    1.61 
   4   0   9   41.08    1.39 
   4   0   9   41.86    1.64 
   4   0   9   42.55    1.47 
   5  -1  -9    5.88    0.74 
   5  -1  -9    5.31    0.50 
   5  -1  -9    5.88    0.70 
  -5   1   9    5.41    0.57 
   4  -1  -9    6.61    0.52 
   4  -1  -9    6.73    0.73 
   4  -1  -9    7.60    0.69 
  -4   1   9    6.82    0.59 
   3  -1  -9    3.69    0.42 
   3  -1  -9    3.96    0.54 
   3  -1  -9    4.77    0.54 
   3  -1  -9    4.64    0.43 
  -3   1   9    4.34    0.46 
  -3   1   9    3.66    0.40 
   2  -1  -9    0.27    0.25 
   2  -1  -9    0.22    0.21 
   2  -1  -9   -0.03    0.20 
   2  -1  -9    0.07    0.18 
  -2   1   9    0.18    0.20 
  -2   1   9    0.08    0.29 
  -2   1   9    0.14    0.14 
  -2   1   9    0.14    0.22 
   1  -1  -9   46.00    1.38 
   1  -1  -9   45.43    1.53 
   1  -1  -9   44.12    1.26 
   1  -1  -9   43.56    1.33 
   1  -1  -9   45.12    1.46 
  -1   1   9   43.69    1.32 
  -1   1   9   44.33    1.55 
  -1   1   9   47.27    1.09 
  -1   1   9   45.96    1.25 
  -1   1   9   46.54    1.40 
   0  -1  -9    2.74    0.42 
   0  -1  -9    3.09    0.30 
   0  -1  -9    4.07    0.54 
   0  -1  -9    2.66    0.38 
   0   1   9    4.05    0.50 
   0   1   9    3.27    0.41 
   0   1   9    3.44    0.32 
   0   1   9    4.29    0.45 
   0   1   9    3.34    0.41 
  -1  -1  -9    0.02    0.21 
  -1  -1  -9   -0.03    0.21 
  -1  -1  -9    0.05    0.14 
   1   1   9   -0.05    0.25 
   1   1   9    0.13    0.21 
   1   1   9   -0.29    0.18 
   1   1   9   -0.01    0.22 
   1   1   9   -0.29    0.17 
  -2  -1  -9   -0.38    0.22 
  -2  -1  -9    0.06    0.25 
   2   1   9   -0.19    0.19 
   2   1   9    0.32    0.26 
   2   1   9    0.24    0.28 
   2   1   9   -0.23    0.25 
   2   1   9    0.27    0.22 
  -3  -1  -9   10.26    0.73 
  -3  -1  -9   11.08    0.73 
   3   1   9   12.39    0.68 
   3   1   9    9.77    0.78 
   3   1   9   10.35    0.66 
   3   1   9    9.77    0.73 
   3   1   9   10.28    0.77 
  -4  -1  -9    7.74    0.71 
   4   1   9    8.70    0.72 
   4   1   9    8.35    0.80 
   4   1   9    9.26    0.65 
   4   1   9    7.58    0.80 
   5  -2  -9    0.48    0.40 
   5  -2  -9    0.95    0.30 
   5  -2  -9    0.58    0.40 
  -5   2   9    0.50    0.32 
   4  -2  -9   -0.10    0.31 
   4  -2  -9   -0.04    0.27 
   4  -2  -9    0.44    0.25 
  -4   2   9    0.12    0.27 
   3  -2  -9    4.03    0.58 
   3  -2  -9    3.88    0.45 
   3  -2  -9    4.47    0.56 
   3  -2  -9    4.09    0.46 
  -3   2   9    3.54    0.46 
  -3   2   9    3.59    0.57 
  -3   2   9    4.15    0.46 
   2  -2  -9   15.04    0.86 
   2  -2  -9   15.65    0.75 
   2  -2  -9   15.10    0.75 
   2  -2  -9   14.98    0.78 
  -2   2   9   16.00    0.78 
  -2   2   9   14.89    0.49 
  -2   2   9   15.26    0.73 
  -2   2   9   13.91    0.85 
   1  -2  -9    8.11    0.56 
   1  -2  -9    6.81    0.56 
   1  -2  -9    7.46    0.42 
   1  -2  -9    7.53    0.60 
   1  -2  -9    7.33    0.53 
  -1   2   9    7.64    0.46 
  -1   2   9    6.31    0.54 
  -1   2   9    6.47    0.59 
  -1   2   9    7.82    0.54 
   0  -2  -9    3.20    0.44 
   0  -2  -9    2.58    0.44 
   0  -2  -9    2.75    0.38 
   0  -2  -9    2.91    0.26 
   0  -2  -9    2.81    0.43 
   0   2   9    2.98    0.43 
   0   2   9    3.10    0.40 
   0   2   9    2.91    0.42 
   0   2   9    3.14    0.53 
  -1  -2  -9    8.50    0.62 
  -1  -2  -9    9.53    0.70 
  -1  -2  -9    8.10    0.57 
   1   2   9    7.09    0.62 
   1   2   9    8.99    0.60 
   1   2   9    8.56    0.59 
   1   2   9    8.90    0.59 
  -2  -2  -9   16.58    0.81 
  -2  -2  -9   15.38    0.82 
   2   2   9   15.54    0.76 
   2   2   9   15.07    0.84 
   2   2   9   15.23    0.88 
   2   2   9   15.33    0.76 
  -3  -2  -9    8.21    0.70 
   3   2   9    8.33    0.63 
   3   2   9    8.55    0.76 
   3   2   9    8.50    0.73 
   4  -3  -9   13.32    0.87 
   4  -3  -9   13.23    0.75 
   4  -3  -9   13.22    0.92 
   4  -3  -9   11.79    0.72 
  -4   3   9   12.14    0.75 
  -4   3   9   12.94    0.87 
   3  -3  -9    6.12    0.71 
   3  -3  -9    7.03    0.63 
   3  -3  -9    6.38    0.55 
   3  -3  -9    6.49    0.57 
  -3   3   9    6.74    0.57 
  -3   3   9    6.65    0.61 
  -3   3   9    5.88    0.65 
   2  -3  -9    5.80    0.56 
   2  -3  -9    5.45    0.64 
   2  -3  -9    4.82    0.53 
   2  -3  -9    5.32    0.52 
  -2   3   9    3.95    0.59 
  -2   3   9    4.10    0.49 
  -2   3   9    5.54    0.55 
   1  -3  -9   13.07    0.55 
   1  -3  -9   14.71    0.75 
   1  -3  -9   13.65    0.77 
   1  -3  -9   14.50    0.88 
   1  -3  -9   12.53    0.68 
  -1   3   9   13.36    0.87 
  -1   3   9   13.51    0.73 
  -1   3   9   13.87    0.75 
  -1   3   9   13.90    0.62 
   0  -3  -9    7.58    0.58 
   0  -3  -9    8.61    0.58 
   0  -3  -9    8.47    0.64 
   0  -3  -9    7.11    0.68 
   0   3   9    7.77    0.54 
   0   3   9    8.31    0.73 
   0   3   9    8.27    0.61 
   0   3   9    8.02    0.60 
  -1  -3  -9    4.00    0.46 
  -1  -3  -9    3.49    0.54 
  -1  -3  -9    3.73    0.51 
   1   3   9    3.47    0.55 
   1   3   9    4.21    0.52 
   1   3   9    3.65    0.47 
   1   3   9    3.38    0.47 
  -2  -3  -9    9.98    0.59 
  -2  -3  -9    7.92    0.69 
   2   3   9    9.03    0.63 
   2   3   9    8.09    0.70 
   2   3   9    9.78    0.78 
   2   3   9   10.37    0.68 
  -3  -3  -9    1.29    0.38 
   3   3   9    0.82    0.42 
   3   3   9    1.34    0.43 
   3   3   9    0.91    0.32 
   4  -4  -9    6.65    0.64 
   4  -4  -9    5.16    0.58 
   4  -4  -9    5.10    0.74 
   4  -4  -9    5.61    0.70 
  -4   4   9    5.72    0.73 
  -4   4   9    6.26    0.57 
  -4   4   9    5.83    0.62 
   3  -4  -9   14.01    0.82 
   3  -4  -9   12.93    0.81 
   3  -4  -9   14.34    0.82 
   3  -4  -9   16.18    0.98 
  -3   4   9   14.79    0.81 
  -3   4   9   14.04    0.94 
  -3   4   9   14.61    0.84 
   2  -4  -9    4.76    0.57 
   2  -4  -9    3.91    0.59 
   2  -4  -9    3.86    0.62 
   2  -4  -9    3.94    0.50 
  -2   4   9    3.95    0.54 
  -2   4   9    4.46    0.67 
  -2   4   9    4.93    0.57 
   1  -4  -9    0.45    0.31 
   1  -4  -9   -0.08    0.29 
   1  -4  -9    0.18    0.26 
   1  -4  -9    0.27    0.28 
  -1   4   9   -0.05    0.26 
  -1   4   9    0.06    0.22 
  -1   4   9    0.27    0.28 
  -1   4   9    0.69    0.38 
   0  -4  -9    2.75    0.37 
   0  -4  -9    2.94    0.48 
   0  -4  -9    2.17    0.41 
   0  -4  -9    1.94    0.46 
   0   4   9    2.90    0.53 
   0   4   9    2.90    0.47 
   0   4   9    2.20    0.40 
   0   4   9    2.95    0.48 
  -1  -4  -9   20.98    0.99 
   1   4   9   17.21    0.88 
   1   4   9   17.27    0.86 
   1   4   9   16.39    0.87 
   1   4   9   17.85    1.05 
  -2  -4  -9    0.54    0.34 
   2   4   9   -0.13    0.34 
   2   4   9   -0.14    0.25 
   2   4   9   -0.05    0.31 
   4  -5  -9   22.55    1.33 
   4  -5  -9   23.52    1.11 
   4  -5  -9   20.11    1.10 
   4  -5  -9   22.76    1.09 
  -4   5   9   23.34    1.08 
  -4   5   9   21.96    1.18 
  -4   5   9   23.22    1.13 
   3  -5  -9    1.62    0.37 
   3  -5  -9    1.90    0.43 
   3  -5  -9    1.38    0.40 
   3  -5  -9    1.31    0.50 
  -3   5   9    1.25    0.40 
  -3   5   9    2.28    0.54 
  -3   5   9    1.48    0.40 
   2  -5  -9    0.27    0.35 
   2  -5  -9    0.21    0.33 
   2  -5  -9    0.03    0.19 
   2  -5  -9   -0.05    0.28 
  -2   5   9    0.18    0.41 
  -2   5   9    0.47    0.30 
  -2   5   9   -0.01    0.31 
   1  -5  -9    0.46    0.38 
   1  -5  -9    0.57    0.36 
   1  -5  -9    0.52    0.34 
  -1   5   9    0.18    0.39 
  -1   5   9    0.60    0.23 
  -1   5   9    0.56    0.31 
  -1   5   9    0.70    0.34 
   0  -5  -9   20.83    0.99 
   0  -5  -9   19.80    1.17 
   0  -5  -9   21.48    1.07 
   0   5   9   22.23    1.02 
   0   5   9   20.04    0.92 
   0   5   9   19.02    1.14 
   0   5   9   20.42    1.00 
  -1  -5  -9    3.06    0.52 
  -1  -5  -9    3.35    0.51 
   1   5   9    2.62    0.43 
   1   5   9    2.49    0.42 
   1   5   9    1.68    0.48 
   1   5   9    1.98    0.46 
   2  -6  -9    3.14    0.61 
   2  -6  -9    3.73    0.59 
   2  -6  -9    4.50    0.65 
  -2   6   9    4.65    0.81 
  -2   6   9    4.51    0.65 
  -2   6   9    3.55    0.57 
   1  -6  -9    1.74    0.50 
   1  -6  -9    1.43    0.49 
   1  -6  -9    1.53    0.47 
  -1   6   9    1.36    0.42 
  -1   6   9    2.05    0.45 
  -1   6   9    1.86    0.59 
   1   6 -10    1.37    0.42 
   1   6 -10    0.81    0.41 
   1   6 -10    0.78    0.38 
  -1  -6  10    1.34    0.39 
   0   6 -10    0.07    0.33 
   0   6 -10    0.19    0.30 
   0   6 -10    0.23    0.27 
   0   6 -10    0.16    0.31 
   0  -6  10    0.24    0.31 
   0  -6  10   -0.29    0.25 
  -1   6 -10    0.26    0.32 
  -1   6 -10    0.26    0.33 
  -1   6 -10    0.13    0.28 
  -1   6 -10    0.44    0.32 
   1  -6  10    0.05    0.29 
   1  -6  10   -0.19    0.30 
   1  -6  10    0.35    0.33 
   1  -6  10    0.26    0.40 
  -2   6 -10   12.42    0.91 
  -2   6 -10   12.33    0.82 
  -2   6 -10   11.83    0.88 
  -2   6 -10   11.12    0.79 
   2  -6  10    9.91    0.93 
   2  -6  10   12.07    0.84 
   2  -6  10   12.29    0.85 
   2  -6  10   11.48    0.95 
  -3   6 -10   15.78    1.06 
  -3   6 -10   16.25    1.02 
  -3   6 -10   16.29    0.93 
  -3   6 -10   17.29    1.01 
   3  -6  10   17.15    0.99 
   3  -6  10   15.19    1.09 
   3  -6  10   15.88    1.10 
   3  -6  10   16.18    1.01 
   2   5 -10    1.49    0.41 
   2   5 -10    0.87    0.38 
   2   5 -10    0.62    0.37 
  -2  -5  10    0.14    0.28 
   1   5 -10    1.60    0.42 
   1   5 -10    2.38    0.46 
   1   5 -10    2.06    0.41 
  -1  -5  10    2.35    0.42 
   0   5 -10    0.26    0.26 
   0   5 -10    0.01    0.29 
   0   5 -10    0.01    0.26 
   0   5 -10    0.25    0.32 
   0  -5  10   -0.12    0.23 
   0  -5  10   -0.03    0.23 
   0  -5  10    0.43    0.36 
   0  -5  10   -0.29    0.26 
  -1   5 -10    5.71    0.56 
  -1   5 -10    5.50    0.58 
  -1   5 -10    4.63    0.63 
  -1   5 -10    4.63    0.63 
   1  -5  10    4.81    0.56 
   1  -5  10    5.12    0.69 
   1  -5  10    5.63    0.60 
   1  -5  10    4.65    0.59 
  -2   5 -10    6.74    0.66 
  -2   5 -10    7.91    0.71 
  -2   5 -10    7.85    0.60 
  -2   5 -10    8.46    0.77 
   2  -5  10    7.99    0.79 
   2  -5  10    7.09    0.69 
   2  -5  10    8.20    0.70 
   2  -5  10    7.21    0.74 
  -3   5 -10    6.47    0.69 
  -3   5 -10    6.53    0.70 
  -3   5 -10    7.28    0.77 
  -3   5 -10    4.72    0.57 
   3  -5  10    4.08    0.56 
   3  -5  10    4.54    0.63 
   3  -5  10    5.56    0.74 
   3  -5  10    6.71    0.78 
   3   4 -10    1.19    0.42 
   3   4 -10    1.39    0.44 
   3   4 -10    0.50    0.40 
  -3  -4  10    1.47    0.35 
   2   4 -10    0.30    0.31 
   2   4 -10    0.29    0.32 
   2   4 -10    0.07    0.31 
  -2  -4  10    0.06    0.26 
   1   4 -10    7.09    0.54 
   1   4 -10    6.22    0.64 
   1   4 -10    6.13    0.60 
   1   4 -10    6.70    0.57 
  -1  -4  10    7.52    0.50 
  -1  -4  10    6.53    0.58 
   0   4 -10    0.03    0.22 
   0   4 -10    0.71    0.28 
   0   4 -10    0.52    0.33 
   0   4 -10    0.42    0.30 
   0  -4  10    0.18    0.25 
   0  -4  10    0.19    0.25 
   0  -4  10    0.50    0.32 
   0  -4  10    0.37    0.29 
  -1   4 -10    0.82    0.37 
  -1   4 -10    0.57    0.32 
  -1   4 -10    0.45    0.26 
  -1   4 -10    0.65    0.29 
   1  -4  10    0.40    0.30 
   1  -4  10    1.15    0.35 
   1  -4  10    0.82    0.40 
   1  -4  10    0.92    0.32 
  -2   4 -10    0.70    0.27 
  -2   4 -10    0.62    0.36 
  -2   4 -10    0.61    0.32 
  -2   4 -10    0.55    0.35 
   2  -4  10    0.88    0.35 
   2  -4  10    0.71    0.38 
   2  -4  10    0.49    0.35 
   2  -4  10    1.09    0.35 
  -3   4 -10    1.05    0.41 
  -3   4 -10    1.16    0.32 
  -3   4 -10    1.20    0.37 
  -3   4 -10    0.96    0.36 
   3  -4  10    1.04    0.41 
   3  -4  10    1.54    0.39 
   3  -4  10    2.54    0.53 
   3  -4  10    1.18    0.37 
  -4   4 -10    0.32    0.37 
  -4   4 -10   -0.07    0.29 
  -4   4 -10    0.44    0.39 
   4  -4  10    0.23    0.31 
   4  -4  10   -0.06    0.40 
   4  -4  10    0.40    0.33 
   4  -4  10   -0.12    0.39 
   3   3 -10    5.74    0.68 
   3   3 -10    6.10    0.66 
  -3  -3  10    5.34    0.53 
   2   3 -10    1.74    0.38 
   2   3 -10    0.85    0.32 
   2   3 -10    1.36    0.25 
  -2  -3  10    2.11    0.36 
   1   3 -10    9.13    0.45 
   1   3 -10    8.13    0.55 
   1   3 -10    7.69    0.63 
   1   3 -10    7.50    0.57 
   1   3 -10    9.48    0.63 
  -1  -3  10    8.90    0.60 
  -1  -3  10    8.97    0.57 
  -1  -3  10    7.10    0.62 
   0   3 -10    4.80    0.58 
   0   3 -10    3.69    0.47 
   0   3 -10    2.86    0.41 
   0   3 -10    3.15    0.45 
   0  -3  10    3.73    0.47 
   0  -3  10    3.66    0.47 
   0  -3  10    3.29    0.38 
   0  -3  10    2.85    0.44 
  -1   3 -10   61.83    1.73 
  -1   3 -10   64.40    1.84 
  -1   3 -10   61.93    2.00 
  -1   3 -10   64.34    1.82 
   1  -3  10   63.87    1.87 
   1  -3  10   64.87    1.81 
   1  -3  10   62.51    1.90 
   1  -3  10   63.50    1.78 
  -2   3 -10    2.78    0.49 
  -2   3 -10    3.29    0.53 
  -2   3 -10    3.43    0.50 
  -2   3 -10    3.35    0.38 
   2  -3  10    3.87    0.54 
   2  -3  10    3.10    0.47 
   2  -3  10    3.30    0.53 
   2  -3  10    2.90    0.45 
  -3   3 -10    2.33    0.50 
  -3   3 -10    2.18    0.45 
  -3   3 -10    2.09    0.40 
   3  -3  10    2.04    0.39 
   3  -3  10    1.67    0.45 
   3  -3  10    2.13    0.45 
   3  -3  10    2.58    0.44 
  -4   3 -10    2.04    0.44 
  -4   3 -10    1.67    0.48 
  -4   3 -10    2.86    0.45 
   4  -3  10    1.88    0.41 
   4  -3  10    1.83    0.43 
   4  -3  10    1.30    0.44 
   4  -3  10    1.93    0.49 
   4   2 -10    7.99    0.70 
   4   2 -10    7.40    0.80 
   4   2 -10   10.07    0.68 
  -4  -2  10    8.64    0.61 
   3   2 -10    1.73    0.43 
   3   2 -10    2.08    0.35 
   3   2 -10    2.16    0.45 
  -3  -2  10    1.39    0.31 
   2   2 -10    0.03    0.23 
   2   2 -10   -0.08    0.22 
   2   2 -10   -0.21    0.17 
   2   2 -10    0.00    0.19 
  -2  -2  10   -0.32    0.20 
  -2  -2  10    0.14    0.18 
   1   2 -10  151.36    3.63 
   1   2 -10  136.32    3.72 
   1   2 -10  147.39    3.42 
   1   2 -10  145.89    3.47 
  -1  -2  10  144.41    3.47 
  -1  -2  10  149.44    3.32 
  -1  -2  10  142.32    3.46 
   0   2 -10   31.23    1.05 
   0   2 -10   32.49    1.13 
   0   2 -10   31.18    1.07 
   0   2 -10   29.75    1.22 
   0   2 -10   32.02    1.10 
   0  -2  10   31.23    0.94 
   0  -2  10   31.27    1.15 
   0  -2  10   32.63    1.10 
   0  -2  10   30.42    1.13 
  -1   2 -10    5.32    0.40 
  -1   2 -10    4.60    0.55 
  -1   2 -10    5.69    0.55 
  -1   2 -10    4.91    0.48 
   1  -2  10    6.08    0.55 
   1  -2  10    4.96    0.46 
   1  -2  10    5.67    0.61 
   1  -2  10    5.13    0.53 
  -2   2 -10    8.92    0.63 
  -2   2 -10    8.78    0.67 
  -2   2 -10    8.10    0.70 
  -2   2 -10    8.89    0.43 
   2  -2  10    9.08    0.76 
   2  -2  10    8.30    0.62 
   2  -2  10    8.20    0.62 
   2  -2  10    8.78    0.63 
   2  -2  10    8.24    0.61 
  -3   2 -10    4.07    0.58 
  -3   2 -10    3.84    0.61 
  -3   2 -10    3.73    0.46 
   3  -2  10    3.42    0.58 
   3  -2  10    3.95    0.53 
   3  -2  10    3.13    0.53 
   3  -2  10    4.34    0.57 
   3  -2  10    3.66    0.47 
  -4   2 -10   11.56    0.70 
  -4   2 -10   11.41    0.91 
  -4   2 -10    9.89    0.78 
   4  -2  10    9.79    0.81 
   4  -2  10   10.54    0.90 
   4  -2  10   10.87    0.73 
   4  -2  10   10.76    0.75 
   4   1 -10   15.37    1.00 
   4   1 -10   14.35    0.85 
   4   1 -10   13.91    0.92 
  -4  -1  10   12.33    0.71 
   3   1 -10    0.28    0.31 
   3   1 -10   -0.01    0.30 
   3   1 -10    0.11    0.23 
  -3  -1  10   -0.24    0.23 
   2   1 -10    0.20    0.28 
   2   1 -10    0.64    0.26 
   2   1 -10    0.47    0.23 
   2   1 -10    0.66    0.24 
  -2  -1  10    0.50    0.27 
  -2  -1  10    0.79    0.25 
   1   1 -10    3.33    0.45 
   1   1 -10    4.59    0.54 
   1   1 -10    4.00    0.42 
   1   1 -10    4.19    0.43 
  -1  -1  10    4.41    0.47 
  -1  -1  10    3.76    0.47 
  -1  -1  10    3.55    0.44 
   0   1 -10   11.39    0.72 
   0   1 -10   11.66    0.60 
   0   1 -10   12.08    0.65 
   0  -1  10   11.94    0.50 
   0  -1  10   11.09    0.71 
   0  -1  10   13.17    0.70 
   0  -1  10   12.18    0.71 
   0  -1  10   11.55    0.65 
  -1   1 -10    0.21    0.15 
  -1   1 -10    0.31    0.27 
  -1   1 -10    0.46    0.22 
  -1   1 -10    0.57    0.32 
   1  -1  10    0.45    0.27 
   1  -1  10    0.47    0.29 
   1  -1  10    0.29    0.20 
   1  -1  10    0.16    0.24 
   1  -1  10    0.41    0.26 
  -2   1 -10    0.28    0.29 
  -2   1 -10   -0.19    0.22 
  -2   1 -10   -0.26    0.31 
   2  -1  10    0.43    0.28 
   2  -1  10    0.48    0.28 
   2  -1  10    0.35    0.26 
   2  -1  10    0.63    0.32 
   2  -1  10    0.25    0.26 
  -3   1 -10    9.90    0.78 
  -3   1 -10    9.92    0.54 
  -3   1 -10    8.45    0.71 
   3  -1  10    8.74    0.67 
   3  -1  10   10.33    0.69 
   3  -1  10   10.77    0.69 
   3  -1  10    9.90    0.74 
   3  -1  10   10.56    0.81 
  -4   1 -10    5.33    0.66 
   4  -1  10    4.61    0.70 
   4  -1  10    5.02    0.55 
   4  -1  10    4.73    0.73 
   4  -1  10    5.42    0.58 
   4   0 -10    0.43    0.24 
   4   0 -10   -0.01    0.27 
   4   0 -10    0.64    0.38 
  -4   0  10    0.83    0.30 
   3   0 -10   18.81    1.00 
   3   0 -10   17.78    0.92 
   3   0 -10   17.64    0.78 
   3   0 -10   19.27    0.80 
  -3   0  10   18.86    0.85 
   2   0 -10   43.35    1.35 
   2   0 -10   43.47    1.49 
   2   0 -10   45.17    1.39 
   2   0 -10   43.70    1.54 
  -2   0  10   44.15    1.31 
  -2   0  10   45.13    1.22 
  -2   0  10   42.57    1.39 
   1   0 -10    3.09    0.42 
   1   0 -10    3.33    0.49 
   1   0 -10    2.32    0.35 
   1   0 -10    3.36    0.46 
  -1   0  10    2.35    0.36 
  -1   0  10    2.38    0.39 
  -1   0  10    3.02    0.52 
  -1   0  10    2.12    0.35 
   0   0 -10    0.75    0.28 
   0   0 -10    0.72    0.26 
   0   0 -10    0.68    0.28 
   0   0 -10    0.70    0.22 
   0   0  10    0.65    0.19 
   0   0  10    0.41    0.30 
   0   0  10    0.83    0.29 
   0   0  10    0.99    0.29 
   0   0  10    0.70    0.27 
  -1   0 -10    0.55    0.32 
  -1   0 -10    0.63    0.22 
  -1   0 -10    0.32    0.26 
  -1   0 -10    0.54    0.13 
   1   0  10    0.63    0.30 
   1   0  10    0.56    0.23 
   1   0  10    0.79    0.28 
   1   0  10    0.28    0.24 
   1   0  10    0.44    0.29 
  -2   0 -10    1.19    0.36 
  -2   0 -10    0.67    0.32 
  -2   0 -10    1.28    0.25 
   2   0  10    1.08    0.33 
   2   0  10    0.98    0.34 
   2   0  10    0.56    0.33 
   2   0  10    1.01    0.31 
   2   0  10    0.64    0.28 
  -3   0 -10   23.12    1.05 
  -3   0 -10   21.84    1.08 
   3   0  10   22.55    1.07 
   3   0  10   22.46    0.97 
   3   0  10   22.53    1.04 
   3   0  10   20.92    0.96 
   3   0  10   21.32    1.09 
  -4   0 -10    3.70    0.55 
   4   0  10    4.05    0.58 
   4   0  10    3.19    0.60 
   4   0  10    4.28    0.66 
   4   0  10    4.38    0.56 
   4  -1 -10    3.33    0.56 
   4  -1 -10    2.22    0.38 
   4  -1 -10    3.20    0.56 
  -4   1  10    3.18    0.51 
   3  -1 -10    0.09    0.29 
   3  -1 -10   -0.08    0.21 
   3  -1 -10    0.09    0.27 
   3  -1 -10    0.18    0.21 
  -3   1  10    0.28    0.26 
  -3   1  10    0.31    0.20 
   2  -1 -10   90.05    2.34 
   2  -1 -10   91.38    2.33 
   2  -1 -10   89.65    2.56 
   2  -1 -10   86.19    2.28 
   2  -1 -10   91.59    2.62 
  -2   1  10   90.07    2.39 
  -2   1  10   92.94    2.27 
  -2   1  10   89.08    2.64 
  -2   1  10   88.92    2.10 
   1  -1 -10    0.22    0.26 
   1  -1 -10   -0.04    0.22 
   1  -1 -10    0.03    0.23 
   1  -1 -10    0.37    0.23 
   1  -1 -10   -0.02    0.18 
  -1   1  10    0.10    0.24 
  -1   1  10    0.29    0.24 
  -1   1  10    0.13    0.21 
  -1   1  10    0.25    0.22 
   0  -1 -10    5.69    0.56 
   0  -1 -10    6.23    0.58 
   0  -1 -10    6.41    0.41 
   0  -1 -10    6.65    0.56 
   0   1  10    6.87    0.41 
   0   1  10    5.77    0.52 
   0   1  10    5.89    0.52 
   0   1  10    7.66    0.58 
   0   1  10    6.16    0.64 
  -1  -1 -10   14.38    0.79 
  -1  -1 -10   13.44    0.81 
  -1  -1 -10   15.94    0.57 
   1   1  10   13.93    0.69 
   1   1  10   12.91    0.76 
   1   1  10   13.57    0.75 
   1   1  10   14.33    0.76 
   1   1  10   14.17    0.85 
  -2  -1 -10    0.15    0.28 
  -2  -1 -10    0.30    0.28 
   2   1  10    0.14    0.23 
   2   1  10   -0.05    0.21 
   2   1  10   -0.24    0.28 
   2   1  10   -0.17    0.29 
   2   1  10   -0.06    0.30 
  -3  -1 -10    0.18    0.29 
  -3  -1 -10   -0.02    0.32 
   3   1  10    0.36    0.35 
   3   1  10    0.03    0.31 
   3   1  10    0.48    0.37 
   3   1  10    0.20    0.27 
   3   1  10    0.43    0.26 
   4  -2 -10    6.33    0.73 
   4  -2 -10    7.60    0.78 
   4  -2 -10    7.44    0.63 
  -4   2  10    6.73    0.64 
   3  -2 -10   24.70    0.99 
   3  -2 -10   22.04    1.12 
   3  -2 -10   22.03    0.96 
   3  -2 -10   22.62    1.10 
  -3   2  10   23.52    1.15 
  -3   2  10   23.21    0.94 
  -3   2  10   20.58    0.99 
   2  -2 -10    2.48    0.50 
   2  -2 -10    2.55    0.43 
   2  -2 -10    2.86    0.41 
   2  -2 -10    1.46    0.35 
  -2   2  10    2.37    0.36 
  -2   2  10    3.33    0.50 
  -2   2  10    1.91    0.44 
   1  -2 -10   38.09    1.12 
   1  -2 -10   35.82    1.32 
   1  -2 -10   38.19    1.48 
   1  -2 -10   40.87    1.31 
   1  -2 -10   38.89    1.32 
  -1   2  10   39.28    1.17 
  -1   2  10   36.22    1.30 
  -1   2  10   38.17    1.50 
  -1   2  10   38.15    1.28 
   0  -2 -10    9.12    0.41 
   0  -2 -10    8.60    0.65 
   0  -2 -10    8.77    0.67 
   0  -2 -10    8.60    0.70 
   0   2  10    9.27    0.63 
   0   2  10    7.47    0.57 
   0   2  10    8.66    0.62 
   0   2  10    8.84    0.77 
  -1  -2 -10    5.42    0.56 
  -1  -2 -10    5.86    0.56 
   1   2  10    6.17    0.57 
   1   2  10    5.69    0.55 
   1   2  10    4.75    0.65 
   1   2  10    5.40    0.54 
  -2  -2 -10    4.84    0.62 
  -2  -2 -10    4.45    0.53 
   2   2  10    4.99    0.64 
   2   2  10    4.82    0.60 
   2   2  10    4.55    0.51 
   2   2  10    4.91    0.54 
  -3  -2 -10    6.43    0.69 
   3   2  10    8.58    0.82 
   3   2  10    6.94    0.76 
   3   2  10    8.37    0.66 
   3   2  10    7.25    0.76 
   4  -3 -10   16.02    1.01 
   4  -3 -10   17.46    1.11 
   4  -3 -10   17.33    0.90 
  -4   3  10   16.16    0.91 
  -4   3  10   17.25    1.05 
   3  -3 -10    2.98    0.47 
   3  -3 -10    2.52    0.46 
   3  -3 -10    2.07    0.50 
   3  -3 -10    2.71    0.43 
  -3   3  10    2.20    0.46 
  -3   3  10    2.53    0.44 
  -3   3  10    2.11    0.40 
   2  -3 -10    8.37    0.66 
   2  -3 -10    8.92    0.68 
   2  -3 -10    7.79    0.78 
   2  -3 -10    7.92    0.66 
  -2   3  10    8.35    0.66 
  -2   3  10    8.51    0.67 
  -2   3  10    8.68    0.80 
   1  -3 -10    0.68    0.34 
   1  -3 -10    0.49    0.29 
   1  -3 -10    0.34    0.16 
   1  -3 -10    0.32    0.29 
   1  -3 -10    0.13    0.28 
  -1   3  10    0.44    0.28 
  -1   3  10    0.92    0.34 
  -1   3  10    0.75    0.38 
  -1   3  10    0.41    0.23 
   0  -3 -10    2.78    0.46 
   0  -3 -10    3.38    0.58 
   0  -3 -10    1.93    0.42 
   0  -3 -10    2.27    0.38 
   0   3  10    2.92    0.47 
   0   3  10    1.86    0.38 
   0   3  10    3.48    0.50 
   0   3  10    1.44    0.46 
  -1  -3 -10    5.65    0.53 
  -1  -3 -10    7.03    0.66 
   1   3  10    6.77    0.60 
   1   3  10    5.69    0.70 
   1   3  10    4.90    0.58 
   1   3  10    5.10    0.56 
  -2  -3 -10   -0.30    0.29 
  -2  -3 -10    0.30    0.24 
   2   3  10    0.03    0.25 
   2   3  10    0.03    0.34 
   2   3  10   -0.24    0.30 
   2   3  10    0.09    0.25 
   3  -4 -10    2.07    0.46 
   3  -4 -10    1.92    0.41 
   3  -4 -10    2.56    0.46 
   3  -4 -10    2.65    0.56 
  -3   4  10    1.89    0.50 
  -3   4  10    1.69    0.39 
  -3   4  10    2.02    0.45 
   2  -4 -10    4.91    0.64 
   2  -4 -10    4.44    0.62 
   2  -4 -10    4.47    0.70 
   2  -4 -10    4.45    0.52 
  -2   4  10    4.94    0.62 
  -2   4  10    3.54    0.56 
  -2   4  10    4.53    0.70 
   1  -4 -10    4.75    0.64 
   1  -4 -10    5.02    0.61 
   1  -4 -10    4.64    0.53 
   1  -4 -10    4.81    0.67 
  -1   4  10    3.60    0.56 
  -1   4  10    4.92    0.58 
  -1   4  10    4.71    0.72 
  -1   4  10    5.06    0.44 
   0  -4 -10    9.49    0.78 
   0  -4 -10    9.05    0.79 
   0  -4 -10    9.51    0.57 
   0  -4 -10   10.56    0.76 
   0   4  10    8.84    0.66 
   0   4  10    7.61    0.81 
   0   4  10    9.89    0.71 
   0   4  10    8.69    0.70 
  -1  -4 -10   19.42    1.01 
   1   4  10   16.80    1.09 
   1   4  10   16.93    0.92 
   1   4  10   17.58    0.92 
   1   4  10   18.46    0.97 
   3  -5 -10    0.15    0.37 
   3  -5 -10   -0.20    0.31 
   3  -5 -10    0.29    0.31 
   3  -5 -10   -0.05    0.42 
  -3   5  10    0.45    0.36 
  -3   5  10    0.51    0.35 
  -3   5  10   -0.14    0.43 
   2  -5 -10   23.08    0.98 
   2  -5 -10   20.36    1.09 
   2  -5 -10   23.22    1.33 
   2  -5 -10   23.11    1.15 
  -2   5  10   22.02    1.08 
  -2   5  10   22.22    1.11 
  -2   5  10   21.58    1.28 
   1  -5 -10    9.56    0.80 
   1  -5 -10   10.21    0.95 
   1  -5 -10   11.48    0.88 
  -1   5  10   11.11    0.81 
  -1   5  10   11.19    0.81 
  -1   5  10   11.17    0.99 
   0  -5 -10    0.14    0.39 
   0  -5 -10    0.01    0.37 
   0  -5 -10    0.66    0.42 
   0   5  10    0.44    0.32 
   0   5  10   -0.18    0.40 
   0   5  10    0.47    0.32 
   0   5  10    0.79    0.35 
   0   6 -11    0.24    0.35 
   0   6 -11   -0.12    0.35 
   0   6 -11    0.87    0.42 
   0  -6  11    0.33    0.25 
   0  -6  11    0.21    0.33 
  -1   6 -11    7.66    0.79 
  -1   6 -11    7.29    0.72 
  -1   6 -11    7.37    0.70 
  -1   6 -11    5.83    0.68 
   1  -6  11    7.06    0.73 
   1  -6  11    7.58    0.75 
   1  -6  11    7.38    0.84 
   1  -6  11    7.17    0.72 
   1   5 -11    2.28    0.52 
   1   5 -11    1.71    0.44 
   1   5 -11    2.08    0.47 
  -1  -5  11    3.96    0.58 
   0   5 -11    3.02    0.45 
   0   5 -11    1.80    0.43 
   0   5 -11    2.24    0.45 
   0   5 -11    2.94    0.51 
   0  -5  11    3.38    0.51 
   0  -5  11    2.88    0.43 
   0  -5  11    2.94    0.41 
   0  -5  11    2.42    0.52 
  -1   5 -11    0.47    0.37 
  -1   5 -11    0.35    0.32 
  -1   5 -11    0.05    0.28 
  -1   5 -11    0.59    0.33 
   1  -5  11    0.59    0.34 
   1  -5  11    0.84    0.37 
   1  -5  11   -0.08    0.31 
   1  -5  11    0.19    0.39 
  -2   5 -11   33.90    1.41 
  -2   5 -11   37.50    1.42 
  -2   5 -11   34.93    1.54 
  -2   5 -11   33.23    1.28 
   2  -5  11   35.42    1.48 
   2  -5  11   35.97    1.44 
   2  -5  11   35.99    1.45 
   2  -5  11   36.08    1.38 
  -3   5 -11    2.76    0.51 
  -3   5 -11    2.35    0.55 
  -3   5 -11    3.13    0.59 
   3  -5  11    2.45    0.58 
   3  -5  11    3.02    0.57 
   3  -5  11    2.58    0.55 
   3  -5  11    1.88    0.49 
   2   4 -11    5.17    0.65 
   2   4 -11    6.16    0.67 
   2   4 -11    5.74    0.71 
  -2  -4  11    5.18    0.59 
   1   4 -11    1.28    0.37 
   1   4 -11    1.56    0.44 
   1   4 -11    1.28    0.38 
   1   4 -11    1.57    0.33 
  -1  -4  11    2.41    0.45 
  -1  -4  11    2.42    0.42 
   0   4 -11   12.31    0.80 
   0   4 -11   13.08    0.76 
   0   4 -11   11.83    0.83 
   0   4 -11   13.68    0.79 
   0  -4  11   13.50    0.63 
   0  -4  11   12.51    0.74 
   0  -4  11   12.02    0.83 
   0  -4  11   14.19    0.84 
  -1   4 -11    1.02    0.42 
  -1   4 -11    0.78    0.29 
  -1   4 -11    0.50    0.33 
  -1   4 -11    0.20    0.30 
   1  -4  11    0.76    0.32 
   1  -4  11    0.53    0.33 
   1  -4  11    0.16    0.35 
   1  -4  11    0.48    0.33 
  -2   4 -11    3.57    0.46 
  -2   4 -11    3.10    0.53 
  -2   4 -11    2.84    0.54 
  -2   4 -11    3.63    0.59 
   2  -4  11    2.26    0.47 
   2  -4  11    2.85    0.46 
   2  -4  11    2.91    0.52 
   2  -4  11    3.07    0.51 
  -3   4 -11    2.86    0.52 
  -3   4 -11    1.62    0.44 
  -3   4 -11    1.97    0.48 
   3  -4  11    1.55    0.54 
   3  -4  11    2.72    0.53 
   3  -4  11    2.38    0.48 
   3  -4  11    2.48    0.49 
   3   3 -11    1.48    0.45 
   3   3 -11    0.72    0.36 
  -3  -3  11    1.85    0.38 
   2   3 -11    3.99    0.62 
   2   3 -11    3.43    0.55 
  -2  -3  11    3.32    0.50 
   1   3 -11    0.73    0.31 
   1   3 -11    0.46    0.24 
   1   3 -11    0.33    0.34 
   1   3 -11    0.35    0.33 
  -1  -3  11    0.06    0.25 
  -1  -3  11    0.43    0.29 
  -1  -3  11    0.19    0.25 
   0   3 -11   35.47    1.23 
   0   3 -11   36.86    1.46 
   0   3 -11   38.09    1.29 
   0   3 -11   35.04    1.27 
   0  -3  11   33.75    1.24 
   0  -3  11   36.24    1.31 
   0  -3  11   34.07    1.35 
  -1   3 -11    0.00    0.31 
  -1   3 -11    0.19    0.29 
  -1   3 -11    0.72    0.32 
  -1   3 -11   -0.11    0.21 
   1  -3  11    0.10    0.30 
   1  -3  11    0.56    0.29 
   1  -3  11    0.51    0.30 
   1  -3  11    0.24    0.36 
  -2   3 -11    0.48    0.20 
  -2   3 -11    0.32    0.31 
  -2   3 -11   -0.61    0.26 
  -2   3 -11    0.19    0.34 
   2  -3  11    0.09    0.29 
   2  -3  11    0.28    0.32 
   2  -3  11   -0.09    0.37 
   2  -3  11    0.39    0.34 
  -3   3 -11    0.16    0.33 
  -3   3 -11    0.17    0.36 
  -3   3 -11   -0.61    0.28 
   3  -3  11   -0.07    0.27 
   3  -3  11   -0.17    0.33 
   3  -3  11    0.41    0.42 
   3  -3  11    0.14    0.30 
   3   2 -11    1.02    0.31 
   3   2 -11    0.77    0.34 
   3   2 -11    0.56    0.34 
  -3  -2  11    0.92    0.30 
   2   2 -11    0.30    0.35 
   2   2 -11    0.59    0.30 
   2   2 -11    0.49    0.23 
   2   2 -11    0.38    0.25 
  -2  -2  11    0.36    0.28 
   1   2 -11    7.19    0.50 
   1   2 -11    6.25    0.52 
   1   2 -11    6.85    0.58 
   1   2 -11    6.68    0.66 
  -1  -2  11    6.52    0.56 
  -1  -2  11    5.51    0.57 
  -1  -2  11    6.91    0.59 
   0   2 -11    1.20    0.41 
   0   2 -11    0.85    0.27 
   0   2 -11    0.07    0.25 
   0   2 -11    0.76    0.30 
   0  -2  11    0.79    0.30 
   0  -2  11    0.54    0.28 
   0  -2  11    0.39    0.34 
  -1   2 -11    5.47    0.54 
  -1   2 -11    4.98    0.58 
  -1   2 -11    4.37    0.65 
  -1   2 -11    5.58    0.44 
   1  -2  11    5.73    0.51 
   1  -2  11    5.45    0.57 
   1  -2  11    4.81    0.54 
   1  -2  11    4.58    0.64 
  -2   2 -11    0.71    0.29 
  -2   2 -11    0.71    0.37 
  -2   2 -11    0.40    0.33 
   2  -2  11    0.44    0.31 
   2  -2  11    0.62    0.33 
   2  -2  11    0.34    0.32 
   2  -2  11    0.74    0.40 
   2  -2  11    0.35    0.29 
  -3   2 -11    4.11    0.67 
  -3   2 -11    4.15    0.61 
  -3   2 -11    4.05    0.51 
   3  -2  11    4.89    0.70 
   3  -2  11    6.07    0.57 
   3  -2  11    5.32    0.64 
   3  -2  11    5.18    0.60 
   3  -2  11    4.11    0.62 
   4   1 -11    1.08    0.38 
   4   1 -11    0.70    0.41 
   4   1 -11    0.96    0.41 
  -4  -1  11    0.65    0.33 
   3   1 -11    2.77    0.50 
   3   1 -11    2.35    0.41 
   3   1 -11    2.65    0.48 
  -3  -1  11    3.19    0.50 
   2   1 -11    7.56    0.60 
   2   1 -11    6.51    0.64 
   2   1 -11    6.30    0.60 
   2   1 -11    7.94    0.58 
  -2  -1  11    6.87    0.49 
  -2  -1  11    7.79    0.54 
  -2  -1  11    7.63    0.62 
   1   1 -11    3.56    0.44 
   1   1 -11    3.35    0.56 
   1   1 -11    2.91    0.44 
   1   1 -11    2.85    0.44 
  -1  -1  11    2.63    0.39 
  -1  -1  11    3.20    0.46 
  -1  -1  11    3.60    0.48 
   0   1 -11   22.17    0.89 
   0   1 -11   23.18    1.13 
   0   1 -11   24.61    1.02 
   0   1 -11   22.68    0.96 
   0  -1  11   23.01    1.09 
   0  -1  11   21.56    0.95 
   0  -1  11   24.52    1.07 
   0  -1  11   23.79    1.01 
  -1   1 -11   20.35    0.84 
  -1   1 -11   20.70    0.70 
  -1   1 -11   21.08    1.07 
  -1   1 -11   20.31    0.98 
   1  -1  11   19.79    0.97 
   1  -1  11   18.68    0.98 
   1  -1  11   19.81    0.93 
   1  -1  11   20.75    0.97 
   1  -1  11   19.04    0.81 
  -2   1 -11   39.40    1.41 
  -2   1 -11   36.98    1.48 
  -2   1 -11   34.88    1.15 
   2  -1  11   34.26    1.32 
   2  -1  11   36.69    1.32 
   2  -1  11   36.64    1.38 
   2  -1  11   35.51    1.29 
   2  -1  11   33.80    1.37 
  -3   1 -11    0.23    0.31 
  -3   1 -11    0.27    0.36 
   3  -1  11    0.77    0.38 
   3  -1  11    0.38    0.38 
   3  -1  11    0.52    0.30 
   3  -1  11    0.84    0.34 
   3  -1  11    1.07    0.35 
   4   0 -11    2.47    0.52 
  -4   0  11    2.42    0.42 
   3   0 -11    8.95    0.79 
   3   0 -11    8.29    0.70 
   3   0 -11   10.22    0.72 
  -3   0  11    8.99    0.68 
   2   0 -11   -0.30    0.27 
   2   0 -11    0.36    0.29 
   2   0 -11    0.10    0.26 
   2   0 -11   -0.16    0.21 
  -2   0  11   -0.04    0.14 
  -2   0  11   -0.12    0.24 
  -2   0  11   -0.11    0.23 
   1   0 -11   -0.17    0.23 
   1   0 -11    0.00    0.22 
   1   0 -11   -0.04    0.25 
   1   0 -11   -0.04    0.28 
  -1   0  11    0.60    0.29 
  -1   0  11    0.15    0.28 
  -1   0  11   -0.34    0.22 
  -1   0  11   -0.04    0.32 
   0   0 -11   45.63    1.35 
   0   0 -11   42.59    1.59 
   0   0 -11   44.09    1.56 
   0   0 -11   47.64    1.52 
   0   0  11   45.91    1.47 
   0   0  11   47.00    1.47 
   0   0  11   47.81    1.52 
   0   0  11   46.20    1.63 
  -1   0 -11    5.30    0.46 
  -1   0 -11    5.74    0.59 
  -1   0 -11    4.99    0.63 
   1   0  11    4.26    0.59 
   1   0  11    4.37    0.54 
   1   0  11    4.16    0.59 
   1   0  11    5.25    0.55 
   1   0  11    4.33    0.46 
  -2   0 -11    0.72    0.34 
  -2   0 -11    0.01    0.32 
   2   0  11    0.55    0.35 
   2   0  11    0.61    0.32 
   2   0  11    0.47    0.33 
   2   0  11    0.07    0.28 
   2   0  11    0.29    0.27 
  -3   0 -11    1.20    0.40 
  -3   0 -11    0.16    0.32 
   3   0  11    0.38    0.36 
   3   0  11    0.70    0.41 
   3   0  11    0.48    0.32 
   3   0  11    0.41    0.29 
   4  -1 -11    0.50    0.37 
   4  -1 -11   -0.01    0.33 
   4  -1 -11   -0.14    0.24 
  -4   1  11    0.24    0.30 
   3  -1 -11    5.29    0.53 
   3  -1 -11    5.14    0.66 
   3  -1 -11    7.47    0.59 
   3  -1 -11    6.41    0.66 
  -3   1  11    7.12    0.63 
   2  -1 -11    6.27    0.57 
   2  -1 -11    6.52    0.67 
   2  -1 -11    6.97    0.55 
   2  -1 -11    8.05    0.63 
   2  -1 -11    6.23    0.66 
  -2   1  11    6.49    0.58 
  -2   1  11    7.12    0.61 
  -2   1  11    7.38    0.70 
   1  -1 -11   36.48    1.39 
   1  -1 -11   36.33    1.32 
   1  -1 -11   37.01    1.45 
   1  -1 -11   37.05    1.17 
  -1   1  11   37.37    1.19 
  -1   1  11   36.58    1.27 
  -1   1  11   36.71    1.46 
  -1   1  11   37.91    1.34 
   0  -1 -11    0.34    0.31 
   0  -1 -11   -0.08    0.25 
   0  -1 -11    0.17    0.22 
   0  -1 -11    0.39    0.28 
   0   1  11    0.07    0.28 
   0   1  11    0.24    0.28 
   0   1  11    0.35    0.34 
   0   1  11    0.15    0.16 
   0   1  11   -0.23    0.24 
  -1  -1 -11    6.73    0.67 
  -1  -1 -11    5.95    0.65 
   1   1  11    6.19    0.62 
   1   1  11    6.95    0.61 
   1   1  11    6.62    0.55 
   1   1  11    7.38    0.64 
   1   1  11    6.06    0.69 
  -2  -1 -11   -0.11    0.29 
  -2  -1 -11    0.33    0.32 
   2   1  11   -0.13    0.26 
   2   1  11   -0.06    0.24 
   2   1  11   -0.14    0.31 
   2   1  11    0.25    0.33 
   2   1  11    0.02    0.30 
  -3  -1 -11    2.81    0.52 
  -3  -1 -11    3.42    0.56 
   3   1  11    3.61    0.60 
   3   1  11    3.93    0.54 
   3   1  11    3.33    0.56 
   3   1  11    3.53    0.54 
   4  -2 -11    0.25    0.29 
   4  -2 -11    0.02    0.35 
   4  -2 -11   -0.13    0.38 
  -4   2  11   -0.07    0.32 
   3  -2 -11    8.45    0.77 
   3  -2 -11    8.99    0.78 
   3  -2 -11    7.74    0.64 
  -3   2  11    7.40    0.80 
  -3   2  11    9.05    0.73 
  -3   2  11    8.86    0.62 
   2  -2 -11    0.57    0.29 
   2  -2 -11    0.17    0.27 
   2  -2 -11    0.72    0.34 
   2  -2 -11    0.29    0.34 
   2  -2 -11    0.62    0.27 
  -2   2  11    0.22    0.28 
  -2   2  11    0.17    0.30 
  -2   2  11    0.58    0.40 
   1  -2 -11   25.92    1.15 
   1  -2 -11   25.56    1.24 
   1  -2 -11   26.98    0.93 
   1  -2 -11   28.25    1.14 
   1  -2 -11   28.87    1.16 
  -1   2  11   27.31    1.30 
  -1   2  11   31.59    1.20 
  -1   2  11   28.21    0.95 
  -1   2  11   27.59    1.11 
   0  -2 -11    7.96    0.75 
   0  -2 -11    9.80    0.74 
   0  -2 -11    8.64    0.68 
   0   2  11    8.92    0.51 
   0   2  11    7.76    0.62 
   0   2  11    9.62    0.82 
   0   2  11   10.12    0.72 
   0   2  11    8.95    0.70 
  -1  -2 -11   14.65    0.84 
  -1  -2 -11   17.04    0.95 
   1   2  11   16.24    0.99 
   1   2  11   16.21    0.86 
   1   2  11   17.03    0.86 
   1   2  11   15.40    0.87 
   1   2  11   15.94    0.87 
  -2  -2 -11   10.24    0.76 
  -2  -2 -11   12.14    0.84 
   2   2  11   12.96    0.84 
   2   2  11   10.86    0.76 
   2   2  11   11.79    0.74 
   2   2  11   10.13    0.87 
   2   2  11   11.95    0.85 
   3  -3 -11    2.26    0.46 
   3  -3 -11    2.77    0.49 
   3  -3 -11    2.46    0.43 
   3  -3 -11    3.18    0.59 
  -3   3  11    2.57    0.45 
  -3   3  11    1.79    0.41 
  -3   3  11    1.56    0.46 
   2  -3 -11    9.03    0.74 
   2  -3 -11    9.86    0.62 
   2  -3 -11    9.83    0.73 
   2  -3 -11    8.97    0.84 
   2  -3 -11   10.98    0.79 
  -2   3  11    8.39    0.84 
  -2   3  11   11.29    0.80 
  -2   3  11   10.35    0.74 
   1  -3 -11   25.30    1.11 
   1  -3 -11   23.81    1.24 
   1  -3 -11   24.44    1.08 
   1  -3 -11   24.87    1.13 
  -1   3  11   22.77    1.06 
  -1   3  11   25.50    0.92 
  -1   3  11   25.08    1.11 
  -1   3  11   22.77    1.23 
   0  -3 -11    4.67    0.68 
   0  -3 -11    5.59    0.65 
   0  -3 -11    4.24    0.57 
   0   3  11    4.65    0.61 
   0   3  11    4.85    0.57 
   0   3  11    5.17    0.73 
   0   3  11    4.51    0.60 
  -1  -3 -11    1.96    0.47 
  -1  -3 -11    1.95    0.41 
   1   3  11    1.74    0.42 
   1   3  11    2.42    0.44 
   1   3  11    2.66    0.47 
   1   3  11    2.22    0.53 
   3  -4 -11   -0.05    0.37 
   3  -4 -11   -0.15    0.32 
   3  -4 -11    1.26    0.41 
   3  -4 -11    0.39    0.45 
  -3   4  11   -0.08    0.34 
  -3   4  11    0.12    0.43 
  -3   4  11    0.04    0.32 
   2  -4 -11    0.63    0.40 
   2  -4 -11    1.04    0.39 
   2  -4 -11    0.30    0.34 
   2  -4 -11    0.91    0.43 
  -2   4  11    0.46    0.36 
  -2   4  11    0.92    0.46 
  -2   4  11    0.97    0.38 
   1  -4 -11   34.92    1.41 
   1  -4 -11   34.82    1.60 
   1  -4 -11   34.48    1.36 
   1  -4 -11   34.24    1.28 
  -1   4  11   33.23    1.34 
  -1   4  11   33.41    1.54 
  -1   4  11   34.23    1.38 
   0  -4 -11   10.09    0.84 
   0  -4 -11    8.48    0.77 
   0  -4 -11    8.60    0.87 
   0   4  11    8.48    0.73 
   0   4  11    9.68    0.72 
   0   4  11    7.78    0.72 
   0   4  11    9.05    0.92 
   0   5 -12    0.02    0.28 
   0   5 -12    0.11    0.36 
   0   5 -12    0.30    0.35 
   0   5 -12    0.24    0.37 
   0  -5  12    0.26    0.42 
   0  -5  12    0.54    0.30 
   0  -5  12    0.72    0.39 
  -1   5 -12    0.17    0.39 
  -1   5 -12    0.20    0.33 
  -1   5 -12    0.53    0.40 
  -1   5 -12    0.89    0.37 
   1  -5  12    0.45    0.45 
   1  -5  12    0.10    0.34 
   1  -5  12    0.29    0.31 
   1  -5  12    0.55    0.38 
   1   4 -12    0.85    0.43 
   1   4 -12    1.05    0.38 
   1   4 -12    1.02    0.36 
  -1  -4  12    1.29    0.41 
  -1  -4  12    1.27    0.39 
   0   4 -12    0.01    0.33 
   0   4 -12    0.05    0.29 
   0   4 -12   -0.09    0.30 
   0   4 -12    0.34    0.31 
   0  -4  12    0.21    0.33 
   0  -4  12    0.46    0.39 
   0  -4  12   -0.06    0.31 
  -1   4 -12    3.44    0.48 
  -1   4 -12    4.29    0.63 
  -1   4 -12    3.21    0.50 
  -1   4 -12    4.68    0.65 
   1  -4  12    5.00    0.76 
   1  -4  12    3.90    0.55 
   1  -4  12    3.57    0.55 
   1  -4  12    4.44    0.64 
  -2   4 -12    5.44    0.70 
  -2   4 -12    4.94    0.74 
  -2   4 -12    4.89    0.70 
   2  -4  12    3.98    0.64 
   2  -4  12    5.85    0.70 
   2  -4  12    5.36    0.73 
   2  -4  12    5.19    0.81 
   2   3 -12   13.55    0.93 
   2   3 -12   12.58    0.86 
   2   3 -12   12.07    0.87 
  -2  -3  12   13.95    0.81 
   1   3 -12    0.41    0.33 
   1   3 -12   -0.20    0.30 
   1   3 -12    0.26    0.31 
   1   3 -12    0.34    0.29 
  -1  -3  12    0.19    0.24 
  -1  -3  12    0.18    0.30 
  -1  -3  12    0.10    0.30 
   0   3 -12    0.78    0.34 
   0   3 -12    1.06    0.40 
   0   3 -12    0.66    0.31 
   0   3 -12    0.63    0.32 
   0  -3  12    1.39    0.41 
   0  -3  12    1.23    0.42 
   0  -3  12    0.84    0.36 
  -1   3 -12    3.79    0.45 
  -1   3 -12    4.61    0.64 
  -1   3 -12    3.96    0.60 
  -1   3 -12    2.95    0.47 
   1  -3  12    4.21    0.60 
   1  -3  12    4.99    0.63 
   1  -3  12    4.12    0.49 
   1  -3  12    4.22    0.70 
  -2   3 -12    1.04    0.39 
  -2   3 -12    0.28    0.34 
  -2   3 -12    0.41    0.35 
   2  -3  12    0.54    0.35 
   2  -3  12    0.89    0.48 
   2  -3  12    0.74    0.39 
   2  -3  12    1.25    0.41 
   3   2 -12    0.66    0.43 
   3   2 -12    1.23    0.47 
  -3  -2  12    1.33    0.38 
   2   2 -12    8.74    0.74 
   2   2 -12    9.69    0.84 
   2   2 -12    9.55    0.63 
  -2  -2  12    9.47    0.71 
   1   2 -12   22.29    0.93 
   1   2 -12   22.70    1.16 
   1   2 -12   23.63    1.02 
   1   2 -12   24.36    1.05 
  -1  -2  12   22.83    1.06 
  -1  -2  12   24.97    1.01 
  -1  -2  12   21.53    0.97 
   0   2 -12    4.10    0.60 
   0   2 -12    4.33    0.51 
   0   2 -12    4.52    0.61 
   0   2 -12    4.00    0.47 
   0  -2  12    3.54    0.49 
   0  -2  12    5.32    0.61 
   0  -2  12    3.84    0.54 
  -1   2 -12    3.95    0.55 
  -1   2 -12    3.36    0.48 
  -1   2 -12    3.11    0.57 
  -1   2 -12    2.82    0.34 
   1  -2  12    2.51    0.47 
   1  -2  12    2.58    0.46 
   1  -2  12    3.42    0.42 
   1  -2  12    4.06    0.66 
  -2   2 -12    4.22    0.69 
  -2   2 -12    4.93    0.58 
  -2   2 -12    6.24    0.72 
   2  -2  12    5.15    0.64 
   2  -2  12    4.15    0.61 
   2  -2  12    3.56    0.57 
   2  -2  12    4.11    0.56 
  -3   2 -12    4.39    0.69 
  -3   2 -12    4.83    0.73 
  -3   2 -12    4.40    0.53 
   3  -2  12    3.27    0.64 
   3  -2  12    4.03    0.61 
   3  -2  12    3.94    0.58 
   3  -2  12    5.35    0.65 
   3  -2  12    5.55    0.72 
   3   1 -12    1.27    0.42 
   3   1 -12    2.08    0.51 
   3   1 -12    1.89    0.41 
  -3  -1  12    1.79    0.39 
   2   1 -12    0.23    0.27 
   2   1 -12    0.11    0.29 
   2   1 -12    0.30    0.34 
   2   1 -12    0.17    0.24 
  -2  -1  12    0.03    0.18 
  -2  -1  12    0.18    0.28 
  -2  -1  12    0.18    0.22 
   1   1 -12    0.98    0.35 
   1   1 -12    0.05    0.33 
   1   1 -12    0.53    0.24 
   1   1 -12    0.59    0.29 
  -1  -1  12    0.50    0.31 
  -1  -1  12    1.12    0.34 
  -1  -1  12    0.73    0.32 
   0   1 -12    0.77    0.35 
   0   1 -12    1.46    0.44 
   0   1 -12    1.45    0.35 
   0   1 -12    1.67    0.35 
   0   1 -12    1.55    0.30 
   0  -1  12    1.50    0.40 
   0  -1  12    2.33    0.45 
   0  -1  12    1.82    0.39 
   0  -1  12    0.75    0.39 
  -1   1 -12   19.39    0.87 
  -1   1 -12   17.76    1.08 
  -1   1 -12   20.18    1.02 
   1  -1  12   19.76    0.97 
   1  -1  12   19.87    1.04 
   1  -1  12   22.02    1.09 
   1  -1  12   19.88    1.01 
   1  -1  12   21.12    0.82 
  -2   1 -12   14.35    0.95 
  -2   1 -12   14.70    0.72 
  -2   1 -12   15.60    0.95 
   2  -1  12   15.95    0.95 
   2  -1  12   14.02    0.94 
   2  -1  12   15.68    0.90 
   2  -1  12   14.87    0.88 
   2  -1  12   14.68    0.86 
   3   0 -12    1.02    0.42 
   3   0 -12    1.01    0.37 
   3   0 -12    0.78    0.38 
  -3   0  12    1.17    0.37 
   2   0 -12    4.88    0.56 
   2   0 -12    4.90    0.66 
   2   0 -12    4.37    0.54 
   2   0 -12    5.72    0.58 
  -2   0  12    5.69    0.61 
  -2   0  12    4.63    0.53 
   1   0 -12    0.83    0.37 
   1   0 -12    1.38    0.35 
   1   0 -12    1.80    0.36 
   1   0 -12    1.38    0.38 
  -1   0  12    1.23    0.33 
  -1   0  12    1.27    0.35 
  -1   0  12    1.09    0.35 
  -1   0  12    1.08    0.39 
   0   0 -12    4.96    0.49 
   0   0 -12    4.80    0.61 
   0   0 -12    4.83    0.56 
   0   0 -12    4.74    0.61 
   0   0  12    3.57    0.56 
   0   0  12    4.08    0.56 
   0   0  12    4.77    0.66 
   0   0  12    4.39    0.60 
  -1   0 -12    5.26    0.68 
  -1   0 -12    5.84    0.67 
  -1   0 -12    6.29    0.47 
   1   0  12    5.74    0.48 
   1   0  12    4.65    0.66 
   1   0  12    6.35    0.64 
   1   0  12    4.94    0.60 
   1   0  12    6.02    0.70 
  -2   0 -12   16.09    0.99 
  -2   0 -12   14.86    0.98 
   2   0  12   15.47    0.91 
   2   0  12   15.57    0.87 
   2   0  12   14.01    0.93 
   2   0  12   16.33    0.92 
   2   0  12   17.60    1.03 
   3  -1 -12    0.21    0.27 
   3  -1 -12    0.14    0.32 
   3  -1 -12    0.39    0.35 
   3  -1 -12    0.38    0.39 
  -3   1  12    0.42    0.35 
   2  -1 -12    0.64    0.37 
   2  -1 -12    0.62    0.32 
   2  -1 -12    0.74    0.33 
   2  -1 -12    1.04    0.33 
  -2   1  12    0.42    0.30 
  -2   1  12    0.47    0.32 
  -2   1  12    0.90    0.43 
   1  -1 -12    0.09    0.28 
   1  -1 -12    0.33    0.34 
   1  -1 -12    0.05    0.24 
   1  -1 -12    0.37    0.30 
  -1   1  12    0.48    0.37 
  -1   1  12    0.17    0.31 
  -1   1  12    0.19    0.28 
  -1   1  12   -0.05    0.25 
   0  -1 -12    0.95    0.40 
   0  -1 -12    1.23    0.26 
   0  -1 -12    0.79    0.33 
   0  -1 -12    1.42    0.40 
   0   1  12    0.93    0.41 
   0   1  12    1.07    0.36 
   0   1  12    1.13    0.38 
   0   1  12    1.26    0.39 
  -1  -1 -12    6.96    0.70 
  -1  -1 -12    4.92    0.64 
   1   1  12    5.06    0.62 
   1   1  12    4.42    0.57 
   1   1  12    6.06    0.74 
   1   1  12    5.57    0.50 
   1   1  12    5.97    0.65 
  -2  -1 -12   -0.10    0.32 
  -2  -1 -12    0.23    0.36 
   2   1  12    0.25    0.38 
   2   1  12    0.39    0.32 
   2   1  12    0.11    0.32 
   2   1  12    0.60    0.35 
   2   1  12    0.01    0.39 
   3  -2 -12   21.16    1.19 
   3  -2 -12   21.90    1.05 
   3  -2 -12   21.00    1.04 
   3  -2 -12   21.65    1.05 
   3  -2 -12   21.83    1.18 
  -3   2  12   21.36    0.96 
  -3   2  12   21.30    1.08 
  -3   2  12   22.23    1.26 
   2  -2 -12    2.10    0.38 
   2  -2 -12    1.57    0.43 
   2  -2 -12    1.25    0.36 
   2  -2 -12    2.18    0.50 
   2  -2 -12    2.02    0.44 
  -2   2  12    1.27    0.44 
  -2   2  12    1.52    0.41 
  -2   2  12    1.05    0.37 
   1  -2 -12    4.60    0.65 
   1  -2 -12    4.19    0.62 
   1  -2 -12    4.64    0.40 
   1  -2 -12    4.17    0.64 
  -1   2  12    4.80    0.73 
  -1   2  12    4.23    0.56 
  -1   2  12    3.88    0.60 
   0  -2 -12   11.76    0.86 
   0  -2 -12   10.35    0.79 
   0  -2 -12   12.74    0.91 
   0   2  12   12.15    0.82 
   0   2  12    9.60    0.76 
   0   2  12   11.57    0.94 
   0   2  12   10.55    0.73 
  -1  -2 -12   10.98    0.84 
  -1  -2 -12    9.27    0.76 
   1   2  12   10.25    0.79 
   1   2  12   11.19    0.79 
   1   2  12   10.13    0.90 
   1   2  12    9.99    0.78 
   1   2  12    9.72    0.65 
   2  -3 -12   14.38    0.69 
   2  -3 -12   14.00    0.92 
   2  -3 -12   13.91    1.03 
   2  -3 -12   12.62    0.88 
   2  -3 -12   13.10    0.92 
  -2   3  12   13.87    0.91 
  -2   3  12   12.99    0.90 
  -2   3  12   14.25    1.07 
   1  -3 -12   15.69    0.94 
   1  -3 -12   14.90    1.06 
   1  -3 -12   15.46    0.95 
   1  -3 -12   16.06    0.97 
  -1   3  12   15.95    0.95 
  -1   3  12   16.71    0.96 
  -1   3  12   16.00    1.12 
   0  -3 -12    9.30    0.83 
   0  -3 -12    9.46    0.88 
   0  -3 -12    8.95    0.77 
   0   3  12    8.64    0.76 
   0   3  12   10.45    0.89 
   0   3  12    8.66    0.74 
   0   3  12   10.63    0.82 
   1   3 -13   23.86    1.29 
   1   3 -13   25.44    1.15 
   1   3 -13   23.12    1.15 
  -1  -3  13   23.74    1.12 
  -1  -3  13   23.21    1.14 
   0   3 -13    0.34    0.34 
   0   3 -13    0.45    0.32 
   0   3 -13    0.38    0.38 
   0   3 -13    0.71    0.39 
   0  -3  13    0.49    0.42 
   0  -3  13    0.52    0.39 
   0  -3  13    0.16    0.32 
  -1   3 -13    0.42    0.37 
  -1   3 -13   -0.21    0.36 
  -1   3 -13   -0.22    0.35 
   1  -3  13   -0.03    0.31 
   1  -3  13   -0.44    0.42 
   1  -3  13   -0.40    0.37 
   2   2 -13    1.59    0.46 
   2   2 -13    1.87    0.46 
  -2  -2  13    1.33    0.41 
   1   2 -13    8.22    0.60 
   1   2 -13    7.31    0.66 
   1   2 -13    7.85    0.80 
   1   2 -13    8.58    0.71 
   1   2 -13    7.65    0.68 
  -1  -2  13    7.22    0.70 
  -1  -2  13    7.77    0.73 
  -1  -2  13    7.22    0.70 
   0   2 -13    3.04    0.51 
   0   2 -13    2.37    0.47 
   0   2 -13    2.55    0.55 
   0   2 -13    2.22    0.38 
   0  -2  13    1.95    0.44 
   0  -2  13    2.11    0.51 
   0  -2  13    2.78    0.49 
  -1   2 -13   -0.09    0.37 
  -1   2 -13   -0.06    0.33 
  -1   2 -13   -0.38    0.32 
   1  -2  13    0.12    0.43 
   1  -2  13    0.25    0.32 
   1  -2  13   -0.52    0.28 
   2   1 -13    1.12    0.41 
   2   1 -13    0.82    0.40 
   2   1 -13    0.92    0.37 
   2   1 -13    0.97    0.35 
  -2  -1  13    1.41    0.42 
   1   1 -13    4.12    0.60 
   1   1 -13    5.23    0.56 
   1   1 -13    3.53    0.61 
   1   1 -13    3.41    0.53 
  -1  -1  13    3.99    0.53 
  -1  -1  13    4.73    0.61 
  -1  -1  13    3.29    0.50 
   0   1 -13   -0.33    0.31 
   0   1 -13    0.16    0.19 
   0   1 -13   -0.03    0.37 
   0   1 -13    0.28    0.29 
   0  -1  13    0.46    0.39 
   0  -1  13   -0.34    0.30 
   0  -1  13    0.35    0.31 
  -1   1 -13    5.12    0.71 
  -1   1 -13    5.19    0.70 
  -1   1 -13    5.50    0.60 
   1  -1  13    5.68    0.75 
   1  -1  13    4.69    0.65 
   1  -1  13    4.69    0.68 
   1  -1  13    4.30    0.64 
   2   0 -13    0.20    0.33 
   2   0 -13    0.15    0.38 
   2   0 -13    0.36    0.31 
  -2   0  13   -0.01    0.29 
  -2   0  13    0.75    0.29 
   1   0 -13    1.24    0.41 
   1   0 -13    1.60    0.42 
   1   0 -13    1.15    0.35 
   1   0 -13    1.64    0.48 
  -1   0  13    1.43    0.42 
  -1   0  13    1.35    0.39 
  -1   0  13    1.59    0.49 
  -1   0  13    1.72    0.43 
   0   0 -13    2.02    0.43 
   0   0 -13    2.64    0.55 
   0   0 -13    2.83    0.43 
   0   0 -13    2.75    0.48 
   0   0  13    2.38    0.52 
   0   0  13    2.20    0.46 
   0   0  13    2.26    0.52 
   0   0  13    3.34    0.53 
  -1   0 -13    2.44    0.53 
  -1   0 -13    3.09    0.55 
   1   0  13    2.38    0.49 
   1   0  13    2.58    0.53 
   1   0  13    2.13    0.46 
   1   0  13    3.26    0.59 
   2  -1 -13   15.30    0.88 
   2  -1 -13   12.72    0.80 
   2  -1 -13   13.07    0.92 
   2  -1 -13   12.06    0.95 
  -2   1  13   11.60    0.87 
  -2   1  13   12.99    0.86 
  -2   1  13   12.84    1.04 
   1  -1 -13    0.11    0.32 
   1  -1 -13    0.28    0.38 
   1  -1 -13    0.39    0.28 
   1  -1 -13    0.64    0.35 
  -1   1  13    0.12    0.34 
  -1   1  13    0.65    0.44 
  -1   1  13    0.61    0.36 
   0  -1 -13    9.98    0.89 
   0  -1 -13   10.25    0.85 
   0  -1 -13    9.82    0.82 
   0   1  13    9.55    0.77 
   0   1  13   10.43    0.81 
   0   1  13    9.45    0.80 
   0   1  13   10.26    0.93 
  -1  -1 -13    1.97    0.53 
  -1  -1 -13    0.84    0.42 
   1   1  13    1.42    0.47 
   1   1  13    1.58    0.47 
   1   1  13    1.40    0.50 
   1   1  13    0.87    0.37 
   1  -2 -13    5.70    0.75 
   1  -2 -13    5.82    0.74 
   1  -2 -13    7.98    0.82 
  -1   2  13    8.00    0.89 
  -1   2  13    6.81    0.75 
  -1   2  13    6.36    0.73 
   0   0   0    0.00    0.00 
;
_shelx_hkl_checksum              62215
loop_
_space_group_symop_operation_xyz
'x, y, z'
'-x, -y, -z'
loop_
_atom_site_label
_atom_site_type_symbol
_atom_site_fract_x
_atom_site_fract_y
_atom_site_fract_z
_atom_site_U_iso_or_equiv
_atom_site_adp_type
_atom_site_occupancy
_atom_site_site_symmetry_order
_atom_site_calc_flag
_atom_site_refinement_flags_posn
_atom_site_refinement_flags_adp
C1 C 0.4131(4) 1.2568(3) 0.94473(17) 0.0182(5) Uani 1 1 d . .
H1A H 0.3466 1.3416 0.9949 0.022 Uiso 1 1 calc R U
H1B H 0.5211 1.2078 0.9937 0.022 Uiso 1 1 calc R U
C2 C 0.2061(4) 1.1073(3) 0.89082(17) 0.0163(4) Uani 1 1 d . .
C3 C -0.0355(4) 1.0940(3) 0.86802(19) 0.0209(5) Uani 1 1 d . .
H3 H -0.1162 1.1867 0.8839 0.025 Uiso 1 1 calc R U
C4 C -0.1468(4) 0.9155(3) 0.81571(19) 0.0208(5) Uani 1 1 d . .
H4 H -0.3149 0.8665 0.7897 0.025 Uiso 1 1 calc R U
C5 C 0.0337(4) 0.8297(3) 0.81038(17) 0.0171(4) Uani 1 1 d . .
C6 C 0.0313(4) 0.6390(3) 0.77132(18) 0.0191(5) Uani 1 1 d . .
H6 H -0.1323 0.5783 0.7299 0.023 Uiso 1 1 calc R U
C7 C 0.2313(4) 0.6280(3) 0.68821(18) 0.0187(5) Uani 1 1 d . .
C8 C 0.2122(4) 0.6993(3) 0.57982(19) 0.0242(5) Uani 1 1 d . .
C9 C 0.0279(4) 0.7577(3) 0.53411(18) 0.0230(5) Uani 1 1 d . .
H9 H -0.1187 0.7657 0.5691 0.028 Uiso 1 1 calc R U
C10 C 0.0933(5) 0.8043(4) 0.4252(2) 0.0377(6) Uani 1 1 d . .
H10 H -0.0017 0.8489 0.3723 0.045 Uiso 1 1 calc R U
C11 C 0.3137(5) 0.7746(4) 0.4096(2) 0.0377(6) Uani 1 1 d . .
H11 H 0.4028 0.7954 0.3432 0.045 Uiso 1 1 calc R U
O1 O 0.5576(3) 1.35339(19) 0.86191(13) 0.0206(4) Uani 1 1 d . .
H1 H 0.4720 1.4072 0.8261 0.031 Uiso 1 1 calc R U
O2 O 0.2550(3) 0.94438(18) 0.85563(12) 0.0164(3) Uani 1 1 d . .
O3 O 0.0636(3) 0.5421(2) 0.86489(13) 0.0250(4) Uani 1 1 d . .
H3A H -0.0744 0.4833 0.8823 0.037 Uiso 1 1 calc R U
O4 O 0.4013(3) 0.5630(2) 0.71197(13) 0.0245(4) Uani 1 1 d . .
O5 O 0.3920(3) 0.7083(3) 0.50607(17) 0.0413(5) Uani 1 1 d . .
loop_
_atom_site_aniso_label
_atom_site_aniso_U_11
_atom_site_aniso_U_22
_atom_site_aniso_U_33
_atom_site_aniso_U_23
_atom_site_aniso_U_13
_atom_site_aniso_U_12
C1 0.0201(11) 0.0153(10) 0.0188(10) 0.0025(8) 0.0036(8) 0.0038(8)
C2 0.0203(11) 0.0131(10) 0.0169(10) 0.0037(8) 0.0044(8) 0.0059(8)
C3 0.0194(11) 0.0166(11) 0.0290(12) 0.0039(9) 0.0042(9) 0.0081(9)
C4 0.0141(10) 0.0182(11) 0.0297(12) 0.0035(9) -0.0006(8) 0.0034(8)
C5 0.0142(10) 0.0156(10) 0.0197(10) 0.0032(8) 0.0007(8) 0.0003(8)
C6 0.0159(11) 0.0152(10) 0.0255(11) 0.0035(8) -0.0012(8) 0.0026(8)
C7 0.0185(11) 0.0102(10) 0.0246(11) -0.0025(8) -0.0034(9) 0.0013(8)
C8 0.0305(13) 0.0168(11) 0.0228(11) -0.0022(9) 0.0002(9) 0.0039(9)
C9 0.0303(12) 0.0252(11) 0.0197(11) 0.0050(9) 0.0066(9) 0.0170(10)
C10 0.0534(18) 0.0348(14) 0.0287(13) 0.0087(11) -0.0019(12) 0.0176(13)
C11 0.0523(18) 0.0330(14) 0.0262(13) 0.0016(10) 0.0124(12) 0.0075(12)
O1 0.0193(8) 0.0182(8) 0.0248(8) 0.0071(6) 0.0035(6) 0.0041(6)
O2 0.0143(7) 0.0130(7) 0.0216(8) 0.0011(6) 0.0005(6) 0.0036(6)
O3 0.0256(9) 0.0183(8) 0.0315(9) 0.0106(6) 0.0041(7) 0.0034(7)
O4 0.0192(8) 0.0255(8) 0.0302(9) 0.0022(7) -0.0010(6) 0.0093(7)
O5 0.0387(11) 0.0407(11) 0.0445(11) 0.0036(9) 0.0059(9) 0.0107(9)
loop_
_atom_type_symbol
_atom_type_description
_atom_type_scat_dispersion_real
_atom_type_scat_dispersion_imag
_atom_type_scat_source
C C 0.0033 0.0016 'International Tables Vol C Tables 4.2.6.8 and 6.1.1.4'
H H 0.0000 0.0000 'International Tables Vol C Tables 4.2.6.8 and 6.1.1.4'
O O 0.0106 0.0060 'International Tables Vol C Tables 4.2.6.8 and 6.1.1.4'
loop_
_geom_angle_atom_site_label_1
_geom_angle_atom_site_label_2
_geom_angle_atom_site_label_3
_geom_angle
O1 C1 C2 112.95(17)
C3 C2 O2 109.55(18)
C3 C2 C1 132.52(19)
O2 C2 C1 117.93(17)
C2 C3 C4 107.39(18)
C5 C4 C3 106.47(19)
C4 C5 O2 110.36(18)
C4 C5 C6 132.17(19)
O2 C5 C6 117.39(17)
O3 C6 C5 112.29(17)
O3 C6 C7 108.44(16)
C5 C6 C7 111.69(17)
O4 C7 C8 121.1(2)
O4 C7 C6 121.89(19)
C8 C7 C6 117.01(18)
C9 C8 O5 110.0(2)
C9 C8 C7 129.3(2)
O5 C8 C7 120.6(2)
C8 C9 C10 107.1(2)
C11 C10 C9 107.3(2)
C10 C11 O5 109.2(2)
C5 O2 C2 106.23(15)
C8 O5 C11 106.31(19)
loop_
_geom_bond_atom_site_label_1
_geom_bond_atom_site_label_2
_geom_bond_distance
C1 O1 1.439(2)
C1 C2 1.483(3)
C2 C3 1.351(3)
C2 O2 1.384(2)
C3 C4 1.425(3)
C4 C5 1.349(3)
C5 O2 1.380(2)
C5 C6 1.497(3)
C6 O3 1.424(3)
C6 C7 1.532(3)
C7 O4 1.225(3)
C7 C8 1.449(3)
C8 C9 1.347(3)
C8 O5 1.351(3)
C9 C10 1.401(3)
C10 C11 1.335(4)
C11 O5 1.391(3)
