#------------------------------------------------------------------------------
#$Date: 2020-08-04 05:10:40 +0300 (Tue, 04 Aug 2020) $
#$Revision: 254764 $
#$URL: file:///home/coder/svn-repositories/cod/cif/4/51/78/4517845.cif $
#------------------------------------------------------------------------------
#
# This file is available in the Crystallography Open Database (COD),
# http://www.crystallography.net/
#
# All data on this site have been placed in the public domain by the
# contributors.
#
data_4517845
loop_
_publ_author_name
'Pisarek, Joanna'
'Malinska, Maura'
_publ_section_title
;
 Structure and Morphology of Indole Analogue Crystals.
;
_journal_issue                   28
_journal_name_full               'ACS omega'
_journal_page_first              17141
_journal_page_last               17151
_journal_paper_doi               10.1021/acsomega.0c01020
_journal_volume                  5
_journal_year                    2020
_chemical_formula_moiety         'C8 H6 N2 O2'
_chemical_formula_sum            'C8 H6 N2 O2'
_chemical_formula_weight         162.15
_chemical_name_systematic        5-Nitroindole
_space_group_crystal_system      monoclinic
_space_group_IT_number           14
_space_group_name_Hall           '-P 2ybc'
_space_group_name_H-M_alt        'P 1 21/c 1'
_atom_sites_solution_hydrogens   geom
_atom_sites_solution_primary     direct
_audit_creation_date             2019-08-02
_audit_creation_method
;
Olex2 1.2
(compiled May 29 2018 13:30:08 for OlexSys, GUI svn.r5506)
;
_cell_angle_alpha                90
_cell_angle_beta                 90.730(2)
_cell_angle_gamma                90
_cell_formula_units_Z            4
_cell_length_a                   3.75839(9)
_cell_length_b                   12.0667(3)
_cell_length_c                   15.8045(4)
_cell_measurement_reflns_used    7708
_cell_measurement_temperature    100.00(10)
_cell_measurement_theta_max      32.3100
_cell_measurement_theta_min      2.5580
_cell_volume                     716.70(3)
_computing_cell_refinement       'CrysAlisPro 1.171.38.46 (Rigaku OD, 2015)'
_computing_data_collection       'CrysAlisPro 1.171.38.46 (Rigaku OD, 2015)'
_computing_data_reduction        'CrysAlisPro 1.171.38.46 (Rigaku OD, 2015)'
_computing_molecular_graphics    'Olex2 (Dolomanov et al., 2009)'
_computing_publication_material  'Olex2 (Dolomanov et al., 2009)'
_computing_structure_refinement  'ShelXL (Sheldrick, 2015)'
_computing_structure_solution    'XS (Sheldrick, 2008)'
_diffrn_ambient_environment      N~2~
_diffrn_ambient_temperature      100.00(10)
_diffrn_detector                 'CCD plate'
_diffrn_detector_area_resol_mean 16.0026
_diffrn_detector_type            Eos
_diffrn_measured_fraction_theta_full 1.000
_diffrn_measured_fraction_theta_max 0.997
_diffrn_measurement_details
;
List of Runs (angles in degrees, time in seconds):

  # Type    Start    End  Width  t~exp~   \w     \q     \k     \f   Frames
--------------------------------------------------------------------------
  1  \w     49.00  99.00   1.00   50.00    --   27.00 160.00  90.00   50
  2  \w    -17.00 100.00   1.00   50.00    --   27.00  19.00 120.00  117
  3  \w      6.00  96.00   1.00   50.00    --   27.00  57.00 -30.00   90
  4  \w     49.00  99.00   1.00   50.00    --   27.00 160.00  30.00   50
  5  \w    -42.00  47.00   1.00   50.00    --   27.00 -57.00  90.00   89
  6  \w      6.00  96.00   1.00   50.00    --   27.00  57.00-180.00   90
  7  \w    -57.00  43.00   1.00   50.00    --  -27.15  77.00   0.00  100
  8  \w     -3.00  97.00   1.00   50.00    --   27.00  77.00  60.00  100
  9  \w     21.00 103.00   1.00   50.00    --   27.00-160.00 120.00   82
 10  \w      6.00  96.00   1.00   50.00    --   27.00  57.00-120.00   90
 11  \w    -97.00 -87.00   1.00   50.00    --  -27.15 -77.00 120.00   10
;
_diffrn_measurement_device       'four-circle diffractometer'
_diffrn_measurement_device_type  'SuperNova, Single source at offset, Eos'
_diffrn_measurement_method       '\w scans'
_diffrn_orient_matrix_type
'CrysAlisPro convention (1999,Acta A55,543-557)'
_diffrn_orient_matrix_UB_11      -0.0765021000
_diffrn_orient_matrix_UB_12      -0.0210608000
_diffrn_orient_matrix_UB_13      0.0374946000
_diffrn_orient_matrix_UB_21      -0.1682371000
_diffrn_orient_matrix_UB_22      0.0211629000
_diffrn_orient_matrix_UB_23      -0.0128740000
_diffrn_orient_matrix_UB_31      -0.0383877000
_diffrn_orient_matrix_UB_32      -0.0506593000
_diffrn_orient_matrix_UB_33      -0.0210007000
_diffrn_radiation_monochromator  mirror
_diffrn_radiation_probe          x-ray
_diffrn_radiation_type           MoK\a
_diffrn_radiation_wavelength     0.71073
_diffrn_reflns_av_R_equivalents  0.0303
_diffrn_reflns_av_unetI/netI     0.0180
_diffrn_reflns_Laue_measured_fraction_full 1.000
_diffrn_reflns_Laue_measured_fraction_max 0.997
_diffrn_reflns_limit_h_max       5
_diffrn_reflns_limit_h_min       -5
_diffrn_reflns_limit_k_max       17
_diffrn_reflns_limit_k_min       -17
_diffrn_reflns_limit_l_max       22
_diffrn_reflns_limit_l_min       -22
_diffrn_reflns_number            15431
_diffrn_reflns_point_group_measured_fraction_full 1.000
_diffrn_reflns_point_group_measured_fraction_max 0.997
_diffrn_reflns_theta_full        25.242
_diffrn_reflns_theta_max         31.503
_diffrn_reflns_theta_min         2.124
_diffrn_source                   'micro-focus sealed X-ray tube'
_diffrn_source_type              'SuperNova (Mo) X-ray Source'
_exptl_absorpt_coefficient_mu    0.112
_exptl_absorpt_correction_T_max  1.00000
_exptl_absorpt_correction_T_min  0.47625
_exptl_absorpt_correction_type   multi-scan
_exptl_absorpt_process_details
;
CrysAlisPro 1.171.38.46 (Rigaku Oxford Diffraction, 2015)
Empirical absorption correction using spherical harmonics,
 implemented in SCALE3 ABSPACK scaling algorithm.
;
_exptl_crystal_colour            'clear yellow'
_exptl_crystal_colour_lustre     clear
_exptl_crystal_colour_primary    yellow
_exptl_crystal_density_diffrn    1.503
_exptl_crystal_description       needle
_exptl_crystal_F_000             336
_exptl_crystal_size_max          0.649
_exptl_crystal_size_mid          0.176
_exptl_crystal_size_min          0.056
_refine_diff_density_max         0.484
_refine_diff_density_min         -0.214
_refine_diff_density_rms         0.052
_refine_ls_extinction_method     none
_refine_ls_goodness_of_fit_ref   1.044
_refine_ls_hydrogen_treatment    constr
_refine_ls_matrix_type           full
_refine_ls_number_parameters     109
_refine_ls_number_reflns         2392
_refine_ls_number_restraints     0
_refine_ls_restrained_S_all      1.044
_refine_ls_R_factor_all          0.0422
_refine_ls_R_factor_gt           0.0380
_refine_ls_shift/su_max          0.000
_refine_ls_shift/su_mean         0.000
_refine_ls_structure_factor_coef Fsqd
_refine_ls_weighting_details
'w=1/[\s^2^(Fo^2^)+(0.0628P)^2^+0.1681P] where P=(Fo^2^+2Fc^2^)/3'
_refine_ls_weighting_scheme      calc
_refine_ls_wR_factor_gt          0.1058
_refine_ls_wR_factor_ref         0.1098
_reflns_Friedel_coverage         0.000
_reflns_number_gt                2156
_reflns_number_total             2392
_reflns_threshold_expression     'I > 2\s(I)'
_cod_data_source_file            ao0c01020_si_001.cif
_cod_data_source_block           5nI
_cod_depositor_comments
'Adding full bibliography for 4517840--4517846.cif.'
_cod_database_code               4517845
_shelx_shelxl_version_number     2018/3
_chemical_oxdiff_formula         C8H6N2O2
_shelx_space_group_comment
;
The symmetry employed for this shelxl refinement is uniquely defined
by the following loop, which should always be used as a source of
symmetry information in preference to the above space-group names.
They are only intended as comments.
;
_shelx_estimated_absorpt_t_max   0.994
_shelx_estimated_absorpt_t_min   0.931
_reflns_odcompleteness_completeness 99.96
_reflns_odcompleteness_iscentric 1
_reflns_odcompleteness_theta     30.44
_olex2_refinement_description
;
1. Fixed Uiso
 At 1.2 times of:
  All C(H) groups, All N(H) groups
2.a Aromatic/amide H refined with riding coordinates:
 N1(H1), C7(H7), C4(H4), C6(H6), C3(H3), C2(H2)
;
_shelx_res_file
;
TITL 2017_11_08_JP_NI_nr3 in P21/c #14
    2017_11_08_jp_ni_nr3.res
    created by SHELXL-2018/3 at 15:11:43 on 02-Aug-2019
REM reset to P21/c #14
CELL 0.71073 3.758391 12.066664 15.804529 90 90.7297 90
ZERR 4 0.000085 0.000304 0.000407 0 0.0023 0
LATT 1
SYMM -X,0.5+Y,0.5-Z
SFAC C H N O
UNIT 32 24 8 8

L.S. 14
PLAN  3
SIZE 0.056 0.176 0.649
TEMP -173.15
BOND
fmap 2
acta
SHEL 100 0.68
REM <olex2.extras>
REM <HklSrc "%./2017_11_08_JP_NI_nr3.hkl">
REM </olex2.extras>

WGHT    0.062800    0.168100
FVAR       5.92611
N2    3    0.336410    0.296705    0.067900    11.00000    0.01954    0.01890 =
         0.01377   -0.00159   -0.00295    0.00008
C5    1    0.182206    0.263766   -0.012807    11.00000    0.01578    0.01603 =
         0.01156   -0.00042   -0.00273   -0.00005
N1    3   -0.236390    0.157254   -0.236738    11.00000    0.01760    0.02170 =
         0.01276   -0.00028   -0.00420    0.00040
AFIX  43
H1    2   -0.340605    0.191447   -0.279535    11.00000   -1.20000
AFIX   0
C9    1    0.040376    0.122504   -0.112589    11.00000    0.01365    0.01429 =
         0.01314    0.00064   -0.00068   -0.00014
O2    4    0.338006    0.395437    0.087833    11.00000    0.04289    0.01946 =
         0.02332   -0.00708   -0.01056    0.00250
C8    1   -0.108537    0.206962   -0.165170    11.00000    0.01276    0.01765 =
         0.01160    0.00088   -0.00127   -0.00004
C7    1   -0.112071    0.318810   -0.142085    11.00000    0.01651    0.01626 =
         0.01538    0.00307   -0.00276    0.00197
AFIX  43
H7    2   -0.213517    0.373360   -0.178400    11.00000   -1.20000
AFIX   0
O1    4    0.464698    0.223982    0.114653    11.00000    0.03278    0.02314 =
         0.01720    0.00191   -0.01097    0.00180
C4    1    0.189339    0.152323   -0.034442    11.00000    0.01462    0.01486 =
         0.01305    0.00162   -0.00175    0.00084
AFIX  43
H4    2    0.291411    0.098502    0.002412    11.00000   -1.20000
AFIX   0
C6    1    0.036355    0.347342   -0.064955    11.00000    0.01882    0.01439 =
         0.01622    0.00045   -0.00213    0.00166
AFIX  43
H6    2    0.040312    0.422526   -0.047133    11.00000   -1.20000
AFIX   0
C3    1   -0.006137    0.019809   -0.156715    11.00000    0.01817    0.01567 =
         0.01800   -0.00159   -0.00145   -0.00038
AFIX  43
H3    2    0.066664   -0.051555   -0.137928    11.00000   -1.20000
AFIX   0
C2    1   -0.176271    0.044882   -0.231318    11.00000    0.01840    0.02114 =
         0.01793   -0.00470   -0.00216   -0.00180
AFIX  43
H2    2   -0.243311   -0.007669   -0.273344    11.00000   -1.20000
AFIX   0
HKLF 4




REM  2017_11_08_JP_NI_nr3 in P21/c #14
REM wR2 = 0.1098, GooF = S = 1.044, Restrained GooF = 1.044 for all data
REM R1 = 0.0380 for 2156 Fo > 4sig(Fo) and 0.0422 for all 2392 data
REM 109 parameters refined using 0 restraints

END

WGHT      0.0628      0.1676

REM Highest difference peak  0.484,  deepest hole -0.214,  1-sigma level  0.052
Q1    1   0.1031  0.1368 -0.0718  11.00000  0.05    0.48
Q2    1  -0.1022  0.0304 -0.1942  11.00000  0.05    0.47
Q3    1   0.1840  0.2101 -0.0244  11.00000  0.05    0.45
;
_shelx_res_checksum              54863
_shelx_hkl_file
;
   0   0  -2 15439.3 281.430   6
   0   0   2 16434.1 274.906   5
   0   0   2 16307.2 283.003   6
   0   0  -2 15998.2 275.266   5
   0   0   2 16213.6 300.780   3
   0   0  -2 16158.2 302.117   3
   0   0  -3 10.3526 10.0342   3
   0   0   3 10.6441 4.99994   6
   0   0   3 3.17846 8.98145   3
   0   0  -3 16.9309 5.03996   5
   0   0  -4 36047.0 605.462   5
   0   0   4 35487.9 619.110   6
   0   0  -4 35182.0 657.836   3
   0   0   5 11.7614 10.6350   6
   0   0  -5 2.49668 6.65085   5
   0   0  -5 19.9935 5.86718   8
   0   0  -5 8.96010 16.0758   3
   0   0  -6 38375.5 669.281   5
   0   0  -6 37972.5 644.954   8
   0   0  -6 37087.2 740.270   3
   0   0   6 38474.5 688.442   6
   0   0  -7-9.15896 19.0495   3
   0   0  -7 10.6299 5.90642   8
   0   0   7 7.27492 11.7013   6
   0   0  -7 19.5863 10.1935   5
   0   0  -8 19029.1 371.461   5
   0   0   8 18109.3 389.936   6
   0   0  -8 18108.2 329.745   8
   0   0   9-4.95876 10.7211   6
   0   0  -9 9.73531 5.53824   8
   0   0  -9 0.92653 9.72232   5
   0   0 -10 8152.94 164.861   8
   0   0  10 9224.04 252.662   6
   0   0 -10 9848.29 234.153   5
   0   0 -11 34.4531 18.2846   5
   0   0  11 25.6246 24.5794   6
   0   0 -12 8359.19 238.715   5
   0   0  12 8142.53 267.427   7
   0   0  12 8274.28 264.990   6
   0   0  13 2.07980 16.8990   6
   0   0  13 21.1714 18.5818   7
   0   0 -13-5.17783 16.0139   5
   0   0 -14 91.0435 29.8631   5
   0   0  14 3.01233 17.3487   6
   0   0  14 78.5739 29.4966   7
   0   0 -15 7.60277 21.8959   5
   0   0  15-41.2092 33.6921   7
   0   0  15 29.4016 27.8334   6
   0   0 -16 243.246 44.3332   5
   0   0  16 295.400 60.2468   6
   0   0  17-13.3873 31.7599   6
   0   0 -17 18.8868 24.8969   5
   0   0 -18 3212.98 179.911   5
   0   0  18 3106.63 205.698   6
   0   0 -19-17.1143 29.2663   5
   0   0  19 80.3962 56.8167   6
   0   0  20 1381.55 149.490   6
   0   0  21 7.40174 35.2946   6
   0   0  22 4539.91 303.469   6
   0   1   0-0.55954 1.03744   9
   0  -1   0-1.08037 2.06079   4
   0   1   0 0.48348 1.84148   1
   0  -1   0-0.41836 1.44823   7
   0   1   0 0.58132 1.92959   4
   0   1   0-1.30748 1.99815   3
   0  -1   0-0.62402 1.63175   9
   0   1   1 17.6360 5.76965   7
   0  -1   1-1.77286 3.61771   3
   0  -1  -1-2.18755 3.04659   7
   0  -1  -1 18.2124 3.82762   5
   0  -1   1 1.28242 3.44542   7
   0   1  -1 9.63984 4.95183   3
   0   1  -1 27.0218 6.46409   7
   0  -1  -1 22.0340 4.00454   9
   0  -1   2 14469.0 257.706   6
   0  -1  -2 13995.3 247.712   9
   0   1  -2 14299.7 240.679   5
   0   1  -2 13834.2 271.972   3
   0  -1   2 14015.8 265.360   7
   0   1  -2 14691.6 269.340   7
   0  -1  -2 13745.3 252.247   6
   0   1   2 13753.5 247.614   5
   0   1   2 14124.6 247.535   9
   0   1   2 13798.1 251.086   6
   0  -1  -2 14710.5 251.491   5
   0   1  -2 14526.1 253.948   6
   0  -1   2 14298.9 241.828   5
   0  -1   2 14346.6 272.698   3
   0  -1   3 34839.9 630.107   7
   0   1  -3 35910.8 599.109   5
   0  -1   3 36545.8 599.494   5
   0   1  -3 35742.4 644.767   3
   0   1   3 35546.3 612.828   6
   0   1  -3 36490.0 637.536   7
   0  -1   3 35917.3 619.550   6
   0  -1  -3 37014.7 610.389   5
   0   1   3 36081.2 603.443   9
   0  -1  -4 43338.3 732.305   5
   0   1  -4 42695.6 720.337   5
   0   1  -4 43516.7 780.539   3
   0  -1   4 42464.1 758.590   7
   0  -1   4 43373.2 746.033   6
   0   1   4 42548.6 737.675   6
   0  -1  -5 33048.1 589.852   5
   0  -1   5 33815.5 607.200   6
   0  -1   5 32702.5 620.259   7
   0   1  -5 34063.4 579.656   5
   0   1   5 33316.3 598.480   6
   0   1  -5 33709.8 576.340   8
   0   1  -5 33167.7 646.603   3
   0   1   6 28577.1 536.343   6
   0   1  -6 28759.6 591.878   3
   0   1  -6 28663.5 513.379   5
   0  -1   6 28465.3 544.427   6
   0  -1  -6 29586.9 527.310   5
   0   1  -6 29292.9 508.954   8
   0  -1   6 28628.9 560.062   7
   0  -1  -7 22487.0 420.068   5
   0   1   7 21732.9 428.020   6
   0  -1   7 20773.9 449.103   7
   0  -1   7 21283.9 436.051   6
   0   1  -7 21451.9 403.970   5
   0   1  -7 21293.1 394.136   8
   0   1  -7 21142.1 486.052   3
   0  -1   8 64672.8 1176.19   6
   0   1  -8 66475.0 1138.54   5
   0   1  -8 65748.9 1245.92   3
   0  -1  -8 70328.3 1161.20   5
   0  -1   8 65945.3 1192.91   7
   0   1  -8 64950.7 1121.22   8
   0   1   8 64628.4 1164.99   6
   0   1   9 8477.08 229.548   6
   0   1  -9 8561.40 209.926   5
   0   1  -9 8045.84 280.109   3
   0  -1  -9 8881.81 222.019   5
   0  -1   9 8291.69 245.141   7
   0  -1   9 8926.56 242.883   6
   0  -1  10 13257.9 342.216   7
   0   1 -10 14104.5 309.005   5
   0   1 -10 12594.1 385.584   3
   0   1  10 12644.9 322.290   6
   0  -1 -10 13215.4 310.436   5
   0  -1  10 12854.3 333.284   6
   0   1 -11 11782.8 288.377   5
   0  -1  11 12110.8 327.141   7
   0  -1 -11 11619.9 296.327   5
   0  -1  11 11904.5 325.179   6
   0   1 -11 11398.1 374.737   3
   0   1  11 11819.6 314.955   6
   0  -1  12 2659.44 138.592   7
   0   1  12 2792.36 138.527   6
   0   1 -12 2870.81 123.064   5
   0  -1 -12 3093.60 131.741   5
   0  -1  12 2875.70 146.323   6
   0  -1  13 143.289 34.7522   6
   0  -1 -13 136.688 28.0398   5
   0  -1  13 153.187 36.3309   7
   0   1 -13 150.453 30.3875   5
   0   1  13 121.278 32.4886   6
   0   1  14 9193.66 307.921   6
   0  -1  14 9069.59 314.596   6
   0  -1 -14 9248.10 283.022   5
   0  -1  14 9321.25 298.415   7
   0   1 -14 9582.23 277.939   5
   0   1  15 15188.8 428.158   7
   0  -1  15 14629.5 440.614   6
   0  -1  15 15049.7 409.820   7
   0  -1 -15 14286.4 392.548   5
   0   1 -15 14124.1 381.621   5
   0   1  15 13972.5 421.585   6
   0   1 -16 547.356 66.7342   5
   0  -1 -16 517.568 65.7818   5
   0   1  16 526.031 77.2634   6
   0  -1  16 517.765 77.5040   6
   0   1  17 2850.28 184.369   6
   0   1 -17 2604.11 151.821   5
   0  -1  17 2804.30 187.346   6
   0  -1 -17 2571.85 155.556   5
   0   1  18 285.912 65.6079   6
   0   1 -18 274.161 47.3619   5
   0  -1 -18 264.252 54.3056   5
   0  -1  18 217.302 56.7712   6
   0  -1  19 125.338 49.9167   6
   0  -1 -19 38.2883 30.8525   5
   0   1 -19 57.2249 30.4786   5
   0   1  19 155.049 48.2651   6
   0   1  20 78.0854 40.1620   6
   0  -1  20 23.9721 28.4169   6
   0  -1  21 15.6064 37.5697   6
   0   1  21 16.9577 32.4894   6
   0  -1  22 1653.62 185.469   6
   0   1  22 1479.08 169.720   6
   0   2   0 190983. 3039.03   1
   0   2   0 185680. 3013.31   4
   0   2   0 177478. 3007.43   3
   0  -2   0 186007. 3001.85   7
   0   2   0 183667. 2987.56   9
   0  -2   0 186768. 3037.25   1
   0  -2   0 178525. 3008.58   4
   0   2   0 189634. 3002.96   7
   0  -2   0 178493. 2983.67   9
   0   2  -1 113274. 1832.94   6
   0   2  -1 108933. 1837.86   9
   0  -2   1 109458. 1832.44   9
   0  -2  -1 114426. 1856.48   7
   0   2  -1 110077. 1883.24   1
   0  -2   1 111342. 1851.97   7
   0  -2   1 109968. 1862.00   3
   0  -2  -1 109982. 1833.06   9
   0  -2   1 111196. 1840.42  11
   0   2  -1 110580. 1860.78   3
   0  -2   1 108763. 1860.86   4
   0   2  -1 115469. 1854.84   7
   0  -2   1 113800. 1838.29   6
   0   2   1 119747. 1826.45   5
   0   2   1 116277. 1856.00   7
   0  -2  -1 106584. 1829.27   5
   0  -2  -1 107409. 1859.27   4
   0   2  -1 115063. 1866.26   4
   0  -2   1 111839. 1884.03   1
   0  -2   2 75456.1 1221.52   6
   0  -2  -2 74943.8 1209.94   5
   0   2   2 69676.8 1203.86   6
   0   2   2 79976.4 1239.11   7
   0  -2  -2 71405.1 1207.88   9
   0   2  -2 75153.2 1189.49   5
   0   2  -2 74320.0 1243.83   3
   0   2  -2 72048.1 1210.27   6
   0  -2   2 74500.4 1197.14   5
   0  -2   2 72655.2 1230.94   7
   0  -2  -2 77384.8 1242.05   7
   0   2   2 74656.8 1203.82   5
   0   2  -2 75180.4 1215.67   9
   0  -2   2 74520.7 1207.79   9
   0   2   3 36.7622 7.86766   6
   0   2  -3 26.9520 14.3484   3
   0  -2  -3 46.4556 8.78228   9
   0   2  -3 63.4291 11.9840   9
   0  -2  -3 62.1647 11.4956   5
   0  -2   3 41.8240 8.54668   9
   0   2  -3 55.4636 6.40577   5
   0  -2   3 36.4140 11.4529   7
   0  -2   3 50.0473 7.29744   5
   0  -2   3 46.2147 12.0842   6
   0  -2  -4 6765.06 149.725   5
   0  -2  -4 6492.00 121.288   2
   0   2  -4 6471.72 128.867   5
   0  -2   4 6708.76 159.958   6
   0  -2   4 6599.51 140.711   9
   0   2   4 6526.95 146.429   6
   0  -2   4 6438.40 165.670   7
   0   2  -4 6627.76 182.590   3
   0  -2  -5 53562.2 888.616   5
   0   2   5 51747.2 862.809   8
   0  -2   5 49457.6 910.878   7
   0   2  -5 51261.0 941.145   3
   0  -2  -5 50001.3 849.872   2
   0  -2   5 52182.1 873.237   9
   0   2   5 50194.0 883.686   6
   0   2  -5 51559.8 861.348   5
   0  -2   5 51337.7 902.838   6
   0   2  -6 250.988 36.6746   3
   0  -2   6 326.899 35.5985   7
   0  -2  -6 323.898 29.8845   5
   0  -2   6 354.645 35.3362   6
   0   2   6 297.503 27.9749   6
   0   2   6 303.788 21.3592   8
   0   2  -6 319.957 22.6502   5
   0  -2   7 16248.8 366.355   7
   0   2  -7 16826.2 319.231   5
   0   2   7 16605.1 343.275   6
   0  -2   7 16376.2 361.170   6
   0   2   7 16461.9 306.227   8
   0   2  -7 16241.9 403.356   3
   0  -2  -7 16796.7 344.595   5
   0  -2   8 2356.17 106.295   6
   0   2  -8 2493.07 83.3412   5
   0   2   8 2241.43 94.1254   6
   0   2  -8 2228.58 127.226   3
   0  -2  -8 2198.73 92.0284   5
   0  -2   8 2252.52 105.781   7
   0   2   8 2292.57 64.1103   8
   0  -2   9 34.8725 14.4007   7
   0  -2  -9 53.0307 16.9400   5
   0   2   9 56.1539 17.6023   6
   0   2  -9 27.7955 21.9221   3
   0   2  -9 40.0016 12.1943   5
   0  -2   9 83.5205 23.9759   6
   0   2  10 228.312 33.5783   6
   0   2 -10 294.356 52.1711   3
   0  -2  10 253.785 38.3774   6
   0  -2 -10 247.790 33.9388   5
   0  -2  10 176.371 32.9205   7
   0   2 -10 190.002 26.5395   5
   0  -2  11 231.017 38.3678   6
   0  -2 -11 210.304 34.3489   5
   0   2 -11 158.993 43.4284   3
   0  -2  11 221.218 37.1228   7
   0   2  11 202.183 34.6730   6
   0   2 -11 243.385 31.8991   5
   0   2 -12 196.014 31.0121   5
   0  -2  12 149.782 31.1673   7
   0   2 -12 217.310 53.2189   3
   0  -2 -12 169.705 31.8462   5
   0  -2  12 163.088 35.7672   6
   0   2  12 153.511 32.4687   6
   0   2  13 13651.0 374.714   6
   0   2 -13 13396.1 453.173   3
   0  -2  13 13680.7 371.131   7
   0  -2 -13 13055.9 352.666   5
   0   2 -13 13901.4 340.466   5
   0  -2  13 13848.9 396.761   6
   0  -2  14 13.6537 20.6389   6
   0   2 -14 25.0155 18.2642   5
   0   2  14 33.6365 26.0144   6
   0  -2  14 4.82517 17.8201   7
   0  -2 -14 5.21872 20.7702   5
   0   2 -14-32.3732 38.0859   3
   0   2  15 43.5669 28.2114   6
   0  -2  15 8.72539 17.4703   7
   0   2 -15 30.2469 23.8714   5
   0  -2 -15-7.70870 18.7755   5
   0  -2  15 13.6043 26.7503   6
   0  -2 -16 4642.82 208.851   5
   0   2 -16 4716.08 197.440   5
   0  -2  16 4760.06 240.176   6
   0   2  16 4818.70 229.085   6
   0   2 -17 2851.21 158.380   5
   0  -2  17 2931.15 195.433   6
   0  -2 -17 2847.24 166.935   5
   0   2  17 3145.31 190.895   6
   0  -2 -18 557.758 76.5376   5
   0   2 -18 524.773 71.3078   5
   0  -2  18 502.204 87.5424   6
   0   2  18 572.025 87.5950   6
   0   2  19 26.8558 25.1720   6
   0  -2  19 53.7152 43.4762   6
   0   2 -19 30.5145 30.3444   5
   0  -2  20 641.087 105.338   6
   0   2  20 822.859 115.946   6
   0   2  21 1758.90 178.291   6
   0  -2  21 1773.09 184.546   6
   0  -2  22 2616.32 233.420   6
   0   2  22 2430.21 216.012   6
   0   3   0 20.0521 11.4897   3
   0  -3   0 9.85039 6.51423   9
   0   3   0 5.44437 3.45032   5
   0   3   0 4.77849 5.82801  10
   0  -3   0 19.2467 13.9210   1
   0  -3   0 15.5861 11.2557   7
   0  -3   0-0.10712 9.76501   4
   0  -3   0 2.75081 4.98992  10
   0  -3   1 18585.3 381.740   4
   0  -3   1 18784.0 338.143  10
   0   3  -1 19181.8 338.969  10
   0  -3  -1 18897.1 413.927   1
   0   3  -1 18811.7 382.011   3
   0  -3   1 18871.9 371.738   7
   0   3   1 19146.9 349.144  10
   0   3   1 20739.1 334.594   5
   0  -3  -1 18689.5 381.136   4
   0  -3   1 18513.6 411.500   1
   0  -3  -1 19160.2 347.818   9
   0  -3  -1 19730.7 377.774   7
   0  -3   1 18939.5 351.194   6
   0   3  -1 19098.3 344.218   6
   0  -3   1 18632.6 347.310   9
   0   3  -1 19711.9 363.264  11
   0   3  -2 18392.1 370.683   3
   0   3  -2 17780.3 327.724   6
   0  -3   2 17463.7 327.404  10
   0  -3   2 17972.3 356.695   7
   0  -3  -2 17706.4 330.180   9
   0  -3   2 18634.6 343.077   6
   0  -3  -2 18063.8 365.356   7
   0  -3   2 18147.1 398.370   1
   0  -3   2 18103.2 368.857   4
   0  -3   2 17458.2 328.535   9
   0   3  -2 18315.6 303.080   5
   0  -3  -2 18108.5 329.752   5
   0  -3  -3 2373.32 94.3288   7
   0  -3   3 2473.89 83.5041   6
   0   3  -3 2462.62 98.1847   3
   0  -3   3 2308.76 86.9878   7
   0  -3   3 2332.72 69.4344   9
   0   3  -3 2401.63 52.4013   5
   0  -3  -3 2416.88 72.6054   9
   0  -3   3 2418.57 63.8800   5
   0  -3  -3 2611.73 76.6478   5
   0   3   3 2333.13 67.7756   6
   0   3  -4 1333.41 56.9269   9
   0  -3   4 1252.66 61.2245   6
   0   3  -4 1238.53 72.2753   3
   0   3  -4 1199.04 36.3497   5
   0  -3   4 1313.94 65.9510   7
   0   3   4 1214.52 48.9087   6
   0  -3  -4 1273.40 53.7927   5
   0  -3  -4 1300.08 51.4169   9
   0  -3   4 1180.01 46.1434   9
   0  -3   5 5969.58 171.090   7
   0   3  -5 6030.72 124.542   5
   0  -3   5 5837.96 136.661   9
   0  -3  -5 6120.91 152.794   5
   0  -3  -5 5898.38 115.762   2
   0   3  -5 6044.80 190.496   3
   0   3   5 5876.90 145.681   6
   0  -3   5 5926.17 164.839   6
   0  -3   6 450.729 42.2122   6
   0  -3  -6 437.052 21.9495   2
   0   3   6 455.854 34.7775   6
   0  -3   6 470.730 30.9759   9
   0   3  -6 472.211 26.9481   5
   0  -3  -6 434.479 35.8424   5
   0   3  -6 470.211 51.9456   3
   0  -3   6 392.633 40.0524   7
   0   3  -7 3933.92 103.388   5
   0  -3   7 3726.22 104.267   9
   0  -3   7 3762.58 138.787   6
   0   3   7 3926.59 106.881   8
   0   3   7 3775.54 120.446   6
   0  -3   7 3801.98 139.044   7
   0   3  -7 3829.86 164.576   3
   0  -3  -7 3760.10 124.303   5
   0   3  -8 9504.98 211.525   5
   0  -3  -8 9374.42 237.600   5
   0  -3   8 9528.40 208.248   9
   0  -3   8 9280.36 256.804   7
   0   3  -8 9587.39 299.572   3
   0   3   8 9905.49 208.814   8
   0  -3   8 9411.53 259.274   6
   0   3   8 9481.10 234.898   6
   0   3   9 22247.5 460.054   6
   0  -3   9 21757.7 491.349   6
   0   3  -9 22255.4 545.198   3
   0   3   9 22194.3 410.103   8
   0  -3   9 21231.2 480.962   7
   0  -3  -9 21987.5 462.591   5
   0   3  -9 22291.7 429.556   5
   0  -3   9 21960.2 419.518   9
   0  -3  10 10797.0 308.635   6
   0  -3  10 11221.5 242.769   9
   0   3 -10 10676.5 351.759   3
   0   3  10 11137.0 284.698   6
   0   3  10 10964.1 219.722   8
   0  -3 -10 10837.3 282.680   5
   0  -3  10 10821.5 298.340   7
   0   3 -10 11334.6 260.047   5
   0   3 -11 140.296 44.2127   3
   0  -3  11 81.9917 22.8737   7
   0  -3  11 136.640 35.0886   6
   0   3  11 84.0679 22.2907   6
   0  -3  11 92.2047 16.5435   9
   0   3 -11 134.262 22.1935   5
   0  -3 -11 132.972 28.6075   5
   0   3 -12 2480.71 170.457   3
   0  -3  12 2711.57 149.374   6
   0  -3  12 2705.35 96.2175   9
   0   3  12 2679.62 133.992   6
   0  -3  12 2691.99 136.773   7
   0  -3 -12 2658.59 129.470   5
   0   3 -12 2667.61 115.772   5
   0  -3 -13 22835.5 528.673   5
   0   3 -13 22565.7 495.543   5
   0  -3  13 23884.1 541.252   7
   0   3 -13 22793.9 639.049   3
   0   3  13 23212.4 540.144   6
   0  -3  13 22489.6 570.191   6
   0   3 -14 9483.38 274.782   5
   0  -3  14 9401.59 334.468   6
   0   3  14 9841.45 314.161   6
   0  -3 -14 9597.89 301.287   5
   0  -3  14 9776.31 303.938   7
   0   3 -14 9906.90 393.562   3
   0  -3  15 18245.7 462.146   7
   0  -3  15 17160.2 507.644   6
   0   3 -15 17463.7 574.991   3
   0   3  15 18100.4 485.068   6
   0  -3 -15 17130.2 459.646   5
   0   3 -15 17199.2 431.016   5
   0  -3  16 10883.2 393.609   6
   0   3 -16 10966.9 324.513   5
   0   3  16 10711.5 365.029   6
   0   3 -16 10296.2 438.174   3
   0  -3  16 11281.9 341.874   7
   0  -3 -16 10007.8 339.054   5
   0   3 -17 1639.96 116.536   5
   0  -3  17 1505.55 142.015   6
   0  -3 -17 1595.56 126.222   5
   0   3  17 1680.34 138.552   6
   0   3 -18 1399.77 112.288   5
   0  -3 -18 1330.83 118.564   5
   0  -3  18 1533.14 149.222   6
   0   3  18 1274.25 126.532   6
   0  -3  19-5.68640 34.5880   6
   0   3  19 72.2283 39.9103   6
   0   3 -19 13.8603 34.3673   5
   0   3  20 599.989 97.4962   6
   0  -3  20 522.174 99.6607   6
   0   3  21 179.284 52.2968   6
   0  -3  21 316.435 85.3761   6
   0   3  22 33.4287 36.2230   6
   0  -3  22 90.7731 63.1028   6
   0  -4   0 3480.70 124.430   4
   0   4   0 3491.97 125.086   3
   0   4   0 3672.88 96.1678  10
   0  -4   0 3659.24 121.262   7
   0  -4   0 3755.97 88.9488  10
   0  -4   0 3819.83 154.373   1
   0   4   0 3712.72 77.5921   5
   0  -4   0 3490.27 96.5228   9
   0  -4   1 5932.82 201.600   1
   0  -4   1 5824.32 171.574   4
   0   4   1 5937.10 114.082   2
   0  -4  -1 6134.11 202.531   1
   0   4  -1 6024.74 133.502   6
   0  -4  -1 6140.30 170.199   7
   0  -4  -1 6125.70 140.616   9
   0   4   1 6334.39 122.592   5
   0  -4   1 6149.45 164.970   7
   0  -4   1 5960.84 127.700  10
   0   4  -1 5691.37 172.798   3
   0   4   1 5890.93 140.838  10
   0  -4  -1 5438.98 169.390   4
   0   4  -1 5820.78 130.781  10
   0  -4   1 5875.47 137.901   9
   0  -4   2 7338.57 156.040  10
   0  -4  -2 7290.57 164.389   9
   0   4  -2 7220.18 157.288   6
   0   4  -2 7040.83 200.880   3
   0   4   2 8086.71 176.784  10
   0  -4   2 7551.25 191.953   7
   0  -4   2 7481.41 174.089   6
   0   4   2 7098.27 130.712   2
   0  -4  -2 7587.37 200.428   7
   0  -4   2 7037.43 226.966   1
   0  -4   2 7444.62 161.529   9
   0  -4   2 6983.46 200.385   4
   0  -4  -3 12805.0 260.834   9
   0   4  -3 13059.6 309.429   3
   0  -4   3 12572.1 255.609   9
   0  -4   3 12735.0 290.672   7
   0  -4  -3 12326.1 262.333   5
   0  -4   3 13085.1 279.564   6
   0  -4   3 12563.3 305.982   4
   0  -4   3 13526.1 260.282  10
   0   4   3 12768.0 248.716   6
   0  -4  -3 13541.4 309.215   7
   0   4  -3 13137.1 222.997   5
   0  -4   3 12934.8 343.493   1
   0  -4   4 264.319 31.2174   7
   0  -4   4 258.359 21.3595   5
   0   4  -4 244.896 13.8050   5
   0   4   4 208.564 19.5674   6
   0   4  -4 236.201 35.0984   3
   0  -4  -4 197.867 21.5941   9
   0  -4  -4 192.711 22.6147   5
   0  -4   4 276.704 37.1388   4
   0  -4  -4 242.016 35.0293   7
   0  -4   4 234.127 21.6756   9
   0  -4   4 255.470 30.6058   6
   0  -4   5 16330.2 321.797   9
   0  -4  -5 16582.7 334.004   9
   0   4  -5 17121.3 300.795   5
   0   4  -5 17013.1 398.122   3
   0  -4   5 17205.9 370.411   7
   0  -4   5 17330.0 368.439   6
   0   4   5 16645.4 329.199   6
   0  -4  -5 16965.6 345.384   5
   0   4   6 58326.9 1012.40   6
   0  -4   6 59508.7 1059.68   6
   0  -4   6 59193.0 1058.90   7
   0  -4   6 58263.1 993.853   9
   0   4  -6 59407.4 978.936   5
   0   4  -6 60779.3 1105.26   3
   0  -4  -6 56438.6 965.104   2
   0  -4  -6 58734.1 1029.76   5
   0   4   7 18491.1 376.949   6
   0  -4  -7 18590.0 391.409   5
   0  -4   7 18498.9 411.977   7
   0   4  -7 18639.0 455.698   3
   0  -4   7 18405.1 350.233   9
   0  -4  -7 18002.9 331.563   2
   0  -4   7 18486.4 415.237   6
   0   4  -7 18970.9 346.202   5
   0   4  -8 3549.10 169.990   3
   0  -4   8 3449.20 139.469   7
   0   4   8 3510.89 110.009   8
   0  -4   8 3327.36 97.2569   9
   0  -4   8 3326.58 142.758   6
   0   4   8 3406.17 120.382   6
   0   4  -8 3515.66 101.020   5
   0  -4  -8 3515.09 129.138   5
   0   4  -9 104.303 35.7145   3
   0   4  -9 79.0118 16.5261   5
   0   4   9 47.5145 16.0077   6
   0  -4   9 74.1409 25.5412   7
   0  -4   9 30.5319 9.26659   9
   0  -4   9 79.1772 23.7431   6
   0   4   9 74.0415 15.7952   8
   0  -4  -9 93.2790 22.6197   5
   0   4  10 57.8433 14.3377   8
   0  -4  10 29.9281 20.2642   6
   0   4 -10 56.0143 24.7079   3
   0   4  10 31.9487 16.6689   6
   0   4 -10 26.3431 11.9044   5
   0  -4  10 31.0465 10.1398   9
   0  -4 -10 42.1405 17.3852   5
   0  -4  10 9.67045 18.2040   7
   0  -4  11 2781.24 88.2951   9
   0  -4 -11 2701.57 129.920   5
   0   4  11 2963.06 132.031   6
   0   4 -11 3096.12 116.440   5
   0   4 -11 2834.48 176.831   3
   0  -4  11 3006.93 141.082   7
   0   4  11 2928.17 94.0094   8
   0  -4  11 3070.96 156.167   6
   0  -4  12 489.280 56.3401   7
   0   4 -12 360.353 40.8792   5
   0  -4  12 369.753 54.8237   6
   0   4  12 372.909 48.7477   6
   0  -4 -12 401.258 49.9543   5
   0   4 -12 384.801 68.5457   3
   0   4 -13 800.865 62.3064   5
   0  -4  13 704.090 70.9135   7
   0   4  13 772.476 73.9638   6
   0   4 -13 691.274 95.2001   3
   0  -4  13 611.637 75.7463   6
   0  -4 -13 594.688 64.1648   5
   0   4 -14 1873.37 105.370   5
   0  -4  14 2103.43 148.840   6
   0  -4  14 1986.61 122.225   7
   0  -4 -14 1827.03 120.415   5
   0   4  14 1940.87 125.601   6
   0   4 -14 1872.44 165.724   3
   0  -4  15 1168.69 117.162   6
   0  -4 -15 939.871 90.9568   5
   0   4 -15 1122.67 85.2367   5
   0   4 -15 1186.64 136.778   3
   0   4  15 1044.06 97.7829   6
   0  -4  15 1103.88 93.5303   7
   0  -4  16-3.23391 16.0148   7
   0  -4 -16-14.2054 25.3452   5
   0   4 -16-18.1375 27.9671   3
   0   4  16 12.7398 23.1653   6
   0  -4  16-12.0802 30.8094   6
   0   4 -16 41.8166 25.1511   5
   0   4  17 191.692 47.5820   6
   0   4 -17 112.168 31.1092   5
   0   4 -17 185.856 67.3522   3
   0  -4  17 182.414 56.9599   6
   0   4 -18 2899.89 163.510   5
   0   4  18 2955.43 195.132   6
   0  -4  18 2808.29 211.013   6
   0   4 -19 71.1572 27.4139   5
   0  -4  19 74.3700 43.1397   6
   0   4  19 68.2328 39.9424   6
   0  -4  20 79.4601 54.9495   6
   0   4  20 7.07327 30.7450   6
   0  -4  21 202.186 62.3738   6
   0   4  21 354.193 86.5791   6
   0  -4  22 1149.65 158.525   6
   0   4  22 1050.16 141.165   6
   0   5   0 64.5191 14.2656  10
   0  -5   0 56.9202 22.7997   7
   0  -5   0 91.6723 34.6389   1
   0  -5   0 43.6325 13.4258   9
   0  -5   0 65.9440 24.0561   4
   0   5   0 56.6403 8.30473   5
   0   5   0 61.8872 13.6982   6
   0   5   0 55.1480 20.0405   3
   0   5  -1 1184.90 48.6516   6
   0   5   1 1238.68 75.6376   3
   0  -5   1 1232.22 54.0319   9
   0  -5   1 1228.29 75.2868   4
   0  -5  -1 1197.96 91.0586   1
   0  -5  -1 1201.95 54.1376   9
   0  -5  -1 1213.84 76.4869   4
   0  -5   1 1241.86 45.0604  10
   0   5  -1 1183.55 48.5158  10
   0   5  -1 1176.34 32.9703   5
   0   5   1 1083.97 54.5661  10
   0  -5  -1 1191.81 72.9514   7
   0  -5   1 1274.51 71.6308   7
   0  -5   1 1212.98 93.6013   1
   0   5  -1 1278.53 78.1646   3
   0  -5   2 38781.3 670.997  10
   0   5   2 38252.8 701.261  10
   0  -5   2 38510.9 749.704   4
   0  -5   2 39352.8 684.910   9
   0  -5  -2 39564.4 749.316   7
   0  -5   2 37800.8 807.516   1
   0  -5  -2 38446.9 751.944   4
   0  -5   2 39314.3 735.474   7
   0   5   2 38222.2 646.869   2
   0   5  -2 39325.2 755.596   3
   0   5  -2 38945.4 674.452   6
   0  -5  -2 39489.8 690.316   9
   0  -5   3 27226.2 626.492   1
   0   5  -3 28227.1 582.844   3
   0  -5   3 28234.1 509.585   9
   0   5   3 28421.9 533.477  10
   0   5  -3 27998.7 463.905   5
   0  -5   3 28269.7 539.185   6
   0  -5   3 28036.0 577.527   4
   0   5   3 26968.8 495.301   6
   0  -5   3 27788.1 508.671  10
   0  -5  -3 27851.3 518.077   9
   0  -5  -3 29163.6 580.092   7
   0  -5   3 29201.0 562.816   7
   0  -5   4 22210.6 472.509   7
   0  -5  -4 21711.2 432.450   9
   0  -5   4 22817.8 461.973   6
   0   5  -4 22829.2 382.452   5
   0  -5  -4 23129.7 497.161   7
   0  -5   4 22897.9 421.958   9
   0   5  -4 22945.1 500.313   3
   0   5   4 21985.5 415.225   6
   0   5   4 22799.2 454.751  10
   0  -5   4 22145.2 543.835   1
   0  -5   4 22385.9 491.479   4
   0  -5   5 1418.67 79.2823   6
   0   5  -5 1333.08 89.7407   3
   0   5  -5 1359.77 40.8597   5
   0  -5   5 1269.56 84.0502   4
   0  -5   5 1288.37 56.0994   9
   0  -5  -5 1355.05 63.6070   9
   0   5   5 1290.58 56.7172   6
   0  -5   5 1404.87 108.342   1
   0  -5   5 1222.06 76.1092   7
   0  -5  -5 1295.67 66.9265   5
   0  -5   6 1782.78 66.3197   9
   0  -5   6 1868.16 97.3528   6
   0   5  -6 1796.06 54.9243   5
   0  -5  -6 1888.93 85.7125   5
   0  -5   6 1698.55 101.785   4
   0  -5   6 1750.49 94.0815   7
   0   5   6 1734.81 72.5473   6
   0   5  -6 1776.92 111.504   3
   0  -5  -6 1794.42 76.4926   9
   0  -5   7 64.8228 23.2596   6
   0   5  -7 74.3232 12.0322   5
   0  -5  -7 31.1450 12.8077   5
   0  -5   7 40.8618 20.6044   7
   0  -5   7 56.3320 13.2712   9
   0   5  -7 48.4544 26.7641   3
   0   5   7 69.3134 17.4146   6
   0  -5   8 1210.03 87.3434   6
   0  -5   8 1184.37 52.7933   9
   0  -5   8 1151.13 80.1816   7
   0  -5  -8 1155.60 73.4419   5
   0   5  -8 1229.04 52.9351   5
   0  -5  -8 1139.34 39.3950   2
   0   5  -8 1254.52 101.284   3
   0  -5  -8 1131.19 40.1021   2
   0   5   8 1142.72 65.3980   6
   0  -5  -9 83.2410 21.7893   5
   0   5   9 125.274 24.3385   6
   0  -5   9 96.3296 15.7068   9
   0  -5   9 70.5854 26.4655   6
   0   5  -9 87.3753 16.0129   5
   0  -5  -9 92.8263 13.5316   2
   0  -5   9 114.504 29.1706   7
   0   5   9 101.715 20.6258   8
   0   5  -9 133.882 39.9732   3
   0   5 -10 3010.70 178.009   3
   0  -5 -10 2747.93 130.737   5
   0  -5  10 3007.60 142.138   7
   0   5  10 2890.30 124.140   6
   0  -5  10 3153.03 158.401   6
   0   5  10 3085.25 113.508   8
   0   5 -10 3102.04 108.309   5
   0  -5  10 2919.42 88.8179   9
   0  -5  11 4637.98 204.638   6
   0   5 -11 4493.54 229.379   3
   0   5 -11 4478.34 145.036   5
   0   5  11 4416.53 166.978   6
   0  -5  11 4434.12 181.119   7
   0  -5 -11 4120.09 171.894   5
   0  -5  11 4354.63 113.585   9
   0   5  11 4659.88 143.675   8
   0  -5  12 158.249 35.6932   7
   0  -5 -12 212.022 38.9668   5
   0   5  12 262.892 41.3801   6
   0  -5  12 222.310 47.1525   6
   0   5 -12 240.176 33.5872   5
   0   5 -12 206.690 50.7846   3
   0  -5 -13 201.355 41.1438   5
   0   5  13 169.128 36.9707   6
   0   5 -13 178.323 54.9643   3
   0  -5  13 172.290 39.4965   7
   0   5 -13 151.315 28.5880   5
   0  -5  13 141.328 42.3121   6
   0   5  14 8490.39 288.698   6
   0   5 -14 8579.19 254.888   5
   0  -5 -14 8190.89 290.045   5
   0  -5  14 9072.17 294.350   7
   0   5 -14 8595.91 374.373   3
   0  -5  14 9022.25 340.470   6
   0   5  15 13705.8 405.955   6
   0  -5  15 13207.8 451.197   6
   0  -5  15 14222.6 398.438   7
   0   5 -15 13316.1 355.767   5
   0  -5 -15 12833.0 396.421   5
   0   5 -15 13863.2 510.785   3
   0  -5  16 2149.72 136.368   7
   0  -5  16 2048.05 167.245   6
   0   5 -16 1965.17 184.443   3
   0   5  16 2145.30 148.495   6
   0   5 -16 1901.76 119.532   5
   0   5 -17 379.744 85.3766   3
   0   5  17 441.469 73.4436   6
   0  -5  17 349.354 73.6761   6
   0   5 -17 353.799 53.5124   5
   0   5 -18 171.297 72.5467   3
   0  -5  18 141.783 55.7802   6
   0   5 -18 141.365 34.9876   5
   0   5  18 132.735 43.5517   6
   0  -5  19 480.446 97.3929   6
   0   5  19 372.837 71.7494   6
   0   5  20 383.352 81.1087   6
   0  -5  20 512.945 102.489   6
   0   5  20 677.822 113.208  10
   0   5  21-24.3550 31.2573   6
   0  -5  21 17.2271 34.5581   6
   0   5  22 184.278 66.6076   6
   0  -5  22 196.668 74.3477   6
   0   6   0 12474.4 330.251   3
   0  -6   0 12977.1 325.620   7
   0   6   0 12562.8 264.549   6
   0   6   0 13215.1 230.636   5
   0  -6   0 12527.6 377.677   1
   0   6   0 12793.2 273.746  10
   0  -6   0 13245.7 275.200   9
   0  -6   0 12377.6 327.609   4
   0  -6  -1 73.0355 16.7927   9
   0   6   1 66.5982 30.0037  10
   0  -6   1 67.1867 19.5539   7
   0  -6   1 60.7619 13.4247   9
   0  -6  -1 49.8484 14.9662   4
   0  -6   1 3.28164 18.6610   1
   0  -6   1 50.9671 9.47603  10
   0   6  -1 47.8070 5.57337   5
   0   6  -1 22.2367 9.13127  10
   0  -6   1 15.5707 15.1558   4
   0   6  -1 75.1602 24.1193   3
   0   6  -1 28.4673 8.52433   6
   0  -6  -1 40.2244 15.3115   7
   0   6   1 57.8670 20.6184   3
   0  -6  -1 34.7235 21.2777   1
   0  -6  -2 16355.2 382.840   7
   0  -6  -2 15666.4 322.375   9
   0  -6   2 15977.1 316.689   9
   0  -6   2 15802.2 295.180  10
   0  -6   2 15651.0 380.843   4
   0   6   2 15700.7 333.276  10
   0  -6   2 15678.3 367.376   7
   0  -6  -2 15553.6 384.043   4
   0   6   2 14847.9 279.109   2
   0  -6   2 15605.5 433.591   1
   0   6  -2 15547.8 383.920   3
   0  -6   3 28270.1 572.462   7
   0  -6   3 27663.3 511.224   9
   0   6   3 28759.4 478.915   2
   0  -6   3 26996.9 651.374   1
   0  -6   3 27029.3 498.977  10
   0   6  -3 28017.9 596.262   3
   0  -6  -3 27724.9 590.142   7
   0  -6  -3 28093.7 522.484   9
   0  -6   3 27134.5 587.498   4
   0  -6   3 28091.1 540.958   6
   0   6   3 27225.3 539.491  10
   0   6   3 27048.2 470.356   2
   0   6   3 26465.7 490.473   6
   0  -6   4 3037.52 120.600   6
   0  -6   4 2824.03 126.121   7
   0  -6  -4 3139.01 142.788   7
   0  -6   4 2756.74 133.146   4
   0  -6  -4 2932.95 103.553   9
   0   6   4 3029.74 116.592  10
   0  -6   4 2825.60 93.9943   9
   0   6  -4 2999.41 141.532   3
   0  -6   4 2856.81 164.128   1
   0   6  -4 2956.94 61.6338   5
   0   6   4 2925.81 87.9004   6
   0   6  -5 1830.17 48.3945   5
   0   6   5 1689.03 88.9394  10
   0  -6   5 1867.97 134.541   1
   0  -6   5 1844.76 87.6980  11
   0  -6  -5 1809.35 80.7721   9
   0  -6  -5 1782.37 110.354   7
   0  -6   5 1823.66 96.0287   6
   0  -6   5 1792.67 99.0380   7
   0  -6   5 1822.70 70.4060   9
   0  -6   5 1658.13 104.393   4
   0   6   5 1715.84 67.9302   6
   0   6  -5 1862.53 112.786   3
   0   6   6 85.1444 26.1492  10
   0  -6   6 59.6209 24.5202   4
   0   6  -6 31.8667 22.3433   3
   0  -6  -6 23.7575 15.8851   9
   0  -6   6 50.0378 21.1593   6
   0  -6   6 56.1666 17.4681   9
   0   6   6 69.6724 15.8674   6
   0   6  -6 25.5556 7.61702   5
   0  -6   6 75.4521 36.3222   1
   0  -6   6 25.0701 19.9147   7
   0  -6   7 30581.1 643.380   7
   0  -6   7 30303.3 752.255   1
   0  -6   7 30415.5 669.363   4
   0   6  -7 31571.3 699.552   3
   0  -6   7 31508.0 653.239   6
   0   6  -7 31065.3 543.843   5
   0  -6   7 30491.4 562.021   9
   0   6   7 30930.9 582.948   6
   0   6  -8 2695.72 84.4651   5
   0  -6   8 2605.36 136.083   6
   0  -6  -8 2324.59 113.367   5
   0   6  -8 2604.19 154.263   3
   0  -6   8 2579.05 129.505   7
   0  -6   8 2638.22 141.101   4
   0   6   8 2584.68 103.980   6
   0  -6   8 2522.55 84.7942   9
   0  -6  -9 2181.63 113.943   5
   0  -6   9 2562.90 130.985   7
   0   6  -9 2437.11 154.665   3
   0  -6   9 2513.68 82.5337   9
   0   6   9 2551.32 108.703   6
   0   6  -9 2489.70 87.9560   5
   0  -6   9 2697.91 143.677   6
   0  -6 -10 30870.3 682.556   5
   0   6 -10 33098.8 790.720   3
   0  -6  10 33524.4 592.816   9
   0   6  10 33548.9 653.627   8
   0   6 -10 33525.8 622.538   5
   0  -6  10 33265.5 706.745   7
   0  -6  10 34416.8 744.747   6
   0   6  10 33102.6 661.666   6
   0   6 -11 39635.5 729.188   5
   0  -6  11 39153.0 811.991   7
   0  -6  11 38993.2 855.426   6
   0   6 -11 40274.7 918.986   3
   0   6  11 40116.6 751.800   8
   0  -6 -11 36141.0 790.972   5
   0   6  11 38670.5 772.874   6
   0   6  12 293.008 43.6095   6
   0  -6  12 327.933 58.1430   6
   0  -6 -12 193.290 39.7209   5
   0   6 -12 277.421 34.4994   5
   0  -6  12 273.798 47.6567   7
   0   6 -12 299.312 64.6288   3
   0   6  13 2152.59 126.613   6
   0  -6  13 2411.94 140.279   7
   0   6 -13 2167.26 106.701   5
   0  -6  13 2296.39 159.211   6
   0   6 -13 2160.06 175.004   3
   0   6  14 376.752 55.2983   6
   0  -6  14 596.256 70.9162   7
   0  -6  14 502.616 80.2917   6
   0   6 -14 469.394 50.6197   5
   0   6 -14 425.063 87.1867   3
   0   6  15 1485.63 118.303   6
   0  -6  15 1491.50 113.897   7
   0  -6  15 1658.81 147.325   6
   0   6 -15 1568.65 100.886   5
   0   6 -15 1347.46 151.118   3
   0  -6  16 428.983 83.5619   6
   0   6 -16 268.121 43.4770   5
   0   6 -16 270.747 74.7404   3
   0   6  16 283.377 58.0152   6
   0  -6  16 261.486 48.7529   7
   0   6 -17 65.5367 49.6992   3
   0  -6  17 89.2150 49.3193   6
   0   6 -17 32.7364 20.4921   5
   0   6  17 16.4985 28.7024   6
   0   6  18 503.554 84.6191   6
   0   6 -18 355.979 100.350   3
   0  -6  18 341.159 79.2450   6
   0   6  18 459.778 87.5774  10
   0   6  19 2530.57 193.092   6
   0  -6  19 2690.82 226.611   6
   0   6  19 3070.50 226.939  10
   0   6 -19 2679.27 250.090   3
   0   6 -20 12.3820 57.2333   3
   0   6  20 32.3749 39.5965   6
   0  -6  20 137.185 65.5589   6
   0   6  20 41.9554 40.4426  10
   0  -6  21-16.5869 41.6655   6
   0   6  21-3.80213 38.2785  10
   0   6  21-19.9580 29.7991   6
   0   7   0 14.2843 15.6277   3
   0   7   0 31.4868 5.43748   5
   0  -7   0 11.7839 11.3679   9
   0  -7   0 9.79260 21.6257   1
   0   7   0 1.16783 7.35373   6
   0   7   0 0.08102 10.0866  10
   0  -7   0 31.7560 17.6827   7
   0  -7   0 15.0412 17.9695   4
   0   7  -1 4555.38 126.104  10
   0  -7  -1 4506.15 135.527   9
   0  -7   1 4598.19 182.785   4
   0   7  -1 4573.59 184.048   3
   0   7   1 4177.48 177.543   3
   0  -7  -1 4616.73 181.789   7
   0  -7   1 4576.99 133.743   9
   0   7  -1 4437.80 117.687   6
   0   7  -1 4535.24 85.9977   5
   0  -7  -1 4487.94 216.260   1
   0  -7   1 4542.78 222.216   1
   0  -7   1 4658.13 177.857   7
   0  -7  -1 4616.27 184.539   4
   0   7   1 4575.06 142.199  10
   0  -7   2 34417.5 706.838   7
   0  -7   2 34326.0 634.881   9
   0   7  -2 34763.0 729.596   3
   0  -7  -2 35214.6 723.824   7
   0   7   2 33372.2 722.821   3
   0   7   2 34846.8 661.436  10
   0  -7   2 35107.4 602.524  10
   0  -7  -2 33778.9 725.765   4
   0  -7   2 33431.1 717.393   4
   0  -7  -2 34661.4 645.505   9
   0  -7   2 34130.3 803.533   1
   0  -7   3 11716.7 239.719  10
   0  -7  -3 12060.5 336.039   7
   0  -7  -3 12179.2 273.685   9
   0   7  -3 12163.4 340.233   3
   0  -7   3 11745.2 260.712   9
   0  -7   3 11943.0 320.102   7
   0  -7   3 11762.2 332.485   4
   0   7   3 11738.1 225.948   2
   0   7   3 11770.9 290.897  10
   0   7   3 12033.2 237.507   6
   0  -7   3 12175.7 395.512   1
   0   7   4 1573.84 90.6704  10
   0  -7   4 1085.81 72.3459   6
   0  -7   4 1046.81 85.2170   4
   0  -7   4 1118.37 82.3152   7
   0  -7   4 1075.03 52.8549  10
   0  -7   4 1065.25 56.8439   9
   0  -7   4 1015.88 104.118   1
   0  -7  -4 1224.44 93.6675   7
   0   7  -4 1154.71 92.8105   3
   0  -7  -4 1131.29 65.2252   9
   0   7   4 1156.41 50.4587   6
   0   7   5 2843.41 92.1507   6
   0   7   5 2910.09 125.444  10
   0   7  -5 2837.13 150.065   3
   0  -7   5 2960.05 138.148   7
   0  -7  -5 2765.06 149.112   7
   0  -7   5 2871.92 98.5359   9
   0  -7  -5 2680.82 107.705   9
   0  -7   5 2828.38 126.168   6
   0  -7   5 2780.83 177.291   1
   0   7  -5 2789.04 65.3079   5
   0  -7   5 2775.61 144.063   4
   0  -7   6 259.092 41.0818   7
   0  -7   6 289.017 37.2556  11
   0  -7   6 235.702 38.5233   6
   0  -7   6 256.616 59.5766   1
   0   7  -6 257.972 46.5742   3
   0   7   6 320.244 42.7277  10
   0   7   6 267.562 27.6518   6
   0  -7  -6 295.218 35.0954   9
   0  -7   6 310.417 48.8534   4
   0  -7   6 290.110 28.0822   9
   0   7  -6 305.367 19.8986   5
   0   7   7 478.334 54.7175  10
   0  -7   7 429.228 54.9050   7
   0  -7   7 411.600 57.1205   4
   0  -7   7 425.105 34.0406   9
   0   7  -7 455.250 65.0606   3
   0   7   7 474.422 39.5114   6
   0   7  -7 446.607 27.1564   5
   0  -7   7 408.009 51.9657   6
   0  -7   7 315.208 63.8324   1
   0  -7   8 637.714 66.0026   7
   0  -7   8 676.431 41.5894   9
   0  -7   8 703.355 94.4447   1
   0   7   8 670.568 50.0100   6
   0   7  -8 594.875 36.4562   5
   0  -7   8 655.698 72.7535   4
   0  -7   8 764.777 73.5417   6
   0   7   8 614.236 62.8589  10
   0   7  -8 619.240 77.7520   3
   0  -7   9 63.9554 27.4814   7
   0  -7   9 11.7644 27.4255   1
   0  -7   9 58.1346 27.3442   4
   0   7  -9 37.4191 23.5588   3
   0   7   9 95.1765 32.5864  10
   0   7   9 50.5444 19.1730   6
   0   7  -9 54.9895 12.4776   5
   0  -7   9 32.7453 11.4397   9
   0  -7   9 21.3254 22.7748   6
   0   7  10 40.0388 19.0003   6
   0  -7  10 49.4190 27.1772   7
   0  -7  10 30.2994 10.7316   9
   0  -7  10 10.7114 18.8490   6
   0   7 -10-0.15304 22.9565   3
   0   7  10 37.9923 20.1260   8
   0  -7  10-3.38701 21.3852   4
   0   7 -10 15.4848 9.18707   5
   0  -7  11 1121.80 92.8447   7
   0   7 -11 992.381 61.5214   5
   0  -7  11 1045.49 100.106   4
   0   7  11 1124.71 79.0604   8
   0  -7  11 1034.95 99.6347   6
   0   7 -11 1190.36 121.921   3
   0   7  11 1022.35 76.8806   6
   0   7 -12 8198.93 352.399   3
   0  -7  12 7988.66 279.606   7
   0  -7  12 7821.22 297.985   4
   0   7 -12 7723.08 216.447   5
   0   7  12 7738.32 251.008   6
   0  -7  12 8407.79 317.787   6
   0   7 -13 623.137 56.2878   5
   0  -7  13 648.149 73.8045   7
   0   7 -13 716.789 103.917   3
   0  -7  13 848.026 102.862   6
   0   7  13 764.293 75.7460   6
   0   7 -14 5493.29 193.236   5
   0  -7  14 5747.20 237.906   7
   0   7  14 5714.68 231.611   6
   0   7 -14 5460.59 307.151   3
   0  -7  14 5913.86 282.809   6
   0   7  14 6553.98 280.750  10
   0   7 -15 84.2942 52.7700   3
   0  -7  15 67.4577 24.6368   7
   0   7  15 120.962 38.5859   6
   0  -7  15 95.3842 40.7784   6
   0   7  15 220.820 62.0618  10
   0   7  16 337.515 63.5517   6
   0  -7  16 407.433 80.8906   6
   0   7 -16 436.586 95.6424   3
   0   7  16 489.555 88.0594  10
   0  -7  16 444.021 67.8596   7
   0   7  17 1738.68 143.895   6
   0  -7  17 1836.71 173.484   6
   0   7  17 2011.57 171.772  10
   0   7 -17 1868.17 196.923   3
   0   7 -18 905.815 147.101   3
   0  -7  18 991.189 131.791   6
   0   7  18 997.716 114.598   6
   0   7  18 1238.45 142.928  10
   0   7  19 1376.80 156.131  10
   0   7 -19 1104.30 164.673   3
   0   7  19 1135.97 129.130   6
   0  -7  19 1246.83 157.293   6
   0  -7  20 5952.70 359.896   6
   0   7  20 6685.22 362.236  10
   0   7  20 5988.70 322.231   6
   0   7 -20 5886.44 396.254   3
   0   7  21 692.822 110.458   6
   0  -7  21 635.017 120.954   6
   0   8   0 1446.10 105.124   3
   0  -8   0 1580.16 106.613   7
   0   8   0 1359.51 71.0515  10
   0  -8   0 1388.30 102.770   4
   0  -8   0 1389.04 124.119   1
   0  -8   0 1380.28 72.4647   9
   0   8   0 1214.58 56.6700   6
   0   8   0 1361.81 37.8166   5
   0   8  -1 4158.53 112.650   6
   0   8   1 4840.45 160.191  10
   0  -8  -1 4772.06 144.023   9
   0  -8  -1 4674.16 194.197   4
   0   8   1 4736.90 198.347   3
   0  -8   1 4546.55 140.014   9
   0  -8  -1 4738.80 194.342   7
   0  -8   1 4442.27 190.020   4
   0  -8   1 4541.74 186.619   7
   0   8  -1 4553.00 127.415  10
   0   8  -1 4127.13 80.7798   5
   0  -8  -1 4260.07 224.262   1
   0   8  -1 4644.47 195.261   3
   0  -8   1 4539.98 234.029   1
   0  -8   2 6541.75 292.771   1
   0  -8   2 6985.18 186.542   9
   0   8  -2 7033.77 253.734   3
   0   8   2 7201.95 208.466  10
   0  -8  -2 7105.61 193.370   9
   0   8   2 6817.36 251.406   3
   0  -8   2 6947.89 241.049   7
   0  -8   2 6916.72 246.176   4
   0  -8  -2 6997.24 251.939   7
   0  -8   3 18821.3 356.095  10
   0  -8  -3 19823.1 410.622   9
   0   8   3 19709.3 436.129  10
   0  -8  -3 19458.6 491.512   7
   0  -8   3 20014.8 397.544   9
   0  -8   3 19492.0 473.648   7
   0   8  -3 19915.4 496.243   3
   0   8   3 18816.9 360.657   6
   0   8   3 20023.3 499.442   3
   0  -8   3 19913.4 486.912   4
   0   8   3 19496.8 359.629   2
   0  -8   3 19378.1 562.157   1
   0  -8   4 946.055 107.975   1
   0   8   4 1260.54 83.6620  10
   0  -8   4 911.739 82.0051   4
   0  -8   4 963.614 81.3892   7
   0  -8   4 971.124 56.2567   9
   0  -8  -4 1035.24 65.4383   9
   0  -8  -4 947.066 88.9658   7
   0  -8   4 943.898 46.1536  10
   0   8   4 971.194 46.5378   6
   0   8  -4 869.827 84.1664   3
   0  -8   5 195.930 33.7418   6
   0  -8   5 227.662 56.3310   1
   0   8   5 172.943 34.7925  10
   0  -8  -5 185.430 29.2488   9
   0   8   5 174.997 21.7259   6
   0  -8   5 168.185 36.1634   7
   0  -8   5 140.796 37.4829   4
   0   8  -5 177.831 45.1304   3
   0  -8  -5 230.796 46.1304   7
   0  -8   5 202.169 26.1263   9
   0   8   6 8.97594 7.83337   6
   0   8   6 24.8943 22.0496  10
   0  -8   6 14.2125 25.9317   1
   0   8  -6 10.1651 16.8908   3
   0  -8  -6 22.2040 20.4850   9
   0  -8  -6-26.9363 24.8281   7
   0  -8   6 4.83744 15.1036   6
   0  -8   6-4.78254 16.6210   7
   0  -8   6 31.9175 14.9627   9
   0  -8   6 20.7769 20.5968   4
   0   8  -6 20.9463 5.63934   5
   0  -8   7 1396.96 65.0665   9
   0  -8   7 1281.54 102.726   4
   0   8  -7 1394.90 115.652   3
   0   8   7 1333.83 67.9755   6
   0  -8   7 1332.95 98.7239   7
   0  -8   7 1292.32 95.7242   6
   0   8   7 1310.56 94.7397  10
   0  -8   7 1270.95 129.870   1
   0   8  -7 1263.16 47.3886   5
   0   8  -8 2290.87 156.469   3
   0  -8   8 2328.57 185.170   1
   0   8   8 2428.05 101.508   6
   0  -8   8 2543.35 122.046  11
   0   8   8 2540.43 139.053  10
   0  -8   8 2337.09 136.815   7
   0   8  -8 2453.06 78.0455   5
   0  -8   8 2414.35 88.9029   9
   0  -8   8 2313.15 137.374   6
   0  -8   8 2542.36 149.199   4
   0  -8   9 26638.6 655.858   4
   0   8   9 27602.6 564.697   6
   0   8  -9 29221.7 718.037   3
   0  -8   9 27487.1 638.806   7
   0   8   9 28561.4 647.124  10
   0  -8   9 26777.9 765.715   1
   0  -8   9 28341.1 660.475   6
   0  -8   9 28516.1 523.036   9
   0  -8  10 10151.9 429.899   1
   0  -8  10 10570.3 334.544   7
   0   8  10 11460.4 351.065  10
   0  -8  10 10780.7 352.487   4
   0   8 -10 10839.7 395.832   3
   0  -8  10 10954.0 358.382   6
   0   8  10 10415.9 283.031   6
   0   8  11 11431.2 313.179   6
   0  -8  11 10798.4 369.684   4
   0   8  11 12225.2 328.672   8
   0  -8  11 11657.5 477.510   1
   0   8  11 12277.4 380.380  10
   0   8 -11 11576.7 428.326   3
   0  -8  11 11867.4 361.561   7
   0  -8  11 12111.1 392.937   6
   0  -8  12-7.41539 39.8717   1
   0  -8  12 16.0639 22.4458   7
   0  -8  12 5.86799 32.6620   4
   0   8  12 56.4226 24.2898   6
   0   8  12 71.2238 39.5525  10
   0  -8  12 19.0594 27.3609   6
   0   8 -12 80.4512 37.8695   3
   0  -8  13 2680.13 159.542   7
   0   8  13 2663.49 175.145  10
   0  -8  13 2384.98 173.390   6
   0   8  13 2654.70 144.555   6
   0   8 -13 2333.18 195.274   3
   0   8  14 3397.50 204.940  10
   0  -8  14 3023.13 173.630   7
   0   8  14 3060.67 164.993   6
   0   8 -14 3274.88 236.695   3
   0  -8  14 2872.09 198.984   6
   0   8 -15 862.947 128.901   3
   0  -8  15 862.734 115.133   6
   0   8  15 912.582 95.5448   6
   0  -8  15 834.724 91.7308   7
   0   8  15 1142.68 123.964  10
   0  -8  16 135.951 52.6232   6
   0   8  16 77.6316 36.4299   6
   0   8 -16 98.6307 58.3365   3
   0  -8  16 60.8602 30.8046   7
   0   8  16 182.371 63.7154  10
   0   8 -17 1561.36 187.352   3
   0   8  17 1611.59 140.417   6
   0   8  17 1588.74 159.106  10
   0  -8  17 1531.30 161.373   6
   0   8 -18 587.427 119.838   3
   0  -8  18 569.674 107.749   6
   0   8  18 590.346 89.9723   6
   0   8  18 727.806 114.553  10
   0  -8  19 15.3332 34.0058   6
   0   8  19 77.5403 40.1143   6
   0   8 -19 53.0281 65.5162   3
   0   8  19 79.8204 61.0540  10
   0   8  20 250.382 83.0347  10
   0  -8  20 204.126 66.3664   6
   0   8  20 167.826 59.3012   6
   0   8 -20 84.9377 46.9279   3
   0  -8  21 69.3178 48.7820   6
   0   8  21 6.51624 51.6208   6
   0  -9   0-2.41312 17.2764   7
   0  -9   0-1.83982 20.2237   4
   0   9   0-3.62409 16.7739   3
   0  -9   0-0.69292 26.1804   1
   0  -9   0 17.4770 14.3170   9
   0   9   0-5.51712 9.65150  10
   0   9  -1 2.53669 19.1206   3
   0  -9   1 0.16214 20.2381   7
   0   9   1 19.3655 15.0276  10
   0  -9  -1-5.51613 13.5337   9
   0  -9   1-20.1732 21.1230   4
   0   9  -1 0.47101 8.34229  10
   0  -9  -1-15.7369 19.3569   4
   0   9   1-16.8888 23.0584   3
   0  -9   1-29.2772 34.9006   1
   0  -9   1 9.53232 15.8536   9
   0  -9  -1 7.17603 22.5134   7
   0  -9   2 9081.36 373.264   1
   0   9   2 9295.91 255.826  10
   0  -9  -2 9193.36 311.043   7
   0  -9   2 8709.70 300.103   4
   0   9  -2 9398.51 316.127   3
   0  -9  -2 8964.67 236.577   9
   0  -9   2 8966.91 228.119   9
   0   9   2 8773.89 182.037   6
   0   9   2 8828.72 308.652   3
   0  -9   2 8893.67 298.393   7
   0  -9  -3 13753.6 329.599   9
   0   9   3 14469.0 421.106   3
   0  -9   3 13822.4 483.878   1
   0  -9   3 13448.2 399.143   4
   0   9   3 14166.9 357.023  10
   0  -9   3 14317.8 398.492   7
   0   9   3 13815.9 273.202   6
   0   9  -3 13979.0 412.800   3
   0  -9  -3 14115.1 412.233   7
   0   9   3 14834.2 299.069   2
   0  -9   3 14343.5 317.839   9
   0   9  -4 11441.7 363.380   3
   0  -9  -4 11670.4 369.781   7
   0   9   4 11022.5 234.530   6
   0  -9   4 11296.5 429.794   1
   0  -9   4 11403.0 266.453   9
   0  -9  -4 11235.0 284.651   9
   0   9   4 11391.9 369.032   3
   0  -9   4 11160.6 342.787   7
   0   9   4 11741.3 317.593  10
   0  -9   4 11068.7 349.906   4
   0  -9   5 7793.16 351.123   1
   0  -9  -5 7847.62 225.017   9
   0   9   5 7928.65 257.155  10
   0  -9   5 7267.18 272.269   4
   0  -9   5 7889.66 274.746   7
   0   9  -5 7602.17 292.245   3
   0  -9   5 7863.48 202.717   9
   0  -9  -5 7727.27 295.852   7
   0   9   5 7693.66 183.830   6
   0  -9   6 8521.55 375.307   1
   0  -9  -6 8945.52 251.334   9
   0  -9   6 9193.24 224.059   9
   0  -9   6 9505.58 305.094   7
   0  -9   6 8928.15 275.152   6
   0   9  -6 9640.04 337.476   3
   0  -9   6 9120.76 310.917   4
   0  -9  -6 9261.01 331.937   7
   0   9   6 8723.21 213.970   6
   0   9   6 9068.45 286.902  10
   0   9   7 12063.7 280.779   6
   0  -9   7 12363.4 464.489   1
   0  -9   7 12085.0 364.962   7
   0  -9   7 12099.8 379.864   4
   0   9   7 12565.1 360.922  10
   0  -9   7 12417.3 278.333   9
   0  -9   7 12301.4 353.444   6
   0   9  -7 12727.0 410.416   3
   0  -9   8 1529.14 115.281   7
   0   9   8 1760.28 119.273  10
   0   9   8 1645.62 83.3214   6
   0   9  -8 1633.16 138.385   3
   0  -9   8 1658.13 125.238   4
   0  -9   8 1463.52 153.529   1
   0  -9   8 1660.48 74.7921   9
   0  -9   8 1446.14 110.544   6
   0   9   9 1046.09 69.9102   6
   0  -9   9 1131.87 100.955   6
   0  -9   9 1018.82 130.696   1
   0   9   9 1249.98 104.908  10
   0  -9   9 989.758 96.8557   4
   0  -9   9 1108.87 58.9845   9
   0  -9   9 1188.86 102.278   7
   0   9  -9 1107.39 117.624   3
   0  -9  10 97.3248 26.4220   4
   0  -9  10 13.8960 30.2838   1
   0   9  10 73.4857 23.0577   6
   0   9 -10 134.830 46.5755   3
   0  -9  10 127.929 38.1000   7
   0   9  10 91.6631 37.7513  10
   0  -9  10 44.5013 26.5541   6
   0  -9  11-4.29885 19.0831   4
   0   9 -11-10.5693 29.3656   3
   0  -9  11 20.8428 22.3938   6
   0   9  11 64.7570 23.5521   6
   0   9  11 22.8464 32.9428  10
   0  -9  11 75.8748 41.2253   1
   0  -9  11 20.7906 21.0979   7
   0  -9  12 589.458 109.746   1
   0  -9  12 761.186 95.6040   6
   0   9  12 775.428 94.7304  10
   0   9  12 732.015 70.7671   6
   0   9 -12 759.109 109.216   3
   0  -9  12 838.536 89.8570   7
   0  -9  13 4858.88 319.088   1
   0   9  13 4949.43 251.572  10
   0  -9  13 4835.76 227.844   7
   0   9  13 4745.93 202.535   6
   0  -9  13 4518.12 248.782   6
   0   9 -13 4806.63 289.307   3
   0  -9  14 1066.11 156.902   1
   0  -9  14 1300.39 135.798   6
   0   9  14 1385.20 134.926  10
   0  -9  14 1193.33 111.488   7
   0   9  14 1189.79 102.904   6
   0   9 -14 1320.02 153.695   3
   0  -9  15 1707.13 135.949   7
   0   9  15 2046.02 170.710  10
   0  -9  15 1812.58 208.125   1
   0   9  15 1731.59 132.989   6
   0  -9  15 1743.65 162.830   6
   0   9 -15 1773.05 187.451   3
   0  -9  16 28.0379 35.5257   6
   0   9  16 65.0409 40.7729  10
   0   9 -16 52.1564 45.7946   3
   0  -9  16 139.450 76.6454   1
   0   9  16 60.4832 30.4334   6
   0  -9  16 23.6900 24.6982   7
   0  -9  17 608.988 132.468   1
   0   9 -17 825.260 138.611   3
   0  -9  17 622.097 106.477   6
   0   9  17 882.505 105.776   6
   0   9  17 857.109 120.756  10
   0  -9  18 2111.39 202.839   6
   0   9  18 2719.30 225.355  10
   0   9  18 2195.92 176.950   6
   0  -9  18 2455.10 269.265   1
   0   9 -18 2496.49 248.079   3
   0  -9  19 5797.39 426.746   1
   0   9  19 6075.35 316.127   6
   0   9  19 6554.16 369.618  10
   0   9 -19 5999.98 403.767   3
   0   9  20 449.626 90.7110   6
   0 -10   0 14.0034 14.2002   9
   0  10   0 11.7240 18.5706   3
   0 -10   0 7.78011 20.3819   7
   0 -10   0 19.0077 40.2683   1
   0 -10   0 8.45053 30.4868   4
   0  10  -1 3463.87 186.282   3
   0 -10   1 3380.82 129.793   9
   0 -10   1 3438.16 183.680   7
   0  10   1 3466.85 189.399   3
   0 -10  -1 3534.34 135.330   9
   0 -10   1 3245.15 179.562   4
   0 -10  -1 3599.60 191.521   7
   0 -10  -1 3632.39 190.015   4
   0  10   1 3534.55 138.034  10
   0 -10   1 3259.36 225.456   1
   0  10  -2 294.253 53.8732   3
   0 -10   2 227.431 62.2891   1
   0  10   2 231.569 49.5050   3
   0 -10   2 241.812 33.6346   9
   0  10   2 257.829 40.1288  10
   0 -10   2 236.283 46.2153   4
   0 -10  -2 221.695 51.6315   7
   0 -10  -2 263.743 36.6688   9
   0 -10   2 241.952 48.5928   7
   0 -10  -3 2102.18 104.698   9
   0  10   3 2212.79 151.650   3
   0  10   3 2102.02 117.146  10
   0 -10   3 2284.83 146.105   7
   0 -10   3 2221.23 145.425   4
   0 -10   3 2141.40 97.2098   9
   0 -10  -3 2156.83 149.325   7
   0 -10   3 2098.87 183.570   1
   0  10  -3 2128.64 147.518   3
   0 -10  -4 24358.9 525.748   9
   0 -10  -4 24504.6 636.581   7
   0 -10   4 24365.4 611.458   4
   0 -10   4 25709.7 617.973   7
   0  10  -4 24539.0 633.429   3
   0  10   4 24974.5 572.155  10
   0  10   4 25440.6 646.569   3
   0 -10   4 24629.6 501.417   9
   0 -10   4 23510.3 718.394   1
   0 -10  -5 3960.01 156.919   9
   0  10   5 4431.38 225.187   3
   0 -10   5 4196.34 264.158   1
   0 -10  -5 3975.92 216.264   7
   0  10  -5 3992.97 212.985   3
   0 -10   5 3835.23 196.437   7
   0 -10   5 3825.26 197.708   4
   0  10   5 4133.66 185.067  10
   0 -10   5 4161.43 139.145   9
   0  10  -6 335.070 60.9832   3
   0 -10   6 374.293 59.8809   7
   0  10   6 368.919 57.8001  10
   0 -10   6 397.660 61.3906   4
   0 -10   6 282.071 73.0615   1
   0 -10  -6 406.735 69.6010   7
   0  10   6 303.876 30.4999   6
   0 -10   6 380.942 38.5417   9
   0  10   7 259.822 50.4387  10
   0 -10   7 260.169 73.4765   1
   0 -10   7 238.520 31.3588   9
   0 -10   7 258.935 51.6126   7
   0  10  -7 219.442 52.7041   3
   0 -10   7 228.713 45.4775   4
   0  10   7 235.949 28.4549   6
   0 -10   8 3836.56 263.674   1
   0 -10   8 3747.78 185.623   6
   0  10  -8 4118.88 231.312   3
   0 -10   8 3801.84 196.408   7
   0  10   8 4157.57 202.116  10
   0 -10   8 4124.95 133.010   9
   0  10   8 3743.11 135.655   6
   0 -10   8 3918.20 203.046   4
   0 -10   9 39.0091 28.6881   6
   0 -10   9 10.2167 33.2508   1
   0  10   9 51.5943 19.0196   6
   0  10   9 33.3930 29.3220  10
   0 -10   9 21.1527 27.9924   7
   0  10  -9 53.2458 34.8221   3
   0 -10   9 16.6428 29.2273   4
   0  10  10 874.287 97.6220  10
   0 -10  10 920.937 100.462   4
   0 -10  10 861.771 94.7573   7
   0  10 -10 875.393 113.518   3
   0 -10  10 899.685 130.903   1
   0  10  10 899.242 70.3939   6
   0  10 -11 3981.86 251.190   3
   0 -10  11 4273.21 215.454   7
   0 -10  11 4264.94 219.950   4
   0 -10  11 4150.41 289.995   1
   0  10  11 4105.02 169.887   6
   0  10  11 4257.52 227.496  10
   0 -10  12 2460.95 164.432   7
   0  10  12 2810.59 187.175  10
   0  10 -12 2447.94 204.076   3
   0 -10  12 2489.23 229.666   1
   0  10  12 2694.04 142.259   6
   0 -10  13 469.999 108.993   1
   0  10 -13 406.728 88.9733   3
   0  10  13 432.313 61.1653   6
   0 -10  13 464.707 73.1169   7
   0  10  13 566.613 89.6707  10
   0 -10  14 964.945 106.461   7
   0 -10  14 863.535 148.385   1
   0  10  14 1049.33 98.0154   6
   0  10 -14 1024.88 139.676   3
   0  10  14 1148.44 129.174  10
   0 -10  15 900.352 147.669   1
   0  10  15 1040.01 127.246  10
   0  10 -15 776.530 128.790   3
   0 -10  15 871.801 103.105   7
   0  10  15 871.597 95.7947   6
   0  10 -16 452.171 102.660   3
   0  10  16 534.416 95.4406  10
   0 -10  16 543.121 81.1054   7
   0 -10  16 223.370 73.3690   1
   0  10  17 1669.41 176.920  10
   0  10 -17 1502.90 190.741   3
   0 -10  17 1739.42 221.566   1
   0  10 -18 76.0096 62.8370   3
   0  10  18 40.4024 69.8923  10
   0 -10  18 73.5820 66.1931   1
   0  10  19 511.637 110.634  10
   0 -11   0-39.9947 29.4154   1
   0  11   0-18.8256 27.8245   3
   0 -11   0-12.8972 28.0805   4
   0 -11   0 20.8996 32.5107   7
   0 -11   0 12.0866 19.6479   9
   0 -11  -1 4616.45 233.380   7
   0 -11   1 4806.44 234.206   7
   0 -11  -1 4842.77 173.001   9
   0  11  -1 5008.98 240.422   3
   0 -11   1 4783.59 287.974   1
   0 -11   1 5078.92 238.484   4
   0 -11   1 4834.35 167.653   9
   0  11   1 5052.62 243.349   3
   0 -11  -2 893.856 68.5236   9
   0 -11   2 955.110 68.3169   9
   0  11  -2 1149.84 112.894   3
   0 -11   2 829.024 92.7513   4
   0  11   2 808.297 94.0465   3
   0 -11   2 983.447 100.773   7
   0 -11  -2 934.227 102.401   7
   0 -11   2 858.416 120.601   1
   0 -11  -3 7466.94 232.392   9
   0 -11   3 7203.14 293.277   4
   0 -11   3 7363.85 371.720   1
   0 -11  -3 7531.41 314.019   7
   0 -11   3 7790.40 304.147   7
   0 -11   3 7435.58 216.271   9
   0  11   3 7877.81 317.399   3
   0  11  -3 7655.80 310.299   3
   0 -11  -4 22105.1 622.423   7
   0 -11   4 22052.1 592.885   4
   0  11   4 23065.2 554.723  10
   0 -11  -4 22561.6 508.329   9
   0  11   4 23759.6 636.066   3
   0 -11   4 22958.8 481.818   9
   0 -11   4 23102.1 603.997   7
   0  11  -4 23398.1 625.797   3
   0 -11   4 22895.5 722.574   1
   0  11   5 5628.77 273.073   3
   0 -11   5 5445.18 174.968   9
   0 -11  -5 5554.41 271.583   7
   0  11   5 6080.61 239.511  10
   0 -11   5 5760.91 257.840   7
   0 -11   5 5652.86 252.233   4
   0 -11   5 5246.37 315.907   1
   0  11  -5 5802.21 272.075   3
   0 -11  -5 5808.72 202.930   9
   0 -11   6 8806.90 331.162   7
   0 -11   6 8753.84 328.462   4
   0  11   6 9971.92 376.505   3
   0  11   6 9251.72 317.847  10
   0 -11   6 8949.86 423.779   1
   0 -11   6 8942.62 238.812   9
   0  11  -6 9366.34 363.941   3
   0 -11  -6 9180.22 364.511   7
   0 -11   7 208.551 32.3083   9
   0 -11   7 130.818 39.8590   7
   0  11  -7 231.789 54.6105   3
   0 -11   7 158.167 49.3143   4
   0 -11   7 137.334 61.2524   1
   0  11   7 107.114 40.5674  10
   0 -11   8 3730.77 204.861   4
   0  11  -8 3905.64 234.375   3
   0 -11   8 3838.95 135.080   9
   0 -11   8 3653.44 203.326   7
   0  11   8 3667.23 199.897  10
   0 -11   8 3810.22 276.257   1
   0 -11   9 2551.06 169.203   4
   0 -11   9 2835.30 239.724   1
   0  11   9 2942.36 183.440  10
   0 -11   9 2707.52 174.421   7
   0  11  -9 2666.78 198.006   3
   0  11  10 171.322 55.2504  10
   0  11 -10 275.373 69.0402   3
   0 -11  10 144.758 46.8356   7
   0 -11  10 181.386 48.0756   4
   0 -11  10 243.149 79.7369   1
   0 -11  11 2981.42 252.205   1
   0 -11  11 2770.88 180.940   7
   0  11 -11 2646.72 211.728   3
   0  11  11 3228.34 206.161  10
   0  11 -12 617.585 111.566   3
   0  11  12 731.963 102.670  10
   0 -11  12 671.699 88.9632   7
   0 -11  12 442.667 106.403   1
   0 -11  13 281.522 63.2101   7
   0 -11  13 263.918 89.9243   1
   0  11 -13 317.277 82.4388   3
   0  11  13 273.019 72.7803  10
   0  11  14 30.6678 45.5692  10
   0 -11  14 42.7642 26.5198   7
   0 -11  14 4.06625 39.7179   1
   0  11 -14 17.5082 34.1560   3
   0 -11  15 1912.62 157.087   7
   0  11  15 2264.28 198.883  10
   0 -11  15 1877.19 222.928   1
   0  11 -15 1718.08 194.675   3
   0  11 -16 1185.46 168.132   3
   0 -11  16 1587.77 209.354   1
   0  11  16 1548.08 170.394  10
   0 -11  17 123.999 67.0425   1
   0  11 -17 77.8791 65.9238   3
   0  11  17 48.9290 39.2132  10
   0  11  18 3832.07 292.205  10
   0 -12   0 1898.95 105.254   9
   0  12   0 1833.18 149.779   3
   0 -12   0 2012.42 155.892   7
   0 -12  -1 1678.78 144.228   7
   0  12   1 1724.13 146.636   3
   0  12  -1 1856.69 153.355   3
   0 -12   1 1653.31 96.9805   9
   0 -12   1 1693.57 141.353   4
   0 -12   1 1900.50 151.109   7
   0 -12   1 1721.87 175.642   1
   0 -12  -1 1741.14 101.784   9
   0 -12   2 646.066 111.940   1
   0  12  -2 416.836 73.9444   3
   0 -12   2 467.413 72.3680   4
   0  12   2 582.894 86.6588   3
   0 -12   2 543.670 83.1478   7
   0 -12  -2 574.061 61.0929   9
   0 -12  -2 545.526 83.6121   7
   0 -12   2 542.575 53.9353   9
   0 -12   3 10272.7 470.499   1
   0 -12   3 10355.5 378.186   4
   0 -12  -3 11159.7 409.313   7
   0 -12   3 10616.2 389.891   7
   0  12   3 11158.3 406.311   3
   0  12  -3 10902.0 400.029   3
   0 -12  -3 10638.7 302.731   9
   0 -12   3 10859.8 287.676   9
   0 -12   4 4086.83 153.695   9
   0 -12   4 4079.40 285.151   1
   0 -12  -4 4704.81 255.932   7
   0  12  -4 4490.76 244.334   3
   0 -12  -4 4120.08 172.845   9
   0 -12   4 3738.05 213.268   4
   0 -12   4 3525.78 211.881   7
   0  12   4 4267.91 239.212   3
   0  12   5 184.051 54.2923   3
   0 -12   5 152.361 62.8750   1
   0 -12   5 154.068 45.8408   7
   0 -12   5 170.400 48.2979   4
   0  12  -5 111.310 44.3629   3
   0 -12  -5 175.752 53.7627   7
   0 -12   5 205.265 35.5539   9
   0 -12   6 508.769 80.7965   7
   0 -12   6 586.311 82.8048   4
   0  12   6 651.345 94.2990   3
   0 -12  -6 532.118 88.8023   7
   0 -12   6 576.851 52.9249   9
   0 -12   6 753.511 126.805   1
   0  12  -6 573.384 92.4482   3
   0 -12   7 302.977 39.0320   9
   0  12  -7 194.494 56.4461   3
   0  12   7 248.076 68.5800   3
   0 -12   7 381.053 71.2348   7
   0 -12   7 308.314 90.0072   1
   0 -12   7 317.400 60.8742   4
   0 -12   8 157.523 48.5577   4
   0  12  -8 149.201 54.9591   3
   0 -12   8 222.032 57.4455   7
   0  12   8 201.265 59.4990   3
   0 -12   8 187.764 68.1309   1
   0 -12   9 4625.58 325.109   1
   0 -12   9 4735.11 242.578   4
   0  12   9 5150.66 258.573  10
   0  12  -9 4969.41 286.481   3
   0 -12   9 4862.12 253.024   7
   0 -12  10 630.006 123.973   1
   0 -12  10 588.632 87.6872   7
   0  12 -10 625.451 104.554   3
   0  12  10 851.265 110.017  10
   0 -12  11 72.3861 49.2807   1
   0 -12  11 98.0127 42.6892   7
   0  12 -11 63.6285 46.7073   3
   0  12  11 79.6977 35.4226  10
   0  12 -12 69.3869 40.4742   3
   0  12  12 49.2902 41.9110  10
   0 -12  12-30.3726 45.1556   1
   0 -12  12 25.4217 27.1328   7
   0  12 -13 380.794 93.3633   3
   0  12  13 436.913 88.8281  10
   0 -12  13 286.741 92.3914   1
   0 -12  13 358.637 73.5703   7
   0  12  14 735.764 111.952  10
   0  12 -14 796.725 130.935   3
   0 -12  14 565.039 124.389   1
   0 -12  14 654.312 96.1019   7
   0 -12  15 322.508 67.8775   7
   0  12  15 434.218 93.4990  10
   0 -12  15 221.188 86.9781   1
   0  12 -15 253.841 88.6420   3
   0  12 -16-6.60752 68.3842   3
   0  12  16 24.8921 58.6831  10
   0 -12  16-48.9061 59.0076   1
   0  12  17 44.6876 49.6161  10
   0 -13   0-0.08303 18.7691   9
   0  13   0 52.3761 40.6992   3
   0 -13   0 11.4777 28.5841   7
   0  13  -1 96.3428 35.1403   3
   0 -13  -1 190.417 38.2777   9
   0  13   1 184.129 60.1544   3
   0 -13  -1 212.582 56.7697   7
   0 -13   1 209.815 37.6555   9
   0 -13   1 189.979 56.4463   7
   0 -13   1 131.666 55.0506   1
   0 -13   2 398.144 95.9293   1
   0 -13   2 239.100 62.9356   7
   0 -13   2 332.057 45.5124   9
   0 -13  -2 274.583 45.8156   9
   0 -13  -2 306.444 68.0723   7
   0 -13   2 218.368 58.3624   4
   0  13   2 369.785 73.1755   3
   0  13  -2 398.812 74.7469   3
   0 -13   3 252.657 73.2246   1
   0 -13  -3 210.507 59.6233   7
   0 -13   3 144.318 52.4259   7
   0  13  -3 144.009 47.8553   3
   0  13   3 217.353 61.1526   3
   0 -13   3 242.671 61.6217   4
   0 -13   3 185.052 33.2951   9
   0 -13  -3 231.396 38.4964   9
   0 -13  -4 100.427 46.0262   7
   0 -13   4 124.202 59.6902   1
   0  13   4 10.1043 31.2814   3
   0 -13   4 48.2137 31.0095   7
   0 -13   4 64.0857 22.6849   9
   0  13  -4 105.692 43.1378   3
   0 -13   4 60.9786 44.7520   4
   0 -13   5 1294.98 86.3515   9
   0 -13   5 1371.11 131.796   4
   0  13  -5 1444.79 144.716   3
   0  13   5 1622.49 155.909   3
   0 -13   5 1191.73 128.777   7
   0 -13   5 1322.07 173.735   1
   0 -13  -5 1321.84 141.540   7
   0  13   6 177.874 55.7208   3
   0  13  -6 274.803 68.8396   3
   0 -13  -6 203.551 60.2764   7
   0 -13   6 279.639 89.9357   1
   0 -13   6 198.208 49.9058   4
   0 -13   6 296.826 66.9571   7
   0 -13   6 244.723 39.8386   9
   0 -13   7 43.7395 32.6316   7
   0  13   7-23.6544 44.4634   3
   0 -13   7-8.61327 25.9998   4
   0  13  -7 3.48706 31.9712   3
   0 -13   7 2.19415 45.5343   1
   0 -13   8 1453.85 143.219   7
   0 -13   8 1336.42 179.973   1
   0  13   8 1509.88 157.638   3
   0  13  -8 1675.60 168.691   3
   0 -13   8 1606.22 141.870   4
   0  13  -9 56.4596 43.6349   3
   0  13   9 58.1682 47.9673   3
   0 -13   9 0.85109 30.7942   7
   0 -13   9 30.1094 51.7121   1
   0  13 -10 330.964 83.5164   3
   0  13  10 501.607 99.4088   3
   0 -13  10 365.085 77.7686   7
   0 -13  10 448.850 111.020   1
   0 -13  11 909.428 154.720   1
   0  13 -11 921.922 135.964   3
   0 -13  11 801.393 108.007   7
   0  13 -12 1205.96 157.982   3
   0 -13  12 1169.97 131.337   7
   0 -13  12 1275.27 191.145   1
   0 -13  13 489.593 127.853   1
   0  13 -13 371.945 91.1822   3
   0 -13  13 434.596 81.8083   7
   0 -13  14 202.657 84.9160   1
   0 -13  14 306.359 71.0325   7
   0  13 -14 138.474 60.8297   3
   0 -13  15 413.690 114.960   1
   0 -13  15 630.239 102.172   7
   0 -14   0 32.8548 18.8039   9
   0  14   0 22.9332 30.4945   3
   0 -14   0 53.8756 38.7989   7
   0 -14   1 502.297 57.3323   9
   0 -14  -1 415.873 54.8385   9
   0 -14   1 454.891 83.6241   7
   0  14   1 431.655 81.0074   3
   0 -14  -1 418.588 79.0178   7
   0  14  -1 447.589 83.3828   3
   0 -14   2 693.684 102.491   7
   0 -14   2 612.057 64.7049   9
   0  14   2 776.277 109.191   3
   0 -14   2 434.454 104.046   1
   0 -14  -2 675.514 104.983   7
   0  14  -2 794.005 111.999   3
   0 -14   3 3752.09 233.100   4
   0 -14   3 3871.47 245.385   7
   0 -14   3 3955.33 167.912   9
   0 -14  -3 3750.14 252.162   7
   0  14   3 4656.45 271.253   3
   0  14  -3 4077.38 255.682   3
   0 -14   3 3794.04 300.362   1
   0  14  -4 151.859 56.2034   3
   0 -14   4 124.797 40.0259   4
   0  14   4 150.297 52.0774   3
   0 -14  -4 129.525 52.2490   7
   0 -14   4 163.103 74.0241   1
   0 -14   4 201.777 60.8535   7
   0 -14   4 153.886 33.6038   9
   0  14  -5 140.222 52.5748   3
   0  14   5 187.718 62.9969   3
   0 -14   5 125.398 43.6730   4
   0 -14   5 167.890 34.8228   9
   0 -14   5 208.340 62.8839   7
   0 -14  -5 147.581 56.3177   7
   0 -14   5 164.130 68.3995   1
   0 -14   6-30.7278 57.3049   1
   0 -14   6-4.92396 31.8443   4
   0 -14   6 1.22801 26.2416   7
   0 -14   6-0.43704 16.0025   9
   0  14   6-3.23960 39.9971   3
   0  14  -6 3.69164 36.1268   3
   0  14  -7 1014.03 134.309   3
   0 -14   7 750.007 143.826   1
   0 -14   7 878.596 119.581   7
   0  14   7 982.469 129.563   3
   0 -14   7 977.665 114.561   4
   0 -14   8 1937.61 226.578   1
   0  14  -8 1928.64 185.640   3
   0  14   8 2260.61 199.889   3
   0 -14   8 2244.34 185.968   7
   0 -14   9 914.720 158.747   1
   0  14  -9 1161.16 149.951   3
   0 -14   9 952.090 120.552   7
   0  14 -10 723.544 123.369   3
   0 -14  10 605.352 130.063   1
   0 -14  10 830.631 117.534   7
   0 -14  11 1027.52 130.707   7
   0  14 -11 888.191 137.971   3
   0 -14  11 801.324 155.218   1
   0 -14  12 118.298 51.0669   7
   0 -14  12 112.398 55.2314   1
   0  14 -12 203.681 80.5004   3
   0  14 -13 0.63760 36.7346   3
   0 -14  13 92.0074 50.6103   7
   0 -14  13 38.9148 45.7308   1
   0 -14  14 875.529 123.029   7
   0 -14  15 819.184 120.126   7
   0 -15   0 38.7104 36.5383   7
   0  15   0 61.2952 45.5146   3
   0 -15  -1 811.880 122.711   7
   0  15  -1 860.875 120.190   3
   0 -15   1 900.614 124.803   7
   0  15   1 801.009 113.706   3
   0 -15   2-7.21639 18.2895   9
   0 -15  -2 102.324 47.3692   7
   0  15   2 34.5008 38.4037   3
   0 -15   2-7.82075 31.9276   7
   0  15  -2-5.27264 27.3318   3
   0 -15   3-23.5855 44.6744   1
   0  15   3 58.9892 44.8425   3
   0 -15   3 47.6463 29.4871   9
   0  15  -3 67.3405 41.6175   3
   0 -15  -3-20.7062 50.9128   7
   0 -15   3 61.9429 34.9379   7
   0 -15   4 63.0195 49.8448   1
   0 -15   4 127.258 54.0104   7
   0 -15   4 81.5974 28.3441   9
   0 -15  -4 104.529 44.2506   7
   0  15  -4 111.324 56.2303   3
   0  15   4 206.307 70.8230   3
   0  15  -5 5.01962 39.4144   3
   0 -15   5 23.8475 42.1957   7
   0 -15   5-31.5793 39.4430   1
   0 -15   5 21.2496 35.4033   4
   0 -15   5 30.2448 27.1503   9
   0  15   5-37.2029 45.7902   3
   0 -15  -5-11.5024 29.6830   7
   0 -15   6 3644.59 251.244   7
   0 -15   6 3597.32 234.631   4
   0  15  -6 3594.89 259.354   3
   0  15   6 4211.37 277.834   3
   0 -15   6 3757.76 319.429   1
   0 -15   7 1132.10 138.829   7
   0  15   7 1459.77 164.618   3
   0  15  -7 1283.62 158.444   3
   0 -15   7 1502.79 201.688   1
   0 -15   8 1683.85 221.385   1
   0 -15   8 2034.50 188.450   7
   0  15  -8 1717.63 185.185   3
   0  15  -9 17.1204 42.3926   3
   0 -15   9 11.1545 45.4599   1
   0 -15   9-33.3844 39.7805   7
   0 -15  10 2525.94 210.790   7
   0  15 -10 2695.56 240.228   3
   0 -15  10 2110.70 254.109   1
   0  15 -11 2581.47 242.017   3
   0 -15  11 2776.32 293.045   1
   0 -15  11 2429.74 209.238   7
   0 -15  12 229.008 67.4486   7
   0  16   0 4336.84 283.755   3
   0 -16   0 3740.40 272.212   7
   0  16  -1 675.290 113.151   3
   0 -16   1 519.139 102.216   7
   0  16   1 627.385 108.163   3
   0 -16  -1 652.559 115.520   7
   0  16  -2 79.1598 32.0711   3
   0  16   2 86.0762 44.8525   3
   0 -16  -2 31.2055 38.9968   7
   0 -16   2 110.183 55.3831   7
   0 -16   3 1389.89 161.779   7
   0  16   3 1257.37 155.317   3
   0 -16  -3 1220.33 158.504   7
   0  16  -3 1265.01 156.244   3
   0 -16   4 1087.67 143.514   7
   0 -16  -4 880.765 130.999   7
   0  16   4 1110.99 145.643   3
   0 -16   4 1009.41 167.859   1
   0  16  -4 785.864 124.304   3
   0  16   5 2221.38 207.071   3
   0 -16   5 2020.82 195.232   7
   0  16  -5 1954.80 195.877   3
   0 -16   5 1791.40 224.858   1
   0  16  -6 1020.90 144.237   3
   0 -16   6 857.235 159.101   1
   0 -16   6 981.495 138.670   7
   0 -16   7 3782.00 270.606   7
   0 -16   7 3226.31 309.136   1
   0  16  -7 4046.35 292.793   3
   0 -16   8 908.204 131.603   7
   0  16  -8 1007.64 148.690   3
   0 -16   8 775.227 165.461   1
   0 -16   9 1520.67 171.381   7
   0  16  -9 1519.03 184.426   3
   0 -17   0-45.7162 55.4810   7
   0  17   0 4.41989 34.6211   3
   0 -17   1 366.796 100.142   7
   0  17  -1 384.045 92.2125   3
   0 -17  -1 260.314 80.3735   7
   0  17   1 265.094 84.4182   3
   0 -17   2 1741.31 192.729   7
   0 -17  -2 1786.25 197.728   7
   0  17   2 1661.89 182.648   3
   0  17  -2 1626.88 183.262   3
   0 -17  -3 101.958 54.1580   7
   0  17  -3 59.6329 55.6933   3
   0  17   3 92.2065 46.4336   3
   0 -17   3 161.739 73.9788   7
   0  17  -4-0.56275 40.6034   3
   0 -17  -4 95.3572 53.5963   7
   0 -17   4 49.4671 59.2920   7
   0  17  -5 4436.23 313.260   3
   0  17  -6 4971.85 336.703   3
   0  18   0 614.080 120.380   3
   0  18  -1 1488.76 178.347   3
   0  18   1 1696.27 189.651   3
  -1   0  22 26.2615 28.5356  10
  -1   0  22 5.40060 37.4715   6
  -1   0  21-12.0753 34.0506   6
  -1   0  21 21.3044 34.5693  10
  -1   0  20 729.804 106.212  10
  -1   0  20 669.254 116.420   6
  -1   0  19 51.0798 43.1997  10
  -1   0  19 2.05136 32.6075   6
  -1   0  18 4930.14 288.799   6
  -1   0  18 4978.03 279.450   7
  -1   0  18 4636.62 245.537  10
  -1   0  17 24.3470 38.4751  10
  -1   0  17 21.7011 33.2985   7
  -1   0  17 2.93113 39.0819   6
  -1   0  16 5658.43 287.086   6
  -1   0  16 5648.88 254.021  10
  -1   0  16 6141.35 299.980   7
  -1   0  15 66.0915 44.1567   6
  -1   0  15 11.7599 31.0719  10
  -1   0  14 9062.50 308.844  10
  -1   0  14 9029.56 347.540   6
  -1   0  13 9.75735 23.2238   6
  -1   0  13 7.70366 19.5612  10
  -1   0  12 13481.2 417.272   6
  -1   0  12 14067.3 382.609  10
  -1   0  11 20.1062 26.4078   6
  -1   0  11 24.9924 25.1298  10
  -1   0  10 55795.8 1108.06   6
  -1   0  10 54929.4 1053.09  10
   1   0  -9 3.66248 4.74117   8
  -1   0   9-5.49022 13.5753  10
  -1   0   9 11.3168 24.3618   6
  -1   0   8 27552.2 584.798  10
   1   0  -8 28540.6 508.029   8
  -1   0   8 28151.9 625.222   6
   1   0  -7 2.59433 7.60083   8
  -1   0   7-11.3664 14.0660  10
  -1   0   7 11.2739 23.0744   6
  -1   0   6 25834.5 565.389   6
  -1   0   6 25416.6 532.291  10
   1   0  -6 26566.0 487.734   8
   1   0  -5 10.1200 11.6293   2
  -1   0   5 14.6961 17.0265  10
   1   0  -5 6.01773 10.3746   8
  -1   0   5 9.39120 14.6185   6
  -1   0   5 7.55249 9.60564   4
   1   0  -4 4791.30 111.729   4
  -1   0   4 4463.00 151.463  10
   1   0  -4 4809.12 135.269   8
   1   0  -4 4555.36 154.074   2
  -1   0   4 4482.95 166.249   6
  -1   0   3 4.66503 15.4340  10
   1   0  -3-6.07013 8.80867   4
   1   0  -3-2.91601 11.9449   8
  -1   0   3 5.08640 15.3764   6
   1   0  -3 25.3338 17.6544   2
   1   0  -2 46830.3 831.141   8
  -1   0   2 46062.7 844.757  10
  -1   0   2 45632.2 861.709   6
   1   0  -2 45621.6 849.320   2
  -1   0   1-15.8332 15.3481  10
   1   0  -1 22.1253 15.1099  11
   1   0  -1-0.75654 13.1953   8
   1   0  -1-4.38253 12.3725   2
   1   0   0 129278. 2156.30   8
  -1   0   0 127658. 2160.32  10
   1   0   0 122678. 2160.72   2
   1   0   1-3.81546 16.4532   8
  -1   0  -1 8.19341 13.9740  10
   1   0   1 4.18526 12.1794   2
  -1   0  -2 128625. 2151.69   3
   1   0   2 135261. 2220.92   8
   1   0   2 129029. 2208.06   2
  -1   0  -2 133163. 2206.26   5
   1   0   3 7.71006 13.6430   8
  -1   0  -3 1.87401 6.23115   3
  -1   0  -3-2.14855 10.3943   9
  -1   0  -3 5.84962 16.8283   5
   1   0   3 2.14181 12.7576   2
   1   0   3 0.58882 6.88902   3
  -1   0  -4 7365.20 173.190   9
   1   0   4 7313.28 193.605   2
  -1   0  -4 7438.66 193.011   5
   1   0   4 7276.09 207.512   8
  -1   0  -4 7726.18 171.466   3
   1   0   5-11.4241 12.5521   8
  -1   0  -5 4.62438 7.33713   9
  -1   0  -5-7.96447 10.5539   5
  -1   0  -5-2.21024 8.96416   3
   1   0   5 9.29542 10.7180   2
   1   0   6 72923.7 1301.88   8
  -1   0  -6 72848.3 1265.19   5
   1   0   6 71612.1 1265.62   2
  -1   0  -6 75048.0 1222.81   9
  -1   0  -6 71560.6 1277.04   3
  -1   0  -7 5.06105 11.6927   5
  -1   0  -7 0.72415 4.33988   9
  -1   0  -7-9.18480 14.3834   3
   1   0   7 13.9893 18.9704   8
   1   0   7-2.77136 7.72380   2
   1   0   8 37382.9 712.615   6
  -1   0  -8 36123.3 730.517   3
   1   0   8 37013.4 715.195   8
   1   0   8 37115.2 683.581   2
  -1   0  -8 37851.5 631.955   9
  -1   0  -8 36335.9 679.488   5
  -1   0  -9 27.8295 18.8562   3
   1   0   9 10.3146 10.3645   2
   1   0   9-8.91777 14.8990   8
   1   0   9-0.02980 10.4280   6
  -1   0  -9 16.5327 12.3867   5
  -1   0 -10 6210.96 160.522   5
   1   0  10 6073.76 187.663   6
   1   0  10 6336.38 177.773   8
  -1   0 -10 5890.16 213.781   3
  -1   0 -11 4.05926 18.1135   3
  -1   0 -11-10.0945 10.8723   5
   1   0  11-2.39587 3.02693   7
   1   0  11 3.61710 12.8766   6
   1   0  11 8.64622 9.63184   8
   1   0  12 36187.1 717.147   6
  -1   0 -12 32367.2 765.183   3
   1   0  12 33956.2 659.368   8
  -1   0 -12 35145.7 662.500   5
   1   0  13-0.50226 10.5649   8
   1   0  13-3.35449 15.4645   6
  -1   0 -13 9.32560 12.7142   5
  -1   0 -14 2511.68 116.351   5
   1   0  14 2415.88 136.328   6
  -1   0 -15-10.4461 19.0403   5
   1   0  15-13.6121 21.3737   6
   1   0  16 16.0562 23.9755   6
  -1   0 -16 16.8666 15.0671   5
  -1   0 -17-31.5563 25.3668   5
   1   0  17 8.47826 25.2311   6
   1   0  18 108.382 41.5067   6
  -1   0 -18 52.1957 21.3373   5
   1   0  19 25.0537 31.2415   6
  -1   0 -19-14.0769 24.6573   5
  -1   0 -20 4389.74 219.773   5
   1   0  20 3908.24 241.840   6
   1   0  21 32.1584 30.0647   6
  -1   0 -21-12.7324 29.7100   5
  -1   0 -22 1831.99 153.236   5
   1   0  22 2027.57 189.084   6
  -1  -1  22 584.382 101.518  10
  -1   1  22 510.991 100.701  10
  -1   1  22 216.717 76.7234   6
  -1  -1  22 516.497 107.148   6
  -1  -1  21 49.1724 46.4731  10
  -1   1  21 56.4508 60.3728   6
  -1  -1  21 28.6442 44.2375   6
  -1   1  21 8.03372 36.3723  10
  -1  -1  20 1709.41 156.595  10
  -1   1  20 1779.46 164.153  10
  -1   1  20 1810.87 186.691   6
  -1  -1  20 1722.93 186.259   6
  -1  -1  19 2697.26 190.178  10
  -1   1  19 2909.72 227.257   6
  -1  -1  19 2893.94 230.880   6
  -1   1  19 2907.74 201.869  10
  -1  -1  18 724.095 95.3352  10
  -1  -1  18 719.940 108.856   6
  -1   1  18 535.147 91.4545   7
  -1   1  18 580.703 87.3053  10
  -1  -1  18 720.131 103.512   7
  -1   1  18 683.097 104.646   6
  -1  -1  17 204.493 57.5232   7
  -1  -1  17 240.360 68.9672   6
  -1   1  17 314.027 67.8856  10
  -1   1  17 168.931 61.4915   6
  -1  -1  17 253.930 55.9031  10
  -1  -1  16 67.5461 47.7876   6
  -1  -1  16 20.1948 30.0038   7
  -1   1  16 62.0332 41.8651  10
  -1   1  16 146.117 53.9144   6
  -1  -1  16 60.9826 39.5637  10
  -1   1  15 7061.40 281.621  10
  -1  -1  15 7456.73 324.535   7
  -1  -1  15 6904.93 271.465  10
  -1  -1  15 7229.01 322.217   6
  -1   1  15 7369.75 315.866   6
  -1   1  14 377.694 61.3940  10
  -1  -1  14 311.648 64.4048   7
  -1   1  14 268.079 57.6998   6
  -1  -1  14 425.506 72.5533   6
  -1  -1  14 278.141 52.8680  10
  -1   1  13 849.443 94.6087   6
  -1  -1  13 816.894 97.5922   7
  -1  -1  13 806.298 80.2715  10
  -1   1  13 771.746 82.3813  10
  -1  -1  13 837.031 96.9262   6
  -1   1  12 620.178 70.9202  10
  -1   1  12 584.430 75.5264   6
  -1  -1  12 520.975 75.9528   6
  -1  -1  12 762.162 89.9129   7
  -1  -1  12 704.509 70.3521  10
  -1  -1  11 471.607 69.1996   6
   1   1 -11 438.659 28.2575   8
  -1   1  11 470.702 58.4441  10
  -1   1  11 440.200 63.1281   6
  -1  -1  11 459.451 55.8577  10
  -1   1  10 14930.3 388.347  10
  -1  -1  10 15349.5 432.221   6
   1   1 -10 15196.5 303.177   8
  -1  -1  10 15641.6 381.026  10
  -1   1  10 15055.5 415.522   6
  -1   1   9 7142.54 230.259  10
  -1   1   9 7112.79 247.365   6
  -1  -1   9 7092.12 220.270  10
   1   1  -9 7144.29 172.433   8
  -1  -1   9 7255.41 260.996   6
  -1  -1   8 6031.45 189.858  10
   1  -1  -8 5686.84 122.179   8
  -1   1   8 5874.92 198.857  10
  -1  -1   8 6124.64 226.634   6
   1   1  -8 6190.08 155.336   8
  -1   1   8 5796.66 211.441   6
   1  -1  -7 956.722 40.2556   8
  -1   1   7 939.201 41.2579   8
  -1   1   7 819.255 65.8984  10
   1   1  -7 900.801 51.3543   8
  -1  -1   7 781.371 60.2443  10
  -1  -1   7 835.636 36.7887   4
  -1   1   7 838.310 71.3028   6
   1  -1  -7 858.457 65.2584   2
  -1  -1   7 779.749 73.4442   6
  -1   1   6 15934.0 384.463   6
  -1   1   6 16218.7 372.462  10
   1  -1  -6 16424.9 310.110   8
   1   1  -6 16480.6 330.227   8
  -1  -1   6 15582.0 397.648   6
   1  -1  -6 16108.7 364.862   2
  -1   1   6 16180.6 313.872   8
  -1  -1   6 15974.6 357.392  10
  -1  -1   6 15028.7 287.134   4
  -1   1   5 1866.89 95.5362  10
   1  -1  -5 1981.28 72.8032   8
   1   1  -5 1905.40 78.6325   8
  -1  -1   5 1787.77 87.3177  10
  -1   1   5 1959.30 102.149   6
   1  -1  -5 1730.33 89.3030   2
  -1  -1   5 1969.73 109.389   6
   1  -1  -4 18964.0 416.494   2
  -1  -1   4 19206.2 407.404  10
   1   1  -4 19298.2 424.539   2
   1  -1  -4 20577.9 385.428   8
  -1   1   4 19190.5 429.411   6
  -1  -1   4 19701.6 447.754   6
  -1   1   4 18965.9 422.773  10
   1   1  -4 19842.9 394.938   8
   1  -1  -4 19729.3 382.650   4
  -1   1   3 202512. 3426.99   6
  -1  -1   3 200423. 3402.47  10
   1  -1  -3 205726. 3385.40   8
  -1   1   3 204159. 3424.93  10
   1   1  -3 205319. 3425.97   2
   1  -1  -3 212546. 3383.94   4
   1  -1  -3 200685. 3414.40   2
  -1  -1   3 201401. 3451.20   6
   1   1  -3 206231. 3394.55   8
   1  -1  -2 999999. 15534.5   4
   1  -1  -2 915798. 15526.1   8
   1  -1  -2 951506. 15552.5   2
   1   1  -2 921224. 15534.4   8
  -1  -1   2 978948. 15541.3  10
  -1   1   2 983442. 15564.1  10
  -1   1   2 975237. 15562.1   6
   1   1  -2 944287. 15562.7   2
  -1   1   1 39623.9 746.390  10
  -1  -1   1 39874.5 728.647  10
   1  -1  -1 38214.4 737.572   2
   1   1  -1 40147.2 733.781   8
   1  -1  -1 39207.7 734.700  11
   1  -1  -1 41122.2 730.223   8
   1   1  -1 38831.0 744.840   2
  -1  -1   1 39807.9 704.252   1
   1   1   0 25212.2 447.955   1
  -1   1   0 23726.0 495.079  10
   1  -1   0 24459.1 484.097   8
   1   1   0 24925.8 488.910   8
   1  -1   0 23719.4 485.514   2
  -1  -1   0 24123.1 477.775  10
  -1  -1   0 24746.8 447.259   1
   1   1   0 23944.4 493.157   2
   1   1   1 1370.71 55.2858   1
   1   1   1 1348.40 72.5748   8
   1  -1   1 1115.16 65.2329   2
  -1  -1  -1 1510.27 74.9308  10
   1  -1   1 1408.07 71.7390   8
  -1  -1  -1 1276.37 70.9623   9
  -1  -1  -1 1292.17 60.5268   7
  -1   1  -1 1307.41 74.4875  10
   1   1   1 1301.68 71.9551   2
   1   1   2 2958.82 113.093   2
   1  -1   2 3647.24 122.776   8
   1   1   2 3145.17 119.410   8
  -1   1  -2 3182.18 119.758  10
  -1  -1  -2 3096.28 107.627   5
  -1   1  -2 2808.43 95.4832   3
  -1  -1  -2 3056.11 90.3285   7
   1  -1   2 3080.19 113.163   2
  -1  -1  -2 3171.29 110.975   9
   1  -1   3 24355.5 504.474   2
  -1  -1  -3 25361.2 500.645   5
  -1  -1  -3 25106.6 495.588   9
   1  -1   3 26013.9 519.048   8
   1   1   3 25875.7 527.255   8
  -1   1  -3 25077.4 512.638   5
  -1  -1  -3 26308.2 455.242   7
  -1   1  -3 28973.3 469.838   7
   1   1   3 25403.8 512.741   2
  -1   1  -3 26014.4 489.911   3
   1  -1   4 20053.4 418.645   2
   1  -1   4 20598.8 438.050   8
  -1   1  -4 20456.9 427.927   5
  -1  -1  -4 21049.3 414.631   5
  -1   1  -4 21064.9 394.413   9
   1   1   4 20719.0 426.535   2
  -1   1  -4 21361.6 413.526   3
   1   1   4 20642.8 376.249   3
   1   1   4 21147.4 447.929   8
  -1  -1  -4 21307.7 382.304   3
  -1  -1  -4 20937.9 405.348   9
  -1   1  -4 21831.4 369.725   7
  -1   1  -5 6102.13 169.249   5
   1  -1   5 6250.58 182.817   8
  -1   1  -5 6205.06 136.368   9
  -1  -1  -5 6264.76 154.911   3
  -1   1  -5 6265.98 170.710   3
  -1  -1  -5 6395.93 164.057   5
   1   1   5 6243.76 190.548   8
   1   1   5 6209.41 169.505   2
  -1  -1  -5 6221.93 151.144   9
   1   1   5 6054.80 144.078   3
   1  -1   5 5877.45 165.299   2
  -1   1  -5 6265.43 126.900   7
   1  -1   6 661.175 51.6229   8
  -1   1  -6 674.788 30.2847   7
  -1   1  -6 667.398 51.2318   3
  -1   1  -6 678.913 27.3024   9
   1   1   6 693.254 46.2450   2
   1   1   6 810.858 60.9056   8
  -1  -1  -6 769.914 39.2760   9
  -1  -1  -6 731.408 48.5676   3
   1  -1   6 622.747 27.3196   7
  -1  -1  -6 732.912 45.9142   5
  -1   1  -6 674.217 47.2494   5
   1  -1   6 698.628 47.1131   2
  -1  -1  -7 4929.85 157.399   3
   1  -1   7 4984.27 141.562   2
  -1  -1  -7 5025.66 116.668   9
   1   1   7 5245.46 171.016   8
  -1   1  -7 4910.84 141.824   5
   1   1   7 5060.45 140.391   2
   1  -1   7 4905.00 148.998   6
   1  -1   7 4339.98 97.9252   7
  -1   1  -7 5080.34 166.281   3
   1  -1   7 4994.48 156.787   8
  -1  -1  -7 5020.63 136.240   5
  -1  -1  -8 4584.68 130.825   5
  -1   1  -8 4444.89 166.911   3
  -1  -1  -8 4630.64 109.203   9
   1  -1   8 4550.00 135.146   2
   1  -1   8 4381.80 146.690   8
   1   1   8 4570.61 153.637   6
   1   1   8 4614.78 132.335   2
   1   1   8 4484.03 157.626   8
   1  -1   8 3920.26 93.5183   7
   1  -1   8 4417.56 146.331   6
  -1   1  -8 4463.29 133.178   5
   1   1   9 3062.98 126.336   6
  -1  -1  -9 3117.27 85.6641   9
   1   1   9 3297.47 107.115   2
  -1  -1  -9 3053.84 105.112   5
  -1   1  -9 3187.19 107.613   5
  -1   1  -9 2884.17 140.616   3
   1  -1   9 2763.63 72.8398   7
   1  -1   9 3037.20 121.390   6
   1  -1   9 3260.52 112.065   2
   1  -1   9 2900.69 116.210   8
   1   1   9 2877.77 122.636   8
   1  -1  10 5341.26 166.859   8
   1   1  10 5460.56 176.155   8
  -1   1 -10 5368.98 212.845   3
   1  -1  10 5195.19 119.299   7
  -1  -1 -10 5622.63 158.506   5
   1   1  10 5787.27 189.271   6
  -1   1 -10 5609.52 156.994   5
   1  -1  10 5831.16 184.310   6
   1   1  11 1321.68 43.6897   7
   1  -1  11 1369.46 50.1017   7
   1   1  11 1341.40 78.3080   8
   1  -1  11 1413.81 76.1988   8
  -1  -1 -11 1507.06 75.6060   5
  -1   1 -11 1451.89 109.786   3
  -1   1 -11 1597.60 76.1155   5
   1   1  11 1582.95 94.5853   6
   1  -1  11 1573.45 92.2884   6
  -1  -1 -12 145.123 25.5864   5
   1  -1  12 152.783 31.6702   6
   1   1  12 61.0107 15.5983   8
  -1   1 -12 188.370 28.8768   5
  -1   1 -12 81.3328 30.0160   3
   1   1  12 158.626 33.4171   6
  -1   1 -13 1339.12 77.5986   5
   1   1  13 1431.99 98.6981   6
   1   1  13 1340.04 73.3253   8
  -1   1 -13 1185.34 112.360   3
  -1  -1 -13 1411.33 81.3934   5
   1  -1  13 1476.27 98.2767   6
  -1   1 -14 118.712 26.4287   5
  -1  -1 -14 131.209 25.4848   5
  -1   1 -14 82.6856 31.5077   3
   1   1  14 170.497 38.1325   6
   1  -1  14 168.460 38.9157   6
  -1   1 -15 2300.63 114.528   5
  -1  -1 -15 2249.27 117.418   5
   1   1  15 2190.40 135.612   6
   1  -1  15 2436.46 144.075   6
   1   1  16 1699.21 125.661   6
  -1   1 -16 1796.32 106.412   5
   1  -1  16 1860.03 132.720   6
  -1  -1 -16 1799.08 111.057   5
  -1  -1 -17-10.8994 23.1196   5
   1   1  17-23.6017 24.9517   6
  -1   1 -17 28.6689 19.2073   5
  -1   1 -18 2936.47 158.540   5
  -1  -1 -18 2641.94 157.751   5
   1  -1  18 2690.21 181.014   6
   1   1  18 2813.80 181.895   6
  -1   1 -19 803.498 86.5842   5
  -1  -1 -19 868.939 91.2484   5
   1  -1  19 783.151 102.048   6
   1   1  19 974.580 113.324   6
  -1   1 -20 7975.34 306.400   5
  -1  -1 -20 7890.84 311.611   5
   1   1  20 8055.85 354.345   6
   1  -1  20 7897.89 356.909   6
   1   1  21 320.416 75.0280   6
  -1  -1 -21 454.838 74.9135   5
  -1   1 -21 346.816 64.7850   5
   1  -1  21 435.916 85.0498   6
  -1  -1 -22 1553.98 141.815   5
  -1   1 -22 1489.53 135.963   5
   1  -1  22 1533.50 165.352   6
   1   1  22 1595.49 167.834   6
  -1  -2  23 207.635 72.1111  10
  -1   2  22 218.543 74.3545   6
  -1  -2  22 258.586 76.8825   6
  -1   2  22 314.451 79.7679  10
  -1  -2  22 132.885 47.7224  10
  -1  -2  21 50.2835 44.9201   6
  -1   2  21 59.5064 30.7129  10
  -1   2  21 29.3993 36.5497   6
  -1  -2  21 96.6040 42.2877  10
  -1   2  20 65.4216 53.7514   6
  -1  -2  20 139.579 52.2787  10
  -1   2  20 111.992 55.2402  10
  -1  -2  20 133.870 66.1773   6
  -1  -2  19 2133.28 166.717  10
  -1   2  19 2217.11 179.439  10
  -1   2  19 2260.43 195.524   6
  -1  -2  19 2422.95 213.833   6
  -1   2  18 1391.69 137.082  10
  -1  -2  18 1560.72 149.338   7
  -1   2  18 1512.17 155.102   6
  -1  -2  18 1422.05 129.444  10
  -1  -2  18 1718.49 174.025   6
  -1   2  17 14289.3 467.917  10
  -1  -2  17 14094.8 444.578  10
  -1  -2  17 15149.4 501.202   7
  -1   2  17 14091.8 497.885   6
  -1  -2  17 15033.3 533.273   6
  -1   2  16 606.370 93.2744  10
  -1  -2  16 493.217 76.5104  10
  -1   2  16 602.938 90.8222   6
  -1  -2  16 576.233 87.6957   7
  -1  -2  16 756.639 111.397   6
  -1   2  15 1338.65 127.957   6
  -1   2  15 1118.05 108.765  10
  -1  -2  15 1253.09 106.686  10
  -1  -2  15 1283.34 131.927   6
  -1  -2  15 1312.10 127.553   7
  -1  -2  14 424.775 72.5079   6
  -1   2  14 431.249 66.5932  10
  -1  -2  14 424.591 63.3177  10
  -1   2  14 465.225 71.1621   6
  -1  -2  14 583.274 86.7939   7
  -1  -2  13 3927.71 217.249   6
  -1  -2  13 4138.60 181.723  10
  -1   2  13 3848.14 189.297  10
  -1   2  13 3738.13 198.620   6
  -1  -2  13 4221.32 223.552   7
  -1  -2  12 729.860 70.9221  10
  -1  -2  12 622.393 83.4956   6
   1   2 -12 631.988 42.2134   8
  -1  -2  12 778.780 94.7954   7
  -1   2  12 608.124 75.1144   6
  -1   2  12 737.286 77.9810  10
  -1  -2  11 4664.47 221.369   6
   1   2 -11 4579.12 135.669   8
  -1   2  11 4361.43 199.213   6
  -1  -2  11 4711.85 225.410   7
  -1   2  11 4643.22 194.815  10
  -1  -2  11 4596.37 179.373  10
  -1   2  10 8118.80 264.065  10
  -1  -2  10 7344.14 230.622  10
  -1  -2  10 8015.98 291.724   6
   1   2 -10 7651.48 192.577   8
  -1   2  10 7084.96 255.654   6
  -1  -2  10 7866.69 294.488   7
  -1  -2   9 2183.44 136.211   6
  -1  -2   9 2016.16 103.869  10
  -1   2   9 1976.99 115.740  10
  -1  -2   9 2111.54 138.489   7
   1   2  -9 2110.95 85.0035   8
   1  -2  -9 2008.76 105.698   2
  -1   2   9 2027.71 120.148   6
  -1  -2   8 1998.34 125.507   6
  -1  -2   8 2054.01 99.1718  10
   1   2  -8 1942.17 81.5853   8
  -1  -2   8 2015.23 130.651   7
  -1   2   8 2085.42 112.677  10
  -1   2   8 2083.14 66.3957   8
   1  -2  -8 1979.47 101.942   2
  -1   2   8 1855.52 110.513   6
  -1   2   7 19135.6 364.395   8
  -1  -2   7 18174.2 403.341  10
  -1   2   7 18426.0 433.636  10
  -1  -2   7 18712.3 476.589   7
  -1  -2   7 19863.4 476.450   6
   1  -2  -7 18359.6 415.114   2
   1   2  -7 18872.8 480.024   3
   1   2  -7 18863.8 382.134   8
  -1   2   7 17932.2 433.498   6
   1   2  -6 56.2396 15.3805   8
   1  -2  -6 39.1559 16.5610   2
   1   2  -6 62.7622 24.7881   3
  -1  -2   6-1.92712 20.2672   6
   1  -2  -6 78.9045 14.0312   8
  -1   2   6 107.537 27.7009  10
  -1  -2   6 62.2157 19.8780  10
  -1  -2   6 50.1224 22.3024   7
  -1   2   6 48.8122 17.1703   6
  -1  -2   5 3076.24 144.157   7
  -1   2   5 2771.19 130.659  10
   1  -2  -5 3026.85 90.7793   8
  -1  -2   5 3006.24 112.122  10
   1   2  -5 2868.24 104.417   8
  -1   2   5 2657.70 119.725   6
   1  -2  -5 3085.11 111.559   4
  -1  -2   5 3140.39 144.811   6
   1   2  -5 2915.31 136.964   3
   1  -2  -5 2945.13 117.849   2
   1  -2  -4 6915.01 184.434   4
   1  -2  -4 6854.38 163.278   8
  -1   2   4 6179.69 199.835  10
   1   2  -4 6566.43 209.030   3
  -1  -2   4 7106.69 186.510  10
   1   2  -4 6753.05 179.002   8
  -1   2   4 6472.61 194.878   6
  -1  -2   4 6546.43 218.918   7
   1  -2  -4 6541.29 189.214   2
  -1  -2   4 6509.36 220.437   6
  -1  -2   3 2485.75 122.864   6
   1   2  -3 2373.41 108.572   2
  -1   2   3 2504.68 112.900  10
   1  -2  -3 2496.96 103.190   2
  -1  -2   3 2580.99 95.3564  10
   1  -2  -3 2650.13 102.893   4
  -1   2   3 2404.17 104.367   6
   1   2  -3 2417.82 96.2050   8
   1  -2  -3 2477.74 87.7458   8
   1   2  -3 2667.93 111.530   3
  -1  -2   3 2513.06 118.113   7
   1   2  -2 28193.7 547.308   8
  -1   2   2 27699.8 572.438  10
  -1  -2   2 28628.1 564.503   1
   1   2  -2 27546.8 546.780   3
  -1  -2   2 28039.5 575.688   7
   1  -2  -2 29438.5 560.624   4
   1  -2  -2 28617.6 533.683   8
  -1  -2   2 28609.0 535.320  10
   1  -2  -2 28417.9 552.137   2
  -1   2   2 27678.4 552.234   6
   1   2  -2 28539.7 568.119   2
   1   2  -1 482.636 42.6449   8
  -1  -2   1 446.515 39.2986   1
  -1  -2   1 373.467 42.8785   9
  -1  -2   1 514.581 45.7075   7
   1   2  -1 455.942 36.0513   3
   1  -2  -1 468.265 38.5119   8
  -1  -2   1 528.905 40.3848  10
   1  -2  -1 436.281 40.1681   2
   1   2  -1 422.937 43.8701   2
  -1   2   1 477.462 47.4213  10
   1  -2  -1 453.705 45.3326   4
  -1  -2   0 14322.8 313.210   1
  -1   2   0 14688.7 287.785   1
   1  -2   0 13863.9 313.369   2
  -1   2   0 14619.4 340.277  10
  -1  -2   0 14352.5 300.839  10
   1   2   0 14133.5 329.325   2
   1  -2   0 14178.9 309.011   8
   1  -2   0 14506.4 340.184  11
  -1  -2   0 14173.2 312.562   7
   1   2   0 14404.9 279.292   3
   1   2   0 14157.5 321.146   8
  -1  -2   0 14472.7 271.015   3
  -1  -2   0 13912.8 326.425   9
   1  -2   1 9174.64 227.133   8
  -1  -2  -1 9147.27 234.427   9
   1  -2   1 9626.37 206.334   1
  -1  -2  -1 9448.60 219.664   5
  -1   2  -1 9669.26 248.274  10
  -1  -2  -1 9240.57 215.265   7
   1   2   1 9030.72 237.720   2
   1  -2   1 8873.30 226.970   2
   1   2   1 9328.30 238.423   8
  -1   2  -2 2834.53 117.413  10
  -1  -2  -2 2962.09 99.3135   5
   1  -2   2 2901.20 106.327   2
   1   2   2 2871.74 112.171   2
   1  -2   2 3047.07 110.409   8
  -1   2  -2 2735.28 105.667   3
   1   2   2 2900.53 116.389   8
   1  -2   2 3020.72 97.7303   1
  -1  -2  -2 2911.57 108.900   9
  -1  -2  -2 3014.60 91.9330   7
  -1   2  -3 21570.0 436.563   3
  -1  -2  -3 22166.4 394.101   7
   1   2   3 22001.0 457.175   8
   1  -2   3 21654.5 441.020   8
   1   2   3 20776.2 438.300   2
  -1  -2  -3 20857.9 416.157   5
  -1  -2  -3 21656.6 430.675   9
   1  -2   3 20924.7 428.517   2
  -1   2  -3 21320.6 443.117   5
   1   2   3 21707.2 405.888   7
  -1  -2  -4 23761.1 454.733   9
  -1  -2  -4 23569.0 447.377   5
   1   2   4 23194.2 490.707   8
   1   2   4 22744.8 404.243   3
   1   2   4 23562.5 426.850   7
   1  -2   4 22954.2 459.211   2
  -1   2  -4 22877.0 472.815   5
   1  -2   4 23852.8 441.504   7
   1   2   4 23639.8 471.774   2
  -1  -2  -4 24387.8 417.919   7
   1  -2   4 23571.2 476.218   8
  -1   2  -4 24162.6 474.710   3
   1   2   5 29659.4 518.891   7
   1  -2   5 29318.7 560.747   2
  -1  -2  -5 30495.0 520.889   7
   1  -2   5 29599.1 579.448   8
   1   2   5 29916.4 567.614   2
   1   2   5 29789.3 524.309   3
  -1  -2  -5 29236.8 547.507   5
   1  -2   5 29066.7 534.516   7
   1   2   5 30196.7 602.549   8
  -1  -2  -5 29703.5 550.519   9
  -1   2  -5 30497.1 586.102   3
  -1   2  -5 29028.6 570.408   5
   1  -2   6 29995.1 550.699   6
  -1  -2  -6 29577.0 531.799   9
   1   2   6 28357.6 499.118   7
   1   2   6 29039.6 593.121   8
  -1  -2  -6 29071.3 536.587   5
   1   2   6 28981.9 548.066   2
   1  -2   6 28695.0 518.761   7
   1  -2   6 28952.2 549.426   2
   1  -2   6 28923.9 568.913   8
  -1   2  -6 29160.6 585.443   3
  -1   2  -6 28603.9 553.409   5
  -1   2  -7 57788.6 1057.94   3
  -1  -2  -7 57200.0 980.399   9
   1  -2   7 57405.6 1007.38   2
   1  -2   7 56867.4 970.837   7
   1  -2   7 57276.3 1026.91   8
  -1  -2  -7 58069.2 993.117   5
   1   2   7 55671.8 947.638   7
   1   2   7 57472.4 999.425   2
   1  -2   7 57587.5 1013.71   6
   1   2   7 57172.8 1053.61   8
  -1   2  -7 56438.1 1008.62   5
   1  -2   8 3247.37 92.2372   7
  -1   2  -8 3249.67 112.441   5
  -1   2  -8 3252.14 144.763   3
   1  -2   8 3571.94 124.561   6
   1   2   8 3338.49 137.460   8
  -1  -2  -8 3392.06 108.170   5
   1   2   8 3401.76 107.940   2
   1   2   8 3150.23 76.2633   7
  -1  -2  -8 3429.74 98.4591   9
   1  -2   8 3328.39 114.688   2
   1  -2   8 3297.37 123.365   8
   1  -2   9 12024.2 288.377   8
   1   2   9 11086.5 219.003   7
  -1  -2  -9 12413.3 268.596   5
  -1   2  -9 11925.0 336.191   3
  -1  -2  -9 12704.4 248.989   9
   1   2   9 11872.7 307.985   8
   1   2   9 12360.7 306.376   6
   1  -2   9 11538.0 239.839   7
   1  -2   9 12370.1 293.142   6
  -1   2  -9 11830.0 266.325   5
   1   2   9 12480.1 262.722   2
   1   2  10 3202.16 82.0401   7
  -1   2 -10 3475.37 167.829   3
  -1  -2 -10 3596.27 120.631   5
  -1   2 -10 3563.40 118.297   5
   1   2  10 3923.65 117.647   2
   1   2  10 3589.81 142.197   8
   1   2  10 3317.78 140.624   6
   1  -2  10 3269.92 97.0403   7
  -1  -2 -10 3576.89 104.766   9
   1  -2  10 3731.58 140.546   6
   1   2  11 19019.9 433.191   6
   1  -2  11 17466.7 349.553   7
  -1   2 -11 18388.9 380.442   5
   1   2  11 17788.6 412.101   8
  -1   2 -11 17780.0 483.123   3
  -1  -2 -11 18488.8 388.788   5
   1  -2  11 18983.0 424.825   6
  -1   2 -12 11860.5 382.429   3
   1  -2  12 11410.2 251.187   7
  -1  -2 -12 12167.2 293.280   5
  -1   2 -12 12020.2 283.109   5
   1  -2  12 12578.5 328.188   6
   1   2  12 12057.7 302.253   8
   1   2  12 13080.0 336.913   6
   1  -2  13 37794.1 774.373   6
   1   2  13 36815.7 712.318   8
  -1   2 -13 37636.3 712.091   5
  -1  -2 -13 37563.1 727.701   5
  -1   2 -13 35286.0 849.253   3
   1   2  13 37229.0 773.697   6
  -1   2 -14 4953.44 167.753   5
   1  -2  14 4922.10 203.948   6
  -1  -2 -14 5068.68 179.642   5
  -1   2 -14 4560.96 241.705   3
   1   2  14 5161.72 206.680   6
   1   2  15 7697.46 271.966   6
  -1   2 -15 6637.04 312.171   3
  -1  -2 -15 7684.52 243.075   5
   1  -2  15 7395.87 271.940   6
  -1   2 -15 7294.53 224.678   5
   1   2  16 13.3466 18.6587   6
   1  -2  16 26.2131 21.7141   6
  -1  -2 -16 52.2846 24.5838   5
  -1   2 -16 0.88282 17.3516   5
  -1   2 -16 15.4602 31.0026   3
   1  -2  17 198.671 51.3240   6
  -1   2 -17 237.004 40.9043   5
  -1  -2 -17 174.727 40.2030   5
   1   2  17 230.702 52.9420   6
   1  -2  18 948.677 108.040   6
  -1   2 -18 1151.51 96.3711   5
  -1  -2 -18 1030.95 97.3058   5
   1   2  18 1168.40 114.791   6
  -1  -2 -19 92.0809 35.6038   5
   1  -2  19 80.0885 47.2257   6
  -1   2 -19 93.4347 34.9226   5
   1   2  19 33.0019 33.4954   6
   1  -2  20 144.497 54.4095   6
   1   2  20 148.938 49.6754   6
  -1   2 -20 70.3215 34.0690   5
  -1  -2 -20 133.585 45.6743   5
   1   2  21 520.135 93.1441   6
  -1  -2 -21 504.403 80.0381   5
   1  -2  21 385.000 90.4974   6
  -1   2 -21 527.424 79.2111   5
  -1   2 -22 2078.95 160.901   5
   1  -2  22 2050.70 195.589   6
   1   2  22 2228.27 200.713   6
  -1  -2 -22 2275.93 174.688   5
  -1  -3  23 738.316 118.525  10
  -1  -3  22 110.473 65.5488   6
  -1   3  22 199.730 78.7004   6
  -1   3  22 130.814 54.7442  10
  -1  -3  22 72.7588 45.1663  10
  -1  -3  21 65.6744 37.5658  10
  -1  -3  21 83.3207 58.0577   6
  -1   3  21 62.0227 33.0670  10
  -1   3  21 57.1733 58.8808   6
  -1  -3  20 89.2601 43.9811  10
  -1  -3  20 85.5691 39.3306   6
  -1   3  20 163.754 58.5971  10
  -1   3  20 206.665 73.0492   6
  -1  -3  19 472.003 97.0872   6
  -1   3  19 402.108 88.0545   6
  -1   3  19 539.625 95.2152  10
  -1  -3  19 495.812 80.1874  10
  -1   3  18 1739.73 158.843  10
  -1   3  18 1808.30 167.707   6
  -1  -3  18 1755.28 156.430   7
  -1  -3  18 1750.09 178.480   6
  -1  -3  18 1714.25 141.898  10
  -1   3  17 61.7324 39.4423   6
  -1  -3  17 60.1481 32.9566  10
  -1  -3  17 66.2998 45.5214   7
  -1  -3  17 47.4633 39.2278   6
  -1   3  17 115.480 51.4537  10
  -1  -3  16 3182.11 224.838   6
  -1   3  16 3172.02 197.401  10
  -1  -3  16 3451.13 184.748  10
   1  -3 -16 3145.87 170.834   2
  -1  -3  16 3504.41 214.429   7
  -1   3  16 3516.50 214.362   6
   1  -3 -15 4574.76 202.086   2
  -1  -3  15 5116.82 256.103   7
  -1  -3  15 4624.28 209.940  10
  -1   3  15 4795.98 233.972  10
  -1  -3  15 4877.43 269.710   6
  -1   3  15 4463.98 236.406   6
   1  -3 -14 157.258 36.5814   2
  -1  -3  14 190.348 45.0769  10
  -1   3  14 90.6482 36.7523  10
  -1  -3  14 192.769 54.0462   6
  -1   3  14 94.1507 34.5953   6
  -1  -3  14 136.410 47.5996   7
   1  -3 -13 157.036 36.3792   2
  -1  -3  13 129.301 43.8316   7
  -1  -3  13 114.162 43.2286   6
  -1  -3  13 137.489 36.1288  10
  -1   3  13 262.016 53.5335  10
  -1   3  13 175.603 43.6601   6
  -1  -3  12 64.3867 38.0133   6
  -1  -3  12 91.9553 32.6950  10
   1   3 -12 82.6590 18.6957   8
  -1   3  12 62.7291 27.3202  10
  -1  -3  12 74.4624 36.1531   7
  -1   3  12 74.9787 30.0797   6
   1  -3 -12 103.794 30.4379   2
   1   3 -11 1122.15 116.082   3
   1  -3 -11 1046.78 79.6138   2
  -1  -3  11 1355.95 92.3629  10
  -1  -3  11 988.331 98.0536   7
   1   3 -11 1106.99 64.0273   8
  -1   3  11 1258.27 99.9594  10
  -1  -3  11 1086.83 106.697   6
  -1   3  11 920.425 85.9407   6
  -1   3  10 16.0931 16.2343   6
  -1  -3  10 100.324 35.5071   7
   1  -3 -10 92.7557 24.2622   2
   1   3 -10 117.827 36.2804   3
  -1  -3  10 140.605 39.7440   6
   1   3 -10 46.9228 15.7944   8
  -1  -3  10 59.8308 22.3723  10
  -1   3  10 107.621 32.8458  10
  -1   3   9 1232.71 91.5365  10
  -1   3   9 1283.18 52.9997   8
   1   3  -9 1300.84 70.1627   8
  -1  -3   9 1206.24 104.007   6
  -1  -3   9 1131.17 98.8043   7
  -1   3   9 1215.67 90.0739   6
   1  -3  -9 1282.16 80.9524   2
  -1  -3   9 1197.28 77.1382  10
   1   3  -9 1208.06 108.726   3
   1  -3  -8 12508.0 309.502   2
   1   3  -8 12454.6 283.329   8
  -1  -3   8 12456.4 299.203  10
  -1   3   8 11875.4 333.611  10
  -1  -3   8 12582.4 369.234   7
  -1   3   8 12231.5 328.905   6
   1   3  -8 12952.7 385.246   3
  -1  -3   8 11845.5 230.601   4
  -1  -3   8 12933.0 376.288   6
  -1  -3   7 11143.4 270.292  10
   1   3  -7 11061.4 338.679   3
  -1   3   7 10721.1 303.809  10
   1  -3  -7 11051.9 278.681   2
   1   3  -7 10999.6 261.910   8
  -1  -3   7 11345.6 336.636   7
  -1   3   7 10719.8 295.362   6
  -1  -3   7 11666.8 342.956   6
  -1  -3   6 1871.98 117.510   6
  -1   3   6 1698.28 99.9276  10
  -1   3   6 1805.29 97.0239   6
   1   3  -6 1732.09 81.5714   8
  -1  -3   6 1738.93 82.1665  10
   1  -3  -6 1930.43 91.5299   2
   1   3  -6 1716.68 109.910   3
  -1  -3   6 1716.52 109.935   7
  -1   3   5 574.222 57.4368  10
   1  -3  -5 668.973 55.8099   4
   1   3  -5 694.269 65.6729   3
   1  -3  -5 654.111 50.9463   2
  -1  -3   5 610.219 64.4241   7
  -1  -3   5 652.998 47.1221  10
   1   3  -5 617.396 47.3982   8
  -1  -3   5 651.550 68.1920   6
  -1   3   5 620.596 53.9060   6
  -1   3   4 13305.1 310.858   6
  -1   3   4 12831.0 332.213  10
   1   3  -4 13271.0 331.927   3
   1   3  -4 12912.7 298.060   8
  -1  -3   4 13708.0 340.397   9
   1  -3  -4 13399.1 318.429   4
  -1  -3   4 13076.6 286.614  10
  -1  -3   4 13063.2 340.802   7
   1  -3  -4 13048.4 300.717   2
  -1  -3   4 13563.1 357.736   6
  -1  -3   3 10446.2 283.598   7
   1  -3  -3 10613.9 252.744   2
   1  -3  -3 10602.9 271.901   4
  -1  -3   3 10516.6 283.072   9
  -1  -3   3 10474.3 235.787  10
  -1   3   3 9882.04 251.497   6
   1   3  -3 10976.4 208.154   4
   1   3  -3 10132.6 252.131   8
  -1  -3   3 10469.4 297.714   6
   1   3  -3 10541.6 267.815   3
  -1   3   3 10266.7 280.681  10
  -1  -3   3 10668.5 293.213   1
  -1  -3   2 87.7072 34.6797   9
  -1   3   2 17.1967 10.5497   6
  -1  -3   2 7.72389 17.4926   1
   1   3  -2 28.6925 15.2637   8
  -1   3   2 3.98645 18.2226  10
   1   3  -2 30.9558 14.9926   2
   1  -3  -2 35.6676 13.2425   2
   1   3  -2 17.3054 8.12755  10
   1  -3  -2 14.7391 12.2146   8
   1   3  -2 19.2642 13.3525   3
   1   3  -2 28.1642 7.70599  11
  -1  -3   2 21.7312 17.5876   7
  -1  -3   2 35.6732 15.2598  10
   1  -3  -2 20.3590 17.8114   4
  -1  -3   1 7491.04 216.799   9
  -1  -3   1 7644.06 176.909  10
   1  -3  -1 7802.92 191.778   8
  -1  -3   1 7605.27 209.773   7
  -1  -3   1 7600.19 222.838   1
   1  -3  -1 7393.61 223.184   4
   1   3  -1 7510.31 178.873  10
   1   3  -1 7598.03 204.826   8
  -1   3   1 7477.63 222.948  10
   1   3  -1 7203.89 185.855   3
   1  -3  -1 7512.71 195.892   2
   1   3  -1 7554.87 214.484   2
  -1  -3   0 1075.42 54.6391   5
   1   3   0 1011.21 48.0739   3
   1  -3   0 983.166 57.9701   2
  -1   3   0 1001.46 70.7079  10
  -1  -3   0 1001.82 68.9842   9
   1  -3   0 1071.86 60.1989   8
   1  -3   0 1182.04 82.0310   4
   1   3   0 948.743 62.4314   8
  -1  -3   0 991.338 60.2358   7
   1   3   0 1023.86 67.2656   2
  -1  -3   0 1126.07 73.9392   1
  -1  -3   0 1165.85 48.0600   3
  -1  -3  -1 1361.45 80.7364   1
  -1  -3  -1 1372.76 61.4233   5
   1   3   1 1252.10 73.2012   8
  -1   3  -1 1397.02 84.1501  10
  -1  -3  -1 1336.54 65.9055   7
   1  -3   1 1428.58 71.2574   8
   1  -3   1 1260.92 65.9137   2
   1   3   1 1369.92 47.2141   3
   1  -3   1 1378.25 73.1090   1
  -1  -3  -1 1340.53 76.2298   9
  -1  -3  -1 1369.63 47.7048   3
   1   3   1 1272.11 74.7231   2
   1  -3   2 2930.98 113.694   7
   1   3   2 2850.21 117.875   8
  -1   3  -2 3006.57 128.242  10
   1  -3   2 3082.80 111.601   8
  -1  -3  -2 3065.65 114.982   9
   1  -3   2 2879.51 104.315   2
   1   3   2 2882.66 68.9478   3
  -1  -3  -2 3103.98 99.8590   7
  -1   3  -2 2982.86 120.733   3
   1   3   2 3091.53 118.789   2
   1  -3   2 3006.78 114.559   1
  -1  -3  -2 3107.57 94.8836   5
  -1   3  -3 82587.7 1488.14   3
   1   3   3 84381.6 1473.08   2
  -1  -3  -3 84618.6 1430.87   5
  -1   3  -3 81267.3 1477.27   5
  -1  -3  -3 85401.1 1463.89   9
   1  -3   3 86602.0 1487.89   1
   1  -3   3 84283.4 1452.88   2
  -1  -3  -3 90754.2 1436.76   7
   1  -3   3 85678.1 1460.70   7
   1  -3   3 86538.9 1469.82   8
   1   3   3 84999.9 1492.37   8
   1  -3   4 41400.0 782.940   7
  -1  -3  -4 43988.9 790.421   9
   1  -3   4 43623.2 803.113   8
  -1  -3  -4 43793.2 764.027   5
   1   3   4 42724.1 826.910   8
  -1   3  -4 43283.3 805.156   5
   1   3   4 43218.0 798.020   2
   1  -3   4 43254.4 785.221   2
  -1  -3  -4 44787.8 763.486   7
  -1   3  -4 44040.0 825.854   3
   1  -3   5 2003.67 75.9298   6
   1  -3   5 1962.54 81.9366   2
   1  -3   5 2014.93 91.8808   8
  -1   3  -5 2070.73 49.3299   9
  -1   3  -5 1872.20 86.7870   5
   1   3   5 1995.21 69.6621   3
   1   3   5 1968.70 100.011   8
  -1  -3  -5 1983.87 81.3935   9
   1   3   5 1988.03 85.9023   2
   1  -3   5 1847.64 78.4036   7
  -1  -3  -5 2056.93 74.2163   7
  -1   3  -5 1863.29 97.8768   3
  -1  -3  -5 1974.26 73.7671   5
   1  -3   6 4815.08 131.355   7
  -1  -3  -6 4087.55 117.992   5
   1  -3   6 4231.17 126.486   6
   1  -3   6 3878.01 127.256   2
  -1   3  -6 4038.48 132.644   5
   1   3   6 4208.02 158.877   8
   1   3   6 4088.86 128.100   2
  -1  -3  -6 4434.57 123.904   7
  -1   3  -6 4134.17 158.249   3
  -1  -3  -6 4107.09 124.057   9
   1  -3   7 136.656 21.7889   6
  -1   3  -7 138.074 30.9804   3
   1   3   7 120.709 25.4660   8
   1   3   7 112.905 17.7213   2
   1  -3   7 148.510 21.3147   7
   1  -3   7 149.293 23.0855   2
  -1  -3  -7 125.908 20.0384   9
  -1  -3  -7 131.533 20.3985   5
  -1   3  -7 124.336 22.3288   5
   1   3   8 14.5712 12.1228   8
  -1  -3  -8 50.2842 14.9380   9
  -1   3  -8 36.7356 15.8544   5
  -1   3  -8 86.4829 25.7890   3
   1  -3   8 57.0480 17.8941   6
  -1  -3  -8 43.6153 14.5285   5
   1   3   8 53.9274 13.6669   2
   1  -3   8 38.9899 12.9215   7
   1  -3   8 36.6018 12.8685   2
  -1   3  -9 29.2228 13.2583   5
  -1  -3  -9-10.3452 10.6750   9
   1   3   9-2.29649 13.7788   6
   1   3   9 1.12213 9.44668   2
   1  -3   9-2.23681 10.2025   6
  -1   3  -9-0.09581 15.5037   3
   1  -3   9 12.0141 9.17651   7
  -1  -3  -9 24.0149 14.9773   5
  -1  -3 -10 1846.47 76.0306   9
  -1  -3 -10 1739.82 81.4250   5
   1  -3  10 1804.80 75.7531   7
  -1   3 -10 1830.80 79.9034   5
   1   3  10 1761.56 100.711   8
   1  -3  10 1954.26 97.9615   6
  -1   3 -10 1761.22 120.927   3
   1   3  10 1876.81 103.632   6
   1   3  11 5795.87 197.039   8
  -1   3 -11 5648.57 164.130   5
   1  -3  11 5588.13 155.902   7
   1   3  11 5877.22 203.902   6
  -1   3 -11 5778.65 242.588   3
  -1  -3 -11 5822.03 174.815   5
   1  -3  11 6013.91 198.090   6
  -1  -3 -12 1201.02 74.6709   5
   1  -3  12 1125.16 60.7194   7
   1  -3  12 1135.94 83.4002   6
   1   3  12 1269.68 90.0452   6
  -1   3 -12 1196.09 67.9089   5
  -1   3 -12 1191.21 110.668   3
   1   3  12 1197.52 80.4182   8
  -1  -3 -13 7574.11 225.994   5
  -1   3 -13 7574.77 209.904   5
  -1   3 -13 7209.81 304.583   3
   1  -3  13 7688.32 255.337   6
   1   3  13 7502.25 253.192   6
  -1   3 -14 1942.45 98.0023   5
  -1  -3 -14 2180.10 114.226   5
   1   3  14 2026.76 125.831   6
  -1   3 -14 2035.79 159.646   3
   1  -3  14 2040.58 128.689   6
   1   3  15 82.2937 30.3759   6
  -1  -3 -15 78.1432 26.7972   5
  -1   3 -15 130.483 29.6700   5
   1  -3  15 107.564 38.3583   6
  -1   3 -15 98.7032 44.0502   3
   1  -3  16 2554.12 162.278   6
  -1   3 -16 2459.01 192.799   3
  -1   3 -16 2679.39 130.457   5
  -1  -3 -16 2719.39 147.460   5
   1   3  16 2862.26 164.623   6
  -1   3 -17 11.0289 34.8542   3
   1  -3  17 67.2899 31.1002   6
  -1  -3 -17 6.65719 22.0384   5
  -1   3 -17-5.21735 20.4915   5
   1   3  17 54.6544 29.8146   6
   1   3  18 51.3563 30.8751   6
  -1   3 -18-8.13099 42.0107   3
  -1  -3 -18 18.6769 24.1953   5
  -1   3 -18-10.1063 19.9923   5
   1  -3  18 13.7758 26.2902   6
   1  -3  19 2000.82 167.561   6
  -1  -3 -19 2080.67 148.053   5
  -1   3 -19 2283.96 144.628   5
   1   3  19 2246.27 170.732   6
  -1   3 -20 3299.21 184.324   5
  -1  -3 -20 3030.37 190.451   5
   1  -3  20 3182.76 223.297   6
   1   3  20 3215.12 215.630   6
  -1  -3 -21 2578.44 182.355   5
   1   3  21 2971.50 217.098   6
  -1   3 -21 2730.17 173.854   5
   1  -3  21 2756.23 218.932   6
  -1   3 -22 71.7470 38.0355   5
   1  -3  22-23.1676 35.0904   6
  -1   4  22 28.9659 46.1494   6
  -1   4  21 224.088 75.3115  10
  -1  -4  21 204.888 64.2704  10
  -1   4  21 237.463 77.0083   6
  -1  -4  21 103.768 64.0247   6
  -1  -4  20 1382.69 137.009  10
  -1   4  20 1453.38 159.043  10
  -1  -4  20 1576.33 183.701   6
  -1   4  20 1296.67 154.079   6
  -1   4  19 333.856 75.6017  10
  -1   4  19 275.654 75.4125   6
  -1  -4  19 337.610 90.5417   6
  -1  -4  19 320.892 65.1143  10
  -1  -4  18 2716.31 177.239  10
  -1   4  18 2710.77 199.943  10
  -1  -4  18 2983.18 203.710   7
  -1  -4  18 2723.70 227.145   6
  -1   4  18 2621.77 203.235   6
  -1  -4  17 9327.48 338.066  10
  -1  -4  17 9854.47 385.085   7
  -1   4  17 9450.16 379.676  10
  -1  -4  17 9838.55 432.287   6
  -1   4  17 9412.52 385.980   6
  -1  -4  16 13470.2 453.142   7
  -1   4  16 12508.7 434.100  10
  -1  -4  16 12428.2 389.434  10
  -1  -4  16 13312.5 496.582   6
  -1   4  16 12343.3 437.249   6
  -1  -4  15 4009.33 191.607  10
  -1  -4  15 4312.73 233.299   7
  -1   4  15 3614.61 209.690   6
  -1  -4  15 4413.52 260.230   6
  -1   4  15 3948.19 217.502  10
  -1  -4  14 361.873 54.4335  10
   1  -4 -14 291.742 46.7346   2
  -1  -4  14 243.088 44.9933   9
  -1  -4  14 367.286 66.4691   7
  -1  -4  14 352.692 73.7821   6
  -1   4  14 358.851 67.8817  10
  -1   4  14 368.773 63.6332   6
  -1   4  13 767.904 85.5360   6
  -1  -4  13 722.984 89.9074   7
  -1   4  13 829.012 91.0401  10
  -1  -4  13 881.295 79.0670  10
  -1  -4  13 795.125 100.755   6
   1   4 -13 808.918 106.602   3
   1  -4 -13 767.335 72.1720   2
  -1  -4  13 880.866 83.0770   9
  -1  -4  12 8482.80 260.697  10
  -1   4  12 7937.44 291.595  10
   1  -4 -12 8427.55 255.809   2
   1   4 -12 8150.86 351.398   3
  -1  -4  12 8540.37 284.211   9
  -1  -4  12 8580.13 319.739   7
  -1  -4  12 8268.19 333.416   6
  -1   4  12 7510.79 282.673   6
   1   4 -12 8217.93 226.712   8
   1   4 -11 1048.48 113.395   3
  -1  -4  11 982.671 76.2915  10
  -1  -4  11 911.789 100.532   6
   1   4 -11 994.477 65.8781   8
  -1   4  11 878.501 87.0632  10
  -1   4  11 824.186 80.4728   6
  -1  -4  11 1109.32 103.841   7
  -1  -4  11 871.898 80.6079   9
   1  -4 -11 903.629 71.7081   2
  -1  -4  10 1584.65 91.5976  10
  -1  -4  10 1483.30 62.8724   4
  -1  -4  10 1540.79 105.503   9
   1   4 -10 1401.00 124.020   3
   1  -4 -10 1478.70 88.9878   2
  -1  -4  10 1491.07 118.655   7
  -1   4  10 1322.85 103.575  10
  -1  -4  10 1439.60 122.025   6
  -1   4  10 1385.84 98.9785   6
  -1  -4   9 1536.86 57.8535   4
  -1   4   9 1530.76 107.483  10
  -1  -4   9 1519.75 86.2114  10
   1  -4  -9 1428.24 84.0004   2
   1   4  -9 1544.29 123.900   3
  -1  -4   9 1552.95 104.483   9
  -1  -4   9 1721.04 122.847   7
  -1  -4   9 1460.78 118.858   6
  -1   4   9 1447.36 98.0016   6
  -1  -4   8 781.577 79.7467   7
  -1   4   8 755.595 75.3699  10
  -1  -4   8 840.062 57.8748  10
  -1  -4   8 794.089 70.9806   9
  -1  -4   8 824.754 86.0835   6
  -1  -4   8 682.293 32.9688   4
   1   4  -8 826.028 85.8586   3
   1  -4  -8 825.974 61.4568   2
  -1   4   8 763.397 67.6377   6
  -1  -4   7 6.09649 17.6447   9
  -1  -4   7 12.2465 15.7605   7
  -1  -4   7 24.4003 12.7147  10
  -1   4   7 32.1353 15.2857   6
  -1  -4   7 35.7443 6.97215   4
   1  -4  -7 18.5215 12.3486   2
  -1   4   7 22.1423 30.8424  10
   1   4  -7 49.9457 29.6962   3
  -1  -4   7 16.7711 21.3557   6
  -1   4   6 19921.4 468.484  10
  -1  -4   6 20113.7 465.537   9
  -1  -4   6 20182.3 487.955   7
  -1  -4   6 19888.2 406.776  10
   1  -4  -6 19882.8 416.458   2
   1   4  -6 20044.9 487.960   3
  -1  -4   6 20102.1 502.489   6
  -1   4   6 18915.6 433.506   6
  -1   4   5 6276.39 219.451  10
   1  -4  -5 6898.89 217.083   4
  -1  -4   5 7054.24 248.663   6
  -1  -4   5 7000.41 222.760   9
   1  -4  -5 6819.43 185.614   2
   1   4  -5 6687.15 228.150   3
  -1  -4   5 6684.85 231.436   7
  -1   4   5 6619.74 195.607   6
  -1  -4   5 6923.38 177.351  10
  -1  -4   4 11037.8 239.060  10
  -1   4   4 10765.3 300.100  10
   1  -4  -4 10872.0 292.446   4
  -1  -4   4 10803.8 294.869   9
  -1   4   4 10138.2 259.816   6
  -1  -4   4 10530.0 299.498   7
   1   4  -4 11234.4 232.932   4
   1  -4  -4 10828.9 253.350   2
   1   4  -4 10736.4 293.322   3
  -1  -4   4 10922.4 327.678   1
  -1  -4   4 10799.5 318.681   6
  -1  -4   3 921.668 46.0121  10
   1  -4  -3 842.427 67.7225   4
  -1  -4   3 1019.21 72.5302   9
   1   4  -3 880.984 64.4532   3
  -1   4   3 781.025 52.3470   6
  -1  -4   3 906.395 71.2488   7
   1  -4  -3 827.241 52.0804   2
  -1  -4   3 783.712 73.0081   1
  -1   4   3 749.936 66.2140  10
   1  -4  -2 6585.36 212.869   4
   1   4  -2 6425.31 141.196  10
  -1  -4   2 6272.18 199.287   7
  -1   4   2 5933.22 202.100  10
   1  -4  -2 6315.68 169.814   2
  -1   4   2 6112.84 164.709   6
  -1  -4   2 6141.39 217.433   1
  -1  -4   2 6528.09 146.554  10
   1   4  -2 6207.78 181.597   3
  -1  -4   2 6255.55 197.982   9
   1   4  -2 5945.86 194.094   2
  -1  -4   1 323.307 39.1531   7
  -1  -4   1 425.203 53.5182   1
   1   4  -1 347.158 41.3570   2
   1   4  -1 360.724 27.2332  10
   1  -4  -1 429.329 50.9929   4
   1   4  -1 393.465 35.7963   3
  -1  -4   1 494.427 57.2654   9
  -1  -4   1 397.214 28.8576   5
  -1   4   1 391.020 47.1971  10
   1  -4  -1 346.075 32.5733   2
   1  -4  -1 439.146 28.5216   6
   1  -4   0 7844.83 197.769   2
  -1  -4   0 8121.01 226.777   9
   1   4   0 8361.37 191.474  10
   1   4   0 7919.40 192.014   3
  -1   4   0 7856.36 236.546  10
   1  -4   0 8272.91 234.727   1
  -1  -4   0 8166.32 253.264   1
  -1  -4   0 8198.59 180.516   5
   1   4   0 7914.44 221.237   8
   1  -4   0 8487.14 256.318   4
  -1  -4   0 8235.79 219.763   7
   1  -4   0 8077.35 178.347   6
   1   4   0 8020.02 228.524   2
   1   4   1 1303.15 77.0544   8
   1  -4   1 1303.08 93.5004   4
  -1  -4  -1 1266.04 51.4823   5
  -1  -4  -1 1358.93 81.9534   9
   1  -4   1 1228.22 61.8838   2
   1  -4   1 1364.76 90.7295  11
  -1  -4  -1 1196.23 85.9045   1
   1  -4   1 1396.67 84.8283   1
  -1  -4  -1 1367.61 71.7404   7
   1  -4   1 1290.20 79.4222   7
  -1   4  -1 1252.80 83.1895   3
   1   4   1 1290.74 55.1125   3
   1   4   1 1177.06 73.5558   2
  -1   4  -1 1355.00 87.3337  10
  -1  -4  -2 8424.26 226.136   9
  -1   4  -2 8458.03 247.523   3
  -1   4  -2 7938.80 240.060  10
   1   4   2 8647.35 181.929   3
  -1  -4  -2 9081.44 216.621   7
   1   4   2 8411.17 236.813   8
   1   4   2 8906.62 234.068   2
   1  -4   2 8440.71 205.724   2
  -1  -4  -2 8484.08 185.252   5
   1  -4   2 8590.17 235.157   7
   1  -4   2 8660.04 249.955   1
  -1   4  -3 2782.97 115.421   5
  -1  -4  -3 2932.57 113.497   9
   1   4   3 2906.76 123.930   8
   1   4   3 2827.74 82.4056   3
  -1  -4  -3 2836.66 86.0035   5
   1  -4   3 2941.20 102.356   2
  -1  -4  -3 3035.79 104.563   7
   1  -4   3 2926.08 132.942   1
   1  -4   3 2813.01 114.203   7
   1   4   3 2990.97 116.712   2
  -1   4  -3 2893.48 129.792   3
  -1   4  -3 3076.82 129.464  10
  -1   4  -4 6502.86 213.765   3
   1  -4   4 6661.89 221.551   1
  -1  -4  -4 6971.68 155.910   5
   1   4   4 6682.71 186.671   2
  -1  -4  -4 6812.70 176.780   7
  -1   4  -4 6600.76 192.363   5
   1  -4   4 6894.33 154.702   6
   1  -4   4 5905.42 183.718   7
  -1  -4  -4 6601.75 184.193   9
   1   4   4 6463.67 206.081   8
   1  -4   4 6568.76 173.607   2
   1  -4   5 282.719 25.7348   6
  -1   4  -5 328.671 45.6774   3
  -1  -4  -5 296.241 25.6464   5
   1   4   5 247.831 36.5410   8
  -1  -4  -5 242.656 29.1589   7
  -1  -4  -5 272.768 30.6766   9
   1  -4   5 273.483 28.9266   2
   1   4   5 309.675 33.4261   2
  -1   4  -5 223.866 30.9013   5
   1  -4   5 248.118 31.3848   7
  -1   4  -6 17932.2 330.483   9
   1  -4   6 19127.5 387.807   2
   1  -4   6 18690.0 395.052   7
   1  -4   6 20249.0 378.935   6
   1   4   6 19297.8 383.211   2
  -1  -4  -6 19797.2 395.459   7
  -1   4  -6 18290.1 391.029   5
  -1   4  -6 18911.9 447.367   3
  -1  -4  -6 19055.8 365.833   5
  -1  -4  -6 19010.7 386.857   9
   1   4   6 18591.1 435.434   8
   1   4   7 3610.96 154.256   8
  -1  -4  -7 3930.27 123.969   9
   1  -4   7 3990.87 129.963   2
   1  -4   7 3783.13 130.223   7
  -1  -4  -7 3930.51 116.241   5
  -1   4  -7 3735.13 125.083   5
   1   4   7 3793.30 115.416   2
  -1   4  -7 3687.95 164.168   3
   1  -4   7 4109.53 127.294   6
  -1  -4  -8 13214.6 286.206   9
   1  -4   8 12468.0 294.613   7
   1   4   8 12435.0 338.208   8
   1   4   8 13349.2 271.461   2
  -1  -4  -8 13032.0 283.141   5
  -1   4  -8 12604.7 288.773   5
   1  -4   8 13607.9 303.379   6
  -1   4  -8 13095.4 363.150   3
   1   4   9 5016.58 178.607   6
   1  -4   9 4702.23 150.784   7
   1   4   9 4533.82 180.497   8
  -1   4  -9 4767.42 203.491   3
  -1  -4  -9 4808.80 143.355   9
  -1  -4  -9 4922.55 146.914   5
   1   4   9 5249.74 133.426   2
  -1   4  -9 5064.79 145.657   5
   1  -4   9 5063.80 163.773   6
   1   4  10 773.529 67.5023   6
  -1  -4 -10 679.622 47.7190   9
   1  -4  10 656.977 49.8555   7
  -1  -4 -10 693.893 51.8922   5
   1  -4  10 668.095 58.5064   6
   1   4  10 662.122 64.3711   8
  -1   4 -10 746.993 81.2145   3
  -1   4 -10 669.473 47.2057   5
  -1   4 -11 13856.4 303.750   5
  -1  -4 -11 13919.7 322.298   5
   1   4  11 13459.7 357.888   8
   1   4  11 14455.2 364.162   6
  -1  -4 -11 14059.5 306.602   9
   1  -4  11 13905.9 350.419   6
   1  -4  11 12721.1 307.947   7
  -1   4 -11 13720.8 416.928   3
  -1  -4 -12 17767.3 398.801   5
  -1   4 -12 17461.7 373.955   5
   1  -4  12 16510.8 374.916   7
  -1   4 -12 17670.0 510.653   3
   1   4  12 17319.3 424.698   8
   1  -4  12 17444.7 430.788   6
   1   4  12 18878.4 443.221   6
  -1  -4 -13 11924.3 315.373   5
  -1   4 -13 12071.9 289.774   5
  -1   4 -13 11981.9 418.025   3
   1  -4  13 12082.4 349.001   6
   1   4  13 12914.2 354.385   6
   1  -4  14 14005.4 404.810   6
  -1  -4 -14 14839.0 374.800   5
  -1   4 -14 14271.7 338.742   5
  -1   4 -14 13707.3 472.350   3
   1   4  14 14643.0 401.535   6
  -1   4 -15 164.574 57.4302   3
   1   4  15 213.656 44.3330   6
  -1   4 -15 199.132 33.6559   5
   1  -4  15 170.779 44.1315   6
  -1  -4 -15 230.116 42.5683   5
  -1   4 -16 1641.14 99.5102   5
  -1  -4 -16 1666.79 117.247   5
   1   4  16 1598.39 124.545   6
  -1   4 -16 1549.30 153.782   3
   1  -4  16 1692.45 133.435   6
   1   4  17 199.183 47.8679   6
  -1   4 -17 399.530 83.3962   3
  -1   4 -17 277.105 43.7632   5
  -1  -4 -17 254.795 48.6523   5
   1  -4  17 247.516 57.0126   6
   1  -4  18 43.0957 33.8053   6
  -1   4 -18 132.108 61.2309   3
  -1  -4 -18 147.529 43.7646   5
  -1   4 -18 81.7203 28.6424   5
   1   4  18 168.941 48.8001   6
  -1  -4 -19 244.085 51.1214   5
   1   4  19 311.834 68.6180   6
  -1   4 -19 239.119 47.2832   5
  -1   4 -19 241.484 76.1611   3
   1  -4  19 234.542 61.2388   6
  -1   4 -20-45.8191 32.6298   5
   1  -4  20 20.3633 33.5667   6
   1   4  20 26.2842 47.0386   6
  -1  -4 -20-6.99722 29.9439   5
  -1  -4 -21 2776.85 194.714   5
  -1   4 -21 2762.09 176.549   5
   1   4  21 3239.13 230.898   6
   1  -4  21 2743.35 221.894   6
  -1   4 -22 6797.58 300.108   5
   1  -4  22 6962.44 379.314   6
  -1  -5  21 650.904 126.683   6
  -1   5  21 703.935 120.851   6
  -1   5  21 585.144 107.745  10
  -1   5  20 721.289 117.294  10
  -1   5  20 787.058 118.430   6
  -1  -5  20 845.445 144.483   6
  -1   5  19 449.416 86.2669  10
  -1  -5  19 525.908 108.897   6
  -1   5  19 462.509 87.4843   6
  -1  -5  18 90.5567 46.8097  10
  -1   5  18 146.009 66.9790   6
  -1   5  18 85.5221 49.9036  10
  -1  -5  18 45.3434 42.5715   6
  -1  -5  18 9.72908 26.8076   7
  -1  -5  17 1669.27 148.653   7
  -1  -5  17 1764.53 134.779  10
  -1   5  17 1618.34 150.557   6
  -1   5  17 1553.75 149.966  10
  -1  -5  17 1168.15 146.796   6
  -1  -5  16 879.926 89.9551  10
  -1   5  16 863.819 106.892  10
  -1  -5  16 898.922 106.606   7
  -1   5  16 830.655 104.561   6
  -1  -5  16 1085.16 135.364   6
  -1   5  15 29.8731 21.3820   6
  -1   5  15 42.3558 33.1019  10
   1   5 -15 116.971 50.5788   3
  -1  -5  15 17.6054 36.0668   6
  -1  -5  15 36.6482 21.3083   7
  -1  -5  15 50.3176 31.4647  10
  -1  -5  14 6397.35 284.263   7
  -1  -5  14 5975.25 229.000  10
   1   5 -14 6632.64 337.939   3
  -1   5  14 6384.05 282.093  10
  -1  -5  14 6087.04 306.851   6
  -1   5  14 5655.03 257.615   6
  -1   5  13 23455.5 623.963  10
  -1  -5  13 24760.7 563.043  10
   1   5 -13 25089.3 726.036   3
  -1  -5  13 25024.6 578.211   9
  -1  -5  13 25685.1 651.793   7
   1   5 -13 24573.2 529.313   8
  -1  -5  13 26484.3 704.579   6
  -1   5  13 23172.4 606.239   6
   1   5 -12 4384.69 254.287   3
  -1   5  12 4254.14 211.238  10
  -1  -5  12 4589.07 178.275  10
  -1  -5  12 4490.36 187.852   9
   1  -5 -12 4418.29 167.357   2
  -1  -5  12 4191.83 216.988   7
  -1   5  12 4063.85 195.152   6
  -1  -5  12 4371.84 239.783   6
  -1  -5  11 769.859 65.8805  10
  -1  -5  11 818.343 98.6810   6
  -1   5  11 655.486 78.7454  10
  -1  -5  11 674.111 69.8163   9
  -1   5  11 561.584 66.4415   6
  -1  -5  11 533.450 72.1845   7
   1  -5 -11 652.694 56.7276   2
   1   5 -11 614.167 89.8922   3
  -1   5  10 1732.91 123.743  10
  -1  -5  10 1668.20 68.5896   4
  -1  -5  10 1843.38 96.8227  10
  -1  -5  10 1779.33 111.333   9
   1  -5 -10 1585.00 88.0332   2
  -1  -5  10 1619.13 122.831   7
  -1  -5  10 1723.02 137.499   6
   1   5 -10 1713.00 140.880   3
  -1   5  10 1454.81 101.754   6
  -1  -5   9 29289.0 584.412  10
  -1  -5   9 29510.0 633.854   9
  -1  -5   9 29731.2 710.539   6
  -1  -5   9 28779.8 527.140   4
  -1   5   9 27912.9 655.762  10
  -1   5   9 28064.8 620.603   6
  -1  -5   9 29382.4 681.613   7
   1  -5  -9 28918.8 575.792   2
   1   5  -9 29926.4 721.531   3
   1   5  -8 6676.48 264.267   3
  -1  -5   8 6453.60 261.360   6
  -1  -5   8 6336.93 220.531   9
  -1   5   8 5979.58 229.897  10
  -1  -5   8 6048.01 146.476   4
  -1  -5   8 6372.93 245.202   7
  -1   5   8 5878.14 204.150   6
  -1  -5   8 6554.58 185.588  10
   1  -5  -8 6226.12 179.839   2
   1   5  -7 4169.37 193.677   3
   1  -5  -7 3763.71 127.163   2
  -1  -5   7 3870.82 161.996   9
  -1   5   7 3498.26 167.200  10
  -1  -5   7 3730.31 102.963   4
  -1  -5   7 4093.69 131.797  10
  -1  -5   7 4001.26 181.903   7
  -1  -5   7 4197.91 199.187   6
  -1   5   7 3681.12 147.777   6
  -1  -5   6 33.0915 19.6686   9
   1  -5  -6 27.3610 10.5450   2
  -1   5   6 33.6472 18.1641   6
  -1  -5   6 72.4159 18.4826  10
  -1  -5   6 44.5213 28.4505   6
  -1  -5   6 47.3179 11.5101   4
  -1   5   6 40.2879 22.1226  10
   1  -5  -6 44.0047 21.5341   4
  -1  -5   6 6.90905 17.8154   7
   1   5  -6 55.7250 25.5825   3
   1  -5  -5 20984.3 417.920   2
   1   5  -5 21263.0 500.324   3
  -1  -5   5 21362.2 525.993   6
   1  -5  -5 22521.1 501.690   4
  -1  -5   5 21109.7 407.825  10
  -1  -5   5 21521.7 482.447   9
  -1   5   5 20266.3 439.870   6
  -1   5   5 20382.9 493.714  10
  -1  -5   5 21715.0 551.950   1
  -1  -5   5 21122.1 500.777   7
   1   5  -4 3906.18 159.293   3
  -1   5   4 3356.89 155.867  10
  -1  -5   4 3770.28 184.205   1
  -1  -5   4 3657.97 159.646   7
   1  -5  -4 3757.32 116.734   2
  -1  -5   4 3838.27 103.760  10
  -1  -5   4 3551.12 149.539   9
  -1   5   4 3461.21 122.865   6
   1  -5  -4 3891.08 162.809   4
  -1   5   3 12.4059 8.35446   6
   1   5  -3 30.9556 13.6382   3
   1  -5  -3 31.7417 11.1257   2
   1  -5  -3 69.1141 25.4734   4
  -1  -5   3 38.0769 7.65545  10
  -1   5   3 47.0040 18.4589  10
  -1  -5   3 44.8819 22.2803   9
  -1  -5   3 50.5692 22.8565   7
  -1  -5   3 19.1154 23.6754   1
  -1  -5   2 2936.26 83.1155   5
  -1   5   2 2876.85 136.938  10
  -1  -5   2 2938.54 155.227   1
   1  -5  -2 2837.94 140.551   4
   1  -5  -2 2904.51 97.6889   2
  -1  -5   2 2882.21 127.003   9
  -1  -5   2 3009.58 130.860   7
   1   5  -2 2995.27 119.761   3
   1  -5  -2 3191.85 74.8955   6
  -1   5   1 452.916 54.0847  10
   1   5  -1 433.787 26.2649  10
  -1  -5   1 446.121 59.1053   1
  -1  -5   1 410.665 45.4647   9
  -1  -5   1 471.904 27.1384   5
   1  -5  -1 502.519 36.9133   2
  -1  -5   1 530.903 51.0374   7
   1  -5  -1 477.539 56.8670   4
   1   5  -1 452.486 41.5627   3
   1  -5  -1 501.440 22.7551   6
   1   5  -1 479.042 49.3628   2
   1   5   0 460.546 31.9535  10
  -1  -5   0 422.174 47.2856   9
   1   5   0 370.581 43.3623   2
  -1  -5   0 414.045 56.6316   1
   1  -5   0 434.953 53.2888   1
   1  -5   0 442.534 35.3042   2
  -1  -5   0 467.036 46.8174   7
  -1  -5   0 408.212 24.1084   5
   1  -5   0 437.237 21.5183   6
   1  -5   0 382.612 53.1687   4
  -1   5   0 378.276 47.6128  10
   1  -5   0 373.110 48.5363   7
   1   5   0 410.190 37.3071   3
   1  -5   1 30845.2 671.144   4
  -1  -5  -1 32383.4 607.094   7
  -1   5  -1 29936.6 633.236  10
  -1  -5  -1 28625.9 532.362   5
   1  -5   1 31400.0 567.372   2
  -1  -5  -1 30603.6 608.108   9
  -1  -5  -1 29703.2 671.833   1
   1  -5   1 31949.3 659.888   1
  -1   5  -1 30406.8 649.324   3
   1  -5   1 29911.3 631.272   7
   1   5   1 30745.2 616.795   2
   1   5   1 31127.5 568.623   3
  -1   5  -2 728.090 66.9533   3
  -1   5  -2 601.941 58.3390  10
  -1  -5  -2 663.375 51.5121   7
   1  -5   2 672.142 66.6791   1
  -1  -5  -2 697.428 33.0625   5
   1  -5   2 832.843 80.9092   4
  -1  -5  -2 684.340 55.1745   9
   1  -5   2 662.764 43.5342   2
   1   5   2 642.212 54.1983   2
   1  -5   2 702.754 27.4150   6
   1  -5   2 624.851 57.9759   7
   1  -5   2 741.962 68.0693  11
   1   5   2 642.612 58.2497   8
   1   5   2 637.931 41.3044   3
   1   5   3 239.389 38.0508   8
  -1   5  -3 234.823 39.9603   3
  -1   5  -3 173.852 32.2278  10
  -1  -5  -3 254.118 20.9621   5
   1  -5   3 257.237 27.0357   2
  -1  -5  -3 204.825 29.8781   9
  -1  -5  -3 202.167 29.6154   7
   1  -5   3 197.542 38.4631   1
  -1   5  -3 228.694 30.7467   5
   1   5   3 225.138 31.6917   2
   1   5   3 253.161 26.3392   3
   1  -5   3 207.279 32.3691   7
   1  -5   3 258.486 18.4359   6
  -1  -5  -4 17259.2 330.129   5
   1  -5   4 17627.5 358.779   2
   1   5   4 16885.1 406.448   8
  -1   5  -4 16148.2 378.775   5
   1   5   4 16435.1 347.122   3
  -1  -5  -4 17846.6 380.781   7
   1  -5   4 16897.6 392.682   7
   1  -5   4 17530.9 444.663   1
   1   5   4 17342.7 375.915   2
  -1  -5  -4 17440.9 377.099   9
  -1   5  -4 17762.6 430.956   3
   1  -5   4 18585.2 330.308   6
   1   5   5 30517.4 639.969   8
  -1   5  -5 29996.4 595.507   5
   1   5   5 30882.9 589.839   2
  -1  -5  -5 31381.9 606.061   7
   1  -5   5 31475.0 581.850   2
   1  -5   5 30038.7 683.393   1
   1  -5   5 29266.8 609.616   7
  -1  -5  -5 30129.4 593.604   9
  -1  -5  -5 30679.9 553.351   5
  -1   5  -5 30434.0 660.286   3
   1  -5   5 31484.5 558.406   6
  -1  -5  -6 2808.44 90.7527   5
   1   5   6 2648.47 131.237   8
   1   5   6 2723.09 97.9612   2
  -1   5  -6 2857.38 143.847   3
   1  -5   6 2933.32 106.931   2
  -1   5  -6 2529.68 102.556   5
  -1  -5  -6 2685.12 106.196   9
   1  -5   6 2705.73 116.675   7
  -1  -5  -6 2763.62 116.184   7
   1  -5   6 2847.75 97.0368   6
   1  -5   6 2904.79 160.178   1
  -1  -5  -7 1445.84 65.3203   5
  -1   5  -7 1376.56 71.0928   5
   1   5   7 1268.67 90.6314   8
  -1   5  -7 1308.09 49.1720   9
   1  -5   7 1315.39 79.0045   7
   1   5   7 1457.01 61.8024   2
  -1  -5  -7 1415.14 83.6328   7
  -1  -5  -7 1480.81 74.3491   9
  -1   5  -7 1354.12 100.117   3
   1  -5   7 1577.27 73.7289   6
  -1  -5  -8 5052.44 153.877   9
   1   5   8 5185.14 130.058   2
  -1  -5  -8 5025.07 146.461   5
   1  -5   8 4936.11 166.255   7
  -1   5  -8 5158.81 149.272   5
  -1   5  -8 4887.44 209.005   3
   1   5   8 4985.75 194.261   8
   1  -5   8 5207.08 160.840   6
   1   5   9 17626.0 323.964   2
   1   5   9 16333.0 420.768   8
  -1  -5  -9 16461.8 356.919   9
  -1  -5  -9 15894.1 354.037   5
   1  -5   9 15868.6 374.590   7
  -1   5  -9 16199.6 452.735   3
  -1   5  -9 16571.3 346.707   5
   1   5   9 17013.8 402.899   6
   1  -5   9 16763.2 378.411   6
   1   5  10 168.057 36.3832   8
  -1  -5 -10 181.757 27.3962   5
   1  -5  10 183.322 32.0146   6
  -1   5 -10 266.621 52.1105   3
  -1  -5 -10 189.820 27.9565   9
  -1   5 -10 183.273 25.8754   5
   1   5  10 207.001 36.3271   6
   1  -5  10 165.639 30.2289   7
   1  -5  11 1464.88 84.5356   7
  -1  -5 -11 1561.63 81.3566   9
  -1   5 -11 1484.80 72.1289   5
  -1  -5 -11 1534.00 85.4864   5
   1   5  11 1536.89 99.7525   6
  -1   5 -11 1706.91 131.450   3
   1  -5  11 1428.96 93.8822   6
   1   5  11 1391.70 98.4799   8
   1   5  12 298.747 46.3721   6
   1  -5  12 326.353 49.0545   6
  -1   5 -12 258.309 58.0615   3
  -1  -5 -12 344.564 44.9745   5
  -1   5 -12 272.679 32.5139   5
   1   5  12 275.393 43.6476   8
   1  -5  12 269.149 36.9758   7
  -1  -5 -13 17.3593 18.9651   5
   1  -5  13 52.0030 27.4470   6
  -1   5 -13 83.4112 21.9213   5
   1   5  13 48.8710 27.4911   6
  -1   5 -13 25.1781 31.1551   3
   1   5  14 111.840 34.6211   6
   1  -5  14 180.921 47.6345   6
  -1   5 -14 190.428 30.1469   5
  -1   5 -14 63.2209 45.7387   3
  -1  -5 -14 166.521 35.3120   5
  -1   5 -15 684.556 60.5512   5
  -1   5 -15 673.829 100.445   3
  -1  -5 -15 742.346 76.9986   5
   1  -5  15 799.671 89.4094   6
   1   5  15 686.160 77.4005   6
  -1   5 -16 4861.81 181.689   5
  -1   5 -16 4555.41 277.379   3
   1  -5  16 4866.66 239.817   6
  -1  -5 -16 4988.29 216.556   5
   1   5  16 4981.39 227.603   6
  -1   5 -17 922.358 130.250   3
  -1  -5 -17 930.365 93.3605   5
  -1   5 -17 956.286 79.7435   5
   1  -5  17 1099.66 117.189   6
   1   5  17 911.601 98.2971   6
   1   5  18 80.7860 37.2026   6
  -1  -5 -18 18.6603 22.6039   5
  -1   5 -18 8.67910 21.8959   5
   1  -5  18-6.35829 30.3521   6
  -1   5 -18 28.0842 46.9153   3
   1  -5  19 29.3569 41.0655   6
  -1  -5 -19 29.1042 25.2307   5
   1   5  19 90.5197 42.4843   6
  -1   5 -19 38.9782 39.9335   3
  -1   5 -19 80.4201 29.6822   5
  -1  -5 -20-2.39973 31.4416   5
  -1   5 -20 1.12199 22.1751   5
  -1   5 -20-55.2015 49.9131   3
   1  -5  20 8.44977 33.5758   6
   1   5  20 7.16410 39.7892   6
   1  -5  21 87.3011 45.3541   6
  -1   5 -21 213.092 50.5080   5
  -1  -5 -21 176.225 47.3624   5
   1   5  21 346.904 78.4743   6
  -1  -6  21 1409.46 192.846   6
  -1   6  21 1532.83 175.643   6
  -1   6  20 233.722 79.3543  10
  -1  -6  20 265.613 81.7138   6
  -1   6  20 306.725 80.0692   6
  -1   6  19 80.2812 40.7073  10
  -1   6  19 104.925 47.8489   6
  -1  -6  19 152.722 55.4896   6
  -1   6  18 2160.03 188.307  10
  -1  -6  18 2292.67 175.847   7
  -1  -6  18 2083.18 206.103   6
  -1   6  18 2056.07 176.712   6
  -1   6  17 5533.55 297.317  10
  -1  -6  17 5709.75 283.580   7
  -1  -6  17 6140.84 347.595   6
  -1   6  17 5409.03 284.788   6
  -1   6  16-3.95506 26.2704  10
  -1  -6  16 57.0611 50.7636   6
  -1   6  16 28.4494 38.1844   6
   1   6 -16-24.0600 46.7667   3
  -1  -6  16-32.7325 37.5012   7
  -1   6  15 498.042 83.5627  10
  -1   6  15 555.224 81.5463   6
  -1  -6  15 663.327 75.4061  10
   1   6 -15 434.751 95.0953   3
  -1  -6  15 504.117 98.0589   6
  -1  -6  15 616.035 88.1821   7
  -1   6  14 1540.77 129.075   6
  -1   6  14 1705.74 143.747  10
  -1  -6  14 1854.64 118.727  10
  -1  -6  14 1745.77 164.091   6
  -1  -6  14 1735.79 143.695   7
   1   6 -14 1902.76 181.648   3
  -1  -6  13 245.860 43.8537  10
  -1   6  13 219.521 58.7120  10
  -1  -6  13 299.184 49.5915   9
  -1   6  13 250.044 51.1911   6
  -1  -6  13 281.780 67.0428   6
   1   6 -13 269.117 71.7800   3
  -1  -6  13 160.440 47.1357   7
  -1  -6  12 1212.26 91.3894   9
  -1   6  12 1223.99 113.127  10
  -1  -6  12 1347.41 90.2740  10
  -1   6  12 1213.96 101.627   6
   1   6 -12 1480.02 148.385   3
  -1  -6  12 1384.12 134.347   6
  -1  -6  12 1214.53 113.211   7
   1   6 -11 918.680 108.140   3
  -1  -6  11 834.369 67.2176  10
  -1   6  11 751.883 87.4064  10
  -1  -6  11 817.192 75.3313   9
  -1  -6  11 869.182 93.4295   7
  -1  -6  11 922.788 110.280   6
  -1   6  11 689.193 73.0374   6
  -1   6  10 20.1336 24.2504  10
  -1  -6  10 44.4292 24.0340   9
   1   6 -10 28.4839 25.0767   3
  -1  -6  10 45.4793 19.1261  10
  -1  -6  10-29.5335 32.3553   6
  -1   6  10 35.7086 21.0081   6
   1  -6 -10 18.9355 10.0322   2
  -1  -6  10 16.7786 21.7808   7
  -1  -6   9 545.330 50.2558  10
   1   6  -9 444.695 70.7313   3
  -1   6   9 476.391 63.6571  10
  -1  -6   9 511.329 58.1127   9
  -1  -6   9 572.418 78.7330   6
  -1  -6   9 485.549 36.9030   4
   1  -6  -9 538.423 41.5680   2
  -1  -6   9 546.549 72.1386   7
  -1   6   9 510.313 57.2464   6
  -1   6   8 82.1001 24.2402   6
   1   6  -8 35.3462 21.6092   3
  -1   6   8 80.7466 28.5054  10
   1  -6  -8 86.7493 17.2118   2
  -1  -6   8 49.9409 21.0643   9
  -1  -6   8 115.094 19.0886   4
  -1  -6   8 100.505 19.0329  10
  -1  -6   8 72.9112 34.1608   6
  -1  -6   8 112.638 35.7096   7
   1   6  -7 57.1210 27.5339   3
  -1   6   7 26.6986 18.8088  10
  -1  -6   7 87.1683 16.9412   4
  -1  -6   7 103.885 37.2439   6
  -1  -6   7 105.024 19.2495  10
  -1  -6   7 71.7341 23.2290   9
   1  -6  -7 88.8936 15.7800   2
  -1  -6   7 166.329 52.8192   1
  -1  -6   7 109.399 35.7855   7
  -1   6   7 93.6024 26.0805   6
  -1  -6   6 1249.34 61.4961   4
  -1  -6   6 1221.48 58.7465  10
  -1   6   6 1220.53 99.0395  10
   1  -6  -6 1309.50 100.383   4
   1  -6  -6 1305.47 58.1977   2
  -1  -6   6 1196.62 96.7319   7
  -1  -6   6 1357.80 109.164   6
   1   6  -6 1354.70 104.297   3
  -1  -6   6 1220.88 114.265   1
  -1  -6   6 1313.21 89.0447   9
  -1   6   6 1233.71 76.0131   6
   1  -6  -5 18589.9 353.403   2
  -1  -6   5 18029.9 430.512   9
  -1  -6   5 17788.2 339.879  10
  -1   6   5 17779.6 457.788  10
   1  -6  -5 18791.0 465.079   4
  -1  -6   5 18720.2 458.246   7
  -1  -6   5 17921.8 513.128   1
   1   6  -5 18584.6 460.926   3
  -1  -6   5 18262.4 480.459   6
  -1   6   5 17109.9 384.612   6
  -1  -6   4 44323.9 706.243   5
   1  -6  -4 40997.5 745.837   2
   1   6  -4 41612.8 847.846   3
  -1   6   4 39104.9 856.786  10
  -1  -6   4 41796.7 855.511   7
  -1  -6   4 40311.7 921.189   1
  -1  -6   4 41179.2 828.594   9
  -1   6   4 40291.8 773.064   6
   1  -6  -4 42050.4 869.867   4
  -1   6   3 1361.89 97.6111  10
  -1  -6   3 1327.88 43.9878   5
  -1  -6   3 1489.79 91.9844   9
  -1  -6   3 1356.88 38.6148   5
  -1  -6   3 1477.46 97.8405   7
   1   6  -3 1477.76 92.6899   3
   1  -6  -3 1323.90 57.4440   2
  -1   6   3 1291.13 62.5578   6
   1  -6  -3 1368.12 101.526   4
  -1  -6   3 1413.48 117.374   1
   1  -6  -2 29.5089 19.1762   4
   1  -6  -2 70.8554 13.9514   2
   1  -6  -2 45.0653 6.45148   6
   1   6  -2 103.022 26.1131   3
  -1  -6   2 66.0243 21.6950   9
  -1  -6   2 51.2271 21.6095   7
  -1  -6   2 49.0712 6.17183   5
  -1   6   2 23.5807 19.2520  10
  -1  -6   2 65.2780 22.7173   1
   1   6  -1 233.402 37.2235   2
  -1  -6   1 235.082 36.5212   9
  -1  -6   1 262.437 14.2047   5
   1   6  -1 241.527 32.8490   3
   1  -6  -1 171.979 39.3985   4
  -1  -6   1 240.893 48.4357   1
  -1  -6   1 261.680 39.6024   7
  -1   6   1 190.817 35.7987  10
   1  -6  -1 156.886 31.3349   7
   1  -6  -1 226.807 23.9006   2
  -1   6   0 37340.1 785.380  10
   1  -6   0 38443.6 823.016   1
   1   6   0 38861.7 682.826  10
  -1  -6   0 38546.9 853.266   1
   1  -6   0 38575.0 698.222   2
  -1  -6   0 37965.5 757.953   9
  -1   6   0 37171.4 811.969   3
  -1  -6   0 39565.7 767.958   7
   1  -6   0 38002.2 796.502   7
   1   6   0 37806.0 766.192   2
   1   6   0 37906.3 737.089   3
  -1  -6   0 40536.4 654.716   5
   1  -6   0 38132.8 822.229   4
  -1  -6  -1 27953.2 578.947   7
   1  -6   1 26667.3 637.356   4
   1  -6   1 26699.4 602.943   7
  -1  -6  -1 28901.4 480.832   5
  -1  -6  -1 27500.3 657.877   1
  -1  -6  -1 27377.8 569.454   9
  -1   6  -1 26735.1 595.404  10
  -1   6  -1 27083.2 624.984   3
   1  -6   1 28381.4 644.110   1
   1  -6   1 27749.0 520.559   2
   1   6   1 28118.5 583.004   2
   1   6   1 26885.1 545.698   3
   1  -6   2 1697.57 71.6188   2
  -1  -6  -2 1583.66 88.7398   9
   1  -6   2 1491.32 111.454   1
  -1   6  -2 1556.20 107.735   3
  -1   6  -2 1487.71 94.2735  10
   1  -6   2 1602.19 115.165   4
  -1  -6  -2 1700.36 93.0421   7
   1  -6   2 1679.59 101.080   7
  -1  -6  -2 1686.96 53.5557   5
   1   6   2 1661.74 92.2490   2
   1  -6   2 1542.50 42.8451   6
   1   6   2 1503.72 75.0873   3
   1   6   3 968.450 58.6588   3
   1  -6   3 950.185 88.3364   1
  -1   6  -3 1073.22 89.8571   3
  -1   6  -3 1046.55 77.2757  10
  -1  -6  -3 968.531 66.4475   9
   1   6   3 1046.31 78.0132   8
  -1   6  -3 926.927 65.7773   5
   1  -6   3 1033.60 86.5880  11
   1  -6   3 890.448 71.9736   7
   1  -6   3 1030.85 56.0555   2
  -1  -6  -3 991.788 70.2595   7
  -1  -6  -3 1138.43 44.6423   5
   1   6   3 1013.59 68.8602   2
   1  -6   3 1031.25 39.7449   6
   1  -6   3 1057.77 95.0542   4
   1   6   4 1180.63 66.9831   3
  -1   6  -4 1282.36 97.1411   3
  -1  -6  -4 1339.28 53.2102   5
   1  -6   4 1317.75 87.1574   7
  -1  -6  -4 1307.55 81.6758   7
   1  -6   4 1371.89 67.4156   2
  -1   6  -4 1289.92 76.1490   5
  -1  -6  -4 1258.99 75.1967   9
   1  -6   4 1327.32 112.580   4
   1  -6   4 1108.83 98.3315   1
   1   6   4 1336.50 75.6958   2
   1   6   4 1227.72 85.7087   8
   1  -6   4 1330.77 52.5310   6
   1   6   5 1627.02 81.2434   3
   1  -6   5 1748.80 125.067   1
  -1  -6  -5 1892.68 100.752   7
  -1  -6  -5 1847.59 91.3516   9
   1   6   5 1924.73 84.6664   2
  -1  -6  -5 1855.60 68.5301   5
   1  -6   5 1722.21 99.1000   7
   1   6   5 1834.82 107.978   8
  -1   6  -5 1842.71 119.675   3
  -1   6  -5 1814.71 88.1800   5
   1  -6   5 1732.59 69.1918   6
  -1  -6  -6 257.205 33.6673   9
  -1  -6  -6 241.123 35.8771   7
  -1   6  -6 215.643 42.4477   3
  -1  -6  -6 246.262 25.2909   5
   1  -6   6 178.085 43.6035   1
  -1   6  -6 233.504 29.4765   5
   1   6   6 220.350 38.9234   8
   1  -6   6 198.234 34.3429   7
   1  -6   6 286.362 30.1621   6
   1   6   6 243.170 26.3762   2
   1   6   7 64.5585 23.1368   8
   1  -6   7 107.562 21.8923   6
  -1   6  -7 120.773 30.7600   3
   1   6   7 112.920 16.4155   2
   1  -6   7 92.7808 25.4726   7
  -1  -6  -7 116.111 19.4410   5
  -1   6  -7 114.794 20.5493   5
  -1  -6  -7 141.389 29.9078   7
  -1  -6  -7 77.0749 19.1558   9
   1  -6   7 102.156 34.7422   1
   1  -6   8 528.628 54.6241   7
  -1   6  -8 493.112 41.2469   5
  -1   6  -8 488.420 68.7611   3
   1  -6   8 441.595 73.7047   1
   1   6   8 450.592 56.6083   8
   1   6   8 525.696 30.8651   2
  -1  -6  -8 465.607 40.7246   5
  -1  -6  -8 520.965 46.2320   9
   1  -6   8 484.508 46.8247   6
   1   6   9 3935.01 160.579   6
   1   6   9 3620.58 171.353   8
  -1  -6  -9 3662.63 132.361   5
   1  -6   9 3817.46 147.843   6
  -1   6  -9 3703.56 121.774   5
   1   6   9 4165.54 100.973   2
  -1  -6  -9 3928.26 138.426   9
   1  -6   9 3850.24 156.889   7
  -1   6  -9 3894.83 196.503   3
   1   6  10 8052.57 249.493   6
   1  -6  10 7436.37 234.939   7
  -1  -6 -10 7626.41 219.423   5
   1   6  10 7690.72 266.354   8
  -1  -6 -10 7797.75 215.445   9
  -1   6 -10 7710.60 194.271   5
  -1   6 -10 7324.93 293.134   3
   1  -6  10 7453.29 237.302   6
   1   6  11 4315.41 176.869   6
   1   6  11 4055.67 185.908   8
  -1   6 -11 4119.83 130.334   5
  -1  -6 -11 3705.80 141.373   9
  -1  -6 -11 4153.04 156.457   5
   1  -6  11 4015.25 162.810   7
  -1   6 -11 4044.99 215.567   3
   1  -6  11 4141.08 174.507   6
  -1   6 -12 1744.37 81.8223   5
  -1  -6 -12 1828.85 106.044   5
   1   6  12 1810.10 119.654   8
   1  -6  12 1706.27 101.108   7
   1   6  12 1642.88 107.896   6
  -1   6 -12 1584.53 138.930   3
   1  -6  12 1703.53 113.710   6
  -1  -6 -13 2878.77 144.267   5
  -1   6 -13 2784.05 111.777   5
  -1   6 -13 2425.34 181.310   3
   1  -6  13 2741.98 133.746   7
   1  -6  13 2861.30 157.702   6
   1   6  13 2994.11 155.295   6
  -1  -6 -14 66.4756 22.6639   5
   1   6  14 27.1909 23.6647   6
   1  -6  14 24.2351 19.4369   6
  -1   6 -14 45.0900 18.6609   5
  -1   6 -14 18.3422 25.3454   3
   1  -6  15 43.7774 31.1853   6
  -1  -6 -15 22.1657 25.9613   5
   1   6  15 28.8803 20.1731   6
  -1   6 -15 33.9052 17.1203   5
  -1   6 -15 41.6402 34.6796   3
   1  -6  16 522.500 78.1843   6
  -1   6 -16 469.764 91.5196   3
  -1  -6 -16 561.325 71.4403   5
  -1   6 -16 505.635 53.5922   5
   1   6  16 572.558 76.1323   6
  -1   6 -17-51.6507 30.7178   5
  -1   6 -17 43.1164 46.4873   3
   1  -6  17-44.4509 28.8470   6
  -1  -6 -17-44.8101 30.9429   5
   1   6  17-5.70811 22.6660   6
  -1   6 -18 3424.36 169.784   5
  -1  -6 -18 2995.41 186.397   5
  -1   6 -18 2896.45 242.908   3
   1  -6  18 3083.41 214.130   6
   1   6  18 3531.71 209.865   6
   1  -6  19 364.394 76.5957   6
  -1   6 -19 326.510 86.0666   3
  -1   6 -19 358.217 55.9779   5
  -1  -6 -19 372.158 69.7713   5
   1   6  19 348.400 71.2303   6
  -1  -6 -20 144.970 47.7184   5
  -1   6 -20 60.1005 49.6309   3
   1   6  20 183.869 64.5747   6
   1  -6  20 135.671 51.9245   6
  -1   6 -21 1635.80 205.281   3
   1  -6  21 1563.27 172.371   6
   1   6  21 1869.95 177.769   6
  -1  -7  21 266.796 82.4185   6
  -1   7  21 347.894 88.5878   6
  -1   7  20 347.238 90.1865  10
  -1  -7  20 205.303 53.4634   6
  -1   7  20 423.896 94.6514   6
  -1  -7  19 289.527 82.9872   6
  -1   7  19 365.663 86.7499  10
  -1   7  19 296.845 72.3332   6
  -1   7  18 89.8482 48.3384   6
  -1  -7  18 138.640 64.6787   6
  -1   7  18 54.0989 50.9526  10
  -1  -7  18 34.6075 29.9961   7
  -1  -7  17 649.336 111.550   6
   1   7 -17 709.173 129.648   3
  -1  -7  17 764.170 101.381   7
  -1   7  17 665.849 105.676  10
  -1   7  17 748.167 105.813   6
  -1  -7  16 1121.34 145.959   6
  -1  -7  16 1198.14 124.167   7
  -1   7  16 957.582 119.176  10
  -1   7  16 1234.07 127.310   6
   1   7 -16 1164.70 158.291   3
  -1   7  15 1363.93 127.925   6
  -1  -7  15 1691.87 145.536   7
   1   7 -15 1571.09 176.208   3
  -1  -7  15 1502.18 162.541   6
  -1   7  15 1708.72 154.447  10
  -1  -7  14 56.3493 44.9092   6
  -1   7  14 69.3440 41.3816  10
   1   7 -14 71.8374 45.6469   3
  -1   7  14 32.9263 24.8771   6
  -1  -7  14 106.914 39.4530   7
  -1   7  13 13715.3 459.381  10
   1   7 -13 15437.5 544.207   3
  -1  -7  13 15048.4 463.452   7
  -1  -7  13 15089.1 519.105   6
  -1   7  13 13116.0 413.832   6
  -1   7  12 23620.3 639.024  10
  -1  -7  12 25189.6 699.901   6
  -1  -7  12 24584.5 635.813   7
  -1  -7  12 24793.9 553.892   9
   1   7 -12 25191.2 716.790   3
  -1   7  12 22841.1 582.484   6
  -1   7  11 7495.96 303.565  10
  -1  -7  11 7756.17 232.474  10
  -1  -7  11 8286.18 345.857   6
  -1  -7  11 7871.49 254.009   9
  -1  -7  11 7990.48 306.017   7
   1   7 -11 7995.44 349.837   3
  -1   7  11 7401.20 264.766   6
  -1  -7  10 2945.79 141.863   9
  -1   7  10 2777.85 169.082  10
  -1  -7  10 2769.50 118.352  10
  -1  -7  10 2915.19 216.931   1
  -1   7  10 2491.24 136.657   6
  -1  -7  10 2978.79 174.229   7
  -1  -7  10 3331.53 203.403   6
   1   7 -10 2697.76 185.916   3
  -1  -7   9 3060.58 111.567   4
  -1  -7   9 3095.85 146.206   9
  -1   7   9 2978.67 170.593  10
  -1  -7   9 3109.64 118.337  10
  -1  -7   9 3064.91 172.522   7
   1   7  -9 3413.34 200.289   3
  -1  -7   9 2976.68 190.148   6
  -1  -7   9 3025.31 211.691   1
  -1   7   9 2942.09 141.114   6
   1   7  -8 260.952 54.9013   3
  -1  -7   8 135.510 22.2458   4
  -1   7   8 165.257 33.8582   6
  -1   7   8 115.679 36.3704  10
  -1  -7   8 157.386 46.2981   1
  -1  -7   8 118.551 30.4978   9
  -1  -7   8 208.444 52.7865   6
  -1  -7   8 152.992 29.1697  10
  -1  -7   8 185.457 42.8063   7
  -1  -7   7 875.320 73.5081   9
  -1  -7   7 1099.55 55.1421  10
  -1  -7   7 849.892 105.445   1
   1  -7  -7 878.223 36.7051   2
  -1  -7   7 977.622 59.8202   4
  -1  -7   7 985.593 90.6247   7
  -1   7   7 1119.92 98.2934  10
   1   7  -7 1007.92 98.0065   3
  -1  -7   7 945.485 97.6176   6
  -1   7   7 895.440 67.6841   6
  -1   7   6 7674.23 273.389  10
   1   7  -6 7785.40 281.103   3
   1  -7  -6 7378.34 155.439   2
  -1  -7   6 7594.58 239.925   9
   1  -7  -6 8019.23 281.378   4
  -1  -7   6 7771.45 145.403   5
  -1  -7   6 7948.80 274.689   7
  -1  -7   6 6994.65 157.445  10
  -1  -7   6 7615.50 321.939   1
  -1  -7   6 7520.20 287.450   6
  -1   7   6 7057.16 209.706   6
  -1  -7   5 491.077 17.8836   5
   1   7  -5 583.854 68.6428   3
  -1  -7   5 580.907 67.2411   7
  -1   7   5 505.691 64.7262  10
  -1  -7   5 742.601 68.3233   9
   1  -7  -5 571.698 70.4143   4
  -1  -7   5 528.079 79.7751   1
  -1   7   5 458.475 42.3029   6
   1  -7  -5 580.983 30.3922   2
  -1  -7   4 6990.29 224.630   9
  -1  -7   4 6834.99 295.003   1
  -1  -7   4 6918.24 245.282   7
   1  -7  -4 7000.95 153.065   2
  -1   7   4 6733.42 250.450  10
  -1   7   4 6657.87 179.770   6
   1  -7  -4 6757.30 255.959   4
   1   7  -4 6878.82 241.876   3
  -1   7   3 3289.22 165.176  10
   1   7  -3 3594.96 158.978   3
   1  -7  -3 3720.04 98.4645   2
  -1  -7   3 3372.91 200.379   1
   1  -7  -3 3672.66 179.849   4
  -1  -7   3 3652.77 163.973   7
  -1  -7   3 3777.40 153.722   9
  -1   7   3 3365.14 104.861   6
   1  -7  -2 3712.12 103.973   2
  -1   7   2 4355.86 186.748  10
   1  -7  -2 3607.68 179.099   4
  -1  -7   2 3653.44 203.896   1
   1   7  -2 3697.72 98.5701  11
  -1  -7   2 3840.84 153.533   9
  -1  -7   2 3749.39 163.209   7
   1   7  -2 3434.21 150.054   3
   1   7  -1 2321.11 121.409   2
  -1  -7   1 2310.73 158.365   1
  -1  -7   1 2404.77 116.401   9
   1  -7  -1 2443.66 80.6893   2
  -1  -7   1 2275.35 50.2936   5
  -1   7   1 2221.73 127.679  10
  -1  -7   1 2327.27 122.726   7
   1  -7  -1 2131.29 134.829   7
   1  -7  -1 2256.82 141.674   4
   1   7  -1 2217.06 112.622   3
   1  -7   0 38720.9 862.240   1
   1  -7   0 39832.9 703.078   2
   1   7   0 37848.3 678.878  10
   1  -7   0 39640.8 852.791   4
   1   7   0 38424.7 763.355   3
  -1  -7   0 40335.1 660.182   5
  -1  -7   0 41051.8 795.511   7
   1  -7   0 38220.9 827.296   7
  -1  -7   0 39596.1 773.297   9
  -1   7   0 38389.6 809.087  10
  -1  -7   0 38495.8 889.628   1
  -1   7   0 39062.5 848.835   3
   1   7   0 39750.8 788.537   2
  -1  -7  -1 642.390 28.7364   5
  -1   7  -1 562.064 68.6123   3
  -1   7  -1 529.104 60.8236  10
  -1  -7  -1 566.269 55.5424   9
   1  -7   1 638.858 41.7282   2
  -1  -7  -1 700.294 63.2643   7
   1  -7   1 641.953 75.4467   4
   1  -7   1 642.434 79.9470   1
   1  -7   1 616.134 67.4475   7
  -1  -7  -1 614.806 79.7731   1
   1   7   1 555.174 56.9063   2
   1   7   1 554.256 50.6707   3
  -1   7  -2 1683.08 118.162   3
  -1  -7  -2 1773.07 96.4368   9
  -1  -7  -2 1678.72 99.3512   7
   1  -7   2 1641.12 109.628   7
  -1  -7  -2 1698.75 55.8766   5
  -1   7  -2 1594.70 99.8522  10
   1  -7   2 1457.41 119.152   1
   1  -7   2 1547.15 120.383   4
   1   7   2 1684.15 97.6349   2
   1  -7   2 1682.54 72.7130   2
   1   7   2 1652.31 88.0618   3
  -1   7  -3 186.131 29.6586   5
  -1  -7  -3 197.597 19.9489   5
  -1   7  -3 159.791 38.7359   3
  -1   7  -3 188.578 42.7536  10
  -1  -7  -3 254.733 37.3333   9
   1   7   3 167.560 27.2125   3
   1  -7   3 166.429 39.7976   4
   1  -7   3 205.017 47.8283   1
  -1  -7  -3 231.764 38.7669   7
   1  -7   3 294.439 44.8866   7
   1   7   3 217.925 33.3450   2
   1  -7   3 213.921 17.4817   6
   1   7   4 3868.34 142.222   3
   1  -7   4 3849.63 181.145  11
  -1  -7  -4 3974.03 110.565   5
  -1   7  -4 3816.63 139.805   5
   1   7   4 3846.44 167.888   8
  -1  -7  -4 3907.56 144.840   9
   1  -7   4 3979.94 204.634   1
   1  -7   4 3921.52 201.741   4
   1  -7   4 3864.94 167.807   7
  -1  -7  -4 4013.72 164.154   7
   1   7   4 4377.92 148.658   2
   1  -7   4 3974.55 110.215   6
  -1   7  -4 3880.38 188.547   3
  -1  -7  -5 9683.95 219.331   5
  -1   7  -5 9682.66 322.066   3
  -1   7  -5 9545.67 246.394   5
   1  -7   5 9744.14 348.250   1
   1   7   5 9346.98 257.623   3
   1   7   5 9584.02 293.789   8
  -1  -7  -5 9803.36 256.864   9
   1  -7   5 9269.11 288.191   7
   1  -7   5 8869.02 332.719   4
   1   7   5 10523.7 245.109   2
  -1  -7  -5 10039.2 288.478   7
   1  -7   5 9940.23 225.532   6
   1  -7   5 9648.42 313.986  11
  -1  -7  -6 261.365 41.6336   7
   1  -7   6 307.641 33.2848   6
   1   7   6 307.605 28.5544   2
  -1   7  -6 259.682 29.2034   5
  -1   7  -6 318.378 52.1169   3
   1  -7   6 228.854 40.9588   7
  -1  -7  -6 246.680 33.9425   9
   1   7   6 317.113 46.7390   8
   1  -7   6 340.830 63.5449   4
  -1  -7  -6 255.011 28.5721   5
   1  -7   6 254.011 55.4577   1
  -1  -7  -7 25298.9 519.780   9
   1  -7   7 23486.6 651.302   1
  -1   7  -7 24554.4 492.339   5
   1   7   7 24481.4 583.004   8
   1   7   7 26345.3 459.266   2
  -1  -7  -7 25109.1 498.586   5
   1  -7   7 24020.2 560.096   7
  -1  -7  -7 24719.0 568.842   7
  -1   7  -7 25609.2 623.107   3
   1  -7   7 25569.2 513.105   6
   1  -7   8 31544.5 807.302   1
   1   7   8 32330.2 721.933   8
  -1   7  -8 33387.3 771.003   3
  -1  -7  -8 34429.7 641.617   5
  -1  -7  -8 33063.8 651.747   9
   1  -7   8 32510.1 695.473   7
  -1  -7  -8 32674.0 707.560   7
  -1   7  -8 33205.0 616.393   5
   1  -7   8 32706.8 659.681   6
  -1  -7  -9 25004.8 513.800   5
  -1  -7  -9 24917.6 513.827   9
  -1   7  -9 24607.8 474.879   5
   1   7   9 23853.5 582.569   8
   1  -7   9 23831.7 554.298   7
   1   7   9 25653.0 553.471   6
  -1   7  -9 25104.6 635.660   3
   1  -7   9 23054.4 668.820   1
   1  -7   9 24159.3 533.887   6
   1  -7  10 54.5290 38.3625   1
  -1   7 -10 48.8532 35.1780   3
   1  -7  10 39.7381 19.7079   6
  -1  -7 -10 12.8375 13.6767   9
  -1  -7 -10 19.5066 17.7375   5
   1   7  10 46.6028 21.1407   6
   1   7  10 20.3020 19.3153   8
  -1   7 -10 45.7134 16.8765   5
   1  -7  10 36.3094 23.2380   7
   1   7  11 5000.27 195.648   6
   1   7  11 4939.35 214.733   8
  -1  -7 -11 4905.25 184.146   5
  -1  -7 -11 4655.94 167.064   9
   1  -7  11 4518.11 192.369   6
  -1   7 -11 4685.69 141.635   5
   1  -7  11 4537.11 188.288   7
  -1   7 -11 4828.26 245.929   3
  -1  -7 -12 2971.57 144.017   5
  -1   7 -12 2937.51 109.652   5
   1   7  12 3189.61 168.743   8
   1  -7  12 2892.06 146.982   7
  -1   7 -12 3048.95 200.794   3
   1  -7  12 2778.31 154.530   6
   1   7  12 3122.95 154.735   6
  -1   7 -13 951.293 62.2965   5
   1  -7  13 876.304 79.9077   7
  -1  -7 -13 1061.09 86.9511   5
  -1   7 -13 985.302 117.388   3
   1  -7  13 978.441 94.5867   6
   1   7  13 998.313 89.1069   6
   1  -7  14 1336.11 117.062   6
  -1  -7 -14 1422.23 106.793   5
  -1   7 -14 1321.56 79.3564   5
  -1   7 -14 1652.45 160.080   3
   1   7  14 1501.50 113.146   6
   1   7  15 1922.67 133.556   6
  -1   7 -15 1838.23 99.8893   5
  -1  -7 -15 1739.19 124.911   5
  -1   7 -15 1646.02 165.484   3
   1  -7  15 1911.12 148.640   6
  -1   7 -16 0.23521 13.6860   5
  -1   7 -16 8.44545 37.8019   3
   1   7  16 5.11553 21.0472   6
  -1  -7 -16-1.30648 25.3159   5
   1  -7  16-37.0262 34.5483   6
  -1  -7 -17 2661.14 170.972   5
  -1   7 -17 2468.24 219.738   3
   1  -7  17 2714.21 195.264   6
   1   7  17 2781.00 178.293   6
  -1   7 -18 263.234 84.7398   3
  -1  -7 -18 157.982 46.0828   5
   1  -7  18 150.716 49.6356   6
   1   7  18 358.246 70.0545   6
  -1   7 -19 267.894 84.0206   3
   1   7  19 559.961 92.4561   6
  -1  -7 -19 328.408 67.2515   5
   1  -7  19 346.498 80.3144   6
   1   7  20 112.198 49.1986   6
  -1   7 -20 159.660 75.6793   3
   1  -7  20 160.338 53.4849   6
  -1  -7 -20 35.6929 33.7139   5
  -1   7 -21 46.1378 56.7176   3
   1  -7  21 12.4932 38.6235   6
  -1   8  21 2505.48 227.090   6
  -1   8  20 484.357 101.470   6
  -1  -8  20 398.916 100.483   6
  -1  -8  19 639.391 125.914   6
  -1   8  19 720.565 120.320  10
  -1   8  19 779.987 118.968   6
   1   8 -18 60.0001 37.8219   3
  -1  -8  18 44.7709 36.0047   6
  -1   8  18 6.60765 30.8329   6
  -1   8  18 143.823 60.1317  10
  -1  -8  18 142.054 47.6598   7
  -1   8  17 3414.66 248.378  10
  -1  -8  17 3952.07 237.213   7
   1   8 -17 3997.36 310.603   3
  -1  -8  17 3986.52 288.643   6
  -1   8  17 3753.11 234.019   6
  -1  -8  16 124.999 45.3465   7
  -1   8  16 199.539 67.3416  10
  -1  -8  16 110.475 42.3995   6
  -1   8  16 135.919 50.6371   6
   1   8 -16 197.584 69.6219   3
  -1   8  15 4901.67 278.100  10
  -1  -8  15 5452.67 270.879   7
   1   8 -15 4834.94 319.171   3
  -1  -8  15 5119.72 309.805   6
  -1   8  15 5104.38 252.622   6
  -1  -8  14 771.831 98.3248   7
   1   8 -14 811.211 122.814   3
  -1   8  14 679.188 99.1973  10
  -1   8  14 594.986 80.6712   6
  -1  -8  14 858.551 124.540   6
  -1   8  13 87.7568 34.9289   6
   1   8 -13 163.838 61.3662   3
  -1   8  13 36.7288 28.4042  10
  -1  -8  13 81.5297 38.9274   6
  -1  -8  13 127.950 61.5379   1
  -1  -8  13 145.774 47.8700   7
  -1   8  12 742.863 81.4093   6
  -1  -8  12 883.382 101.532   7
  -1   8  12 845.297 103.145  10
   1   8 -12 644.070 103.523   3
  -1  -8  12 1073.72 125.730   6
  -1  -8  12 1098.61 149.558   1
  -1   8  11 1423.98 129.553  10
   1   8 -11 1791.28 161.344   3
  -1  -8  11 1549.28 100.121   9
  -1   8  11 1329.45 103.844   6
  -1  -8  11 1757.34 137.707   7
  -1  -8  11 1498.20 144.114   6
  -1  -8  11 1455.92 159.607   1
  -1   8  10 4.06132 27.0366  10
  -1  -8  10 62.1761 39.4684   6
  -1  -8  10 105.602 46.5418   1
  -1   8  10 47.6197 25.1044   6
  -1  -8  10 64.0965 26.8725   9
  -1  -8  10 73.3771 32.3883   7
   1   8 -10 6.39710 23.7074   3
  -1  -8   9 4260.51 266.272   1
  -1  -8   9 4077.98 168.469   9
  -1   8   9 4028.61 213.431  10
  -1  -8   9 4112.46 207.171   7
   1   8  -9 4284.60 234.340   3
  -1  -8   9 4146.87 229.771   6
  -1   8   9 3813.65 165.259   6
   1   8  -8 2131.71 155.112   3
  -1  -8   8 2165.65 100.671   4
  -1  -8   8 2202.43 159.756   6
  -1  -8   8 2041.79 175.473   1
  -1  -8   8 2099.39 116.290   9
  -1  -8   8 2174.61 144.586   7
  -1   8   8 2119.29 111.786   6
  -1   8   8 2214.14 150.716  10
  -1   8   7 3336.74 184.208  10
  -1  -8   7 3627.23 183.713   7
  -1  -8   7 3437.21 132.571   4
   1   8  -7 3729.16 198.318   3
  -1  -8   7 3467.35 224.058   1
  -1  -8   7 3254.72 148.570   9
  -1   8   7 3188.90 134.368   6
  -1  -8   6 1852.24 107.401   9
   1   8  -6 1957.35 135.288   3
  -1   8   6 1925.07 134.606  10
  -1  -8   6 1976.66 131.250   7
  -1  -8   6 1938.80 163.644   1
  -1   8   6 1876.85 94.1763   6
  -1   8   5 410.398 59.6892  10
  -1  -8   5 399.956 73.7293   1
  -1   8   5 360.702 36.3905   6
  -1  -8   5 341.511 46.0754   9
   1   8  -5 377.815 57.4663   3
   1  -8  -5 462.369 67.2550   4
  -1  -8   5 410.516 59.2746   7
  -1   8   4 176.726 23.0469   6
  -1   8   4 208.206 44.9749  10
   1  -8  -4 132.759 40.6168   4
   1  -8  -4 194.568 17.1286   2
  -1  -8   4 153.966 50.3929   1
  -1  -8   4 207.460 38.1576   9
   1   8  -4 173.664 39.5762   3
  -1  -8   4 201.322 41.6184   7
  -1  -8   3 117.320 41.9336   1
   1  -8  -3 169.014 17.2066   2
  -1  -8   3 147.887 32.5615   9
   1   8  -3 120.227 32.1661   3
  -1   8   3 236.899 49.5413  10
  -1  -8   3 162.351 36.1715   7
   1  -8  -3 222.991 47.3451   4
  -1   8   2 44.3730 24.6902  10
  -1  -8   2 77.2495 29.5049   9
  -1  -8   2 49.7943 21.6902   7
  -1  -8   2 50.3361 29.5596   1
   1  -8  -2 41.3784 27.5011   4
   1   8  -2 85.1250 26.8336   3
   1   8  -1 10824.3 315.172   2
  -1   8   1 11041.0 332.968  10
   1  -8  -1 10594.6 356.692   4
  -1   8   1 10768.6 363.449   3
  -1  -8   1 11091.3 401.609   1
  -1  -8   1 11227.6 300.816   9
  -1  -8   1 11345.0 325.753   7
   1  -8  -1 10603.7 350.493   7
   1   8  -1 11126.5 310.225   3
   1  -8   0-8.72982 21.8008   1
  -1  -8   0 4.60568 3.91719   5
  -1   8   0 20.8109 20.8381   3
  -1  -8   0 54.7534 24.2332   9
  -1  -8   0 56.2339 24.3507   7
   1   8   0-1.06935 11.9206   3
  -1   8   0 59.1221 21.6087  10
  -1  -8   0 22.5048 22.0835   1
   1  -8   0 34.4377 24.0365   4
   1   8   0 14.5597 16.4923   2
   1  -8   0 21.8001 23.2116   7
  -1   8  -1 16368.2 466.737   3
   1  -8   1 16223.7 444.799   7
   1   8   1 17210.8 319.497  10
  -1  -8  -1 16649.3 307.070   5
   1  -8   1 15685.7 483.353   1
  -1  -8  -1 16223.1 390.191   9
  -1  -8  -1 15554.4 495.696   1
  -1  -8  -1 16745.0 420.900   7
  -1   8  -1 15421.1 415.053  10
   1   8   1 16188.5 407.856   2
   1  -8   1 16501.2 472.492   4
   1   8   1 15870.5 391.493   3
  -1   8  -2 9088.95 321.909   3
  -1  -8  -2 9066.43 281.527   7
   1  -8   2 9051.89 344.474   1
   1   8   2 9420.60 271.376   2
  -1   8  -2 9173.09 278.764  10
  -1  -8  -2 9280.39 196.180   5
  -1  -8  -2 8896.36 255.702   9
   1  -8   2 9396.87 334.707   4
   1  -8   2 8641.36 298.316   7
   1   8   2 8763.77 257.200   3
  -1   8  -3 11818.8 378.505   3
  -1  -8  -3 12092.8 340.438   7
  -1   8  -3 11796.5 298.567   5
   1  -8   3 11481.2 402.436   1
   1  -8   3 11739.2 391.941   4
  -1   8  -3 11134.7 323.006  10
   1  -8   3 10886.4 344.037   7
  -1  -8  -3 11557.8 304.048   9
   1   8   3 12709.3 318.700   2
  -1  -8  -3 13035.7 258.182   5
   1   8   3 11448.9 308.366   3
   1   8   4 170.973 31.6090   3
   1  -8   4 132.971 35.1050   7
  -1  -8  -4 240.724 26.0139   5
  -1  -8  -4 161.054 30.8703   9
   1  -8   4 206.296 20.9659   6
  -1   8  -4 197.522 46.8883   3
  -1   8  -4 227.334 32.2663   5
   1   8   4 219.459 31.9040   2
   1  -8   4 231.690 56.6786   4
   1  -8   4 144.830 42.1575   1
  -1  -8  -4 201.400 39.5301   7
   1   8   5 6364.28 213.801   3
  -1  -8  -5 6703.72 209.121   9
  -1  -8  -5 7273.49 186.583   5
   1   8   5 7374.32 195.017   2
   1  -8   5 6736.26 301.318   1
   1  -8   5 6666.75 289.288   4
   1   8   5 6667.44 246.456   8
   1  -8   5 7033.89 180.673   6
  -1  -8  -5 7120.16 247.649   7
   1  -8   5 6943.97 251.517   7
  -1   8  -5 6748.87 191.482   5
   1  -8   5 6719.23 259.549  11
  -1   8  -5 6649.21 271.514   3
  -1  -8  -6 304.179 46.6105   7
   1  -8   6 276.478 33.4601   6
  -1  -8  -6 325.105 34.5935   5
   1  -8   6 372.055 62.6167  11
   1   8   6 322.941 50.2231   8
  -1   8  -6 262.108 30.3728   5
   1  -8   6 348.216 69.1403   1
  -1  -8  -6 307.367 41.0483   9
  -1   8  -6 202.284 46.3543   3
   1   8   6 267.915 41.4563   3
   1  -8   6 231.293 55.5170   4
   1  -8   6 241.688 45.8750   7
  -1  -8  -7 397.902 46.9576   9
   1  -8   7 386.968 53.0430   7
  -1   8  -7 435.195 68.2844   3
  -1   8  -7 383.007 34.9555   5
  -1  -8  -7 487.204 45.3318   5
   1   8   7 397.547 58.3156   8
   1  -8   7 417.452 76.1873   1
   1  -8   7 314.371 61.0537   4
  -1  -8  -7 359.638 53.4189   7
   1  -8   7 400.229 43.8655   6
   1   8   8 503.891 65.1935   8
  -1  -8  -8 512.414 64.1492   7
  -1  -8  -8 588.675 55.4626   9
   1  -8   8 463.995 75.8291   4
  -1   8  -8 643.842 43.8238   5
  -1   8  -8 544.544 77.6248   3
   1  -8   8 547.855 66.3244   7
  -1  -8  -8 625.584 53.8131   5
   1  -8   8 562.007 88.8687   1
   1  -8   8 533.670 53.0066   6
   1   8   9 7116.31 234.116   6
  -1   8  -9 7005.66 174.040   5
  -1  -8  -9 6907.95 214.205   5
   1   8   9 6568.92 259.092   8
  -1  -8  -9 6755.75 211.650   9
   1  -8   9 6530.06 243.280   7
   1  -8   9 6381.96 304.418   4
   1  -8   9 6403.94 313.973   1
  -1   8  -9 6818.20 293.306   3
   1  -8   9 6481.44 222.140   6
   1   8  10 2735.50 137.487   6
   1  -8  10 2677.92 205.490   1
   1   8  10 2572.89 155.470   8
  -1   8 -10 2486.53 92.8754   5
   1  -8  10 2367.04 138.650   7
  -1  -8 -10 2424.71 122.048   5
  -1  -8 -10 2713.29 124.488   9
  -1   8 -10 2486.46 174.090   3
   1  -8  10 2608.64 138.404   6
   1   8  11 8649.37 273.041   6
  -1  -8 -11 8155.16 255.455   5
  -1  -8 -11 7851.47 240.735   9
  -1   8 -11 7984.19 338.745   3
  -1   8 -11 8063.14 201.438   5
   1   8  11 7779.36 294.197   8
   1  -8  11 7573.65 271.739   7
   1  -8  11 7431.35 363.594   1
   1  -8  11 7888.49 275.310   6
  -1   8 -12 1739.08 80.4731   5
   1  -8  12 1696.21 117.296   7
  -1  -8 -12 1589.40 106.583   5
  -1   8 -12 1721.71 155.098   3
   1  -8  12 1510.66 160.750   1
   1  -8  12 1826.06 126.553   6
   1   8  12 1871.50 119.141   6
   1  -8  13 1848.29 125.316   7
  -1   8 -13 1906.57 169.664   3
   1  -8  13 1815.61 134.669   6
   1  -8  13 2065.46 199.397   1
  -1  -8 -13 2051.77 127.600   5
   1   8  13 2130.57 133.261   6
  -1   8 -14 145.227 59.8480   3
   1  -8  14 8.30872 31.1138   6
  -1  -8 -14 38.1307 25.5615   5
   1  -8  14 27.5420 40.8125   1
   1   8  14 99.2799 32.9366   6
  -1   8 -15 2191.87 195.830   3
  -1  -8 -15 1780.31 132.473   5
   1  -8  15 1946.12 154.209   6
   1   8  15 2273.61 149.403   6
   1  -8  16 793.437 104.014   6
  -1  -8 -16 891.772 95.3412   5
  -1   8 -16 853.739 129.305   3
   1   8  16 966.650 100.440   6
  -1  -8 -17 4542.54 236.396   5
   1  -8  17 5027.10 276.813   6
   1   8  17 5100.01 250.080   6
  -1   8 -17 4501.05 311.269   3
  -1  -8 -18 4836.06 253.712   5
  -1   8 -18 5370.82 349.015   3
   1  -8  18 5270.21 297.920   6
   1   8  18 5578.95 275.556   6
  -1   8 -19 3350.01 283.591   3
  -1  -8 -19 2558.96 189.069   5
   1   8  19 3334.97 220.024   6
   1   8  20 493.763 90.8776   6
  -1   8 -20 431.028 109.869   3
  -1  -9  20 1201.98 175.923   6
  -1   9  19 88.5413 48.5192  10
  -1  -9  19 205.617 76.7993   6
  -1  -9  18-138.170 64.6039   6
   1   9 -18-55.1780 57.0857   3
  -1  -9  18-0.80195 55.7551   1
  -1   9  18 108.428 60.5028  10
  -1  -9  18 35.3285 38.2712   7
  -1   9  17 395.870 92.8919  10
  -1  -9  17 180.643 72.2011   6
   1   9 -17 493.983 110.887   3
  -1  -9  17 280.312 90.1053   1
  -1  -9  17 292.604 70.2596   7
  -1  -9  16 2073.90 204.506   6
  -1   9  16 1876.68 181.193  10
  -1  -9  16 2011.92 167.479   7
   1   9 -16 2068.67 216.084   3
  -1  -9  16 2026.40 232.329   1
  -1  -9  15 601.840 107.249   6
  -1  -9  15 724.125 132.540   1
  -1   9  15 713.145 107.443  10
   1   9 -15 614.672 116.669   3
  -1  -9  15 687.800 96.5045   7
  -1   9  14 495.052 73.9256   6
   1   9 -14 373.887 91.3413   3
  -1   9  14 602.632 98.5819  10
  -1  -9  14 447.510 112.155   1
  -1  -9  14 320.887 81.4675   6
  -1  -9  14 528.070 85.3844   7
  -1   9  13 1460.12 144.311  10
  -1  -9  13 1609.20 186.120   1
  -1  -9  13 1839.99 151.092   7
   1   9 -13 1796.76 178.917   3
  -1  -9  13 1549.99 160.466   6
  -1   9  13 1613.64 126.402   6
  -1  -9  12 106.591 49.4798   6
  -1   9  12 106.421 32.8355   6
  -1  -9  12 84.7485 55.4891   1
   1   9 -12 92.4949 44.1513   3
  -1   9  12 164.326 49.4629  10
  -1  -9  12 69.5077 40.8277   7
  -1  -9  11 4686.08 183.359   9
  -1   9  11 4503.31 245.040  10
   1   9 -11 4810.98 279.241   3
  -1  -9  11 4927.33 241.931   7
  -1  -9  11 4914.10 313.763   1
  -1  -9  11 4724.74 267.677   6
  -1   9  11 4287.99 195.087   6
  -1   9  10 1441.04 132.793  10
  -1  -9  10 1355.69 122.328   7
   1   9 -10 1616.32 150.991   3
  -1  -9  10 1322.20 157.296   1
  -1  -9  10 1306.03 133.692   6
  -1  -9  10 1274.42 91.0090   9
  -1   9  10 983.399 84.3685   6
  -1  -9   9 350.369 75.1153   6
   1   9  -9 332.707 68.7189   3
  -1   9   9 249.202 56.7820  10
  -1  -9   9 381.928 84.4787   1
  -1   9   9 237.961 41.9086   6
  -1  -9   9 314.033 59.0763   7
  -1  -9   9 315.596 45.7297   9
  -1  -9   8 505.192 57.4281   9
  -1   9   8 646.455 87.0960  10
   1   9  -8 613.879 85.0970   3
  -1  -9   8 693.718 83.6725   7
  -1   9   8 491.002 53.9372   6
  -1  -9   8 581.622 99.3912   1
  -1   9   7 5881.88 262.917  10
  -1  -9   7 6146.65 214.694   9
  -1  -9   7 6106.05 321.441   1
  -1  -9   7 6233.94 256.383   7
   1   9  -7 5966.13 271.433   3
  -1  -9   6 11351.6 450.194   1
  -1  -9   6 11305.5 363.785   7
  -1  -9   6 11374.6 315.770   9
   1   9  -6 11075.7 373.333   3
  -1   9   6 10844.1 370.722  10
   1  -9  -5 15670.5 467.515   4
  -1   9   5 14951.4 447.268  10
  -1  -9   5 15116.4 387.936   9
  -1  -9   5 15543.6 536.950   1
  -1  -9   5 15855.3 441.027   7
   1   9  -5 15412.2 444.754   3
  -1  -9   4 34.2638 26.7741   9
   1   9  -4 13.1763 20.3291   3
  -1   9   4 0.87764 27.3870  10
   1  -9  -4 35.0077 25.0050   4
  -1  -9   4 47.5937 24.4601   7
  -1  -9   4 58.2504 37.4394   1
   1   9  -3 182.515 38.7277   3
  -1   9   3 206.203 45.9667  10
  -1  -9   3 172.142 55.6005   1
   1  -9  -3 200.033 49.1843   4
  -1  -9   3 205.722 40.9276   9
  -1  -9   3 265.406 46.8379   7
  -1  -9   2 4692.84 177.924   9
  -1  -9   2 4392.35 255.565   1
  -1   9   2 4327.45 229.876   3
   1  -9  -2 4246.48 216.361   4
  -1  -9   2 4287.78 195.485   7
  -1   9   2 4512.24 205.390  10
   1  -9  -2 4470.32 222.687   7
   1   9  -2 4306.84 188.607   3
   1   9  -1 100.509 27.3440   2
  -1  -9   1 218.788 47.7562   7
   1  -9  -1 152.763 45.1127   7
  -1  -9   1 109.294 45.1628   1
  -1  -9   1 173.153 35.5217   9
  -1   9   1 100.192 32.2231  10
   1  -9  -1 115.693 37.4766   4
   1   9  -1 91.5514 28.2374   3
  -1   9   1 163.247 42.9038   3
   1   9   0 24.2737 16.7214   2
  -1  -9   0 19.3241 24.5416   1
   1   9   0 12.9425 18.9032   3
  -1  -9   0 13.4937 17.6557   9
  -1   9   0 5.56651 31.9713   3
  -1   9   0-16.8439 20.8911  10
  -1  -9   0-16.4246 18.0575   7
   1  -9   0-16.6721 27.4492   7
   1  -9   0 28.6999 29.6116   4
  -1   9  -1 11565.6 391.615   3
  -1  -9  -1 12028.2 349.064   7
   1  -9   1 11211.8 386.154   4
   1  -9   1 11564.8 415.351   1
  -1  -9  -1 11319.1 425.939   1
  -1  -9  -1 11462.3 309.878   9
  -1   9  -1 11409.0 339.186  10
   1  -9   1 11368.8 370.108   7
   1   9   1 11996.5 334.252   2
   1   9   1 11469.9 325.232   3
  -1  -9  -2 513.984 54.1935   9
   1   9   2 606.617 42.9763  10
  -1   9  -2 467.443 57.3946  10
   1  -9   2 450.051 77.5532   1
   1   9   2 535.903 59.6576   2
   1  -9   2 437.338 65.5793   7
  -1   9  -2 484.966 72.8550   3
   1  -9   2 436.992 70.4912   4
  -1  -9  -2 433.003 58.7953   7
  -1  -9  -2 469.230 33.1197   5
   1   9   2 543.262 58.7044   3
  -1  -9  -3 3437.79 110.235   5
   1   9   3 3825.15 128.488  10
   1  -9   3 3399.23 214.580   1
  -1  -9  -3 3420.99 144.775   9
  -1   9  -3 3497.41 136.143   5
   1  -9   3 3247.47 176.265   7
   1  -9   3 3362.55 197.719   4
  -1  -9  -3 3733.01 179.240   7
   1   9   3 3704.52 153.540   2
   1   9   3 3221.22 149.752   3
  -1   9  -3 3437.09 195.737   3
   1   9   4 658.891 65.5715   3
  -1   9  -4 695.748 54.6976   5
   1   9   4 740.396 61.2347   2
   1  -9   4 535.670 79.8114   4
  -1  -9  -4 703.043 76.7137   7
   1  -9   4 598.897 94.9898   1
  -1  -9  -4 813.627 68.9301   9
  -1  -9  -4 629.420 46.1137   5
   1  -9   4 729.975 81.8136   7
  -1   9  -4 842.388 95.2664   3
   1   9   5 2145.47 119.696   3
   1  -9   5 1973.82 166.196   1
  -1  -9  -5 2058.27 107.519   9
  -1  -9  -5 2017.15 90.1426   5
   1  -9   5 1841.16 148.597   4
  -1  -9  -5 1962.65 130.363   7
   1  -9   5 1922.77 131.844   7
  -1   9  -5 2175.09 153.311   3
  -1   9  -5 2024.21 88.9008   5
   1   9   6 10039.4 296.106   3
  -1   9  -6 9502.60 229.104   5
  -1  -9  -6 10200.8 275.966   9
   1  -9   6 9511.67 392.544   1
  -1  -9  -6 9644.19 322.101   7
  -1  -9  -6 9780.57 249.501   5
   1  -9   6 9388.73 366.993   4
   1  -9   6 9572.35 323.190   7
   1   9   6 9503.84 319.467   8
  -1   9  -6 9829.06 357.950   3
   1  -9   7 13268.1 414.357  11
  -1  -9  -7 14443.4 354.486   9
   1  -9   7 13952.3 409.482   7
  -1  -9  -7 13973.6 333.555   5
   1   9   7 13668.7 410.332   8
   1  -9   7 14157.0 499.491   1
   1  -9   7 13409.9 463.319   4
  -1   9  -7 14226.4 299.385   5
  -1  -9  -7 14285.2 415.306   7
   1   9   7 13647.6 376.746   3
  -1   9  -7 14149.0 452.710   3
  -1  -9  -8 729.959 65.3817   9
   1   9   8 691.944 71.6028   3
  -1  -9  -8 836.574 66.3982   5
   1   9   8 813.666 87.2095   8
   1  -9   8 835.687 93.9060  11
   1  -9   8 817.562 111.873   1
   1   9   8 830.445 71.1660   6
  -1  -9  -8 852.956 89.3534   7
   1  -9   8 730.876 100.317   4
   1  -9   8 993.511 93.1475   7
  -1   9  -8 936.945 106.888   3
   1   9   9 18784.0 439.819   6
   1   9   9 17283.5 487.424   8
   1  -9   9 16334.2 537.328   4
   1  -9   9 16806.7 466.041   7
   1  -9   9 16541.1 572.533   1
  -1  -9  -9 17179.6 410.633   9
  -1  -9  -9 16338.2 405.713   5
  -1   9  -9 17878.6 538.329   3
   1   9  10 924.102 78.8668   6
  -1  -9 -10 717.890 68.5828   5
   1  -9  10 933.597 121.817   1
  -1   9 -10 713.602 98.0712   3
  -1  -9 -10 751.066 68.3904   9
   1   9  10 822.846 91.4915   8
   1  -9  10 600.343 75.4381   7
   1  -9  10 829.222 110.994   4
   1   9  11 1441.80 102.932   6
   1  -9  11 1249.16 108.462   7
  -1  -9 -11 1437.74 100.900   5
   1   9  11 1498.02 124.209   8
   1  -9  11 1353.39 140.274   4
   1  -9  11 1476.01 159.229   1
  -1  -9 -11 1538.34 98.7234   9
  -1   9 -11 1471.69 143.489   3
  -1   9 -12 1646.74 157.420   3
  -1  -9 -12 1400.36 105.412   5
   1  -9  12 1261.31 140.150   4
   1  -9  12 1287.15 109.905   7
   1  -9  12 1318.73 156.710   1
   1   9  12 1638.86 113.872   6
  -1  -9 -13 3057.98 165.587   5
   1  -9  13 2458.97 204.035   4
   1  -9  13 3079.17 175.674   7
   1  -9  13 2969.27 243.945   1
  -1   9 -13 3292.60 232.100   3
   1   9  13 3609.57 177.968   6
  -1   9 -14 715.827 114.737   3
   1   9  14 612.507 75.7319   6
   1  -9  14 364.622 78.5470   4
  -1  -9 -14 503.299 68.7468   5
   1  -9  14 537.051 108.918   1
   1   9  15 131.406 38.6010   6
  -1  -9 -15 52.8179 21.3484   5
  -1   9 -15 110.831 60.0361   3
   1  -9  15 161.866 78.7673   1
   1  -9  15 100.537 50.4044   4
   1   9  16-13.3993 23.5494   6
  -1  -9 -16-64.2708 37.9442   5
  -1   9 -16-15.3726 46.1065   3
   1  -9  16 30.7401 50.9382   1
   1   9  17 377.648 69.5912   6
  -1   9 -17 284.178 86.0453   3
  -1  -9 -17 201.196 51.2524   5
   1  -9  17 252.790 80.7759   1
  -1   9 -18 116.095 59.5605   3
   1   9  18 83.5785 40.1020   6
   1  -9  18 51.9202 41.6303   1
  -1   9 -19 335.935 95.9193   3
   1   9  19 215.537 60.5501   6
   1  10 -18 37.1295 39.2852   3
  -1 -10  18-28.4050 49.3141   6
  -1 -10  18-30.6001 67.0448   1
  -1  10  18 92.9729 57.2354  10
  -1 -10  18 48.6628 29.3179   7
  -1 -10  17-12.4604 37.4764   6
  -1 -10  17 57.8252 37.4571   7
   1  10 -17 123.943 59.9654   3
  -1 -10  17 164.335 79.6411   1
  -1  10  17 25.6119 46.2252  10
  -1 -10  16 312.664 84.6133   6
   1  10 -16 598.693 118.069   3
  -1  10  16 570.444 106.908  10
  -1 -10  16 346.503 97.3146   1
  -1 -10  16 597.952 91.9941   7
   1  10 -15 1074.61 156.957   3
  -1  10  15 833.254 124.635  10
  -1 -10  15 1022.35 122.467   7
  -1 -10  15 929.439 136.695   6
  -1 -10  15 984.985 163.561   1
  -1  10  14 509.894 95.2236  10
  -1 -10  14 586.303 110.707   6
   1  10 -14 681.446 120.605   3
  -1 -10  14 803.692 105.221   7
  -1 -10  14 705.536 134.623   1
  -1  10  13 1531.67 155.884  10
  -1 -10  13 1303.19 173.679   1
  -1 -10  13 1699.56 148.968   7
   1  10 -13 1911.11 191.611   3
  -1 -10  13 1375.28 153.029   6
   1  10 -12 1149.92 146.290   3
  -1 -10  12 1221.35 124.185   7
  -1  10  12 1054.53 123.239  10
  -1 -10  12 1196.96 162.656   1
  -1 -10  12 1199.41 136.070   6
  -1 -10  11 18.9084 38.5365   6
  -1  10  11-29.3189 46.0432  10
  -1 -10  11-29.2293 35.1984   1
   1  10 -11-12.8889 30.3361   3
  -1 -10  11 2.81205 29.6070   7
  -1  10  10 4460.71 249.127  10
  -1 -10  10 4708.50 183.403   9
  -1 -10  10 4499.87 234.803   7
  -1 -10  10 4386.30 297.913   1
   1  10 -10 4176.12 257.838   3
  -1 -10   9 2237.44 159.057   7
  -1  10   9 1677.90 148.551  10
  -1 -10   9 2177.02 120.735   9
  -1 -10   9 1999.70 192.436   1
   1  10  -9 2167.61 176.749   3
  -1 -10   8 8790.61 329.262   7
  -1  10   8 8264.06 337.928  10
  -1 -10   8 8483.69 263.264   9
  -1 -10   8 7775.80 395.907   1
   1  10  -8 8370.03 347.840   3
  -1  10   7 4720.18 241.735  10
  -1 -10   7 4647.61 183.576   9
  -1 -10   7 4642.48 292.489   1
  -1 -10   7 4844.35 231.233   7
   1  10  -7 4565.44 240.341   3
  -1  10   6 11019.2 388.232  10
  -1 -10   6 11320.8 317.564   9
  -1 -10   6 10883.7 462.800   1
  -1 -10   6 11437.1 378.338   7
   1  10  -6 11145.0 388.745   3
  -1 -10   5 10668.7 455.435   1
  -1 -10   5 11478.6 319.816   9
  -1 -10   5 12112.0 381.558   7
   1 -10  -5 11370.4 403.135   4
  -1  10   5 11296.1 386.414  10
   1  10  -5 11341.1 379.924   3
   1 -10  -4 3468.26 207.085   4
  -1 -10   4 3457.76 154.775   9
  -1 -10   4 3579.40 246.900   1
  -1 -10   4 3821.84 195.018   7
  -1  10   4 3226.22 188.156  10
   1  10  -4 3809.56 195.551   3
  -1  10   3 3574.53 194.517  10
  -1 -10   3 3640.62 189.109   7
   1 -10  -3 3563.29 206.047   4
  -1 -10   3 3558.78 156.146   9
  -1  10   3 4331.02 243.455   3
  -1 -10   3 3347.67 237.833   1
   1  10  -3 3491.44 182.352   3
  -1  10   2 643.018 79.7164  10
   1  10  -2 535.336 68.1105   3
  -1 -10   2 643.868 62.7749   9
  -1  10   2 691.507 94.2612   3
  -1 -10   2 659.567 105.198   1
   1 -10  -2 692.791 90.4687   4
  -1 -10   2 682.418 79.0806   7
   1 -10  -2 512.435 82.2265   7
   1  10  -1 3626.30 175.177   2
  -1 -10   1 3417.85 233.347   1
  -1 -10   1 3472.75 151.917   9
   1 -10  -1 3765.96 211.905   4
  -1 -10   1 3463.91 179.718   7
  -1  10   1 3544.17 214.251   3
   1 -10  -1 3150.48 195.373   7
   1  10  -1 3293.86 169.362   3
  -1  10   1 3620.37 185.028  10
  -1  10   0 5467.71 266.117   3
  -1 -10   0 5094.84 288.652   1
   1 -10   0 4904.43 244.256   7
  -1 -10   0 5449.20 195.657   9
  -1  10   0 5572.50 229.119  10
   1 -10   0 5209.69 255.031   4
  -1 -10   0 5386.42 227.972   7
   1  10   0 5276.80 214.693   3
   1  10   0 5257.44 215.324   2
  -1  10  -1 23494.1 634.443   3
   1 -10   1 22269.2 662.564   1
  -1 -10  -1 22785.2 512.528   9
  -1  10  -1 22430.4 548.189  10
  -1 -10  -1 22972.3 573.678   7
   1 -10   1 22047.5 600.116   7
   1 -10   1 22726.5 621.314   4
   1  10   1 23538.6 550.435   2
   1  10   1 22359.7 540.991   3
  -1  10  -2 25680.1 676.322   3
   1  10   2 26314.4 583.566   2
   1 -10   2 24181.1 662.373   4
   1 -10   2 25646.5 719.754   1
  -1 -10  -2 24963.5 550.668   9
  -1  10  -2 25390.2 579.400  10
  -1 -10  -2 25928.2 623.132   7
   1 -10   2 23743.4 636.249   7
   1  10   2 24796.4 582.556   3
   1 -10   3 6298.91 288.994   4
   1 -10   3 6172.70 313.750   1
  -1 -10  -3 6478.01 215.113   9
  -1 -10  -3 6412.08 258.085   7
   1 -10   3 6174.17 267.493   7
   1  10   3 6270.17 232.321   3
  -1  10  -3 6968.10 299.242   3
   1 -10   4 19077.8 611.977   1
  -1 -10  -4 20275.3 456.375   9
   1 -10   4 18991.5 567.654   4
   1 -10   4 17641.5 517.737   7
  -1 -10  -4 19795.6 524.554   7
  -1  10  -4 20206.9 570.038   3
   1  10   4 19120.6 479.785   3
   1  10   5 4362.80 187.804   3
  -1 -10  -5 3911.49 141.863   5
   1  10   5 4678.46 171.228  10
  -1 -10  -5 4018.61 164.060   9
   1 -10   5 4010.26 208.414   7
  -1 -10  -5 4375.30 211.502   7
   1 -10   5 3769.21 225.751   4
   1 -10   5 4037.67 254.850   1
  -1  10  -5 4155.07 228.715   3
   1  10   6 6569.35 241.686   3
   1 -10   6 6506.49 270.858   7
  -1 -10  -6 6876.60 222.245   9
   1 -10   6 6088.09 295.780   4
  -1 -10  -6 6347.68 198.434   5
   1 -10   6 6162.00 326.314   1
   1  10   6 6257.62 261.839   8
  -1 -10  -6 6453.30 268.693   7
   1  10   6 7945.48 244.887  10
  -1  10  -6 6512.31 297.815   3
   1 -10   7 334.097 76.0751   1
  -1  10  -7 192.227 55.7470   3
  -1 -10  -7 219.010 40.4671   9
  -1 -10  -7 227.089 35.1520   5
   1  10   7 103.965 38.1235   8
   1 -10   7 244.971 66.4534   4
   1 -10   7 144.678 40.3310   7
  -1 -10  -7 226.959 48.7769   7
   1  10   7 142.464 32.8704   3
   1  10   8 784.700 69.5226   6
   1 -10   8 683.309 104.702   1
  -1 -10  -8 581.710 58.3334   5
  -1  10  -8 778.899 100.453   3
   1  10   8 821.920 92.8244   8
   1 -10   8 636.340 81.3716   7
   1 -10   8 629.734 95.0836   4
  -1 -10  -8 653.568 83.5679   7
  -1 -10  -8 716.320 68.2162   9
   1  10   9 1011.13 82.0665   6
   1 -10   9 958.042 130.063   1
  -1 -10  -9 893.476 76.1008   5
  -1 -10  -9 906.882 76.8311   9
   1  10   9 898.047 97.8656   8
   1 -10   9 976.965 102.066  11
   1 -10   9 930.371 97.9576   7
   1 -10   9 793.978 108.240   4
  -1  10  -9 1092.18 121.731   3
   1  10  10 3538.09 162.196   6
  -1 -10 -10 2703.36 144.810   5
  -1 -10 -10 3130.89 148.898   9
   1  10  10 2862.66 181.650   8
   1 -10  10 3141.91 188.384  11
   1 -10  10 2959.49 213.923   4
   1 -10  10 2880.25 230.565   1
   1 -10  10 3005.13 177.903   7
  -1  10 -10 3077.16 212.794   3
  -1  10 -11 358.878 74.3415   3
  -1 -10 -11 309.460 50.0909   5
   1  10  11 264.424 56.4436   8
   1 -10  11 173.241 51.1043   4
  -1 -10 -11 310.091 47.5195   9
   1  10  11 303.946 48.7569   6
   1 -10  11 271.371 54.6306   7
   1 -10  11 369.022 85.5970   1
  -1 -10 -12 1559.77 114.887   5
   1 -10  12 1647.64 163.752   4
   1 -10  12 1419.94 122.335   7
   1 -10  12 1590.64 181.829   1
  -1  10 -12 1356.76 149.137   3
   1  10  12 1655.44 116.032   6
   1 -10  13 536.935 110.223   1
  -1  10 -13 533.181 99.4187   3
   1 -10  13 541.392 94.0962   4
  -1 -10 -13 367.576 56.3523   5
   1 -10  13 486.611 71.9347   7
   1  10  13 658.531 76.9628   6
   1  10  14 703.962 81.2916   6
  -1 -10 -14 704.710 82.0489   5
  -1  10 -14 689.820 116.140   3
   1 -10  14 499.832 105.638   1
   1 -10  14 807.061 123.327   4
  -1  10 -15 271.521 82.3902   3
  -1 -10 -15 208.804 49.4688   5
   1  10  15 279.322 55.1009   6
   1 -10  15 300.767 94.1169   1
   1 -10  16 7345.38 444.109   1
  -1  10 -16 7159.31 406.539   3
   1  10  16 8473.49 327.788   6
  -1  10 -17 4321.44 318.412   3
   1 -10  17 4050.68 332.103   1
   1  10  17 4791.90 251.203   6
   1  10  18 1629.61 187.746  10
  -1  10 -18 1042.87 160.213   3
   1 -10  18 895.006 160.648   1
   1  10  18 1288.64 132.128   6
   1  10  19 725.052 108.231   6
  -1 -11  18 831.992 117.166   7
   1  11 -17 77.2031 64.4073   3
  -1  11  17-8.82166 74.0770  10
  -1 -11  17 84.3534 39.8722   7
   1  11 -16 59.0430 44.9032   3
  -1  11  16-27.9988 53.8398  10
  -1 -11  16 21.9339 46.2366   1
  -1 -11  16-26.8320 38.0375   7
   1  11 -15 258.251 80.8980   3
  -1  11  15 463.312 97.1481  10
  -1 -11  15 578.666 125.723   1
  -1 -11  15 425.668 84.5668   7
  -1  11  14 2319.88 206.716  10
  -1 -11  14 2505.71 189.251   7
  -1 -11  14 2384.67 252.667   1
   1  11 -14 2086.91 215.647   3
   1  11 -13 74.8228 43.3605   3
  -1  11  13 148.345 59.6763  10
  -1 -11  13 17.8435 44.2382   1
  -1 -11  13 151.416 52.5981   7
   1  11 -12 1249.92 152.345   3
  -1 -11  12 1318.17 134.134   7
  -1 -11  12 1174.72 171.318   1
  -1  11  12 1185.70 142.504  10
  -1  11  11 2257.45 186.136  10
   1  11 -11 2351.24 202.610   3
  -1 -11  11 1846.25 208.024   1
  -1 -11  11 2440.17 177.189   7
  -1 -11  10 208.068 38.1374   9
  -1 -11  10 370.019 73.3617   7
  -1  11  10 316.262 76.5329  10
  -1 -11  10 169.935 57.5299   1
   1  11 -10 220.453 63.8127   3
  -1  11   9 159.638 51.4678  10
  -1 -11   9 125.321 67.9922   1
   1  11  -9 222.093 62.4643   3
  -1 -11   9 187.851 37.9740   9
  -1 -11   9 127.291 43.8085   7
   1  11  -8 1.03568 27.7306   3
  -1 -11   8 54.2469 20.8307   9
  -1 -11   8 121.203 50.3778   1
  -1 -11   8 139.480 44.9837   7
  -1  11   8 165.073 61.5620  10
   1  11  -7 138.430 54.0654   3
  -1  11   7 183.010 54.3735  10
  -1 -11   7 183.264 41.4952   9
  -1 -11   7 71.5401 57.0827   1
  -1 -11   7 119.871 44.1841   7
  -1 -11   6 25322.0 807.676   1
  -1 -11   6 25939.0 669.318   7
  -1 -11   6 25879.3 579.087   9
  -1  11   6 26954.3 699.615  10
   1  11  -6 26217.8 690.149   3
  -1 -11   5 960.122 103.200   7
  -1 -11   5 852.299 75.2019   9
  -1 -11   5 816.308 127.638   1
  -1  11   5 864.723 102.130  10
   1  11  -5 799.191 96.0522   3
  -1  11   4 3410.53 200.874  10
  -1 -11   4 3363.89 155.067   9
  -1  11   4 3813.09 243.538   3
  -1 -11   4 3090.44 243.022   1
   1 -11  -4 3593.63 217.797   4
  -1 -11   4 3476.71 193.867   7
   1  11  -4 3820.63 206.830   3
  -1  11   3 229.980 53.1987  10
  -1 -11   3 209.256 43.5701   9
   1  11  -3 191.463 46.5027   3
   1 -11  -3 133.176 48.2823   4
  -1 -11   3 219.598 53.1386   7
  -1  11   3 156.180 52.8432   3
  -1 -11   3 108.493 47.2378   1
   1  11  -2 2461.07 152.892   2
  -1  11   2 2519.21 163.323  10
   1 -11  -2 2437.74 179.722   7
  -1  11   2 2713.49 199.064   3
  -1 -11   2 2490.51 131.358   9
   1 -11  -2 2573.41 182.236   4
  -1 -11   2 2493.27 212.540   1
  -1 -11   2 2382.47 157.401   7
   1  11  -2 2507.14 158.081   3
   1 -11  -1 699.162 95.3204   7
   1 -11  -1 900.963 105.580   4
  -1 -11   1 830.338 123.091   1
  -1 -11   1 726.576 69.0710   9
  -1  11   1 807.057 106.069   3
  -1  11   1 799.803 89.4514  10
  -1 -11   1 770.502 88.7354   7
   1  11  -1 679.605 75.4692   2
   1  11  -1 837.863 86.3852   3
  -1  11   0 913.165 114.363   3
  -1 -11   0 1095.79 136.165   1
  -1  11   0 937.569 90.9829  10
   1 -11   0 905.215 106.241   4
  -1 -11   0 918.630 95.3492   7
  -1 -11   0 896.442 77.4366   9
   1 -11   0 845.702 102.919   7
   1  11   0 852.364 86.3575   3
   1  11   0 826.309 83.7430   2
  -1  11  -1 6357.66 301.976   3
  -1 -11  -1 5948.05 211.446   9
  -1  11  -1 5905.23 233.344  10
   1 -11   1 5734.44 310.616   1
   1 -11   1 5789.75 280.645   4
  -1 -11  -1 6032.13 262.740   7
   1 -11   1 5564.15 271.113   7
   1  11   1 5998.71 236.213   2
   1  11   1 5964.97 240.651   3
   1 -11   2 10897.4 404.719   4
  -1 -11  -2 11282.8 378.968   7
   1 -11   2 10484.0 385.894   7
   1 -11   2 10934.9 448.828   1
  -1 -11  -2 10602.5 306.900   9
   1  11   2 10932.9 342.182   3
  -1  11  -2 11148.1 415.280   3
   1  11   3 829.975 82.3060   3
  -1  11  -3 766.688 101.670   3
   1 -11   3 812.148 104.639   4
  -1 -11  -3 649.387 66.2965   9
   1 -11   3 769.321 114.097   1
  -1 -11  -3 670.027 85.1363   7
   1 -11   3 617.863 87.7511   7
  -1 -11  -4 419.259 52.2509   9
  -1  11  -4 419.106 81.6469   3
   1  11   4 363.099 56.3328   3
   1 -11   4 310.646 71.4691   1
  -1 -11  -4 279.547 51.9092   7
   1 -11   4 357.960 72.8899   4
   1 -11   4 383.782 69.1830   7
   1 -11   5 193.976 49.1008   7
  -1  11  -5 239.987 60.9155   3
   1  11   5 294.490 50.1439   3
  -1 -11  -5 306.740 46.6330   9
   1 -11   5 194.552 57.8750   4
   1 -11   5 291.849 72.8901   1
  -1 -11  -5 307.383 61.5602   7
   1  11   6 2655.34 154.070   3
   1 -11   6 2747.56 222.958   1
  -1 -11  -6 3050.11 143.262   9
   1  11   6 2558.12 168.225   8
   1 -11   6 2653.50 177.144   7
  -1 -11  -6 3022.59 187.604   7
   1 -11   6 2357.54 184.833   4
  -1  11  -6 2988.77 199.427   3
   1  11   7 2100.90 116.170   6
  -1 -11  -7 1964.90 115.881   9
   1  11   7 2083.64 152.549   8
   1 -11   7 1816.20 162.541   4
   1 -11   7 2051.48 194.600   1
   1 -11   7 1853.37 147.599   7
  -1 -11  -7 2159.47 158.506   7
  -1  11  -7 2174.35 174.246   3
   1 -11   8 70.6366 47.4592   1
   1  11   8 92.9017 35.9555   8
  -1 -11  -8 132.692 36.5167   9
  -1  11  -8 62.3672 36.5749   3
   1  11   8 80.2765 23.6042   6
   1 -11   8 77.6754 41.7171   4
   1 -11   8 77.6296 39.8530   7
  -1 -11  -8 75.2197 39.4719   7
   1  11   9 506.669 59.0877   6
  -1 -11  -9 406.208 55.1083   9
   1 -11   9 293.929 80.8887   1
  -1  11  -9 498.868 88.1396   3
   1  11   9 539.275 71.8519  10
   1  11   9 391.664 67.8580   8
   1 -11   9 349.485 78.6343   4
   1 -11   9 383.743 67.5584   7
   1  11  10 967.709 84.1807   6
  -1 -11 -10 900.607 80.8876   9
   1  11  10 942.889 107.880   8
   1  11  10 1194.56 113.491  10
  -1  11 -10 888.229 118.842   3
   1 -11  10 828.461 132.176   1
   1 -11  10 929.382 104.522   7
   1 -11  10 910.649 118.644   4
  -1  11 -11 213.044 65.4921   3
   1  11  11 335.895 69.5725  10
  -1 -11 -11 278.996 50.0192   9
   1 -11  11 295.621 63.5990   7
   1  11  11 299.876 47.8471   6
   1  11  11 283.020 54.3489   8
   1 -11  11 400.499 82.9561   4
   1 -11  11 230.292 71.2174   1
   1  11  12 337.310 54.3736   6
   1  11  12 306.262 68.9218  10
  -1  11 -12 262.760 71.4036   3
   1 -11  12 336.260 77.0371   1
   1 -11  12 224.206 62.0653   4
   1 -11  12 242.817 55.4197   7
  -1  11 -13-49.6134 41.0069   3
   1  11  13 64.7058 43.1280  10
   1 -11  13 32.5416 44.7183   1
   1 -11  13-5.98819 29.9232   4
   1  11  13 32.0937 26.0342   6
   1 -11  13 27.5185 28.9328   7
   1  11  14 392.667 62.3262   6
   1  11  14 314.323 77.7311  10
  -1  11 -14 444.939 97.0233   3
   1 -11  14 402.771 103.259   1
   1  11  15 3546.86 246.956  10
   1 -11  15 2169.46 233.606   1
  -1  11 -15 2971.74 253.258   3
   1  11  16 4948.63 308.307  10
   1 -11  16 3813.99 324.468   1
  -1  11 -16 4147.80 311.124   3
   1  11  17 2274.00 214.042  10
   1 -11  17 1514.27 204.126   1
  -1  11 -17 1802.31 210.416   3
   1  11  18 326.849 88.3527  10
  -1  12  17 765.624 139.902  10
  -1 -12  17 657.593 105.870   7
  -1  12  16 239.114 78.3229  10
  -1 -12  16 293.718 74.1665   7
  -1 -12  15 1069.46 129.870   7
   1  12 -15 853.882 152.946   3
  -1  12  15 1117.63 156.948  10
  -1 -12  15 1019.69 173.371   1
  -1  12  14 342.219 87.5037  10
   1  12 -14 292.413 90.5133   3
  -1 -12  14 260.316 94.3161   1
  -1 -12  14 400.331 83.7607   7
  -1  12  13 1370.23 160.359  10
  -1 -12  13 1243.64 186.798   1
  -1 -12  13 1455.00 147.499   7
   1  12 -13 1363.64 171.770   3
  -1  12  12 67.5882 56.1768  10
  -1 -12  12 100.780 73.7831   1
   1  12 -12 1.89865 30.5313   3
  -1 -12  12-10.2164 26.3043   7
  -1  12  11 3424.58 244.586  10
  -1 -12  11 3298.50 289.357   1
  -1 -12  11 3687.65 228.598   7
   1  12 -11 3350.41 251.500   3
  -1  12  10 36.0606 42.0533  10
   1  12 -10-33.5308 38.9211   3
  -1 -12  10-12.0503 51.8378   1
  -1 -12  10 9.50768 30.6990   7
  -1  12   9 433.943 84.9123  10
  -1 -12   9 498.770 112.655   1
   1  12  -9 458.878 89.2893   3
  -1 -12   9 411.570 54.5876   9
  -1 -12   9 482.695 82.9507   7
  -1  12   8 1190.38 132.668  10
  -1 -12   8 1295.56 92.7860   9
  -1 -12   8 1171.98 123.039   7
   1  12  -8 1108.29 129.923   3
  -1 -12   8 1006.14 152.269   1
  -1  12   7 8237.44 356.123  10
  -1 -12   7 7391.40 248.913   9
  -1 -12   7 7623.65 325.888   7
  -1 -12   7 7366.55 415.434   1
   1  12  -7 8251.76 356.302   3
  -1 -12   6 2886.41 143.185   9
  -1  12   6 3113.29 206.648  10
  -1 -12   6 2868.28 247.188   1
  -1 -12   6 2985.97 191.284   7
   1  12  -6 2920.40 199.879   3
  -1 -12   5 1946.54 152.881   7
  -1 -12   5 1947.95 116.539   9
  -1 -12   5 1864.05 199.589   1
  -1  12   5 2019.43 162.195  10
  -1  12   5 2187.63 196.525   3
   1  12  -5 1831.18 152.386   3
  -1  12   4 75.8493 40.6163  10
   1  12  -4 89.3154 39.2006   3
  -1 -12   4 43.2201 21.4103   9
  -1  12   4 68.4565 46.7588   3
  -1 -12   4 57.2017 42.9437   1
   1 -12  -4 51.9651 38.7842   4
  -1 -12   4 140.212 48.7305   7
  -1 -12   3 896.776 99.1251   7
  -1 -12   3 732.621 70.9930   9
  -1  12   3 944.103 124.754   3
  -1 -12   3 986.180 140.206   1
   1 -12  -3 925.170 110.284   4
   1  12  -3 846.503 94.5245   3
   1  12  -2 46.4947 30.6508   3
  -1 -12   2 126.236 51.2727   1
   1  12  -2 123.440 44.7990   2
  -1 -12   2 101.819 31.4536   9
  -1 -12   2 112.064 44.4753   7
  -1  12   2 38.7748 42.0286   3
   1 -12  -2 33.7496 37.3875   7
   1 -12  -2 159.769 46.6235   4
  -1  12   1 1203.14 135.998   3
  -1 -12   1 928.209 133.106   1
  -1 -12   1 1031.73 83.2711   9
   1 -12  -1 1096.05 121.490   4
   1 -12  -1 1022.26 120.929   7
  -1 -12   1 1048.08 107.090   7
   1  12  -1 1048.18 103.468   3
   1  12  -1 1031.85 99.8719   2
   1  12   0-8.14193 22.6179   3
  -1 -12   0 38.9156 25.2922   9
  -1  12   0 19.9705 26.2988   3
   1 -12   0 8.94483 26.8693   4
  -1 -12   0-1.64422 25.0968   7
   1 -12   0 14.0043 29.6413   7
   1  12   1 91.3720 34.3511   3
  -1 -12  -1 98.1109 30.9121   9
   1 -12   1 38.3376 35.7491   4
  -1  12  -1 108.720 44.9497   3
  -1 -12  -1 57.0911 32.1867   7
   1 -12   1 77.1909 43.1513   7
   1 -12   2 5706.60 324.620   1
  -1  12  -2 5838.83 299.383   3
  -1 -12  -2 5438.05 205.527   9
   1 -12   2 5283.45 280.772   4
  -1 -12  -2 5679.90 268.485   7
   1 -12   2 4902.60 266.055   7
   1  12   2 5582.49 240.167   3
   1 -12   3 271.920 60.8569   4
  -1  12  -3 297.203 70.4558   3
  -1 -12  -3 306.367 49.5645   9
   1  12   3 306.899 53.6449   3
   1 -12   3 408.043 89.7816   1
  -1 -12  -3 314.899 66.8919   7
   1 -12   3 232.478 59.9562   7
  -1  12  -4 834.848 111.975   3
  -1 -12  -4 899.787 79.4840   9
   1 -12   4 1040.50 144.295   1
   1 -12   4 757.340 105.089   4
  -1 -12  -4 820.241 102.963   7
   1 -12   4 903.156 107.898   7
   1  12   4 886.666 90.9392   3
  -1 -12  -5 1914.56 153.866   7
   1 -12   5 2093.80 200.816   1
   1 -12   5 1720.08 157.101   4
  -1 -12  -5 1987.98 119.135   9
   1 -12   5 1862.21 157.058   7
  -1  12  -5 1964.64 171.684   3
  -1  12  -6 789.850 108.917   3
  -1 -12  -6 766.563 99.7834   7
   1 -12   6 687.114 121.818   1
   1  12   6 578.298 82.2122   8
  -1 -12  -6 801.636 75.6649   9
   1 -12   6 836.125 113.258   4
   1 -12   6 635.620 91.3307   7
  -1 -12  -7 56.3594 32.6034   7
  -1 -12  -7 155.709 38.2167   9
   1  12   7 121.934 42.4811   8
  -1  12  -7 172.171 58.2465   3
   1 -12   7 160.093 61.4860   1
   1 -12   7 120.553 46.4992   4
   1 -12   7 189.490 55.4902   7
  -1  12  -8 4.81163 30.0580   3
  -1 -12  -8 14.6611 25.4454   9
  -1 -12  -8 17.7289 33.1686   7
   1 -12   8 35.1258 31.2920   7
   1  12   8-34.3470 34.4183   8
   1 -12   8 18.3980 26.6951   4
   1 -12   8-13.7916 38.4414   1
  -1 -12  -9 1347.26 101.486   9
   1 -12   9 1247.46 141.295   4
   1  12   9 1616.94 145.530   8
   1 -12   9 1464.30 176.172   1
   1 -12   9 1444.03 139.904   7
  -1  12  -9 1393.91 153.294   3
   1 -12  10 914.147 139.260   1
  -1  12 -10 826.267 124.076   3
  -1 -12 -10 935.949 88.3142   9
   1  12  10 951.998 112.361   8
   1 -12  10 919.618 110.607   7
   1 -12  10 914.511 123.940   4
  -1  12 -11 361.400 87.4048   3
   1 -12  11 509.095 113.952   1
   1 -12  11 391.087 78.2154   4
   1 -12  11 406.264 73.3142   7
  -1  12 -12 122.577 58.0610   3
   1 -12  12 58.0953 56.5401   1
   1 -12  12 65.3989 36.4165   4
   1 -12  12 105.548 44.4380   7
   1 -12  13 1295.05 180.981   1
  -1  12 -13 1369.84 165.829   3
   1 -12  14 3227.97 289.629   1
  -1  12 -14 3575.97 277.761   3
   1 -12  15-1.85207 40.0462   1
  -1  12 -15 23.8957 41.6679   3
   1 -12  16 353.365 102.315   1
  -1  13  16 455.266 106.687  10
  -1  13  15 34.9116 38.5158  10
  -1 -13  15 104.919 52.0635   7
   1  13 -14 47.1247 36.3912   3
  -1  13  14 196.679 62.4337  10
  -1 -13  14 77.9142 63.4465   1
  -1 -13  14 65.5350 44.9943   7
   1  13 -13 73.6674 57.8890   3
  -1  13  13 15.6130 37.2740  10
  -1 -13  13 128.584 79.1372   1
  -1 -13  13 85.3814 45.3730   7
  -1  13  12 87.5460 66.6083  10
  -1 -13  12 59.7487 54.0189   1
   1  13 -12 33.5319 44.0700   3
  -1 -13  12 92.9965 49.6110   7
  -1 -13  11 1229.18 183.313   1
  -1  13  11 1377.15 159.077  10
   1  13 -11 1322.71 160.736   3
  -1 -13  11 1136.71 132.447   7
  -1 -13  10 368.696 106.447   1
  -1  13  10 333.368 83.8134  10
   1  13 -10 386.700 90.2789   3
  -1 -13  10 412.726 81.9003   7
  -1 -13   9 1138.67 127.869   7
   1  13  -9 1392.98 154.386   3
  -1 -13   9 1202.91 177.935   1
  -1 -13   8 876.674 77.6078   9
   1  13  -8 877.478 120.293   3
  -1 -13   8 761.514 139.894   1
  -1 -13   8 869.145 110.998   7
  -1 -13   7 122.949 32.3181   9
  -1  13   7 177.243 67.3545   3
  -1 -13   7 84.2408 46.7443   1
  -1 -13   7 144.954 45.8853   7
   1  13  -7 188.152 62.3122   3
   1  13  -6 30.4351 34.9663   3
  -1 -13   6 67.0267 32.7613   9
  -1  13   6 74.3810 44.3069   3
  -1 -13   6 105.142 70.0113   1
  -1 -13   6 69.3986 42.4312   7
  -1 -13   5 2604.40 137.728   9
  -1  13   5 2912.53 236.457   3
  -1 -13   5 2495.24 243.534   1
  -1 -13   5 2715.03 188.463   7
   1  13  -5 2302.51 177.917   3
   1  13  -4 97.6668 42.5228   3
  -1 -13   4 24.7969 19.6539   9
  -1  13   4-2.15386 37.6179   3
  -1 -13   4 128.676 58.5401   1
  -1 -13   4 65.4068 41.1220   7
   1  13  -3 1924.05 150.255   2
  -1  13   3 2285.23 200.704   3
  -1 -13   3 2058.57 122.280   9
   1 -13  -3 1969.82 171.891   4
  -1 -13   3 2157.25 217.337   1
  -1 -13   3 1883.04 157.716   7
   1  13  -3 1989.99 156.654   3
  -1 -13   2 144.689 38.7880   9
  -1 -13   2 61.3208 48.5878   1
   1  13  -2 32.9331 29.4737   3
   1 -13  -2 136.644 50.2911   4
  -1 -13   2 95.7204 45.4558   7
  -1  13   2 72.4875 56.8778   3
  -1  13   1 2002.08 184.166   3
  -1 -13   1 1808.14 113.632   9
   1 -13  -1 1804.54 165.478   4
  -1 -13   1 1958.46 160.483   7
   1 -13  -1 1803.09 169.363   7
  -1 -13   1 1549.07 180.194   1
   1  13  -1 1760.08 143.898   3
  -1 -13   0 81.6195 35.8244   9
  -1  13   0 1.12887 27.6127   3
   1  13   0-21.7290 28.8781   3
   1 -13   0 36.7321 42.7884   4
  -1 -13   0-43.3772 45.3243   7
   1 -13   0 26.9497 32.7980   7
  -1 -13  -1 9910.36 305.180   9
   1 -13   1 9972.10 410.229   4
  -1 -13  -1 9823.58 389.979   7
   1 -13   1 9585.14 404.473   7
   1  13   1 9890.30 356.417   3
  -1  13  -1 10777.3 441.830   3
   1  13   2-6.97335 22.1198   3
  -1  13  -2 51.6205 42.8055   3
  -1 -13  -2 18.8244 22.1809   9
   1 -13   2 0.10118 26.4701   4
  -1 -13  -2 40.1280 41.8035   7
   1 -13   2-30.0685 38.0458   7
   1 -13   3 317.402 85.0872   1
   1  13   3 339.584 58.0411   3
  -1  13  -3 247.298 63.1159   3
   1 -13   3 220.299 62.4329   7
   1 -13   3 192.721 51.7791   4
  -1 -13  -3 296.408 49.7947   9
  -1 -13  -3 241.491 55.9194   7
   1 -13   4 1169.64 156.615   1
  -1 -13  -4 1065.63 90.2205   9
   1 -13   4 724.892 105.502   4
  -1 -13  -4 1044.15 120.234   7
   1 -13   4 1043.37 124.579   7
  -1  13  -4 1108.70 139.066   3
  -1 -13  -5 1839.51 120.168   9
   1 -13   5 1968.57 203.878   1
   1 -13   5 1706.17 163.938   4
  -1 -13  -5 1719.48 158.013   7
   1 -13   5 1667.60 155.547   7
  -1  13  -5 1877.22 174.208   3
  -1  13  -6 363.725 74.8790   3
   1  13   6 356.166 69.1588   8
  -1 -13  -6 443.371 58.9822   9
   1 -13   6 388.259 96.6456   1
  -1 -13  -6 322.355 72.3701   7
   1 -13   6 427.764 84.5979   4
   1 -13   6 433.570 82.7077   7
  -1 -13  -7 5412.68 218.130   9
   1 -13   7 4615.85 278.585   4
   1  13   7 5121.08 269.693   8
   1 -13   7 4735.86 269.029   7
  -1 -13  -7 4996.29 277.259   7
   1 -13   7 4970.17 338.665   1
  -1  13  -7 4636.27 286.728   3
  -1 -13  -8 813.541 82.3526   9
  -1  13  -8 983.596 133.063   3
   1 -13   8 850.280 138.841   1
   1 -13   8 785.182 115.200   4
   1  13   8 796.124 107.134   8
   1 -13   8 680.918 101.335   7
  -1 -13  -8 845.784 115.601   7
  -1 -13  -9 250.688 48.2419   9
  -1  13  -9 267.763 76.4082   3
   1 -13   9 218.504 57.6913   4
   1 -13   9 224.935 83.6531   1
   1 -13   9 212.171 59.4227   7
   1  13   9 238.455 62.4172   8
  -1  13 -10 771.732 124.209   3
  -1 -13 -10 1023.00 94.4984   9
   1 -13  10 591.934 120.696   1
   1  13  10 742.535 105.875   8
   1 -13  10 698.851 110.916   4
   1 -13  10 672.331 103.163   7
  -1  13 -11 11.5323 39.7364   3
   1 -13  11 3.78453 37.3392   4
   1 -13  11 27.0261 38.2391   7
   1 -13  11 43.2551 47.6749   1
   1 -13  12 3392.74 228.244   7
   1 -13  12 3095.57 288.450   1
  -1  13 -12 3208.48 258.408   3
  -1  13 -13 44.9962 43.1391   3
   1 -13  13-24.1925 47.8684   1
   1 -13  14 1220.27 191.953   1
  -1  13 -14 1356.07 179.620   3
   1 -13  15 355.301 102.482   1
   1  14 -13 637.910 128.074   3
  -1 -14  13 652.080 108.204   7
   1  14 -12 1001.01 150.957   3
  -1 -14  12 937.372 126.137   7
  -1 -14  12 976.474 177.307   1
   1  14 -11 776.819 132.435   3
  -1 -14  11 467.669 88.0050   7
  -1 -14  11 668.551 140.804   1
   1  14 -10 521.381 104.654   3
  -1 -14  10 519.940 91.0626   7
  -1 -14  10 622.724 139.509   1
   1  14  -9 200.195 69.0880   3
  -1 -14   9 300.238 105.975   1
  -1  14   9 544.551 123.366   3
  -1 -14   9 304.084 72.6927   7
  -1  14   8 1623.02 198.093   3
  -1 -14   8 1097.87 177.313   1
  -1 -14   8 1311.96 141.181   7
   1  14  -8 1411.03 158.962   3
   1  14  -7 20.6284 33.6102   3
  -1  14   7 31.0296 52.3165   3
  -1 -14   7 90.5457 72.4107   1
  -1 -14   7 12.7991 19.3096   9
  -1 -14   7-35.9910 30.1126   7
  -1 -14   6 129.603 34.3779   9
  -1  14   6 83.7304 58.8981   3
   1  14  -6 75.0578 42.9732   3
  -1 -14   6 129.657 56.4773   1
  -1 -14   6 120.788 50.7927   7
  -1 -14   5 1361.43 101.335   9
   1  14  -5 1459.04 147.174   3
  -1 -14   5 1229.13 178.954   1
  -1 -14   5 1414.92 144.154   7
  -1  14   5 1430.65 182.728   3
  -1  14   4-46.2116 39.8079   3
   1  14  -4-36.6274 31.8774   3
  -1 -14   4-35.5535 52.6082   1
  -1 -14   4 25.2936 25.8618   7
  -1 -14   4-6.18404 18.2597   9
   1  14  -3 148.414 44.5523   3
  -1  14   3 134.161 58.4655   3
  -1 -14   3 187.574 42.0344   9
  -1 -14   3 107.765 64.0526   1
  -1 -14   3 67.3610 38.9995   7
  -1 -14   2 84.2797 58.1416   1
   1  14  -2 41.0024 40.6042   3
  -1  14   2-0.12992 30.8144   3
  -1 -14   2 5.95786 20.8095   9
   1 -14  -2 36.4387 30.7770   4
  -1 -14   2 81.1011 43.3788   7
   1  14  -1-11.2755 23.0806   3
  -1  14   1-24.7527 30.4725   3
  -1 -14   1-7.16856 22.2271   9
   1 -14  -1-30.4845 37.0322   4
  -1 -14   1-41.0972 48.5555   7
   1 -14  -1 1.17852 32.9719   7
   1  14   0 37.3474 29.5128   3
  -1  14   0 54.4552 49.5176   3
  -1 -14   0 77.7945 31.9582   9
   1 -14   0 60.0850 33.5539   4
  -1 -14   0 74.4759 50.1034   7
   1 -14   0 65.2340 50.1096   7
  -1  14  -1-8.57175 43.6626   3
  -1 -14  -1 40.4181 25.7719   9
   1  14   1-14.9292 21.7624   3
   1 -14   1-3.39672 36.2080   4
  -1 -14  -1-34.8422 37.9405   7
   1 -14   1 9.82624 39.9033   7
  -1 -14  -2 1442.52 108.078   9
  -1 -14  -2 1578.41 154.549   7
   1 -14   2 1420.64 153.609   7
   1 -14   2 1428.78 153.370   4
  -1  14  -2 1796.00 177.694   3
  -1 -14  -3 14.6664 23.7418   9
  -1  14  -3 27.0902 39.4757   3
   1 -14   3-13.8484 29.0575   4
  -1 -14  -3-9.33787 39.3157   7
   1 -14   3-37.5961 45.1823   1
   1 -14   3 19.3735 36.8921   7
   1 -14   4 1023.62 155.466   1
   1 -14   4 933.426 126.696   4
  -1 -14  -4 1279.45 100.760   9
  -1 -14  -4 1287.36 141.921   7
   1 -14   4 885.597 121.165   7
  -1  14  -4 1234.80 150.574   3
  -1 -14  -5 354.318 57.5181   9
  -1  14  -5 362.819 82.1858   3
   1 -14   5 285.174 83.9754   1
   1 -14   5 374.701 76.6246   4
  -1 -14  -5 330.157 73.6976   7
   1 -14   5 333.823 75.1377   7
  -1 -14  -6 19.9310 23.8333   9
  -1  14  -6 38.5031 29.0046   3
  -1 -14  -6 33.2124 31.0509   7
   1  14   6 3.33898 28.5025   8
   1 -14   6-18.6494 45.0915   1
   1 -14   6 39.9930 55.3254   4
   1 -14   6 69.7860 50.5677   7
  -1 -14  -7 1142.71 99.1905   9
  -1  14  -7 988.128 135.598   3
   1 -14   7 1099.49 169.327   1
   1  14   7 890.272 116.594   8
   1 -14   7 1013.91 133.240   4
   1 -14   7 1009.99 129.445   7
  -1 -14  -7 949.487 123.904   7
  -1 -14  -8 3395.07 179.453   9
   1 -14   8 2986.97 276.807   1
   1  14   8 2978.66 217.128   8
   1 -14   8 3215.78 236.833   4
   1 -14   8 3290.02 232.815   7
  -1 -14  -8 3141.92 231.994   7
  -1  14  -8 3398.95 257.211   3
   1  14   9 3330.76 233.764   8
   1 -14   9 3576.90 306.224   1
  -1 -14  -9 3168.58 176.478   9
   1 -14   9 3246.83 242.538   4
   1 -14   9 3159.14 227.439   7
  -1  14  -9 3721.15 270.150   3
  -1  14 -10 233.506 73.8145   3
   1 -14  10 199.975 76.9848   1
   1 -14  10 90.9219 57.3585   4
   1 -14  10 126.492 55.0253   7
  -1  14 -11 29.8555 53.4456   3
   1 -14  11 41.2089 40.5188   1
   1 -14  11 53.4630 39.5185   7
  -1  14 -12 461.929 103.333   3
   1 -14  12 342.024 77.3218   7
   1 -14  12 422.875 107.881   1
   1 -14  13 134.440 73.6291   1
  -1  15  12 3264.72 317.299   3
   1  15 -11-20.8359 45.7500   3
  -1  15  11 28.5412 70.8354   3
  -1  15  10 5537.75 399.418   3
  -1 -15  10 4284.36 366.436   1
  -1 -15  10 4119.45 273.565   7
   1  15 -10 4237.15 306.764   3
  -1  15   9 315.185 86.9615   3
  -1 -15   9 161.564 87.2223   1
   1  15  -9 161.769 64.6496   3
  -1 -15   9 227.126 69.9691   7
   1  15  -8 373.274 88.8068   3
  -1  15   8 586.558 126.078   3
  -1 -15   8 531.690 128.863   1
  -1 -15   8 504.892 94.2369   7
  -1  15   7 886.180 151.452   3
  -1 -15   7 766.691 145.086   1
   1  15  -7 642.318 109.537   3
  -1 -15   7 588.812 97.7892   7
   1  15  -6 881.792 123.603   3
  -1  15   6 864.561 143.523   3
  -1 -15   6 642.690 135.928   1
  -1 -15   6 707.018 73.9795   9
  -1 -15   6 636.702 106.882   7
  -1  15   5 3031.50 263.782   3
  -1 -15   5 2601.31 209.544   7
  -1 -15   5 2414.17 255.785   1
  -1 -15   5 2795.14 150.021   9
   1  15  -5 2525.96 208.612   3
   1  15  -4 306.622 68.4357   3
  -1  15   4 329.186 91.1905   3
  -1 -15   4 299.492 50.0509   9
  -1 -15   4 192.833 77.7274   1
  -1 -15   4 364.443 78.9766   7
   1  15  -3 42.4562 42.0568   3
  -1  15   3 55.0168 39.2653   3
  -1 -15   3 31.1635 29.7793   9
  -1 -15   3 16.7583 31.7067   7
  -1  15   2 2010.96 205.584   3
  -1 -15   2 1959.14 125.537   9
  -1 -15   2 1909.49 177.292   7
   1  15  -2 1894.51 166.145   3
  -1  15   1 823.785 136.226   3
   1  15  -1 642.588 94.8610   3
  -1 -15   1 617.127 71.9939   9
   1 -15  -1 502.489 102.080   4
  -1 -15   1 390.450 80.7238   7
  -1  15   0 659.415 117.455   3
  -1 -15   0 603.525 71.4556   9
   1 -15   0 598.233 104.072   4
  -1 -15   0 558.775 100.841   7
   1 -15   0 446.086 91.0593   7
  -1 -15  -1 2600.18 148.727   9
   1 -15   1 2140.12 195.327   4
  -1 -15  -1 2473.19 202.606   7
   1 -15   1 2333.08 211.184   7
  -1  15  -1 2764.27 236.065   3
   1 -15   2 101.568 46.7474   4
  -1 -15  -2 87.7207 33.8602   9
  -1  15  -2 61.6344 48.9682   3
  -1 -15  -2 102.701 44.4445   7
   1 -15   2 18.7245 39.2255   7
  -1  15  -3 510.102 103.910   3
  -1 -15  -3 618.940 74.6751   9
   1 -15   3 542.735 99.0756   4
  -1 -15  -3 641.572 103.681   7
   1 -15   3 406.219 87.9165   7
   1 -15   4 22.1337 46.5793   1
  -1 -15  -4 59.6021 30.3109   9
  -1  15  -4 64.2061 51.7793   3
   1 -15   4 15.4863 33.2777   4
  -1 -15  -4 66.5736 42.4242   7
   1 -15   4 32.6816 39.8814   7
   1 -15   5 458.994 110.420   1
  -1 -15  -5 566.744 72.0180   9
  -1  15  -5 714.096 120.836   3
   1 -15   5 730.769 114.423   4
  -1 -15  -5 472.634 93.9915   7
   1 -15   5 550.614 100.488   7
  -1  15  -6 435.717 96.0123   3
  -1 -15  -6 622.630 76.3484   9
   1 -15   6 516.395 118.693   1
   1  15   6 554.266 95.7374   8
   1 -15   6 574.685 103.627   4
   1 -15   6 599.426 105.520   7
  -1 -15  -6 613.745 105.236   7
  -1  15  -7 89.3976 48.2223   3
  -1 -15  -7 19.3502 29.2180   9
   1 -15   7 104.177 77.0084   1
   1  15   7 75.9749 47.5670   8
   1 -15   7-9.26016 40.7502   4
   1 -15   7 120.048 56.4949   7
  -1 -15  -7 144.375 54.0669   7
  -1 -15  -8 1415.69 118.567   9
   1 -15   8 1288.84 187.771   1
   1  15   8 1461.81 158.433   8
   1 -15   8 1283.23 153.923   4
   1 -15   8 1312.19 155.861   7
  -1  15  -8 1711.18 188.930   3
   1 -15   9 496.297 93.9982   4
  -1  15  -9 539.386 108.763   3
   1 -15   9 780.519 147.486   1
   1  15   9 621.198 108.075   8
   1 -15   9 776.245 121.232   7
  -1  15 -10 156.224 74.2785   3
   1 -15  10 119.478 68.4258   1
   1 -15  10 103.923 58.0463   7
   1 -15  11 4.26177 51.7810   1
   1 -15  11 57.2308 47.5601   7
   1 -15  12 179.525 60.0837   7
  -1  16  10 1835.13 237.343   3
  -1  16   9 5457.82 400.546   3
   1  16  -9 4510.33 321.854   3
  -1  16   8 9714.51 530.061   3
   1  16  -8 7864.01 422.198   3
   1  16  -7 799.465 135.474   3
  -1  16   7 1546.14 207.213   3
  -1 -16   7 848.584 167.984   1
  -1 -16   7 1043.48 138.419   7
  -1 -16   6 67.1839 76.6375   1
  -1 -16   6 13.7557 24.8774   9
  -1  16   6 35.4982 39.1769   3
   1  16  -6-2.28554 34.2054   3
  -1 -16   6 12.2786 34.3737   7
  -1 -16   5 241.487 87.2317   1
   1  16  -5 382.071 83.8617   3
  -1  16   5 543.158 121.319   3
  -1 -16   5 404.138 59.8340   9
  -1 -16   5 524.233 104.714   7
  -1 -16   4 560.205 132.198   1
  -1 -16   4 779.066 81.5430   9
  -1  16   4 1121.11 166.282   3
   1  16  -4 729.380 107.901   3
  -1 -16   4 955.789 132.847   7
   1  16  -3 1046.12 131.881   3
  -1 -16   3 955.302 90.7164   9
  -1  16   3 1055.33 158.647   3
  -1 -16   3 1029.31 136.319   7
  -1  16   2 39.2263 36.0513   3
  -1 -16   2 61.6486 33.9074   9
  -1 -16   2-15.1383 32.8616   7
  -1 -16   1 885.600 88.5950   9
  -1  16   1 831.503 144.777   3
  -1 -16   1 953.884 131.276   7
  -1 -16   0 134.211 40.1088   9
  -1  16   0 154.394 66.6754   3
   1 -16   0 162.261 65.0332   4
  -1 -16   0 115.067 58.5762   7
   1 -16   0 201.342 70.2722   7
  -1  16  -1 36.9662 43.7423   3
  -1 -16  -1 31.0792 31.5921   9
   1 -16   1 63.1009 40.5018   4
  -1 -16  -1 52.0908 41.1752   7
   1 -16   1 13.9339 36.4916   7
  -1  16  -2-67.5505 65.0365   3
  -1 -16  -2 13.5787 24.9434   9
   1 -16   2 94.8089 58.2349   4
  -1 -16  -2-4.42281 36.7130   7
   1 -16   2-54.9141 55.3361   7
  -1  16  -3 928.132 141.384   3
  -1 -16  -3 782.864 86.5442   9
   1 -16   3 863.339 130.315   4
  -1 -16  -3 1003.15 137.276   7
   1 -16   3 748.563 125.332   7
   1 -16   4 2819.80 232.488   4
  -1 -16  -4 3282.02 180.933   9
  -1 -16  -4 3168.23 249.668   7
   1 -16   4 3200.25 256.175   7
  -1  16  -4 3201.86 262.638   3
   1 -16   5 4184.80 342.294   1
  -1 -16  -5 4280.55 212.205   9
   1 -16   5 4171.77 285.489   4
   1  16   5 3969.93 269.500   8
   1 -16   5 4145.92 291.394   7
  -1 -16  -5 3894.72 279.902   7
  -1  16  -5 4305.31 309.006   3
   1 -16   6 366.907 102.392   1
  -1 -16  -6 275.897 59.0589   9
  -1  16  -6 255.923 85.4444   3
   1  16   6 362.055 84.8123   8
   1 -16   6 233.186 73.3634   4
   1 -16   6 144.414 49.4043   7
  -1 -16  -6 290.819 76.2201   7
   1 -16   7 1341.37 197.633   1
  -1 -16  -7 1338.53 117.522   9
  -1  16  -7 1134.27 159.209   3
   1  16   7 1410.29 161.538   8
   1 -16   7 1113.88 147.542   4
   1 -16   7 1329.16 164.323   7
  -1 -16  -7 1075.25 148.907   7
   1 -16   8 58.9646 64.4791   1
   1  16   8 165.195 67.3238   8
   1 -16   8 57.4448 48.9719   4
   1 -16   8 76.1867 50.5020   7
   1 -16   9 615.245 136.453   1
   1 -16   9 624.904 112.219   7
   1  17  -7 44.6785 58.2430   3
   1  17  -6 821.724 131.077   3
  -1  17   6 1086.93 175.250   3
   1  17  -5 241.486 70.8677   3
  -1 -17   5 217.639 50.2832   9
  -1  17   5 444.989 118.117   3
  -1 -17   4 69.1113 35.1805   9
  -1  17   4 82.7288 59.3476   3
  -1 -17   3 1260.21 108.926   9
  -1  17   3 1616.47 204.946   3
  -1 -17   2 1632.26 123.977   9
  -1  17   2 1889.61 217.054   3
  -1 -17   1 1444.72 116.766   9
  -1  17   1 1448.05 190.511   3
  -1 -17   1 1346.61 165.375   7
  -1 -17   0 35.9097 31.6715   9
  -1  17   0 57.7048 53.5104   3
  -1 -17   0 95.2433 60.4869   7
  -1 -17  -1 28.6730 32.4354   9
  -1  17  -1-24.6714 41.1231   3
  -1 -17  -1-13.4543 49.4900   7
  -1 -17  -2 1289.12 114.739   9
   1 -17   2 1075.67 150.154   4
  -1  17  -2 1325.99 179.408   3
  -1 -17  -2 1039.85 149.382   7
  -1  17  -3 1.43704 55.0051   3
   1 -17   3-3.44173 38.3216   4
  -1 -17  -3-76.1292 57.7025   7
   1  17   4 3760.93 271.015   8
   1 -17   4 3585.74 272.519   4
  -1 -17  -4 4058.20 296.164   7
   1  17   5 5337.77 329.934   8
   1 -17   5 4928.34 323.928   4
  -1 -17  -5 4658.26 321.548   7
   1 -17   6-14.9729 41.0358   4
  -1 -17  -6-187.842 72.5483   7
   1 -17   7 2859.19 241.486   4
  -2   0  21 30.0781 42.0411  10
  -2   0  21 41.1307 55.8800   6
   2   0 -20 171.329 60.5858   2
  -2   0  20 119.053 59.4144   6
  -2   0  20 85.2912 47.4134   7
  -2   0  20 87.6682 54.8475  10
  -2   0  19-25.7995 43.9377  10
   2   0 -19 36.7329 37.5137   2
  -2   0  19 22.3754 41.8244   6
  -2   0  19-56.2758 58.5305   7
  -2   0  18 1181.69 136.191  10
  -2   0  18 1589.81 178.648   7
  -2   0  18 1422.97 171.801   6
   2   0 -18 1242.89 136.799   2
   2   0 -17-10.7378 24.9189   2
  -2   0  17-9.29620 33.2126  10
  -2   0  17-15.3844 32.2199   6
  -2   0  17-65.2151 48.4094   7
   2   0 -16 379.240 73.0208   2
  -2   0  16 392.358 86.5233   6
  -2   0  16 340.445 69.8664  10
   2   0 -15 69.2252 39.1318   2
  -2   0  15 86.2129 47.2473  10
  -2   0  15-26.6397 42.6178   6
  -2   0  14 1070.38 112.432  10
  -2   0  14 1077.92 129.933   6
   2   0 -14 1310.43 126.467   2
   2   0 -13 31.9006 33.9230   2
  -2   0  13-43.4145 30.7138   6
  -2   0  13-30.3299 33.7145  10
  -2   0  12 16291.4 484.069  10
  -2   0  12 16448.9 534.824   6
   2   0 -12 16589.3 492.842   2
  -2   0  11 38.0193 35.5691  10
   2   0 -11 3.29368 12.2898   8
  -2   0  11-26.9455 24.4833   6
   2   0 -11-12.6034 23.1259   2
  -2   0  10 811.676 88.9041  10
   2   0 -10 685.386 57.8039   8
  -2   0  10 687.359 93.0527   6
   2   0 -10 724.462 85.4032   2
  -2   0   9 11.4990 32.9822  10
   2   0  -9 1.50161 15.1322   8
  -2   0   9 58.8659 37.8306   6
   2   0  -9-14.4768 24.1900   2
  -2   0   8 3949.55 191.830  10
   2   0  -8 3474.03 145.959   8
  -2   0   8 3489.58 201.341   6
   2   0  -8 3612.89 187.127   2
   2   0  -7 9.02974 17.0544   8
  -2   0   7 61.2258 34.7787   6
  -2   0   7 13.7368 20.5974  10
   2   0  -7 1.85746 17.9421   2
  -2   0   6 501.014 73.4407   6
  -2   0   6 566.396 72.7680  10
   2   0  -6 448.864 51.9380   8
   2   0  -6 543.557 39.9505   4
   2   0  -6 517.385 68.1171   2
  -2   0   5 6.13408 32.6044  10
   2   0  -5-6.99001 17.9786   8
   2   0  -5-17.1117 16.0750   4
   2   0  -5 9.79694 22.1161   2
  -2   0   4 386124. 6508.34  10
   2   0  -4 400844. 6402.57   4
   2   0  -4 377514. 6461.27   8
   2   0  -4 385760. 6515.97   2
   2   0  -3 70.1505 31.0749   8
  -2   0   3 32.2738 27.8348  10
   2   0  -3 42.6657 30.9242   2
   2   0  -2 5682.10 211.645   8
  -2   0   2 5492.30 219.190  10
   2   0  -2 5788.83 227.729   2
   2   0  -1-13.5254 26.6724   2
   2   0  -1-7.15493 22.9940  11
  -2   0   1 4.79356 4.14402   1
  -2   0   1 14.1168 30.2080  10
   2   0  -1-21.0284 20.8990   8
  -2   0   0 101.886 32.2691  10
   2   0   0 129.570 31.4142   8
   2   0   0 56.0388 24.7276   2
   2   0   1-13.5683 19.1163   2
  -2   0  -1 4.29089 16.9895  10
   2   0   1-9.64016 20.3671   8
  -2   0  -2 17227.1 431.390  10
   2   0   2 16403.9 434.774   8
   2   0   2 16478.9 428.981   2
   2   0   3-2.97537 15.9840   8
   2   0   3-2.05792 4.85383   1
   2   0   3 39.9214 23.0132   2
  -2   0  -3 0.69908 8.28223   3
  -2   0  -3 13.7156 18.4895   5
   2   0   4 194.163 42.3294   8
  -2   0  -4 215.993 24.8650   3
  -2   0  -4 185.076 39.3200   5
   2   0   4 214.413 40.0445   2
  -2   0  -4 127.291 30.5390   9
  -2   0  -5 9.63364 9.79521   3
   2   0   5-36.3355 25.7525   2
  -2   0  -5 59.9962 28.0409   5
   2   0   5-22.5971 27.1351   8
  -2   0  -5-6.69904 21.9288   9
   2   0   6 11770.4 325.445   2
   2   0   6 11943.7 352.878   8
  -2   0  -6 11832.1 294.950   9
  -2   0  -6 11215.5 226.207   7
  -2   0  -6 12056.0 319.747   5
  -2   0  -6 10810.0 220.565   7
  -2   0  -6 12204.8 263.656   3
  -2   0  -7 29.1370 12.5088   3
   2   0   7 2.45156 12.5201   2
   2   0   7-6.10326 16.7528   8
  -2   0  -7-12.4241 14.2669   5
  -2   0  -7-12.3175 14.4748   9
  -2   0  -8 5589.31 161.930   9
   2   0   8 5452.69 198.676   2
  -2   0  -8 5501.75 192.121   5
  -2   0  -8 5535.52 174.328   3
   2   0   8 4983.26 215.992   8
   2   0   9 22.7668 17.0623   2
  -2   0  -9-20.2416 17.5246   5
  -2   0  -9 38.6518 16.0200   9
  -2   0  -9 4.75870 11.9419   3
   2   0   9 3.15689 23.4527   8
  -2   0 -10 113.499 30.6358   3
   2   0  10 70.9546 25.4275   2
   2   0  10 54.9409 25.4136   8
  -2   0 -10 60.5410 15.6937   9
  -2   0 -10 62.0419 24.6220   5
   2   0  11 2.18368 11.3982   2
   2   0  11-12.3266 14.1568   6
  -2   0 -11-6.04529 14.8027   5
  -2   0 -11 0.40918 14.7717   3
   2   0  11-8.86781 27.6410   8
   2   0  12 1086.40 89.8244   6
  -2   0 -12 1060.90 75.1547   5
   2   0  12 1155.21 95.2679   8
  -2   0 -12 1017.84 88.9159   3
   2   0  12 1253.76 85.7014   2
   2   0  13 14.8451 12.3255   2
  -2   0 -13 15.3782 19.5730   5
   2   0  13 8.41804 20.2984   6
   2   0  13-5.34723 21.7667   8
  -2   0 -13 20.6050 21.7756   3
   2   0  14 2143.21 135.756   6
  -2   0 -14 2175.94 111.870   5
   2   0  14 2085.24 127.157   8
  -2   0 -15 4.70469 16.1098   5
   2   0  15-0.06012 17.9635   6
  -2   0 -16 5069.74 193.013   5
   2   0  16 5385.55 237.688   6
  -2   0 -17 37.1297 22.8238   5
   2   0  17-27.2552 32.1001   6
  -2   0 -18 13397.8 381.364   5
   2   0  18 14289.5 451.731   6
  -2   0 -19-10.2703 18.9968   5
   2   0  19-54.4990 35.1763   6
  -2   0 -20 4557.90 216.830   5
   2   0  20 4991.31 268.356   6
  -2   0 -21-18.4646 27.7945   5
  -2  -1  22 54.6953 55.7471  10
   2   1 -21 994.487 135.473   2
  -2   1  21 732.239 121.343  10
  -2  -1  21 974.241 136.143  10
  -2  -1  21 870.777 149.897   6
  -2  -1  21 875.094 136.495   7
  -2   1  21 788.764 140.503   6
  -2   1  20 1584.96 168.823  10
  -2  -1  20 1498.70 159.459  10
  -2  -1  20 1529.12 179.986   7
  -2   1  20 1440.88 180.400   7
  -2  -1  20 1552.48 194.639   6
  -2   1  20 1406.40 184.334   6
   2   1 -20 1651.81 170.214   2
  -2   1  19 4574.38 284.550  10
  -2  -1  19 4399.35 272.309  10
  -2   1  19 5452.73 345.205   7
  -2  -1  19 5881.85 349.051   7
  -2  -1  19 5043.34 337.604   6
  -2   1  19 4944.04 325.206   6
   2   1 -19 4862.51 289.141   2
  -2   1  18 453.913 98.2040   6
  -2   1  18 469.399 91.7155  10
  -2  -1  18 264.700 64.6848  10
   2   1 -18 442.749 83.6471   2
  -2  -1  18 483.441 94.0308   7
  -2  -1  18 570.193 114.079   6
   2  -1 -18 490.394 88.5000   2
  -2  -1  17 346.194 74.0498  10
  -2   1  17 406.821 79.9252  10
   2   1 -17 467.106 87.3417   2
  -2   1  17 398.911 92.5506   6
  -2  -1  17 452.180 95.3563   6
  -2  -1  17 592.527 107.473   7
   2  -1 -17 395.098 78.0040   2
  -2   1  16 1153.89 128.596  10
  -2  -1  16 1069.23 137.937   6
  -2  -1  16 959.081 110.883  10
  -2  -1  16 1095.08 142.543   7
  -2   1  16 910.115 126.998   6
   2  -1 -16 1382.90 133.990   2
   2   1 -16 1035.28 120.597   2
  -2  -1  15 754.724 97.5457  10
  -2   1  15 880.586 108.376  10
   2   1 -15 741.914 101.675   2
  -2  -1  15 918.884 126.295   7
  -2  -1  15 739.738 115.377   6
  -2   1  15 885.345 119.928   6
   2  -1 -15 729.795 95.8732   2
  -2  -1  14 5951.42 322.384   7
  -2  -1  14 5396.32 258.473  10
   2   1 -14 5347.94 265.366   2
  -2  -1  14 5108.06 294.153   6
  -2   1  14 5537.73 295.423   6
   2  -1 -14 5774.14 269.236   2
  -2   1  14 5084.33 259.184  10
  -2   1  13 43.5704 41.9743   6
  -2  -1  13 5.49226 43.3922   6
   2   1 -13 37.6204 33.1357   2
  -2  -1  13 22.8364 27.2896  10
   2  -1 -13 10.4152 23.7627   2
  -2   1  12 9050.88 343.456  10
  -2  -1  12 9924.55 345.329  10
  -2  -1  12 9396.39 388.245   6
  -2   1  12 9274.47 375.108   6
   2  -1 -12 9807.79 349.830   2
   2   1 -12 9369.32 352.116   2
  -2  -1  11 87.9451 40.0003  10
  -2   1  11 45.5116 36.4522  10
  -2  -1  11-8.71065 33.4812   6
   2   1 -11-12.4686 17.5345   8
  -2   1  11-8.20686 38.9653   6
   2   1 -11 18.2286 24.2629   2
   2  -1 -11 71.3807 33.0133   2
  -2  -1  10 5757.74 243.563  10
  -2   1  10 5326.28 243.469  10
   2  -1 -10 5503.54 168.590   8
   2   1 -10 5665.26 193.190   8
  -2  -1  10 5524.24 275.690   6
  -2   1  10 5913.02 272.623   6
   2  -1 -10 5661.08 246.162   2
   2   1 -10 5575.22 250.553   2
   2   1  -9 4407.10 169.823   8
  -2  -1   9 4205.87 202.539  10
   2  -1  -9 4377.83 153.879   8
  -2   1   9 4367.40 211.149  10
  -2  -1   9 4646.04 243.239   6
  -2   1   9 4378.65 226.643   6
   2  -1  -9 4338.08 208.549   2
   2   1  -9 4240.89 211.575   2
  -2  -1   8 460.576 64.7591  10
  -2   1   8 389.024 62.3461  10
   2   1  -8 370.325 47.2386   8
   2  -1  -8 401.645 45.0076   8
  -2  -1   8 226.884 52.5622   6
  -2   1   8 343.656 60.2057   6
   2  -1  -8 385.457 63.5105   2
   2   1  -8 386.305 61.6679   2
  -2   1   7 2195.81 143.377  10
  -2  -1   7 2293.65 138.870  10
   2  -1  -7 2469.69 101.422   4
   2  -1  -7 2500.62 117.727   8
   2   1  -7 2349.18 123.684   8
  -2  -1   7 2288.84 159.610   6
  -2   1   7 2206.24 151.000   6
   2  -1  -7 2152.79 139.656   2
   2   1  -7 2339.65 148.070   2
  -2  -1   6 580.035 81.1806   6
  -2   1   6 502.878 73.8279   6
   2   1  -6 583.765 61.9222   8
   2   1  -6 583.872 73.2073   2
  -2  -1   6 557.852 70.3811  10
   2  -1  -6 531.851 55.6790   8
  -2   1   6 472.060 66.0820  10
   2   1  -6 508.799 31.2516   4
   2  -1  -6 555.677 48.5451   4
   2  -1  -6 570.709 70.3033   2
  -2   1   5 50.5442 32.0592   6
  -2   1   5 58.3265 26.2017  10
  -2  -1   5 22.0804 28.3339  10
   2  -1  -5 52.2140 23.8638   8
   2   1  -5 24.2554 20.4556   8
   2  -1  -5 12.5256 12.7526   4
   2   1  -5 22.3063 11.5963   4
   2  -1  -5 15.1652 25.5839   2
   2   1  -5 65.5895 33.1983   2
  -2  -1   4 45510.1 936.356  10
  -2   1   4 46251.5 956.681  10
   2   1  -4 45913.5 917.889   8
   2  -1  -4 45751.3 903.720   8
   2  -1  -4 47310.8 876.833   4
   2  -1  -4 45619.7 948.614   2
   2   1  -4 45452.7 959.578   2
  -2   1   3 12096.8 367.926  10
   2  -1  -3 12746.1 343.369   8
   2  -1  -3 13159.4 331.776   4
   2   1  -3 12526.5 349.454   8
  -2  -1   3 12928.0 361.958  10
   2  -1  -3 12119.4 364.411   2
   2   1  -3 12775.8 376.705   2
  -2   1   2 14056.6 395.030  10
   2   1  -2 14018.4 375.714   8
   2   1  -2 13808.2 346.779  11
  -2  -1   2 13663.7 375.029  10
   2  -1  -2 13444.0 383.121   2
   2   1  -2 13257.6 390.892   2
  -2  -1   2 13566.4 306.332   1
   2  -1  -2 14028.3 366.411   8
   2  -1  -1 11670.8 349.464   2
   2  -1  -1 12056.5 339.175   8
   2  -1  -1 12352.9 346.069  11
  -2  -1   1 11972.6 264.556   1
  -2   1   1 11884.9 357.148  10
  -2  -1   1 12499.4 345.588  10
   2   1  -1 12335.7 364.308   2
   2   1  -1 12550.8 351.085   8
  -2  -1   0 27585.4 601.385  10
   2  -1   0 26977.1 600.298   8
  -2   1   0 27449.9 620.673  10
   2   1   0 26976.0 610.562   8
   2  -1   0 26026.1 607.203   2
   2   1   0 26034.9 618.134   2
  -2   1  -1 527.097 63.3176  10
  -2  -1  -1 371.644 50.4446  10
   2   1   1 428.875 57.0600   2
   2  -1   1 413.871 56.6796   8
   2  -1   1 443.936 56.6235   2
   2   1   1 527.553 62.2871   8
  -2   1  -2 3821.00 173.731  10
  -2  -1  -2 3719.51 162.334   5
   2  -1   2 3629.23 168.877   8
   2  -1   2 3777.98 169.021   2
   2   1   2 3678.06 106.450   1
   2   1   2 3633.27 171.129   2
  -2  -1  -2 3790.86 168.530   9
   2   1   2 3810.00 177.909   8
  -2  -1  -3 10474.4 219.033   3
  -2   1  -3 10330.7 260.228   3
  -2  -1  -3 10494.2 304.883   9
  -2  -1  -3 11066.0 309.446   5
  -2   1  -3 10667.9 315.721   5
   2  -1   3 11043.4 324.822   8
   2   1   3 11050.3 335.117   8
  -2  -1  -3 10598.3 266.075   7
   2  -1   3 10654.8 315.335   2
   2   1   3 10394.5 316.543   2
  -2   1  -4 12825.3 301.422   3
   2   1   4 13211.2 379.830   8
  -2  -1  -4 13310.8 348.837   5
  -2   1  -4 12742.9 355.291   5
  -2  -1  -4 12813.7 337.948   9
   2  -1   4 13457.6 373.646   8
  -2  -1  -4 12916.5 292.022   7
   2  -1   4 12903.7 355.257   2
   2   1   4 12637.1 359.211   2
  -2  -1  -4 13006.8 252.886   3
  -2   1  -5 29153.7 601.769   9
  -2  -1  -5 28498.9 602.714   9
  -2   1  -5 28131.3 628.125   5
   2  -1   5 28668.3 651.997   8
   2   1   5 28982.0 667.085   8
  -2  -1  -5 28640.4 530.638   7
   2   1   5 29149.3 643.083   2
  -2  -1  -5 29402.8 621.899   5
  -2  -1  -5 29149.0 516.439   3
   2  -1   5 28559.8 628.478   2
  -2   1  -5 29556.0 570.348   3
  -2  -1  -6 3423.73 138.969   9
  -2   1  -6 3511.00 134.362   9
  -2   1  -6 3499.37 156.208   5
  -2  -1  -6 3198.01 83.1484   7
   2   1   6 3534.01 175.977   8
   2  -1   6 3543.50 169.458   8
   2  -1   6 3459.38 155.431   2
   2   1   6 3719.14 164.604   2
  -2   1  -6 3509.21 95.7165   7
  -2  -1  -6 3570.40 103.110   3
  -2   1  -6 3579.81 130.734   3
  -2  -1  -6 3274.28 145.338   5
  -2  -1  -7 11939.7 303.277   5
  -2  -1  -7 11175.7 277.586   9
   2   1   7 11378.4 349.408   8
  -2   1  -7 11491.5 269.283   9
  -2   1  -7 11058.0 307.100   5
   2   1   7 11734.6 319.650   2
   2  -1   7 11351.0 338.453   8
   2  -1   7 11315.7 309.268   2
  -2  -1  -7 11777.7 249.510   3
  -2   1  -7 11859.4 281.732   3
  -2  -1  -8 879.196 59.2406   9
  -2  -1  -8 961.896 72.3483   5
  -2   1  -8 937.177 74.0920   5
  -2   1  -8 949.035 54.8105   9
   2  -1   8 826.307 79.6485   8
   2   1   8 840.111 84.1963   8
   2  -1   8 910.583 73.9203   2
   2   1   8 880.256 75.0997   2
  -2  -1  -8 847.323 55.7587   3
  -2   1  -8 842.510 65.4474   3
  -2  -1  -9 2642.96 100.318   9
  -2   1  -9 2553.23 86.3669   9
  -2   1  -9 2545.40 124.691   5
   2  -1   9 2495.89 141.994   8
   2  -1   9 2627.50 127.284   2
   2   1   9 2694.75 154.575   8
  -2  -1  -9 2559.42 111.275   3
  -2   1  -9 2479.78 123.959   3
   2   1   9 2479.37 125.491   2
  -2  -1  -9 2511.29 119.627   5
  -2  -1 -10 37680.5 737.507   5
   2  -1  10 36075.1 794.415   8
   2   1  10 36631.2 816.095   8
  -2  -1 -10 37662.6 682.539   9
   2  -1  10 37917.2 755.503   2
   2   1  10 38536.2 760.167   2
  -2   1 -10 37046.4 748.306   5
  -2   1 -10 37391.8 770.441   3
   2  -1  11 17251.7 426.842   6
  -2  -1 -11 16632.3 389.354   5
  -2   1 -11 16732.5 394.612   5
   2  -1  11 15607.9 431.565   8
   2   1  11 15477.1 445.684   8
   2  -1  11 16749.8 401.768   2
   2   1  11 17219.8 403.055   2
  -2  -1 -11 16737.5 332.758   9
  -2   1 -11 16114.7 432.111   3
   2   1  12 9.55454 12.4103   2
  -2   1 -12 17.4865 18.6766   3
   2  -1  12 12.8988 18.3744   8
  -2  -1 -12 52.6963 21.4943   5
  -2   1 -12 2.91885 12.0618   5
   2  -1  12 59.3327 24.0361   2
   2   1  12 1.29405 25.5468   8
   2  -1  12 18.8588 18.5570   6
   2   1  12 42.2484 20.0581   6
   2  -1  13 1577.51 109.886   6
   2   1  13 1541.57 113.490   6
  -2   1 -13 1545.85 92.6205   5
   2   1  13 1627.23 96.6205   2
   2  -1  13 1402.48 103.991   8
   2   1  13 1382.33 108.109   8
   2  -1  13 1489.98 95.0082   2
  -2  -1 -13 1481.23 89.7511   5
  -2   1 -13 1453.06 118.507   3
   2   1  14 8.82959 18.1780   2
  -2   1 -14-5.49543 21.9678   3
  -2  -1 -14 20.3216 19.5858   5
   2  -1  14 39.2950 25.3417   8
   2   1  14-5.14159 19.6837   8
  -2   1 -14 13.0393 18.3209   5
   2   1  14-6.57026 19.4446   6
   2  -1  14 9.15817 19.8841   6
  -2   1 -15 612.972 60.1344   5
  -2  -1 -15 581.400 60.1962   5
   2  -1  15 594.117 73.5678   6
   2   1  15 595.274 76.2396   6
  -2  -1 -16 1224.29 89.9812   5
  -2   1 -16 1175.01 86.2527   5
   2  -1  16 1207.52 107.973   6
   2   1  16 1450.36 120.074   6
  -2  -1 -17 920.212 82.9674   5
  -2   1 -17 960.352 81.9298   5
   2  -1  17 1180.26 110.146   6
   2   1  17 1141.13 111.071   6
   2  -1  18 424.238 68.7095   6
   2   1  18 341.097 64.0548   6
  -2  -1 -18 334.335 53.0663   5
  -2   1 -18 348.157 53.5293   5
  -2  -1 -19 1074.29 97.2243   5
  -2   1 -19 1142.85 98.1655   5
   2  -1  19 1286.10 127.523   6
   2   1  19 1159.02 121.336   6
   2  -1  20 583.656 91.4850   6
  -2  -1 -20 588.488 76.6495   5
  -2   1 -20 547.463 73.3640   5
   2   1  20 557.447 89.1705   6
   2  -1  21 450.494 86.9060   6
  -2   1 -21 479.319 73.2954   5
   2   2 -22 8.21973 35.6480   2
  -2  -2  22 118.534 60.4359  10
  -2   2  21 1282.85 159.247  10
   2   2 -21 1236.79 152.765   2
  -2  -2  21 1523.02 176.667   7
  -2  -2  21 1179.60 149.767  10
  -2   2  21 1414.43 184.567   6
  -2  -2  20 1061.37 165.251   6
  -2  -2  20 948.040 130.362  10
  -2   2  20 1218.75 162.427   6
   2   2 -20 1125.63 141.714   2
  -2  -2  20 1206.13 156.698   7
  -2   2  20 1319.86 156.748  10
  -2  -2  19 45.3043 51.5475   6
  -2  -2  19 12.8867 36.5380  10
  -2   2  19 59.0871 45.3439  10
  -2   2  19-12.2545 37.6444   6
   2   2 -19 68.9344 53.1679   2
  -2  -2  19-6.41288 39.1144   7
  -2  -2  18 1061.06 149.734   6
   2   2 -18 996.937 127.347   2
  -2   2  18 1106.61 131.826  10
  -2  -2  18 1143.92 130.833  10
  -2   2  18 1140.35 148.510   6
  -2  -2  18 1320.14 159.689   7
  -2  -2  17 5185.05 276.241  10
  -2   2  17 5008.70 281.841  10
  -2   2  17 5173.99 309.888   6
  -2  -2  17 6132.46 340.225   7
  -2  -2  17 5139.10 325.364   6
   2  -2 -17 5459.26 277.780   2
   2   2 -17 4854.25 277.826   2
  -2   2  16 142.709 56.3349   6
   2   2 -16 154.559 56.5848   2
  -2  -2  16 96.6758 48.4078  10
  -2   2  16 137.309 53.1725  10
  -2  -2  16 83.1956 45.6358   6
  -2  -2  16 191.563 60.5716   7
   2  -2 -16 164.388 45.1107   2
   2   2 -15 41.6433 31.8789   2
  -2   2  15 120.701 53.1195  10
  -2   2  15 31.9421 32.5742   6
  -2  -2  15 56.5232 27.3253  10
  -2  -2  15 100.591 48.6051   6
  -2  -2  15 76.9455 47.7290   7
   2  -2 -15 44.5992 25.2078   2
  -2  -2  14 295.857 74.7644   6
  -2  -2  14 305.909 59.7643  10
   2   2 -14 321.076 66.1124   2
  -2  -2  14 345.918 79.9743   7
  -2   2  14 153.477 52.2492   6
  -2   2  14 306.800 60.6717  10
   2  -2 -14 389.805 67.1297   2
  -2  -2  13 196.662 50.8052  10
  -2   2  13 140.397 42.3983  10
   2   2 -13 230.354 56.9509   2
  -2   2  13 136.158 49.4737   6
  -2  -2  13 130.783 45.4910   7
  -2  -2  13 113.692 43.3417   6
   2  -2 -13 193.358 49.2271   2
  -2  -2  12 2841.55 171.370  10
  -2   2  12 2665.46 175.299  10
  -2  -2  12 2724.99 203.990   7
  -2  -2  12 2978.40 210.949   6
  -2   2  12 2635.68 185.628   6
   2  -2 -12 2733.95 170.690   2
   2   2 -12 2606.28 176.024   2
  -2   2  11 3841.83 211.777  10
  -2  -2  11 4242.96 250.051   7
  -2  -2  11 4017.85 202.313  10
  -2  -2  11 4194.99 245.942   6
  -2   2  11 4106.32 228.034   6
   2  -2 -11 4032.82 207.133   2
   2   2 -11 4162.21 166.902   8
   2   2 -11 3985.79 215.180   2
   2   2 -10 8.36508 14.4063   8
  -2  -2  10 4.20883 18.4772  10
  -2   2  10 12.6167 30.8249  10
  -2   2  10 22.3931 30.3458   6
  -2  -2  10-41.6317 32.3887   6
   2   2 -10 15.6008 18.0803   2
   2  -2 -10 54.5424 15.7044   8
  -2  -2  10 10.5238 22.8966   7
   2  -2 -10 6.89796 19.9674   2
   2   2  -9 451.284 68.7398   2
  -2  -2   9 428.772 62.4097  10
  -2   2   9 303.799 59.5880  10
   2  -2  -9 331.285 35.4900   8
  -2   2   9 342.454 64.5738   6
  -2  -2   9 344.369 71.2342   6
   2   2  -9 368.799 46.9899   8
  -2  -2   9 473.194 79.8264   7
   2  -2  -9 242.282 50.5707   2
  -2  -2   8 4917.81 210.536  10
  -2   2   8 4611.81 222.190  10
   2   2  -8 5399.12 198.490   8
   2  -2  -8 5153.27 165.431   8
   2  -2  -8 5170.43 224.066   2
  -2  -2   8 4690.07 248.525   6
  -2   2   8 4706.16 230.312   6
   2   2  -8 5025.77 231.004   2
  -2  -2   7 85.6846 42.4972   6
  -2  -2   7 48.1690 26.0707  10
  -2   2   7 66.8693 32.5581   6
   2  -2  -7 33.2154 12.3512   8
   2   2  -7 40.8357 23.2175   8
   2  -2  -7 57.3511 20.0637   4
   2  -2  -7 36.5861 24.5292   2
  -2   2   7 78.4999 37.3255  10
   2   2  -7 15.5236 20.4121   2
  -2   2   6 23449.7 594.777  10
  -2  -2   6 23562.2 633.725   6
   2  -2  -6 24020.4 515.939   8
  -2  -2   6 24229.6 568.764  10
   2   2  -6 23955.5 550.976   8
   2  -2  -6 25651.1 522.996   4
   2  -2  -6 24041.3 581.583   2
  -2   2   6 23128.0 596.812   6
   2   2  -6 23661.5 598.138   2
  -2  -2   5 80071.7 1477.57  10
  -2   2   5 80980.5 1521.24  10
   2  -2  -5 81024.7 1427.82   8
   2   2  -5 81163.1 1465.10   8
   2   2  -5 75653.9 1322.71   4
   2  -2  -5 82139.3 1429.47   4
   2  -2  -5 80668.4 1497.05   2
  -2   2   5 79671.7 1514.39   6
   2   2  -5 80829.8 1520.38   2
  -2   2   4 32267.5 741.480  10
  -2  -2   4 33205.1 708.981  10
   2  -2  -4 33485.7 679.120   8
   2   2  -4 32605.5 704.017   8
   2  -2  -4 33730.9 680.844   4
   2  -2  -4 32116.7 722.566   2
   2   2  -4 32450.9 741.483   2
  -2  -2   3 66.0958 26.7014  10
  -2   2   3 63.2251 32.2655  10
   2  -2  -3 33.8226 16.8947   8
   2   2  -3 26.3967 18.2618   8
   2  -2  -3 26.6745 20.2980   2
   2  -2  -3 60.9276 23.8765   4
  -2  -2   3 74.4145 22.2630   1
   2   2  -3 51.3176 31.7417   2
  -2  -2   2 1241.64 90.1528  10
   2  -2  -2 1191.33 85.9189   8
  -2   2   2 1247.86 103.400  10
   2   2  -2 1183.42 93.3222   8
  -2  -2   2 1164.32 96.2151   7
  -2  -2   2 1234.45 76.1589   1
   2  -2  -2 1100.70 90.4394   2
   2   2  -2 1091.26 75.9839  11
   2   2  -2 1257.46 103.403   2
  -2  -2   1 30.1896 21.1119  10
   2  -2  -1 29.8334 20.7537   2
  -2   2   1-31.9361 29.0552  10
   2  -2  -1 41.9426 21.8186   8
   2   2  -1 32.0016 23.1334   8
  -2   2   1 11.6714 6.54752   1
   2   2  -1 6.07441 21.4733   2
   2  -2  -1 8.47168 21.1905  11
  -2  -2   1 39.1467 21.5364   7
  -2  -2   1 28.5478 16.3952   1
   2   2   0 487.598 65.6021   2
  -2   2   0 472.366 62.2167  10
  -2  -2   0 466.500 54.2695  10
  -2  -2   0 494.633 42.8903   1
  -2  -2   0 411.929 58.5268   9
   2  -2   0 520.708 59.3463   8
   2  -2   0 539.667 66.8394  11
   2  -2   0 555.522 61.5614   2
   2   2   0 491.918 60.3865   8
  -2  -2   0 451.716 53.8773   7
  -2  -2  -1 50660.8 960.564  10
  -2  -2  -1 48047.3 977.978   9
  -2  -2  -1 48607.1 942.021   7
   2  -2   1 48899.9 969.192   8
   2   2   1 49568.4 992.833   8
  -2   2  -1 48529.6 997.169  10
   2  -2   1 48759.2 971.337   2
   2   2   1 49408.6 998.332   2
  -2   2  -2 990.594 89.8865  10
  -2  -2  -2 1155.80 84.8301   5
  -2  -2  -2 1082.58 87.1404   9
   2  -2   2 1216.03 92.1619   8
   2   2   2 1219.10 98.0659   8
  -2  -2  -2 1096.32 74.3752   7
   2  -2   2 1182.11 89.9684   2
   2   2   2 923.592 84.9221   2
  -2  -2  -2 1114.89 45.1745   3
   2   2   3 987.831 91.2114   8
  -2   2  -3 992.810 70.7749   3
  -2  -2  -3 1028.31 81.4229   9
   2  -2   3 1065.50 84.8075   2
  -2   2  -3 1174.85 96.2163  10
  -2   2  -3 977.555 84.8572   5
   2  -2   3 1119.31 89.7410   8
   2  -2   3 898.892 44.5478   1
  -2  -2  -3 1063.21 80.8064   5
  -2  -2  -3 1048.49 65.4637   7
   2   2   3 1086.31 90.9953   2
  -2   2  -4 1001.50 70.4933   3
  -2  -2  -4 1020.11 59.1815   7
  -2  -2  -4 990.104 77.9014   9
  -2   2  -4 929.845 81.9716   5
   2   2   4 1002.84 90.5382   8
   2  -2   4 1004.15 79.5601   2
  -2  -2  -4 927.681 73.8370   5
   2   2   4 961.201 84.5652   2
   2  -2   4 980.480 84.7032   8
   2  -2   4 1015.50 55.9707   1
  -2  -2  -5 5842.31 200.209   9
  -2  -2  -5 5685.59 194.871   5
   2  -2   5 5872.39 221.357   8
   2   2   5 5839.14 236.460   8
   2  -2   5 5332.55 201.229   2
  -2   2  -5 5492.69 211.301   5
  -2  -2  -5 5779.15 146.646   7
   2   2   5 5620.11 216.500   2
  -2   2  -5 5643.77 185.169   3
   2   2   6 30.9780 15.3852   2
   2  -2   6 54.7807 21.8305   2
  -2   2  -6 53.3296 27.7543   5
  -2   2  -6 20.9984 15.7077   9
   2  -2   6 56.0254 21.5515   8
  -2   2  -6 76.3113 23.2099   3
   2   2   6 67.5614 29.5769   8
  -2  -2  -6 62.0754 26.4655   9
  -2  -2  -6 29.2501 16.0006   5
  -2  -2  -6 57.9558 10.6606   7
  -2   2  -7 1400.42 75.1815   9
  -2  -2  -7 1592.84 91.6206   5
  -2   2  -7 1502.93 98.6244   5
  -2  -2  -7 1525.27 89.1737   9
   2  -2   7 1473.38 105.033   8
   2   2   7 1401.50 113.123   8
   2  -2   7 1486.11 96.6466   2
   2   2   7 1534.85 101.674   2
  -2   2  -7 1653.74 95.9771   3
  -2  -2  -8 562.225 50.4225   9
  -2   2  -8 541.039 39.8088   9
   2  -2   8 563.177 57.4746   2
  -2  -2  -8 524.063 52.4188   5
   2   2   8 476.364 66.6006   8
  -2   2  -8 510.597 55.4070   5
   2   2   8 463.294 53.1600   2
   2  -2   8 440.966 57.4335   8
  -2   2  -8 497.492 53.9658   3
   2  -2   9 199.096 35.2548   2
  -2   2  -9 152.208 18.0322   9
  -2  -2  -9 187.903 29.4523   9
  -2   2  -9 172.593 34.7358   3
  -2   2  -9 178.332 34.2839   5
   2  -2   9 157.776 34.2480   8
   2   2   9 133.063 36.2991   8
   2   2   9 183.379 35.8276   2
  -2  -2  -9 217.643 34.0036   5
   2  -2  10 10653.4 302.952   6
  -2  -2 -10 10743.2 253.259   9
  -2  -2 -10 10866.6 281.748   5
  -2   2 -10 10578.2 293.156   5
   2  -2  10 10086.6 317.067   8
   2   2  10 9989.00 342.334   8
   2   2  10 11189.8 302.027   2
  -2   2 -10 10809.0 319.211   3
   2  -2  10 10688.9 296.359   2
   2  -2  11 2076.90 117.605   6
  -2  -2 -11 2000.58 82.8211   9
  -2   2 -11 1983.87 107.407   5
   2  -2  11 1886.13 120.011   8
  -2  -2 -11 2005.56 102.428   5
   2   2  11 2085.22 109.984   2
   2   2  11 2008.57 135.913   8
  -2   2 -11 1921.01 124.804   3
   2  -2  11 1897.89 106.277   2
   2  -2  12 1510.66 103.349   6
   2   2  12 1358.84 107.590   6
  -2  -2 -12 1396.80 85.4176   5
   2   2  12 1553.33 93.1808   2
  -2   2 -12 1289.94 85.5908   5
   2  -2  12 1328.61 99.9403   8
   2   2  12 1491.56 116.947   8
   2  -2  12 1351.76 90.5624   2
  -2   2 -12 1460.76 114.532   3
   2   2  13 607.664 72.8688   6
  -2   2 -13 521.034 74.3012   3
  -2  -2 -13 537.781 54.6611   5
  -2   2 -13 715.957 63.7869   5
   2  -2  13 537.036 59.0707   2
   2   2  13 751.844 65.0095   2
   2   2  13 591.214 72.8002   8
   2  -2  13 638.995 68.8150   8
   2  -2  13 587.879 68.6771   6
   2   2  14 1873.53 131.115   6
   2  -2  14 1846.82 117.154   8
  -2   2 -14 1936.61 104.963   5
   2   2  14 2129.10 111.539   2
  -2  -2 -14 1941.19 106.337   5
  -2   2 -14 1654.94 136.502   3
   2  -2  14 1904.44 124.799   6
  -2   2 -15 434.376 74.7841   3
   2  -2  15 404.337 59.3059   6
   2   2  15 437.638 67.8173   6
  -2  -2 -15 441.974 52.4844   5
  -2   2 -15 385.448 48.1507   5
  -2   2 -16 755.366 69.7463   5
  -2  -2 -16 763.663 72.3936   5
  -2   2 -16 744.264 101.188   3
   2  -2  16 788.889 87.0738   6
   2   2  16 951.550 97.8312   6
  -2  -2 -17 1793.52 116.050   5
  -2   2 -17 1975.23 117.638   5
   2  -2  17 2040.65 146.383   6
   2   2  17 2298.74 158.929   6
  -2  -2 -18 8584.29 291.174   5
  -2   2 -18 8265.84 279.122   5
   2  -2  18 9000.88 343.524   6
   2   2  18 9096.77 348.902   6
  -2  -2 -19 922.583 92.2793   5
  -2   2 -19 777.657 81.1946   5
   2   2  19 904.761 107.578   6
   2  -2  19 958.114 110.893   6
   2   2  20 133.655 45.6465   6
  -2   2 -20 150.223 45.2322   5
  -2  -2 -20 124.520 42.8938   5
   2  -2  20 170.086 54.5586   6
   2  -2  21 266.884 68.3661   6
  -2   2 -21 243.862 52.1680   5
  -2   3  21 56.8586 47.4074   6
   2   3 -21-41.1008 48.5518   2
  -2  -3  21-36.7605 49.3937   7
  -2  -3  20 1303.34 150.449  10
  -2   3  20 1607.24 174.250  10
  -2   3  20 1637.91 189.348   6
  -2  -3  20 1937.35 192.666   7
  -2  -3  20 1748.39 209.166   6
   2   3 -20 1449.14 164.021   2
   2   3 -19 3959.68 266.964   2
  -2  -3  19 3743.20 244.610  10
  -2   3  19 3720.56 262.612  10
  -2   3  19 4071.35 287.468   6
  -2  -3  19 4087.48 282.975   7
  -2  -3  19 4300.01 319.024   6
  -2  -3  18 1002.78 150.861   6
  -2   3  18 927.259 135.606   6
   2   3 -18 927.682 124.389   2
  -2  -3  18 961.719 120.592  10
  -2   3  18 708.169 110.430  10
  -2  -3  18 866.303 131.409   7
   2   3 -17 1409.52 148.238   2
  -2  -3  17 1272.43 134.713  10
  -2   3  17 1220.15 138.928  10
  -2  -3  17 1262.10 151.152   7
  -2  -3  17 1435.15 174.005   6
  -2   3  17 1241.32 147.814   6
   2   3 -16 314.694 74.5297   2
  -2  -3  16 240.737 53.1959  10
  -2   3  16 349.335 75.3159  10
  -2   3  16 280.778 70.2961   6
  -2  -3  16 504.157 97.0894   6
  -2  -3  16 315.005 73.7792   7
   2   3 -15 560.325 90.3462   2
  -2  -3  15 482.727 76.0105  10
  -2   3  15 734.282 103.413  10
  -2   3  15 710.660 104.043   6
  -2  -3  15 550.133 99.8939   7
  -2  -3  15 688.010 114.169   6
   2  -3 -15 565.856 81.6769   2
  -2   3  14 615.733 96.3594   6
   2   3 -14 783.434 102.969   2
  -2  -3  14 490.158 75.0379  10
  -2   3  14 637.308 92.5903  10
  -2  -3  14 694.813 110.260   6
  -2  -3  14 739.060 109.560   7
   2  -3 -14 572.314 79.1490   2
   2   3 -13 945.012 107.141   2
  -2  -3  13 959.157 100.790  10
  -2   3  13 1022.64 114.869  10
  -2  -3  13 1195.75 140.319   6
  -2  -3  13 1266.72 140.104   7
   2  -3 -13 1087.57 107.653   2
  -2   3  13 1049.86 117.135   6
   2   3 -12 1208.15 118.552   2
  -2  -3  12 1205.67 108.787  10
  -2  -3  12 1132.64 128.940   7
  -2   3  12 1086.66 115.019  10
  -2  -3  12 1177.93 134.803   6
   2  -3 -12 1133.59 107.097   2
  -2   3  12 1124.02 119.748   6
   2   3 -11 197.257 50.1400   2
  -2   3  11 243.354 57.0005  10
  -2   3  11 165.727 47.9994   6
  -2  -3  11 240.766 62.4752   6
   2   3 -11 186.484 38.6738   8
  -2  -3  11 207.029 48.5825  10
  -2  -3  11 146.097 50.9849   7
   2  -3 -11 175.507 41.4867   2
  -2  -3  10 569.173 90.3400   6
  -2   3  10 614.408 83.9393  10
   2   3 -10 767.324 71.8391   8
   2   3 -10 618.917 82.9723   2
  -2  -3  10 702.604 79.1784  10
  -2  -3  10 432.154 76.9197   7
  -2   3  10 580.857 79.7858   6
   2  -3 -10 643.216 79.3386   2
  -2  -3   9 439.675 77.4014   6
   2   3  -9 365.456 61.0385   2
  -2  -3   9 407.329 59.9827  10
  -2   3   9 414.897 70.3332  10
   2  -3  -9 388.391 38.2197   8
  -2   3   9 270.544 57.6386   6
   2   3  -9 399.190 55.0477   8
  -2  -3   9 405.749 76.6094   7
   2  -3  -9 416.777 62.6084   2
  -2  -3   8 3286.50 163.279  10
  -2   3   8 2914.58 173.574  10
   2   3  -8 2864.15 145.487   8
   2  -3  -8 2998.56 117.157   8
   2  -3  -8 3407.95 147.046   4
  -2  -3   8 2879.52 187.373   7
   2  -3  -8 3036.27 164.844   2
  -2  -3   8 2718.80 189.287   6
  -2   3   8 2693.79 167.208   6
   2   3  -8 3158.12 181.263   2
  -2  -3   7 1630.77 111.162  10
   2  -3  -7 1506.77 83.1070   8
   2   3  -7 1468.75 103.769   8
  -2   3   7 1513.21 123.984  10
   2  -3  -7 1630.18 99.0856   4
  -2  -3   7 1432.41 127.666   7
   2  -3  -7 1487.35 112.459   2
  -2  -3   7 1439.92 133.459   6
  -2   3   7 1567.32 122.915   6
   2   3  -7 1611.16 125.023   2
  -2  -3   6 4145.73 179.859  10
  -2   3   6 3963.36 201.604  10
   2   3  -6 3882.29 174.928   8
   2  -3  -6 4168.03 166.279   4
  -2  -3   6 4281.06 217.461   7
   2  -3  -6 4061.86 187.414   2
  -2   3   6 3791.46 191.715   6
   2   3  -6 3687.87 193.927   2
   2  -3  -6 4106.07 149.882   8
   2  -3  -5 1135.11 77.7460   8
  -2   3   5 886.530 91.6139  10
   2  -3  -5 1172.97 87.3203   4
   2   3  -5 1133.14 90.3864   8
  -2  -3   5 1317.51 113.383   7
  -2  -3   5 1015.33 83.4936  10
   2  -3  -5 1174.22 96.6410   2
  -2   3   5 1097.53 97.0895   6
   2   3  -5 932.180 94.5703   2
  -2  -3   4 1995.77 117.552  10
  -2   3   4 1953.93 137.544  10
   2  -3  -4 2268.57 113.891   8
   2  -3  -4 2124.02 121.959   4
  -2  -3   4 2136.36 141.312   7
   2  -3  -4 1840.38 120.787   2
   2   3  -4 1891.68 132.876   2
  -2  -3   4 2096.31 124.686   1
  -2  -3   3 660.703 65.6885  10
   2  -3  -3 704.838 63.1560   8
   2   3  -3 671.830 69.8288   8
  -2   3   3 664.495 78.2789  10
  -2  -3   3 715.204 78.2930   7
   2  -3  -3 652.034 69.5527   4
   2  -3  -3 664.200 69.5524   2
  -2  -3   3 746.850 69.0816   1
   2   3  -3 681.476 78.0635   2
  -2  -3   2 12478.0 330.372  10
  -2   3   2 11569.7 371.175  10
   2   3  -2 12570.3 303.843  11
  -2  -3   2 12073.8 371.339   9
   2  -3  -2 12238.0 328.789   8
  -2  -3   2 12095.7 328.038   1
  -2  -3   2 12277.4 357.241   7
   2   3  -2 12372.4 354.501   8
   2  -3  -2 12558.6 356.484   4
   2  -3  -2 11847.7 345.471   2
   2   3  -2 12323.9 374.429   2
  -2  -3   1 1635.96 99.0849  10
  -2  -3   1 1587.10 115.577   9
  -2   3   1 1565.50 119.807  10
   2   3  -1 1644.51 112.670   8
   2  -3  -1 1693.66 102.680   8
  -2  -3   1 1714.56 98.8299   1
  -2  -3   1 1610.53 107.832   7
   2  -3  -1 1626.47 106.857   2
   2   3  -1 1449.05 112.592   2
  -2  -3   0 66.5163 30.1260   9
  -2  -3   0 119.844 27.1565  10
   2  -3   0 123.098 29.7838   2
  -2  -3   0 109.250 24.3147   1
   2  -3   0 106.293 27.3337   8
   2   3   0 129.952 35.6968   8
   2   3   0 136.349 36.3909   2
  -2   3   0 168.941 46.6756  10
  -2  -3   0 143.979 32.1346   7
   2  -3   0 102.860 32.8259  11
  -2   3   0 120.226 18.2961   1
  -2   3  -1 18.4874 18.6732  10
  -2  -3  -1 4.50186 5.34893   3
   2  -3   1 31.9506 24.3418   2
  -2  -3  -1-2.99780 19.3680   9
   2  -3   1-25.3094 21.6460   8
  -2  -3  -1-11.2616 19.6005   5
   2   3   1 23.5294 17.9790   8
   2   3   1 4.07794 15.8619   2
  -2  -3  -1-3.55740 14.3236   7
  -2   3  -2 16777.6 446.040  10
  -2  -3  -2 15840.3 415.752   9
  -2  -3  -2 16278.2 396.076   5
   2  -3   2 16269.9 409.727   8
  -2   3  -2 15058.9 390.033   3
   2   3   2 16128.9 440.572   8
   2  -3   2 16794.0 414.770   2
  -2  -3  -2 15527.2 373.933   7
   2   3   2 16496.3 438.864   2
   2  -3   3 2437.71 126.881   2
  -2  -3  -3 2505.47 106.755   7
  -2  -3  -3 2374.33 128.163   9
  -2  -3  -3 2324.88 118.460   5
  -2   3  -3 2423.73 144.569  10
   2  -3   3 2312.73 128.556   8
   2  -3   3 2405.05 93.7370   1
   2   3   3 2353.02 142.962   8
  -2   3  -3 2184.42 117.833   3
   2   3   3 2361.87 138.280   2
  -2   3  -4 29409.4 613.660   3
  -2  -3  -4 28662.1 599.620   5
  -2   3  -4 28494.5 642.680   5
   2  -3   4 28510.4 632.752   8
   2   3   4 28859.2 674.192   8
  -2  -3  -4 28090.7 618.317   9
   2  -3   4 28545.2 621.294   2
  -2  -3  -4 28942.8 558.140   7
   2  -3   4 29488.8 568.528   1
   2   3   4 28655.6 649.355   2
  -2   3  -5 18137.7 460.209   5
  -2  -3  -5 17951.7 435.305   9
  -2  -3  -5 18308.2 421.849   5
   2  -3   5 18151.8 459.081   8
   2   3   5 18844.2 496.889   8
   2  -3   5 17685.1 437.768   2
  -2  -3  -5 19353.1 375.877   7
   2   3   5 18880.1 470.251   2
   2  -3   5 19032.5 417.936   1
  -2   3  -5 18389.3 438.911   3
  -2  -3  -6 16243.5 393.835   9
   2  -3   6 15906.4 423.321   8
   2  -3   6 15926.8 402.716   2
  -2  -3  -6 16592.0 386.524   5
   2   3   6 16792.4 465.253   8
   2   3   6 16543.2 431.248   2
  -2  -3  -6 17571.7 330.404   7
  -2   3  -6 16148.0 424.025   5
  -2   3  -6 16911.1 409.130   3
   2   3   7 389.467 51.6800   2
  -2   3  -7 389.728 51.1751   3
  -2   3  -7 423.777 41.1375   9
  -2  -3  -7 405.289 45.7909   5
  -2  -3  -7 401.524 28.5818   7
  -2   3  -7 406.886 52.6835   5
   2  -3   7 319.504 49.3462   8
   2  -3   7 410.023 49.2246   2
   2   3   7 345.935 61.3737   8
  -2  -3  -7 404.386 46.9388   9
   2  -3   8 194.471 33.7217   2
  -2  -3  -8 202.656 34.6388   9
   2   3   8 214.972 37.3112   2
  -2   3  -8 162.865 33.2342   3
  -2  -3  -8 246.989 36.5710   5
  -2   3  -8 205.377 38.0052   5
   2  -3   8 158.776 40.3890   8
   2   3   8 170.929 41.5257   8
  -2   3  -8 222.149 26.8873   9
   2  -3   9 31215.0 642.817   6
  -2  -3  -9 31256.9 624.618   5
  -2   3  -9 30969.9 652.301   5
   2   3   9 30534.6 729.452   8
   2  -3   9 29725.8 675.083   8
   2  -3   9 31324.5 649.175   2
   2   3   9 31876.3 658.636   2
  -2  -3  -9 31071.5 612.507   9
  -2   3  -9 31167.5 681.896   3
   2  -3  10 8028.56 247.279   6
   2   3  10 7568.95 293.511   8
  -2  -3 -10 8113.60 216.065   9
  -2   3 -10 7667.25 242.261   5
   2  -3  10 7637.86 262.853   8
   2  -3  10 7948.96 245.383   2
   2   3  10 8372.08 249.221   2
  -2  -3 -10 8094.84 226.933   5
  -2   3 -10 7892.84 273.066   3
   2  -3  11 23450.9 532.819   6
  -2  -3 -11 23590.8 475.975   9
   2   3  11 24508.7 523.236   2
   2  -3  11 23059.2 552.476   8
   2   3  11 23533.9 603.878   8
  -2  -3 -11 23761.1 501.792   5
  -2   3 -11 23397.4 519.354   5
   2  -3  11 24315.7 527.812   2
  -2   3 -11 23619.7 583.390   3
   2   3  12 15962.2 439.369   6
  -2  -3 -12 16055.3 337.777   9
  -2  -3 -12 14878.2 362.992   5
   2  -3  12 14774.1 405.979   8
   2  -3  12 16141.3 391.418   2
   2   3  12 14557.3 444.419   8
  -2   3 -12 14795.2 370.586   5
  -2   3 -12 15171.6 447.548   3
   2   3  12 16408.1 381.728   2
   2  -3  12 15134.2 397.435   6
   2   3  13 6863.84 265.269   6
  -2   3 -13 6715.61 215.631   5
   2   3  13 7237.83 219.746   2
   2   3  13 6296.38 262.633   8
  -2  -3 -13 6695.83 213.175   5
  -2   3 -13 6547.20 280.058   3
   2  -3  13 6727.22 241.200   6
  -2   3 -14 26.7531 20.1724   5
   2  -3  14 9.27934 15.8774   6
   2   3  14 59.5966 21.5015   2
  -2  -3 -14 104.184 31.9944   5
  -2   3 -14 18.7839 29.3658   3
   2   3  14 60.8080 30.6838   6
   2   3  15 159.141 41.4139   6
  -2   3 -15 160.746 49.3303   3
  -2  -3 -15 253.019 42.0408   5
   2  -3  15 249.494 48.4805   6
  -2   3 -15 157.899 32.9118   5
  -2   3 -16 628.963 95.4149   3
  -2  -3 -16 564.938 63.5693   5
  -2   3 -16 599.409 61.6384   5
   2  -3  16 503.290 70.3170   6
   2   3  16 653.558 84.0021   6
  -2   3 -17 16.6683 26.2245   3
   2  -3  17 30.3344 22.9168   6
  -2  -3 -17 15.7264 19.8658   5
  -2   3 -17 23.8823 20.8940   5
   2   3  17 34.0339 26.4059   6
  -2  -3 -18 1237.23 103.468   5
  -2   3 -18 1352.35 100.308   5
   2  -3  18 1373.67 126.219   6
   2   3  18 1372.02 128.330   6
  -2   3 -19 833.882 82.1487   5
  -2  -3 -19 767.877 86.0061   5
   2  -3  19 916.178 109.266   6
   2   3  19 928.475 111.039   6
  -2  -3 -20 4259.01 221.433   5
  -2   3 -20 4256.64 203.554   5
   2  -3  20 4027.93 245.516   6
   2   3  20 4741.55 265.247   6
  -2   3 -21 3125.59 180.481   5
   2  -3  21 3137.15 225.326   6
  -2   4  21 69.9652 55.8585   6
   2   4 -21 212.859 65.4195   2
  -2  -4  21 171.833 70.0158   7
   2   4 -20-5.47530 36.3190   2
  -2   4  20 33.6368 47.5316  10
  -2  -4  20 10.0704 57.6685   6
  -2   4  20 5.81033 43.4787   6
  -2  -4  20 70.6532 53.8268   7
   2   4 -19 1546.41 167.876   2
  -2   4  19 1332.51 159.441  10
  -2  -4  19 1591.26 172.801   7
  -2  -4  19 1534.22 195.945   6
  -2   4  19 1343.82 164.838   6
   2   4 -18 3253.53 239.510   2
  -2  -4  18 3059.18 211.219  10
  -2   4  18 3092.45 236.136  10
  -2  -4  18 3484.46 254.679   7
  -2  -4  18 3232.05 274.288   6
  -2   4  18 2995.71 237.029   6
  -2   4  17 377.941 83.8850   6
   2   4 -17 511.192 91.8818   2
  -2  -4  17 461.949 80.0725  10
  -2   4  17 413.649 85.5358  10
  -2  -4  17 551.520 117.823   6
  -2  -4  17 607.743 107.570   7
   2   4 -16 7620.09 358.858   2
  -2  -4  16 8207.39 336.817  10
  -2   4  16 7724.98 362.191  10
  -2  -4  16 9214.28 409.896   7
  -2  -4  16 8244.42 422.806   6
  -2   4  16 7781.67 369.718   6
   2   4 -15 2681.47 198.548   2
  -2  -4  15 2772.37 180.937  10
  -2   4  15 2433.13 190.190  10
  -2  -4  15 3221.56 230.534   7
  -2  -4  15 2719.15 230.819   6
  -2   4  15 2475.58 195.297   6
  -2   4  14 437.519 79.4283   6
   2   4 -14 387.798 78.1443   2
  -2  -4  14 368.484 63.3176  10
  -2   4  14 332.120 76.1459  10
  -2  -4  14 370.515 80.7820   7
  -2  -4  14 408.957 87.8730   6
   2  -4 -14 345.925 63.5712   2
   2   4 -13 1181.22 124.084   2
  -2  -4  13 1246.86 114.313  10
  -2   4  13 874.220 108.307  10
  -2  -4  13 1186.70 135.210   7
   2  -4 -13 1008.07 101.429   2
  -2  -4  13 1222.66 146.286   6
  -2   4  13 1199.64 124.559   6
  -2  -4  12 190.234 60.3839   6
   2   4 -12 198.177 50.5421   2
  -2  -4  12 254.392 52.4075  10
  -2   4  12 228.630 59.0582  10
  -2   4  12 78.8430 39.6265   6
   2   4 -12 124.806 31.9891   8
  -2  -4  12 164.800 54.4983   7
   2  -4 -12 116.771 36.9933   2
   2   4 -11 3422.43 204.333   2
  -2  -4  11 3601.38 184.083  10
  -2   4  11 3072.10 195.069  10
   2   4 -11 3644.40 169.784   8
  -2  -4  11 3543.09 223.142   7
   2  -4 -11 3222.12 176.817   2
  -2  -4  11 3665.98 240.508   6
  -2   4  11 3143.57 193.337   6
   2   4 -10 4522.67 233.154   2
  -2  -4  10 4757.06 210.335  10
  -2   4  10 4582.22 235.720  10
   2   4 -10 4566.29 193.193   8
  -2  -4  10 4754.48 254.066   7
   2  -4 -10 4578.29 211.582   2
  -2  -4  10 4850.86 273.223   6
  -2   4  10 4764.25 234.704   6
  -2  -4   9 1003.97 90.3916  10
  -2   4   9 905.760 101.463  10
   2   4  -9 925.177 82.2106   8
  -2  -4   9 923.233 106.985   7
   2  -4  -9 797.054 82.9071   2
  -2  -4   9 1055.40 121.906   6
  -2   4   9 834.965 92.3096   6
   2   4  -9 868.398 96.4932   2
  -2  -4   8-29.3277 29.9071   6
   2   4  -8 8.51979 21.4968   2
  -2   4   8-3.09151 24.8743  10
  -2  -4   8-15.4885 16.9521  10
  -2   4   8 29.5610 26.1094   6
   2   4  -8-9.82034 17.7520   8
   2  -4  -8-0.60626 20.3124   2
   2  -4  -8-0.64913 18.3668   4
  -2  -4   8-17.9267 27.4738   7
  -2  -4   7 34.3389 27.9955   6
   2   4  -7 24.4349 25.7760   2
  -2   4   7 61.5517 34.0749   6
  -2  -4   7 22.3684 23.9866  10
  -2   4   7 12.2649 22.6766  10
   2   4  -7 15.5200 18.7451   8
   2  -4  -7 9.56159 14.1998   2
   2  -4  -7 17.0691 18.5927   4
  -2  -4   7 22.9835 28.1302   7
  -2  -4   6 847.459 92.7301   9
   2  -4  -6 882.997 63.8434   8
   2   4  -6 730.092 73.3419   8
  -2  -4   6 873.435 77.0738  10
  -2   4   6 663.820 84.1239  10
   2  -4  -6 805.170 74.7491   4
  -2  -4   6 786.135 90.9008   7
   2  -4  -6 754.931 76.4552   2
  -2   4   6 686.694 77.3818   6
   2   4  -6 729.560 85.1261   2
  -2  -4   5 891.796 76.2939  10
  -2   4   5 944.419 97.1793  10
   2  -4  -5 1009.54 69.9387   8
  -2  -4   5 935.586 96.8966   9
   2   4  -5 955.284 84.2292   8
   2  -4  -5 955.432 83.0226   4
  -2  -4   5 1121.00 102.142   7
   2  -4  -5 852.284 79.6227   2
  -2  -4   5 920.959 90.2048   1
   2   4  -5 835.905 88.8057   2
  -2  -4   4 81.3610 31.4535   1
  -2  -4   4 13.8536 25.0136   9
   2  -4  -4 35.9698 18.7400   2
   2  -4  -4 40.3488 19.4025   8
  -2  -4   4 18.0662 16.2812  10
   2  -4  -4 7.04291 16.6509   4
  -2  -4   4 77.1889 31.0267   7
   2   4  -4 57.0382 25.2520   8
   2   4  -4-5.03384 22.1026   2
  -2  -4   3 2480.15 122.426  10
  -2   4   3 2306.23 151.138  10
  -2  -4   3 2332.37 145.962   9
   2  -4  -3 2410.32 118.409   8
   2   4  -3 2135.84 129.983   8
   2  -4  -3 2092.14 131.908   4
  -2  -4   3 2119.04 135.920   7
  -2  -4   3 2219.62 133.211   1
   2  -4  -3 2121.67 123.960   2
   2   4  -3 2411.90 149.955   2
  -2  -4   2 0.43862 15.5494   1
  -2  -4   2 39.9259 51.8017   9
  -2   4   2-14.5059 28.6950  10
   2  -4  -2 4.20767 17.0573   2
  -2  -4   2 2.67381 16.9546  10
   2   4  -2 23.8901 18.5397   8
   2  -4  -2 4.00921 20.3160   4
  -2  -4   2 17.9087 18.4332   7
   2   4  -2 17.7304 25.3306   2
   2  -4  -2 69.7945 27.6089   8
  -2  -4   1 4001.48 153.881  10
  -2   4   1 3766.68 195.476  10
  -2  -4   1 3842.25 184.742   9
  -2  -4   1 4003.83 175.768   1
   2   4  -1 3789.01 180.217   8
  -2  -4   1 3880.56 172.241   7
   2  -4  -1 4070.23 194.154   4
   2  -4  -1 4141.23 176.047   2
   2   4  -1 4053.26 197.019   2
   2  -4  -1 4098.49 163.673   8
  -2  -4   0 4207.93 178.536   1
  -2  -4   0 4125.35 162.579   5
  -2  -4   0 4284.37 192.359   9
  -2   4   0 4313.65 207.400  10
   2  -4   0 4097.82 169.605   8
   2   4   0 4667.46 202.741   8
  -2  -4   0 4529.18 179.598   7
   2  -4   0 4439.88 182.120   2
   2   4   0 4432.16 204.897   2
  -2   4  -1 10977.0 349.083  10
  -2  -4  -1 10770.6 327.816   9
   2  -4   1 10443.3 346.946  11
  -2  -4  -1 10650.4 289.278   5
   2  -4   1 10677.3 305.945   8
   2   4   1 10904.6 340.623   8
   2  -4   1 10529.3 307.293   2
  -2  -4  -1 11260.3 301.500   7
   2   4   1 11448.5 350.717   2
  -2  -4  -1 10433.8 220.664   3
  -2   4  -2 19768.3 518.175  10
  -2   4  -2 19408.1 483.673   3
  -2  -4  -2 19757.4 494.609   9
  -2  -4  -2 20022.2 451.352   5
   2  -4   2 20567.1 429.100   1
   2  -4   2 20431.8 479.358   8
   2  -4   2 19830.3 472.685   2
   2   4   2 20348.1 520.922   8
  -2  -4  -2 20233.0 451.671   7
   2   4   2 21211.9 524.038   2
  -2   4  -3 8009.21 283.584  10
  -2  -4  -3 7354.30 251.168   9
  -2  -4  -3 7629.66 227.116   5
   2  -4   3 7996.52 223.659   1
  -2   4  -3 7500.75 253.011   3
   2  -4   3 7701.06 251.736   8
   2  -4   3 7415.28 240.322   2
   2   4   3 7356.19 276.234   8
  -2  -4  -3 7732.95 217.949   7
   2   4   3 7617.27 271.331   2
  -2   4  -4 3928.09 169.382   3
   2  -4   4 3612.38 163.467   8
  -2  -4  -4 3756.47 164.454   9
  -2  -4  -4 3851.87 146.067   5
  -2   4  -4 3842.28 176.651   5
   2   4   4 3560.46 186.310   8
   2  -4   4 3621.44 155.717   2
  -2  -4  -4 3934.31 134.369   7
   2  -4   4 3691.12 146.960   1
   2   4   4 3729.18 176.735   2
   2   4   5 1354.28 112.106   8
  -2   4  -5 1587.37 108.271   5
   2  -4   5 1704.83 109.021   8
   2  -4   5 1586.74 97.5396   2
  -2  -4  -5 1549.60 98.7140   9
  -2  -4  -5 1643.66 77.4225   7
   2   4   5 1702.38 114.175   2
   2  -4   5 1586.90 97.1285   1
  -2  -4  -5 1566.29 86.3193   5
  -2   4  -5 1623.38 107.491   3
  -2  -4  -6-5.84245 14.8304   5
   2  -4   6 8.09632 17.5705   1
  -2  -4  -6-7.88016 14.0521   9
   2   4   6 7.67493 19.9785   2
   2  -4   6-4.11915 11.7745   2
   2  -4   6 69.9013 31.3482   8
  -2   4  -6 23.2371 19.5890   5
  -2   4  -6-4.33003 14.8624   3
   2   4   6 37.6183 28.2844   8
  -2  -4  -6 6.49835 10.2047   7
  -2  -4  -7 889.737 70.4130   9
  -2  -4  -7 847.874 61.4980   5
  -2   4  -7 844.028 76.6185   5
   2  -4   7 783.723 76.3733   8
   2   4   7 766.461 86.4808   8
   2  -4   7 772.826 67.2291   2
   2   4   7 792.669 74.9621   2
  -2  -4  -7 894.370 51.4923   7
  -2   4  -7 787.049 75.0078   3
   2  -4   8 3139.34 130.128   6
  -2  -4  -8 3232.43 134.885   9
  -2  -4  -8 3260.68 126.874   5
   2  -4   8 3186.95 154.803   8
   2   4   8 2996.93 176.287   8
  -2   4  -8 2873.37 100.709   9
   2   4   8 3138.66 148.224   2
  -2   4  -8 3045.12 144.980   5
  -2  -4  -8 3307.26 105.097   7
   2  -4   8 3052.70 137.749   2
  -2   4  -8 3202.40 160.131   3
  -2   4  -9 284.137 52.2565   3
   2  -4   9 297.648 42.4038   2
   2   4   9 330.052 45.4292   2
  -2  -4  -9 248.794 35.0925   9
  -2  -4  -9 311.713 39.1471   5
  -2   4  -9 310.810 43.6536   5
   2  -4   9 339.120 52.9797   8
   2  -4   9 329.560 42.9479   6
   2   4   9 346.645 61.4695   8
  -2   4 -10 9.33176 22.8973   3
  -2  -4 -10 56.8907 22.2859   5
  -2  -4 -10-0.17345 15.3088   9
  -2   4 -10-15.2194 16.8356   5
   2  -4  10 4.09075 11.0322   2
   2   4  10 37.1732 31.9480   8
   2   4  10 13.3795 17.0668   2
   2  -4  10 28.9768 17.5425   6
  -2   4 -11 10566.7 297.393   5
  -2  -4 -11 10763.1 271.211   9
   2   4  11 10814.1 372.117   8
   2  -4  11 11287.5 307.215   2
   2   4  11 11822.6 303.340   2
  -2  -4 -11 11009.5 283.315   5
  -2   4 -11 10987.6 360.364   3
   2  -4  11 11084.8 308.136   6
  -2   4 -12 391.583 67.3525   3
  -2   4 -12 405.525 49.1619   5
  -2  -4 -12 384.638 39.9304   9
   2  -4  12 396.476 52.0661   6
   2  -4  12 472.229 55.2878   2
  -2  -4 -12 371.573 44.3485   5
   2   4  12 441.285 47.8353   2
   2   4  12 444.832 65.1338   6
   2   4  12 272.612 55.8309   8
  -2   4 -13 16.4262 20.0893   5
  -2  -4 -13 35.1880 19.0039   9
  -2   4 -13 14.9242 19.3190   3
   2   4  13 7.12633 13.7231   2
  -2  -4 -13 56.5032 22.1769   5
   2  -4  13 33.3925 23.3179   6
   2   4  13-18.9118 28.0454   8
   2   4  13-4.54208 20.8673   6
   2   4  14 5745.48 247.244   6
  -2  -4 -14 5302.93 191.379   5
  -2   4 -14 5189.08 187.897   5
  -2   4 -14 5070.45 260.816   3
   2  -4  14 5474.23 219.962   6
   2  -4  15 28.1674 20.7912   6
  -2   4 -15 84.8625 35.2239   3
   2   4  15 22.0271 23.7622   6
  -2  -4 -15 41.3662 20.0644   5
  -2   4 -15 59.4965 23.6938   5
  -2   4 -16 422.099 79.2631   3
   2   4  16 481.033 73.8349   6
  -2   4 -16 582.263 60.8479   5
  -2  -4 -16 470.139 60.8840   5
   2  -4  16 475.147 69.8817   6
  -2   4 -17 303.965 72.1695   3
   2  -4  17 181.628 47.8741   6
  -2  -4 -17 241.285 47.7321   5
  -2   4 -17 360.863 50.5280   5
   2   4  17 214.251 53.9498   6
   2  -4  18 287.638 62.5512   6
   2   4  18 341.297 69.0472   6
  -2  -4 -18 346.930 57.2189   5
  -2   4 -18 337.913 49.8550   5
   2  -4  19 681.039 96.0670   6
   2   4  19 621.971 92.2463   6
  -2  -4 -19 467.226 68.0240   5
  -2   4 -19 529.015 66.6529   5
  -2  -4 -20 1323.16 124.577   5
  -2   4 -20 1405.95 113.979   5
   2  -4  20 1282.53 138.101   6
   2   4  20 1321.97 140.204   6
  -2   4 -21 2611.38 164.568   5
   2  -4  21 2977.97 221.658   6
  -2  -5  21-6.41894 45.7258   7
  -2   5  20 1124.34 156.116   6
   2   5 -20 1078.63 145.695   2
  -2   5  20 1035.79 147.913  10
  -2  -5  20 1016.06 167.127   6
  -2  -5  20 1167.11 149.643   7
   2   5 -19 7130.54 381.942   2
  -2   5  19 6882.11 376.953  10
  -2  -5  19 7929.19 396.723   7
  -2  -5  19 7250.39 439.394   6
  -2   5  19 6969.42 382.334   6
   2   5 -18 3877.95 265.138   2
  -2   5  18 3936.87 270.742  10
  -2  -5  18 4613.04 293.254   7
  -2  -5  18 3850.74 306.373   6
  -2   5  18 3763.34 267.153   6
   2   5 -17 179.279 59.6529   2
  -2   5  17 135.718 63.5173  10
  -2  -5  17 52.0574 41.1228   6
  -2   5  17 34.3043 36.1929   6
  -2  -5  17 60.8618 38.6548   7
  -2   5  16 82.3698 49.2037  10
  -2   5  16 119.145 56.4395   6
   2   5 -16 23.0742 36.8436   2
  -2  -5  16 92.5124 53.1140   7
  -2  -5  16-24.3260 35.6964   6
  -2   5  15 22.0727 35.1742   6
  -2  -5  15 130.161 58.6998  10
  -2   5  15 13.5295 38.0527  10
  -2  -5  15 4.66127 38.7361   9
   2   5 -15 107.130 46.2792   2
  -2  -5  15 60.5147 42.8204   6
  -2  -5  15 75.7775 47.1678   7
   2   5 -14 5640.40 292.758   2
  -2  -5  14 5992.37 261.079  10
  -2   5  14 5384.34 288.410  10
  -2  -5  14 6082.81 316.547   7
  -2  -5  14 5505.16 274.782   9
  -2  -5  14 5333.10 327.001   6
  -2   5  14 5493.31 284.407   6
   2   5 -13 1198.18 130.817   2
  -2  -5  13 1246.83 113.086  10
  -2   5  13 1441.20 142.795  10
  -2  -5  13 1536.91 138.801   9
  -2  -5  13 1374.07 142.570   7
  -2  -5  13 1420.79 158.601   6
  -2   5  13 1241.43 126.966   6
  -2  -5  12 9.58665 41.1902   6
  -2   5  12 12.0471 22.1106   6
  -2  -5  12-23.3924 22.5965  10
  -2   5  12 14.9497 34.7734  10
  -2  -5  12 9.12062 30.1045   9
   2   5 -12 12.3319 17.7119   8
   2  -5 -12-34.0734 25.6408   2
  -2  -5  12-31.7191 35.0648   7
   2   5 -12-19.4185 28.3046   2
   2   5 -11 1666.42 144.439   2
  -2  -5  11 1572.60 116.519  10
  -2  -5  11 1655.37 141.182   9
  -2   5  11 1438.96 137.165  10
  -2  -5  11 1534.91 145.709   7
   2   5 -11 1680.58 116.075   8
   2  -5 -11 1507.41 115.158   2
  -2  -5  11 1574.76 158.261   6
  -2   5  11 1391.13 125.964   6
  -2  -5  10 367.424 78.4115   6
   2   5 -10 344.753 64.3695   2
  -2   5  10 363.652 71.2009  10
  -2  -5  10 348.505 54.8988  10
  -2  -5  10 398.276 71.1086   9
  -2   5  10 342.539 60.8518   6
   2   5 -10 340.359 50.1544   8
   2  -5 -10 333.020 53.1568   2
  -2  -5  10 317.080 67.1467   7
   2   5  -9 1986.75 151.321   2
  -2  -5   9 2102.30 126.927  10
  -2   5   9 2293.29 166.345  10
   2   5  -9 2045.98 129.072   8
  -2  -5   9 2356.12 162.144   9
  -2  -5   9 2214.57 165.989   7
   2  -5  -9 2189.84 133.753   2
  -2  -5   9 2202.32 179.995   6
  -2   5   9 2089.24 146.102   6
  -2  -5   8 7292.47 250.444  10
  -2   5   8 6581.09 291.310  10
  -2  -5   8 7276.91 295.584   9
   2   5  -8 7203.43 258.951   8
   2  -5  -8 7600.33 266.212   4
  -2  -5   8 7023.52 300.713   7
   2  -5  -8 7360.91 259.336   2
  -2  -5   8 7744.32 341.297   6
  -2   5   8 6416.91 267.413   6
   2   5  -8 7115.26 294.483   2
  -2  -5   7 11435.1 324.089  10
  -2  -5   7 11383.2 380.808   9
  -2   5   7 10550.8 380.570  10
   2   5  -7 10841.2 337.980   8
  -2  -5   7 11579.6 390.609   7
   2  -5  -7 11579.5 337.466   2
   2  -5  -7 12185.5 351.188   4
  -2   5   7 11040.5 357.670   6
  -2  -5   7 11935.2 409.377   1
   2   5  -7 10576.6 374.060   2
  -2  -5   6 13059.8 339.620  10
  -2   5   6 11313.8 397.255  10
   2   5  -6 12082.6 361.870   8
  -2  -5   6 12843.9 402.208   9
   2  -5  -6 12940.1 374.247   4
  -2  -5   6 12991.8 408.503   7
   2  -5  -6 12350.5 353.694   2
   2   5  -6 12771.9 396.230   3
  -2  -5   6 13284.2 421.128   1
  -2   5   6 12670.6 376.302   6
   2   5  -6 11465.8 390.739   2
  -2  -5   5 2541.86 122.525  10
   2   5  -5 2401.72 139.999   8
   2  -5  -5 2588.73 146.921   4
   2   5  -5 2205.83 75.4129   4
  -2  -5   5 2565.37 158.071   7
   2   5  -5 2296.10 141.745   3
   2  -5  -5 2190.32 126.548   2
  -2  -5   5 2194.02 148.441   9
  -2   5   5 2324.31 158.078  10
  -2  -5   5 2382.41 156.575   1
   2   5  -5 2228.86 151.842   2
   2  -5  -4 3940.94 189.099   4
  -2  -5   4 3832.56 149.905  10
  -2   5   4 3845.47 202.970  10
  -2  -5   4 3857.81 193.181   9
  -2  -5   4 3633.45 190.703   1
   2   5  -4 3768.06 178.416   8
  -2  -5   4 3943.78 194.290   7
   2  -5  -4 3630.64 162.892   2
   2   5  -4 3286.80 167.073   3
   2   5  -4 3571.17 194.016   2
  -2   5   3 1612.89 129.222  10
  -2  -5   3 1592.62 90.3642  10
  -2  -5   3 1619.11 120.125   9
   2  -5  -3 1695.57 98.5250   8
   2   5  -3 1531.03 111.518   8
  -2  -5   3 1714.97 124.726   1
   2  -5  -3 1671.67 121.622   4
  -2  -5   3 1532.60 114.204   7
   2  -5  -3 1731.70 107.517   2
   2   5  -3 1486.45 102.316   3
   2   5  -3 1499.69 120.125   2
  -2  -5   2 2842.42 121.801  10
  -2   5   2 2980.74 175.661  10
  -2  -5   2 2727.28 157.831   9
   2  -5  -2 3025.46 135.101   8
  -2  -5   2 2984.62 164.883   1
   2   5  -2 2815.01 154.757   8
   2  -5  -2 2948.41 165.457   4
  -2  -5   2 2805.57 152.571   7
   2  -5  -2 2733.59 138.790   2
   2   5  -2 2862.83 133.927   3
   2   5  -2 2755.14 164.629   2
  -2   5   1 2607.05 162.522  10
  -2  -5   1 2541.05 149.219   9
  -2  -5   1 2569.37 150.951   1
  -2  -5   1 2647.45 120.039   5
   2  -5  -1 2683.73 129.387   8
   2   5  -1 2553.28 148.430   8
   2  -5  -1 2407.30 128.640   2
   2  -5  -1 2543.09 157.307   4
  -2  -5   1 2564.68 139.059   7
   2   5  -1 2411.75 153.107   2
  -2  -5   0 4918.02 210.597   1
  -2  -5   0 4902.77 170.915   5
  -2  -5   0 4975.39 210.133   9
   2  -5   0 5131.34 189.610   8
   2   5   0 4968.43 214.900   8
   2  -5   0 4703.07 185.062   2
  -2   5   0 4823.03 227.166  10
   2  -5   0 5294.83 237.156   4
  -2  -5   0 4772.24 190.458   7
   2   5   0 5144.78 227.257   2
  -2  -5  -1 1328.06 100.880   9
  -2   5  -1 1204.26 106.950  10
  -2  -5  -1 1142.78 73.9343   5
   2  -5   1 1147.14 85.8967   8
   2  -5   1 1088.44 105.914   4
   2   5   1 1196.03 103.647   8
   2  -5   1 1206.36 106.556  11
   2  -5   1 1109.21 83.6419   2
  -2  -5  -1 1153.04 83.5183   7
   2   5   1 1308.81 108.978   2
  -2   5  -2 5645.12 241.911  10
   2  -5   2 6068.35 202.458   1
  -2  -5  -2 6047.82 226.276   9
   2  -5   2 6021.39 214.368   8
   2   5   2 5561.33 237.166   8
  -2   5  -2 5809.84 231.294   3
   2  -5   2 5746.08 203.674   2
   2  -5   2 5589.03 251.889  11
  -2  -5  -2 5981.66 200.549   7
   2   5   2 6121.53 245.718   2
  -2  -5  -2 5939.93 187.503   5
  -2   5  -3 136.830 39.2094  10
  -2   5  -3 137.757 34.5976   3
  -2  -5  -3 99.6475 31.6082   9
   2  -5   3 127.100 29.3184   2
   2  -5   3 123.587 29.6048   1
  -2  -5  -3 170.247 27.6296   5
   2  -5   3 187.260 37.5828   8
   2   5   3 151.385 37.2492   2
   2   5   3 125.326 34.1284   8
  -2  -5  -3 134.011 27.5878   7
  -2   5  -4 4480.48 198.190   3
  -2  -5  -4 4563.14 186.104   9
  -2  -5  -4 4463.84 154.708   5
  -2   5  -4 4772.07 203.082   5
   2  -5   4 4839.02 192.701   8
   2   5   4 4476.73 215.736   8
   2  -5   4 4789.61 187.899   1
   2  -5   4 4436.57 173.597   2
  -2  -5  -4 5111.94 164.721   7
   2   5   4 5138.38 213.733   2
  -2  -5  -5-17.7476 16.8260   9
   2   5   5-10.6886 18.4208   2
  -2  -5  -5 7.30379 12.3728   5
   2  -5   5 15.3390 23.0622   8
  -2   5  -5-28.2028 23.6851   5
  -2   5  -5-9.22739 18.9128   3
   2   5   5-20.6743 21.1562   8
   2  -5   5 6.57421 13.7849   1
   2  -5   5 30.6328 20.8926   2
  -2  -5  -5 13.2894 10.8849   7
   2  -5   6 51.8491 24.3058   1
   2  -5   6 31.1990 15.4589   2
  -2   5  -6 69.6879 28.8733   3
   2   5   6 19.1385 24.4424   2
  -2  -5  -6 108.285 42.7829   9
  -2  -5  -6 47.9699 17.7345   5
   2  -5   6 74.6396 30.4424   8
  -2   5  -6 48.6167 26.5709   5
   2   5   6 49.9915 26.2750   8
  -2  -5  -6 31.5217 12.7709   7
   2  -5   7 1301.29 74.9656   6
  -2  -5  -7 1321.79 88.7219   9
  -2  -5  -7 1236.75 72.8289   5
  -2   5  -7 1069.56 88.6854   5
   2   5   7 1163.80 109.003   8
   2  -5   7 1323.43 86.5107   2
   2   5   7 1249.85 94.3467   2
  -2  -5  -7 1310.24 72.4390   7
   2  -5   7 1241.83 103.196   1
  -2   5  -7 1241.62 102.194   3
   2  -5   8 1097.69 71.8506   6
  -2  -5  -8 1078.60 76.7923   9
  -2  -5  -8 1070.83 67.2419   5
   2   5   8 1049.34 104.483   8
   2  -5   8 1005.42 75.4759   2
   2   5   8 958.143 80.2118   2
  -2  -5  -8 1147.94 66.7217   7
  -2   5  -8 952.580 80.2293   5
   2  -5   8 1080.82 98.3756   1
  -2   5  -8 1112.51 97.3273   3
   2  -5   9 800.752 64.4157   6
  -2   5  -9 769.328 67.9381   5
  -2  -5  -9 731.278 61.3189   9
   2  -5   9 882.969 71.3730   2
  -2  -5  -9 812.085 58.6530   5
   2   5   9 863.061 73.0540   2
   2   5   9 758.412 89.0164   8
  -2   5  -9 853.008 87.5344   3
  -2  -5 -10 1381.47 80.8449   5
  -2   5 -10 1302.66 90.3709   5
   2  -5  10 1418.63 93.0604   2
  -2  -5 -10 1422.37 84.4534   9
   2   5  10 1234.86 117.862   8
   2   5  10 1496.38 92.5120   2
  -2   5 -10 1369.26 115.092   3
   2  -5  10 1397.20 88.0964   6
  -2  -5 -11 1184.30 76.7495   9
  -2   5 -11 1196.73 84.4334   5
   2  -5  11 1166.81 85.4125   2
   2   5  11 1117.39 111.803   8
   2   5  11 1232.26 80.2814   2
  -2  -5 -11 1293.27 79.3185   5
  -2   5 -11 969.758 101.153   3
   2  -5  11 1195.34 85.1420   6
  -2  -5 -12 3984.46 152.241   5
  -2   5 -12 3594.92 152.210   5
  -2  -5 -12 3815.49 143.266   9
   2   5  12 3903.35 213.341   8
   2   5  12 4199.68 153.696   2
  -2   5 -12 3630.52 205.043   3
   2  -5  12 4135.06 171.467   6
  -2  -5 -13 104.876 25.1638   5
  -2   5 -13 123.864 28.1575   5
  -2  -5 -13 79.7643 21.2139   9
   2   5  13 38.0677 21.9672   8
   2  -5  13 47.1328 15.9902   6
  -2   5 -13 84.9738 38.4415   3
   2   5  13 99.6899 34.8325   6
  -2   5 -14-14.0207 22.8951   3
   2  -5  14 14.2769 16.2865   6
   2   5  14 25.8112 23.5834   6
  -2  -5 -14 30.6064 19.0554   5
  -2   5 -14 24.5552 19.9947   5
   2   5  15 1210.99 113.621   6
  -2  -5 -15 1103.36 87.7943   5
  -2   5 -15 977.077 76.3133   5
  -2   5 -15 1111.25 127.529   3
   2  -5  15 1101.71 98.9379   6
  -2   5 -16 547.294 58.4748   5
  -2   5 -16 385.314 76.9147   3
  -2  -5 -16 592.874 67.9979   5
   2   5  16 570.349 83.1948   6
   2  -5  16 538.860 75.2608   6
   2   5  17 492.642 78.8530   6
  -2   5 -17 475.391 91.0893   3
   2  -5  17 438.153 71.6422   6
  -2   5 -17 486.404 58.3955   5
  -2  -5 -17 472.607 61.5608   5
  -2   5 -18 172.475 61.2655   3
   2  -5  18 139.285 45.7235   6
   2   5  18 198.309 54.6533   6
  -2  -5 -18 126.410 40.9520   5
  -2   5 -18 170.798 36.3310   5
  -2  -5 -19 2687.62 172.869   5
  -2   5 -19 2756.43 151.310   5
   2  -5  19 2503.78 189.411   6
   2   5  19 3026.91 205.993   6
  -2   5 -20 10397.5 338.788   5
   2  -5  20 10241.5 422.003   6
  -2   5 -21 3903.68 204.647   5
  -2   6  20 54.7820 50.1351   6
  -2  -6  20 162.326 66.3908   7
   2   6 -19 1566.23 175.855   2
  -2   6  19 1499.38 177.535  10
  -2  -6  19 1733.00 180.494   7
  -2  -6  19 1777.07 218.075   6
  -2   6  19 1786.43 187.876   6
   2   6 -18 148.472 58.2225   2
  -2   6  18 236.547 75.9038  10
  -2  -6  18 312.686 98.8958   6
  -2   6  18 258.925 73.3131   6
  -2  -6  18 230.462 73.3215   7
  -2   6  17 120.761 53.6249  10
  -2  -6  17 140.975 75.3693   6
   2   6 -17 129.296 48.7039   2
  -2   6  17 140.036 57.3040   6
  -2  -6  17 149.299 53.4590   7
  -2  -6  16 1134.27 163.345   6
  -2   6  16 1130.77 142.285  10
  -2  -6  16 1185.68 144.564   7
  -2   6  16 1054.12 128.842   6
  -2   6  15 17253.5 597.147  10
  -2  -6  15 19922.6 631.913   7
  -2  -6  15 19356.4 694.082   6
  -2   6  15 17943.8 583.228   6
  -2   6  14 8194.16 375.976  10
  -2  -6  14 9027.30 354.239   9
  -2  -6  14 9352.91 398.181   7
  -2  -6  14 9100.70 440.792   6
  -2   6  14 8246.85 357.978   6
  -2   6  13 1366.79 142.186  10
  -2  -6  13 1287.17 124.181   9
  -2  -6  13 1424.07 147.804   7
  -2  -6  13 1331.38 160.757   6
  -2   6  13 1179.80 122.621   6
   2   6 -12 2754.13 194.324   2
  -2   6  12 2374.49 186.505  10
  -2  -6  12 2906.27 188.514   9
   2   6 -12 2752.28 157.849   8
  -2  -6  12 2945.61 205.299   7
  -2  -6  12 2946.41 228.309   6
  -2   6  12 2534.22 175.906   6
   2   6 -11 6571.81 303.579   2
  -2  -6  11 6542.23 248.044  10
  -2   6  11 6240.31 300.420  10
  -2  -6  11 6403.44 283.980   9
   2   6 -11 6155.54 247.234   8
  -2  -6  11 6598.97 312.535   7
  -2  -6  11 6551.99 342.769   6
  -2   6  11 5830.86 268.214   6
  -2  -6  10 598.170 100.216   6
   2   6 -10 616.631 88.0602   2
  -2   6  10 511.967 83.6183  10
  -2   6  10 363.292 62.4907   6
  -2  -6  10 613.407 83.4527   9
  -2  -6  10 414.047 58.0948  10
   2   6 -10 498.350 65.3419   8
   2   6 -10 566.521 89.4400   3
   2  -6 -10 575.730 66.3976   2
  -2  -6  10 560.359 86.5267   7
   2   6  -9 2249.81 163.979   2
  -2  -6   9 2277.70 127.291  10
  -2   6   9 2232.36 166.976  10
  -2  -6   9 2159.37 154.707   9
   2   6  -9 2154.93 136.536   8
  -2  -6   9 2380.24 171.704   7
   2  -6  -9 2250.43 129.410   2
   2   6  -9 2209.11 170.043   3
  -2  -6   9 2296.14 187.868   6
  -2   6   9 2101.93 145.908   6
  -2  -6   9 2396.68 189.851   1
   2   6  -8 2979.77 188.760   2
  -2  -6   8 3281.14 150.387  10
  -2   6   8 3047.40 194.924  10
  -2  -6   8 3392.88 190.643   9
   2   6  -8 3274.47 170.000   8
   2  -6  -8 3524.97 182.850   4
  -2  -6   8 3551.74 206.035   7
   2  -6  -8 3208.02 155.826   2
   2   6  -8 2991.00 191.903   3
  -2   6   8 2780.70 165.331   6
  -2  -6   8 3397.62 218.761   1
  -2  -6   7 3935.48 160.835  10
  -2   6   7 3476.54 207.645  10
  -2  -6   7 3933.10 204.727   9
   2   6  -7 3718.11 182.612   8
   2  -6  -7 3988.09 195.172   4
  -2  -6   7 4024.25 216.049   7
   2  -6  -7 3849.60 168.581   2
   2   6  -7 3900.83 212.066   3
  -2  -6   7 3840.84 227.006   1
  -2   6   7 3779.31 186.928   6
   2   6  -7 3923.27 213.776   2
  -2   6   6 38.2748 20.9347   6
   2   6  -6 22.6368 29.7612   2
   2   6  -6 13.5930 28.2663   3
  -2   6   6 147.510 52.3680  10
  -2  -6   6 52.5494 39.8329   1
  -2  -6   6 50.5218 34.1698   9
   2   6  -6 10.1850 16.6258   8
  -2  -6   6 6.38178 16.6202  10
   2  -6  -6 31.8147 27.4683   4
  -2  -6   6 38.1484 28.5473   7
   2  -6  -6 7.01273 15.2631   2
   2   6  -5 17.2872 27.0694   2
   2   6  -5 7.44064 17.4741   3
  -2  -6   5-0.79764 13.8129  10
  -2   6   5 46.4574 33.1594  10
   2  -6  -5 19.0371 14.2617   2
  -2  -6   5 4.56265 22.0049   9
   2   6  -5 26.8582 23.1622   8
   2  -6  -5 9.31175 18.3353   4
  -2  -6   5 6.77343 23.9482   7
  -2  -6   5-8.42874 24.3330   1
  -2  -6   4 4163.90 144.903  10
  -2   6   4 3947.84 213.657  10
   2   6  -4 3688.90 184.000   8
  -2  -6   4 3847.87 198.353   9
   2  -6  -4 4163.21 202.295   4
  -2  -6   4 4164.98 200.015   7
   2  -6  -4 3950.04 166.378   2
   2   6  -4 3955.52 184.543   3
  -2  -6   4 4086.36 217.155   1
   2   6  -4 4208.33 213.272   2
  -2  -6   3 642.600 82.9021   1
  -2  -6   3 537.755 70.6240   9
   2   6  -3 460.505 62.0975   8
   2  -6  -3 653.027 62.8127   2
   2  -6  -3 656.040 80.4459   4
  -2   6   3 480.956 73.3539  10
  -2  -6   3 513.992 66.3072   7
   2   6  -3 510.276 60.8884   3
   2   6  -3 567.078 74.6778   2
  -2   6   2 13795.1 440.000  10
  -2  -6   2 13511.6 407.675   9
  -2  -6   2 14378.8 340.893   5
  -2  -6   2 14499.9 441.300   1
   2   6  -2 14293.0 411.040   8
   2  -6  -2 14273.5 368.996   2
   2  -6  -2 15122.5 442.230   4
  -2  -6   2 14486.1 406.746   7
   2   6  -2 14206.3 368.024   3
   2   6  -2 14449.1 436.459   2
  -2   6   1 7311.66 293.501  10
  -2  -6   1 6576.11 256.389   9
  -2  -6   1 7009.03 205.029   5
   2   6  -1 7408.80 272.696   8
  -2  -6   1 7036.50 283.865   1
   2  -6  -1 7183.81 287.705   4
  -2  -6   1 7064.67 251.400   7
   2  -6  -1 6940.39 228.393   2
   2   6  -1 6868.46 218.437   3
   2   6  -1 7641.66 290.560   2
   2   6   0 8.95235 9.81171   3
  -2   6   0 8.90697 27.7511  10
   2   6   0 0.05919 18.2915   8
  -2  -6   0-1.35219 28.8149   1
   2  -6   0-0.27372 15.2988   2
  -2  -6   0-6.35007 14.5251   5
  -2  -6   0-4.50022 17.8312   7
  -2  -6   0-0.75067 29.4752   9
   2  -6   0 36.2676 35.1718   4
   2   6   0 19.3457 27.4651   2
  -2   6  -1 1285.27 113.937  10
  -2   6  -1 1373.92 113.141   3
   2   6   1 1265.66 108.093   8
  -2  -6  -1 1418.48 77.0271   5
  -2  -6  -1 1279.96 101.670   9
   2  -6   1 1199.29 84.3863   2
   2  -6   1 1552.76 129.935   4
  -2  -6  -1 1377.01 95.6938   7
   2   6   1 1294.54 69.0653   3
   2   6   1 1464.43 118.501   2
  -2   6  -2 33.9363 27.1493  10
   2  -6   2 16.2194 13.7709   2
   2  -6   2 30.0365 28.1540  11
  -2   6  -2 65.2862 30.4396   3
   2   6   2 36.3131 10.0548   3
  -2  -6  -2 37.7990 17.6499   5
  -2  -6  -2 43.0996 24.3087   9
   2  -6   2 32.6429 18.9847   1
   2   6   2 39.2837 24.5709   8
   2   6   2 25.7481 25.8251   2
   2  -6   2 17.3092 28.1970   4
  -2  -6  -2 71.7562 23.0528   7
  -2   6  -3 8178.33 294.907   3
  -2   6  -3 7864.19 296.318  10
   2  -6   3 8408.35 279.784   1
  -2  -6  -3 8237.09 273.843   9
  -2  -6  -3 8348.90 216.355   5
   2   6   3 7732.19 298.015   8
   2  -6   3 7921.66 244.728   2
   2  -6   3 7707.35 310.939  11
  -2  -6  -3 8613.77 250.824   7
   2   6   3 8833.62 303.376   2
   2  -6   4 347.296 45.4319   2
  -2  -6  -4 375.192 37.2369   5
  -2   6  -4 333.187 55.1696   3
  -2  -6  -4 375.122 51.2063   9
   2   6   4 359.453 57.8968   2
  -2   6  -4 279.291 49.1536   5
   2   6   4 239.597 49.6666   8
   2  -6   4 315.598 49.9902   1
  -2  -6  -4 394.507 45.7476   7
  -2  -6  -5 1317.71 72.6165   5
  -2   6  -5 1286.86 101.470   5
   2   6   5 1328.99 117.775   8
   2  -6   5 1471.66 91.8937   2
   2  -6   5 1321.24 107.186   1
  -2  -6  -5 1458.81 85.8478   7
   2   6   5 1456.03 110.331   2
  -2  -6  -5 1325.42 95.9791   9
  -2   6  -5 1370.94 111.550   3
   2  -6   6 13983.6 315.190   6
  -2   6  -6 13888.2 386.083   5
  -2  -6  -6 13952.1 368.770   9
  -2  -6  -6 14280.1 317.705   5
   2   6   6 13751.2 436.574   8
   2  -6   6 13990.4 353.779   2
   2  -6   6 14134.6 416.991   1
   2   6   6 15182.8 403.536   2
  -2  -6  -6 14418.1 344.270   7
  -2   6  -6 14044.7 416.316   3
   2  -6   7 13965.5 315.820   6
   2   6   7 13478.7 434.423   8
  -2  -6  -7 13339.6 352.774   9
  -2  -6  -7 13621.2 309.600   5
  -2   6  -7 12958.9 368.203   5
   2  -6   7 13290.2 344.650   2
   2   6   7 14603.3 389.325   2
   2  -6   7 13027.0 409.367   1
  -2  -6  -7 14091.9 336.724   7
  -2   6  -7 13400.1 407.927   3
   2   6   8 1461.67 98.4859   2
  -2  -6  -8 1359.50 90.2523   9
   2  -6   8 1235.86 84.8425   2
   2   6   8 1416.55 125.589   8
  -2  -6  -8 1388.06 75.0763   5
  -2  -6  -8 1336.46 81.5787   7
   2  -6   8 1339.34 119.323   1
  -2   6  -8 1229.01 91.7663   5
  -2   6  -8 1401.60 114.799   3
   2  -6   8 1398.83 79.4286   6
  -2  -6  -9 5503.62 192.185   9
   2  -6   9 6017.28 204.027   2
  -2   6  -9 5230.69 197.759   5
   2   6   9 5832.07 268.129   8
   2   6   9 5958.59 207.158   2
  -2  -6  -9 5560.60 174.042   5
   2  -6   9 5466.02 257.137   1
  -2   6  -9 5633.54 249.039   3
   2  -6   9 5929.87 188.108   6
   2  -6  10 337.678 45.5819   2
   2   6  10 320.597 42.7487   2
  -2   6 -10 341.144 59.9900   3
  -2  -6 -10 301.315 43.2725   9
  -2  -6 -10 320.261 38.7349   5
   2   6  10 343.053 65.3138   8
   2  -6  10 274.173 57.3172   1
   2  -6  10 285.711 39.6493   6
  -2   6 -10 269.525 42.5930   5
  -2  -6 -11 1448.56 87.9531   9
  -2   6 -11 1449.50 93.1591   5
  -2  -6 -11 1544.25 87.6738   5
   2   6  11 1351.89 126.297   8
  -2   6 -11 1480.59 130.004   3
   2  -6  11 1558.44 96.7775   6
   2  -6  11 1535.28 143.037   1
  -2  -6 -12 2226.52 109.484   9
  -2  -6 -12 2094.69 108.788   5
  -2   6 -12 2052.70 109.980   5
   2   6  12 2259.37 165.832   8
  -2   6 -12 1771.43 147.516   3
   2  -6  12 2065.06 118.578   6
   2   6  13 55.7665 32.2251   6
  -2   6 -13 84.9681 39.4381   3
  -2  -6 -13 76.5092 26.6512   9
  -2  -6 -13 116.985 30.1177   5
  -2   6 -13 86.8030 26.1189   5
   2   6  13 135.502 44.7208   8
   2  -6  13 69.2196 23.8901   6
   2   6  14 1822.68 139.946   6
  -2   6 -14 1589.43 95.6611   5
  -2  -6 -14 1592.22 93.5138   9
  -2  -6 -14 1816.90 109.607   5
  -2   6 -14 1599.36 151.100   3
   2  -6  14 1707.34 119.516   6
   2   6  15 1919.30 146.336   6
  -2  -6 -15 1649.66 110.737   5
  -2   6 -15 1642.65 98.2322   5
  -2   6 -15 1600.53 157.587   3
   2  -6  15 1738.50 127.460   6
  -2  -6 -16 1632.90 115.319   5
  -2   6 -16 1590.32 99.8447   5
  -2   6 -16 1582.18 161.910   3
   2  -6  16 1582.70 129.222   6
   2   6  16 1764.60 145.510   6
   2  -6  17 455.188 75.4026   6
  -2   6 -17 303.779 74.4137   3
   2   6  17 343.120 67.8464   6
  -2  -6 -17 522.813 70.9539   5
  -2   6 -17 394.208 53.6753   5
   2  -6  18 5.01580 22.1760   6
  -2   6 -18 13.3556 34.4763   3
   2   6  18 82.2251 41.5055   6
  -2  -6 -18 18.6936 25.4902   5
  -2   6 -18 21.4052 28.2064   5
  -2   6 -19 659.034 123.346   3
   2  -6  19 664.414 98.6521   6
  -2   6 -19 820.291 81.5311   5
  -2  -6 -19 728.236 92.3169   5
   2   6  19 909.676 115.290   6
   2  -6  20 329.234 73.9927   6
  -2   6 -20 494.865 67.3776   5
  -2  -7  20 1832.10 188.902   7
  -2   7  20 2093.02 211.205   6
  -2   7  19-16.7158 39.3377   6
   2   7 -19 4.89429 31.6399   2
  -2  -7  19 58.2717 64.0256   6
  -2  -7  19 81.0799 50.3314   7
  -2  -7  18 398.891 108.468   6
   2   7 -18 505.063 103.113   2
  -2   7  18 445.444 102.050  10
  -2   7  18 285.536 82.8226   6
  -2  -7  18 427.366 87.1092   7
  -2  -7  17 403.905 98.3882   6
  -2   7  17 345.496 83.7096  10
  -2   7  17 451.111 90.8355   6
  -2  -7  17 526.400 94.9409   7
  -2   7  16 764.856 111.208   6
  -2   7  16 975.009 136.158  10
  -2  -7  16 819.792 138.432   6
  -2  -7  16 924.751 131.312   7
  -2  -7  15 477.631 91.4821   7
  -2   7  15 657.362 107.193  10
  -2   7  15 585.078 96.3519   6
  -2  -7  15 551.494 115.251   6
  -2   7  14 1742.30 170.404  10
  -2  -7  14 1776.75 143.944   9
  -2  -7  14 1843.58 170.376   7
  -2  -7  14 1824.01 193.699   6
  -2   7  14 1590.25 147.885   6
  -2   7  13 1217.95 138.742  10
  -2  -7  13 1277.65 123.867   9
  -2  -7  13 1371.57 143.138   7
  -2  -7  13 1383.54 166.924   6
  -2   7  13 993.841 112.479   6
  -2  -7  12 152.028 58.9739   6
   2   7 -12 162.800 57.2327   3
   2   7 -12 186.719 55.5605   2
  -2   7  12 190.592 61.6091  10
  -2  -7  12 210.308 55.4524   9
  -2   7  12 112.202 40.0420   6
   2   7 -12 169.582 42.7850   8
  -2  -7  12 187.049 69.2377   1
  -2  -7  12 172.257 56.4492   7
   2   7 -11 1620.11 150.229   2
  -2   7  11 1517.14 147.402  10
  -2  -7  11 1657.27 137.594   9
   2   7 -11 1594.98 122.548   8
  -2  -7  11 1542.31 145.796   7
   2   7 -11 1552.91 157.927   3
  -2  -7  11 1448.14 159.802   6
  -2   7  11 1481.69 129.158   6
  -2  -7  11 1821.12 180.063   1
   2   7 -10 15.4679 33.4437   3
   2   7 -10-6.55420 23.6659   2
  -2   7  10 86.2528 48.0080  10
  -2  -7  10 38.2919 31.5704   9
  -2   7  10 35.5650 33.8543   6
   2   7 -10 9.40649 18.1562   8
  -2  -7  10-39.2608 41.5540   1
  -2  -7  10 7.62817 29.6844   7
  -2   7   9 94.2443 35.9578   6
   2   7  -9 79.7384 39.0501   3
   2   7  -9 67.2278 40.1528   2
  -2   7   9 76.7349 33.7246  10
  -2  -7   9 95.4460 43.2389   9
   2   7  -9 46.2949 25.9565   8
  -2  -7   9 70.2469 42.0737   7
  -2  -7   9 92.0561 47.5896   1
   2   7  -8 349.093 67.5726   3
   2   7  -8 545.764 83.1926   2
  -2   7   8 498.365 82.5649  10
  -2   7   8 390.560 63.6611   6
   2  -7  -8 378.253 48.5049   2
  -2  -7   8 404.050 82.4567   1
  -2  -7   8 389.166 66.6998   9
   2   7  -8 422.209 61.5089   8
   2  -7  -8 431.695 71.0843   4
  -2  -7   8 477.680 77.5144   7
  -2   7   7 98.7040 31.9443   6
   2   7  -7 114.673 34.9309   8
   2   7  -7 84.3264 33.1115   3
  -2  -7   7 106.149 47.8806   1
   2   7  -7 105.887 43.4329   2
   2  -7  -7 46.7286 21.0312   2
  -2   7   7 69.4069 35.8228  10
   2  -7  -7 58.0970 30.2780   4
  -2  -7   7 39.6349 27.7599   7
  -2  -7   7 63.7161 41.0827   9
  -2   7   6 3509.82 212.351  10
  -2  -7   6 3694.86 198.452   9
   2   7  -6 3554.15 185.528   8
   2  -7  -6 4294.62 211.766   4
  -2  -7   6 4020.05 209.920   7
   2  -7  -6 3869.85 160.781   2
  -2  -7   6 3806.47 230.225   1
   2   7  -6 3965.21 206.503   3
   2   7  -6 3765.83 211.782   2
   2   7  -5 352.418 62.3772   2
   2   7  -5 281.117 52.6943   3
  -2  -7   5 429.394 75.4864   1
  -2  -7   5 439.229 38.4107  10
   2   7  -5 509.326 68.0194   8
  -2   7   5 428.198 73.3171  10
   2  -7  -5 466.710 52.0252   2
   2  -7  -5 410.495 66.5944   4
  -2  -7   5 493.584 70.4456   9
  -2  -7   5 513.296 72.5054   7
   2   7  -4 491.458 65.9497   3
  -2  -7   4 490.360 79.8468   1
  -2   7   4 369.935 66.5924  10
  -2  -7   4 638.690 80.5947   9
   2   7  -4 419.077 63.0043   8
   2  -7  -4 439.709 49.9601   2
   2  -7  -4 370.806 64.7151   4
  -2  -7   4 521.777 69.8137   7
   2   7  -4 527.687 77.1340   2
  -2  -7   3 6562.96 260.753   9
  -2  -7   3 6776.86 191.481   5
   2   7  -3 6111.75 253.241   8
  -2   7   3 6641.51 291.283  10
   2  -7  -3 6654.35 216.117   2
  -2  -7   3 6611.47 297.410   1
   2  -7  -3 6453.47 276.163   4
  -2  -7   3 6616.90 259.242   7
   2   7  -3 6293.54 236.737   3
   2   7  -3 6464.54 276.657   2
  -2   7   2 3339.00 198.676  10
  -2  -7   2 3477.72 180.075   9
   2   7  -2 3675.36 187.670   8
  -2  -7   2 3500.08 124.399   5
  -2  -7   2 3619.43 210.967   1
   2  -7  -2 3571.99 146.677   2
   2  -7  -2 3588.24 201.860   4
  -2  -7   2 3579.64 178.303   7
   2   7  -2 3497.01 158.459   3
   2   7  -2 3624.32 198.847   2
  -2  -7   1 16879.3 461.309   9
  -2  -7   1 17430.2 516.585   1
  -2   7   1 16574.8 502.125  10
   2   7  -1 16952.4 473.211   8
  -2  -7   1 16765.8 364.562   5
   2  -7  -1 16711.3 399.871   2
   2  -7  -1 17446.0 512.257   4
  -2  -7   1 17799.7 455.931   7
   2   7  -1 16358.7 405.258   3
   2   7  -1 17891.4 499.729   2
  -2   7   0 4626.08 232.103  10
  -2  -7   0 4638.13 234.184   1
  -2  -7   0 4590.18 204.147   9
  -2  -7   0 4923.34 146.250   5
   2   7   0 4775.09 220.679   8
   2  -7   0 4565.51 169.876   2
   2  -7   0 4725.18 241.066   4
  -2  -7   0 5413.59 209.137   7
   2   7   0 4499.77 164.482   3
   2   7   0 4835.93 230.758   2
  -2   7  -1 2375.48 159.482   3
  -2   7  -1 2443.89 164.748  10
  -2  -7  -1 2347.42 139.812   9
  -2  -7  -1 2481.79 95.1069   5
   2   7   1 2480.22 158.141   8
   2  -7   1 2336.78 115.621   2
   2  -7   1 2296.15 167.570   4
  -2  -7  -1 2788.30 142.616   7
   2   7   1 2415.84 104.053   3
   2   7   1 2699.69 164.622   2
  -2  -7  -2 606.409 45.6661   5
  -2  -7  -2 572.263 69.1363   9
  -2   7  -2 706.376 86.3650   3
   2   7   2 521.516 73.0888   8
  -2   7  -2 608.978 79.8241  10
   2  -7   2 692.617 77.8289   1
   2  -7   2 611.281 57.2905   2
   2   7   2 648.269 78.4861   2
  -2  -7  -2 622.404 63.2858   7
   2  -7   2 502.365 80.6639   4
   2   7   2 591.575 44.5238   3
   2  -7   3 196.530 53.8518  11
   2  -7   3 176.936 31.5557   2
  -2   7  -3 213.886 48.9380  10
  -2   7  -3 190.085 50.4628   3
  -2  -7  -3 197.039 26.5264   5
   2  -7   3 229.115 48.3805   1
  -2  -7  -3 195.763 44.4615   9
   2   7   3 234.320 50.8443   8
   2   7   3 190.838 46.3677   2
   2  -7   3 187.159 50.0288   4
  -2  -7  -3 216.134 38.1708   7
   2  -7   4 38.2853 18.1183   2
   2  -7   4-8.07920 32.0642  11
  -2  -7  -4 41.4444 30.8583   9
   2  -7   4 22.2383 9.61119   6
  -2   7  -4 20.2389 22.1237   3
  -2  -7  -4 17.3141 13.9730   5
   2   7   4-4.88644 22.2100   2
   2  -7   4 9.69575 18.9955   1
   2   7   4 40.2567 26.6599   8
   2  -7   4 41.8377 30.9981   4
  -2  -7  -4 34.8033 20.4877   7
  -2   7  -4-16.2901 31.3517   5
   2  -7   5 2427.39 89.3671   6
   2  -7   5 2414.89 172.107  11
  -2  -7  -5 2161.74 126.124   9
  -2  -7  -5 2443.08 94.4659   5
   2  -7   5 2649.63 163.739   1
   2  -7   5 2383.09 117.027   2
   2   7   5 2290.25 160.395   8
  -2   7  -5 2111.13 131.775   5
  -2  -7  -5 2374.64 121.255   7
   2   7   5 2356.32 143.501   2
  -2   7  -5 2455.11 159.693   3
  -2  -7  -6 1306.34 94.2485   9
  -2  -7  -6 1405.70 70.3116   5
  -2   7  -6 1185.55 95.5933   5
   2  -7   6 1441.40 90.2847   2
   2   7   6 1431.48 126.905   8
   2  -7   6 1154.62 112.093   1
   2   7   6 1496.07 109.101   2
  -2  -7  -6 1412.87 92.8892   7
  -2   7  -6 1427.94 122.668   3
   2  -7   6 1391.51 68.6985   6
  -2  -7  -7 11505.4 322.396   9
  -2   7  -7 10740.4 327.429   5
   2  -7   7 11660.6 310.838   2
   2   7   7 11745.8 403.976   8
  -2  -7  -7 11267.0 270.474   5
   2  -7   7 11187.8 388.166   1
   2   7   7 12442.5 351.724   2
  -2  -7  -7 11317.5 313.587   7
  -2   7  -7 11173.3 378.701   3
   2  -7   7 11915.7 275.527   6
  -2  -7  -8 15502.3 400.301   9
  -2  -7  -8 16454.7 357.539   5
   2  -7   8 16731.6 400.004   2
   2   7   8 15567.1 496.621   8
   2  -7   8 15870.3 491.869   1
  -2   7  -8 14843.1 403.051   5
  -2  -7  -8 16322.0 400.838   7
   2   7   8 17921.9 423.617   2
  -2   7  -8 15977.7 480.711   3
   2  -7   8 16675.8 365.669   6
   2  -7   9 3.14808 11.9350   6
  -2   7  -9 61.3432 33.8977   3
   2  -7   9 10.5814 17.5580   2
  -2   7  -9 16.8284 18.5635   5
   2  -7   9 10.6474 29.3733   1
   2   7   9-0.90200 25.1399   8
  -2  -7  -9 0.11793 17.7683   9
  -2  -7  -9 37.9492 19.5219   5
  -2  -7 -10 7408.45 234.180   9
  -2   7 -10 7268.06 234.531   5
  -2  -7 -10 7367.81 214.278   5
   2   7  10 7010.06 313.342   8
   2  -7  10 6594.76 311.752   1
  -2   7 -10 7479.84 310.015   3
   2  -7  10 7786.46 230.402   6
   2  -7  11-47.0554 43.1146   1
  -2   7 -11 14.5663 28.2156   3
  -2  -7 -11-8.34685 20.7217   9
  -2  -7 -11 3.24354 12.9564   5
  -2   7 -11 12.5389 23.6915   5
   2  -7  11 13.9530 18.6749   6
   2   7  11 33.4869 33.4675   8
   2  -7  12 159.242 35.6035   6
  -2   7 -12 152.380 47.1059   3
  -2  -7 -12 189.654 35.8157   9
   2   7  12 174.913 44.7664   6
  -2  -7 -12 169.653 35.2088   5
   2   7  12 136.250 46.8833   8
   2  -7  12 137.655 52.6854   1
  -2   7 -12 184.235 40.0244   5
   2   7  13 1253.58 118.290   6
  -2  -7 -13 1314.00 87.8143   9
  -2  -7 -13 1096.05 83.0561   5
  -2   7 -13 1204.84 81.5775   5
  -2   7 -13 1108.72 126.133   3
   2  -7  13 1244.08 142.919   1
   2  -7  13 1314.60 100.620   6
   2  -7  14 400.627 59.9929   6
  -2  -7 -14 364.019 46.7415   9
  -2  -7 -14 452.053 57.2196   5
  -2   7 -14 408.486 48.5171   5
  -2   7 -14 497.090 89.0293   3
   2  -7  14 232.385 72.9609   1
   2   7  14 627.241 85.5687   6
   2  -7  15 217.338 49.1833   6
  -2  -7 -15 185.206 39.5998   5
  -2   7 -15 175.819 35.7193   5
  -2   7 -15 136.577 55.5090   3
   2  -7  15 131.780 60.9338   1
   2   7  15 254.178 60.0831   6
  -2  -7 -16 4706.52 212.451   5
  -2   7 -16 4577.30 178.688   5
  -2   7 -16 4278.59 281.906   3
   2  -7  16 4869.16 240.407   6
   2   7  16 5468.74 264.657   6
  -2  -7 -17 2200.26 150.329   5
  -2   7 -17 2361.21 125.893   5
  -2   7 -17 2422.45 214.170   3
   2  -7  17 2242.32 168.689   6
   2   7  17 2459.06 180.223   6
   2   7  18 548.663 88.5303   6
  -2  -7 -18 442.044 71.6170   5
  -2   7 -18 670.542 123.484   3
  -2  -7 -19 2910.45 189.170   5
  -2   7 -19 2583.45 238.834   3
   2   7  19 2960.87 212.263   6
  -2  -8  19 88.2417 67.5282   6
  -2  -8  19 124.175 62.1409   7
  -2  -8  18 1326.53 191.392   6
  -2   8  18 970.649 150.327  10
   2   8 -18 1014.28 144.249   2
  -2  -8  18 1178.19 188.083   1
  -2  -8  18 1049.08 137.953   7
  -2  -8  17 1269.35 179.974   6
  -2   8  17 1058.49 148.992  10
  -2  -8  17 1282.79 151.172   7
  -2  -8  17 1176.51 182.587   1
  -2  -8  16 270.604 88.8886   6
  -2   8  16 208.262 76.9413  10
  -2  -8  16 365.828 99.9651   1
  -2  -8  16 253.890 73.8600   7
  -2  -8  15 572.326 119.050   6
  -2   8  15 478.897 96.7988  10
  -2  -8  15 459.702 114.087   1
  -2  -8  15 547.702 95.5392   7
  -2   8  14 2127.14 193.052  10
  -2  -8  14 2501.43 199.581   7
  -2  -8  14 2274.50 221.048   6
  -2  -8  14 2432.24 238.219   1
  -2  -8  13 2987.75 185.983   9
  -2   8  13 2483.02 206.701  10
  -2  -8  13 3070.78 217.453   7
   2   8 -13 2693.10 227.908   3
  -2  -8  13 2763.99 239.382   6
  -2  -8  13 2754.20 246.414   1
  -2  -8  12 490.433 101.565   6
   2   8 -12 529.735 104.490   3
   2   8 -12 313.750 71.3944   2
  -2   8  12 342.996 77.3649  10
  -2  -8  12 539.540 77.2662   9
   2   8 -12 495.505 71.3839   8
  -2  -8  12 582.986 108.029   1
  -2  -8  12 567.890 91.8790   7
  -2  -8  11 63.9273 30.6189   9
   2   8 -11 41.2335 39.9414   3
   2   8 -11 96.4043 42.5854   2
  -2   8  11 64.4098 45.1974  10
   2   8 -11 57.8578 27.0111   8
  -2  -8  11 112.066 42.4468   7
  -2  -8  11 5.59401 54.3488   1
   2   8 -10 2826.20 198.076   2
  -2   8  10 2857.76 206.848  10
  -2  -8  10 2967.11 182.294   9
   2   8 -10 2819.86 170.000   8
  -2  -8  10 2799.32 195.514   7
   2   8 -10 2947.66 215.117   3
  -2  -8  10 2993.47 237.434   1
   2   8  -9 2337.94 174.999   2
  -2   8   9 2386.95 184.927  10
   2   8  -9 2320.52 153.145   8
  -2  -8   9 2433.82 177.774   7
  -2  -8   9 2213.96 157.656   9
  -2  -8   9 2395.09 205.403   1
   2   8  -9 2515.31 189.749   3
  -2  -8   8 24.4924 36.5037   1
  -2  -8   8-2.48077 32.5223   9
   2   8  -8 40.8432 34.2992   2
   2   8  -8 54.1725 37.3596   3
  -2   8   8-10.3177 36.4839  10
   2   8  -8 7.16538 25.9544   8
   2  -8  -8 10.7667 26.6747   4
  -2  -8   8 18.8480 26.8864   7
  -2   8   7 8095.25 344.857  10
  -2  -8   7 7595.59 299.498   9
   2   8  -7 7013.52 282.889   8
   2  -8  -7 8529.98 325.653   4
  -2  -8   7 8054.97 320.705   7
  -2  -8   7 7857.69 366.316   1
   2   8  -7 7494.12 318.283   3
   2   8  -7 7544.48 323.006   2
   2   8  -6 73.8436 33.7106   3
  -2   8   6-51.9630 39.1001  10
   2  -8  -6 43.0866 19.9004   2
   2   8  -6 79.9044 35.7353   2
  -2  -8   6 29.0297 24.5688   9
  -2  -8   6 65.4493 39.7084   1
   2   8  -6 54.7967 30.3151   8
   2  -8  -6 60.7285 38.3396   4
  -2  -8   6 102.288 42.4699   7
  -2   8   5 3122.00 206.146  10
  -2  -8   5 3223.34 178.572   9
   2   8  -5 2958.41 171.593   8
  -2  -8   5 3005.51 212.840   1
   2  -8  -5 3184.61 191.021   4
   2  -8  -5 3032.80 129.834   2
  -2  -8   5 3102.63 183.781   7
   2   8  -5 3003.04 176.017   3
   2   8  -5 2849.30 183.666   2
   2   8  -4 381.739 62.0259   2
   2   8  -4 307.951 52.7731   3
   2  -8  -4 292.468 37.6220   2
  -2  -8   4 315.989 57.9366   9
  -2   8   4 264.321 62.1373  10
   2   8  -4 332.936 58.1983   8
   2  -8  -4 290.899 59.6365   4
  -2  -8   4 342.603 60.2234   7
  -2  -8   4 432.226 75.9540   1
  -2   8   3 3076.15 198.174  10
  -2  -8   3 3076.73 172.351   9
   2   8  -3 3140.27 179.673   8
  -2  -8   3 3361.85 217.152   1
   2  -8  -3 2871.13 127.048   2
   2  -8  -3 3192.88 193.253   4
  -2  -8   3 3314.12 178.790   7
   2   8  -3 3077.41 161.652   3
   2   8  -3 3111.86 190.037   2
  -2  -8   2 10612.9 231.734   5
  -2  -8   2 10381.5 339.543   9
  -2  -8   2 10739.3 409.918   1
  -2   8   2 10456.3 385.435  10
   2   8  -2 10127.9 351.097   8
   2  -8  -2 9682.73 269.821   2
   2  -8  -2 10290.6 380.493   4
  -2  -8   2 10689.5 342.821   7
   2   8  -2 10540.0 314.541   3
   2   8  -2 10602.5 376.017   2
   2  -8  -1 148.623 29.0653   2
  -2   8   1 121.022 40.5789  10
  -2  -8   1 201.031 54.1899   1
  -2  -8   1 155.546 19.8843   5
  -2  -8   1 220.665 48.5856   9
   2   8  -1 194.439 47.0614   8
   2   8  -1 141.637 33.1188   3
   2  -8  -1 213.775 57.2079   4
  -2  -8   1 237.392 47.1482   7
   2   8  -1 159.263 47.4540   2
  -2   8   0 1912.91 148.532  10
  -2  -8   0 1866.54 72.1786   5
  -2  -8   0 1850.40 153.630   1
  -2  -8   0 1946.13 129.050   9
  -2   8   0 1822.24 150.174   3
   2   8   0 1735.45 133.244   8
   2  -8   0 1723.25 95.5807   2
   2  -8   0 1914.27 153.507   4
  -2  -8   0 2080.08 130.228   7
   2   8   0 1808.59 101.352   3
   2   8   0 1912.77 146.594   2
  -2  -8  -1 457.183 33.3163   5
  -2   8  -1 552.251 77.0260  10
  -2  -8  -1 380.792 60.1421   9
  -2   8  -1 509.262 82.1998   3
   2  -8   1 399.274 45.2300   2
   2   8   1 436.482 68.9014   8
   2   8   1 430.566 68.1170   2
   2  -8   1 445.877 81.2563   4
  -2  -8  -1 431.518 57.9992   7
   2   8   1 454.747 46.8363   3
  -2   8  -2 3042.76 189.462   3
  -2   8  -2 2559.01 166.769  10
   2  -8   2 2805.18 171.772   1
  -2  -8  -2 2594.06 149.399   9
  -2  -8  -2 2710.58 92.8944   5
   2   8   2 2672.97 171.418   8
   2  -8   2 2749.58 122.674   2
   2  -8   2 2472.15 184.748   4
  -2  -8  -2 2915.64 149.033   7
   2   8   2 2996.49 177.740   2
  -2   8  -3 5176.87 249.731   3
  -2  -8  -3 5192.47 212.741   9
   2  -8   3 4970.78 176.609   2
   2  -8   3 5432.30 246.787   1
  -2  -8  -3 5080.34 140.141   5
   2   8   3 5203.31 246.611   8
  -2   8  -3 4790.97 234.825  10
   2  -8   3 4824.87 262.935   4
  -2  -8  -3 5483.68 208.892   7
   2   8   3 5639.53 245.045   2
  -2   8  -4 4952.53 245.184   3
  -2   8  -4 4968.94 214.068   5
  -2  -8  -4 4737.64 200.822   9
  -2  -8  -4 4931.64 140.463   5
   2  -8   4 5091.85 247.010   1
   2  -8   4 5158.37 179.813   2
   2   8   4 4786.49 239.504   8
   2  -8   4 5069.74 272.039   4
  -2  -8  -4 5189.13 200.716   7
   2   8   4 5299.85 232.338   2
  -2  -8  -5 26452.0 615.122   9
  -2  -8  -5 28964.2 529.311   5
  -2   8  -5 26724.4 635.207   5
   2  -8   5 27652.1 580.891   2
   2  -8   5 26711.3 702.701   1
   2   8   5 26897.2 703.406   8
   2  -8   5 24663.5 739.008   4
  -2  -8  -5 28050.0 617.612   7
   2   8   5 29615.7 668.747   2
   2  -8   5 27153.4 721.437  11
  -2   8  -5 27816.6 705.335   3
   2  -8   6 5168.59 267.196  11
  -2  -8  -6 5532.78 210.029   9
  -2  -8  -6 5499.96 157.674   5
  -2   8  -6 5143.86 211.207   5
   2  -8   6 5724.05 193.405   2
   2  -8   6 4902.15 253.422   1
   2   8   6 5273.75 261.840   8
   2  -8   6 4683.65 277.220   4
   2   8   6 6302.42 236.721   2
  -2  -8  -6 5709.69 213.866   7
  -2   8  -6 5591.92 263.377   3
  -2  -8  -7 18119.0 453.833   9
  -2  -8  -7 19035.8 394.030   5
  -2   8  -7 17872.2 460.534   5
   2  -8   7 19425.6 442.502   2
   2   8   7 18971.4 558.606   8
   2  -8   7 17618.0 550.591   1
  -2  -8  -7 18884.1 465.130   7
  -2   8  -7 18425.8 539.750   3
  -2  -8  -8 484.228 44.6637   5
   2  -8   8 448.760 77.1358   1
  -2   8  -8 458.440 55.9578   5
   2   8   8 509.371 83.1075   8
  -2   8  -8 431.426 73.8409   3
  -2  -8  -8 405.979 53.8763   9
  -2  -8  -8 486.857 58.9465   7
  -2  -8  -9 1690.93 89.5205   5
   2   8   9 1702.10 148.989   8
  -2  -8  -9 1929.26 112.520   9
  -2   8  -9 1758.29 107.143   5
   2  -8   9 1816.22 160.328   1
   2  -8   9 1767.78 124.859   7
  -2   8  -9 1879.99 151.908   3
  -2  -8 -10 1106.04 74.5914   5
  -2  -8 -10 1074.70 82.6561   9
  -2   8 -10 1015.84 77.9359   5
   2   8  10 1035.27 118.607   8
   2  -8  10 958.341 117.834   1
  -2   8 -10 1121.66 118.285   3
   2  -8  11 424.739 84.0851   1
  -2   8 -11 626.990 94.3320   3
  -2  -8 -11 605.894 57.3687   5
  -2  -8 -11 598.586 61.5271   9
  -2   8 -11 574.676 57.6140   5
   2   8  11 629.322 94.5954   8
  -2   8 -12-26.6386 33.4000   3
  -2  -8 -12-12.6257 18.2160   9
  -2  -8 -12 11.8963 15.5460   5
  -2   8 -12 41.3220 19.4578   5
   2  -8  12 36.5405 38.8209   1
   2   8  12 47.6731 35.8946   8
   2   8  12 18.8390 19.8739   6
   2   8  13 3453.28 197.822   6
  -2  -8 -13 2919.80 145.018   5
  -2  -8 -13 2777.13 138.141   9
  -2   8 -13 2825.58 127.915   5
   2  -8  13 2837.85 226.272   1
  -2   8 -13 2839.42 208.470   3
   2   8  14 1146.92 115.152   6
   2  -8  14 844.644 130.512   1
  -2   8 -14 821.443 116.199   3
  -2  -8 -14 974.052 85.6812   5
  -2  -8 -14 868.222 78.0241   9
  -2   8 -14 914.893 71.0414   5
   2   8  15 1184.46 119.554   6
  -2  -8 -15 901.064 88.9621   5
   2  -8  15 795.497 126.220   1
  -2   8 -15 1017.99 134.489   3
  -2   8 -16 126.209 47.4084   3
  -2  -8 -16 105.128 35.4244   5
   2   8  16 173.167 49.4538   6
   2  -8  16 29.3460 40.9145   1
   2   8  17 206.006 60.1293   6
  -2   8 -17 98.7416 50.4306   3
  -2  -8 -17 142.755 45.9830   5
   2  -8  17 114.517 65.5664   1
  -2   8 -18 955.108 144.812   3
  -2  -8 -18 903.294 105.010   5
   2   8  18 1202.75 131.206   6
  -2   8 -19 807.994 136.854   3
  -2  -9  18 484.645 119.247   6
  -2  -9  18 478.652 94.6148   7
   2   9 -17 2417.63 222.802   2
  -2   9  17 2515.90 234.989  10
  -2  -9  17 2531.67 214.261   7
  -2  -9  17 2757.00 267.519   6
  -2  -9  17 2809.31 285.790   1
  -2  -9  16 35.3157 49.8198   6
  -2   9  16 34.6277 51.2954  10
  -2  -9  16 2.42659 54.6853   1
  -2  -9  16 37.8475 44.6077   7
  -2  -9  15 321.970 104.542   6
  -2  -9  15 392.766 101.148   1
  -2   9  15 248.418 76.7315  10
  -2  -9  15 174.728 61.6021   7
  -2   9  14 51.2206 42.0632  10
   2   9 -14-2.32384 32.7244   3
  -2  -9  14-0.75762 34.8126   7
  -2  -9  14 1.81951 42.1870   1
   2   9 -13 1133.54 149.793   3
  -2   9  13 1208.62 145.971  10
  -2  -9  13 1128.78 131.375   7
  -2  -9  13 1284.30 174.116   1
   2   9 -12 344.424 83.2523   3
  -2   9  12 334.889 81.8296  10
  -2  -9  12 332.648 63.6436   9
  -2  -9  12 332.285 87.0656   1
   2   9 -12 298.643 58.5937   8
   2   9 -12 331.108 76.6278   2
  -2  -9  12 350.418 74.8609   7
   2   9 -11 2057.64 176.149   2
   2   9 -11 1961.49 148.660   8
  -2   9  11 2111.55 186.604  10
  -2  -9  11 2349.41 159.810   9
  -2  -9  11 2414.15 185.828   7
  -2  -9  11 2173.22 212.643   1
   2   9 -11 1830.80 178.063   3
   2   9 -10 3053.81 214.041   2
  -2   9  10 2910.49 217.467  10
   2   9 -10 3085.68 187.338   8
  -2  -9  10 3345.62 191.537   9
  -2  -9  10 3435.21 217.146   7
  -2  -9  10 3092.50 248.500   1
   2   9 -10 3128.77 228.150   3
   2   9  -9 1806.68 159.346   2
  -2   9   9 2146.61 183.042  10
  -2  -9   9 1928.21 144.415   9
   2   9  -9 2276.71 155.692   8
  -2  -9   9 2166.50 169.647   7
  -2  -9   9 1721.90 180.626   1
   2   9  -9 1856.10 166.514   3
   2   9  -8 264.651 64.2267   2
   2   9  -8 401.595 78.0329   3
  -2   9   8 276.835 69.8374  10
  -2  -9   8 322.303 59.8206   9
  -2  -9   8 390.374 89.0840   1
   2   9  -8 401.640 65.0743   8
   2  -9  -8 441.503 76.7305   4
  -2  -9   8 454.127 78.3263   7
  -2   9   7 1160.58 130.627  10
  -2  -9   7 1488.89 120.740   9
   2   9  -7 1202.72 112.388   8
   2  -9  -7 1516.20 138.278   4
  -2  -9   7 1377.16 153.568   1
  -2  -9   7 1353.30 126.944   7
   2   9  -7 1359.35 129.832   3
   2   9  -7 1364.15 134.206   2
  -2  -9   6 1014.41 132.781   1
  -2   9   6 1029.66 120.418  10
  -2  -9   6 985.187 98.9322   9
   2  -9  -6 1073.64 114.648   4
   2   9  -6 1007.27 101.962   8
  -2  -9   6 1085.12 111.627   7
   2   9  -6 870.017 100.335   3
   2   9  -6 1028.95 114.405   2
  -2   9   5 1716.49 153.544  10
  -2  -9   5 1930.70 136.533   9
   2   9  -5 1925.94 141.788   8
  -2  -9   5 1953.12 179.868   1
   2  -9  -5 1861.14 151.026   4
  -2  -9   5 1947.39 144.741   7
   2   9  -5 1977.90 146.347   3
   2   9  -5 1988.77 157.319   2
  -2   9   4 2819.17 198.040  10
  -2  -9   4 2637.82 161.155   9
  -2  -9   4 2823.46 216.853   1
   2  -9  -4 2737.62 114.619   2
   2   9  -4 2554.31 165.939   8
   2  -9  -4 2889.32 189.634   4
  -2  -9   4 2971.95 176.406   7
   2   9  -4 2487.02 156.496   3
   2   9  -4 2887.77 188.196   2
  -2  -9   3 794.777 87.1115   9
   2   9  -3 965.152 99.6054   8
   2  -9  -3 789.758 58.8654   2
  -2  -9   3 770.169 107.685   1
  -2  -9   3 812.018 90.4736   7
   2  -9  -3 707.263 94.1060   4
  -2   9   3 784.854 102.232  10
   2   9  -3 695.707 76.5186   3
   2   9  -3 729.153 97.8948   2
  -2   9   2 6544.58 302.962  10
  -2  -9   2 6176.20 256.136   9
  -2  -9   2 6424.43 324.569   1
   2   9  -2 6713.77 280.549   8
   2  -9  -2 6603.33 196.101   2
   2  -9  -2 6155.38 295.448   4
  -2  -9   2 6909.09 271.875   7
   2   9  -2 6419.28 241.683   3
   2   9  -2 6106.54 283.792   2
  -2   9   1 21357.8 629.611   3
  -2  -9   1 21245.2 644.113   1
  -2  -9   1 20534.0 536.569   9
  -2   9   1 21613.8 610.646  10
   2   9  -1 20188.9 565.796   8
   2  -9  -1 21359.2 454.032   2
  -2  -9   1 22109.2 552.264   7
   2  -9  -1 20704.7 610.586   4
   2   9  -1 20481.2 501.971   3
   2   9  -1 21350.0 593.228   2
  -2   9   0 14533.7 485.800   3
  -2  -9   0 13556.8 484.511   1
   2  -9   0 14092.8 478.534   4
  -2  -9   0 13477.0 400.591   9
   2  -9   0 13951.9 330.375   2
   2   9   0 12772.8 424.021   8
  -2  -9   0 13657.2 403.310   7
  -2   9   0 13534.7 451.264  10
   2   9   0 13270.3 358.101   3
   2   9   0 14374.8 453.233   2
  -2   9  -1 13485.4 464.802   3
  -2   9  -1 13643.8 443.157  10
  -2  -9  -1 12898.6 389.031   9
   2  -9   1 13305.3 325.469   2
   2   9   1 12738.7 425.686   8
   2  -9   1 12969.7 466.264   4
  -2  -9  -1 14655.2 405.977   7
   2   9   1 13735.9 440.092   2
  -2   9  -2 3228.44 206.021   3
  -2   9  -2 2971.22 185.351  10
   2  -9   2 2845.27 124.992   2
   2   9   2 2811.75 182.602   8
   2  -9   2 2939.32 205.958   4
  -2  -9  -2 3031.03 161.888   9
  -2  -9  -2 3320.83 168.424   7
  -2  -9  -2 3150.34 94.1864   5
   2   9   2 3159.25 187.538   2
  -2   9  -3 8440.49 346.376   3
  -2   9  -3 8295.61 323.418  10
   2  -9   3 8292.80 337.876   1
  -2  -9  -3 8513.13 194.248   5
  -2  -9  -3 8347.52 286.491   9
   2  -9   3 8535.91 242.484   2
   2   9   3 7776.43 323.448   8
   2  -9   3 7811.63 356.018   4
  -2  -9  -3 8496.75 288.002   7
   2   9   3 8614.59 324.666   2
  -2  -9  -4 504.721 37.8487   5
   2  -9   4 542.855 82.4955   1
  -2   9  -4 513.229 78.5691   3
  -2  -9  -4 597.736 70.9471   9
   2  -9   4 528.598 52.4844   2
  -2   9  -4 368.356 54.6590   5
   2   9   4 518.078 72.1760   2
   2   9   4 485.915 77.4011   8
   2  -9   4 553.315 94.1396   4
  -2  -9  -4 545.733 67.6385   7
  -2  -9  -5 565.717 42.2624   5
  -2   9  -5 595.732 85.6982   3
  -2  -9  -5 525.291 65.3982   9
   2  -9   5 557.438 55.0577   2
   2  -9   5 553.341 85.5321   1
  -2   9  -5 540.935 67.9896   5
   2   9   5 458.700 77.0686   8
   2  -9   5 606.209 99.5042   4
  -2  -9  -5 499.505 65.0500   7
  -2  -9  -6 4681.29 143.570   5
  -2   9  -6 4435.24 194.494   5
   2  -9   6 4654.34 260.171   1
   2  -9   6 4921.52 178.666   2
   2   9   6 4663.40 250.524   8
  -2  -9  -6 4524.49 194.343   9
   2  -9   6 4353.58 248.982  11
   2  -9   6 4363.43 270.356   4
  -2  -9  -6 5082.05 213.226   7
  -2   9  -6 4473.02 245.337   3
   2  -9   7 5756.34 289.560  11
  -2  -9  -7 5656.86 170.368   5
  -2  -9  -7 5350.17 210.183   9
  -2   9  -7 5687.46 214.961   5
   2  -9   7 5675.95 291.736   1
   2   9   7 5641.55 282.650   8
   2  -9   7 5447.78 305.786   4
  -2  -9  -7 5875.47 234.791   7
  -2   9  -7 5536.93 275.319   3
  -2  -9  -8 1311.29 75.5540   5
  -2  -9  -8 1229.25 93.2649   9
  -2   9  -8 1122.44 86.1700   5
   2   9   8 1104.05 125.066   8
   2  -9   8 1281.19 136.948   1
   2  -9   8 982.705 121.042  11
  -2  -9  -8 1177.41 99.7203   7
   2  -9   8 972.029 99.8260   7
   2  -9   8 1036.67 135.936   4
  -2   9  -8 1259.91 127.277   3
  -2  -9  -9 2968.81 124.191   5
  -2  -9  -9 2910.90 145.011   9
  -2   9  -9 2730.32 133.761   5
   2   9   9 3010.50 206.531   8
   2  -9   9 2922.20 213.164   1
   2  -9   9 2474.83 212.576   4
   2  -9   9 2492.42 161.921   7
  -2   9  -9 2856.94 197.715   3
  -2   9 -10 287.748 64.4061   3
  -2  -9 -10 302.327 47.2315   9
  -2  -9 -10 310.355 42.6659   5
  -2   9 -10 248.098 39.5077   5
   2  -9  10 314.669 75.6499   1
   2   9  10 268.950 65.7042   8
   2  -9  10 184.875 70.5425   4
  -2   9 -11 62.2191 35.0948   3
  -2  -9 -11-8.40974 19.4671   5
  -2   9 -11 4.28114 16.7703   5
  -2  -9 -11 7.25119 19.1291   9
   2   9  11-17.8872 31.4128   8
   2  -9  11 2.73787 28.9729   1
   2   9  12 1021.64 107.378   6
  -2   9 -12 687.624 104.612   3
  -2  -9 -12 777.024 73.6345   5
  -2  -9 -12 740.885 72.8011   9
   2   9  12 899.366 113.685   8
   2  -9  12 684.715 112.323   1
  -2   9 -13 41.8035 36.5339   3
   2  -9  13 62.2559 44.5913   1
  -2  -9 -13 37.9206 24.2128   9
  -2  -9 -13 53.5926 23.4030   5
   2   9  13 145.170 44.4490   6
   2   9  14 2928.92 190.593   6
  -2  -9 -14 2712.74 156.841   5
  -2  -9 -14 2443.41 136.479   9
   2  -9  14 2381.75 220.411   1
  -2   9 -14 2381.73 203.664   3
  -2  -9 -15 9960.16 342.411   5
   2  -9  15 8827.08 458.295   1
  -2   9 -15 9770.40 451.759   3
  -2   9 -16 28.9013 35.6515   3
   2   9  16 187.705 57.7577   6
  -2  -9 -16 104.365 37.0297   5
   2  -9  16 47.2262 37.3954   1
  -2   9 -17 1215.23 160.799   3
  -2  -9 -17 1248.44 119.038   5
   2   9  17 1299.70 136.440   6
  -2   9 -18 500.730 109.109   3
  -2  -9 -18 556.300 82.7385   5
   2   9  18 722.425 106.186   6
  -2 -10  17 20.4244 40.1073   7
   2  10 -16 949.103 139.522   2
  -2  10  16 1333.58 170.376  10
  -2 -10  16 1042.32 178.957   1
  -2 -10  16 1217.97 148.010   7
   2  10 -15 196.735 75.4323   3
   2  10 -15 186.818 65.9941   2
  -2  10  15 176.900 75.3654  10
  -2 -10  15-7.98090 45.3356   1
  -2 -10  15 166.893 54.8933   7
   2  10 -14 1699.98 177.593   2
  -2  10  14 1721.62 185.091  10
  -2 -10  14 2016.07 183.701   7
  -2 -10  14 1793.72 218.406   1
   2  10 -14 1878.52 204.530   3
  -2 -10  13 104.805 63.0688   1
   2  10 -13 64.2127 42.4314   2
  -2  10  13-30.5775 37.1726  10
   2  10 -13 121.924 57.5970   3
   2  10 -13 24.4029 26.3734   8
  -2 -10  13 51.1317 43.3971   7
   2  10 -12 479.312 99.4022   3
  -2  10  12 303.766 79.6564  10
   2  10 -12 364.014 82.6000   2
   2  10 -12 429.322 73.7247   8
  -2 -10  12 574.112 96.6324   7
  -2 -10  12 375.574 65.4734   9
  -2 -10  12 354.365 95.4967   1
   2  10 -11 22.0961 42.3656   3
   2  10 -11 37.5307 36.8840   2
  -2  10  11 72.6923 48.6526  10
  -2 -10  11-12.5961 28.4467   9
   2  10 -11-1.13684 27.4957   8
  -2 -10  11-16.8503 51.7678   1
  -2 -10  11 7.83696 27.8059   7
  -2 -10  10 33.0285 28.5646   9
   2  10 -10 31.5009 33.5632   3
   2  10 -10-39.9121 35.5508   2
  -2  10  10 9.30920 32.8905  10
   2  10 -10 39.2775 22.3930   8
  -2 -10  10 9.79687 38.0669   1
  -2 -10  10 32.3241 31.3861   7
   2  10  -9 1081.97 129.012   2
  -2  10   9 1029.68 132.815  10
  -2 -10   9 1259.33 161.752   1
   2  10  -9 1031.21 110.443   8
  -2 -10   9 1225.24 113.106   9
  -2 -10   9 1225.38 129.751   7
   2  10  -9 1239.99 138.104   3
  -2  10   8 26555.0 767.801  10
  -2 -10   8 26803.0 661.440   9
   2  10  -8 25272.2 674.543   8
  -2 -10   8 27006.8 834.208   1
  -2 -10   8 27998.3 723.702   7
   2  10  -8 25887.5 734.326   3
   2  10  -8 24112.1 713.978   2
   2  10  -7 860.348 112.244   2
  -2 -10   7 896.174 135.413   1
  -2 -10   7 793.518 88.9946   9
  -2  10   7 792.223 115.872  10
   2  10  -7 870.719 99.3902   8
   2 -10  -7 875.719 111.127   4
  -2 -10   7 926.315 108.606   7
   2  10  -7 996.918 115.981   3
  -2  10   6 1441.34 147.726  10
  -2 -10   6 1367.68 117.383   9
   2  10  -6 1220.41 116.618   8
   2 -10  -6 1378.02 136.706   4
  -2 -10   6 1527.14 134.639   7
   2  10  -6 1384.67 129.138   3
  -2 -10   6 1157.21 149.107   1
   2  10  -6 1251.69 130.326   2
  -2  10   5 1666.44 157.603  10
  -2 -10   5 1646.47 128.452   9
  -2 -10   5 1635.59 172.851   1
   2  10  -5 1781.79 141.759   8
   2 -10  -5 1894.72 157.718   4
  -2 -10   5 1851.29 147.355   7
   2  10  -5 1759.90 141.462   3
   2  10  -5 1578.97 145.573   2
  -2  10   4 546.732 90.8493  10
  -2 -10   4 543.515 74.7934   9
  -2 -10   4 419.883 85.7648   1
   2 -10  -4 477.797 83.0481   4
   2  10  -4 511.052 71.9368   3
  -2 -10   4 536.551 79.6136   7
   2  10  -4 433.271 71.9296   8
   2  10  -4 483.987 82.6367   2
  -2  10   3 270.578 64.6812  10
  -2 -10   3 429.773 66.2439   9
   2 -10  -3 361.999 37.1396   2
  -2 -10   3 348.332 83.1715   1
   2  10  -3 390.667 61.3447   3
   2  10  -3 429.771 73.8549   8
   2 -10  -3 261.940 59.0817   4
  -2 -10   3 477.474 73.0517   7
   2  10  -3 353.283 69.9373   2
  -2  10   2 2407.42 194.606   3
  -2  10   2 2516.56 187.670  10
  -2 -10   2 2371.58 149.062   9
  -2 -10   2 2427.25 202.862   1
   2 -10  -2 2411.63 103.417   2
   2  10  -2 2245.14 161.556   8
   2 -10  -2 2234.46 177.408   4
  -2 -10   2 2492.17 160.025   7
   2  10  -2 2325.54 144.243   3
   2  10  -2 2351.22 173.277   2
   2 -10  -1 75.7604 21.2649   2
  -2 -10   1 41.4688 44.4097   1
  -2 -10   1 141.519 48.0273   9
  -2  10   1 61.6992 39.9722   3
   2  10  -1 33.7160 22.6155   3
   2  10  -1 34.6785 34.5475   8
  -2  10   1 113.728 43.5466  10
   2 -10  -1 25.1322 33.6578   4
  -2 -10   1 71.8655 38.3717   7
   2  10  -1 74.0103 36.2759   2
  -2  10   0 1450.19 148.602   3
  -2  10   0 1333.79 129.955  10
  -2 -10   0 1388.95 149.451   1
  -2 -10   0 1452.65 115.854   9
   2  10   0 1552.52 135.666   8
   2 -10   0 1354.05 79.2125   2
   2 -10   0 1383.31 142.442   4
  -2 -10   0 1493.53 120.587   7
   2  10   0 1679.34 142.363   2
  -2  10  -1 4225.43 251.436   3
  -2 -10  -1 4152.86 197.684   9
   2 -10   1 3879.29 244.456   4
   2 -10   1 4334.65 152.711   2
   2  10   1 4095.71 228.321   8
  -2 -10  -1 4532.70 211.805   7
  -2  10  -1 4038.15 228.172  10
   2  10   1 4524.57 237.884   2
  -2  10  -2 2610.11 193.184   3
  -2  10  -2 2286.87 165.671  10
  -2 -10  -2 2327.69 142.378   9
   2 -10   2 2534.34 114.589   2
   2  10   2 2423.20 172.793   8
   2 -10   2 2222.37 184.489   4
  -2 -10  -2 2385.59 150.416   7
   2  10   2 2462.64 170.565   2
  -2  10  -3 814.474 96.7117  10
  -2  10  -3 834.218 107.759   3
   2 -10   3 644.852 95.0733   1
   2 -10   3 864.948 65.9994   2
  -2  10  -3 696.217 79.8381   5
   2  10   3 664.744 92.5793   8
   2  10   3 732.938 92.0029   2
   2 -10   3 535.553 91.3103   4
  -2 -10  -3 829.742 83.3282   9
  -2 -10  -3 666.733 77.9125   7
   2 -10   4 9208.18 383.693   1
  -2 -10  -4 9128.39 304.278   9
  -2  10  -4 9506.04 314.797   5
   2  10   4 9125.57 365.540   8
   2 -10   4 8661.73 390.158   4
  -2 -10  -4 9537.68 325.252   7
  -2  10  -4 9549.74 386.693   3
  -2 -10  -5 436.853 58.5822   9
  -2  10  -5 362.036 75.2521   3
   2 -10   5 435.114 80.4345   1
  -2  10  -5 323.150 50.3129   5
   2  10   5 531.734 83.9263   8
   2 -10   5 515.594 95.6049   4
  -2 -10  -5 459.131 66.9993   7
  -2 -10  -6 1200.56 67.8802   5
  -2 -10  -6 1175.91 95.8658   9
   2 -10   6 1171.36 134.257   1
  -2  10  -6 1099.67 90.7169   5
   2  10   6 1132.74 125.209   8
  -2 -10  -6 1068.48 101.300   7
   2 -10   6 1047.89 133.673   4
  -2  10  -6 1147.61 126.463   3
  -2 -10  -7 6828.61 197.363   5
  -2 -10  -7 6967.75 246.397   9
   2 -10   7 6720.90 339.372   1
   2  10   7 6357.88 312.481   8
   2 -10   7 6399.84 344.816   4
  -2 -10  -7 6889.44 271.939   7
   2 -10   7 5937.69 279.345   7
  -2  10  -7 6613.02 318.351   3
   2 -10   8 629.589 94.9705  11
  -2 -10  -8 768.373 60.5687   5
  -2 -10  -8 721.984 71.4904   9
   2  10   8 734.105 108.132   8
   2 -10   8 666.153 109.366   4
   2 -10   8 774.804 114.412   1
  -2 -10  -8 695.442 83.1105   7
   2 -10   8 640.294 88.3709   7
  -2  10  -8 886.189 112.936   3
  -2 -10  -9 1034.51 75.4044   5
  -2 -10  -9 1068.66 87.3029   9
   2  10   9 1109.62 128.812   8
   2 -10   9 1114.43 138.875   1
   2 -10   9 1031.22 127.793  11
   2 -10   9 909.814 101.586   7
   2 -10   9 829.853 127.002   4
  -2  10  -9 998.158 121.091   3
   2 -10  10 1094.78 143.673   1
  -2 -10 -10 1546.37 97.7832   5
  -2 -10 -10 1365.88 100.863   9
   2  10  10 1126.38 132.596   8
   2 -10  10 1287.44 146.480  11
   2 -10  10 1197.69 154.132   4
  -2  10 -10 1251.54 140.605   3
   2  10  11 2687.89 174.317   6
  -2 -10 -11 2478.80 133.740   5
  -2 -10 -11 2258.56 132.949   9
   2  10  11 2269.81 190.886   8
   2 -10  11 2284.97 210.115   1
   2 -10  11 2011.81 201.403   4
   2 -10  11 2091.94 188.416  11
  -2  10 -11 2439.44 199.477   3
   2  10  12 1223.09 118.085   6
  -2 -10 -12 990.611 88.7024   5
  -2 -10 -12 1074.85 89.1602   9
   2 -10  12 750.801 123.024   1
   2 -10  12 992.639 146.354   4
  -2  10 -12 1062.15 134.606   3
   2  10  13 2381.50 169.133   6
  -2 -10 -13 1859.63 126.585   5
  -2 -10 -13 1917.02 123.056   9
   2 -10  13 1686.56 186.484   1
   2 -10  13 1369.36 172.724   4
  -2  10 -13 1729.08 174.823   3
   2  10  14 2691.93 185.797   6
  -2 -10 -14 2217.59 144.639   5
  -2 -10 -14 2500.39 142.357   9
   2 -10  14 1996.30 213.754   4
   2 -10  14 1757.18 196.345   1
  -2  10 -14 2126.83 201.899   3
  -2  10 -15 935.817 137.796   3
  -2 -10 -15 786.250 89.2242   5
   2 -10  15 747.499 133.718   4
   2 -10  15 773.990 130.003   1
   2  10  15 983.681 116.110   6
  -2 -10 -16 971.223 104.365   5
  -2  10 -16 1197.43 159.838   3
   2 -10  16 1242.14 175.189   4
   2  10  16 1540.72 146.178   6
  -2  10 -17 51.9991 44.2934   3
  -2 -10 -17 22.5284 26.0875   5
   2  10  17 40.7329 34.9189   6
   2 -10  17 139.155 57.7483   4
  -2  11  16 136.443 56.8988  10
   2  11 -16 70.9277 55.1508   3
  -2 -11  16 155.156 55.8351   7
   2  11 -15 1627.04 182.453   2
   2  11 -15 1561.06 199.525   3
  -2  11  15 1589.11 189.160  10
  -2 -11  15 2145.52 196.352   7
  -2 -11  15 1712.43 225.037   1
   2  11 -14 1260.50 159.167   2
   2  11 -14 1134.22 167.294   3
  -2  11  14 1219.49 165.452  10
  -2 -11  14 1404.77 155.322   7
  -2 -11  14 1640.01 212.308   1
   2  11 -13 2205.72 202.047   2
  -2  11  13 2289.74 217.698  10
   2  11 -13 1933.84 163.105   8
  -2 -11  13 2261.18 195.186   7
  -2 -11  13 2016.51 235.015   1
   2  11 -13 2007.98 210.802   3
   2  11 -12 925.358 141.443   3
   2  11 -12 993.910 134.041   2
  -2  11  12 1157.37 151.789  10
  -2 -11  12 1107.52 169.133   1
   2  11 -12 999.353 115.797   8
  -2 -11  12 1081.98 131.359   7
   2  11 -11 63.5700 45.7907   3
   2  11 -11-4.16747 27.6718   2
  -2  11  11-16.7367 37.5341  10
  -2 -11  11-19.3459 29.7209   9
  -2 -11  11 34.9469 38.4693   1
   2  11 -11 56.4580 38.4945   8
  -2 -11  11 18.9451 35.9616   7
   2  11 -10 2236.18 192.330   2
  -2  11  10 2198.14 203.247  10
  -2 -11  10 2298.45 155.389   9
   2  11 -10 2374.70 175.592   8
  -2 -11  10 2124.74 225.653   1
  -2 -11  10 2399.45 188.624   7
   2  11 -10 2068.94 193.967   3
   2  11  -9 6161.25 323.597   2
  -2  11   9 6268.69 344.307  10
  -2 -11   9 6520.20 273.767   9
   2  11  -9 5933.24 287.120   8
  -2 -11   9 6533.83 397.038   1
  -2 -11   9 7147.35 329.084   7
   2  11  -9 6641.95 340.482   3
  -2  11   8 3966.14 267.321  10
  -2 -11   8 4357.68 217.763   9
   2  11  -8 3853.46 224.655   8
  -2 -11   8 4108.46 303.026   1
  -2 -11   8 4560.96 253.103   7
   2  11  -8 4214.09 256.715   3
   2  11  -8 4061.65 253.710   2
  -2  11   7 3467.80 246.774  10
  -2 -11   7 3557.44 193.688   9
  -2 -11   7 3492.85 274.876   1
   2 -11  -7 3976.98 246.874   4
   2  11  -7 3145.66 202.008   8
  -2 -11   7 3922.77 229.189   7
   2  11  -7 3574.95 227.862   3
   2  11  -7 3407.60 227.846   2
   2  11  -6 42.4128 33.4217   2
  -2 -11   6-66.6969 32.3162   9
  -2  11   6-30.4312 49.2445  10
   2  11  -6 44.8811 34.7561   3
   2  11  -6 15.7827 19.7852   8
   2 -11  -6 45.3035 49.3829   4
  -2 -11   6-17.3501 33.1380   1
  -2 -11   6 50.4536 37.0283   7
  -2  11   5 1039.88 130.386  10
  -2 -11   5 912.282 97.1036   9
   2  11  -5 914.024 105.930   8
   2 -11  -5 1092.66 126.400   4
  -2 -11   5 1025.68 143.806   1
  -2 -11   5 1047.01 112.152   7
   2  11  -5 880.000 103.666   3
   2  11  -5 1012.59 120.540   2
   2  11  -4 16.4273 26.0290   3
  -2 -11   4 55.7647 40.8798   9
  -2 -11   4 34.5895 34.6011   1
  -2  11   4 94.8693 60.0673  10
   2  11  -4 15.0501 29.4381   8
   2 -11  -4 39.4492 23.9276   4
  -2 -11   4 46.1426 27.6755   7
   2  11  -4 13.4242 25.8298   2
  -2 -11   3 2368.28 152.138   9
  -2  11   3 2700.08 219.525   3
  -2 -11   3 1978.34 198.800   1
   2  11  -3 2260.11 167.802   8
  -2  11   3 2769.11 204.896  10
   2 -11  -3 2122.60 177.782   4
  -2 -11   3 2638.11 175.070   7
   2  11  -3 2213.36 154.221   3
   2  11  -3 2313.79 181.021   2
  -2 -11   2 75.1770 46.7632   1
  -2  11   2 112.701 46.5243  10
  -2  11   2 92.3113 43.4626   3
   2  11  -2 77.9148 29.4756   3
   2  11  -2 95.7131 33.4573   8
   2 -11  -2 90.1460 49.6405   4
  -2 -11   2 86.2457 36.2758   7
  -2 -11   2 200.600 51.6081   9
   2  11  -2 158.462 51.8628   2
  -2  11   1 2157.54 175.340  10
  -2 -11   1 1580.14 172.370   1
  -2 -11   1 2040.60 137.099   9
   2 -11  -1 1875.01 90.4514   2
   2  11  -1 1625.25 143.563   8
  -2  11   1 1924.86 183.472   3
   2 -11  -1 1857.88 167.399   4
  -2 -11   1 1964.15 147.173   7
   2  11  -1 1825.81 156.055   2
  -2  11   0 11862.8 466.753   3
  -2 -11   0 10404.3 342.796   9
   2  11   0 9392.02 378.825   8
  -2  11   0 10798.5 407.193  10
   2 -11   0 10086.3 418.076   4
  -2 -11   0 10890.9 372.167   7
   2  11   0 10957.5 409.384   2
  -2  11  -1-50.2202 43.6277  10
  -2  11  -1-27.0437 37.0439   3
  -2 -11  -1 47.0233 32.4194   9
   2  11   1 35.7108 33.9276   8
   2 -11   1 26.1745 32.8650   4
   2  11   1 25.6757 26.1557   2
  -2 -11  -1 6.90683 28.1726   7
  -2  11  -2 11728.3 458.246   3
  -2 -11  -2 11072.1 348.825   9
  -2  11  -2 11342.7 407.742  10
   2  11   2 10292.6 402.748   8
  -2 -11  -2 11451.2 381.180   7
   2 -11   2 10939.5 447.484   4
  -2  11  -3 978.793 121.274   3
   2  11   3 823.799 107.779   8
  -2 -11  -3 724.474 80.1557   9
   2 -11   3 787.155 116.007   4
  -2 -11  -3 704.709 86.3894   7
   2 -11   4 154.900 54.0381   1
  -2  11  -4 158.665 54.0083   3
  -2 -11  -4 189.822 46.7573   9
   2  11   4 175.019 54.7886   8
   2 -11   4 103.769 42.3190   4
  -2 -11  -4 253.970 54.2600   7
   2 -11   5 278.904 71.8406   1
  -2 -11  -5 311.173 52.0239   9
  -2  11  -5 242.251 65.7078   3
   2  11   5 203.908 56.7343   8
   2 -11   5 232.561 57.7090   4
  -2 -11  -5 240.741 56.1179   7
  -2  11  -6 47.6316 34.2548   3
  -2 -11  -6 42.4792 28.7538   9
   2 -11   6-13.5077 37.6444   1
   2  11   6 31.4806 32.3929   8
   2 -11   6-6.21005 34.7422   4
  -2 -11  -6-17.2551 28.1428   7
  -2 -11  -7 1371.59 105.524   9
   2 -11   7 1427.07 158.993   1
   2  11   7 1450.91 147.898   8
  -2 -11  -7 1153.77 111.998   7
   2 -11   7 1108.83 120.691   7
   2 -11   7 1209.81 148.144   4
  -2  11  -7 1181.23 134.709   3
  -2 -11  -8 1227.27 98.4166   9
   2  11   8 1243.09 139.890   8
   2 -11   8 1088.09 144.209   1
  -2 -11  -8 1087.35 109.131   7
   2 -11   8 958.483 113.365   7
   2 -11   8 1071.69 142.166   4
  -2  11  -8 1177.35 137.823   3
  -2  11  -9-41.3345 35.7632   3
  -2 -11  -9-6.01801 19.8866   9
   2  11   9-19.0607 26.1455   8
   2 -11   9 19.0750 40.4052   4
   2 -11   9-1.15035 36.8285   1
   2 -11   9 0.25958 33.2700   7
  -2  11 -10 236.735 66.8735   3
   2 -11  10 135.957 53.8672  11
  -2 -11 -10 311.834 51.7822   9
   2  11  10 181.960 61.4215   8
   2 -11  10 197.387 70.1294   4
   2 -11  10 209.747 67.3084   1
   2  11  11 2763.57 182.938   6
   2 -11  11 2282.78 196.877  11
  -2 -11 -11 2457.53 142.539   9
   2  11  11 2538.79 210.773   8
   2 -11  11 2423.59 225.092   1
   2 -11  11 2195.88 214.338   4
  -2  11 -11 2475.05 207.375   3
   2  11  12 2728.16 182.337   6
   2 -11  12 2281.54 197.379  11
  -2 -11 -12 2399.46 142.664   9
   2 -11  12 2000.27 210.581   1
   2 -11  12 2177.79 219.971   4
  -2  11 -12 2061.35 193.796   3
  -2  11 -13 743.832 119.500   3
  -2 -11 -13 832.930 86.4233   9
   2 -11  13 526.548 108.997   1
   2  11  13 989.682 109.874   6
   2 -11  13 679.187 127.917   4
   2  11  14 6677.11 303.112   6
  -2 -11 -14 5474.82 243.705   5
  -2 -11 -14 5389.12 228.679   9
   2 -11  14 4702.38 334.469   4
  -2  11 -14 5299.18 331.357   3
  -2  11 -15 694.921 126.647   3
   2  11  15 651.438 93.8300   6
  -2 -11 -15 391.518 67.1034   5
   2 -11  15 554.222 118.654   4
  -2 -11 -16 1585.61 137.625   5
   2 -11  16 1626.00 199.718   4
   2  11  16 2206.90 178.884   6
  -2  12  15 71.8331 63.6664  10
   2  12 -14 31.4810 44.2297   3
   2  12 -14-17.0020 41.0686   2
  -2  12  14-73.2581 61.1907  10
  -2 -12  14-54.8021 57.7478   1
  -2 -12  14 0.23903 41.1038   7
   2  12 -13 899.723 142.528   3
   2  12 -13 885.610 136.889   2
  -2  12  13 908.217 139.269  10
  -2 -12  13 985.207 169.078   1
  -2 -12  13 1058.33 135.694   7
   2  12 -12 8.27455 37.0747   3
   2  12 -12 64.8193 57.1648   2
  -2  12  12-25.8843 44.7827  10
  -2 -12  12 97.4631 58.6274   1
   2  12 -12 96.5369 46.4938   8
  -2 -12  12 80.7696 48.5574   7
   2  12 -11 146.194 56.6754   2
   2  12 -11 125.959 59.4051   3
  -2  12  11 250.040 76.6557  10
  -2 -12  11 91.2811 59.2232   1
   2  12 -11 107.465 46.3769   8
  -2 -12  11 200.648 65.0957   7
   2  12 -10 355.441 81.3913   2
  -2 -12  10 513.786 118.494   1
   2  12 -10 415.777 93.4263   3
  -2  12  10 520.541 105.676  10
  -2 -12  10 555.943 75.6772   9
   2  12 -10 387.112 75.2220   8
  -2 -12  10 502.966 89.4778   7
  -2  12   9 2530.62 221.585  10
  -2 -12   9 2688.38 166.704   9
   2  12  -9 2479.51 186.211   8
  -2 -12   9 2443.61 248.988   1
  -2 -12   9 2378.27 188.435   7
   2  12  -9 2439.67 207.425   3
   2  12  -9 2228.70 195.812   2
  -2  12   8 5712.26 334.118  10
  -2 -12   8 5761.44 252.162   9
  -2 -12   8 4807.17 348.302   1
   2  12  -8 5243.39 276.376   8
  -2 -12   8 5862.74 298.372   7
   2  12  -8 5067.11 293.827   3
   2  12  -8 5353.76 304.614   2
   2  12  -7 7.42645 24.2064   3
  -2 -12   7-20.4874 35.4662   9
   2  12  -7 57.4413 36.9822   8
  -2  12   7-9.47138 37.0446  10
  -2 -12   7 49.5355 55.1025   1
   2  12  -7 129.738 62.5802   2
  -2 -12   7 25.8809 41.1021   7
  -2  12   6 2255.76 200.065  10
  -2 -12   6 2167.03 148.668   9
  -2 -12   6 2256.37 230.297   1
   2 -12  -6 2108.17 186.440   4
   2  12  -6 2003.45 163.916   8
  -2 -12   6 2125.11 170.187   7
   2  12  -6 2018.67 170.438   3
   2  12  -6 2066.30 181.140   2
  -2 -12   5 934.821 98.9794   9
   2  12  -5 927.065 111.688   8
  -2 -12   5 881.239 143.405   1
   2 -12  -5 981.983 127.020   4
  -2 -12   5 895.716 109.103   7
  -2  12   5 1086.93 136.700  10
   2  12  -5 861.128 108.199   3
   2  12  -5 984.375 123.950   2
  -2  12   4 1231.31 143.933  10
  -2 -12   4 1427.20 118.152   9
  -2 -12   4 1429.87 174.747   1
   2  12  -4 1130.61 122.989   8
   2 -12  -4 1518.68 156.959   4
  -2 -12   4 1399.89 134.730   7
  -2  12   4 1431.22 170.546   3
   2  12  -4 1441.64 131.339   3
   2  12  -4 1413.32 147.098   2
  -2  12   3-10.9273 33.8547  10
  -2 -12   3-16.6163 47.2294   1
  -2  12   3 90.8812 58.7285   3
  -2 -12   3 95.5416 49.8745   9
   2 -12  -3 21.0827 40.4089   4
   2  12  -3-40.4054 33.3198   8
  -2 -12   3 29.3143 27.5638   7
   2  12  -3 33.6208 26.5757   2
  -2 -12   2 186.124 65.4854   1
  -2  12   2 301.001 75.2243  10
  -2 -12   2 419.771 68.7256   9
  -2  12   2 283.350 84.2751   3
   2  12  -2 237.537 59.3300   8
   2 -12  -2 128.157 54.9477   4
  -2 -12   2 364.197 70.6808   7
   2  12  -2 269.442 64.6103   2
  -2  12   1 14301.4 545.800   3
  -2  12   1 13163.2 480.388  10
  -2 -12   1 12048.7 527.268   1
  -2 -12   1 12553.5 391.599   9
   2  12  -1 11516.1 437.449   8
   2 -12  -1 12764.4 489.420   4
  -2 -12   1 13279.5 439.492   7
   2  12  -1 13507.7 476.352   2
  -2  12   0 874.154 113.217  10
  -2 -12   0 776.171 85.6935   9
  -2  12   0 992.093 135.384   3
   2  12   0 664.811 98.3136   8
   2 -12   0 747.219 111.266   4
  -2 -12   0 768.313 95.0071   7
  -2  12  -1-5.77352 35.5658  10
  -2  12  -1 7.57077 37.3544   3
   2  12   1-12.8538 28.3937   8
   2 -12   1 66.9639 50.8973   4
  -2 -12  -1-31.8236 30.2345   7
  -2 -12  -1 0.12155 25.5562   9
  -2 -12  -2 116.002 38.8188   9
  -2  12  -2 72.0084 44.1446   3
   2  12   2 104.897 49.5885   8
   2 -12   2 104.945 60.2049   4
  -2 -12  -2 22.9421 28.3955   7
  -2 -12  -3 1124.75 99.6126   9
   2  12   3 933.576 117.097   8
  -2 -12  -3 970.826 107.235   7
   2 -12   3 1112.09 137.918   4
  -2  12  -3 1222.35 146.621   3
  -2 -12  -4 1071.06 97.2743   9
  -2  12  -4 1055.08 133.870   3
   2  12   4 936.740 119.829   8
  -2 -12  -4 1121.63 117.587   7
   2 -12   4 1110.53 141.253   4
   2 -12   4 908.205 129.571   1
   2 -12   5 1768.52 177.548   1
  -2 -12  -5 1781.43 123.938   9
   2  12   5 1565.22 156.468   8
   2 -12   5 1593.69 173.771   4
  -2 -12  -5 1805.50 146.418   7
  -2  12  -5 2045.03 187.137   3
  -2 -12  -6 1022.51 92.5530   9
   2 -12   6 878.229 129.376   1
  -2  12  -6 876.489 117.504   3
   2  12   6 981.587 125.522   8
  -2 -12  -6 862.796 102.867   7
   2 -12   6 870.346 130.066   4
  -2  12  -7 42.5359 37.5877   3
   2 -12   7 52.7010 48.4618   1
  -2 -12  -7 29.2497 33.7104   9
   2  12   7 57.8590 43.0503   8
   2 -12   7 52.8244 47.8244   4
  -2 -12  -7 11.1622 27.0025   7
  -2  12  -8 466.551 91.1187   3
  -2 -12  -8 544.773 70.4332   9
   2 -12   8 680.007 118.683   1
   2  12   8 441.071 89.0610   8
   2 -12   8 546.287 108.671   4
   2 -12   8 390.838 76.3573   7
  -2  12  -9 216.355 68.6934   3
  -2 -12  -9 211.194 45.3097   9
   2  12   9 111.928 45.3345   8
   2 -12   9 170.328 68.9702   1
   2 -12   9 176.873 57.6619   4
   2 -12   9 150.456 54.0797   7
   2  12  10 557.037 82.2986   6
  -2  12 -10 665.824 114.840   3
  -2 -12 -10 555.419 68.4263   9
   2  12  10 515.188 95.5033   8
   2 -12  10 453.179 100.555   1
   2 -12  10 492.260 104.035   4
  -2  12 -11 822.015 127.477   3
  -2 -12 -11 909.230 91.0666   9
   2  12  11 705.272 115.946   8
   2 -12  11 773.774 131.898   4
   2 -12  11 592.289 116.444   1
  -2  12 -12 331.952 82.4521   3
  -2 -12 -12 270.507 52.4797   9
   2 -12  12 134.836 57.6276   4
   2 -12  12 130.814 70.4104   1
  -2 -12 -13 2238.56 145.195   9
   2 -12  13 2332.42 232.509   4
  -2  12 -13 2572.19 230.348   3
  -2 -12 -14 9831.68 333.183   9
   2 -12  14 8478.67 464.532   4
  -2  12 -14 9177.45 461.191   3
   2 -12  15 3784.50 303.745   4
  -2  13  14 36.9190 41.7392  10
   2  13 -13 44.0871 38.7837   2
   2  13 -13 136.467 76.8984   3
  -2  13  13 4.56896 54.5665  10
   2  13 -12 10.3278 44.3142   2
   2  13 -12 130.955 74.9757   3
  -2  13  12 131.225 71.2121  10
  -2 -13  12 125.658 84.6477   1
   2  13 -12 116.612 49.2989   8
  -2 -13  12 81.4038 35.6237   7
   2  13 -11 432.961 93.1385   2
  -2  13  11 531.864 111.340  10
   2  13 -11 599.092 119.112   3
   2  13 -11 502.673 92.1289   8
  -2 -13  11 600.398 98.4293   7
  -2 -13  11 408.415 114.735   1
   2  13 -10 133.104 55.8242   2
   2  13 -10 101.021 48.4675   3
  -2  13  10 13.3495 42.6060  10
   2  13 -10 98.7083 44.7590   8
  -2 -13  10 137.299 54.4686   7
  -2 -13  10 241.098 90.8528   1
  -2  13   9 1680.58 186.843  10
  -2 -13   9 1905.18 139.477   9
  -2 -13   9 1774.24 216.679   1
   2  13  -9 1723.91 160.905   8
  -2 -13   9 1614.96 160.240   7
   2  13  -9 1539.13 170.684   3
   2  13  -9 1372.29 159.784   2
   2  13  -8 1.63597 34.3343   3
  -2  13   8 72.2890 53.3645  10
  -2 -13   8 12.5677 31.6072   9
   2  13  -8-21.3316 27.0052   2
   2  13  -8-7.82730 21.2859   8
  -2 -13   8-37.6175 58.2409   1
  -2 -13   8 22.6950 29.2862   7
  -2  13   7 1524.03 176.249  10
  -2 -13   7 1477.53 125.186   9
  -2 -13   7 1988.68 225.273   1
   2  13  -7 1445.76 146.755   8
  -2 -13   7 1640.48 157.727   7
   2  13  -7 1506.51 156.371   3
   2  13  -7 1676.83 169.717   2
   2  13  -6-26.0493 36.9552   2
   2  13  -6-80.4403 41.0734   3
  -2 -13   6 16.9165 29.4257   9
  -2  13   6-45.2743 42.5752   3
  -2  13   6 50.7927 45.4624  10
  -2 -13   6 16.0608 43.2075   1
   2  13  -6 33.8369 40.3794   8
   2 -13  -6 34.2494 42.6599   4
  -2 -13   6 56.9297 45.5058   7
   2  13  -5 40.6183 36.3426   3
  -2 -13   5 2.72345 27.4685   9
  -2  13   5 101.066 62.4137   3
  -2 -13   5 39.9324 56.1392   1
   2  13  -5 55.7015 36.7818   8
   2 -13  -5 96.5824 46.7815   4
  -2  13   5-3.59967 41.8245  10
  -2 -13   5 13.5441 32.2313   7
   2  13  -5-24.9015 27.6491   2
  -2  13   4 16.9026 45.8811  10
  -2 -13   4-0.85297 35.7646   9
  -2  13   4 46.2709 49.9039   3
  -2 -13   4-17.3981 52.2765   1
   2  13  -4-2.74790 24.9923   8
   2 -13  -4-20.3186 35.0516   4
  -2 -13   4 51.1004 34.9043   7
   2  13  -4 13.8298 30.0011   2
  -2 -13   3 22.7303 33.2283   1
  -2 -13   3 3.04880 27.5626   9
  -2  13   3 151.534 68.8929   3
   2  13  -3 86.5610 49.2620   8
   2 -13  -3 53.6036 45.9437   4
  -2 -13   3 28.5681 34.1843   7
   2  13  -3 62.2718 44.2897   2
  -2 -13   2 253.293 76.3667   1
  -2 -13   2 117.363 34.8275   9
  -2  13   2 132.238 56.0256   3
   2  13  -2 191.677 53.7203   8
   2 -13  -2 159.807 64.5855   4
  -2 -13   2 154.928 59.5162   7
  -2  13   1 3015.71 249.875   3
  -2 -13   1 2625.35 161.510   9
   2  13  -1 2519.44 195.190   8
   2 -13  -1 2625.33 216.232   4
  -2 -13   1 2868.13 196.226   7
  -2 -13   0 14.9092 22.8996   9
  -2  13   0 57.6542 52.0006   3
   2  13   0 134.323 47.5024   8
   2 -13   0 78.9323 51.1694   4
  -2 -13   0 54.9836 33.2814   7
  -2 -13  -1 420.493 64.1906   9
  -2  13  -1 385.660 85.7956   3
   2  13   1 372.475 79.4777   8
   2 -13   1 349.060 85.3945   4
  -2 -13  -1 419.282 74.2127   7
   2  13   2 751.962 110.291   8
  -2  13  -2 782.176 124.957   3
  -2 -13  -2 624.549 78.1372   9
   2 -13   2 630.740 107.653   4
  -2 -13  -2 639.310 90.4364   7
  -2  13  -3-26.2767 48.6988   3
  -2 -13  -3-8.79347 27.9289   9
   2  13   3-17.6337 26.4898   8
   2 -13   3 57.4325 56.7869   4
  -2 -13  -3 42.0281 31.8082   7
  -2 -13  -4 1971.54 134.806   9
   2  13   4 2037.08 182.456   8
   2 -13   4 1968.01 195.094   4
  -2 -13  -4 1825.52 158.187   7
  -2  13  -4 2032.30 194.427   3
   2 -13   5 2192.80 209.623   1
  -2 -13  -5 2277.84 145.563   9
   2  13   5 2071.47 188.330   8
   2 -13   5 2341.52 212.116   4
  -2 -13  -5 2546.56 188.105   7
  -2  13  -5 2754.00 226.131   3
   2 -13   6 1069.57 149.409   1
  -2 -13  -6 1047.94 98.0244   9
   2  13   6 741.947 114.669   8
  -2 -13  -6 1113.61 123.024   7
   2 -13   6 1133.62 152.359   4
  -2  13  -6 1171.02 148.684   3
  -2 -13  -7 2272.33 145.070   9
   2 -13   7 2262.35 219.506   1
   2  13   7 2454.95 208.172   8
   2 -13   7 2228.63 211.920   4
  -2 -13  -7 2219.65 176.871   7
  -2  13  -7 2400.36 213.311   3
  -2  13  -8 948.897 135.117   3
  -2 -13  -8 862.328 86.9096   9
   2 -13   8 836.686 135.982   1
   2  13   8 962.745 132.828   8
   2 -13   8 714.964 124.244   4
  -2 -13  -9 270.755 51.2445   9
   2 -13   9 128.023 57.1263   1
  -2  13  -9 451.722 96.9636   3
   2  13   9 151.577 51.6297   8
   2 -13   9 178.373 63.9541   4
   2 -13   9 179.892 62.9819   7
  -2  13 -10 36.4034 56.4601   3
  -2 -13 -10 54.9556 32.9712   9
   2 -13  10-6.89722 50.8801   1
   2  13  10 16.9683 40.1282   8
   2 -13  10 52.6337 39.4796   4
  -2  13 -11 170.482 67.6834   3
  -2 -13 -11 197.341 48.0195   9
   2 -13  11 48.4857 40.4990   4
  -2  13 -12 1088.05 153.553   3
  -2 -13 -12 929.681 95.0644   9
   2 -13  12 976.883 150.459   4
  -2 -13 -13 41.5466 32.8207   9
   2 -13  13 56.4322 56.9605   4
   2 -13  14 381.223 105.232   4
   2  14 -12 2023.87 187.210   8
   2  14 -12 1575.51 196.751   3
   2  14 -11 867.831 135.221   2
   2  14 -11 1118.41 156.236   3
   2  14 -11 921.688 128.160   8
   2  14 -10 173.269 65.7486   2
   2  14 -10 93.8128 57.0988   3
   2  14 -10 273.303 67.3852   8
  -2 -14  10 277.608 103.653   1
  -2 -14  10 54.5061 33.8605   7
   2  14  -9 276.308 73.7007   2
   2  14  -9 215.239 69.5245   3
   2  14  -9 242.868 66.9143   8
  -2 -14   9 349.016 108.692   1
  -2 -14   9 342.573 78.7887   7
  -2 -14   9 260.259 58.4191   9
   2  14  -8 134.536 52.7677   2
   2  14  -8 84.7383 47.1374   3
  -2 -14   8 66.0512 30.8606   9
  -2  14   8-5.23678 69.1875   3
  -2 -14   8 120.400 81.6543   1
   2  14  -8 56.3922 38.4532   8
  -2 -14   8 49.8191 37.4796   7
   2  14  -7 992.866 138.672   2
  -2 -14   7 1077.51 105.343   9
  -2  14   7 1489.05 211.283   3
   2  14  -7 1263.27 142.164   8
  -2 -14   7 1210.75 184.797   1
  -2 -14   7 1249.20 143.072   7
  -2 -14   6 565.032 78.8012   9
  -2 -14   6 633.946 137.649   1
  -2  14   6 640.520 135.119   3
   2  14  -6 555.740 94.5211   8
  -2 -14   6 625.876 101.045   7
   2  14  -6 558.385 101.245   2
  -2 -14   5-45.8551 61.5129   1
  -2 -14   5 8.39382 31.4603   9
  -2  14   5-8.90652 58.1656   3
   2  14  -5 35.2683 32.8649   8
   2 -14  -5-7.05903 33.0888   4
  -2 -14   5 9.50239 28.9598   7
  -2 -14   4 388.974 101.095   1
  -2 -14   4 363.516 63.6700   9
  -2  14   4 493.755 120.411   3
   2  14  -4 300.994 68.3461   8
   2 -14  -4 313.839 84.6468   4
  -2 -14   4 339.597 72.4770   7
  -2 -14   3 1383.65 187.836   1
  -2 -14   3 1398.21 118.273   9
  -2  14   3 1588.82 192.189   3
   2  14  -3 1465.51 151.756   8
   2 -14  -3 1449.11 164.861   4
  -2 -14   3 1474.97 149.073   7
  -2 -14   2 57.6964 27.4193   9
  -2  14   2 95.4264 50.2589   3
   2  14  -2 47.7975 33.0628   8
   2 -14  -2 155.266 57.0315   4
  -2 -14   2 129.835 55.9211   7
  -2  14   1 2801.92 250.005   3
  -2 -14   1 2748.80 163.837   9
   2  14  -1 2638.36 206.427   8
   2 -14  -1 2230.98 206.942   4
  -2 -14   1 2857.40 205.735   7
  -2 -14   0 210.317 49.6560   9
  -2  14   0 284.853 81.7417   3
   2  14   0 253.895 68.9733   8
   2 -14   0 188.649 70.9251   4
  -2 -14   0 299.678 69.3166   7
  -2 -14  -1 96.1030 38.0857   9
  -2  14  -1 40.8461 43.8091   3
   2  14   1-0.45017 26.3757   8
   2 -14   1 11.4176 34.0008   4
  -2 -14  -1-18.8258 42.2966   7
  -2  14  -2 343.332 91.2896   3
  -2 -14  -2 306.637 56.4468   9
   2  14   2 280.999 77.2048   8
   2 -14   2 289.305 72.3573   4
  -2 -14  -2 197.113 57.4077   7
  -2  14  -3 156.041 69.6154   3
  -2 -14  -3 172.122 44.6525   9
   2  14   3 203.034 60.4644   8
   2 -14   3 57.1867 46.3377   4
  -2 -14  -3 68.4906 39.1482   7
  -2  14  -4 107.002 62.3664   3
  -2 -14  -4-9.94654 25.8485   9
   2  14   4 43.1352 39.8912   8
   2 -14   4 44.9009 52.8493   4
  -2 -14  -4 14.2789 34.5013   7
  -2 -14  -5 2421.41 153.127   9
   2  14   5 2180.66 200.340   8
   2 -14   5 2318.16 217.239   4
  -2 -14  -5 2376.23 189.533   7
  -2  14  -5 2665.44 230.748   3
   2 -14   6 30.8421 33.9846   1
  -2  14  -6 75.3709 47.8682   3
  -2 -14  -6 103.745 39.1681   9
   2  14   6 56.3346 50.4679   8
   2 -14   6-1.39343 45.0047   4
  -2 -14  -6 58.1600 46.4229   7
  -2 -14  -7 2219.81 147.146   9
   2 -14   7 2432.00 241.199   1
   2  14   7 1988.15 198.244   8
   2 -14   7 1982.89 206.996   4
  -2  14  -7 2654.37 233.218   3
   2 -14   8 141.098 75.7929   1
  -2  14  -8 60.9980 48.4516   3
  -2 -14  -8 79.9765 32.5505   9
   2  14   8 126.176 48.9197   8
   2 -14   8 72.8214 55.6465   4
  -2  14  -9 292.166 80.1716   3
  -2 -14  -9 336.514 63.9791   9
   2  14   9 171.810 62.7047   8
   2 -14   9 204.590 71.5549   4
  -2 -14 -10 2730.48 166.704   9
   2  14  10 2446.93 226.461   8
   2 -14  10 2501.00 238.215   4
  -2  14 -10 2907.06 252.379   3
   2 -14  11 337.284 93.9049   4
   2 -14  12 610.693 120.620   4
   2  15 -10 4696.05 323.894   2
   2  15  -9 83.4929 59.9371   2
   2  15  -9 49.2826 49.0927   8
  -2 -15   8 433.912 68.4054   9
  -2  15   8 781.984 165.142   3
  -2 -15   8 543.449 130.355   1
   2  15  -8 519.692 97.6631   8
  -2 -15   7 9.95096 26.4737   9
  -2 -15   7 41.4307 59.9493   1
  -2  15   7 41.6980 61.0793   3
   2  15  -7 49.9329 38.9453   8
  -2 -15   7 51.4296 35.5997   7
  -2 -15   6 48.4131 51.3518   1
  -2 -15   6 44.6294 37.0968   9
  -2  15   6 126.266 72.5349   3
   2  15  -6 151.821 52.3883   8
  -2 -15   6 139.333 54.3121   7
  -2 -15   5 612.156 138.378   1
  -2 -15   5 543.097 76.9564   9
  -2  15   5 615.483 135.612   3
   2  15  -5 468.776 89.4991   8
  -2 -15   5 622.150 105.701   7
  -2 -15   4 5.11755 56.1081   1
  -2 -15   4 5.90316 26.0218   9
  -2  15   4-20.9438 43.7896   3
   2  15  -4 70.9325 46.9815   8
   2 -15  -4 69.1670 55.3020   4
  -2 -15   4-21.0150 37.2200   7
  -2 -15   3-35.6042 70.5163   1
  -2  15   3-27.3330 51.5215   3
  -2 -15   3-10.8220 33.9201   9
   2  15  -3 3.77743 28.2258   8
   2 -15  -3-8.08107 42.5802   4
  -2 -15   3-5.62421 32.9876   7
  -2 -15   2 27.6523 31.9936   9
  -2  15   2 4.84047 52.1460   3
   2  15  -2-43.1981 36.9085   8
   2 -15  -2 15.9759 40.1334   4
  -2 -15   2-56.2903 40.4053   7
  -2 -15   1-20.8331 35.1692   9
  -2  15   1-30.9919 51.7415   3
   2  15  -1 57.3457 49.8195   8
   2 -15  -1-12.1463 36.6122   4
  -2 -15   1 61.3063 41.7233   7
  -2  15   0 531.522 111.435   3
  -2 -15   0 270.202 51.7645   9
   2  15   0 412.644 90.5672   8
   2 -15   0 479.542 100.744   4
  -2 -15   0 556.564 100.840   7
  -2  15  -1-28.4673 55.7722   3
  -2 -15  -1 24.6626 30.2595   9
   2  15   1 47.1348 49.5271   8
   2 -15   1 144.951 66.6225   4
  -2 -15  -1 87.2001 58.1406   7
  -2 -15  -2 72.7540 39.7015   9
   2  15   2 201.400 64.3854   8
   2 -15   2 193.368 77.5862   4
  -2  15  -2 78.6577 42.2593   3
  -2 -15  -2 95.1257 53.2278   7
  -2  15  -3 242.298 81.2435   3
  -2 -15  -3 185.465 50.4791   9
   2  15   3 176.615 60.9899   8
   2 -15   3 185.732 69.5276   4
  -2 -15  -3 120.100 50.8039   7
  -2  15  -4 879.091 135.239   3
  -2 -15  -4 752.895 88.4462   9
   2  15   4 717.077 121.663   8
   2 -15   4 719.368 125.426   4
  -2 -15  -4 707.558 104.233   7
  -2  15  -5 315.776 92.4780   3
  -2 -15  -5 289.911 56.8138   9
   2  15   5 246.179 72.0110   8
   2 -15   5 253.694 80.2105   4
  -2 -15  -5 169.318 57.3976   7
  -2 -15  -6 963.411 99.8668   9
  -2  15  -6 1039.46 151.837   3
   2  15   6 907.387 135.016   8
   2 -15   6 740.019 123.187   4
  -2 -15  -6 851.169 122.216   7
  -2 -15  -7 2911.98 174.851   9
   2  15   7 2562.36 232.814   8
   2 -15   7 2569.05 238.864   4
  -2  15  -7 2880.59 254.246   3
   2  15   8 671.810 119.216   8
   2 -15   8 420.037 99.4940   4
   2  15   9 34.6140 46.7665   8
   2 -15   9 10.0558 41.3817   4
  -2 -16   7 1140.19 109.487   9
  -2 -16   6 121.724 43.9216   9
  -2 -16   5 99.4723 40.2711   9
  -2 -16   4 1670.00 222.375   1
  -2 -16   4 1790.29 135.566   9
  -2 -16   3 784.286 91.3040   9
  -2 -16   3 675.518 116.406   7
  -2 -16   2 109.228 45.1601   9
  -2  16   2 116.550 65.5445   3
  -2 -16   2 75.0947 47.4797   7
  -2 -16   1 1061.30 104.786   9
  -2  16   1 1261.01 181.706   3
   2  16  -1 1176.83 150.421   8
   2 -16  -1 853.947 135.691   4
  -2 -16   1 950.930 133.360   7
  -2  16   0 215.337 80.8402   3
  -2 -16   0 130.046 40.8885   9
   2  16   0 155.326 61.6181   8
   2 -16   0 303.803 81.0580   4
  -2 -16   0 55.1712 36.1298   7
  -2  16  -1 644.950 134.360   3
  -2 -16  -1 613.784 79.9607   9
   2  16   1 530.415 107.575   8
   2 -16   1 279.241 79.7273   4
  -2 -16  -1 630.376 111.044   7
  -2 -16  -2 935.468 99.4457   9
   2  16   2 992.312 140.661   8
   2 -16   2 910.948 142.950   4
  -2 -16  -2 926.930 131.890   7
   2  16   3 3081.07 254.352   8
   2 -16   3 3369.00 271.544   4
  -2 -16  -3 4030.47 275.020   7
  -2 -16  -4 8.08330 32.9954   7
  -2 -16  -5 2842.28 230.340   7
  -2 -16  -6 207.520 64.4304   7
  -3   0  19 48.6640 42.7999   6
  -3   0  19-13.5027 50.6645  10
  -3   0  19 8.31272 46.7990   7
   3   0 -19 7.41985 36.5701   2
  -3   0  18 436.460 110.450   6
  -3   0  18 542.006 106.375  10
  -3   0  18 574.539 120.425   7
   3   0 -18 515.986 101.168   2
  -3   0  17-39.8198 43.7549   6
  -3   0  17-13.1154 42.1129  10
  -3   0  17-29.7257 52.1986   7
   3   0 -17 24.0431 41.4334   2
  -3   0  16 3668.09 255.191  10
  -3   0  16 3418.71 280.145   6
   3   0 -16 3576.17 257.366   2
  -3   0  15-97.5010 53.5438   6
  -3   0  15-12.8688 44.7536  10
   3   0 -15-43.8613 35.9962   2
  -3   0  14 3676.72 248.655  10
  -3   0  14 3700.91 276.317   6
   3   0 -14 3937.57 259.313   2
  -3   0  13 14.8440 29.7333   6
  -3   0  13 6.14131 45.2975  10
   3   0 -13-9.26436 34.0241   2
  -3   0  12 3482.62 232.360  10
  -3   0  12 3264.66 249.565   6
   3   0 -12 3596.33 241.128   2
  -3   0  11-13.5510 34.8759   6
  -3   0  11 37.3039 42.5781  10
   3   0 -11 44.8337 43.6250   2
  -3   0  10 190.100 51.4871  10
   3   0 -10 265.495 47.8604   8
   3   0 -10 197.756 60.1008   2
   3   0  -9-14.7064 17.7152   8
  -3   0   9 15.0793 27.4618  10
   3   0  -9 18.0530 43.5931   2
  -3   0   8 349.139 70.6607  10
   3   0  -8 293.471 52.2034   8
   3   0  -8 295.937 66.8702   2
  -3   0   7 7.40135 48.0526  10
   3   0  -7-53.6370 36.3963   8
   3   0  -7 21.1557 40.3357   2
  -3   0   6 15085.8 499.778  10
   3   0  -6 14778.4 447.155   8
   3   0  -6 16298.1 381.998   4
   3   0  -6 15822.3 516.665   2
  -3   0   5-11.8081 29.1041  10
   3   0  -5-5.11806 22.1031   8
   3   0  -5-0.79313 29.1018   2
   3   0  -5 0.92891 17.7741   4
  -3   0   4 22597.1 630.539  10
   3   0  -4 22252.3 589.940   8
   3   0  -4 22860.8 539.643   4
   3   0  -4 22640.5 640.303   2
  -3   0   3-29.5947 32.4268  10
   3   0  -3-13.2892 25.1303   8
   3   0  -3 39.5252 34.0092   2
   3   0  -2 9982.60 350.259   8
  -3   0   2 9303.63 358.193  10
   3   0  -2 9223.69 362.626   2
   3   0  -1 41.9424 34.2652  11
  -3   0   1-11.0760 42.5826  10
   3   0  -1-12.2141 30.0561   2
   3   0  -1 5.89164 26.7900   8
  -3   0   0 185.898 51.5446  10
   3   0   0 181.309 49.4198   2
   3   0   0 187.583 50.8119   8
  -3   0  -1 12.6567 23.8140  10
   3   0   1-8.78409 26.2526   2
   3   0   1 33.9755 28.5643   8
  -3   0  -2-7.10900 34.6572  10
   3   0   2 54.2684 27.7282   2
   3   0   2 10.0159 28.9761   8
  -3   0  -2 53.7788 29.0726   5
   3   0   3 10.5373 30.5266   2
  -3   0  -3-8.25687 10.3708   3
  -3   0  -3 1.82889 24.2311   5
   3   0   3-26.5078 33.4631   8
  -3   0  -4 6833.75 196.801   3
  -3   0  -4 6692.88 270.046   9
  -3   0  -4 7162.71 282.542   5
   3   0   4 6613.56 293.753   8
   3   0   4 6657.19 283.017   2
  -3   0  -5-5.21694 9.83192   3
   3   0   5-62.0188 33.3435   2
  -3   0  -5-8.28558 23.9156   9
  -3   0  -5-19.1028 28.0141   5
   3   0   5-7.31119 24.1645   8
  -3   0  -5 2.12392 17.7556   7
  -3   0  -6 1712.02 120.927   9
  -3   0  -6 1991.29 138.320   5
   3   0   6 1892.54 154.256   8
   3   0   6 1819.98 137.509   2
   3   0   7 3.23912 21.4435   2
  -3   0  -7 34.3353 26.3982   9
  -3   0  -7 16.9788 28.2545   5
   3   0   7 27.1811 36.5510   8
  -3   0  -8 45975.7 929.173   9
  -3   0  -8 46654.6 973.905   5
   3   0   8 46734.6 1053.00   8
   3   0   8 47394.2 1002.27   2
  -3   0  -9 3.64895 20.2155   9
  -3   0  -9-12.1092 20.4908   5
   3   0   9-16.9512 29.4565   8
   3   0   9 7.80684 21.0771   2
   3   0  10 123.727 36.0404   2
  -3   0 -10 91.3520 31.1515   5
   3   0  10 9.84652 24.8013   8
   3   0  11 4.64871 23.0101   2
  -3   0 -11 18.3562 20.3426   5
   3   0  11-36.8603 37.4252   8
   3   0  12 463.519 64.4207   2
  -3   0 -12 483.663 64.0433   5
   3   0  12 551.582 81.3687   8
   3   0  13 0.79038 17.3908   2
   3   0  13-41.9946 28.2083   6
  -3   0 -13 21.6937 23.2421   5
   3   0  13-34.9518 29.3950   8
   3   0  14 3144.35 187.197   6
  -3   0 -14 3027.95 154.423   5
   3   0  14 2916.64 188.720   8
   3   0  14 3293.27 172.007   2
   3   0  15-24.4852 23.5865   2
   3   0  15-21.1597 26.3769   6
  -3   0 -15 0.64279 23.3478   5
   3   0  16 301.154 53.6948   2
   3   0  16 154.710 48.2960   6
  -3   0 -16 247.809 48.5088   5
   3   0  17 13.1462 31.6780   6
  -3   0 -17 18.8553 17.4283   5
  -3   0 -18 2447.75 145.691   5
   3   0  18 2156.95 170.891   6
  -3  -1  20 48.2615 43.0163  10
   3   1 -20 188.951 77.1124   2
  -3  -1  19 1721.77 191.417  10
  -3   1  19 1674.76 190.399  10
  -3   1  19 1699.72 212.763   7
  -3  -1  19 1728.49 212.105   7
  -3   1  19 1800.84 216.092   6
   3   1 -19 1895.86 197.915   2
  -3   1  18 43.9855 46.3419   6
  -3  -1  18 5.58507 34.8616  10
  -3   1  18-17.5881 38.4194  10
  -3  -1  18-24.9059 57.3127   6
  -3  -1  18 57.4731 54.6406   7
   3   1 -18 6.06513 46.0954   2
  -3  -1  17 302.606 83.7024   6
  -3  -1  17 465.991 100.941  10
  -3   1  17 235.474 72.6895  10
  -3  -1  17 375.740 102.766   7
  -3   1  17 333.182 87.8416   6
   3  -1 -17 418.486 89.4803   2
   3   1 -17 340.745 84.6757   2
  -3  -1  16 23.1357 43.7346   6
  -3   1  16-11.2102 39.8484   6
  -3  -1  16 24.4000 39.1146  10
  -3   1  16-34.1962 45.8745  10
  -3  -1  16-20.0368 41.6971   7
   3  -1 -16 72.2808 44.2658   2
   3   1 -16 23.6885 31.4622   2
  -3  -1  15 312.084 92.5764   6
  -3  -1  15 332.200 77.1192  10
  -3   1  15 302.334 77.0198  10
  -3   1  15 219.487 72.9219   6
  -3  -1  15 375.583 101.601   7
   3  -1 -15 311.974 73.5415   2
   3   1 -15 382.970 89.1823   2
  -3  -1  14 6451.54 333.293  10
  -3   1  14 6848.84 349.786  10
  -3  -1  14 8096.58 424.440   7
   3  -1 -14 6947.15 349.161   2
  -3  -1  14 7006.85 393.385   6
  -3   1  14 6634.57 374.199   6
   3   1 -14 6320.75 343.477   2
  -3  -1  13 344.660 87.2377   6
  -3   1  13 510.774 103.758   6
  -3  -1  13 291.504 77.5340  10
  -3   1  13 375.123 83.3408  10
   3  -1 -13 416.672 87.3362   2
   3   1 -13 275.184 75.0745   2
  -3  -1  12 39.9937 40.0238   6
  -3   1  12-12.6398 34.4098   6
  -3   1  12 8.37095 31.9997  10
   3  -1 -12 67.7114 45.1435   2
  -3  -1  12-13.8655 29.6431  10
   3   1 -12 22.8931 30.9061   2
  -3   1  11 3.40320 32.7410   6
  -3  -1  11 47.5537 32.4208  10
  -3   1  11 158.185 64.6037  10
   3  -1 -11 87.7702 47.2478   2
   3   1 -11 71.1262 51.7819   2
  -3  -1  10 813.041 108.400  10
  -3   1  10 947.417 119.676  10
   3  -1 -10 710.529 73.8492   8
   3   1 -10 733.353 80.0777   8
   3  -1 -10 791.000 107.353   2
   3   1 -10 949.923 120.794   2
  -3  -1   9 1231.31 130.459  10
  -3   1   9 1126.16 127.964  10
   3  -1  -9 1177.07 98.7511   8
   3   1  -9 1331.58 111.949   8
   3  -1  -9 1395.24 139.238   2
   3   1  -9 1321.27 138.481   2
  -3  -1   8 547.033 83.1336  10
  -3   1   8 749.863 110.062  10
   3  -1  -8 663.974 76.2695   8
   3   1  -8 713.204 82.9397   8
   3  -1  -8 701.657 100.142   2
   3   1  -8 634.512 97.9275   2
  -3  -1   7 25656.5 697.462  10
  -3   1   7 25572.5 711.387  10
   3  -1  -7 25518.6 623.511   8
   3   1  -7 25989.9 649.909   8
   3  -1  -7 27036.8 566.078   4
   3  -1  -7 25713.8 710.930   2
   3   1  -7 26024.7 724.343   2
  -3  -1   6 41996.5 978.741  10
  -3   1   6 42513.7 997.962  10
   3  -1  -6 41993.1 911.269   8
   3   1  -6 40320.5 923.592   8
   3  -1  -6 43693.1 854.108   4
   3  -1  -6 42890.7 996.201   2
   3   1  -6 41644.6 1005.43   2
  -3  -1   5 20.2376 33.2253  10
  -3   1   5 64.9392 39.4766  10
   3  -1  -5-1.70339 23.8375   8
   3   1  -5 28.1219 33.5019   8
   3  -1  -5 1.89110 33.5382   2
   3   1  -5 12.2188 26.6987   2
   3  -1  -5 10.2400 17.3271   4
   3   1  -5-5.27526 18.9121   4
  -3  -1   4 133.489 51.6639  10
  -3   1   4 9.94358 35.5674  10
  -3  -1   4 69.6577 23.5641   1
   3  -1  -4 77.7862 33.5454   8
   3   1  -4 84.9370 45.5591   8
   3  -1  -4 63.9089 39.4430   2
   3   1  -4 180.946 54.8304   2
   3  -1  -4 43.4893 19.4241   4
  -3  -1   3 969.105 109.624  10
  -3   1   3 645.316 92.8311  10
   3  -1  -3 788.953 89.5829   8
   3   1  -3 579.291 83.1666   8
   3  -1  -3 558.616 80.9103   2
  -3  -1   3 589.354 49.9687   1
   3   1  -3 625.069 87.7897   2
  -3  -1   2 2539.81 167.469  10
  -3   1   2 2563.57 178.434  10
   3  -1  -2 2635.92 164.849   8
   3   1  -2 2523.34 168.838   8
   3  -1  -2 2397.39 168.831   2
   3   1  -2 2436.40 176.418   2
   3  -1  -1 5794.07 261.102  11
  -3  -1   1 5828.33 261.660  10
  -3   1   1 5973.81 276.633  10
   3  -1  -1 5891.62 258.873   8
   3   1  -1 6073.66 272.135   8
   3  -1  -1 5341.47 261.487   2
   3   1  -1 5995.63 254.966  11
   3   1  -1 5615.37 274.925   2
   3  -1   0 349.567 66.1793  11
  -3   1   0 491.149 75.7833  10
   3  -1   0 384.963 64.3679   2
   3   1   0 446.852 72.9764   2
   3  -1   0 446.968 72.1958   8
   3   1   0 385.613 69.1685   8
  -3  -1   0 443.670 70.5020  10
  -3  -1  -1 26.5334 25.5902  10
  -3   1  -1 93.1867 38.1379  10
   3  -1   1 52.3330 32.3802   2
   3   1   1 66.9397 41.2581   2
   3  -1   1-3.52166 28.5212   8
   3   1   1 49.5042 25.7430   8
  -3   1  -2 286.891 63.1169  10
   3  -1   2 349.103 61.8825   2
  -3  -1  -2 289.444 56.7190   9
   3   1   2 234.016 52.2576   2
   3  -1   2 266.127 55.8394   8
  -3  -1  -2 264.091 52.8003   5
   3   1   2 364.956 67.4826   8
  -3  -1  -2 343.724 53.4475   7
  -3  -1  -3 5992.59 169.778   3
  -3  -1  -3 5882.25 256.876   9
  -3  -1  -3 6185.53 258.790   5
  -3   1  -3 6287.23 268.192   5
   3  -1   3 5795.64 268.773   8
   3   1   3 6322.70 285.532   8
  -3   1  -3 5927.84 204.267   3
  -3  -1  -3 6274.31 229.549   7
   3  -1   3 6261.28 272.336   2
   3   1   3 6361.58 278.165   2
  -3   1  -4 1533.48 91.1309   3
  -3  -1  -4 1434.24 117.525   5
  -3   1  -4 1414.98 120.699   5
  -3  -1  -4 1497.69 120.182   9
   3  -1   4 1378.59 126.334   8
   3   1   4 1425.12 132.272   8
  -3  -1  -4 1416.29 95.7536   7
   3  -1   4 1564.44 128.612   2
   3   1   4 1482.27 126.668   2
   3  -1   5 82.0291 31.1478   2
  -3   1  -5 80.5491 22.6034   3
   3   1   5 97.1820 34.6698   2
  -3  -1  -5 60.5524 33.4423   9
  -3   1  -5 136.521 43.0771   9
  -3  -1  -5 73.9594 30.4093   5
  -3   1  -5 97.0941 37.4735   5
   3  -1   5 70.2884 36.7389   8
   3   1   5 38.8614 33.3517   8
  -3  -1  -5 94.9671 25.0757   7
  -3  -1  -6 1140.54 97.4821   9
  -3   1  -6 1096.11 94.7467   9
  -3  -1  -6 1000.55 95.8224   5
  -3   1  -6 898.343 94.5858   5
   3  -1   6 1076.33 110.671   8
   3   1   6 1065.00 116.692   8
   3  -1   6 1054.10 101.414   2
   3   1   6 882.896 96.5188   2
  -3   1  -6 1205.39 76.5290   3
  -3  -1  -7 2356.64 138.419   9
  -3   1  -7 2637.48 142.836   9
  -3  -1  -7 2544.84 151.079   5
  -3   1  -7 2509.01 154.730   5
   3  -1   7 2660.58 177.653   8
   3   1   7 2308.83 171.620   8
   3  -1   7 2127.56 147.159   2
   3   1   7 2459.73 161.116   2
  -3   1  -7 2605.33 117.042   3
  -3  -1  -8 5624.89 216.346   9
  -3   1  -8 5799.51 214.270   9
  -3  -1  -8 6309.99 243.327   5
  -3   1  -8 5826.36 243.613   5
   3  -1   8 5985.37 275.482   8
   3   1   8 6291.90 294.645   8
   3  -1   8 5970.43 250.171   2
   3   1   8 6103.93 259.937   2
   3  -1   9 54.7504 29.2228   2
   3   1   9 38.3928 26.0944   2
  -3  -1  -9 36.4428 24.9770   9
  -3  -1  -9 116.132 35.3261   5
  -3   1  -9 49.7841 28.6306   5
   3  -1   9 17.5586 30.8423   8
   3   1   9 28.3206 28.3023   8
   3  -1  10 317.181 54.5675   2
   3   1  10 348.665 57.8234   2
  -3  -1 -10 315.465 51.8934   5
  -3   1 -10 360.798 57.0682   5
   3  -1  10 393.762 69.3017   8
   3   1  10 426.403 75.7696   8
   3  -1  11 315.659 54.8110   2
   3   1  11 366.902 58.6087   2
  -3  -1 -11 393.804 58.7315   5
  -3   1 -11 314.488 53.1041   5
   3  -1  11 293.569 60.9756   8
   3   1  11 293.377 60.3676   8
  -3   1 -12 2020.50 128.376   5
   3  -1  12 1960.73 153.531   8
   3   1  12 2102.71 164.148   8
   3  -1  12 2072.56 133.943   2
   3   1  12 2128.09 137.626   2
  -3  -1 -12 1901.44 121.373   5
   3  -1  13 327.429 58.4120   6
   3  -1  13 385.096 59.2959   2
   3   1  13 349.090 55.0369   2
  -3  -1 -13 437.655 57.8459   5
  -3   1 -13 262.963 47.1558   5
   3  -1  13 271.835 59.2361   8
   3   1  13 310.229 62.8054   8
   3  -1  14 3255.68 185.650   6
   3   1  14 3332.72 195.554   6
  -3  -1 -14 3005.23 152.424   5
  -3   1 -14 2969.88 154.870   5
   3  -1  14 3118.61 190.385   8
   3   1  14 2573.68 181.475   8
   3  -1  14 2952.29 163.108   2
   3   1  14 3157.01 168.255   2
   3  -1  15 220.655 46.4268   2
   3   1  15 234.634 46.8409   2
   3  -1  15 299.353 60.8771   6
   3   1  15 283.040 56.8064   6
  -3  -1 -15 343.187 52.7693   5
  -3   1 -15 293.803 50.0797   5
   3  -1  15 182.466 49.5620   8
   3  -1  16 13083.8 425.093   6
   3   1  16 12916.5 435.240   6
  -3  -1 -16 12196.8 358.819   5
  -3   1 -16 11594.7 352.884   5
   3  -1  16 13089.0 389.585   2
   3   1  16 13578.6 392.372   2
   3  -1  17 44.4462 32.5283   6
  -3  -1 -17 6.16922 24.4177   5
  -3   1 -17 82.4391 34.8758   5
   3   1  17 48.2738 35.6431   6
  -3  -1 -18 1722.46 122.419   5
  -3   1 -18 1654.94 119.778   5
   3  -1  18 1747.94 148.358   6
   3   1  18 1958.64 161.076   6
  -3  -2  19 75.3485 52.1474  10
  -3   2  19 75.6790 49.3192  10
  -3  -2  19 44.7335 82.4489   7
  -3   2  19 72.7595 66.0196   6
   3   2 -19 29.6001 41.3129   2
  -3  -2  18-32.5675 43.0656   6
  -3  -2  18 27.1600 39.9238  10
  -3   2  18 30.0695 45.3812  10
  -3   2  18-13.6217 36.4310   6
  -3  -2  18 44.3778 49.6529   7
   3   2 -18 50.1891 38.7872   2
  -3  -2  17 836.579 147.258   6
  -3   2  17 834.123 142.077   6
  -3  -2  17 869.211 124.325  10
  -3   2  17 824.481 127.540  10
  -3  -2  17 999.663 157.269   7
   3   2 -17 1042.89 144.967   2
  -3  -2  16 1038.46 157.722   6
  -3   2  16 929.543 144.135   6
  -3  -2  16 1292.43 149.675  10
  -3   2  16 916.337 133.907  10
  -3  -2  16 1435.29 183.662   7
   3  -2 -16 1180.87 142.465   2
   3   2 -16 1341.68 160.607   2
  -3  -2  15-20.2416 47.1368   6
  -3   2  15-11.1947 32.9137   6
  -3  -2  15 34.6721 32.9458  10
  -3   2  15-8.93422 41.3510  10
  -3  -2  15 3.85101 48.0329   7
   3  -2 -15-16.6514 35.8801   2
   3   2 -15-20.9601 40.7307   2
  -3  -2  14 1104.40 156.966   6
  -3   2  14 1017.62 144.377   6
  -3  -2  14 1131.98 135.502  10
  -3   2  14 1019.79 136.649  10
  -3  -2  14 1135.83 151.377   7
   3  -2 -14 1062.30 129.588   2
   3   2 -14 1004.54 134.819   2
  -3  -2  13-6.65481 38.5750   6
  -3   2  13 54.4252 43.9820   6
  -3  -2  13 44.6096 46.3947  10
  -3   2  13 23.2028 36.1593  10
   3  -2 -13 15.7179 26.5652   2
  -3  -2  13 22.4423 39.7264   7
   3   2 -13-27.0478 39.3007   2
  -3  -2  12 39.3561 47.1764   6
  -3   2  12 17.3041 33.1315   6
  -3  -2  12 95.7569 47.9377  10
  -3   2  12 15.5172 31.5138  10
   3  -2 -12-12.4652 26.5804   2
  -3  -2  12-5.46990 38.0407   7
   3   2 -12 45.0949 38.2145   2
  -3   2  11 307.906 79.6912   6
  -3  -2  11 170.906 55.4552  10
  -3   2  11 163.135 65.0331  10
   3  -2 -11 221.698 57.2725   2
  -3  -2  11 105.804 48.1386   7
   3   2 -11 228.062 66.9086   2
  -3   2  10 20.8193 36.3267  10
  -3  -2  10-30.4778 36.4821  10
   3  -2 -10-20.3138 25.1145   8
   3   2 -10 18.6145 24.2672   8
   3  -2 -10 0.57235 34.9665   2
  -3  -2  10-55.6293 52.1665   7
   3   2 -10 21.4663 48.5319   2
  -3  -2   9 1585.16 144.730  10
  -3   2   9 1753.42 159.867  10
   3  -2  -9 1476.37 106.206   8
   3   2  -9 1509.94 123.247   8
  -3  -2   9 1828.79 177.892   7
   3  -2  -9 1793.80 157.888   2
   3   2  -9 1716.86 160.492   2
  -3  -2   8 627.660 87.4955  10
  -3   2   8 506.178 89.0754  10
   3  -2  -8 480.052 61.2946   8
   3   2  -8 492.491 73.6592   8
   3  -2  -8 507.577 57.1648   4
   3  -2  -8 552.052 87.6368   2
  -3  -2   8 437.768 85.6778   7
   3   2  -8 607.080 95.5357   2
  -3  -2   7 1970.33 156.264  10
  -3   2   7 2129.83 176.547  10
   3  -2  -7 1858.97 125.536   8
   3   2  -7 1799.70 138.302   8
   3  -2  -7 2121.39 121.863   4
  -3  -2   7 2105.20 179.260   7
   3  -2  -7 2114.57 166.827   2
   3   2  -7 2065.27 171.968   2
  -3  -2   6 21941.9 609.113  10
  -3   2   6 21276.7 638.994  10
   3  -2  -6 21246.6 547.439   8
   3   2  -6 21719.8 588.570   8
   3  -2  -6 22831.8 533.037   4
  -3  -2   6 21993.3 655.954   7
   3  -2  -6 21595.9 622.181   2
   3   2  -6 21197.9 640.097   2
  -3  -2   6 23361.7 563.699   1
  -3  -2   5 7988.50 325.884  10
  -3   2   5 8136.60 352.753  10
   3  -2  -5 8067.44 294.078   8
   3   2  -5 8338.47 322.692   8
  -3  -2   5 8198.07 352.398   7
   3  -2  -5 8486.25 286.442   4
   3   2  -5 8618.99 239.019   4
   3  -2  -5 7946.29 335.958   2
  -3  -2   5 8732.71 282.492   1
   3   2  -5 8483.79 360.961   2
  -3  -2   4 1315.88 120.512  10
  -3   2   4 1318.82 132.750  10
   3  -2  -4 1270.51 108.943   8
   3   2  -4 1364.09 123.307   8
  -3  -2   4 1226.12 126.886   7
   3  -2  -4 1175.94 102.910   4
  -3  -2   4 1392.45 95.1604   1
   3  -2  -4 1189.98 119.000   2
   3   2  -4 1260.25 131.314   2
  -3  -2   3 958.533 103.419  10
  -3   2   3 924.377 110.246  10
   3  -2  -3 790.571 87.2576   8
   3   2  -3 933.003 101.840   8
  -3  -2   3 975.096 72.3450   1
   3  -2  -3 823.794 99.1605   2
  -3  -2   3 957.897 107.792   7
   3  -2  -3 896.152 92.7379   4
   3   2  -3 927.414 112.900   2
  -3  -2   2 1545.79 129.362  10
  -3   2   2 1581.23 143.117  10
  -3  -2   2 1571.95 86.7555   1
   3   2  -2 1508.66 115.542  11
   3  -2  -2 1467.11 120.970   8
   3   2  -2 1586.46 134.084   8
  -3  -2   2 1561.36 133.161   7
   3  -2  -2 1447.74 128.468   2
   3   2  -2 1599.06 142.685   2
   3   2  -1 271.842 51.8340  11
  -3  -2   1 253.294 54.9610  10
  -3   2   1 336.988 72.0848  10
   3  -2  -1 335.568 62.4783   2
   3  -2  -1 359.591 64.2773   8
   3   2  -1 263.759 56.9483   8
   3   2  -1 323.063 64.1086   2
  -3  -2   1 321.328 59.8274   7
   3  -2   0 7463.98 311.066  11
  -3  -2   0 7403.80 287.950  10
  -3   2   0 7309.38 311.356  10
  -3  -2   0 7222.52 306.901   9
   3  -2   0 7178.39 287.835   8
   3   2   0 7053.91 305.236   8
  -3  -2   0 7105.94 280.205   7
   3  -2   0 7409.46 301.348   2
   3   2   0 7795.27 325.512   2
   3  -2   1 818.989 101.766  11
  -3   2  -1 786.874 97.2901  10
   3  -2   1 651.139 84.5722   2
  -3  -2  -1 806.632 96.3700   9
   3  -2   1 983.190 102.455   8
   3   2   1 753.986 95.1141   2
  -3  -2  -1 811.983 86.8966   5
   3   2   1 772.200 94.8484   8
  -3  -2  -1 700.649 79.4855   7
  -3   2  -2 9628.97 363.305  10
  -3  -2  -2 9292.11 342.092   9
  -3  -2  -2 9489.65 332.523   5
   3  -2   2 9561.27 347.301   8
   3   2   2 9617.10 368.227   8
  -3  -2  -2 9190.23 305.517   7
   3  -2   2 9701.91 348.046   2
   3   2   2 9690.21 363.114   2
  -3  -2  -3 17642.7 500.147   9
  -3  -2  -3 17891.9 491.913   5
  -3   2  -3 17126.2 507.278   5
   3  -2   3 17252.5 508.555   8
  -3   2  -3 17338.6 437.487   3
   3   2   3 18729.8 551.295   8
  -3  -2  -3 17798.9 444.806   7
   3  -2   3 17915.5 511.733   2
   3   2   3 18486.6 534.125   2
  -3   2  -4 5905.94 210.358   3
  -3  -2  -4 5309.63 238.468   9
  -3   2  -4 5684.43 255.229   5
   3  -2   4 5542.34 256.395   8
   3   2   4 5906.44 281.362   8
   3  -2   4 5485.92 250.055   2
  -3  -2  -4 5735.89 203.149   7
   3   2   4 5765.95 267.900   2
  -3  -2  -4 5602.76 237.903   5
  -3  -2  -5 1920.61 134.748   9
  -3  -2  -5 1958.76 133.152   5
  -3   2  -5 2119.79 146.932   5
   3  -2   5 2009.09 149.764   8
   3   2   5 1916.33 157.584   8
   3  -2   5 2058.82 142.844   2
  -3  -2  -5 2027.40 103.399   7
   3   2   5 2109.19 154.939   2
  -3   2  -5 1861.61 109.497   3
  -3  -2  -6 4690.80 209.731   9
  -3   2  -6 4685.20 206.482   9
  -3  -2  -6 4718.51 208.944   5
  -3   2  -6 4830.94 229.671   5
   3  -2   6 4504.99 233.210   8
   3   2   6 4762.64 255.786   8
   3  -2   6 5099.17 230.715   2
   3   2   6 5191.24 245.555   2
  -3   2  -6 4907.89 185.587   3
  -3  -2  -7 7125.92 261.740   9
  -3   2  -7 7646.71 261.539   9
  -3  -2  -7 7579.76 271.072   5
  -3   2  -7 7200.24 287.197   5
   3  -2   7 7233.25 303.965   8
   3   2   7 7983.09 338.457   8
   3  -2   7 7635.40 286.502   2
   3   2   7 7853.10 307.144   2
  -3   2  -7 7694.97 243.910   3
  -3  -2  -8 12390.4 354.437   9
  -3  -2  -8 12361.6 366.482   5
  -3   2  -8 12484.4 391.930   5
   3  -2   8 12161.9 414.937   8
   3   2   8 12869.0 452.944   8
   3  -2   8 12064.0 381.944   2
   3   2   8 13210.8 411.733   2
  -3   2  -8 12877.5 343.663   3
  -3  -2  -9 18618.3 457.120   9
  -3  -2  -9 18677.2 475.366   5
  -3   2  -9 18227.8 498.824   5
   3  -2   9 18278.7 535.667   8
   3   2   9 19254.9 580.214   8
   3  -2   9 19053.9 505.987   2
   3   2   9 19829.9 528.387   2
  -3  -2 -10 956.306 76.7033   9
  -3  -2 -10 1048.37 87.4086   5
  -3   2 -10 1056.69 96.6475   5
   3  -2  10 994.115 106.197   8
   3   2  10 1236.25 129.460   8
   3  -2  10 1083.92 97.1294   2
   3   2  10 926.078 94.4928   2
  -3  -2 -11 2955.06 151.380   5
  -3   2 -11 2799.64 157.291   5
   3  -2  11 2729.27 177.720   8
   3   2  11 2489.40 185.656   8
   3  -2  11 2699.04 156.059   2
   3   2  11 3085.66 169.045   2
   3  -2  12 709.737 79.7520   6
  -3  -2 -12 765.906 75.7399   5
  -3   2 -12 629.059 71.2399   5
   3   2  12 738.728 81.1556   2
   3  -2  12 663.253 76.3983   2
   3  -2  12 687.612 89.9750   8
   3   2  12 630.300 94.6685   8
   3  -2  13-3.07808 19.7932   2
   3   2  13 11.8703 20.4075   2
  -3   2 -13 17.5740 24.0035   5
   3  -2  13 40.8157 34.1722   8
   3   2  13-6.40890 26.1653   8
   3  -2  13-5.67710 25.2711   6
  -3  -2 -13 30.7849 24.7024   5
   3  -2  14 590.844 70.3615   2
   3  -2  14 596.512 77.1402   6
   3   2  14 696.459 89.9611   6
  -3  -2 -14 672.645 71.3165   5
  -3   2 -14 590.937 69.8237   5
   3   2  14 596.810 71.6569   2
   3  -2  14 548.107 78.0118   8
   3   2  14 489.113 80.8535   8
   3  -2  15 1074.19 105.120   6
   3   2  15 1236.35 123.662   6
  -3  -2 -15 1226.44 95.1154   5
  -3   2 -15 1156.33 94.2856   5
   3  -2  15 947.785 102.685   8
   3  -2  15 1220.29 102.826   2
   3   2  15 1273.56 103.364   2
   3   2  16 2031.60 160.456   6
  -3  -2 -16 1925.54 123.290   5
  -3   2 -16 1843.43 121.260   5
   3   2  16 2082.56 133.748   2
   3  -2  16 1942.88 146.936   6
  -3  -2 -17 154.527 40.9164   5
  -3   2 -17 218.759 47.0101   5
   3  -2  17 106.637 43.8712   6
   3   2  17 197.131 54.0327   6
   3   2  18-16.4484 33.2566   6
   3  -2  18-12.9339 25.0188   6
  -3  -2 -18 38.3312 28.7067   5
  -3   2 -18 16.3323 31.7194   5
   3  -2  19 277.246 62.1069   6
  -3   3  19 140.885 71.2405   6
  -3  -3  19 179.768 72.9543   7
   3   3 -19 136.566 67.9234   2
  -3  -3  18 1311.36 189.767   6
  -3   3  18 1423.08 181.525   6
  -3   3  18 1233.97 162.563  10
  -3  -3  18 1203.06 171.939   7
   3   3 -18 1091.92 151.905   2
  -3  -3  17 45.6436 50.1417   6
  -3  -3  17 77.1845 48.8607  10
  -3   3  17 71.9756 52.1720  10
  -3   3  17 109.035 62.0710   6
  -3  -3  17 132.447 47.9533   7
   3   3 -17 138.918 61.5821   2
  -3  -3  16 531.585 118.971   6
  -3  -3  16 563.661 99.1374  10
  -3   3  16 547.050 105.716  10
  -3   3  16 542.396 107.914   6
  -3  -3  16 776.779 133.167   7
   3   3 -16 627.033 113.566   2
  -3  -3  15 51.1841 44.1821   6
  -3   3  15-19.3087 41.4695   6
  -3  -3  15 18.4966 33.0269  10
  -3   3  15 92.1305 52.3627  10
   3  -3 -15-12.1977 26.6705   2
  -3  -3  15 94.6330 66.2456   7
   3   3 -15 52.9177 51.8130   2
  -3  -3  14 32.2418 41.7423   6
  -3   3  14-15.0207 53.5668   6
  -3  -3  14 7.35024 30.9887  10
  -3   3  14 78.3019 60.9042  10
   3  -3 -14 75.3251 50.7382   2
  -3  -3  14-53.8675 47.5947   7
   3   3 -14 29.9554 36.5391   2
  -3  -3  13 138.061 66.1614   6
  -3   3  13 83.8408 44.5892   6
  -3  -3  13 200.669 57.8658  10
  -3   3  13 242.592 67.7160  10
   3  -3 -13 147.320 47.5660   2
  -3  -3  13 157.123 63.8173   7
   3   3 -13 178.883 56.8010   2
  -3   3  12 522.199 98.5556   6
  -3  -3  12 518.540 87.1480  10
  -3   3  12 500.519 92.3119  10
   3  -3 -12 626.360 96.9509   2
  -3  -3  12 726.255 119.378   7
   3   3 -12 582.774 100.472   2
  -3   3  11-17.8500 39.1872   6
  -3  -3  11 129.986 52.6991  10
  -3   3  11 31.7554 40.3694  10
   3   3 -11 2.92769 20.6759   8
   3  -3 -11 52.6727 32.8871   2
  -3  -3  11 51.0270 43.7602   7
   3   3 -11 21.6575 34.0664   2
  -3  -3  10 1266.44 127.249  10
  -3   3  10 1471.15 152.388  10
   3   3 -10 1337.36 119.345   8
  -3  -3  10 1324.75 152.692   7
   3  -3 -10 1433.48 140.897   2
   3   3 -10 1133.51 132.554   2
  -3  -3   9 3049.64 199.018  10
  -3   3   9 2938.34 214.329  10
   3  -3  -9 2598.56 137.751   8
   3   3  -9 2817.64 176.321   8
   3  -3  -9 2947.75 148.929   4
  -3  -3   9 2582.15 209.271   7
   3  -3  -9 2611.96 188.436   2
   3   3  -9 2854.43 211.468   2
  -3  -3   8 4475.48 240.199  10
  -3   3   8 4211.82 257.099  10
   3  -3  -8 4387.97 188.971   8
   3   3  -8 4600.12 229.501   8
   3  -3  -8 4601.14 193.721   4
  -3  -3   8 4244.28 264.723   7
   3  -3  -8 4452.77 246.873   2
   3   3  -8 4628.50 267.335   2
  -3  -3   7 10841.7 386.864  10
  -3   3   7 10782.3 422.965  10
   3  -3  -7 10242.6 323.280   8
   3   3  -7 10344.2 372.404   8
   3  -3  -7 10878.7 331.953   4
  -3  -3   7 11029.4 431.515   7
   3  -3  -7 10713.7 396.483   2
   3   3  -7 10596.5 421.965   2
  -3  -3   7 10817.4 372.024   1
  -3  -3   6 1083.07 114.354  10
  -3   3   6 1024.56 126.185  10
   3  -3  -6 748.491 79.9176   8
   3   3  -6 856.347 98.6886   8
   3  -3  -6 865.191 87.0418   4
  -3  -3   6 859.187 113.645   7
   3  -3  -6 837.244 103.466   2
  -3  -3   6 933.419 96.8207   1
   3   3  -6 1116.20 130.607   2
  -3   3   5 967.625 116.069  10
  -3  -3   5 989.747 104.603  10
   3  -3  -5 724.008 78.1331   8
   3   3  -5 683.119 87.7359   8
   3  -3  -5 755.744 83.7350   4
  -3  -3   5 890.388 111.721   7
  -3  -3   5 796.490 83.3001   1
   3  -3  -5 777.741 98.5740   2
   3   3  -5 859.697 113.621   2
  -3  -3   4 11.6925 31.2796  10
  -3   3   4-32.1919 39.9017  10
  -3  -3   4-13.7118 18.8980   1
   3  -3  -4-19.0017 22.8879   2
   3  -3  -4 4.31650 24.4314   8
   3   3  -4-17.4941 24.5949   8
   3   3  -4 58.8075 36.2166   2
  -3  -3   4 9.16726 31.2839   7
   3  -3  -4-3.05521 21.4113   4
  -3  -3   3 878.898 95.2038  10
  -3   3   3 834.394 108.528  10
   3  -3  -3 687.896 79.5371   8
   3   3  -3 810.650 97.9442   8
  -3  -3   3 880.436 76.9951   1
   3  -3  -3 730.386 90.9577   2
  -3  -3   3 882.255 102.719   7
   3  -3  -3 859.249 93.1205   4
   3   3  -3 895.753 110.468   2
   3   3  -2 49.1917 20.2767  11
  -3  -3   2-10.1146 28.7266  10
  -3   3   2 50.5004 42.2425  10
  -3  -3   2 49.6089 36.5737   9
  -3  -3   2-3.17850 18.2028   1
   3  -3  -2 60.1518 33.2983   2
   3  -3  -2-14.9129 29.6486   8
   3   3  -2 49.4958 35.1735   8
   3   3  -2 7.15559 25.1770   2
  -3  -3   2-2.12539 23.1704   7
   3  -3  -2 27.9700 26.7491   4
  -3  -3   1 16484.8 464.650  10
  -3   3   1 16069.8 518.496  10
  -3  -3   1 15662.2 498.186   9
   3  -3  -1 15736.8 458.458   8
   3   3  -1 16305.6 501.354   8
  -3  -3   1 16545.4 388.031   1
  -3  -3   1 16075.3 472.963   7
   3  -3  -1 15637.0 478.757   2
   3   3  -1 16492.4 525.623   2
  -3  -3   0 2961.88 170.098  10
  -3   3   0 2895.36 193.034  10
  -3  -3   0 2563.34 173.739   9
   3  -3   0 2985.56 173.095   8
   3   3   0 2821.69 187.053   8
   3  -3   0 2676.68 184.933  11
  -3  -3   0 2724.34 163.381   7
   3  -3   0 2830.85 175.447   2
   3   3   0 3054.38 199.751   2
   3  -3   1 4979.72 258.965  11
  -3   3  -1 4791.43 252.441  10
  -3  -3  -1 5045.56 243.951   9
  -3  -3  -1 4980.66 225.363   5
   3  -3   1 5074.98 232.660   8
   3   3   1 4935.36 255.807   8
  -3  -3  -1 4908.99 215.900   7
   3  -3   1 4858.41 235.236   2
   3   3   1 5119.42 261.581   2
  -3   3  -2 405.688 73.7269  10
   3  -3   2 362.703 64.2989   2
  -3  -3  -2 405.255 69.0159   9
  -3   3  -2 349.186 53.6154   3
   3   3   2 319.938 63.0162   2
   3  -3   2 376.458 65.1132   8
  -3  -3  -2 379.481 60.1726   5
   3   3   2 421.401 74.9010   8
  -3  -3  -2 355.513 53.1141   7
  -3   3  -3 2597.45 179.031  10
  -3  -3  -3 2730.89 169.053   9
  -3  -3  -3 2782.55 159.665   5
  -3   3  -3 2707.58 174.808   5
   3  -3   3 2828.26 172.510   8
   3   3   3 2950.23 196.259   8
   3  -3   3 2574.07 164.100   2
  -3  -3  -3 2548.74 137.062   7
   3   3   3 2530.74 175.748   2
  -3   3  -3 2630.59 146.440   3
   3  -3   4 103.462 33.8785   2
  -3   3  -4 78.1066 31.1561   3
  -3  -3  -4 73.5917 36.2143   9
   3   3   4 51.3974 32.2824   2
  -3  -3  -4 69.0640 32.8836   5
   3  -3   4 0.34854 26.0683   8
  -3   3  -4 48.4269 26.3492   5
   3   3   4 99.4343 44.2833   8
  -3  -3  -4 43.4457 16.1985   7
   3  -3   5 310.689 56.7097   2
  -3   3  -5 318.504 49.4722   3
   3   3   5 355.356 65.0128   2
  -3  -3  -5 329.986 58.4192   9
  -3  -3  -5 357.100 55.4597   5
   3  -3   5 371.182 65.6166   8
  -3   3  -5 331.507 62.2903   5
   3   3   5 310.320 66.9802   8
  -3  -3  -5 331.931 41.0586   7
   3  -3   6-32.9838 28.3341   2
  -3   3  -6 0.04823 17.0539   3
   3   3   6 16.0927 33.5225   2
  -3  -3  -6-19.8637 29.8157   9
  -3  -3  -6-16.9863 21.2497   5
   3  -3   6-38.3966 32.5568   8
  -3   3  -6-7.41614 20.8683   5
   3   3   6-2.53426 36.3998   8
   3  -3   7 603.193 75.2846   2
  -3   3  -7 411.061 56.2835   3
   3   3   7 511.146 77.7436   2
  -3  -3  -7 460.295 61.3284   9
  -3   3  -7 396.173 57.9101   9
  -3  -3  -7 486.348 59.9132   5
  -3   3  -7 521.808 75.6154   5
   3  -3   7 543.191 79.5152   8
   3   3   7 474.709 83.6266   8
  -3  -3  -8 6270.21 236.002   9
  -3  -3  -8 6560.08 237.481   5
  -3   3  -8 6020.97 258.910   5
   3  -3   8 5889.42 267.778   8
   3   3   8 6323.61 308.765   8
   3  -3   8 6716.83 258.583   2
   3   3   8 6542.69 275.538   2
  -3   3  -8 6597.53 238.524   3
  -3  -3  -9 16084.2 419.738   9
  -3  -3  -9 16556.0 428.405   5
  -3   3  -9 16017.0 460.185   5
   3  -3   9 15900.2 482.413   8
   3   3   9 16382.6 538.978   8
   3  -3   9 16025.1 451.134   2
   3   3   9 17111.0 485.553   2
  -3   3  -9 16902.1 439.440   3
   3  -3  10 36.3673 17.8026   2
  -3  -3 -10 70.1174 26.4460   9
  -3  -3 -10 41.1749 22.4785   5
  -3   3 -10 49.4949 23.9115   5
   3  -3  10 58.0103 31.5041   8
   3   3  10 31.1533 32.9566   8
   3   3  10 77.4325 33.5650   2
   3  -3  11 8.38516 21.3135   2
   3   3  11 55.4695 29.8796   2
  -3  -3 -11 68.0834 29.9155   5
  -3   3 -11 97.4995 37.0346   5
   3  -3  11 93.2831 42.1893   8
   3   3  11 5.04379 27.8876   8
   3  -3  12 1765.65 123.234   6
  -3  -3 -12 1650.20 108.387   5
  -3   3 -12 1551.79 113.403   5
   3  -3  12 1617.07 133.651   8
   3   3  12 1575.99 149.776   8
   3  -3  12 1616.52 118.620   2
   3   3  12 1745.66 125.059   2
   3  -3  13 434.187 62.6085   2
   3  -3  13 552.083 71.5797   6
  -3  -3 -13 624.149 66.7044   5
  -3   3 -13 488.736 64.7565   5
   3   3  13 601.559 73.0346   2
   3  -3  13 586.523 80.6383   8
   3   3  13 574.043 91.2591   8
   3  -3  14 106.031 33.4635   2
   3   3  14 90.8328 33.2258   2
   3  -3  14 104.413 35.7875   6
   3   3  14 57.8722 27.2670   6
  -3  -3 -14 127.273 32.7040   5
  -3   3 -14 121.334 35.4192   5
   3  -3  14 132.794 42.2172   8
   3   3  14 98.8761 51.9305   8
   3  -3  15 496.582 68.2937   2
   3   3  15 402.872 59.1381   2
   3  -3  15 351.654 59.8566   6
   3   3  15 407.838 70.6691   6
  -3  -3 -15 385.853 55.5738   5
  -3   3 -15 280.505 49.4764   5
   3   3  16 2405.30 180.159   6
  -3  -3 -16 2170.02 131.466   5
  -3   3 -16 2281.04 134.074   5
   3  -3  16 2283.12 157.381   6
   3   3  17 1008.34 118.693   6
   3  -3  17 793.690 95.2289   6
  -3  -3 -17 875.397 87.4007   5
  -3   3 -17 941.181 86.4850   5
   3  -3  18 59.4738 38.3500   6
   3   3  18 168.134 49.0407   6
  -3  -3 -18 143.979 43.2068   5
  -3   3 -18 138.534 40.6682   5
   3  -3  19 1330.34 134.325   6
  -3   4  19 88.6899 64.6549   6
  -3  -4  18-72.0361 68.6003   6
  -3   4  18 34.5806 56.4732   6
  -3   4  18 49.3024 51.5788  10
  -3  -4  18-10.6958 48.3009   7
   3   4 -18-5.25684 46.3629   2
  -3  -4  17 486.224 123.113   6
  -3   4  17 422.218 104.698   6
  -3   4  17 534.413 109.574  10
  -3  -4  17 520.733 108.174   7
   3   4 -17 502.131 106.839   2
  -3   4  16 4015.00 286.337  10
  -3  -4  16 4897.66 329.584   7
  -3  -4  16 3891.62 316.717   6
  -3   4  16 3550.46 273.355   6
   3   4 -16 3618.68 273.728   2
  -3  -4  15 271.930 95.8271   6
  -3   4  15 379.961 93.9933  10
  -3   4  15 218.039 68.0360   6
  -3  -4  15 321.559 87.9178   7
   3   4 -15 258.468 75.2425   2
  -3  -4  14 206.044 69.6092   6
  -3   4  14 122.856 53.1022   6
  -3  -4  14 173.684 53.2836  10
  -3   4  14 239.013 70.9333  10
  -3  -4  14 259.491 73.3253   7
   3   4 -14 84.7446 54.0826   2
  -3   4  13 410.774 85.7960   6
  -3  -4  13 503.054 87.2950  10
  -3   4  13 353.319 80.5814  10
   3  -4 -13 413.313 73.9675   2
  -3  -4  13 418.621 92.8275   7
   3   4 -13 578.002 104.597   2
  -3   4  12 147.548 57.5790   6
  -3  -4  12 66.6498 42.7315  10
  -3   4  12 243.862 70.0524  10
   3  -4 -12 94.3568 39.9449   2
  -3  -4  12 111.700 45.4794   7
   3   4 -12 107.934 49.1433   2
  -3   4  11 373.134 79.8517   6
  -3   4  11 505.194 94.6703  10
  -3  -4  11 545.575 85.4042  10
   3   4 -11 418.806 70.0457   8
   3  -4 -11 537.248 85.5581   2
  -3  -4  11 502.912 96.4167   7
   3   4 -11 473.711 90.9557   2
  -3  -4  10 4737.48 249.890  10
  -3   4  10 4219.11 267.542  10
   3   4 -10 4522.49 232.826   8
  -3  -4  10 4635.57 284.491   7
   3  -4 -10 4646.74 253.496   2
   3   4 -10 4286.42 270.722   2
  -3  -4   9 3563.56 211.090  10
  -3   4   9 3067.64 223.231  10
   3  -4  -9 3575.71 159.788   8
   3   4  -9 3519.95 204.060   8
   3  -4  -9 3593.00 179.315   4
  -3  -4   9 3755.65 249.103   7
   3  -4  -9 3540.14 215.682   2
   3   4  -9 3642.12 243.204   2
  -3  -4   9 3597.38 229.031   1
  -3  -4   8 5068.45 250.492  10
  -3   4   8 5288.57 292.955  10
   3  -4  -8 5019.92 200.190   8
   3   4  -8 4998.62 247.951   8
   3  -4  -8 5458.67 226.944   4
  -3  -4   8 5556.22 299.843   7
   3  -4  -8 5056.04 259.295   2
   3   4  -8 4966.27 285.655   2
  -3  -4   8 5152.84 265.628   1
  -3   4   7 663.213 100.410  10
   3  -4  -7 667.550 72.1524   8
   3  -4  -7 630.150 87.7131   2
   3   4  -7 745.256 93.1434   8
   3  -4  -7 739.357 81.5151   4
  -3  -4   7 791.530 98.2782  10
  -3  -4   7 644.945 84.8553   1
  -3  -4   7 646.790 100.216   7
   3   4  -7 720.100 104.531   2
  -3  -4   6 1105.86 126.512   9
  -3   4   6 965.396 122.665  10
   3  -4  -6 907.629 83.7955   8
   3   4  -6 883.767 101.968   8
  -3  -4   6 993.821 104.182  10
   3  -4  -6 1104.27 101.672   4
  -3  -4   6 1039.90 121.436   7
  -3  -4   6 905.432 96.8916   1
   3  -4  -6 1125.26 114.463   2
   3   4  -6 1136.68 128.777   2
  -3  -4   5-30.8500 25.5497  10
  -3  -4   5 91.9821 43.9140   9
   3  -4  -5 9.47911 21.6065   2
  -3   4   5 39.4321 40.2852  10
   3  -4  -5-27.8840 22.6582   8
   3   4  -5 36.1081 27.2894   8
  -3  -4   5-20.3839 29.3856   1
   3  -4  -5 45.3096 30.1862   4
  -3  -4   5-4.99753 26.4110   7
   3   4  -5 10.5221 25.7049   2
  -3  -4   4 545.165 70.5508   1
  -3  -4   4 503.843 67.7362  10
  -3   4   4 560.620 94.7029  10
  -3  -4   4 537.082 87.1199   9
   3  -4  -4 574.597 80.0959   2
   3  -4  -4 497.944 63.2196   8
   3   4  -4 335.998 65.3646   8
   3  -4  -4 524.615 72.4261   4
   3   4  -4 436.273 82.6863   2
  -3  -4   4 496.881 78.4392   7
  -3  -4   3 1035.21 97.6576  10
  -3  -4   3 872.244 107.679   9
   3  -4  -3 892.634 88.4736   8
  -3  -4   3 905.853 86.5304   1
   3   4  -3 747.064 97.8416   8
  -3   4   3 971.303 118.415  10
  -3  -4   3 973.581 104.827   7
   3  -4  -3 1019.97 105.705   4
   3  -4  -3 1066.61 107.139   2
   3   4  -3 983.229 116.504   2
   3   4  -2 999.965 86.4692  11
  -3   4   2 711.095 101.656  10
  -3  -4   2 1057.97 91.1300   1
  -3  -4   2 967.227 110.470   9
   3  -4  -2 998.528 93.5950   8
   3   4  -2 1062.81 113.608   8
  -3  -4   2 996.088 102.608   7
   3  -4  -2 1097.08 113.353   4
   3   4  -2 877.066 110.123   2
   3  -4  -2 1122.19 109.020   2
  -3  -4   2 892.454 90.5475  10
  -3   4   1 444.774 118.810  10
  -3  -4   1 623.616 74.1434  10
   3  -4  -1 564.308 77.9846   2
  -3  -4   1 476.664 77.1179   9
  -3  -4   1 445.181 56.0141   1
   3  -4  -1 535.052 71.7519   8
   3   4  -1 452.523 78.0730   8
   3   4  -1 491.657 83.9617   2
  -3  -4   1 486.257 72.3806   7
   3  -4  -1 494.272 77.5379   4
  -3   4   0 6265.53 299.514  10
  -3  -4   0 6246.43 279.017   9
  -3  -4   0 6304.84 254.484   5
   3  -4   0 6181.57 255.637   8
   3   4   0 6438.99 293.926   8
  -3  -4   0 6009.92 250.599   7
   3  -4   0 5919.31 263.130   2
   3   4   0 6124.60 298.220   2
  -3   4  -1 184.119 51.1590  10
  -3  -4  -1 261.692 60.2743   9
   3  -4   1 347.549 59.9829   2
   3  -4   1 381.130 63.1516   8
  -3  -4  -1 259.594 47.2959   5
   3  -4   1 269.002 59.5926  11
   3   4   1 377.739 69.9382   8
   3   4   1 323.879 69.0824   2
  -3  -4  -1 307.313 52.5069   7
  -3   4  -2 11114.2 412.014  10
  -3   4  -2 11013.7 358.422   3
   3  -4   2 12284.4 438.418  11
  -3  -4  -2 11225.8 384.653   9
  -3  -4  -2 11295.0 354.789   5
   3  -4   2 10846.1 367.788   8
   3   4   2 11919.7 426.144   8
   3  -4   2 11681.5 378.744   2
  -3  -4  -2 11480.7 341.354   7
   3   4   2 12009.1 424.209   2
   3  -4   3 191.403 43.3860   2
  -3   4  -3 186.760 55.1470  10
  -3  -4  -3 146.450 49.5658   9
  -3   4  -3 196.907 43.5954   3
   3   4   3 151.968 47.5453   2
   3  -4   3 189.849 49.1036   8
  -3  -4  -3 135.209 35.1125   5
   3   4   3 177.851 51.4754   8
  -3  -4  -3 170.629 37.8270   7
  -3   4  -4 1048.56 95.5871   3
  -3  -4  -4 866.567 92.7906   9
  -3  -4  -4 920.608 86.4310   5
  -3   4  -4 1022.68 107.518   5
   3  -4   4 914.381 97.0208   8
   3   4   4 1015.50 116.007   8
   3  -4   4 949.977 95.6559   2
  -3  -4  -4 1007.02 76.5898   7
   3   4   4 1078.59 113.055   2
  -3   4  -5 1356.10 107.034   3
  -3  -4  -5 1284.18 109.328   9
  -3  -4  -5 1390.41 104.588   5
  -3   4  -5 1351.01 122.285   5
   3  -4   5 1333.96 117.470   8
   3   4   5 1251.71 133.084   8
   3  -4   5 1402.95 113.543   2
  -3  -4  -5 1408.01 85.7687   7
   3   4   5 1397.89 128.767   2
  -3  -4  -6 4662.29 211.292   9
  -3  -4  -6 4721.26 198.126   5
  -3   4  -6 4350.65 225.177   5
   3  -4   6 5107.27 236.914   8
   3   4   6 4895.48 266.987   8
   3  -4   6 4948.28 220.723   2
   3   4   6 5311.96 255.069   2
  -3   4  -6 5062.64 214.240   3
  -3  -4  -7 4938.20 212.977   9
  -3  -4  -7 5249.37 205.761   5
  -3   4  -7 4918.69 233.539   5
   3  -4   7 4913.55 236.645   8
   3   4   7 4881.49 270.840   8
   3  -4   7 4972.54 220.629   2
   3   4   7 5200.53 252.928   2
  -3   4  -7 5112.45 217.665   3
   3  -4   8 504.234 68.1379   2
   3   4   8 524.868 76.4852   2
  -3   4  -8 520.973 68.1372   3
  -3  -4  -8 553.479 66.4135   9
  -3  -4  -8 442.141 56.3712   5
   3  -4   8 478.182 72.5745   8
  -3   4  -8 572.732 76.5741   5
   3   4   8 427.881 78.3099   8
  -3  -4  -9 2134.82 126.307   9
  -3  -4  -9 2218.92 125.464   5
  -3   4  -9 2092.68 141.818   5
   3  -4   9 2114.63 153.558   8
   3   4   9 2269.98 182.353   8
   3  -4   9 2298.59 141.839   2
   3   4   9 2153.33 149.489   2
  -3   4  -9 2058.52 136.930   3
  -3  -4 -10 11113.4 322.441   9
  -3  -4 -10 11225.1 321.184   5
  -3   4 -10 11046.1 358.603   5
   3  -4  10 10992.4 381.071   8
   3   4  10 11236.7 438.336   8
   3  -4  10 11124.8 350.581   2
   3   4  10 11620.8 376.790   2
  -3   4 -10 11701.2 368.742   3
   3  -4  11 2079.27 128.972   6
  -3  -4 -11 1926.87 111.556   9
  -3  -4 -11 2005.37 117.652   5
  -3   4 -11 1946.66 131.541   5
   3  -4  11 2053.42 148.894   8
   3   4  11 2191.82 180.778   8
   3  -4  11 2032.30 131.643   2
   3   4  11 2022.39 138.958   2
  -3   4 -11 1793.36 134.277   3
   3  -4  12 115.366 37.2804   2
   3  -4  12 65.8440 28.6265   6
   3   4  12 135.953 36.7671   2
  -3  -4 -12 135.813 33.4464   5
  -3   4 -12 97.2224 31.4129   5
   3  -4  12 161.520 48.0211   8
   3   4  12 78.9932 44.9876   8
   3  -4  13 1707.48 122.186   6
  -3  -4 -13 1969.48 116.627   5
  -3   4 -13 1770.62 122.153   5
   3  -4  13 1818.25 142.976   8
   3   4  13 1775.84 163.438   8
   3  -4  13 1882.48 127.783   2
   3   4  13 2047.97 132.815   2
   3  -4  14 29.4905 27.8731   2
   3  -4  14 1.10279 22.4702   6
   3   4  14 0.34683 32.1487   6
  -3  -4 -14 21.7503 25.6388   5
  -3   4 -14 46.5252 26.5260   5
   3   4  14 9.45759 30.3955   8
   3  -4  15 352.879 60.7603   6
  -3  -4 -15 309.513 49.8267   5
  -3   4 -15 335.081 53.2905   5
   3   4  15 400.560 72.7339   6
   3   4  16 101.243 48.1167   6
  -3  -4 -16 85.2354 30.9243   5
  -3   4 -16 97.8946 32.4183   5
   3  -4  16 79.6969 35.8333   6
   3   4  17 1529.78 148.676   6
  -3  -4 -17 1322.95 106.411   5
  -3   4 -17 1314.51 103.293   5
   3  -4  17 1458.08 128.466   6
  -3   4 -18 6115.83 241.149   5
   3  -4  18 6447.38 292.745   6
   3  -4  19 3149.15 207.696   6
  -3   5  19 508.921 113.215   6
  -3  -5  18 6912.21 406.097   7
  -3   5  18 5768.04 370.002   6
   3   5 -18 6337.06 386.304   2
  -3   5  17 6491.83 386.457  10
  -3  -5  17 8565.15 444.337   7
  -3  -5  17 7775.74 471.861   6
  -3   5  17 6589.15 385.917   6
   3   5 -17 6884.64 397.273   2
  -3  -5  16 945.271 161.326   6
  -3   5  16 796.555 128.656   6
  -3   5  16 791.342 135.375  10
  -3  -5  16 986.386 137.489   9
  -3  -5  16 1009.91 152.345   7
   3   5 -16 798.809 133.421   2
  -3   5  15 790.658 124.371   6
  -3   5  15 693.866 120.477  10
  -3  -5  15 958.525 132.753   9
  -3  -5  15 1132.47 154.839   7
   3   5 -15 808.230 126.531   2
  -3   5  14 58.9611 38.9442   6
  -3   5  14 178.202 71.3608  10
  -3  -5  14 44.4768 45.9697   9
  -3  -5  14 86.6979 37.5238   7
   3   5 -14 145.637 63.3877   2
  -3   5  13 3220.08 248.021  10
  -3  -5  13 3374.77 246.406   9
  -3  -5  13 3846.48 272.963   7
  -3   5  13 3527.34 249.154   6
   3   5 -13 3719.01 265.050   2
  -3   5  12 312.034 73.8108   6
  -3   5  12 388.545 87.4054  10
  -3  -5  12 507.651 97.0443   9
  -3  -5  12 458.868 96.7045   7
   3   5 -12 344.682 81.4067   2
  -3   5  11 294.232 72.0980   6
  -3   5  11 389.760 87.3717  10
  -3  -5  11 444.464 86.5565   1
  -3  -5  11 342.834 78.5229   9
   3  -5 -11 415.064 75.6950   2
   3   5 -11 476.610 77.5725   8
  -3  -5  11 348.146 83.9349   7
   3   5 -11 376.958 81.4632   2
  -3  -5  10 77.3351 46.2583   1
  -3  -5  10 36.9759 32.9447  10
  -3   5  10 176.436 61.8152  10
  -3  -5  10 127.769 58.7483   9
   3  -5 -10 67.0834 32.0563   2
   3   5 -10 72.1412 33.2871   8
  -3  -5  10 127.803 48.4384   7
   3   5 -10 83.2424 40.1320   2
  -3   5   9 439.889 90.2231  10
  -3  -5   9 735.855 106.634   1
  -3  -5   9 635.067 108.025   9
   3  -5  -9 589.993 83.8088   2
  -3  -5   9 632.851 87.2248  10
   3   5  -9 719.295 94.3952   8
   3  -5  -9 638.294 78.2679   4
  -3  -5   9 538.475 96.0122   7
   3   5  -9 604.100 100.919   2
  -3  -5   8 2162.33 154.400  10
  -3   5   8 2004.12 180.361  10
  -3  -5   8 1904.09 171.373   9
   3   5  -8 1849.68 151.508   8
   3  -5  -8 2159.77 145.507   4
  -3  -5   8 2580.75 198.878   7
   3  -5  -8 2194.87 160.995   2
  -3  -5   8 2366.90 180.524   1
   3   5  -8 2079.59 182.955   2
  -3  -5   7 1796.21 137.307  10
  -3   5   7 1599.90 158.297  10
  -3  -5   7 1588.12 153.085   9
   3  -5  -7 1996.39 121.843   8
   3   5  -7 1837.40 149.684   8
   3  -5  -7 1994.37 142.005   4
  -3  -5   7 1748.98 158.440   7
   3  -5  -7 2040.72 154.390   2
  -3  -5   7 1794.17 151.367   1
   3   5  -7 1895.61 172.318   2
  -3  -5   6 39.7493 28.9499  10
  -3  -5   6 58.2924 32.9013   9
   3  -5  -6 20.3575 27.4363   2
   3  -5  -6 54.0759 26.7152   8
  -3   5   6 44.0132 40.3669  10
   3   5  -6 34.3195 24.4667   8
  -3  -5   6 15.7488 26.1278   1
   3  -5  -6 1.44157 21.3524   4
  -3  -5   6 43.1708 39.5639   7
   3   5  -6 80.2193 44.3996   2
  -3   5   5-53.1295 51.2866  10
  -3  -5   5-2.36879 19.4614  10
  -3  -5   5-28.7901 34.7145   1
  -3  -5   5-23.4997 37.1824   9
   3  -5  -5-26.7050 31.9810   2
   3  -5  -5 28.9227 29.2601   8
   3   5  -5-4.20645 28.2480   8
   3  -5  -5 10.3117 25.2245   4
  -3  -5   5-19.2158 30.8421   7
   3   5  -5 91.0775 48.7423   2
  -3  -5   4 2205.81 138.891  10
  -3   5   4 2087.25 175.219  10
  -3  -5   4 1951.05 162.588   9
   3  -5  -4 2005.22 129.739   8
   3   5  -4 2138.06 162.608   8
  -3  -5   4 2298.17 156.182   1
   3  -5  -4 2081.58 153.419   4
  -3  -5   4 2181.19 163.812   7
   3  -5  -4 1941.04 146.678   2
   3   5  -4 1758.26 161.923   2
  -3  -5   3 956.828 89.0893  10
  -3   5   3 998.400 123.124  10
  -3  -5   3 975.898 112.198   9
  -3  -5   3 974.386 97.1239   1
   3  -5  -3 923.536 89.3648   8
   3   5  -3 901.355 108.398   8
  -3  -5   3 964.935 105.692   7
   3  -5  -3 847.388 94.8062   2
   3  -5  -3 815.416 97.9523   4
   3   5  -3 1036.06 124.460   2
   3   5  -2 1253.87 91.9863  11
  -3   5   2 1179.75 135.184  10
  -3  -5   2 1184.42 105.615   1
  -3  -5   2 1047.69 116.824   9
   3  -5  -2 1119.62 99.5549   8
   3   5  -2 1184.83 121.765   8
   3  -5  -2 1216.31 122.570   4
  -3  -5   2 1132.78 111.843   7
   3  -5  -2 1103.62 106.434   2
   3   5  -2 1270.91 136.608   2
  -3  -5   1 49.6031 24.2091   1
  -3   5   1 63.4812 32.8090  10
   3  -5  -1 184.902 46.3355   2
  -3  -5   1 118.898 45.9044   9
   3  -5  -1 117.030 37.3746   8
  -3  -5   1 73.9563 29.9426   5
   3   5  -1 60.9712 34.1757   8
   3   5  -1 122.343 49.0815   2
   3  -5  -1 139.078 47.5330   4
  -3  -5   1 122.337 39.4135   7
  -3   5   0 1713.45 154.388  10
  -3  -5   0 1512.87 134.092   9
  -3  -5   0 1554.63 114.668   5
   3  -5   0 1561.41 119.973   8
   3   5   0 1892.71 155.455   8
   3  -5   0 1528.30 122.439   2
  -3  -5   0 1609.83 121.822   7
   3  -5   0 1794.07 156.820   4
   3   5   0 1664.81 152.696   2
  -3   5  -1 1286.02 131.544  10
  -3  -5  -1 1303.31 102.967   5
   3  -5   1 1456.49 117.745   8
   3   5   1 1423.16 138.259   8
  -3  -5  -1 1549.10 130.667   9
   3  -5   1 1398.59 115.680   2
  -3  -5  -1 1667.92 118.851   7
   3   5   1 1573.43 148.734   2
  -3   5  -2 41.6826 33.2087  10
   3  -5   2 30.6144 23.6847   2
  -3  -5  -2 91.6351 37.4674   9
  -3   5  -2 13.6861 22.6754   3
   3  -5   2 64.8063 32.1377   8
  -3  -5  -2 58.4521 26.9028   5
   3   5   2 35.6857 24.7613   2
   3   5   2 66.5889 39.9207   8
   3  -5   2 98.8897 44.6796  11
  -3  -5  -2 74.7192 29.5901   7
  -3   5  -3 1030.15 102.526   3
   3  -5   3 1185.30 132.387  11
  -3   5  -3 961.001 113.616  10
  -3  -5  -3 1016.54 102.558   9
  -3  -5  -3 1087.69 91.0637   5
   3  -5   3 1112.49 105.473   8
   3   5   3 927.691 113.409   8
   3  -5   3 1079.58 98.9513   2
  -3  -5  -3 1039.81 84.9474   7
   3   5   3 1180.77 123.860   2
   3  -5   4 548.519 70.4478   2
  -3   5  -4 525.594 72.5302   3
  -3  -5  -4 394.009 63.9614   9
   3   5   4 577.837 84.6675   2
  -3  -5  -4 555.180 61.1385   5
   3  -5   4 502.276 72.2638   8
  -3   5  -4 488.690 75.7232   5
   3   5   4 501.710 84.6883   8
  -3  -5  -4 482.534 56.0924   7
  -3   5  -5 2600.01 158.041   3
  -3  -5  -5 2457.59 154.554   9
  -3  -5  -5 2337.07 131.775   5
  -3   5  -5 2527.89 171.223   5
   3  -5   5 2402.13 159.641   8
   3   5   5 2482.07 190.614   8
   3  -5   5 2397.43 147.855   2
  -3  -5  -5 2645.90 125.204   7
   3   5   5 2821.86 186.681   2
  -3  -5  -6 4249.58 205.390   9
  -3  -5  -6 4244.39 180.046   5
  -3   5  -6 4708.65 232.485   5
   3  -5   6 4289.12 217.255   8
   3   5   6 4601.35 262.674   8
   3  -5   6 4317.76 202.047   2
   3   5   6 4600.89 241.264   2
  -3   5  -6 4751.40 219.603   3
  -3  -5  -7 1811.57 127.982   9
  -3  -5  -7 1741.06 110.172   5
  -3   5  -7 2035.56 147.588   5
   3  -5   7 1877.44 141.710   8
   3   5   7 1772.61 163.577   8
   3  -5   7 1854.73 128.210   2
   3   5   7 1825.27 146.729   2
  -3   5  -7 1725.55 129.582   3
  -3  -5  -8 1574.33 114.094   9
  -3  -5  -8 1767.45 108.993   5
  -3   5  -8 1550.86 126.755   5
   3  -5   8 1540.47 128.117   8
   3   5   8 1649.36 157.157   8
   3  -5   8 1686.62 119.877   2
   3   5   8 1953.57 147.069   2
  -3   5  -8 1648.12 127.422   3
   3  -5   9 145.230 40.0911   2
   3   5   9 60.9383 26.4248   2
  -3   5  -9 119.072 40.2459   3
  -3  -5  -9 174.923 43.0481   9
  -3  -5  -9 91.8339 29.5262   5
  -3   5  -9 33.8607 25.9061   5
   3  -5   9 117.702 42.3993   8
   3   5   9 53.8749 33.0227   8
   3  -5  10 21.0219 21.4099   2
   3  -5  10-4.77282 14.7002   6
   3   5  10 12.4165 28.3318   2
  -3   5 -10-3.67279 22.4204   3
  -3  -5 -10 8.79824 19.1693   9
  -3  -5 -10 5.90233 17.2804   5
  -3   5 -10-10.6420 31.7783   5
   3  -5  10 5.19024 27.3924   8
   3   5  10 50.6482 33.1939   8
   3  -5  11 64.6096 32.2026   2
   3   5  11-4.71441 17.8426   2
  -3   5 -11 12.9218 26.3430   3
  -3  -5 -11-5.28042 25.5424   9
  -3  -5 -11 31.3065 18.9135   5
  -3   5 -11-8.47994 26.7226   5
   3   5  11-50.5016 41.1683   8
   3  -5  11 17.1096 20.8736   6
   3  -5  12 3850.30 182.162   6
  -3   5 -12 3652.53 185.004   5
  -3  -5 -12 3961.39 167.007   5
   3   5  12 3828.69 248.893   8
   3  -5  12 4061.77 192.446   2
   3   5  12 4280.80 202.867   2
  -3   5 -12 3833.41 216.792   3
   3  -5  13 127.862 35.2390   2
   3  -5  13 77.0171 28.9286   6
  -3  -5 -13 128.532 34.6009   5
  -3   5 -13 49.3337 28.9349   5
   3   5  13 104.256 40.0235   8
   3  -5  14 247.511 50.1607   2
   3  -5  14 164.995 44.1401   6
   3   5  14 192.975 50.6537   6
  -3  -5 -14 219.145 42.8333   5
  -3   5 -14 198.075 43.8090   5
   3  -5  15 596.779 77.6084   6
   3   5  15 536.026 84.7853   6
  -3   5 -15 543.985 67.7780   5
  -3  -5 -15 488.649 62.8578   5
   3  -5  16 101.250 36.9098   6
   3   5  16 136.493 48.8938   6
  -3  -5 -16 101.932 34.7037   5
  -3   5 -16 125.346 34.9647   5
   3   5  17 1465.37 148.313   6
  -3  -5 -17 1279.59 106.365   5
  -3   5 -17 1271.06 100.877   5
   3  -5  17 1308.95 122.899   6
  -3   5 -18 1627.20 117.896   5
   3  -5  18 1751.06 148.967   6
   3  -5  19 2310.69 178.449   6
  -3   6  17 206.577 70.5724   6
  -3   6  17 138.845 71.0938  10
  -3  -6  17 369.697 112.083   7
   3   6 -17 261.551 84.8307   2
  -3   6  16 1979.04 208.180  10
  -3  -6  16 2628.33 236.973   7
  -3   6  16 2160.11 210.560   6
   3   6 -16 2276.09 222.848   2
  -3   6  15 2350.57 224.181  10
  -3  -6  15 2557.04 212.898   9
  -3  -6  15 2417.04 224.201   7
  -3   6  15 2235.92 207.321   6
   3   6 -15 2315.32 219.364   2
  -3  -6  15 2536.37 246.687   1
  -3   6  14 259.867 69.7996   6
  -3  -6  14 492.039 106.695   1
  -3   6  14 222.901 71.2219  10
  -3  -6  14 402.438 87.6319   9
  -3  -6  14 377.323 92.8709   7
   3   6 -14 315.261 82.6365   2
  -3   6  13 885.303 124.092   6
  -3   6  13 921.423 136.179  10
  -3  -6  13 1089.27 137.125   9
  -3  -6  13 907.801 133.805   1
  -3  -6  13 1238.10 155.158   7
   3   6 -13 1169.54 151.438   2
  -3   6  12 987.747 130.944   6
  -3   6  12 1092.91 147.882  10
  -3  -6  12 1201.88 141.824   9
  -3  -6  12 1191.56 147.719   7
  -3  -6  12 1130.48 150.378   1
   3   6 -12 1045.53 139.797   2
  -3   6  11 1524.97 164.303  10
  -3  -6  11 1591.06 162.346   9
   3   6 -11 1471.68 137.656   8
  -3  -6  11 1551.70 163.624   7
  -3  -6  11 1728.32 177.424   1
   3   6 -11 1687.66 173.636   2
  -3   6  10 141.232 61.9003  10
  -3  -6  10 107.330 49.6813   9
   3  -6 -10 86.8900 43.4294   2
   3   6 -10 6.89047 24.7584   8
  -3  -6  10-2.17743 29.6439   1
  -3  -6  10 51.8098 32.0221   7
   3   6 -10 68.8836 47.1807   2
  -3   6   9 560.607 97.2531  10
  -3  -6   9 605.458 102.151   1
  -3  -6   9 659.433 101.620   9
   3  -6  -9 651.500 87.6162   2
   3   6  -9 761.434 98.0110   8
   3  -6  -9 695.759 86.9842   4
  -3  -6   9 671.834 109.248   7
   3   6  -9 639.546 106.492   2
  -3   6   8 2109.32 190.355  10
  -3  -6   8 2373.27 187.938   9
   3   6  -8 2101.73 165.762   8
   3  -6  -8 2353.08 159.502   4
  -3  -6   8 2277.13 188.712   7
   3  -6  -8 2364.82 163.302   2
  -3  -6   8 2345.42 188.189   1
   3   6  -8 1983.85 181.849   2
  -3   6   7 2434.87 201.263  10
  -3  -6   7 2693.44 199.205   9
   3   6  -7 2396.14 175.858   8
   3  -6  -7 2745.58 174.779   4
  -3  -6   7 2571.89 193.804   7
  -3  -6   7 2623.38 194.007   1
   3  -6  -7 2633.95 170.625   2
   3   6  -7 2265.58 193.132   2
  -3  -6   6-11.7683 20.0738  10
  -3  -6   6-13.2845 34.5771   1
  -3  -6   6 6.63067 31.2194   9
   3  -6  -6-31.1575 31.6323   2
   3   6  -6 65.1309 40.6732   8
   3  -6  -6 29.1838 28.2485   4
  -3   6   6-30.5929 49.8804  10
  -3  -6   6 15.2184 26.8158   7
   3   6  -6 4.83247 29.1990   2
  -3  -6   5 43.6275 24.5838   1
  -3  -6   5 36.8415 19.8118  10
  -3   6   5 49.3628 31.4766  10
   3  -6  -5 91.6137 33.2585   2
  -3  -6   5-55.7829 47.3036   9
   3   6  -5 78.8908 34.5914   8
   3  -6  -5 72.0544 34.8573   4
  -3  -6   5 95.3882 38.9573   7
   3   6  -5 74.8235 51.7932   2
  -3  -6   4 348.526 53.7419  10
   3  -6  -4 310.773 58.4856   2
  -3  -6   4 320.943 71.0602   9
   3  -6  -4 371.443 57.1951   8
  -3   6   4 223.232 63.2258  10
   3   6  -4 299.419 65.0483   8
   3  -6  -4 421.112 75.9969   4
  -3  -6   4 231.143 58.8498   7
  -3  -6   4 432.561 72.5809   1
   3   6  -4 436.882 88.7426   2
  -3   6   3 9744.46 408.948  10
  -3  -6   3 9164.94 368.665   9
  -3  -6   3 9305.93 353.760   1
   3  -6  -3 9426.37 312.346   8
   3   6  -3 9166.02 369.310   8
   3  -6  -3 9350.66 366.799   4
  -3  -6   3 9418.56 353.427   7
   3  -6  -3 9160.04 334.318   2
   3   6  -3 9679.30 404.453   2
  -3   6   2 102.238 41.5163  10
   3  -6  -2 186.476 44.6686   2
  -3  -6   2 192.168 50.9227   1
  -3  -6   2 252.095 58.7649   9
   3  -6  -2 173.206 44.1121   8
  -3  -6   2 182.464 40.7998   5
   3   6  -2 185.479 54.0348   8
   3   6  -2 143.723 48.5276   2
   3  -6  -2 192.395 51.2538   4
  -3  -6   2 288.014 60.0258   7
  -3  -6   1 29.4286 27.1612   1
  -3   6   1-9.27324 30.7967  10
   3  -6  -1 10.6864 21.3988   2
  -3  -6   1 40.9429 42.3590   9
   3  -6  -1 0.17556 24.5294   8
  -3  -6   1 56.9780 30.0785   5
   3   6  -1-16.5506 33.5284   8
   3   6  -1 17.6961 24.9796   2
   3  -6  -1-23.8800 31.1865   4
  -3  -6   1 2.61606 19.6092   7
  -3   6   0 506.042 88.6078  10
   3  -6   0 471.758 68.0140   2
  -3  -6   0 622.422 85.5232   9
   3  -6   0 477.718 68.0187   8
  -3  -6   0 488.199 62.8345   5
   3   6   0 361.898 73.9578   8
   3   6   0 612.017 93.7644   2
   3  -6   0 574.462 96.4041   4
  -3  -6   0 472.356 67.3377   7
   3  -6   1 161.570 40.5204   2
  -3  -6  -1 191.283 56.8542   9
  -3   6  -1 140.405 40.9707   3
   3  -6   1 126.501 40.8245   8
  -3  -6  -1 155.723 35.7529   5
  -3   6  -1 122.539 43.0126  10
   3   6   1 41.7784 27.5750   8
   3   6   1 182.182 58.9377   2
   3  -6   1 69.4567 39.0958   4
  -3  -6  -1 97.7531 33.6402   7
   3  -6   2 31.9439 21.9976   2
  -3  -6  -2-54.2302 40.8256   9
  -3   6  -2 13.1308 21.1556   3
   3  -6   2 65.7371 37.6029   8
  -3  -6  -2 72.2192 29.3293   5
   3   6   2 4.00057 26.1967   2
   3   6   2 20.4613 28.6303   8
   3  -6   2 38.2031 35.7357   4
  -3  -6  -2 24.0756 21.6486   7
  -3   6  -3 803.385 94.2380   3
   3  -6   3 695.543 101.701  11
  -3   6  -3 851.001 111.427  10
  -3  -6  -3 791.762 75.3951   5
  -3  -6  -3 788.383 90.0156   9
   3  -6   3 762.703 88.1622   8
   3   6   3 1010.93 123.449   8
   3   6   3 637.546 92.3107   2
   3  -6   3 811.574 84.3441   2
  -3  -6  -3 777.004 76.3230   7
   3  -6   4 201.085 66.4965  11
   3  -6   4 174.726 40.8745   2
  -3   6  -4 200.467 44.3732   3
  -3  -6  -4 219.569 49.3553   9
   3   6   4 122.223 45.6843   2
  -3  -6  -4 167.470 31.3370   5
   3  -6   4 194.550 50.9965   8
  -3   6  -4 161.256 48.9404   5
   3   6   4 125.305 49.7751   8
  -3  -6  -4 170.453 35.5259   7
  -3  -6  -5 665.695 64.7969   5
  -3   6  -5 510.823 75.5528   3
  -3  -6  -5 602.933 77.1168   9
   3  -6   5 581.695 97.8363  11
   3  -6   5 705.118 86.6954   8
   3   6   5 703.640 93.3738   2
  -3   6  -5 546.966 80.5503   5
   3  -6   5 617.470 72.6985   2
   3   6   5 624.604 99.1392   8
  -3  -6  -5 659.196 63.5932   7
  -3  -6  -6 2362.03 152.101   9
  -3  -6  -6 2459.55 126.007   5
  -3   6  -6 2640.38 172.202   5
   3  -6   6 2645.61 166.585   8
   3   6   6 2297.60 189.788   8
   3  -6   6 2425.42 146.396   2
   3   6   6 2618.33 180.511   2
  -3   6  -6 2383.85 161.860   3
  -3  -6  -7 3733.40 187.187   9
  -3  -6  -7 3608.80 156.294   5
  -3   6  -7 3438.37 197.617   5
   3  -6   7 3756.40 202.906   8
   3   6   7 3518.61 239.070   8
   3  -6   7 3765.03 182.782   2
   3   6   7 3791.95 216.675   2
  -3   6  -7 3423.55 195.778   3
  -3  -6  -8 1640.35 118.159   9
  -3  -6  -8 1653.10 101.340   5
  -3   6  -8 1547.36 128.749   5
   3   6   8 1741.04 166.083   8
   3  -6   8 1785.12 123.431   2
   3   6   8 1811.01 143.709   2
  -3   6  -8 1685.25 136.179   3
   3  -6   9 171.835 40.5712   2
   3  -6   9 131.004 32.5453   6
   3   6   9 171.266 44.5488   2
  -3   6  -9 138.341 44.7392   3
  -3  -6  -9 216.974 46.5509   9
  -3  -6  -9 205.626 39.3046   5
  -3   6  -9 154.076 44.7472   5
   3   6   9 119.138 46.3278   8
   3  -6  10 45.6408 27.2691   2
   3  -6  10 29.5210 19.9059   6
   3   6  10-4.43986 23.3952   2
  -3   6 -10 3.85994 24.2032   3
  -3  -6 -10 27.2384 19.3776   9
  -3  -6 -10 59.4810 24.7771   5
  -3   6 -10 37.4334 24.5794   5
   3   6  10 16.0256 35.3943   8
   3  -6  11 14.2549 19.6555   2
   3  -6  11-5.22777 16.0985   6
  -3   6 -11 15.7267 23.5696   3
  -3  -6 -11-4.14261 23.1615   9
  -3  -6 -11 3.35784 13.4066   5
  -3   6 -11-18.8714 26.3374   5
   3   6  11-14.7755 31.2693   8
   3  -6  12 286.995 51.4610   2
   3  -6  12 218.850 45.0337   6
  -3   6 -12 211.235 52.8673   3
  -3  -6 -12 183.320 37.0837   9
  -3  -6 -12 309.924 44.3365   5
  -3   6 -12 187.776 42.0999   5
   3   6  12 225.822 71.2764   8
  -3   6 -13 724.041 100.305   3
  -3  -6 -13 903.373 76.6571   5
  -3   6 -13 812.278 82.6040   5
   3  -6  13 821.095 85.9270   2
   3   6  13 779.703 114.702   8
   3  -6  13 792.795 80.4870   6
   3   6  14 2310.70 180.537   6
  -3  -6 -14 2079.47 124.187   5
  -3   6 -14 1911.11 125.673   5
   3  -6  14 2065.62 136.709   6
   3   6  15 1081.40 125.325   6
  -3  -6 -15 885.674 82.9406   5
  -3   6 -15 1055.13 91.7550   5
   3   6  16 129.101 47.1675   6
  -3  -6 -16 203.139 45.0732   5
  -3   6 -16 220.131 46.2636   5
  -3  -6 -17 3239.35 175.951   5
  -3   6 -17 3267.70 165.027   5
  -3   6 -18 9442.81 310.883   5
  -3  -7  17 2319.88 258.968   1
  -3   7  16 2740.06 249.993  10
  -3  -7  16 2976.60 251.991   7
  -3  -7  16 2909.16 279.647   1
   3   7 -16 2851.42 253.171   2
  -3   7  15 268.382 82.3235  10
  -3  -7  15 221.333 63.5486   9
  -3  -7  15 276.958 86.5693   1
  -3  -7  15 101.632 48.0460   7
   3   7 -15 146.476 63.1719   2
  -3   7  14 746.750 128.147  10
  -3  -7  14 948.823 145.824   1
  -3  -7  14 902.793 122.120   9
  -3  -7  14 1000.33 139.747   7
   3   7 -14 845.596 135.110   2
  -3   7  13 116.947 62.2741  10
  -3  -7  13 89.1589 37.0505   9
  -3  -7  13 68.7321 47.0425   7
  -3  -7  13 77.6339 48.0440   1
   3   7 -13 92.5166 52.5071   2
  -3   7  12 1942.58 194.982  10
  -3  -7  12 1916.04 175.251   9
  -3  -7  12 1875.68 185.491   7
  -3  -7  12 1844.75 194.018   1
   3   7 -12 1751.40 183.696   2
  -3   7  11 158.014 61.8886  10
  -3  -7  11 124.059 51.4160   9
  -3  -7  11 157.127 66.7875   1
   3   7 -11 141.344 52.8349   8
  -3  -7  11 35.6472 37.9810   7
   3   7 -11 86.1109 43.7493   2
  -3   7  10 1824.32 186.014  10
  -3  -7  10 2226.09 187.061   9
   3   7 -10 2027.40 166.203   8
  -3  -7  10 1968.14 178.778   7
  -3  -7  10 2219.39 202.821   1
   3   7 -10 2119.74 194.395   2
  -3   7   9 204.436 79.7866  10
  -3  -7   9 154.359 60.5534   9
   3   7  -9 121.160 41.3375   8
   3  -7  -9 78.6155 38.8776   4
  -3  -7   9 226.216 63.3094   7
  -3  -7   9 180.754 59.8947   1
   3   7  -9 223.186 66.6987   2
  -3   7   8 132.977 57.1634  10
   3  -7  -8 141.808 44.2600   2
  -3  -7   8 44.2771 36.7128   9
   3   7  -8 169.844 53.1292   8
  -3  -7   8 221.641 69.1158   1
   3  -7  -8 129.344 38.7011   4
  -3  -7   8 103.402 42.1332   7
   3   7  -8 50.9770 35.6537   2
  -3   7   7 1304.44 151.116  10
  -3  -7   7 1473.33 145.747   9
   3   7  -7 1407.43 138.057   8
   3  -7  -7 1471.25 135.003   4
  -3  -7   7 1354.44 147.166   1
  -3  -7   7 1671.86 154.658   7
   3  -7  -7 1434.98 121.165   2
   3   7  -7 1433.10 154.730   2
  -3  -7   6 703.801 102.424   1
  -3   7   6 925.252 134.592  10
  -3  -7   6 829.552 112.541   9
   3   7  -6 819.883 107.976   8
   3  -7  -6 852.665 92.1318   2
   3  -7  -6 735.553 95.7220   4
  -3  -7   6 801.786 107.027   7
   3   7  -6 848.748 118.619   2
  -3   7   5 318.024 77.1588  10
   3  -7  -5 263.941 52.6502   2
  -3  -7   5 269.023 69.9164   9
   3   7  -5 205.300 60.4542   8
   3  -7  -5 204.328 53.4620   4
  -3  -7   5 301.900 68.0424   7
   3   7  -5 338.216 78.1474   2
  -3  -7   5 289.940 67.9952   1
  -3   7   4 8064.04 382.670  10
  -3  -7   4 7679.16 337.102   9
  -3  -7   4 7796.61 272.129   5
  -3  -7   4 8382.36 356.098   1
   3   7  -4 7282.21 333.727   8
   3  -7  -4 8151.48 345.024   4
   3  -7  -4 8454.66 308.096   2
  -3  -7   4 7831.49 330.271   7
   3   7  -4 7711.31 367.330   2
  -3   7   3 3512.49 240.727  10
  -3  -7   3 3190.27 207.579   9
  -3  -7   3 3542.96 220.190   1
  -3  -7   3 3232.82 164.630   5
   3   7  -3 3482.66 220.405   8
   3  -7  -3 3594.94 222.205   4
   3  -7  -3 3271.14 179.612   2
  -3  -7   3 3631.47 209.619   7
   3   7  -3 3224.12 229.679   2
  -3   7   2 344.110 81.1999  10
  -3  -7   2 450.217 74.1901   1
   3  -7  -2 380.269 59.7473   2
  -3  -7   2 467.953 81.1338   9
  -3  -7   2 377.977 52.4303   5
   3   7  -2 291.257 61.6036   8
   3   7  -2 414.594 82.2752   2
   3  -7  -2 392.224 73.2961   4
  -3  -7   2 296.635 59.0424   7
  -3   7   1 1547.41 154.202  10
  -3  -7   1 1524.21 131.809   1
  -3  -7   1 1542.15 139.291   9
  -3  -7   1 1399.50 99.6369   5
   3   7  -1 1536.60 146.864   8
   3  -7  -1 1320.88 109.996   2
   3  -7  -1 1351.61 141.898   4
  -3  -7   1 1514.13 124.505   7
   3   7  -1 1423.53 147.132   2
  -3   7   0 1038.91 128.779  10
  -3  -7   0 1102.52 87.9180   5
  -3  -7   0 918.325 105.963   9
   3   7   0 1063.89 124.512   8
   3  -7   0 1022.10 96.0853   2
   3  -7   0 1234.20 135.848   4
  -3  -7   0 1211.38 107.753   7
   3   7   0 1219.24 138.572   2
  -3   7  -1 4134.43 236.662   3
  -3   7  -1 4290.60 255.597  10
  -3  -7  -1 3912.00 217.341   9
  -3  -7  -1 4131.06 174.075   5
   3   7   1 3851.32 241.584   8
   3  -7   1 4152.18 198.083   2
   3  -7   1 3981.93 252.730   4
  -3  -7  -1 4509.59 208.878   7
   3   7   1 4487.11 260.266   2
  -3   7  -2 39.1070 45.5287  10
   3  -7   2 44.9110 22.2702   2
  -3  -7  -2 44.4504 34.8171   9
  -3   7  -2 52.7735 27.1934   3
  -3  -7  -2 1.99606 21.7086   5
   3   7   2 4.38586 32.4409   2
   3   7   2 25.7826 28.7400   8
   3  -7   2 90.8310 44.6291   4
  -3  -7  -2-4.06130 16.5965   7
  -3   7  -3 11425.2 408.036   3
  -3   7  -3 10917.2 424.481  10
  -3  -7  -3 11123.4 380.566   9
  -3  -7  -3 10995.1 310.828   5
   3   7   3 11062.1 438.078   8
   3  -7   3 10962.8 346.547   2
   3  -7   3 10729.6 454.640   4
  -3  -7  -3 11970.6 348.683   7
   3   7   3 11551.0 432.786   2
  -3   7  -4 3585.04 214.373   3
   3  -7   4 3534.18 243.631  11
  -3  -7  -4 3862.42 202.454   9
  -3  -7  -4 3656.73 153.681   5
  -3   7  -4 3877.06 222.014   5
   3   7   4 4006.31 250.671   8
   3  -7   4 3950.67 188.191   2
   3  -7   4 3640.51 256.118   4
  -3  -7  -4 3735.47 171.498   7
   3   7   4 3822.88 232.420   2
   3  -7   5 7560.80 367.871  11
  -3  -7  -5 7493.85 293.627   9
  -3  -7  -5 7696.96 238.138   5
  -3   7  -5 7499.16 315.142   5
   3   7   5 7346.70 355.349   8
   3  -7   5 7580.02 273.575   2
  -3  -7  -5 7774.52 255.150   7
   3   7   5 8236.20 344.193   2
  -3   7  -5 7654.29 320.232   3
   3  -7   6 928.391 128.974  11
  -3  -7  -6 989.358 98.1057   9
  -3  -7  -6 1145.47 81.6824   5
  -3   7  -6 1053.93 110.846   5
   3   7   6 1118.94 136.524   8
   3  -7   6 1124.59 97.2708   2
   3   7   6 1210.57 123.093   2
  -3   7  -6 1310.93 126.169   3
  -3  -7  -7 1948.45 135.835   9
  -3  -7  -7 2172.02 111.972   5
  -3   7  -7 1903.06 146.454   5
   3   7   7 2055.05 183.051   8
   3  -7   7 2006.99 130.440   2
   3   7   7 2188.57 164.986   2
  -3   7  -7 2055.28 158.159   3
  -3  -7  -8 1221.55 104.596   9
  -3  -7  -8 1146.04 79.9028   5
  -3   7  -8 1171.23 111.047   5
   3   7   8 1215.47 141.708   8
   3  -7   8 1278.95 102.358   2
   3   7   8 1158.08 116.422   2
  -3   7  -8 1220.39 120.362   3
   3  -7   9 430.439 60.0920   2
  -3   7  -9 377.716 68.5695   3
  -3  -7  -9 520.317 55.4122   5
  -3  -7  -9 458.452 63.6037   9
  -3   7  -9 333.996 57.9004   5
   3   7   9 327.727 75.6569   8
  -3  -7 -10 3347.30 167.874   9
  -3  -7 -10 3651.10 151.028   5
  -3   7 -10 3153.00 179.082   5
   3   7  10 3260.36 241.006   8
   3  -7  10 3335.45 171.758   2
  -3   7 -10 3215.73 206.216   3
   3  -7  11 208.604 42.7515   2
  -3   7 -11 208.459 55.0836   3
  -3  -7 -11 205.830 40.0473   9
  -3  -7 -11 328.267 45.8835   5
  -3   7 -11 218.570 47.5993   5
   3   7  11 209.097 59.7224   8
   3  -7  12 31.2391 24.4153   2
  -3   7 -12-31.6333 38.3696   3
  -3  -7 -12 16.7862 20.7094   9
  -3  -7 -12 35.0922 21.8599   5
  -3   7 -12 15.0258 30.8882   5
   3   7  12-43.4394 47.7733   8
  -3  -7 -13 2407.46 130.179   5
  -3   7 -13 2538.96 146.589   5
   3   7  13 2170.58 200.168   8
  -3   7 -13 2206.55 181.901   3
   3   7  14 1698.99 159.890   6
  -3  -7 -14 1182.36 93.2633   5
  -3   7 -14 1111.66 94.2962   5
   3   7  15 1750.18 163.452   6
  -3  -7 -15 1357.24 105.074   5
  -3   7 -15 1549.50 110.563   5
   3   7  16 1753.09 163.701   6
  -3  -7 -16 1471.45 114.198   5
  -3   7 -16 1459.83 107.933   5
  -3   7 -17-3.29088 18.3138   5
  -3  -8  17 440.132 118.753   1
  -3  -8  16 363.184 105.721   1
  -3   8  15 569.970 123.743  10
  -3  -8  15 313.726 96.7591   1
  -3  -8  15 683.536 126.884   7
   3   8 -15 565.698 116.466   2
  -3   8  14 32.0471 42.1498  10
  -3  -8  14 114.035 50.4760   9
  -3  -8  14 26.7475 42.1322   1
  -3  -8  14 116.052 56.6980   7
   3   8 -14 65.4552 41.1518   2
  -3   8  13 1642.08 187.535  10
  -3  -8  13 1703.26 166.829   9
  -3  -8  13 1746.69 181.864   7
  -3  -8  13 1868.54 206.451   1
   3   8 -13 1531.61 178.635   2
  -3  -8  12 103.340 55.6066   1
  -3   8  12 52.6029 50.3426  10
  -3  -8  12 184.620 61.1190   9
  -3  -8  12 184.449 65.4746   7
   3   8 -12 135.480 58.8639   2
  -3   8  11 775.650 129.669  10
  -3  -8  11 877.497 118.926   9
   3   8 -11 1000.09 121.664   8
  -3  -8  11 1063.21 137.257   7
   3   8 -11 1045.87 141.054   2
  -3  -8  11 881.170 137.241   1
  -3   8  10 116.160 66.3637  10
  -3  -8  10 137.109 54.6656   9
   3   8 -10 96.0113 42.9508   8
  -3  -8  10 89.7320 46.1456   1
  -3  -8  10 116.932 52.0197   7
   3   8 -10 99.3788 57.1827   2
  -3   8   9 2.45397 38.1666  10
  -3  -8   9 84.5716 48.3495   9
  -3  -8   9 26.8306 43.0375   1
   3   8  -9 39.4782 32.5369   8
   3  -8  -9 54.5499 39.3014   4
  -3  -8   9 21.7771 31.8035   7
   3   8  -9 31.0067 31.4517   2
  -3   8   8 65.1022 45.8239  10
  -3  -8   8 98.3332 42.3074   1
  -3  -8   8 186.013 59.3287   9
   3   8  -8 111.216 38.0648   8
   3  -8  -8 99.6619 43.9414   4
  -3  -8   8 138.201 56.2430   7
   3   8  -8 142.576 59.1144   2
  -3  -8   7 816.008 122.670   1
  -3   8   7 865.410 128.675  10
  -3  -8   7 804.486 109.710   9
   3  -8  -7 875.535 108.644   4
   3   8  -7 572.763 90.4252   8
  -3  -8   7 798.871 110.826   7
   3   8  -7 845.162 121.131   2
   3  -8  -6 617.543 76.0976   2
  -3  -8   6 810.296 106.946   9
  -3   8   6 700.052 113.870  10
   3   8  -6 600.361 92.4489   8
   3  -8  -6 800.600 104.140   4
  -3  -8   6 781.590 105.343   7
   3   8  -6 653.613 105.657   2
  -3  -8   6 740.858 115.261   1
  -3   8   5 7048.32 366.064  10
  -3  -8   5 7110.82 326.797   9
  -3  -8   5 7247.95 355.231   1
   3   8  -5 6844.05 326.458   8
   3  -8  -5 7100.90 325.915   4
   3  -8  -5 7122.59 272.652   2
  -3  -8   5 7411.27 324.997   7
   3   8  -5 7453.63 365.714   2
  -3   8   4 1822.10 178.905  10
  -3  -8   4 1840.82 157.881   9
  -3  -8   4 1763.77 166.257   1
   3   8  -4 1619.84 151.471   8
   3  -8  -4 1970.01 166.058   4
   3  -8  -4 1733.07 124.688   2
  -3  -8   4 1625.38 144.397   7
   3   8  -4 1853.13 177.642   2
  -3   8   3 11796.3 474.458  10
  -3  -8   3 11163.8 412.318   9
  -3  -8   3 11660.5 446.350   1
   3   8  -3 10689.5 423.243   8
   3  -8  -3 11189.8 357.089   2
   3  -8  -3 10862.2 428.696   4
  -3  -8   3 11107.0 398.374   7
   3   8  -3 11653.7 466.028   2
  -3   8   2 10828.0 450.063  10
  -3  -8   2 10277.9 410.447   1
  -3  -8   2 10392.7 391.657   9
   3   8  -2 9807.95 404.606   8
   3  -8  -2 10346.8 335.744   2
   3  -8  -2 10420.7 421.451   4
  -3  -8   2 11063.7 382.125   7
   3   8  -2 10716.8 441.702   2
  -3   8   1 5005.79 292.867  10
  -3  -8   1 5653.02 284.420   1
  -3  -8   1 5052.37 256.052   9
   3   8  -1 5503.77 292.173   8
   3  -8  -1 5237.82 223.790   2
   3  -8  -1 5419.29 295.695   4
  -3  -8   1 5453.67 250.051   7
   3   8  -1 5234.55 298.675   2
  -3   8   0 1120.82 129.528   3
  -3   8   0 1027.24 128.420  10
  -3  -8   0 1038.77 111.413   9
  -3  -8   0 1079.55 79.8649   5
   3   8   0 1179.78 131.091   8
   3  -8   0 1192.65 99.6872   2
  -3  -8   0 1261.70 111.317   7
   3  -8   0 1058.13 129.778   4
   3   8   0 1161.63 136.009   2
  -3   8  -1 424.540 85.3736  10
   3  -8   1 469.106 62.6231   2
  -3  -8  -1 426.676 74.0966   9
  -3   8  -1 514.199 81.2726   3
  -3  -8  -1 493.705 53.6873   5
   3   8   1 530.819 95.0298   8
   3   8   1 527.635 92.2874   2
  -3  -8  -1 658.650 79.4576   7
   3  -8   1 473.023 90.8372   4
  -3   8  -2 21.5278 31.8257  10
   3  -8   2 116.231 33.5361   2
  -3  -8  -2 113.193 46.7370   9
  -3   8  -2 146.120 50.5050   3
  -3  -8  -2 41.7423 18.5245   5
   3   8   2 112.079 52.1281   8
   3   8   2 29.4727 33.5849   2
   3  -8   2 90.0633 49.1175   4
  -3  -8  -2 74.0849 34.7220   7
  -3   8  -3 983.432 124.012  10
  -3  -8  -3 966.049 106.921   9
  -3  -8  -3 1007.81 72.3156   5
  -3   8  -3 916.039 112.289   3
   3  -8   3 954.743 88.7073   2
   3   8   3 884.758 120.401   8
  -3  -8  -3 1079.44 95.5905   7
   3   8   3 1096.35 129.761   2
   3  -8   3 1031.69 135.650   4
  -3   8  -4 4471.50 250.028   3
  -3  -8  -4 4079.21 213.674   9
  -3  -8  -4 4243.15 157.820   5
  -3   8  -4 3886.99 226.812   5
   3   8   4 3826.85 254.793   8
   3  -8   4 4322.50 195.113   2
   3  -8   4 4115.78 277.877   4
  -3  -8  -4 4379.37 194.959   7
   3   8   4 4691.79 261.700   2
   3  -8   5 21888.2 699.195  11
  -3  -8  -5 21313.7 575.614   9
  -3  -8  -5 22426.8 482.849   5
  -3   8  -5 21599.3 614.180   5
   3   8   5 21968.3 690.240   8
   3  -8   5 21858.0 541.444   2
   3  -8   5 20367.4 705.127   4
  -3  -8  -5 22739.9 538.962   7
   3   8   5 24162.9 665.010   2
  -3   8  -5 23099.6 649.713   3
   3  -8   6 1707.48 172.281  11
  -3  -8  -6 2090.30 144.956   9
  -3  -8  -6 1926.30 101.323   5
  -3   8  -6 1851.31 147.690   5
   3   8   6 1776.14 176.088   8
   3  -8   6 1885.06 124.224   2
   3  -8   6 1687.21 185.528   4
   3   8   6 2045.93 163.232   2
  -3   8  -6 1855.28 158.016   3
   3  -8   7 1058.20 144.060  11
  -3  -8  -7 1280.11 110.230   9
  -3  -8  -7 1333.03 82.9875   5
  -3   8  -7 1183.03 114.201   5
   3   8   7 1240.01 148.139   8
   3  -8   7 1235.44 101.473   2
  -3   8  -7 1290.11 130.623   3
   3  -8   8 1303.89 157.070  11
  -3  -8  -8 1467.79 114.983   9
  -3  -8  -8 1481.50 88.6101   5
  -3   8  -8 1385.10 122.277   5
   3   8   8 1537.24 164.440   8
   3  -8   8 1380.28 107.060   2
  -3   8  -8 1221.22 127.285   3
   3  -8   9 107.422 36.7674   2
  -3   8  -9 164.973 51.0196   3
  -3  -8  -9 87.9573 32.6145   9
  -3  -8  -9 102.718 25.7508   5
  -3   8  -9 57.5471 30.3001   5
   3   8   9 148.306 61.7205   8
  -3   8 -10 386.245 75.5649   3
  -3  -8 -10 431.172 62.2887   9
   3  -8  10 547.388 68.5313   2
  -3  -8 -10 353.862 46.6135   5
  -3   8 -10 387.383 61.9169   5
   3   8  10 566.076 106.504   8
   3  -8  11 411.054 61.9319   2
  -3   8 -11 282.492 67.4868   3
  -3  -8 -11 305.174 50.9866   9
  -3  -8 -11 306.318 44.3638   5
  -3   8 -11 298.910 58.0667   5
   3   8  11 375.967 88.7903   8
  -3   8 -12-0.71138 28.6505   3
  -3  -8 -12-14.4827 20.0882   9
  -3  -8 -12 37.6132 23.0173   5
  -3   8 -12 1.59028 19.8192   5
  -3  -8 -13 2942.21 146.750   5
  -3   8 -13 2980.30 158.834   5
  -3   8 -13 2768.73 211.498   3
   3   8  14 741.948 108.417   6
  -3   8 -14 459.295 91.5733   3
  -3  -8 -14 565.150 65.7569   5
  -3   8 -14 522.871 65.1801   5
   3   8  15 1763.32 168.930   6
  -3  -8 -15 1557.76 114.405   5
  -3   8 -15 1583.03 110.761   5
  -3  -8 -16 1462.59 115.775   5
  -3  -9  16 225.701 78.6607   1
  -3  -9  15 261.142 90.9372   1
  -3  -9  14 49.5176 41.9747   1
  -3   9  14 43.1473 54.3795  10
  -3  -9  14 127.691 51.7504   7
   3   9 -14 40.5950 35.0716   2
  -3   9  13 105.848 61.1647  10
  -3  -9  13 202.078 64.0782   9
  -3  -9  13 142.929 62.6982   7
  -3  -9  13 4.52831 51.2804   1
   3   9 -13 151.341 64.3590   2
  -3   9  12 842.938 140.622  10
  -3  -9  12 911.265 121.788   9
  -3  -9  12 960.859 149.982   1
  -3  -9  12 865.502 124.058   7
   3   9 -12 761.910 129.048   2
  -3   9  11 3012.77 255.640  10
  -3  -9  11 3767.75 243.076   9
   3   9 -11 3173.11 224.517   8
  -3  -9  11 3206.91 269.765   1
  -3  -9  11 3539.64 249.397   7
   3   9 -11 3236.82 259.384   2
  -3   9  10 7808.26 413.748  10
  -3  -9  10 7778.93 357.142   9
   3   9 -10 7292.07 349.817   8
  -3  -9  10 7402.73 413.151   1
  -3  -9  10 7725.00 375.204   7
   3   9 -10 8058.59 410.223   2
  -3   9   9 2159.65 207.959  10
  -3  -9   9 1941.03 170.537   9
   3   9  -9 1799.14 166.283   8
   3  -9  -9 1969.67 168.893   4
  -3  -9   9 1961.85 204.446   1
  -3  -9   9 2181.37 186.806   7
   3   9  -9 1898.17 196.750   2
  -3  -9   8-1.62090 41.1699   1
  -3   9   8 185.531 72.4892  10
  -3  -9   8 133.898 46.2000   9
   3   9  -8 117.599 44.2229   8
   3  -9  -8 162.443 54.3314   4
  -3  -9   8 254.275 68.7708   7
   3   9  -8 39.8931 37.3561   2
  -3   9   7 158.648 74.4224  10
  -3  -9   7 34.8320 34.3700   9
   3   9  -7 117.905 41.4377   8
   3  -9  -7 66.0134 39.9713   4
  -3  -9   7 109.570 45.2576   7
   3   9  -7 106.099 45.9003   2
  -3  -9   7 85.0635 55.0438   1
  -3   9   6 1865.56 188.545  10
  -3  -9   6 1998.61 162.916   9
  -3  -9   6 2040.16 195.594   1
   3   9  -6 1986.79 172.824   8
   3  -9  -6 2180.29 179.222   4
  -3  -9   6 1866.93 162.861   7
   3   9  -6 1825.10 182.344   2
  -3  -9   5 898.948 110.897   9
   3   9  -5 777.272 110.775   8
  -3  -9   5 989.529 134.617   1
  -3   9   5 771.637 117.698  10
  -3  -9   5 1027.14 116.909   7
   3  -9  -5 902.880 117.153   4
   3   9  -5 859.934 123.264   2
  -3   9   4 453.024 96.4300  10
   3  -9  -4 485.405 61.7811   2
  -3  -9   4 535.442 82.7848   9
  -3  -9   4 565.359 100.322   1
   3   9  -4 345.920 73.3082   8
   3  -9  -4 535.523 91.3596   4
  -3  -9   4 542.727 86.0152   7
   3   9  -4 450.976 93.8992   2
  -3   9   3-24.6863 40.1342  10
   3  -9  -3 32.1669 21.9522   2
  -3  -9   3 31.6801 30.8560   1
  -3  -9   3 73.8804 41.6580   9
   3   9  -3 61.9665 43.5838   8
   3  -9  -3-8.16983 33.0231   4
   3   9  -3-34.9799 34.8692   2
  -3  -9   3 29.3756 28.3100   7
  -3   9   2 2048.40 191.411  10
  -3  -9   2 1892.08 173.306   1
  -3  -9   2 2043.50 159.856   9
   3   9  -2 1718.67 162.562   8
   3  -9  -2 1805.59 120.806   2
   3  -9  -2 1915.83 176.482   4
  -3  -9   2 1957.42 152.328   7
   3   9  -2 2320.01 200.790   2
  -3   9   1 3257.06 238.369  10
  -3   9   1 3375.47 239.704   3
  -3  -9   1 3186.57 203.177   9
   3   9  -1 3195.82 225.770   8
   3  -9  -1 3155.43 163.250   2
   3  -9  -1 3072.08 228.669   4
  -3  -9   1 4036.61 214.741   7
   3   9  -1 3778.88 253.741   2
  -3   9   0 2924.38 219.091   3
  -3   9   0 2891.46 220.159  10
  -3  -9   0 2596.77 179.042   9
   3   9   0 2969.40 217.483   8
   3  -9   0 2858.43 153.231   2
   3  -9   0 2850.70 219.547   4
  -3  -9   0 3028.94 180.457   7
   3   9   0 3074.01 227.253   2
  -3   9  -1 1348.35 147.482   3
  -3   9  -1 1090.74 134.298  10
  -3  -9  -1 1172.58 118.909   9
   3  -9   1 1159.68 96.0902   2
   3   9   1 1014.19 129.226   8
   3  -9   1 1190.69 144.862   4
  -3  -9  -1 1245.51 113.442   7
   3   9   1 1111.90 136.545   2
  -3   9  -2 11577.1 449.827   3
  -3   9  -2 10722.5 439.189  10
  -3  -9  -2 10601.8 381.236   9
   3   9   2 10412.4 440.389   8
   3  -9   2 10754.4 333.002   2
   3  -9   2 10568.1 459.605   4
  -3  -9  -2 11584.4 369.802   7
   3   9   2 11739.5 458.303   2
  -3   9  -3 4829.66 274.769   3
  -3   9  -3 4780.45 277.272  10
  -3  -9  -3 4689.18 235.943   9
  -3   9  -3 4155.29 241.207   5
   3   9   3 4435.52 277.271   8
   3  -9   3 4700.01 202.228   2
   3  -9   3 4862.78 303.564   4
  -3  -9  -3 4783.48 218.616   7
   3   9   3 5151.67 287.398   2
  -3   9  -4 1473.70 146.228   3
  -3  -9  -4 1514.10 126.569   9
  -3   9  -4 1191.52 125.122   5
   3   9   4 1293.72 147.938   8
   3  -9   4 1417.48 105.588   2
   3  -9   4 1330.49 158.712   4
  -3  -9  -4 1352.96 109.885   7
   3   9   4 1307.66 140.049   2
  -3  -9  -5 8111.70 312.913   9
  -3  -9  -5 8282.56 228.766   5
  -3   9  -5 8136.63 336.617   5
   3   9   5 8170.01 393.909   8
   3  -9   5 8461.26 283.419   2
   3  -9   5 8491.06 421.170   4
  -3   9  -5 7975.76 360.465   3
  -3  -9  -6 1317.05 115.161   9
  -3  -9  -6 1190.14 75.5888   5
  -3   9  -6 1176.19 118.375   5
   3  -9   6 1309.31 102.129   2
   3   9   6 1219.93 150.077   8
   3  -9   6 1106.79 150.374   4
  -3   9  -6 1349.51 140.482   3
   3  -9   7 621.270 110.242  11
  -3  -9  -7 1172.72 106.015   9
  -3  -9  -7 931.137 67.1277   5
  -3   9  -7 915.921 102.940   5
   3  -9   7 956.655 87.6216   2
   3   9   7 902.585 127.924   8
   3  -9   7 864.660 133.944   4
  -3   9  -7 968.799 118.853   3
   3  -9   8-7.35178 36.4465  11
   3  -9   8 100.138 31.6407   2
  -3   9  -8 96.1682 44.5642   3
  -3  -9  -8 99.1349 29.9966   9
  -3  -9  -8 94.2675 23.5296   5
  -3   9  -8 121.344 46.3604   5
   3   9   8 104.732 49.0239   8
   3  -9   8 99.2707 59.5714   4
   3  -9   9 404.094 58.5284   2
   3  -9   9 234.393 74.7288  11
  -3   9  -9 392.099 80.3356   3
  -3  -9  -9 349.976 57.9671   9
  -3  -9  -9 353.958 43.7741   5
  -3   9  -9 231.512 48.2296   5
   3   9   9 324.254 82.5656   8
   3  -9   9 462.382 101.075   4
   3  -9  10 2202.28 212.881  11
  -3  -9 -10 1949.86 133.155   9
  -3  -9 -10 2375.16 120.512   5
  -3   9 -10 2166.23 144.268   5
   3  -9  10 2467.28 147.071   2
   3   9  10 2459.45 219.118   8
  -3   9 -10 2228.31 186.055   3
  -3   9 -11 27.1267 29.3936   3
  -3  -9 -11 97.2710 34.9462   9
  -3  -9 -11 55.2191 23.8171   5
  -3   9 -11 107.932 34.0852   5
   3   9  11 24.7282 40.5394   8
  -3  -9 -12 3934.26 169.880   5
  -3  -9 -12 3779.82 183.454   9
  -3   9 -12 3623.62 180.891   5
   3   9  12 3849.01 278.766   8
  -3   9 -12 3894.13 257.194   3
  -3   9 -13 30.1158 45.5320   3
  -3  -9 -13 29.2788 23.0614   9
  -3  -9 -13 38.7607 24.6052   5
   3   9  14 476.316 88.1729   6
  -3   9 -14 347.148 82.3617   3
  -3  -9 -14 471.385 63.9994   5
   3   9  15 344.503 78.3144   6
  -3   9 -15 446.330 98.0103   3
  -3  -9 -15 309.621 54.8865   5
  -3 -10  15 124.507 68.7834   1
  -3  10  14 286.270 98.3092  10
  -3 -10  14 274.066 88.4914   1
  -3  10  13 227.162 90.3725  10
  -3 -10  13 182.037 64.9442   9
  -3 -10  13 82.4886 43.9057   1
  -3 -10  13 75.5227 47.9754   7
   3  10 -13 89.7681 53.1359   2
  -3  10  12 1240.76 170.879  10
  -3 -10  12 1242.27 138.260   9
  -3 -10  12 1167.55 172.835   1
  -3 -10  12 1181.37 148.554   7
   3  10 -12 1038.58 151.845   2
  -3  10  11 1494.84 181.052  10
  -3 -10  11 1519.87 152.428   9
   3  10 -11 1743.23 169.481   8
  -3 -10  11 1580.40 202.397   1
  -3 -10  11 1476.36 164.223   7
   3  10 -11 1701.66 193.035   2
  -3  10  10 268.605 79.8648  10
  -3 -10  10 324.728 96.1166   1
  -3 -10  10 381.566 79.2330   9
   3  10 -10 251.750 70.7300   8
  -3 -10  10 381.234 86.4622   7
   3  10 -10 277.490 84.1446   2
  -3  10   9 1702.12 194.313  10
  -3 -10   9 1854.62 163.232   9
   3  10  -9 1623.00 164.665   8
  -3 -10   9 1465.53 189.113   1
   3 -10  -9 1826.74 170.663   4
  -3 -10   9 1867.03 176.914   7
   3  10  -9 1693.07 186.458   2
  -3  10   8 97.8336 63.8847  10
  -3 -10   8 104.752 46.9381   9
   3  10  -8 29.5610 31.3852   8
   3 -10  -8 201.667 59.8825   4
  -3 -10   8 206.890 68.7671   7
  -3 -10   8 128.102 64.5807   1
   3  10  -8 93.7363 60.7295   2
  -3  10   7 371.808 84.4891  10
  -3 -10   7 483.518 89.6812   9
   3  10  -7 381.840 78.4308   8
   3 -10  -7 461.330 87.4354   4
  -3 -10   7 402.758 93.8066   1
  -3 -10   7 612.282 98.1735   7
   3  10  -7 322.708 79.6257   2
  -3  10   6 658.191 119.328  10
  -3 -10   6 734.770 104.435   9
   3  10  -6 480.538 89.6319   8
  -3 -10   6 614.985 110.681   1
   3 -10  -6 621.108 100.377   4
  -3 -10   6 608.614 96.7096   7
   3  10  -6 709.759 117.707   2
  -3  10   5 1124.23 148.277  10
  -3 -10   5 956.298 110.767   9
  -3 -10   5 1094.31 146.932   1
   3 -10  -5 1152.20 135.573   4
   3  10  -5 881.234 118.750   8
  -3 -10   5 987.076 116.634   7
   3  10  -5 1021.08 139.022   2
  -3  10   4 632.689 116.532  10
  -3 -10   4 379.951 93.6142   1
  -3 -10   4 435.446 79.5009   9
   3  10  -4 340.535 78.6973   8
   3 -10  -4 419.886 84.0556   4
  -3 -10   4 484.005 81.5136   7
   3  10  -4 428.501 94.4029   2
  -3  10   3 5939.43 341.722  10
  -3 -10   3 5859.21 333.691   1
  -3 -10   3 5567.16 278.429   9
   3  10  -3 4978.25 290.959   8
   3 -10  -3 5709.26 315.288   4
  -3 -10   3 5850.45 282.726   7
   3  10  -3 5760.99 330.324   2
  -3  10   2 4455.97 288.173  10
  -3  10   2 4416.51 292.197   3
  -3 -10   2 4574.22 288.659   1
  -3 -10   2 4002.01 230.322   9
   3  10  -2 4105.01 261.855   8
   3 -10  -2 3939.37 177.929   2
   3 -10  -2 4216.84 271.010   4
  -3 -10   2 4516.04 240.375   7
   3  10  -2 4741.07 293.485   2
  -3  10   1 2518.25 218.760   3
  -3  10   1 2282.08 204.636  10
  -3 -10   1 2361.96 172.575   9
   3  10  -1 2138.12 189.881   8
   3 -10  -1 2415.84 134.636   2
   3 -10  -1 2373.59 204.549   4
  -3 -10   1 2467.83 171.684   7
   3  10  -1 2204.42 198.930   2
  -3  10   0 7642.69 382.090   3
  -3  10   0 7157.61 362.489  10
  -3 -10   0 7346.03 313.557   9
   3  10   0 6574.42 345.805   8
   3 -10   0 7417.65 256.946   2
   3 -10   0 7180.13 370.537   4
  -3 -10   0 7420.13 304.182   7
   3  10   0 7799.47 380.461   2
   3 -10   1 400.654 54.1986   2
  -3  10  -1 235.520 72.5895  10
  -3 -10  -1 358.778 67.8372   9
  -3  10  -1 437.251 86.3681   3
   3  10   1 349.429 78.5400   8
   3  10   1 339.649 74.0797   2
   3 -10   1 279.359 76.1832   4
  -3 -10  -1 389.756 68.7436   7
   3 -10   2 109.901 32.2326   2
  -3  10  -2 143.806 55.8370  10
  -3 -10  -2 130.374 45.8841   9
  -3  10  -2 164.596 56.6203   3
   3  10   2 40.9106 29.1687   8
   3  10   2 104.250 52.8566   2
   3 -10   2 85.6266 49.4946   4
  -3 -10  -2 80.0614 32.7741   7
  -3  10  -3 1179.58 139.217   3
  -3  10  -3 1110.82 134.877  10
  -3 -10  -3 850.942 100.239   9
   3 -10   3 999.306 86.0652   2
  -3  10  -3 893.712 111.935   5
   3  10   3 953.476 130.956   8
  -3 -10  -3 1058.44 103.264   7
   3 -10   3 854.835 130.426   4
  -3  10  -4 3939.46 256.861   3
  -3 -10  -4 3948.43 213.018   9
  -3  10  -4 4017.70 233.156   5
   3 -10   4 3802.84 178.123   2
   3  10   4 4036.10 272.602   8
   3 -10   4 3932.85 280.740   4
  -3 -10  -4 4182.33 206.730   7
   3 -10   5 435.947 58.5723   2
  -3  10  -5 447.526 87.6422   3
  -3 -10  -5 523.786 77.1769   9
  -3  10  -5 370.810 71.8969   5
   3  10   5 311.783 82.7877   8
   3 -10   5 479.412 105.161   4
  -3 -10  -6 1356.41 119.709   9
  -3  10  -6 1605.88 137.086   5
   3 -10   6 1648.41 114.178   2
   3  10   6 1535.98 169.393   8
   3 -10   6 1502.35 175.283   4
  -3  10  -6 1588.59 160.245   3
   3 -10   7 6.03239 13.4189   2
  -3  10  -7 86.6846 45.8241   3
  -3 -10  -7 51.3911 35.8863   9
  -3  10  -7 63.5313 33.5564   5
   3  10   7 45.0715 38.7205   8
   3 -10   7 19.2541 48.1111   4
   3 -10   8 686.061 120.108  11
  -3  10  -8 738.429 109.994   3
  -3 -10  -8 693.135 83.6796   9
   3 -10   8 611.707 70.2639   2
  -3  10  -8 649.545 83.6324   5
   3  10   8 521.981 109.190   8
   3 -10   8 616.510 120.430   4
   3 -10   9 1062.48 145.035  11
  -3 -10  -9 1106.13 101.560   9
   3  10   9 1037.05 148.063   8
   3 -10   9 1019.09 157.723   4
  -3  10  -9 1161.62 139.016   3
   3 -10  10 545.169 108.022  11
  -3  10 -10 522.642 93.2418   3
  -3 -10 -10 547.967 70.5312   9
   3  10  10 679.584 122.542   8
   3 -10  10 433.742 106.600   4
   3 -10  11 52.1777 48.1819  11
  -3  10 -11 26.0061 34.9672   3
  -3 -10 -11 61.1640 34.0875   9
   3  10  11 80.5451 52.2693   8
   3 -10  11 54.2938 55.6538   4
   3 -10  12 3483.91 283.096  11
  -3 -10 -12 4072.66 194.939   9
   3  10  12 4075.16 295.815   8
   3 -10  12 3554.07 307.124   4
  -3  10 -12 3540.18 254.112   3
   3 -10  13 5890.68 376.679  11
  -3 -10 -13 5937.91 241.885   9
   3 -10  13 5658.61 398.097   4
  -3  10 -13 5925.83 341.321   3
   3 -10  14 860.352 149.432  11
   3  10  14 1124.98 142.883   6
  -3  10 -14 867.994 130.428   3
   3 -10  14 764.163 152.591   4
  -3  10 -15 68.5769 48.5231   3
  -3 -10 -15-14.1581 32.1904   5
  -3 -11  13 433.817 115.545   1
  -3  11  12-0.99457 52.1106  10
  -3 -11  12-73.3148 48.2233   9
  -3 -11  12 18.7206 40.3023   7
   3  11 -12 62.4481 59.9935   2
  -3 -11  11 1212.51 181.033   1
  -3  11  11 1023.40 156.784  10
  -3 -11  11 1200.62 134.244   9
   3  11 -11 1135.51 141.896   8
  -3 -11  11 1353.18 157.792   7
   3  11 -11 1114.99 158.477   2
  -3  11  10 9788.58 495.473  10
  -3 -11  10 10468.9 415.168   9
   3  11 -10 9972.21 439.420   8
  -3 -11  10 9889.36 520.655   1
  -3 -11  10 11269.2 465.543   7
   3  11 -10 8943.45 464.490   2
  -3  11   9 261.111 92.0312  10
  -3 -11   9 349.935 72.6384   9
   3  11  -9 354.508 78.4786   8
  -3 -11   9 264.008 72.4063   7
  -3 -11   9 177.680 71.6493   1
   3  11  -9 346.376 94.5902   2
  -3  11   8 3121.00 266.994  10
  -3 -11   8 3154.34 216.545   9
  -3 -11   8 3690.93 296.822   1
   3  11  -8 3187.18 236.107   8
   3 -11  -8 3485.53 246.742   4
  -3 -11   8 3778.83 249.552   7
   3  11  -8 3271.21 264.154   2
  -3  11   7 126.970 58.0147  10
  -3 -11   7 197.161 53.1252   9
   3  11  -7 167.755 56.7175   8
  -3 -11   7 150.269 56.0451   1
   3 -11  -7 148.818 57.7418   4
  -3 -11   7 167.151 55.4963   7
   3  11  -7 137.681 64.1741   2
  -3  11   6 168.771 67.6465  10
  -3 -11   6 122.995 48.0535   9
  -3 -11   6 151.075 60.9386   1
   3  11  -6 172.192 59.2045   8
   3 -11  -6 189.414 57.2240   4
  -3 -11   6 266.900 65.5234   7
   3  11  -6 86.5350 53.4370   2
  -3  11   5 320.234 88.3611  10
  -3 -11   5 280.407 63.4647   9
  -3 -11   5 285.597 83.0487   1
   3  11  -5 367.006 80.5395   8
   3 -11  -5 334.634 80.6330   4
  -3 -11   5 308.309 71.1627   7
   3  11  -5 329.110 83.3385   2
  -3  11   4 2348.65 218.934  10
  -3 -11   4 2253.23 218.750   1
  -3 -11   4 2366.20 179.628   9
   3  11  -4 2203.45 193.089   8
   3 -11  -4 2168.41 196.257   4
  -3 -11   4 2346.45 182.943   7
   3  11  -4 2199.22 206.156   2
  -3  11   3 3577.59 279.285   3
  -3  11   3 3639.61 272.265  10
  -3 -11   3 2997.05 246.520   1
  -3 -11   3 3202.03 205.607   9
   3  11  -3 2822.41 223.783   8
   3 -11  -3 2928.17 229.043   4
  -3 -11   3 3346.21 214.430   7
   3  11  -3 3303.32 253.101   2
  -3 -11   2 1112.54 147.168   1
  -3  11   2 1138.59 148.648  10
  -3 -11   2 1211.36 126.161   9
  -3  11   2 1225.08 161.701   3
   3  11  -2 1277.95 149.021   8
  -3 -11   2 1276.02 128.069   7
   3 -11  -2 910.882 133.927   4
   3  11  -2 871.932 130.373   2
  -3  11   1 164.245 65.2642  10
  -3 -11   1 195.570 57.5636   9
  -3  11   1 249.706 74.8945   3
   3  11  -1 193.265 69.6837   8
   3  11  -1 215.339 68.0068   2
   3 -11  -1 139.814 58.4138   4
  -3 -11   1 181.555 52.6112   7
  -3  11   0 741.768 118.024  10
  -3 -11   0 564.431 84.5660   9
  -3  11   0 615.884 111.018   3
   3 -11   0 597.841 64.4755   2
   3  11   0 715.926 112.568   8
   3  11   0 729.844 115.007   2
   3 -11   0 820.896 127.580   4
  -3 -11   0 597.735 87.9798   7
  -3  11  -1 410.935 86.3179  10
  -3 -11  -1 531.183 83.0755   9
  -3  11  -1 595.849 108.287   3
   3 -11   1 537.735 61.5416   2
   3  11   1 497.320 95.8203   8
   3 -11   1 489.959 99.7929   4
  -3 -11  -1 534.475 81.2940   7
  -3  11  -2 2244.95 204.585   3
  -3  11  -2 2283.81 197.302  10
  -3 -11  -2 2233.26 163.882   9
   3 -11   2 2124.85 124.331   2
   3  11   2 2018.29 191.690   8
   3 -11   2 2145.79 205.076   4
  -3 -11  -2 2286.32 162.781   7
   3 -11   3 19.9419 14.2371   2
  -3  11  -3 54.1022 39.6107   3
  -3 -11  -3 69.8137 41.8489   9
  -3  11  -3 1.11879 37.7319   5
   3  11   3 83.0014 51.0007   8
   3 -11   3 3.83636 37.4698   4
  -3 -11  -3 35.1605 25.3174   7
   3 -11   4 274.727 45.9126   2
  -3  11  -4 294.212 78.6627   3
  -3 -11  -4 254.383 57.0482   9
  -3  11  -4 124.130 43.6842   5
   3  11   4 109.575 57.9981   8
   3 -11   4 284.064 80.6695   4
  -3 -11  -4 312.371 56.6214   7
  -3  11  -5 564.388 101.507   3
  -3 -11  -5 564.267 79.2653   9
   3 -11   5 498.281 61.5929   2
   3  11   5 409.463 85.5399   8
   3 -11   5 446.547 105.489   4
   3 -11   6 453.873 62.1377   2
  -3  11  -6 378.519 88.1130   3
  -3 -11  -6 336.444 62.6885   9
   3  11   6 438.116 101.106   8
   3 -11   6 301.131 88.5553   4
  -3  11  -7 29.1974 31.1594   3
  -3 -11  -7 42.6830 27.0066   9
   3  11   7 13.7978 47.3063   8
   3 -11   7 14.7099 40.4326   4
  -3  11  -8 856.178 119.682   3
  -3 -11  -8 685.336 83.9645   9
   3  11   8 701.019 124.584   8
   3 -11   8 853.558 144.118   4
  -3  11  -9-9.52924 32.0199   3
  -3 -11  -9 32.2387 26.1533   9
   3  11   9 69.9779 46.2191   8
   3 -11   9 46.4749 43.1853   4
  -3 -11 -10 967.967 97.6687   9
  -3  11 -10 1194.85 149.297   3
   3  11  10 1462.33 179.927   8
   3 -11  10 1191.41 171.301   4
   3 -11  11 4045.30 300.761  11
  -3 -11 -11 4712.44 218.283   9
   3  11  11 4147.17 309.625   8
   3 -11  11 3815.22 316.911   4
  -3  11 -11 4726.78 299.607   3
   3 -11  12 6891.39 409.671  11
  -3 -11 -12 7828.73 288.806   9
   3 -11  12 6990.76 440.785   4
  -3  11 -12 7632.27 393.962   3
   3 -11  13 441.545 99.9507  11
  -3  11 -13 473.742 97.0571   3
  -3 -11 -13 536.929 71.9024   9
   3  11  13 858.592 125.550   6
   3 -11  14 633.505 131.454  11
  -3 -12  12 1189.87 188.071   1
  -3  12  11 3864.52 313.867  10
  -3 -12  11 3622.07 231.719   9
   3  12 -11 3146.36 244.184   8
  -3 -12  11 3799.00 330.356   1
   3  12 -11 3152.93 273.182   2
  -3  12  10 127.036 76.3036  10
  -3 -12  10 204.549 55.0031   9
   3  12 -10 114.295 57.3068   8
  -3 -12  10 193.009 82.5909   1
  -3 -12  10 105.566 50.2632   7
   3  12 -10 134.855 62.2088   2
  -3  12   9 550.436 120.345  10
  -3 -12   9 568.496 92.9754   9
   3  12  -9 437.829 92.5463   8
  -3 -12   9 499.669 114.548   1
  -3 -12   9 520.742 103.140   7
   3  12  -9 502.510 105.567   2
  -3  12   8 174.320 68.1534  10
  -3 -12   8 123.883 51.4358   9
   3  12  -8 208.167 68.1210   8
  -3 -12   8 153.004 65.2769   1
   3 -12  -8 116.527 53.3836   4
  -3 -12   8 204.602 64.8560   7
   3  12  -8 245.085 81.1628   2
  -3  12   7 324.975 96.4913  10
  -3 -12   7 357.122 73.0178   9
  -3 -12   7 366.653 97.6756   1
   3  12  -7 297.508 74.3751   8
   3 -12  -7 328.348 78.7978   4
  -3 -12   7 452.540 93.8293   7
   3  12  -7 269.963 73.8079   2
  -3  12   6 246.316 77.0226  10
  -3 -12   6 201.855 55.7174   9
  -3 -12   6 270.783 82.7487   1
   3  12  -6 233.443 64.8646   8
   3 -12  -6 116.596 47.4400   4
  -3 -12   6 294.819 74.9935   7
   3  12  -6 187.864 65.6689   2
  -3  12   5 43.1455 59.3200  10
  -3 -12   5 128.663 68.2168   1
  -3 -12   5 118.668 42.3592   9
   3  12  -5-11.7147 39.2365   8
   3 -12  -5 9.67114 32.7422   4
  -3 -12   5 2.15134 32.5382   7
   3  12  -5-9.12195 33.1078   2
  -3  12   4 492.539 110.898  10
  -3 -12   4 509.527 108.980   1
  -3 -12   4 660.909 95.8308   9
  -3  12   4 788.427 141.645   3
   3  12  -4 577.758 104.289   8
   3 -12  -4 645.153 109.808   4
   3  12  -4 553.123 104.138   2
  -3 -12   4 659.196 98.7299   7
  -3  12   3 1508.07 188.635   3
  -3 -12   3 1326.16 171.172   1
  -3  12   3 1524.77 180.970  10
  -3 -12   3 1723.71 151.257   9
   3  12  -3 1549.59 169.023   8
   3 -12  -3 1507.21 167.931   4
  -3 -12   3 1794.81 161.183   7
   3  12  -3 1539.75 174.564   2
  -3  12   2 1994.98 216.142   3
  -3  12   2 1815.82 194.008  10
  -3 -12   2 1729.28 150.206   9
   3  12  -2 1657.65 173.873   8
   3 -12  -2 1907.00 190.581   4
  -3 -12   2 1635.49 150.174   7
   3  12  -2 2171.21 205.266   2
  -3  12   1 3275.80 270.506   3
  -3  12   1 3246.45 253.571  10
  -3 -12   1 3063.27 198.889   9
   3  12  -1 2551.57 219.093   8
   3 -12  -1 3007.00 244.034   4
  -3 -12   1 3282.03 212.453   7
  -3  12   0 287.278 76.5573  10
  -3 -12   0 398.021 75.8402   9
  -3  12   0 375.970 100.091   3
   3  12   0 277.392 71.5653   8
   3 -12   0 403.315 91.6073   4
  -3 -12   0 355.790 68.3088   7
  -3  12  -1 1122.47 145.284  10
  -3 -12  -1 1135.37 118.744   9
  -3  12  -1 1197.13 158.338   3
   3  12   1 1004.92 138.926   8
  -3 -12  -1 1102.45 118.291   7
   3 -12   1 1013.21 140.642   4
  -3  12  -2 2031.19 203.614   3
  -3  12  -2 2100.93 192.947  10
  -3 -12  -2 2198.61 161.363   9
   3 -12   2 2095.46 122.318   2
   3  12   2 1936.17 193.893   8
   3 -12   2 2219.22 214.204   4
  -3 -12  -2 1916.43 154.650   7
  -3  12  -3 1256.21 162.991   3
  -3 -12  -3 1231.33 120.893   9
   3 -12   3 1217.68 93.7003   2
   3  12   3 903.270 136.084   8
  -3 -12  -3 1324.67 128.667   7
   3 -12   3 1062.12 153.924   4
  -3  12  -4 62.7928 54.3338   3
  -3 -12  -4 73.6726 38.0350   9
   3  12   4 99.6247 49.3934   8
   3 -12   4 115.838 56.4666   4
  -3 -12  -4 216.989 55.8357   7
  -3  12  -5 886.057 135.334   3
  -3 -12  -5 851.281 97.5955   9
   3  12   5 711.971 118.294   8
   3 -12   5 684.003 125.833   4
  -3  12  -6 620.707 111.832   3
  -3 -12  -6 416.021 67.9307   9
   3  12   6 422.306 95.0504   8
   3 -12   6 307.257 89.0522   4
  -3  12  -7 208.244 72.9797   3
  -3 -12  -7 198.066 46.3760   9
   3  12   7 190.799 69.4476   8
   3 -12   7 186.470 72.2961   4
  -3  12  -8-3.39254 33.0019   3
  -3 -12  -8 24.4435 26.9747   9
   3  12   8 17.3177 37.3450   8
   3 -12   8-55.5738 64.1458   4
  -3 -12  -9 1061.29 104.738   9
  -3  12  -9 1153.89 149.928   3
   3  12   9 1074.18 153.182   8
   3 -12   9 932.776 155.303   4
  -3 -12 -10 1853.41 137.892   9
   3  12  10 1890.01 212.825   8
   3 -12  10 1406.59 189.835   4
  -3  12 -10 1763.80 188.603   3
  -3 -12 -11 1856.11 137.809   9
   3  12  11 1987.82 217.998   8
  -3  12 -11 1720.97 188.578   3
   3  13 -11 1394.79 167.485   8
  -3  13  10 1059.00 169.212  10
  -3 -13  10 1125.86 128.088   9
   3  13 -10 1019.71 143.972   8
  -3 -13  10 994.781 170.546   1
  -3  13   9 165.653 76.9123  10
  -3 -13   9 120.784 45.9284   9
  -3 -13   9 20.3251 60.9168   1
   3  13  -9 160.015 62.5239   8
   3  13  -9 96.9745 36.6280   2
  -3  13   8-65.2000 62.5587  10
  -3 -13   8 39.6437 39.9668   9
  -3 -13   8 21.4094 49.6816   1
   3  13  -8 71.6983 36.0463   8
  -3 -13   8-4.18815 37.5832   7
   3  13  -8-27.9625 53.8585   2
  -3  13   7 7.81982 48.9516  10
  -3 -13   7 119.130 50.7322   9
  -3 -13   7 93.1533 51.7329   1
   3  13  -7 148.263 55.2301   8
   3 -13  -7 70.1541 47.5010   4
  -3 -13   7 141.272 58.0531   7
   3  13  -7 128.657 61.1687   2
  -3  13   6 1112.35 160.912  10
  -3 -13   6 807.546 145.898   1
  -3 -13   6 756.616 105.179   9
  -3  13   6 1197.06 190.029   3
   3  13  -6 944.935 140.934   8
   3 -13  -6 902.527 135.700   4
  -3 -13   6 959.407 127.945   7
   3  13  -6 773.655 133.411   2
  -3  13   5 499.038 113.088  10
  -3 -13   5 379.047 97.5438   1
  -3 -13   5 525.056 88.3893   9
  -3  13   5 292.448 93.1032   3
   3  13  -5 391.199 88.4238   8
   3 -13  -5 570.696 107.787   4
  -3 -13   5 483.743 90.3681   7
   3  13  -5 372.823 90.1784   2
  -3 -13   4-18.1367 55.2015   1
  -3  13   4 17.3058 42.7037  10
  -3 -13   4 74.0582 31.2052   9
  -3  13   4 65.2133 65.0867   3
   3  13  -4-22.7778 37.1176   8
   3 -13  -4-6.36836 36.8829   4
   3  13  -4-45.2753 50.4812   2
  -3 -13   4-35.9095 29.6451   7
  -3  13   3 4318.13 332.942   3
  -3  13   3 3939.63 297.652  10
  -3 -13   3 3560.02 219.042   9
   3  13  -3 3123.38 248.627   8
   3 -13  -3 3704.78 274.755   4
  -3 -13   3 3677.72 240.010   7
  -3  13   2 72.0909 39.6859  10
  -3 -13   2 80.2549 52.3299   9
  -3  13   2 111.766 71.7988   3
   3  13  -2-9.01084 39.0673   8
   3 -13  -2-36.7263 39.7814   4
  -3 -13   2 65.9167 48.2921   7
  -3  13   1 43.3695 46.6100  10
  -3 -13   1 83.8392 42.4522   9
  -3  13   1 29.2880 40.3956   3
   3  13  -1 48.9668 52.6831   8
   3 -13  -1 92.9586 62.3646   4
  -3 -13   1 156.904 50.7017   7
  -3 -13   0 222.043 60.8371   9
  -3  13   0 190.149 73.3309   3
   3  13   0 197.277 65.7996   8
   3 -13   0 66.8095 50.3476   4
  -3 -13   0 117.282 46.9363   7
  -3 -13  -1 514.765 81.4194   9
  -3  13  -1 542.979 114.118   3
   3  13   1 443.992 94.1669   8
   3 -13   1 462.389 102.948   4
  -3 -13  -1 554.980 91.3318   7
  -3  13  -2 268.562 78.4942   3
  -3 -13  -2 280.191 62.4017   9
   3  13   2 417.802 97.7590   8
   3 -13   2 262.454 82.3450   4
  -3 -13  -2 220.101 59.1216   7
  -3 -13  -3 1760.07 147.191   9
   3  13   3 1796.89 195.884   8
   3 -13   3 1697.54 194.677   4
  -3 -13  -3 1811.81 159.758   7
  -3  13  -3 1782.98 197.377   3
  -3 -13  -4 1727.70 142.518   9
   3  13   4 1660.85 187.523   8
   3 -13   4 1625.49 192.456   4
  -3  13  -4 1654.69 189.186   3
  -3 -13  -5 1646.10 137.069   9
   3  13   5 1376.17 174.083   8
   3 -13   5 1803.62 205.682   4
  -3  13  -5 1441.13 174.762   3
  -3  13  -6 119.155 53.8474   3
  -3 -13  -6 176.647 51.8269   9
   3  13   6 158.532 62.2388   8
   3 -13   6 434.410 108.246   4
  -3  13  -7 125.529 63.1997   3
   3  13   7 41.7642 48.4921   8
   3 -13   7 95.6910 63.6699   4
  -3 -13  -8 2588.53 168.099   9
   3  13   8 3015.12 268.033   8
   3 -13   8 2742.58 262.217   4
  -3  13  -8 2724.54 241.202   3
   3  13   9 108.746 44.7110   8
   3  13  10 477.448 112.505   8
   3  14  -8 42.2332 50.8010   2
  -3 -14   7 120.616 68.3667   1
  -3 -14   7 110.432 40.9280   9
   3  14  -7 152.510 66.8369   2
  -3 -14   6-24.3887 53.7280   1
  -3 -14   6 17.1282 36.3056   9
  -3 -14   5 145.363 71.1983   1
  -3 -14   5 149.494 53.4785   9
   3  14  -5 186.892 64.4436   8
   3 -14  -5 251.475 79.5621   4
  -3 -14   5 214.086 64.8452   7
  -3 -14   4 50.7157 57.4567   1
  -3 -14   4 236.111 61.2812   9
  -3  14   4 303.014 107.419   3
   3  14  -4 54.4745 32.7300   8
   3 -14  -4 170.469 67.1071   4
  -3 -14   4 127.561 49.2155   7
  -3  14   3 1976.92 236.442   3
  -3 -14   3 1575.79 144.512   9
   3  14  -3 1382.74 171.187   8
   3 -14  -3 1607.49 184.909   4
  -3 -14   3 1732.75 168.428   7
  -3 -14   2 20.5472 35.4786   9
   3  14  -2-29.3307 42.3933   8
   3 -14  -2 26.9988 47.9777   4
  -3 -14   2 44.3941 30.4677   7
  -3 -14   1-40.0410 42.8231   9
  -3  14   1-19.7297 60.6307   3
   3  14  -1 19.3579 29.5372   8
   3 -14  -1-15.8471 48.3165   4
  -3 -14   1-8.15971 39.3540   7
  -3 -14   0-1.35825 32.2968   9
  -3  14   0-8.30577 47.4497   3
   3  14   0 64.0083 45.5473   8
   3 -14   0-12.5945 32.2528   4
  -3 -14   0 46.3534 31.9138   7
  -3 -14  -1 382.141 73.2935   9
  -3  14  -1 478.176 113.791   3
   3  14   1 440.789 102.605   8
   3 -14   1 537.151 114.344   4
  -3 -14  -1 326.949 74.5930   7
  -3  14  -2 63.4258 62.3620   3
  -3 -14  -2 76.6092 40.4763   9
   3  14   2 18.5138 40.6646   8
   3 -14   2 48.2353 36.4952   4
  -3 -14  -2 4.84665 33.4327   7
  -3  14  -3 760.002 137.108   3
  -3 -14  -3 581.253 82.7311   9
   3  14   3 592.483 117.006   8
   3 -14   3 552.833 117.085   4
  -3 -14  -3 624.470 99.1689   7
  -3  14  -4 1063.96 159.176   3
   3  14   4 568.833 116.144   8
   3  14   5 3174.02 272.629   8
  -3 -15   1 17.9665 40.6102   7
  -3 -15   0 151.060 54.6389   7
  -3 -15  -1 450.976 90.8952   7
  -3 -15  -2 913.926 129.115   7
  -4   0  16 4148.07 314.170  10
   4   0 -16 4307.04 322.218   2
  -4   0  15 4.11050 44.9343  10
   4   0 -15 109.495 68.9920   2
  -4   0  15 35.0221 56.4961   7
  -4   0  14-65.3525 65.1225  10
   4   0 -14-59.8052 49.2057   2
  -4   0  14 35.9639 60.7095   7
  -4   0  13-19.7428 40.6584  10
   4   0 -13-50.9757 49.5453   2
  -4   0  12-28.5617 41.6198  10
   4   0 -12 32.3663 44.7677   2
  -4   0  11-40.0139 47.0646  10
   4   0 -11-15.0772 45.3426   2
  -4   0  10 497.701 100.747  10
   4   0 -10 717.320 121.985   2
  -4   0   9 18.9974 44.7434  10
   4   0  -9 68.7144 41.9620   8
   4   0  -9 54.8700 49.5915   2
  -4   0   8 12953.5 524.921  10
   4   0  -8 12824.1 449.411   8
   4   0  -8 12548.2 524.549   2
  -4   0   7 25.4885 42.6802  10
   4   0  -7-8.98105 26.8531   8
   4   0  -7 103.262 64.1414   2
  -4   0   6 65.2102 47.4257  10
   4   0  -6 17.8845 33.8531   8
   4   0  -6 9.91756 35.8300   2
  -4   0   5 3.03928 37.2121  10
   4   0  -5-21.5764 30.1057   8
   4   0  -5 0.24534 35.9023   2
  -4   0   4 2002.07 184.208  10
   4   0  -4 1956.90 168.060   8
   4   0  -4 1778.66 177.843   2
  -4   0   3 17.7022 46.9871  10
   4   0  -3-28.0397 40.2134   2
   4   0  -3 89.7065 45.1873   8
  -4   0   2 208.469 64.9725  10
   4   0  -2 83.1966 45.1232   2
   4   0  -2 129.982 54.8183   8
  -4   0   1-2.11328 37.2364  10
   4   0  -1 53.2496 34.4101   2
   4   0  -1 31.6585 42.2018   8
   4   0   0 81.5062 47.6445  11
  -4   0   0 109.892 52.5111  10
   4   0   0 147.200 51.8827   2
   4   0   0 178.024 67.5214   8
   4   0   1-9.18588 40.3046  11
  -4   0  -1-28.1905 35.0548  10
   4   0   1 36.4494 44.9838   2
   4   0   1-52.5100 41.1853   8
  -4   0  -1-41.4014 44.5406   5
   4   0   2 319.263 72.4992   2
  -4   0  -2 157.529 64.3981   9
   4   0   2 418.300 82.9459   8
  -4   0  -2 404.076 75.6527   5
   4   0   3-96.3107 51.4539   2
  -4   0  -3-54.9263 48.0353   9
   4   0   3 25.4637 39.0660   8
  -4   0  -3-70.3311 51.3868   5
   4   0   4 323.418 75.7111   2
  -4   0  -4 208.975 56.7434   9
  -4   0  -4 354.433 67.5454   5
   4   0   4 222.830 65.5222   8
   4   0   5-30.9990 36.2819   2
  -4   0  -5 0.94104 40.5713   9
  -4   0  -5-10.4690 36.9800   5
   4   0   5 55.9419 50.4236   8
  -4   0  -6 6221.01 287.719   9
  -4   0  -6 6881.73 311.796   5
   4   0   6 6737.69 342.475   8
   4   0   6 6797.67 323.769   2
   4   0   7 68.5770 41.9723   2
  -4   0  -7-2.39652 31.9735   9
  -4   0  -7 14.0467 39.2452   5
   4   0   7-61.6042 41.4651   8
  -4   0  -8 2206.39 162.428   5
   4   0   8 2128.98 189.241   8
   4   0   8 2232.03 175.347   2
   4   0   9 66.3239 40.9190   2
  -4   0  -9-9.72232 43.1896   5
   4   0   9-64.4470 49.6022   8
  -4   0 -10 1750.39 140.839   5
   4   0  10 1957.71 180.913   8
   4   0  10 2166.43 164.854   2
   4   0  11 5.49935 25.5430   2
  -4   0 -11-49.4746 34.9310   5
   4   0  11 31.1381 37.7839   8
  -4   0 -12 2163.43 153.799   5
   4   0  12 2320.65 197.289   8
   4   0  12 2564.47 177.638   2
   4   0  13 30.2458 38.2260   2
  -4   0 -13-52.9618 31.9120   5
   4   0  13 7.44792 29.2420   8
   4   0  14 7243.42 326.454   6
  -4   0 -14 7371.17 287.804   5
   4   0  14 6553.96 342.283   8
   4   0  14 7989.40 320.454   2
   4   0  15-11.4493 24.9835   2
   4   0  15 9.91537 27.6672   6
   4   0  16 3616.20 206.017   2
  -4  -1  17-10.8009 42.5118  10
  -4  -1  16 450.637 105.819  10
  -4   1  16 355.892 87.8859  10
   4  -1 -16 771.282 134.974   2
   4   1 -16 508.999 112.314   2
  -4  -1  15 48.5899 58.8125  10
  -4   1  15 71.6280 47.2280  10
   4  -1 -15 209.864 79.2331   2
   4   1 -15 148.135 71.5412   2
  -4  -1  15 34.4426 46.0447   7
  -4  -1  14 108.899 48.2356  10
  -4   1  14 132.086 58.4701  10
   4  -1 -14 181.257 76.8041   2
   4   1 -14 216.715 83.7544   2
  -4  -1  14 242.878 89.1387   7
  -4  -1  13 115.392 68.0696  10
  -4   1  13-35.8604 46.1193  10
   4  -1 -13 16.7477 43.8818   2
   4   1 -13 90.1000 60.3378   2
  -4  -1  13 7.10722 44.8834   7
  -4  -1  12 9.66470 37.9681  10
  -4   1  12 51.5118 48.1350  10
   4  -1 -12-13.0940 45.0892   2
   4   1 -12-12.1325 33.0540   2
  -4  -1  12-31.2231 61.4890   7
  -4  -1  11 212.045 64.4128  10
  -4   1  11 256.212 87.5883  10
   4  -1 -11 285.188 80.2318   2
   4   1 -11 416.996 97.1295   2
  -4  -1  11 384.013 105.486   7
  -4  -1  10 161.620 55.4970  10
  -4   1  10 141.623 69.9281  10
   4  -1 -10 291.254 79.9585   2
   4   1 -10 114.726 62.3222   2
  -4  -1  10 228.730 82.2851   7
  -4  -1   9 59.3473 47.1692  10
  -4   1   9 176.813 75.5689  10
   4  -1  -9 62.7421 28.3088   8
   4   1  -9-25.4245 30.8685   8
   4  -1  -9 117.630 55.4674   2
   4   1  -9 144.105 65.9866   2
  -4  -1   9 102.634 61.3732   7
  -4  -1   8 8421.60 407.442  10
  -4   1   8 8406.97 416.211  10
   4  -1  -8 8254.77 338.845   8
   4   1  -8 8400.86 361.035   8
   4  -1  -8 8522.10 415.209   2
   4   1  -8 7907.89 413.701   2
  -4  -1   7 7344.60 371.130  10
  -4   1   7 7480.21 385.967  10
   4  -1  -7 6583.63 303.960   8
   4   1  -7 6832.36 326.013   8
   4  -1  -7 7444.90 380.602   2
   4   1  -7 6985.99 379.871   2
  -4  -1   6 2106.95 192.221  10
  -4   1   6 2195.72 202.225  10
   4  -1  -6 2276.76 173.285   8
   4   1  -6 2216.10 179.346   8
   4  -1  -6 2504.23 212.328   2
   4   1  -6 2307.49 209.171   2
  -4  -1   5 546.171 102.716  10
  -4   1   5 409.901 93.5440  10
   4  -1  -5 417.473 79.2988   8
   4   1  -5 223.347 66.7418   8
   4  -1  -5 447.580 93.8826   2
   4   1  -5 454.824 96.1515   2
  -4  -1   4 1114.27 136.330  10
  -4   1   4 945.996 130.559  10
   4  -1  -4 1066.31 121.024   8
   4  -1  -4 877.681 123.673   2
   4   1  -4 880.190 115.210   8
   4   1  -4 959.915 136.401   2
  -4  -1   3 511.110 94.3944  10
  -4   1   3 603.175 106.773  10
   4  -1  -3 491.420 89.2593   2
   4  -1  -3 704.574 99.2479   8
   4   1  -3 555.309 96.4997   8
   4   1  -3 687.994 110.080   2
   4  -1  -3 612.119 91.1232   4
  -4  -1   2 1501.66 152.081  10
  -4   1   2 1433.95 156.971  10
   4  -1  -2 1537.27 147.716   8
   4   1  -2 1474.74 150.373   8
  -4  -1   2 1369.43 145.246   7
   4  -1  -2 1439.78 153.350   2
   4   1  -2 1708.27 173.845   2
  -4  -1   1 81.2117 38.2678  10
  -4   1   1-5.41254 39.0142  10
   4  -1  -1 67.7530 40.1178   2
   4   1  -1 109.646 54.8589   2
   4  -1  -1 83.9452 40.0180   8
   4   1  -1 78.3778 42.1512   8
  -4  -1   1 5.11662 29.1143   7
   4   1   0 36.0932 35.1715  11
   4  -1   0 3.08687 46.3978  11
  -4  -1   0 90.4579 43.8334  10
  -4   1   0 79.7273 51.2631  10
  -4  -1   0 34.0855 39.0519   9
   4  -1   0 9.95646 31.9742   2
   4   1   0 52.4514 45.4755   2
   4  -1   0 54.6252 37.7068   8
   4   1   0 7.65513 33.6376   8
  -4  -1   0-31.6755 34.0792   7
   4   1   1 5461.36 293.347  11
   4  -1   1 5725.54 310.807  11
  -4   1  -1 5467.96 302.022  10
  -4  -1  -1 5251.60 292.137   9
  -4  -1  -1 5804.93 294.484   5
   4  -1   1 5329.85 288.344   8
   4   1   1 5295.04 298.874   8
  -4  -1  -1 5268.01 264.045   7
   4  -1   1 5359.86 295.767   2
   4   1   1 5618.17 310.196   2
   4  -1   2 16.0996 38.5829  11
   4  -1   2 55.2910 50.0793   2
  -4  -1  -2 74.0931 40.4877   9
   4   1   2 12.8476 36.6156   2
   4  -1   2 87.0699 47.4329   8
  -4  -1  -2 67.9973 35.6625   5
   4   1   2-28.7189 35.5499   8
  -4   1  -2 68.9486 40.6643   5
  -4  -1  -2-19.5652 28.6077   7
  -4  -1  -3 1973.78 167.908   9
  -4  -1  -3 2249.52 173.501   5
  -4   1  -3 1837.65 159.962   5
   4  -1   3 1786.05 166.159   8
   4   1   3 2130.58 188.027   8
   4  -1   3 2090.69 178.735   2
   4   1   3 2055.12 180.712   2
  -4  -1  -4 4998.27 266.101   9
  -4   1  -4 5045.43 272.043   9
  -4  -1  -4 4909.98 263.782   5
  -4   1  -4 4972.99 273.187   5
   4  -1   4 5668.37 303.075   8
   4   1   4 5041.39 297.842   8
   4  -1   4 5266.77 287.611   2
   4   1   4 5327.48 294.384   2
   4  -1   5 115.737 45.1764   2
   4   1   5 206.095 62.5426   2
  -4  -1  -5 178.590 45.1912   9
  -4   1  -5 54.9419 33.9169   9
  -4  -1  -5 199.088 52.7822   5
  -4   1  -5 260.686 67.3067   5
   4  -1   5 342.512 79.8549   8
   4   1   5 154.316 54.1677   8
  -4  -1  -6 19997.9 580.428   9
  -4   1  -6 19953.3 579.182   9
  -4  -1  -6 20515.9 589.573   5
  -4   1  -6 20330.6 603.926   5
   4  -1   6 20534.6 647.028   8
   4   1   6 20886.4 669.589   8
   4  -1   6 20586.5 619.797   2
   4   1   6 20669.5 633.533   2
  -4  -1  -7 2092.71 153.455   9
  -4  -1  -7 2342.25 168.626   5
  -4   1  -7 2231.95 172.221   5
   4  -1   7 1840.81 171.596   8
   4   1   7 2272.41 199.623   8
   4  -1   7 2132.38 170.861   2
   4   1   7 2375.47 184.990   2
   4  -1   8 121.366 43.2112   2
   4   1   8 64.3392 34.3892   2
  -4  -1  -8 99.3969 40.8893   5
  -4   1  -8 91.8731 42.1932   5
   4  -1   8 81.2758 50.7010   8
   4   1   8 27.0403 28.3541   8
   4  -1   9 23.6684 27.1094   2
   4   1   9-0.99856 31.3963   2
  -4  -1  -9-38.2958 40.4881   5
  -4   1  -9 0.72271 28.7715   5
   4  -1   9-26.7532 47.1923   8
   4   1   9-44.9710 52.9874   8
   4  -1  10-3.78502 28.0390   2
   4   1  10 28.0917 21.7617   2
  -4  -1 -10-20.0778 28.3186   5
  -4   1 -10-26.1552 31.6112   5
   4  -1  10-24.1606 41.6151   8
   4   1  10 9.35342 41.2757   8
   4  -1  11-32.4542 32.0214   2
   4   1  11-30.3239 25.3970   2
  -4  -1 -11 9.60550 32.6911   5
  -4   1 -11 8.38370 26.9289   5
   4  -1  11-21.0361 41.3375   8
   4   1  11-17.7320 40.0952   8
  -4  -1 -12 2268.70 151.976   5
  -4   1 -12 2060.72 150.581   5
   4  -1  12 1644.13 164.947   8
   4   1  12 1865.14 180.198   8
   4  -1  12 2065.01 158.731   2
   4   1  12 2027.68 158.311   2
  -4  -1 -13 1114.87 106.427   5
  -4   1 -13 886.829 96.3608   5
   4  -1  13 1097.62 114.307   2
   4   1  13 1049.79 112.233   2
   4  -1  13 933.952 123.570   8
   4   1  13 800.961 117.923   8
   4  -1  14 1251.98 129.166   6
  -4  -1 -14 1183.83 108.546   5
  -4   1 -14 1207.06 113.851   5
   4  -1  14 1223.24 119.712   2
   4   1  14 1163.40 117.051   2
   4  -1  14 1041.68 130.287   8
   4   1  14 815.938 118.104   8
   4  -1  15 290.246 63.3930   2
   4   1  15 228.469 52.6210   2
   4  -1  15 229.306 60.9333   6
   4   1  15 218.759 62.3230   6
   4  -1  15 226.211 61.6018   8
   4   1  16 1425.59 126.676   2
  -4  -2  15 31.5493 47.3067  10
  -4   2  15 77.6102 52.5928  10
   4  -2 -15 38.4758 39.6854   2
   4   2 -15 143.648 67.9166   2
  -4  -2  15 136.143 76.2840   7
  -4  -2  14 134.479 53.1812  10
  -4   2  14 4.62254 48.7164  10
   4  -2 -14 31.6056 33.5375   2
   4   2 -14 56.2601 48.1944   2
  -4  -2  14 135.284 68.8884   7
  -4  -2  13-18.9939 40.3025  10
  -4   2  13 25.9387 40.7985  10
   4  -2 -13-81.9357 50.7076   2
   4   2 -13 46.2339 43.7289   2
  -4  -2  13-56.8470 60.1161   7
  -4  -2  12 1512.74 178.945  10
  -4   2  12 1468.94 181.741  10
  -4  -2  12 1783.50 208.881   7
   4  -2 -12 1511.41 173.929   2
   4   2 -12 1458.54 179.675   2
  -4  -2  11 305.004 88.1231  10
  -4   2  11 117.634 60.6878  10
   4  -2 -11 85.3397 46.2695   2
   4   2 -11 86.7666 56.6551   2
  -4  -2  11 154.920 70.4116   7
  -4  -2  10 3216.10 244.137  10
  -4   2  10 2953.48 249.385  10
  -4  -2  10 3295.92 271.517   7
   4  -2 -10 2692.74 228.419   2
   4   2 -10 2858.75 247.444   2
  -4  -2   9 13620.8 528.778  10
  -4   2   9 12770.6 542.079  10
   4  -2  -9 12707.4 421.533   8
   4   2  -9 12907.1 469.928   8
  -4  -2   9 13887.1 573.752   7
   4  -2  -9 13323.3 533.573   2
   4   2  -9 13474.7 561.408   2
  -4  -2   8 1928.57 184.530  10
  -4   2   8 1869.01 196.154  10
   4  -2  -8 1738.95 144.779   8
   4   2  -8 1687.47 157.342   8
  -4  -2   8 1860.25 194.479   7
   4  -2  -8 1794.75 182.319   2
   4   2  -8 1906.32 199.527   2
  -4  -2   7 83.1427 61.5993  10
   4  -2  -7 11.6120 28.0553   8
   4   2  -7 39.6684 33.5217   8
   4  -2  -7-0.60443 31.6753   2
   4   2  -7 20.8332 51.4578   2
  -4  -2   7 6.94725 31.2870   7
  -4  -2   6 594.068 99.4452  10
  -4   2   6 570.008 103.624  10
   4  -2  -6 516.838 80.9435   8
   4  -2  -6 380.548 88.0887   2
   4   2  -6 417.839 81.2947   8
   4   2  -6 495.204 105.725   2
  -4  -2   6 540.828 104.395   7
  -4  -2   5 121.674 53.6718  10
  -4   2   5 35.5870 36.9823  10
   4  -2  -5 8.67682 29.7894   2
   4  -2  -5 123.183 45.8940   8
   4   2  -5 88.9646 47.0811   8
   4   2  -5 143.523 62.7575   2
  -4  -2   5 112.811 57.1157   7
  -4  -2   4 1960.56 176.104  10
  -4   2   4 2040.34 191.262  10
   4  -2  -4 1844.10 155.267   8
   4   2  -4 2007.98 175.589   8
  -4  -2   4 1942.42 181.879   7
   4  -2  -4 2045.52 156.929   4
   4  -2  -4 2082.21 185.444   2
   4   2  -4 2188.78 202.465   2
  -4  -2   3 5181.52 283.258  10
  -4   2   3 5260.60 310.744  10
   4  -2  -3 4690.86 257.396   8
   4   2  -3 4758.04 279.143   8
  -4  -2   3 4733.85 281.033   7
   4  -2  -3 5066.33 261.569   4
   4  -2  -3 4302.09 272.344   2
   4   2  -3 5471.98 324.040   2
  -4  -2   2 288.685 69.8533  10
  -4   2   2 399.745 89.3897  10
  -4  -2   2 265.058 79.0810   9
   4  -2  -2 304.471 74.8311   2
   4  -2  -2 250.006 57.2744   8
   4   2  -2 408.476 86.5385   8
   4   2  -2 189.255 60.2907   2
  -4  -2   2 233.987 60.1079   7
   4  -2  -2 321.017 68.3938   4
   4   2  -1 574.405 87.3720  11
  -4  -2   1 743.159 104.198  10
  -4   2   1 702.283 112.528  10
  -4  -2   1 635.739 106.137   9
   4  -2  -1 616.967 102.223   2
   4   2  -1 887.200 125.265   2
   4  -2  -1 464.309 83.0217   8
   4   2  -1 582.634 99.5356   8
  -4  -2   1 753.661 105.672   7
   4   2   0 1753.79 155.558  11
  -4   2   0 1793.20 173.551  10
  -4  -2   0 1958.06 175.647   9
  -4  -2   0 1580.58 149.629   5
   4  -2   0 1549.83 148.314   8
   4   2   0 1532.20 158.815   8
  -4  -2   0 1737.92 151.622   7
   4  -2   0 1813.33 167.541   2
   4   2   0 1582.77 167.166   2
   4  -2   1 4696.51 283.881  11
  -4   2  -1 4629.11 280.885  10
  -4  -2  -1 4396.19 265.564   9
  -4  -2  -1 4706.21 258.775   5
   4  -2   1 4293.69 253.309   8
   4   2   1 4505.71 277.749   8
  -4  -2  -1 4769.49 244.221   7
   4  -2   1 4483.95 266.973   2
   4   2   1 5061.64 298.404   2
   4  -2   2-9.21728 38.2182  11
   4  -2   2 27.3132 33.0377   2
  -4  -2  -2 64.0885 33.5477   9
   4   2   2 10.6202 30.3515   2
   4  -2   2 17.2400 35.2262   8
  -4  -2  -2 44.9589 38.3731   5
   4   2   2 63.3088 41.7210   8
  -4   2  -2 42.0136 33.8394   5
  -4  -2  -2 46.4348 23.7944   7
   4  -2   3-11.2275 44.7059  11
   4  -2   3-27.6623 29.3769   2
  -4  -2  -3-10.5140 30.3518   9
   4   2   3-42.5823 44.9525   2
   4  -2   3-16.5852 40.8180   8
  -4  -2  -3 8.76011 36.1654   5
  -4   2  -3-62.8039 52.1676   5
   4   2   3-5.17007 36.3267   8
  -4  -2  -4 1351.59 134.716   9
  -4  -2  -4 1311.17 129.801   5
  -4   2  -4 1118.93 130.212   5
   4  -2   4 1133.73 129.605   8
   4   2   4 1155.71 142.450   8
   4  -2   4 1184.25 128.484   2
   4   2   4 1131.66 135.824   2
  -4  -2  -5 970.261 109.859   5
  -4  -2  -5 932.649 110.601   9
  -4   2  -5 812.254 100.956   9
   4  -2   5 773.716 109.175   8
  -4   2  -5 961.686 118.084   5
   4   2   5 929.905 129.039   8
   4  -2   5 1018.84 119.977   2
   4   2   5 1223.58 138.465   2
  -4  -2  -6 14408.3 468.509   9
  -4  -2  -6 14449.5 466.142   5
  -4   2  -6 14875.6 498.550   5
   4  -2   6 14669.7 517.044   8
   4   2   6 14754.2 552.050   8
   4  -2   6 13910.0 485.905   2
   4   2   6 15095.4 528.549   2
  -4  -2  -7 4075.45 220.707   9
  -4  -2  -7 4123.01 223.022   5
  -4   2  -7 3948.27 235.136   5
   4  -2   7 4294.23 261.610   8
   4   2   7 4288.19 279.763   8
   4  -2   7 4477.62 247.396   2
   4   2   7 4383.39 259.889   2
   4  -2   8-24.0276 26.8488   2
   4   2   8 32.8485 34.1217   2
  -4  -2  -8 22.1133 25.0807   9
  -4  -2  -8-12.5345 27.4051   5
  -4   2  -8-3.22524 27.6142   5
   4  -2   8 17.3006 39.4935   8
   4   2   8 39.2973 57.5983   8
   4  -2   9 27.9182 35.0229   2
   4   2   9 123.452 51.0304   2
  -4  -2  -9 59.0768 34.4990   5
  -4   2  -9 69.4716 39.7621   5
   4  -2   9 269.875 71.7731   8
   4   2   9 86.8371 41.9249   8
  -4  -2 -10 919.880 99.0768   5
  -4   2 -10 929.125 102.947   5
   4  -2  10 949.338 121.470   8
   4   2  10 922.582 130.439   8
   4  -2  10 1054.43 112.812   2
   4   2  10 1016.20 116.054   2
  -4  -2 -11 975.986 99.1117   5
  -4   2 -11 886.805 100.580   5
   4  -2  11 875.413 116.573   8
   4  -2  11 912.054 105.102   2
   4   2  11 901.818 130.096   8
   4   2  11 1119.30 120.077   2
   4  -2  12 392.737 67.2539   2
   4   2  12 415.148 76.3755   2
  -4  -2 -12 399.075 66.2631   5
  -4   2 -12 383.966 67.1987   5
   4  -2  12 478.454 88.3274   8
   4   2  12 477.523 99.9157   8
   4  -2  13 22.3533 30.4087   2
   4   2  13 40.5073 30.3864   2
   4  -2  13-17.4806 30.5890   6
  -4  -2 -13 44.4480 26.6081   5
  -4   2 -13 47.5325 30.5137   5
   4  -2  13 49.8262 35.7200   8
   4   2  13 24.0724 37.7008   8
   4  -2  14 6147.71 285.046   6
  -4  -2 -14 5870.92 245.490   5
  -4   2 -14 5377.69 248.667   5
   4  -2  14 5002.45 285.154   8
   4   2  14 5427.69 318.189   8
   4  -2  14 5753.27 266.221   2
   4   2  14 6190.50 277.071   2
   4  -2  15 33.5211 35.6013   2
   4   2  15-21.6452 31.2115   2
   4  -2  15 29.6434 31.5419   6
   4  -2  15 23.7867 28.5040   8
  -4   3  15-3.24509 54.6235  10
   4   3 -15 12.0951 50.3288   2
  -4   3  14 118.845 58.6588  10
   4  -3 -14 65.3349 48.0034   2
  -4  -3  14-6.39272 52.4905   7
   4   3 -14-36.2592 63.2692   2
   4  -3 -13-5.39054 52.0475   2
  -4  -3  13-19.3378 42.3593   7
   4   3 -13-34.6287 45.7803   2
  -4  -3  12 453.630 97.7616  10
  -4   3  12 436.165 99.8099  10
   4  -3 -12 509.674 101.969   2
   4   3 -12 486.136 111.957   2
  -4  -3  12 548.796 111.434   7
  -4  -3  11 1986.36 189.620  10
  -4   3  11 1451.17 182.467  10
  -4  -3  11 1805.14 202.751   7
   4  -3 -11 1695.90 180.314   2
   4   3 -11 1516.26 186.616   2
  -4  -3  10 1253.40 152.227  10
  -4   3  10 1091.74 157.191  10
   4   3 -10 1116.48 159.853   2
  -4  -3  10 1071.50 158.527   7
   4  -3 -10 1219.41 152.871   2
  -4  -3   9 6127.26 334.062  10
  -4   3   9 5036.83 333.228  10
   4   3  -9 5459.25 296.985   8
  -4  -3   9 6475.57 374.029   7
   4  -3  -9 6161.99 339.941   2
   4   3  -9 6334.10 372.797   2
  -4  -3   8 4418.35 276.983  10
  -4   3   8 4131.52 295.271  10
   4  -3  -8 4095.23 218.913   8
   4   3  -8 4645.94 270.577   8
  -4  -3   8 4944.61 318.090   7
   4  -3  -8 4400.05 282.720   2
   4   3  -8 4867.88 322.735   2
  -4  -3   7 1027.90 130.468  10
  -4   3   7 1155.28 153.033  10
   4  -3  -7 809.748 97.7500   8
   4  -3  -7 1039.74 133.169   2
   4   3  -7 752.417 107.068   8
   4   3  -7 952.243 138.248   2
  -4  -3   7 814.028 123.564   7
  -4  -3   6 1239.27 138.959  10
  -4   3   6 1047.74 145.922  10
   4  -3  -6 1091.02 112.453   8
   4   3  -6 1225.40 138.879   8
   4   3  -6 1243.58 158.588   2
   4  -3  -6 1102.13 137.029   2
  -4  -3   6 1196.04 148.515   7
  -4  -3   5 210.323 64.6389  10
  -4   3   5 272.599 74.8295  10
  -4  -3   5 275.112 80.1599   9
   4  -3  -5 198.284 62.9277   2
   4  -3  -5 263.778 57.9307   8
   4   3  -5 141.083 49.6668   8
   4   3  -5 192.989 67.4038   2
  -4  -3   5 182.632 65.7957   7
  -4  -3   4 313.340 71.6714  10
  -4   3   4 175.204 66.7270  10
  -4  -3   4 188.033 68.4426   9
   4  -3  -4 124.230 51.6509   2
   4  -3  -4 232.544 57.4425   8
   4   3  -4 228.772 65.8618   8
   4   3  -4 353.497 86.4868   2
   4  -3  -4 221.857 55.4311   4
  -4  -3   4 194.952 60.3297   7
  -4  -3   3 181.399 60.4425  10
  -4   3   3 427.793 95.6651  10
  -4  -3   3 237.499 70.0736   9
   4  -3  -3 213.749 63.9158   2
   4  -3  -3 224.029 56.8506   8
   4   3  -3 184.888 58.3629   8
   4   3  -3 443.939 94.7710   2
  -4  -3   3 314.303 72.3891   7
   4  -3  -3 305.134 67.4257   4
  -4  -3   2 3695.79 230.563  10
  -4   3   2 3658.67 258.769  10
  -4  -3   2 3610.94 249.749   9
   4  -3  -2 3546.98 219.941   8
   4   3  -2 3280.00 236.146   8
  -4  -3   2 3559.40 230.156   7
   4  -3  -2 3569.95 230.994   4
   4  -3  -2 3550.90 236.368   2
   4   3  -2 3723.06 264.008   2
   4   3  -1 36.8220 34.1649  11
  -4   3   1 104.128 60.1794  10
   4  -3  -1 72.4434 40.0076   2
  -4  -3   1 112.729 58.1208   9
   4  -3  -1 2.58361 33.7762   8
   4   3  -1-23.0691 47.1732   2
  -4  -3   1 19.5589 35.0814   5
   4   3  -1 115.301 56.4827   8
  -4  -3   1-11.7441 28.5237   7
   4  -3  -1 117.591 57.7756   4
   4   3   0 7714.92 334.019  11
  -4   3   0 7304.98 368.325  10
  -4  -3   0 7168.04 349.613   9
  -4  -3   0 7248.83 324.924   5
   4  -3   0 6888.36 322.350   8
   4   3   0 7431.72 368.472   8
  -4  -3   0 7215.89 317.488   7
   4  -3   0 7645.73 350.308   2
   4   3   0 7578.13 379.489   2
   4  -3   1 498.003 96.9379  11
  -4   3  -1 486.922 97.5663  10
   4  -3   1 588.599 95.0348   2
  -4  -3  -1 401.600 82.6212   9
   4   3   1 420.151 85.7415   2
   4  -3   1 507.776 86.1296   8
  -4  -3  -1 375.151 71.3978   5
   4   3   1 488.868 95.8884   8
  -4  -3  -1 341.600 64.5841   7
   4  -3   2 3184.67 241.631  11
  -4   3  -2 3686.84 251.603  10
  -4   3  -2 3326.25 188.806   3
  -4  -3  -2 3212.25 219.243   9
  -4  -3  -2 3500.02 214.677   5
  -4   3  -2 3432.63 234.274   5
   4  -3   2 3345.02 218.740   8
   4   3   2 3321.65 243.814   8
  -4  -3  -2 3363.34 191.859   7
   4  -3   2 3695.76 234.174   2
   4   3   2 3262.58 237.695   2
   4  -3   3 593.243 111.694  11
   4  -3   3 593.251 92.1545   2
  -4  -3  -3 416.395 80.2911   9
   4   3   3 435.603 88.3543   2
   4  -3   3 742.087 105.626   8
  -4  -3  -3 566.152 83.8461   5
  -4   3  -3 619.518 94.4001   5
   4   3   3 550.606 104.736   8
   4  -3   4 20.1821 25.6734   2
  -4  -3  -4 28.7844 33.5535   9
   4   3   4 10.7575 30.2610   2
  -4  -3  -4 100.123 45.1879   5
   4  -3   4 20.3166 31.9779   8
  -4   3  -4 3.81722 35.2413   5
   4   3   4 63.4689 56.9897   8
  -4  -3  -5 3127.24 202.505   9
  -4  -3  -5 3464.99 204.641   5
  -4   3  -5 3574.81 229.659   5
   4  -3   5 3249.13 222.430   8
   4   3   5 3402.69 249.606   8
   4  -3   5 3292.91 214.161   2
   4   3   5 3448.22 239.037   2
   4   3   6 816.919 115.939   2
  -4  -3  -6 647.455 90.2975   9
  -4  -3  -6 727.048 92.2278   5
   4  -3   6 684.096 100.905   8
  -4   3  -6 684.646 96.9434   5
   4   3   6 652.683 110.576   8
   4  -3   6 778.479 102.469   2
  -4  -3  -7 5087.15 249.120   9
  -4  -3  -7 5007.84 243.197   5
  -4   3  -7 5301.87 277.139   5
   4  -3   7 4823.80 276.084   8
   4   3   7 5118.77 315.434   8
   4  -3   7 5150.20 264.576   2
   4   3   7 5749.25 303.449   2
  -4  -3  -8 2091.06 151.857   9
  -4  -3  -8 2482.99 162.589   5
  -4   3  -8 2408.29 179.060   5
   4  -3   8 2405.07 189.423   8
   4   3   8 2562.90 220.358   8
   4  -3   8 2247.79 167.679   2
   4   3   8 2342.24 186.518   2
  -4  -3  -9 3049.79 179.345   5
  -4   3  -9 2930.47 193.388   5
   4  -3   9 2867.62 209.122   8
   4   3   9 2706.93 226.854   8
   4  -3   9 3039.26 194.181   2
   4   3   9 3262.28 217.569   2
  -4  -3 -10 1245.91 111.806   5
  -4   3 -10 1202.26 121.433   5
   4  -3  10 1102.30 129.633   8
   4  -3  10 1154.76 117.669   2
   4   3  10 1110.05 147.784   8
   4   3  10 1350.47 134.041   2
   4   3  11 775.844 99.6924   2
  -4  -3 -11 708.582 84.1642   5
  -4   3 -11 789.165 96.8919   5
   4  -3  11 809.651 97.2691   2
   4  -3  11 780.663 110.515   8
   4   3  11 892.811 134.611   8
   4  -3  12-35.4060 31.5606   2
   4   3  12 35.5542 34.5978   2
  -4  -3 -12-15.6886 18.8751   5
  -4   3 -12 13.0106 28.1384   5
   4  -3  12 2.19780 34.8763   8
   4   3  12 43.2569 38.9253   8
   4  -3  13-7.58961 22.5931   2
   4   3  13 59.4657 43.4811   2
   4  -3  13-34.9688 31.2775   6
  -4  -3 -13 30.8060 27.5948   5
  -4   3 -13 14.3304 24.5499   5
   4  -3  13 20.7042 36.5506   8
   4   3  13-15.6621 44.2620   8
   4  -3  14 1236.73 121.373   6
  -4  -3 -14 1411.41 113.485   5
  -4   3 -14 1169.67 111.149   5
   4  -3  14 1023.96 124.734   8
   4  -3  14 1473.97 129.509   2
   4   3  14 1552.43 134.918   2
   4   3  14 1294.41 156.124   8
   4  -3  15-93.1781 41.9577   6
   4  -3  15-12.4010 27.1508   8
  -4  -4  15 311.518 98.6050   9
  -4   4  14 117.871 59.4383  10
  -4  -4  14 171.726 77.0911   9
  -4  -4  14 268.393 84.8690   7
   4   4 -14 167.493 72.0823   2
  -4   4  13 108.543 64.3262  10
  -4  -4  13 71.7319 59.4504   9
  -4  -4  13 115.408 69.7188   7
   4   4 -13 121.151 70.7872   2
  -4   4  12-25.5549 40.0923  10
  -4  -4  12 76.6801 59.3512   9
   4  -4 -12 28.1410 30.7930   2
  -4  -4  12-4.54765 51.6856   7
   4   4 -12-38.0801 63.4258   2
  -4   4  11 1784.04 202.083  10
  -4  -4  11 1978.22 214.246   9
  -4  -4  11 1717.73 196.867   7
   4  -4 -11 1639.93 172.010   2
   4   4 -11 1459.72 180.534   2
  -4   4  10 72.6512 55.3958  10
  -4  -4  10 174.890 74.3052   9
   4  -4 -10 138.775 55.5023   2
   4   4 -10 118.374 49.1763   8
   4   4 -10 43.1069 51.0688   2
  -4  -4  10 60.5307 43.5124   7
  -4  -4   9 2728.12 212.461  10
  -4   4   9 2813.88 247.569  10
  -4  -4   9 2671.74 239.495   9
   4   4  -9 2774.83 211.248   8
  -4  -4   9 2852.18 240.232   7
   4  -4  -9 2508.53 211.640   2
   4   4  -9 2493.93 235.374   2
  -4  -4   8-6.67090 44.0593  10
  -4   4   8 86.6648 58.5212  10
  -4  -4   8-73.7569 51.3589   9
   4  -4  -8 21.0387 36.1619   2
   4  -4  -8 18.7071 28.0519   8
   4   4  -8-1.41004 33.1170   8
   4   4  -8-10.1801 38.6849   2
  -4  -4   8 17.6724 45.1076   7
  -4  -4   7 68.8653 47.6443  10
  -4   4   7 70.2681 56.1902  10
  -4  -4   7-74.4148 46.3990   9
   4  -4  -7-31.1307 29.6861   2
   4  -4  -7-33.1494 30.3737   8
   4   4  -7 22.1661 35.8865   8
   4   4  -7 12.2629 33.6790   2
  -4  -4   7-13.3163 34.1020   7
  -4  -4   6 564.613 93.7148  10
  -4   4   6 696.496 124.286  10
  -4  -4   6 482.927 98.6838   9
   4  -4  -6 383.135 79.6478   2
   4  -4  -6 435.175 71.0943   8
   4   4  -6 502.359 93.3373   8
   4   4  -6 479.076 98.6553   2
  -4  -4   6 688.225 113.282   7
  -4  -4   5 449.311 82.6676  10
  -4   4   5 578.973 108.258  10
  -4  -4   5 499.039 98.9404   9
   4  -4  -5 489.545 89.6775   2
   4  -4  -5 399.768 71.7578   8
   4   4  -5 447.408 86.1778   8
   4   4  -5 387.491 94.9126   2
   4  -4  -5 473.883 79.6620   4
  -4  -4   5 429.193 89.9533   7
  -4  -4   4 616.046 95.7386  10
  -4   4   4 766.499 122.729  10
  -4  -4   4 785.338 118.398   9
   4  -4  -4 696.271 99.9246   2
   4  -4  -4 662.033 92.1877   8
   4   4  -4 699.546 109.889   8
   4   4  -4 663.001 117.785   2
   4  -4  -4 597.089 92.8705   4
  -4  -4   4 737.944 107.203   7
  -4  -4   3 1637.54 147.249  10
  -4   4   3 1648.43 177.155  10
  -4  -4   3 1656.24 169.199   9
   4  -4  -3 1815.44 149.574   8
   4   4  -3 1735.38 170.350   8
  -4  -4   3 1546.58 151.176   7
   4  -4  -3 1661.49 155.431   4
   4  -4  -3 1694.05 163.532   2
   4   4  -3 1627.43 178.753   2
  -4   4   2 439.764 98.6123  10
   4  -4  -2 465.107 85.6195   2
  -4  -4   2 409.719 88.3348   9
   4  -4  -2 340.925 69.0332   8
   4   4  -2 473.996 87.1225   8
   4   4  -2 380.262 84.8106   2
  -4  -4   2 311.388 69.1610   7
   4  -4  -2 570.702 94.7486   4
  -4   4   1 1174.21 149.496  10
  -4  -4   1 1466.82 154.785   9
  -4  -4   1 1426.68 138.605   5
   4  -4  -1 1462.63 135.235   8
   4   4  -1 1404.10 158.610   8
  -4  -4   1 1567.15 142.775   7
   4  -4  -1 1260.02 143.039   4
   4  -4  -1 1543.02 151.180   2
   4   4  -1 1409.39 161.224   2
   4   4   0 556.938 84.9488  11
  -4   4   0 515.519 100.939  10
   4  -4   0 517.944 87.0223   2
  -4  -4   0 583.326 98.7424   9
   4  -4   0 550.619 85.9273   8
   4   4   0 434.420 91.5077   2
  -4  -4   0 463.666 77.2480   5
   4   4   0 588.174 106.103   8
  -4  -4   0 480.405 81.8574   7
   4  -4   0 698.323 106.490   4
  -4   4  -1 1937.81 183.960  10
  -4   4  -1 1680.82 140.794   3
  -4  -4  -1 1830.14 166.243   9
  -4  -4  -1 1902.03 154.666   5
   4  -4   1 1821.92 155.222   8
   4   4   1 1711.53 175.398   8
  -4  -4  -1 1608.34 135.377   7
   4  -4   1 1858.04 164.569   2
   4   4   1 1679.68 175.275   2
   4  -4   2 69.0335 42.4057  11
  -4   4  -2 38.8879 38.9207  10
   4  -4   2 139.893 49.6688   2
  -4  -4  -2-14.5550 29.7291   9
  -4   4  -2 28.8938 28.6790   3
   4   4   2 40.5138 36.6190   2
   4  -4   2 11.2080 31.6628   8
  -4  -4  -2-5.51204 36.2127   5
   4   4   2 3.41653 43.9151   8
  -4  -4  -2 22.1229 19.7999   7
  -4   4  -3 1094.89 110.040   3
   4  -4   3 1193.96 152.957  11
  -4  -4  -3 1114.01 126.716   9
  -4  -4  -3 1265.15 123.314   5
  -4   4  -3 1338.90 146.165   5
   4  -4   3 1241.20 131.167   8
   4   4   3 1280.69 153.699   8
   4  -4   3 1317.20 133.133   2
   4   4   3 1455.53 155.367   2
   4  -4   4 1367.88 166.468  11
  -4  -4  -4 1775.21 155.583   9
  -4  -4  -4 1716.58 141.041   5
  -4   4  -4 1776.87 163.296   5
   4  -4   4 1720.45 156.139   8
   4   4   4 1712.38 180.682   8
   4  -4   4 1672.22 149.232   2
   4   4   4 1849.23 178.321   2
   4  -4   5 134.669 48.0031   2
   4   4   5 135.967 56.6789   2
  -4  -4  -5 31.7029 36.6816   9
  -4  -4  -5 131.695 46.0041   5
   4  -4   5 145.561 53.4489   8
  -4   4  -5 85.1637 43.3472   5
   4   4   5 80.6561 48.6458   8
   4  -4   6 590.122 87.4684   2
   4   4   6 749.477 114.143   2
  -4  -4  -6 692.980 90.7168   9
  -4  -4  -6 653.846 82.2724   5
   4  -4   6 886.766 112.516   8
  -4   4  -6 847.937 114.182   5
   4   4   6 596.265 110.479   8
  -4  -4  -7 5722.77 269.107   9
  -4  -4  -7 6282.26 263.175   5
  -4   4  -7 6070.39 300.500   5
   4  -4   7 5726.63 296.494   8
   4   4   7 6104.80 349.857   8
   4  -4   7 6167.76 287.131   2
   4   4   7 6744.22 333.320   2
   4  -4   8 18.8440 23.8233   2
   4   4   8-43.9307 43.4333   2
  -4  -4  -8 69.4027 34.4183   9
  -4  -4  -8 49.1194 32.0096   5
  -4   4  -8 50.4632 37.2487   5
   4  -4   8 29.0302 37.3903   8
   4   4   8 59.2731 35.5794   8
   4  -4   9 377.892 69.7697   2
   4   4   9 454.757 82.7604   2
  -4  -4  -9 440.783 70.5793   9
  -4  -4  -9 472.755 66.1873   5
  -4   4  -9 380.021 74.2311   5
   4  -4   9 376.759 79.4026   8
   4   4   9 283.226 75.8617   8
   4  -4  10 543.841 81.1427   2
   4   4  10 671.169 96.6894   2
  -4  -4 -10 599.117 76.4486   5
  -4   4 -10 696.094 90.8793   5
   4  -4  10 647.726 102.836   8
   4   4  10 697.512 123.862   8
   4  -4  11 57.2115 34.2932   2
   4   4  11 107.582 47.0879   2
  -4  -4 -11 75.3297 36.0519   5
  -4   4 -11-1.20292 41.4105   5
   4  -4  11 113.775 50.1065   8
   4   4  11 65.5539 57.5262   8
   4  -4  12 43.9446 32.7900   2
   4   4  12-7.63843 25.3948   2
   4  -4  12 54.5934 29.1525   6
  -4  -4 -12 45.7993 34.2577   5
  -4   4 -12-18.6372 31.4221   5
   4  -4  12 27.7232 34.2137   8
   4   4  12 53.6773 44.7959   8
   4  -4  13 15.5137 21.7178   2
   4  -4  13 105.536 34.0681   6
  -4  -4 -13 190.134 48.8614   5
  -4   4 -13 116.994 41.3607   5
   4  -4  13 108.825 55.6939   8
   4   4  13 96.1264 54.0681   8
   4  -4  14 25.3409 20.3148   2
   4  -4  14-10.8587 30.3233   6
  -4  -4 -14 43.2613 29.9178   5
  -4   4 -14 108.813 41.9929   5
   4   4  14 2.75067 31.6278   8
   4  -4  15-17.8553 31.9447   6
  -4  -5  15 202.273 86.9398   9
  -4  -5  14 329.742 94.9226   9
  -4   5  13 1361.85 186.783  10
  -4  -5  13 1415.15 182.541   9
  -4  -5  13 1805.01 209.248   7
   4   5 -13 1354.12 183.515   2
  -4   5  12 342.273 95.7555  10
  -4  -5  12 389.919 92.0713   9
  -4  -5  12 388.597 94.6404   7
   4   5 -12 620.903 128.056   2
  -4   5  11 425.780 99.8504  10
  -4  -5  11 678.967 131.115   9
  -4  -5  11 709.819 129.979   7
   4   5 -11 679.031 126.947   2
  -4   5  10 2663.30 245.474  10
  -4  -5  10 2571.13 238.138   9
   4   5 -10 2439.40 201.865   8
  -4  -5  10 2743.24 238.061   7
   4  -5 -10 2450.90 203.581   2
   4   5 -10 2931.36 259.733   2
  -4  -5   9 127.766 48.5534   9
   4  -5  -9 140.076 52.9222   2
   4   5  -9 170.318 55.7576   8
   4   5  -9 228.388 76.6637   2
  -4  -5   9 275.546 74.9426   7
  -4   5   8 529.660 114.871  10
  -4  -5   8 703.085 123.339   9
   4  -5  -8 730.659 109.779   2
   4  -5  -8 588.938 78.3175   8
   4   5  -8 825.337 117.239   8
   4   5  -8 654.007 124.866   2
  -4  -5   8 578.483 107.062   7
  -4   5   7 58.8630 46.7420  10
  -4  -5   7 27.5831 49.0271   9
   4  -5  -7 57.7520 27.5151   2
   4  -5  -7 43.7171 30.7656   8
   4   5  -7 41.1657 35.1148   8
   4   5  -7 87.8427 57.2583   2
  -4  -5   7 32.2993 37.8763   7
  -4   5   6 555.532 111.183  10
  -4  -5   6 608.609 113.518   9
   4  -5  -6 480.487 84.9561   2
   4  -5  -6 501.423 74.3224   8
   4   5  -6 577.740 100.807   8
   4   5  -6 477.970 107.214   2
   4  -5  -6 464.255 74.9413   4
  -4  -5   6 443.361 89.6721   7
  -4   5   5 886.251 137.949  10
  -4  -5   5 961.776 132.085   9
   4  -5  -5 895.530 116.970   2
   4  -5  -5 981.328 106.004   8
   4   5  -5 1089.59 136.446   8
   4  -5  -5 1016.04 119.840   4
   4   5  -5 1002.96 147.471   2
  -4  -5   5 849.744 119.336   7
  -4  -5   4 189.569 58.0995  10
  -4   5   4 131.923 68.2038  10
   4  -5  -4 130.790 47.2408   2
  -4  -5   4 189.173 62.9913   9
   4  -5  -4 63.1631 38.2798   8
   4   5  -4 137.085 55.3757   8
   4   5  -4 196.452 70.0659   2
   4  -5  -4 138.951 51.0600   4
  -4  -5   4 169.327 61.3422   7
  -4   5   3 14.5699 51.6097  10
   4  -5  -3 7.93012 27.6294   2
  -4  -5   3 63.2367 46.8622   9
   4  -5  -3 110.947 45.7502   8
   4   5  -3 11.0822 28.8596   8
   4   5  -3 55.3134 50.9551   2
   4  -5  -3 59.9883 34.4088   4
  -4  -5   3 15.5593 28.8160   7
  -4   5   2 1406.59 166.232  10
  -4  -5   2 1480.52 158.939   9
  -4  -5   2 1449.78 137.041   5
   4  -5  -2 1514.86 136.067   8
   4   5  -2 1385.32 156.616   8
   4  -5  -2 1295.94 142.594   4
  -4  -5   2 1507.35 144.310   7
   4  -5  -2 1782.34 161.677   2
   4   5  -2 1608.72 179.375   2
  -4   5   1 330.526 84.1790  10
   4  -5  -1 317.986 71.5352   2
  -4  -5   1 264.749 65.8554   9
   4  -5  -1 252.892 61.1041   8
  -4  -5   1 282.129 60.1944   5
   4   5  -1 292.998 79.2039   8
   4   5  -1 269.404 71.3125   2
   4  -5  -1 191.167 63.0429   4
  -4  -5   1 311.334 69.2919   7
  -4   5   0 551.652 101.832  10
   4  -5   0 892.832 108.410   2
  -4  -5   0 669.017 103.654   9
   4  -5   0 782.235 102.242   8
  -4  -5   0 831.226 100.298   5
   4   5   0 782.625 120.621   2
   4   5   0 917.709 129.428   8
  -4  -5   0 769.737 96.8833   7
   4  -5   0 601.614 102.848   4
  -4   5  -1 173.680 69.2504  10
   4  -5   1 117.975 38.6083   2
  -4  -5  -1 192.865 62.1862   9
  -4   5  -1 74.5080 38.9356   3
   4  -5   1 76.6627 37.1204   8
   4   5   1 139.907 47.8191   2
  -4  -5  -1 143.605 47.4924   5
   4   5   1 133.767 49.0714   8
  -4  -5  -1 132.260 46.4120   7
   4  -5   1 182.434 57.8586   4
  -4   5  -2 151.658 62.2859  10
   4  -5   2 28.5584 27.7662   2
  -4  -5  -2 250.802 64.2553   9
  -4   5  -2 151.183 50.9489   3
   4   5   2 118.764 62.5008   2
   4  -5   2 101.117 44.3716   8
  -4  -5  -2 104.728 36.4505   5
   4   5   2 216.077 74.2331   8
  -4  -5  -2 135.019 40.6155   7
   4  -5   3 42.7778 44.0866  11
   4  -5   3 7.50589 29.2655   2
  -4  -5  -3 62.1130 44.4126   9
  -4   5  -3 69.5724 31.1196   3
   4   5   3 42.6985 37.2278   2
   4  -5   3 127.198 49.3023   8
  -4  -5  -3 44.6088 28.2682   5
  -4   5  -3 67.4844 46.5208   5
   4   5   3 30.0582 39.9513   8
  -4   5  -4 2657.58 177.612   3
   4  -5   4 2940.36 242.284  11
  -4  -5  -4 2662.26 191.235   9
  -4  -5  -4 2577.61 167.367   5
  -4   5  -4 2673.63 206.644   5
   4  -5   4 2530.85 186.351   8
   4   5   4 2334.68 213.215   8
   4  -5   4 2660.81 186.343   2
   4   5   4 3081.57 232.839   2
   4  -5   5 298.514 78.7576  11
   4  -5   5 294.844 63.5967   2
  -4  -5  -5 329.108 71.3356   9
   4   5   5 261.893 68.0265   2
  -4  -5  -5 249.586 49.3309   5
   4  -5   5 291.454 66.9774   8
  -4   5  -5 434.318 79.3510   5
   4   5   5 293.941 73.3746   8
   4  -5   6 503.913 108.429  11
   4  -5   6 567.132 84.6621   2
   4   5   6 585.337 103.101   2
  -4  -5  -6 417.326 75.0490   9
  -4  -5  -6 425.668 63.4691   5
   4  -5   6 477.281 84.5445   8
  -4   5  -6 461.290 86.4129   5
   4   5   6 448.228 95.6934   8
   4  -5   7 582.341 84.2173   2
   4   5   7 708.804 107.046   2
  -4  -5  -7 481.867 77.2430   9
  -4  -5  -7 384.110 60.6910   5
   4  -5   7 498.952 88.8290   8
  -4   5  -7 555.710 89.9036   5
   4   5   7 519.189 102.549   8
  -4  -5  -8 3497.41 202.710   9
  -4  -5  -8 3591.96 188.083   5
  -4   5  -8 3675.82 228.046   5
   4  -5   8 3409.87 223.091   8
   4   5   8 3411.09 268.392   8
   4  -5   8 3577.95 210.069   2
   4   5   8 3835.02 247.105   2
   4  -5   9 56.5952 32.8391   2
   4   5   9 49.1329 32.2283   2
  -4  -5  -9 48.0079 32.8373   9
  -4  -5  -9 77.1021 33.5389   5
  -4   5  -9 82.0100 46.1529   5
   4  -5   9 2.65734 28.2142   8
   4   5   9 54.0183 48.2213   8
   4  -5  10 253.821 58.8727   2
   4   5  10 226.688 60.6582   2
  -4  -5 -10 207.883 47.6376   5
  -4   5 -10 257.755 60.0315   5
   4  -5  10 242.496 62.7762   8
   4   5  10 177.419 69.9541   8
  -4  -5 -11 1826.06 125.574   5
  -4   5 -11 1490.87 134.465   5
   4  -5  11 1922.34 167.478   8
   4   5  11 1838.26 196.402   8
   4  -5  11 1769.58 141.732   2
   4   5  11 2029.12 165.178   2
   4  -5  12 634.656 83.5140   2
  -4  -5 -12 651.857 77.1785   5
  -4   5 -12 655.649 89.8571   5
   4  -5  12 543.256 92.0652   8
   4   5  12 632.117 119.284   8
   4  -5  13 135.329 42.4978   2
  -4  -5 -13 170.502 43.1757   5
  -4   5 -13 136.420 42.3518   5
   4   5  13 3.08127 38.3204   8
  -4  -5 -14 13.8422 21.7325   5
  -4   5 -14 18.4904 29.2072   5
  -4  -6  14 361.606 90.6282   9
  -4   6  13 83.2128 63.1714  10
  -4  -6  13-52.8752 43.5720   9
  -4  -6  13 84.8415 63.4246   7
   4   6 -13 48.2638 51.0865   2
  -4   6  12 896.522 151.119  10
  -4  -6  12 1196.16 162.004   9
  -4  -6  12 1343.72 173.419   7
   4   6 -12 1147.33 172.234   2
  -4   6  11 575.075 121.862  10
  -4  -6  11 507.082 106.309   9
  -4  -6  11 486.168 104.963   7
   4   6 -11 469.404 108.840   2
  -4   6  10 35.9615 50.6752  10
  -4  -6  10-76.2544 67.3218   9
   4   6 -10 6.56224 38.6959   8
   4   6 -10-76.4924 53.5182   2
  -4  -6  10 10.6606 34.5795   7
  -4   6   9 207.351 72.7921  10
  -4  -6   9 32.1392 43.7503   9
   4  -6  -9 69.2340 34.9994   2
   4   6  -9 79.5600 30.5845   8
   4   6  -9 204.467 77.3885   2
  -4  -6   9 108.984 57.9776   7
  -4   6   8 104.777 65.2372  10
  -4  -6   8 133.419 55.3461   9
   4  -6  -8 80.2638 36.2504   2
   4   6  -8 162.105 56.7495   8
   4   6  -8 105.892 68.4505   2
  -4  -6   8 186.545 69.9522   7
  -4   6   7-4.92735 43.9706  10
   4  -6  -7-47.1463 37.3451   2
  -4  -6   7 136.558 70.3133   9
   4   6  -7 17.0770 32.6919   8
   4   6  -7-17.2304 48.8913   2
  -4  -6   7 103.214 54.0212   7
  -4   6   6 1253.74 168.535  10
  -4  -6   6 1013.03 137.694   9
   4  -6  -6 1166.36 112.530   8
   4   6  -6 1226.49 148.854   8
   4  -6  -6 1373.55 139.238   4
  -4  -6   6 1279.14 150.230   7
   4  -6  -6 1240.09 137.431   2
   4   6  -6 1237.62 164.899   2
  -4   6   5 1305.72 169.044  10
  -4  -6   5 1328.34 156.879   9
   4  -6  -5 1394.03 125.690   8
   4   6  -5 1012.95 139.437   8
   4  -6  -5 1375.13 142.479   4
  -4  -6   5 1307.59 148.812   7
   4  -6  -5 1182.96 133.474   2
   4   6  -5 1204.75 161.325   2
  -4   6   4 454.784 103.102  10
   4  -6  -4 378.912 78.3619   2
  -4  -6   4 591.129 106.059   9
   4  -6  -4 621.209 88.0226   8
  -4  -6   4 612.234 84.6160   5
   4   6  -4 421.843 86.1013   8
   4   6  -4 356.167 91.1736   2
   4  -6  -4 552.664 96.4295   4
  -4  -6   4 538.954 93.7453   7
  -4   6   3 1893.68 198.280  10
  -4  -6   3 1333.30 150.743   9
  -4  -6   3 1574.10 139.971   5
   4  -6  -3 1584.49 136.635   8
   4   6  -3 1314.95 157.930   8
   4  -6  -3 1499.88 156.560   4
  -4  -6   3 1365.91 142.656   7
   4  -6  -3 1627.57 155.226   2
   4   6  -3 1545.24 177.784   2
  -4   6   2 18.8329 39.8158  10
   4  -6  -2 6.25377 25.2858   2
  -4  -6   2 10.2457 33.4171   9
   4  -6  -2 37.4423 36.3183   8
  -4  -6   2-33.9618 36.7609   5
   4   6  -2 120.255 67.5420   8
   4   6  -2 69.4443 56.9460   2
   4  -6  -2-7.27385 38.1159   4
  -4  -6   2 40.0237 35.4666   7
  -4   6   1 977.473 140.750  10
  -4  -6   1 1150.79 116.573   5
  -4  -6   1 983.801 127.132   9
   4  -6  -1 1183.37 119.575   8
   4   6  -1 1185.61 148.666   8
   4   6  -1 1119.04 152.946   2
   4  -6  -1 1028.98 119.792   2
  -4  -6   1 1003.82 115.468   7
   4  -6  -1 1000.60 132.341   4
  -4   6   0 1076.17 146.581  10
   4  -6   0 856.431 106.802   2
  -4  -6   0 1009.05 104.630   5
  -4  -6   0 818.463 116.604   9
   4  -6   0 854.300 103.125   8
  -4   6   0 849.825 110.558   3
   4   6   0 1133.60 146.347   8
   4   6   0 1172.30 152.103   2
  -4  -6   0 892.101 105.063   7
   4  -6   0 864.154 128.722   4
  -4   6  -1 344.163 90.3491  10
   4  -6   1 399.920 73.3143   2
  -4  -6  -1 523.634 96.4892   9
  -4   6  -1 441.699 75.4680   3
   4  -6   1 393.425 75.5259   8
  -4  -6  -1 346.031 60.8305   5
   4   6   1 603.929 111.923   2
   4   6   1 530.270 100.994   8
   4  -6   1 504.213 97.2629   4
  -4  -6  -1 502.557 77.0783   7
  -4   6  -2 603.553 112.512  10
   4  -6   2 260.646 57.5443   2
  -4  -6  -2 308.305 68.1542   9
  -4   6  -2 411.179 81.7436   3
   4   6   2 549.089 100.464   2
   4  -6   2 420.824 77.8948   8
  -4  -6  -2 455.337 71.0166   5
   4   6   2 285.071 76.9286   8
   4  -6   2 415.479 102.437   4
  -4   6  -3 1436.63 136.532   3
  -4  -6  -3 1452.52 144.145   9
  -4  -6  -3 1413.30 120.478   5
  -4   6  -3 1678.83 164.907   5
   4  -6   3 1414.47 138.299   8
   4   6   3 1230.95 157.775   8
   4  -6   3 1467.52 136.331   2
   4   6   3 1541.92 169.050   2
   4  -6   3 1340.91 168.232   4
  -4   6  -4 1873.52 156.729   3
   4  -6   4 1978.24 199.781  11
  -4  -6  -4 1720.56 153.590   9
  -4  -6  -4 1834.14 133.254   5
  -4   6  -4 1976.11 177.423   5
   4  -6   4 1894.86 159.288   8
   4   6   4 1894.55 195.660   8
   4  -6   4 1639.59 142.718   2
   4   6   4 2021.59 188.922   2
   4  -6   5 3563.08 277.940  11
  -4  -6  -5 3453.38 216.751   9
  -4  -6  -5 3650.72 188.330   5
  -4   6  -5 3663.28 241.235   5
   4  -6   5 3662.68 225.993   8
   4   6   5 3598.86 270.891   8
   4  -6   5 3624.52 214.000   2
   4   6   5 3875.45 264.647   2
  -4   6  -5 3969.48 226.611   3
   4  -6   6 100.058 56.5518  11
   4  -6   6 92.5652 37.0382   2
   4   6   6 163.907 60.1976   2
  -4  -6  -6 133.071 43.9157   9
  -4  -6  -6 129.298 36.5320   5
   4  -6   6 120.529 46.8254   8
  -4   6  -6 66.3146 43.0665   5
   4   6   6 16.3836 32.3864   8
   4  -6   7 1101.81 159.823  11
  -4  -6  -7 1240.23 122.968   9
  -4  -6  -7 1051.47 97.3115   5
  -4   6  -7 1262.77 136.918   5
   4  -6   7 1115.86 126.364   8
   4  -6   7 1165.27 115.902   2
   4   6   7 1194.19 159.872   8
   4   6   7 1204.62 145.125   2
  -4  -6  -8 1134.37 113.832   9
  -4  -6  -8 1182.54 102.493   5
   4  -6   8 1347.60 139.760   8
  -4   6  -8 954.396 115.983   5
   4  -6   8 1039.42 109.635   2
   4   6   8 1169.89 156.325   8
   4   6   8 1322.79 143.686   2
   4  -6   9-31.7018 27.9805   2
   4   6   9-50.0516 46.4623   2
  -4  -6  -9 28.3728 25.6339   9
  -4  -6  -9 5.85955 22.2732   5
   4  -6   9 41.4281 34.4991   8
  -4   6  -9 58.3302 43.2629   5
   4   6   9-38.6918 43.9154   8
  -4  -6 -10 1567.21 113.732   5
  -4   6 -10 1416.17 136.238   5
   4  -6  10 1679.33 138.004   2
   4   6  10 1328.35 171.521   8
   4  -6  11 111.233 44.6742   2
  -4  -6 -11 113.266 35.5533   5
  -4   6 -11 28.1615 25.0512   5
   4   6  11 96.5767 65.4665   8
  -4  -6 -12 1217.15 99.3009   5
  -4   6 -12 911.223 106.323   5
   4  -6  12 1143.54 112.946   2
   4   6  12 930.569 142.777   8
  -4  -6 -13 2377.73 141.429   5
  -4   6 -13 2223.74 158.622   5
   4   6  13 2345.50 228.195   8
  -4  -7  13-55.3478 46.9924   9
  -4   7  12 25.6821 46.1197  10
  -4  -7  12 171.395 73.5215   9
  -4  -7  12 49.2334 53.4646   7
   4   7 -12 50.5048 52.9837   2
  -4   7  11 93.4974 60.0014  10
  -4  -7  11 132.052 73.2995   9
  -4  -7  11 6.67496 48.5190   7
   4   7 -11 118.682 72.6670   2
  -4   7  10 155.647 72.6854  10
  -4  -7  10 235.907 75.4858   9
   4   7 -10 190.322 55.1176   8
   4   7 -10 185.233 73.9141   2
  -4  -7  10 103.143 42.3505   7
  -4   7   9 60.1078 57.2763  10
  -4  -7   9 145.961 53.6842   9
   4   7  -9 8.19737 30.6211   8
   4   7  -9 30.4868 33.4994   2
  -4  -7   9 84.9215 54.4744   7
  -4   7   8 16.3880 54.0767  10
  -4  -7   8-39.6585 41.5512   9
   4   7  -8 112.823 54.6838   8
   4   7  -8 75.4758 57.0491   2
  -4  -7   8 64.0984 55.4237   7
  -4   7   7 3189.03 273.061  10
  -4  -7   7 3004.47 239.513   9
   4   7  -7 3532.79 256.389   8
   4  -7  -7 3184.11 218.482   4
  -4  -7   7 3162.25 238.883   7
   4  -7  -7 3165.62 216.494   2
   4   7  -7 3373.80 280.812   2
  -4   7   6 172.081 70.1158  10
   4  -7  -6 309.999 67.4620   2
  -4  -7   6 301.342 87.8102   9
   4   7  -6 242.177 71.6058   8
   4   7  -6 245.244 80.1049   2
   4  -7  -6 285.707 71.3741   4
  -4  -7   6 215.149 56.2807   7
  -4   7   5 7582.93 421.517  10
  -4  -7   5 7523.22 380.607   9
   4   7  -5 7033.91 375.753   8
   4  -7  -5 8216.24 372.659   4
   4  -7  -5 7784.78 349.371   2
  -4  -7   5 7442.10 361.432   7
   4   7  -5 7812.27 427.911   2
  -4   7   4 4057.10 299.370  10
  -4  -7   4 4211.90 273.735   9
   4   7  -4 3781.16 270.369   8
   4  -7  -4 3746.49 251.871   4
   4  -7  -4 3835.06 235.755   2
  -4  -7   4 4024.83 250.334   7
   4   7  -4 3762.54 291.062   2
  -4   7   3 65.5189 60.2934  10
   4  -7  -3-8.20691 32.1729   2
  -4  -7   3 64.0294 57.0034   9
   4   7  -3 44.8672 42.7379   8
   4   7  -3 85.9285 61.9527   2
   4  -7  -3 19.8373 40.2127   4
  -4  -7   3 72.4066 36.1599   7
  -4   7   2 291.764 85.7439  10
   4  -7  -2 435.674 79.9758   2
  -4  -7   2 298.829 75.2129   9
   4   7  -2 287.406 83.2458   8
   4   7  -2 280.723 83.5319   2
   4  -7  -2 366.908 84.5424   4
  -4  -7   2 462.692 79.1264   7
  -4   7   1 25.8724 48.6367  10
   4  -7  -1 61.1991 22.6766   2
  -4  -7   1 73.3312 40.8737   9
   4   7  -1 43.1766 33.9740   8
   4   7  -1 138.922 65.4530   2
   4  -7  -1 158.267 66.8968   4
  -4  -7   1 67.7443 35.5842   7
  -4   7   0 146.992 65.1950  10
   4  -7   0 179.431 47.4928   2
  -4  -7   0 154.831 51.8934   9
  -4   7   0 96.4688 46.5476   3
   4  -7   0 149.805 52.4842   8
  -4  -7   0 108.358 40.6932   5
   4   7   0 68.8148 41.6442   2
   4   7   0 61.0263 46.4278   8
   4  -7   0 62.1200 46.3030   4
  -4  -7   0 135.903 47.4842   7
  -4   7  -1 665.925 117.077  10
   4  -7   1 532.647 81.6337   2
  -4  -7  -1 451.943 85.7662   9
  -4   7  -1 532.697 90.7791   3
   4  -7   1 597.301 90.6115   8
  -4  -7  -1 450.366 68.4515   5
   4   7   1 634.528 112.673   2
   4   7   1 561.087 107.778   8
   4  -7   1 491.835 103.499   4
  -4  -7  -1 520.870 79.2997   7
  -4   7  -2 16.6482 36.8513  10
   4  -7   2 14.1231 23.7902   2
  -4  -7  -2 28.0725 44.3320   9
  -4   7  -2 138.195 46.5981   3
   4   7   2 122.290 62.4573   2
   4  -7   2 76.0604 40.7979   8
  -4  -7  -2 58.6199 35.1437   5
   4   7   2 34.2764 31.5773   8
   4  -7   2 48.6845 53.0180   4
  -4   7  -3 8519.07 369.720   3
  -4  -7  -3 7485.26 342.886   9
  -4  -7  -3 8041.99 291.461   5
  -4   7  -3 7797.95 375.784   5
   4  -7   3 8545.07 350.747   8
   4   7   3 7692.08 411.542   8
   4  -7   3 7707.38 323.025   2
   4  -7   3 7370.89 408.833   4
   4   7   3 8919.56 423.233   2
  -4   7  -4 2494.70 191.027   3
  -4  -7  -4 2698.70 194.096   9
  -4  -7  -4 2690.60 156.112   5
  -4   7  -4 2896.47 217.869   5
   4   7   4 2328.16 224.093   8
   4  -7   4 2617.14 178.993   2
   4  -7   4 2763.70 249.295   4
   4   7   4 3063.54 237.866   2
   4  -7   5 295.266 87.0768  11
   4  -7   5 491.376 73.9661   2
  -4   7  -5 368.931 75.5159   3
  -4  -7  -5 458.693 78.2572   9
   4   7   5 526.129 99.7294   2
  -4  -7  -5 406.216 58.7278   5
  -4   7  -5 456.444 89.4448   5
   4   7   5 565.803 114.571   8
   4  -7   5 467.294 105.424   4
   4  -7   6 1020.47 150.890  11
  -4  -7  -6 1306.46 128.827   9
  -4  -7  -6 1101.50 97.3002   5
  -4   7  -6 1210.13 137.865   5
   4  -7   6 1260.94 121.041   2
   4   7   6 1219.99 161.135   8
   4   7   6 1344.29 154.189   2
  -4   7  -6 1220.83 129.225   3
   4  -7   7 7.08056 51.8768  11
   4  -7   7-28.6097 26.6942   2
   4   7   7 21.0061 34.8056   2
  -4  -7  -7 51.1557 41.4345   9
  -4  -7  -7-7.11632 18.7161   5
  -4   7  -7 84.9290 55.7743   5
   4   7   7 43.4881 44.2131   8
   4  -7   8 3.50075 47.8317  11
   4  -7   8 24.4947 20.6628   2
  -4  -7  -8 51.2122 30.4644   9
  -4  -7  -8 41.3610 24.1384   5
  -4   7  -8 101.906 52.7795   5
   4   7   8 9.64546 42.0229   8
   4  -7   9 81.0195 61.7521  11
   4  -7   9 152.678 45.2869   2
  -4  -7  -9 162.593 46.6712   9
  -4  -7  -9 168.174 37.1988   5
  -4   7  -9 220.151 56.9734   5
   4   7   9 176.386 59.9665   8
   4  -7  10 49.7697 30.8138   2
  -4  -7 -10 60.6598 27.5754   9
  -4  -7 -10 54.6954 27.7041   5
  -4   7 -10-14.2365 30.6132   5
   4   7  10-56.5669 60.2687   8
   4  -7  11 94.2320 36.7780   2
  -4  -7 -11 111.969 36.4495   5
  -4   7 -11 67.4551 33.9372   5
   4   7  11 85.7333 66.0468   8
  -4  -7 -12 678.107 74.2858   5
  -4   7 -12 594.180 85.7224   5
   4   7  12 621.608 118.370   8
  -4  -7 -13 1423.34 108.361   5
  -4   7 -13 1318.67 123.570   5
   4   7  13 1184.69 165.747   8
  -4  -8  12 55.9393 52.5827   9
  -4   8  11 882.942 151.202  10
  -4  -8  11 1245.07 164.398   9
  -4  -8  11 1251.15 161.850   7
   4   8 -11 897.505 153.690   2
  -4   8  10 74.2325 66.6689  10
  -4  -8  10 90.6947 50.4955   9
   4   8 -10 67.7104 51.0105   8
  -4  -8  10 69.4931 37.2943   7
   4   8 -10 74.9344 46.9077   2
  -4   8   9 1381.41 186.383  10
  -4  -8   9 1479.88 172.273   9
   4   8  -9 1378.14 164.518   8
  -4  -8   9 1711.23 181.778   7
   4   8  -9 1577.30 197.011   2
  -4   8   8 104.271 65.5342  10
  -4  -8   8 157.029 67.9843   9
   4   8  -8 204.713 66.6248   8
   4   8  -8 231.574 85.8849   2
  -4  -8   8 249.850 77.4066   7
  -4   8   7 640.620 128.520  10
  -4  -8   7 520.936 105.163   9
   4   8  -7 427.203 96.6335   8
   4  -8  -7 621.705 101.670   4
   4   8  -7 724.772 131.569   2
  -4  -8   7 445.148 95.5051   7
  -4   8   6 2269.83 232.626  10
  -4  -8   6 2266.88 205.365   9
   4   8  -6 2267.81 210.940   8
   4  -8  -6 2315.00 195.238   4
  -4  -8   6 2466.23 205.999   7
   4   8  -6 2236.53 229.266   2
  -4   8   5 2602.77 248.397  10
  -4  -8   5 2279.71 203.775   9
   4   8  -5 2463.66 220.988   8
   4  -8  -5 2959.00 222.959   4
   4  -8  -5 2360.99 176.957   2
  -4  -8   5 2436.05 203.529   7
   4   8  -5 2472.98 240.894   2
  -4   8   4 2805.54 253.239  10
  -4  -8   4 2732.31 220.722   9
   4   8  -4 2398.05 216.315   8
   4  -8  -4 2768.36 221.103   4
   4  -8  -4 2754.06 189.921   2
  -4  -8   4 2982.51 215.195   7
   4   8  -4 2793.03 255.007   2
  -4   8   3 2424.71 232.527  10
  -4  -8   3 2631.30 213.772   9
   4   8  -3 2374.97 218.221   8
   4  -8  -3 2614.47 183.233   2
   4  -8  -3 2427.11 210.280   4
  -4  -8   3 2677.21 199.248   7
   4   8  -3 2643.86 244.387   2
  -4   8   2 1487.84 183.492  10
  -4  -8   2 1690.06 168.223   9
   4   8  -2 1636.50 181.809   8
   4  -8  -2 1616.40 143.244   2
   4  -8  -2 1814.78 184.799   4
  -4  -8   2 1777.44 159.615   7
   4   8  -2 1924.04 202.036   2
  -4   8   1 1774.00 193.467  10
  -4   8   1 1495.24 164.785   3
  -4  -8   1 1540.57 156.032   9
   4   8  -1 1717.25 188.169   8
   4  -8  -1 1810.15 149.280   2
   4  -8  -1 1573.86 173.771   4
  -4  -8   1 1915.33 159.290   7
   4   8  -1 1666.41 190.072   2
  -4   8   0 4084.15 273.083   3
  -4   8   0 4148.02 295.060  10
  -4  -8   0 3743.19 245.164   9
   4   8   0 4084.70 293.061   8
   4  -8   0 4179.55 229.965   2
   4  -8   0 3818.17 279.922   4
  -4  -8   0 4281.62 235.209   7
   4   8   0 4732.32 318.430   2
  -4   8  -1 5224.96 306.273   3
  -4   8  -1 5276.34 333.602  10
  -4  -8  -1 5396.04 292.467   9
   4   8   1 5504.05 343.049   8
   4  -8   1 5284.39 259.494   2
   4  -8   1 5411.25 339.912   4
  -4  -8  -1 5469.16 262.406   7
   4   8   1 5747.21 350.553   2
  -4   8  -2 321.186 85.4472  10
   4  -8   2 346.071 68.6852   2
  -4  -8  -2 436.306 86.8718   9
  -4   8  -2 286.011 70.2957   3
   4   8   2 318.911 84.9911   2
  -4   8  -2 493.254 97.8971   5
   4   8   2 329.317 92.2014   8
   4  -8   2 384.510 97.1388   4
  -4   8  -3 3496.14 240.141   3
  -4  -8  -3 3493.19 226.456   9
  -4   8  -3 3634.27 252.571   5
   4   8   3 2928.16 253.482   8
   4  -8   3 3389.66 201.522   2
   4  -8   3 3657.31 285.973   4
   4   8   3 3825.98 277.173   2
  -4   8  -4 1250.35 141.511   3
  -4  -8  -4 1343.98 135.552   9
  -4   8  -4 1293.25 147.436   5
   4   8   4 1215.90 152.284   2
   4  -8   4 1264.98 120.004   2
   4   8   4 1268.93 167.403   8
   4  -8   4 964.052 149.131   4
   4  -8   5 5.22605 22.6131   2
  -4   8  -5 8.39737 28.3695   3
  -4  -8  -5 21.5213 32.4961   9
   4   8   5-63.9337 50.5138   2
  -4   8  -5 40.5016 37.2114   5
   4  -8   5-12.9793 54.6544   4
   4  -8   6 157.097 49.5946   2
  -4   8  -6 149.161 45.0394   3
   4   8   6 237.334 71.1832   2
  -4  -8  -6 137.125 45.9337   9
  -4  -8  -6 157.693 36.3857   5
  -4   8  -6 205.763 61.8123   5
   4   8   6 98.2631 60.3303   8
   4  -8   6 179.033 74.8727   4
   4  -8   7 290.619 103.417  11
   4  -8   7 222.959 50.6077   2
  -4   8  -7 227.185 62.7836   3
  -4  -8  -7 269.446 60.7951   9
  -4  -8  -7 203.544 43.1859   5
  -4   8  -7 302.099 68.9911   5
   4   8   7 235.603 76.9821   8
   4  -8   7 263.403 77.7587   4
   4  -8   8-37.4879 48.4706  11
   4  -8   8 24.3333 28.5742   2
  -4  -8  -8 92.3821 45.6326   9
  -4  -8  -8 28.4128 19.8410   5
  -4   8  -8-62.6168 41.2639   5
   4   8   8 57.5511 47.7486   8
   4  -8   9 32.7539 47.0180  11
   4  -8   9 15.3315 27.5747   2
  -4  -8  -9 75.4000 39.8978   9
  -4  -8  -9 82.7732 36.4013   5
  -4   8  -9 7.36331 40.5783   5
   4   8   9 30.6222 48.5435   8
   4  -8  10 2874.42 274.167  11
  -4  -8 -10 2296.72 159.313   9
  -4  -8 -10 2481.28 137.076   5
  -4   8 -10 2236.51 172.211   5
   4   8  10 2754.35 257.980   8
   4  -8  10 2495.62 167.964   2
   4  -8  11 687.759 142.696  11
  -4  -8 -11 938.361 84.0012   5
  -4   8 -11 799.205 101.070   5
   4   8  11 793.070 136.613   8
  -4  -8 -12 19.9405 23.4718   5
  -4   8 -12 46.2149 27.5933   5
   4   8  12 117.538 55.6423   8
  -4  -9  11 316.069 93.6964   9
  -4  -9  10 66.2618 42.6667   9
   4   9 -10 0.82309 36.4551   8
  -4   9   9 227.326 82.9380  10
  -4  -9   9 305.621 86.5567   9
   4   9  -9 137.899 50.5684   8
   4   9  -9 149.926 60.1146   2
  -4  -9   9 476.898 106.535   7
  -4   9   8 1764.81 218.016  10
  -4  -9   8 1803.85 186.829   9
   4   9  -8 1608.65 179.529   8
   4  -9  -8 1906.53 179.122   4
  -4  -9   8 1661.32 177.386   7
   4   9  -8 1793.96 211.346   2
  -4   9   7 368.999 97.7979  10
  -4  -9   7 561.045 102.226   9
   4   9  -7 468.594 105.136   8
   4  -9  -7 378.717 88.5684   4
   4   9  -7 501.292 114.897   2
  -4  -9   7 251.014 70.5208   7
  -4   9   6 1555.27 193.566  10
  -4  -9   6 1520.00 167.682   9
   4   9  -6 1276.44 164.333   8
   4  -9  -6 1561.42 166.584   4
  -4  -9   6 1629.80 168.453   7
   4   9  -6 1693.98 199.598   2
  -4   9   5 2771.18 260.049  10
  -4  -9   5 2527.58 216.998   9
   4   9  -5 2914.47 243.376   8
   4  -9  -5 2827.30 226.411   4
  -4  -9   5 2830.89 217.672   7
   4   9  -5 2666.00 253.178   2
  -4   9   4 3590.01 289.382  10
  -4  -9   4 3412.18 246.032   9
   4   9  -4 3407.76 268.221   8
   4  -9  -4 3671.51 262.191   4
  -4  -9   4 3698.34 242.783   7
   4   9  -4 3373.62 281.439   2
  -4   9   3 3893.93 300.839  10
  -4  -9   3 3745.64 255.301   9
   4   9  -3 3729.44 282.141   8
   4  -9  -3 3997.85 222.532   2
   4  -9  -3 4114.90 283.665   4
  -4  -9   3 4044.47 247.997   7
   4   9  -3 4707.31 333.492   2
  -4   9   2-1.35886 53.4986  10
   4  -9  -2-11.5183 24.8250   2
  -4  -9   2-31.2482 37.4864   9
  -4   9   2-27.3986 43.3126   3
   4   9  -2 3.96712 34.7481   8
   4   9  -2 103.176 69.1517   2
   4  -9  -2-0.13288 37.4961   4
  -4  -9   2 0.19223 26.8729   7
  -4   9   1 415.752 96.9712  10
   4  -9  -1 370.736 62.3212   2
  -4  -9   1 458.710 88.3170   9
  -4   9   1 350.829 87.2276   3
   4   9  -1 453.609 102.092   8
   4   9  -1 455.861 110.377   2
   4  -9  -1 376.672 89.1199   4
  -4  -9   1 525.845 86.7394   7
  -4   9   0-37.3341 59.6889  10
   4  -9   0 36.8602 34.1584   2
  -4  -9   0-19.5607 42.4868   9
  -4   9   0 43.3263 45.9869   3
   4   9   0 50.8743 37.9969   8
   4   9   0 63.9700 45.0888   2
   4  -9   0 27.7301 48.1001   4
  -4  -9   0 107.203 46.1901   7
  -4   9  -1 856.240 139.188  10
  -4  -9  -1 1043.05 127.832   9
  -4   9  -1 729.516 116.489   3
   4  -9   1 1017.72 108.374   2
   4   9   1 953.154 149.935   2
   4   9   1 922.435 147.636   8
  -4  -9  -1 888.451 105.179   7
   4  -9   1 729.567 128.227   4
  -4   9  -2 8435.21 404.460   3
  -4   9  -2 8359.70 430.151  10
  -4  -9  -2 8095.54 364.484   9
  -4   9  -2 8632.04 408.295   5
   4   9   2 8113.75 435.527   8
   4  -9   2 8092.98 322.055   2
   4  -9   2 7463.16 423.413   4
   4   9   2 9321.58 453.047   2
  -4   9  -3 9059.22 414.417   3
  -4  -9  -3 8813.46 373.384   9
  -4   9  -3 8598.24 406.428   5
   4   9   3 8896.86 462.275   8
   4  -9   3 8223.14 325.309   2
   4  -9   3 8441.67 454.338   4
   4   9   3 9840.02 458.177   2
   4  -9   4 143.908 44.2728   2
  -4   9  -4 53.1878 30.1565   3
  -4  -9  -4 256.034 64.6822   9
   4   9   4 167.292 57.9994   2
  -4   9  -4 163.348 68.1238   5
   4   9   4 348.248 98.1052   8
   4  -9   4 189.377 72.5110   4
   4  -9   5 303.719 57.8883   2
  -4   9  -5 351.775 80.3224   3
  -4  -9  -5 258.346 61.8360   9
  -4   9  -5 342.334 77.8145   5
   4   9   5 327.715 82.3434   8
   4  -9   5 325.330 100.521   4
   4  -9   6-35.2757 31.0498   2
  -4   9  -6 76.8091 46.1667   3
  -4  -9  -6 34.9145 43.1152   9
  -4   9  -6 54.7500 37.2987   5
   4   9   6-34.9039 54.1140   8
   4  -9   6 79.8876 62.0761   4
   4  -9   7 195.981 49.1555   2
  -4   9  -7 264.205 62.4466   3
  -4  -9  -7 516.677 82.1914   9
  -4   9  -7 326.558 76.9017   5
   4   9   7 367.375 105.629   8
   4  -9   7 202.353 77.2117   4
   4  -9   8 545.436 112.392  11
   4  -9   8 642.237 84.1854   2
  -4  -9  -8 607.208 88.4316   9
  -4   9  -8 611.494 95.0013   5
   4   9   8 580.773 122.502   8
   4  -9   8 613.434 130.571   4
   4  -9   9 36.7451 53.4720  11
   4  -9   9-9.33026 21.9049   2
  -4  -9  -9-15.7384 39.3580   9
  -4   9  -9 9.63341 31.4156   5
   4   9   9 61.7989 59.9431   8
   4  -9   9-25.0852 56.8218   4
  -4  -9 -10-11.3431 28.0343   9
  -4   9 -10-2.52911 37.6852   5
   4   9  10 15.5135 41.7651   8
  -4   9 -11 4000.80 227.484   5
   4   9  11 3949.96 317.348   8
   4  10 -10 128.689 60.0736   8
  -4 -10   9 184.783 78.4669   9
   4  10  -9 131.391 60.4384   8
  -4  10   8 446.938 112.529  10
  -4 -10   8 427.206 96.0786   9
   4  10  -8 442.811 98.7687   8
   4 -10  -8 465.644 97.4421   4
   4  10  -8 662.137 136.454   2
  -4 -10   8 503.060 106.882   7
  -4  10   7 371.074 105.815  10
  -4 -10   7 237.339 76.0402   9
   4  10  -7 140.104 62.4589   8
   4 -10  -7 241.774 72.6844   4
   4  10  -7 118.998 55.6737   2
  -4 -10   7 263.684 76.5222   7
  -4  10   6 324.962 100.738  10
  -4 -10   6 372.087 85.8987   9
   4  10  -6 277.130 79.5862   8
   4 -10  -6 530.862 99.9272   4
   4  10  -6 360.661 102.224   2
  -4 -10   6 520.098 100.098   7
  -4  10   5 120.538 78.1531  10
  -4 -10   5 24.6742 46.2550   9
   4  10  -5 71.1205 47.1079   8
   4  10  -5 59.3610 59.0636   2
   4 -10  -5 121.582 62.3214   4
  -4 -10   5 91.7598 44.6644   7
  -4  10   4 13.7490 42.5493  10
  -4 -10   4 108.097 50.5758   9
   4  10  -4 20.1349 50.4803   8
   4  10  -4 74.7476 49.4235   2
   4 -10  -4-8.16875 43.1131   4
  -4 -10   4 78.2040 50.0906   7
  -4  10   3 974.722 156.952  10
  -4 -10   3 881.352 123.147   9
  -4  10   3 945.548 146.094   3
   4  10  -3 742.908 128.337   8
   4  10  -3 985.860 159.413   2
   4 -10  -3 892.398 135.960   4
  -4 -10   3 988.902 124.491   7
  -4  10   2 920.633 147.012  10
  -4 -10   2 748.264 113.422   9
  -4  10   2 1041.37 149.612   3
   4  10  -2 918.099 141.961   8
   4  10  -2 1193.11 168.087   2
   4 -10  -2 1148.24 151.544   4
  -4 -10   2 930.783 118.136   7
  -4  10   1-78.1578 64.2511  10
   4 -10  -1 18.7619 25.3244   2
  -4 -10   1 26.2710 48.2091   9
  -4  10   1-4.35457 35.3751   3
   4  10  -1 0.59955 33.2026   8
   4  10  -1 90.4569 53.2932   2
   4 -10  -1-31.3738 47.2631   4
  -4 -10   1 14.9102 33.7377   7
  -4  10   0 3252.55 261.293   3
  -4  10   0 3511.65 280.126  10
  -4 -10   0 2757.60 209.953   9
   4  10   0 3068.45 265.210   8
   4 -10   0 2918.02 179.563   2
   4 -10   0 3225.57 266.314   4
  -4 -10   0 3230.27 210.427   7
   4  10   0 3398.56 279.208   2
  -4  10  -1 812.228 138.626  10
  -4 -10  -1 682.593 107.938   9
  -4  10  -1 770.542 134.779   3
   4 -10   1 759.636 90.7010   2
   4  10   1 824.665 139.013   2
   4  10   1 814.973 135.302   8
   4 -10   1 561.754 113.642   4
  -4  10  -2 803.692 133.738  10
  -4 -10  -2 734.459 113.877   9
  -4  10  -2 755.527 124.522   3
   4 -10   2 831.707 94.6873   2
   4  10   2 642.795 118.654   2
  -4  10  -2 711.668 115.555   5
   4  10   2 628.776 123.845   8
   4 -10   2 651.760 128.314   4
   4 -10   3 537.726 75.1901   2
  -4  10  -3 349.133 78.9009   3
  -4 -10  -3 357.743 74.8289   9
  -4  10  -3 307.832 80.7462   5
   4  10   3 270.600 91.8481   8
   4 -10   3 502.828 109.040   4
   4 -10   4-33.8361 30.6762   2
  -4  10  -4 78.6518 46.8565   3
  -4 -10  -4 51.5930 39.9317   9
  -4  10  -4 5.62717 39.6669   5
   4  10   4-2.10433 47.5878   8
   4 -10   4 117.463 60.8809   4
   4 -10   5 319.125 59.1084   2
  -4  10  -5 291.765 73.2796   3
  -4 -10  -5 364.861 79.6895   9
  -4  10  -5 308.393 76.2232   5
   4  10   5 232.523 80.1295   8
   4 -10   5 286.407 90.7074   4
   4 -10   6 237.658 53.0684   2
  -4  10  -6 216.230 70.0976   3
  -4 -10  -6 212.604 65.7198   9
  -4  10  -6 275.505 69.2091   5
   4  10   6 238.381 91.2428   8
   4 -10   6 487.174 122.216   4
   4 -10   7 146.910 45.6981   2
  -4  10  -7 131.540 57.5937   3
  -4 -10  -7 137.211 51.1399   9
  -4  10  -7 106.555 46.0737   5
   4  10   7 220.848 93.6093   8
   4 -10   7 97.7330 45.1195   4
  -4 -10  -8 3862.62 222.931   9
  -4  10  -8 4267.62 252.856   5
   4 -10   8 4331.26 219.304   2
   4  10   8 4328.30 337.922   8
  -4  10  -8 4192.16 277.846   3
  -4 -10  -9 1226.65 122.816   9
   4  10   9 1172.76 173.328   8
  -4 -10 -10 4832.37 242.211   9
   4 -11  -8 111.631 51.1540   4
   4  11  -7 376.223 93.1340   8
   4 -11  -7 335.129 85.3449   4
   4  11  -7 470.953 110.123   2
  -4  11   6 577.878 132.157  10
   4  11  -6 614.514 117.716   8
   4 -11  -6 630.050 117.264   4
   4  11  -6 801.126 149.641   2
  -4 -11   6 663.062 112.371   7
  -4  11   5 117.697 73.8635  10
  -4 -11   5 28.8692 50.8733   9
   4  11  -5 56.1024 46.5498   8
   4  11  -5 55.5192 50.4274   2
   4 -11  -5 28.2773 50.6974   4
  -4 -11   5 25.8694 34.8349   7
  -4  11   4 223.910 93.3617  10
  -4 -11   4 236.720 66.5213   9
  -4  11   4 227.919 86.8289   3
   4  11  -4 252.752 80.9535   8
   4  11  -4 423.426 108.595   2
   4 -11  -4 194.885 67.2046   4
  -4 -11   4 264.560 73.2643   7
  -4  11   3 747.688 141.809  10
  -4 -11   3 826.337 122.723   9
  -4  11   3 956.724 156.416   3
   4  11  -3 869.438 142.824   8
   4  11  -3 879.585 154.213   2
   4 -11  -3 892.024 139.477   4
  -4 -11   3 949.421 128.227   7
  -4  11   2 2494.55 245.177   3
  -4  11   2 2225.02 233.756  10
  -4 -11   2 2197.36 192.508   9
   4  11  -2 1831.29 207.604   8
   4 -11  -2 2347.93 224.786   4
  -4 -11   2 2624.45 200.940   7
   4  11  -2 2599.15 252.566   2
  -4  11   1 760.794 138.267  10
  -4 -11   1 941.486 130.025   9
  -4  11   1 818.061 140.290   3
   4  11  -1 877.192 142.285   8
   4  11  -1 870.415 143.831   2
   4 -11  -1 920.337 141.039   4
  -4 -11   1 770.906 105.168   7
  -4  11   0 1425.00 186.568  10
  -4 -11   0 1164.51 140.159   9
  -4  11   0 1271.71 170.148   3
   4  11   0 1278.92 173.036   8
  -4 -11   0 1389.36 138.462   7
   4 -11   0 1376.77 177.266   4
   4 -11   1 11.2534 29.1475   2
  -4  11  -1-58.7727 62.1457  10
  -4 -11  -1 37.6198 33.5050   9
  -4  11  -1 29.5708 32.8780   3
  -4  11  -1-67.1693 65.2106   5
   4  11   1 2.42139 39.6417   8
   4 -11   1 76.8389 65.9929   4
  -4 -11  -2 1033.14 126.856   9
  -4  11  -2 1358.39 170.354   3
   4 -11   2 978.925 99.7931   2
  -4  11  -2 935.046 134.666   5
   4  11   2 1051.49 161.918   8
   4 -11   2 974.041 153.533   4
   4 -11   3 14.7672 16.7023   2
  -4  11  -3-53.0143 49.0393   3
  -4 -11  -3 37.4577 45.9858   9
  -4  11  -3-12.5677 37.4475   5
   4  11   3-31.2856 52.0956   8
   4 -11   3-8.55747 43.1244   4
   4 -11   4 23.1379 21.9263   2
  -4  11  -4 89.3158 61.4568   3
  -4 -11  -4 31.5272 30.9327   9
  -4  11  -4-30.5650 59.5440   5
   4  11   4 127.155 67.3578   8
   4 -11   4 112.771 66.3187   4
   4 -11   5 29.3077 17.3954   2
  -4 -11  -5 57.3822 38.2270   9
   4  11   5 102.358 69.2334   8
   4 -11   6 248.805 50.7325   2
  -4  11  -6 304.040 78.0919   3
  -4  11  -7 1346.44 163.219   3
   4 -11   7 1508.99 124.815   2
  -4  11  -8 86.5102 45.2450   3
   4  12  -5 2605.69 265.195   2
  -4  12   4 326.541 100.207  10
   4  12  -4 333.929 105.563   2
  -4 -12   4 292.994 79.2671   7
  -4  12   3 466.762 112.025  10
   4  12  -3 236.954 81.4097   2
  -4 -12   3 436.991 88.8579   7
  -4  12   2-15.5987 58.3252  10
  -4 -12   2 128.063 52.0734   7
  -4  12   1 561.178 121.195  10
  -4 -12   1 591.012 93.1260   7
  -4  12   0 951.663 152.746  10
  -4  12   0 861.957 148.600   3
  -4  12  -1 99.6258 61.3014  10
  -4  12  -1 69.3568 38.4568   3
  -4  12  -2 880.977 142.744   3
  -4  12  -3 776.050 135.937   3
   4 -12   4 691.587 81.4902   2
   4 -12   5 599.479 76.8579   2
  -5   0  10 1170.89 173.047  10
  -5   0   9 24.0573 49.2586  10
   5   0  -9 10.8034 55.4838   2
  -5   0   9-18.8315 57.2909   7
  -5   0   8 1796.34 208.112  10
   5   0  -8 1268.62 178.378   2
  -5   0   8 2170.27 237.566   7
  -5   0   7 3.77242 55.0154  10
   5   0  -7 39.6402 54.6382   2
   5   0  -7 44.3280 46.9736   8
  -5   0   7-32.5421 56.9103   7
  -5   0   6 21.2070 50.9719  10
   5   0  -6-83.2275 75.7303   2
   5   0  -6 38.3960 42.2185   8
  -5   0   6 25.1318 73.0340   7
  -5   0   5-37.3288 60.1185  10
   5   0  -5 10.9475 32.3054   2
   5   0  -5 17.9639 37.8163   8
  -5   0   5-38.9762 51.8178   7
  -5   0   4 1264.80 167.864  10
   5   0  -4 1225.95 169.309   2
   5   0  -4 1094.01 144.642   8
  -5   0   4 1318.69 170.413   7
  -5   0   3-19.6711 48.9470  10
   5   0  -3-44.3630 49.1477   2
   5   0  -3 15.1674 42.3012   8
  -5   0   3 35.5558 50.6936   7
  -5   0   2 855.504 137.135  10
   5   0  -2 978.289 152.587   2
   5   0  -2 847.677 130.648   8
  -5   0   2 861.966 131.664   7
  -5   0   1-13.8853 41.0483   9
   5   0  -1 146.097 54.8416   2
   5   0  -1-31.2904 40.3866   8
  -5   0   1-36.7223 69.8054   5
   5   0   0 1184.51 159.708   2
  -5   0   0 879.383 139.822   9
   5   0   0 952.709 140.349   8
  -5   0   0 926.804 133.793   5
   5   0   1-16.7089 34.1650   2
  -5   0  -1 47.4489 60.6708   9
   5   0   1-7.96343 40.8121   8
  -5   0  -1-3.58785 45.9357   5
   5   0   2 3971.13 290.453  11
  -5   0  -2 4016.75 284.015   9
  -5   0  -2 4112.38 276.789   5
   5   0   2 4055.00 292.473   8
   5   0   2 4476.26 308.309   2
   5   0   3-7.28839 56.9433  11
   5   0   3 104.032 56.5805   2
  -5   0  -3 19.4942 39.9245   9
  -5   0  -3 11.8956 47.3295   5
   5   0   3 18.5283 37.8583   8
   5   0   4 9447.02 478.248  11
  -5   0  -4 9209.44 423.966   9
  -5   0  -4 9493.09 429.221   5
   5   0   4 9925.20 471.093   8
   5   0   4 10109.1 467.590   2
   5   0   5 18.2715 33.4377   2
  -5   0  -5 10.5478 42.6880   5
   5   0   5-4.63848 41.7387   8
   5   0   6 194.506 65.8745   2
  -5   0  -6 129.295 45.9491   5
   5   0   6 114.361 55.2487   8
   5   0   7 0.49278 39.1497   2
  -5   0  -7 1.28985 32.3688   5
   5   0   7-24.1811 58.9337   8
   5   0   8-9.12236 30.9077   2
  -5   0  -8-107.778 64.6296   5
   5   0   8-35.5364 67.9795   8
  -5  -1  11 2621.64 259.569  10
  -5   1  10 1871.48 223.814  10
  -5  -1  10 1451.27 192.572  10
  -5  -1   9-22.2115 64.3047  10
  -5   1   9 32.3113 66.2239  10
   5  -1  -9-16.3592 48.3447   2
   5   1  -9-10.0477 41.0417   2
  -5  -1   9-42.2407 66.0112   7
  -5  -1   8 140.736 64.7607  10
  -5   1   8 24.5292 82.6377  10
   5  -1  -8-27.6236 35.5565   2
   5   1  -8 10.9561 35.4813   8
   5   1  -8 80.8611 52.7011   2
  -5  -1   8 152.683 75.3215   7
  -5  -1   7 257.199 84.6267  10
  -5   1   7 393.238 104.314  10
   5  -1  -7 411.375 103.473   2
   5  -1  -7 323.389 76.7980   8
   5   1  -7 433.898 94.0052   8
   5   1  -7 471.153 114.181   2
  -5  -1   7 251.516 85.4365   7
  -5  -1   6 1940.54 206.897  10
  -5   1   6 2019.29 216.915  10
   5  -1  -6 1505.23 161.887   8
   5   1  -6 1837.15 186.206   8
  -5  -1   6 1952.21 213.740   7
   5  -1  -6 1911.66 208.657   2
   5   1  -6 1678.66 204.468   2
  -5  -1   5 643.644 115.578  10
  -5   1   5 455.185 105.776  10
   5  -1  -5 525.137 111.710   2
   5   1  -5 623.996 121.503   2
   5  -1  -5 429.276 88.0332   8
   5   1  -5 719.620 119.811   8
  -5  -1   5 619.576 122.309   7
  -5  -1   4-13.8208 44.6709  10
  -5   1   4 36.6220 52.1714  10
  -5  -1   4-97.6196 67.3612   9
   5  -1  -4 40.1675 33.8477   2
   5   1  -4-71.6349 56.7596   2
   5  -1  -4-22.7234 54.4695   8
   5   1  -4-19.4250 37.4998   8
  -5  -1   4-56.6225 57.4301   7
  -5  -1   3 98.3250 65.9148  10
  -5   1   3 49.7223 47.1192  10
  -5  -1   3 43.8051 54.2876   9
   5  -1  -3 18.3967 36.9019   2
   5   1  -3 116.841 63.1108   2
   5  -1  -3-9.26475 33.6235   8
   5   1  -3 11.5280 34.4952   8
  -5  -1   3-34.9374 51.3175   7
  -5  -1   2 13.0910 47.2966  10
  -5   1   2 97.7174 69.9318  10
  -5  -1   2 35.6113 55.4372   9
   5  -1  -2 10.6500 48.8189   2
   5   1  -2 10.3401 47.4550   2
   5  -1  -2-20.7160 50.4489   8
   5   1  -2-14.5252 52.8267   8
  -5  -1   2-63.4396 55.4164   7
  -5   1   1 921.401 147.424  10
   5  -1  -1 971.322 143.560   2
  -5  -1   1 732.871 129.306   9
   5   1  -1 939.584 143.392   2
   5  -1  -1 715.011 118.879   8
   5   1  -1 923.918 137.177   8
  -5  -1   1 873.505 131.427   5
   5  -1   0-35.0818 45.4256   2
  -5  -1   0 86.7765 49.6964   9
   5   1   0-15.0101 49.8244   2
   5  -1   0 19.6994 42.9022   8
   5   1   0 44.6047 45.0377   8
  -5  -1   0-47.0350 48.0638   5
  -5   1   0-61.4688 50.9354   5
   5  -1   1 407.515 99.8453   2
   5   1   1 544.073 110.150   2
  -5  -1  -1 542.888 107.666   9
  -5   1  -1 217.070 74.2427   9
   5  -1   1 579.225 106.333   8
   5   1   1 557.126 110.467   8
  -5  -1  -1 496.058 98.3230   5
  -5   1  -1 494.123 96.5403   5
   5   1   2 142.757 61.1010  11
   5  -1   2 184.520 74.3112   2
   5   1   2 177.085 70.0375   2
  -5  -1  -2 66.3398 45.5159   9
  -5   1  -2 2.68157 55.3541   9
   5  -1   2 6.03962 47.3630   8
  -5  -1  -2 34.4103 48.8605   5
   5   1   2 78.1857 49.7815   8
  -5   1  -2 53.1548 53.7348   5
   5   1   3 1204.13 158.363  11
   5  -1   3 1219.84 166.400  11
   5  -1   3 1144.92 151.056   2
  -5  -1  -3 1013.50 137.778   9
  -5   1  -3 826.433 124.207   9
   5  -1   3 1428.44 168.713   8
  -5  -1  -3 1144.63 143.719   5
  -5   1  -3 1285.23 157.107   5
   5   1   3 1178.51 159.488   8
   5   1   3 1253.88 164.102   2
   5   1   4 12125.9 539.883  11
   5  -1   4 12175.5 550.818  11
  -5  -1  -4 10858.2 468.356   9
  -5  -1  -4 12418.0 486.718   5
  -5   1  -4 12262.0 498.477   5
   5  -1   4 11997.2 516.310   8
   5   1   4 12082.5 534.632   8
   5  -1   4 11916.0 508.356   2
   5   1   4 12324.9 529.524   2
   5  -1   5 62.2335 48.7504  11
   5  -1   5 83.3580 50.9452   2
   5   1   5 87.9129 38.6608   2
  -5  -1  -5 139.582 58.0280   9
  -5  -1  -5 199.234 68.6966   5
  -5   1  -5 122.225 55.0354   5
   5  -1   5 101.015 40.3922   8
   5   1   5 296.634 86.3907   8
   5  -1   6 1001.27 135.377   2
   5   1   6 928.397 135.822   2
  -5  -1  -6 860.062 116.607   5
  -5   1  -6 1063.65 133.594   5
   5  -1   6 895.860 132.803   8
   5   1   6 801.700 135.715   8
   5  -1   7 72.7726 48.5232   2
   5   1   7 71.2826 53.7193   2
  -5  -1  -7 36.1553 31.9268   5
  -5   1  -7-24.0308 39.8707   5
   5  -1   7 35.4223 50.5954   8
   5   1   7 69.2299 49.0014   8
   5  -1   8 948.190 128.197   2
   5   1   8 1156.35 146.809   2
  -5  -1  -8 979.422 118.383   5
   5  -1   8 1028.32 143.175   8
   5   1   8 1124.93 153.929   8
   5   1   9 154.390 55.6502   2
   5  -2 -10 5492.09 369.417   2
  -5  -2   9 4095.54 306.274  10
  -5   2   9 4302.83 335.903  10
  -5  -2   9 3953.35 325.455   7
   5  -2  -9 3688.12 301.002   2
  -5  -2   8 13.5635 40.1675  10
  -5   2   8 23.3899 49.7953  10
  -5  -2   8 122.559 77.5687   9
   5  -2  -8-23.4244 53.0749   2
   5   2  -8 68.6844 43.6491   8
   5   2  -8 65.3042 55.0694   2
  -5  -2   8 124.062 62.2399   7
  -5  -2   7-39.7007 56.0628  10
  -5   2   7 111.789 79.6948  10
  -5  -2   7-46.2806 54.3163   9
   5  -2  -7-66.8021 49.9921   2
   5  -2  -7-13.4360 44.2621   8
   5   2  -7 19.3708 42.7158   8
   5   2  -7-11.1503 42.0845   2
  -5  -2   7-46.0629 61.2732   7
  -5  -2   6 108.343 51.9691  10
  -5   2   6 67.8251 49.6517  10
  -5  -2   6 192.007 76.1275   9
   5  -2  -6 69.2294 48.2601   2
   5  -2  -6 90.4498 40.9280   8
   5   2  -6 160.803 63.4386   8
   5   2  -6 235.666 83.9707   2
  -5  -2   6 58.0422 49.2976   7
  -5  -2   5 417.133 98.5416  10
  -5   2   5 396.558 105.702  10
  -5  -2   5 475.471 113.003   9
   5  -2  -5 328.232 88.8079   2
   5  -2  -5 386.408 86.3779   8
   5   2  -5 344.097 96.8680   2
   5   2  -5 376.292 87.1292   8
  -5  -2   5 343.597 87.4607   7
  -5  -2   4 1947.33 196.040  10
  -5   2   4 1458.80 184.478  10
  -5  -2   4 1362.29 181.274   9
   5  -2  -4 1213.07 147.310   8
   5   2  -4 1641.58 183.192   8
  -5  -2   4 1701.15 187.195   7
   5  -2  -4 1593.19 188.285   2
   5   2  -4 1862.05 209.330   2
  -5  -2   3 200.836 77.6510  10
  -5   2   3 328.717 95.2398  10
  -5  -2   3 433.233 107.505   9
   5  -2  -3 398.979 95.5548   2
   5   2  -3 330.580 97.9275   2
   5  -2  -3 277.030 67.7096   8
   5   2  -3 441.959 97.7827   8
  -5  -2   3 344.018 88.0592   7
  -5   2   2 1609.55 189.643  10
   5  -2  -2 1238.20 162.848   2
  -5  -2   2 1406.94 175.989   9
  -5  -2   2 1450.97 166.966   5
   5   2  -2 1644.89 185.466   8
   5  -2  -2 1196.11 147.919   8
  -5  -2   2 1319.95 157.718   7
   5   2  -2 1535.98 191.323   2
  -5   2   1 1259.39 168.161  10
   5  -2  -1 1250.56 159.497   2
  -5  -2   1 1329.18 170.833   9
   5   2  -1 1314.19 174.237   2
   5  -2  -1 1159.19 147.473   8
   5   2  -1 1217.02 163.463   8
  -5  -2   1 1213.23 152.917   5
  -5  -2   0 1614.49 168.001   5
  -5  -2   0 1464.41 172.651   9
  -5   2   0 1826.54 190.676   5
   5  -2   0 1525.31 168.261   8
   5   2   0 1442.71 177.859   8
   5  -2   0 1618.77 182.087   2
   5   2   0 1406.91 178.518   2
   5  -2   1 77.4163 49.8216   2
  -5  -2  -1 97.0464 61.7386   9
   5   2   1 49.6341 47.6992   2
   5  -2   1 127.720 60.2398   8
  -5  -2  -1 84.6074 45.8318   5
   5   2   1 214.957 77.7335   8
  -5   2  -1-16.5932 59.6481   5
   5   2   2 2564.00 225.716  11
  -5  -2  -2 2375.12 216.446   9
  -5   2  -2 2348.69 220.352   9
  -5  -2  -2 2587.18 210.758   5
  -5   2  -2 2784.08 233.117   5
   5  -2   2 2668.77 225.381   8
   5   2   2 2657.65 241.688   8
   5  -2   2 2416.99 216.989   2
   5   2   2 2564.96 236.729   2
   5   2   3 51.3923 45.1944  11
   5  -2   3 180.122 77.6923  11
   5  -2   3-21.7316 49.1008   2
   5   2   3 178.386 79.7972   2
  -5  -2  -3 118.571 55.0125   9
  -5   2  -3 16.0934 60.5835   9
  -5  -2  -3 61.6529 44.7024   5
   5  -2   3 42.5817 37.8886   8
  -5   2  -3 235.639 74.6340   5
   5   2   3 41.0185 47.8865   8
   5  -2   4 3850.24 302.183  11
  -5  -2  -4 3527.41 250.926   9
  -5  -2  -4 3839.26 254.145   5
  -5   2  -4 3831.95 270.171   5
   5  -2   4 3764.89 271.340   8
   5   2   4 3474.89 282.402   8
   5  -2   4 3728.09 265.719   2
   5   2   4 3607.91 282.008   2
   5  -2   5 1023.08 156.215  11
  -5  -2  -5 1461.24 156.319   9
  -5  -2  -5 1381.69 148.023   5
  -5   2  -5 1507.52 160.895   5
   5   2   5 1572.00 189.755   8
   5  -2   5 1272.74 159.141   8
   5  -2   5 1557.43 169.251   2
   5   2   5 1547.34 177.212   2
   5  -2   6 6.64158 63.1496  11
   5  -2   6 100.751 49.2515   2
   5   2   6 92.2950 39.7858   2
  -5  -2  -6 134.954 52.9488   5
  -5   2  -6 163.954 60.4493   5
   5  -2   6 169.115 62.9100   8
   5   2   6 185.254 66.9880   8
   5  -2   7 159.801 63.8037   2
   5   2   7 396.481 89.6540   2
  -5  -2  -7 321.793 69.5096   5
  -5   2  -7 217.136 67.6344   5
   5  -2   7 205.765 61.9196   8
   5   2   7 118.931 60.1479   8
   5   2   8 873.927 125.780   2
  -5  -2  -8 751.985 102.934   5
   5  -2   8 625.225 114.529   8
   5   2   8 863.367 143.720   8
   5   2   9 454.705 90.7327   2
   5  -3 -10 35.4647 44.2340   2
   5  -3  -9 493.743 104.327   2
  -5   3   8-25.0045 60.7182  10
   5  -3  -8 116.313 55.8341   2
   5   3  -8 93.5031 58.6317   8
  -5  -3   8 167.092 82.1199   7
  -5   3   7 168.279 94.1541  10
  -5  -3   7 24.6305 51.4603   9
   5  -3  -7 63.5221 54.5830   2
   5  -3  -7 198.815 57.9608   8
   5   3  -7 11.0298 47.8372   8
   5   3  -7 160.342 75.5593   2
  -5  -3   7 202.658 88.8739   7
  -5  -3   6 159.488 49.4109  10
  -5   3   6 235.197 86.5182  10
  -5  -3   6 182.766 83.4705   9
   5  -3  -6 179.662 60.7495   2
   5  -3  -6 74.5656 41.6498   8
   5   3  -6 96.0648 63.0191   8
   5   3  -6 353.121 102.440   2
  -5  -3   6 201.937 75.2894   7
  -5  -3   5 1536.11 174.001  10
  -5   3   5 1328.19 186.222  10
  -5  -3   5 1449.47 189.313   9
   5  -3  -5 1382.91 152.039   8
   5   3  -5 1509.61 177.902   8
   5   3  -5 1505.51 192.433   2
  -5  -3   5 1418.25 174.944   7
   5  -3  -5 1715.86 191.845   2
  -5  -3   4 151.015 62.9471  10
  -5   3   4 5.86066 66.0341  10
   5  -3  -4 61.4001 45.7861   2
  -5  -3   4 163.850 67.1548   9
   5  -3  -4 178.506 65.5525   8
   5   3  -4 49.9140 45.6154   2
   5   3  -4 81.8670 48.7775   8
  -5  -3   4 122.494 55.4686   7
  -5   3   3 1081.81 160.620  10
   5  -3  -3 1116.33 151.729   2
  -5  -3   3 748.998 136.223   9
   5   3  -3 543.876 116.204   2
   5  -3  -3 658.757 106.526   8
   5   3  -3 873.206 136.470   8
  -5  -3   3 852.168 124.634   5
  -5  -3   3 689.823 117.665   7
  -5   3   2 1460.42 185.153  10
   5  -3  -2 1208.98 157.291   2
  -5  -3   2 1442.41 177.054   9
  -5  -3   2 1364.02 160.936   5
   5  -3  -2 1200.98 145.215   8
   5   3  -2 1551.27 183.100   8
   5   3  -2 1211.78 173.063   2
  -5  -3   2 1151.49 144.171   7
  -5   3   1 1362.67 182.260  10
  -5  -3   1 1792.34 192.940   9
  -5  -3   1 1803.04 180.034   5
   5  -3  -1 1798.61 177.273   8
   5   3  -1 1579.69 186.183   8
   5  -3  -1 1560.92 177.952   2
   5   3  -1 1766.39 203.465   2
  -5   3   0 361.266 102.734  10
   5  -3   0 398.394 94.4334   2
  -5  -3   0 253.844 78.1482   9
   5   3   0 123.627 52.5800   2
   5  -3   0 180.689 66.8174   8
  -5  -3   0 390.235 84.0903   5
   5   3   0 294.411 91.9095   8
  -5   3   0 273.230 83.9935   5
   5  -3   1 870.500 131.115   2
  -5  -3  -1 703.379 121.423   9
   5   3   1 608.519 111.209   2
   5  -3   1 599.838 103.854   8
  -5  -3  -1 685.009 110.932   5
   5   3   1 425.851 104.565   8
  -5   3  -1 596.147 113.865   5
   5  -3   1 478.551 106.793   4
   5  -3   2 45.3920 30.4444   2
  -5  -3  -2 144.172 59.8465   9
   5   3   2 21.4058 42.4890   2
   5  -3   2 49.9888 42.5516   8
  -5  -3  -2 174.803 56.3608   5
  -5   3  -2 103.176 53.6652   5
   5   3   2 81.6957 51.6306   8
   5  -3   3 470.683 95.6173   2
   5   3   3 463.886 107.599   2
  -5  -3  -3 275.137 78.5759   9
   5  -3   3 371.869 88.1448   8
  -5  -3  -3 443.044 88.9176   5
  -5   3  -3 394.411 94.0283   5
   5   3   3 493.437 112.316   8
   5  -3   4 1810.36 211.612  11
  -5  -3  -4 1746.07 177.761   9
  -5  -3  -4 1914.97 174.162   5
  -5   3  -4 2043.76 199.042   5
   5  -3   4 2090.57 196.731   8
   5   3   4 1943.57 215.590   8
   5  -3   4 1850.80 183.722   2
   5   3   4 1864.91 201.503   2
   5  -3   5 5201.57 361.104  11
  -5  -3  -5 4387.95 275.014   9
  -5  -3  -5 4524.91 266.753   5
  -5   3  -5 4451.97 292.984   5
   5  -3   5 4598.94 299.414   8
   5   3   5 5128.48 348.275   8
   5  -3   5 4373.85 284.715   2
   5   3   5 5469.50 344.122   2
   5  -3   6 68.4168 52.3868  11
   5  -3   6 60.8227 46.5547   2
   5   3   6 28.5260 32.6693   2
  -5  -3  -6 88.1044 55.2931   9
  -5  -3  -6-10.3815 38.1706   5
   5  -3   6-11.6284 45.9037   8
  -5   3  -6 41.6773 46.2999   5
   5   3   6 63.4979 57.8754   8
   5  -3   7 70.5761 60.5227  11
   5  -3   7 161.231 54.3523   2
   5   3   7 29.4327 46.8019   2
  -5  -3  -7-23.9434 37.3132   5
  -5   3  -7-24.3364 44.2733   5
   5  -3   7 96.7703 59.3563   8
   5   3   7 36.3873 47.8998   8
   5   3   8 100.282 56.1082   2
  -5  -3  -8 46.9020 42.5897   5
   5   3   9-37.9987 44.4838   2
   5  -4 -10 131.855 69.6221   2
   5  -4  -9-24.2939 40.2456   2
   5  -4  -8 52.9732 35.8557   2
   5   4  -8 132.946 56.5930   8
  -5  -4   8 64.9056 68.1045   7
  -5   4   7 33.6692 69.8046  10
   5  -4  -7-58.5195 55.3266   2
   5   4  -7-45.6484 50.2517   8
  -5  -4   7-32.7894 62.8494   7
  -5   4   6 46.4021 57.9186  10
   5  -4  -6 48.9884 29.7608   2
  -5  -4   6 66.5495 67.7692   9
   5  -4  -6 145.189 54.3326   8
   5   4  -6 10.2470 35.9740   8
   5   4  -6 17.5287 38.6182   2
  -5  -4   6-3.34689 34.9476   7
  -5   4   5 103.562 72.8818  10
   5  -4  -5 51.5194 37.4708   2
  -5  -4   5 71.5505 60.2528   9
   5  -4  -5 149.208 59.8753   8
   5   4  -5 48.4479 50.4063   8
   5   4  -5 172.835 80.6975   2
  -5  -4   5-74.9578 48.2252   7
  -5   4   4 1095.52 162.852  10
   5  -4  -4 803.013 131.159   2
  -5  -4   4 744.706 133.304   9
   5  -4  -4 743.349 112.813   8
   5   4  -4 889.864 153.545   2
   5   4  -4 678.558 121.503   8
  -5  -4   4 858.515 128.939   5
  -5  -4   4 790.405 125.777   7
  -5   4   3 186.853 82.0384  10
   5  -4  -3 202.826 62.1239   2
  -5  -4   3 239.016 85.1194   9
   5  -4  -3 179.857 57.0356   8
   5   4  -3 7.04137 62.2979   2
  -5  -4   3 194.475 57.1244   5
   5   4  -3 128.010 57.3380   8
  -5  -4   3 279.659 79.2560   7
  -5   4   2 772.645 144.371  10
   5  -4  -2 793.686 127.279   2
  -5  -4   2 932.249 146.757   9
   5   4  -2 1091.15 166.416   2
   5  -4  -2 799.385 116.128   8
  -5  -4   2 766.288 113.320   5
   5   4  -2 687.934 124.801   8
  -5   4   1 155.793 65.6377  10
   5  -4  -1 190.780 63.5738   2
  -5  -4   1 146.985 66.8739   9
   5   4  -1 123.857 60.0555   2
   5  -4  -1 282.111 74.4985   8
  -5  -4   1 151.415 57.0090   5
   5   4  -1 126.993 58.7562   8
  -5   4   0 90.7641 58.1683  10
   5  -4   0 70.3346 47.3289   2
  -5  -4   0 23.9793 39.0510   9
   5   4   0 41.2593 45.5235   2
   5  -4   0 24.1531 42.0262   8
  -5  -4   0 35.3751 42.8949   5
   5   4   0 25.1485 41.0526   8
   5  -4   0 45.3757 51.1131   4
   5  -4   1 334.703 80.9599   2
  -5  -4  -1 231.775 77.1436   9
   5   4   1 232.826 79.4694   2
   5  -4   1 209.859 66.6934   8
  -5  -4  -1 272.503 69.5127   5
  -5   4  -1 340.305 88.4050   5
   5   4   1 385.437 103.977   8
   5  -4   1 336.109 93.0004   4
  -5  -4  -2 1774.56 165.920   5
  -5  -4  -2 1346.16 161.124   9
  -5   4  -2 1534.36 177.542   5
   5  -4   2 1572.34 166.353   8
   5   4   2 1878.41 209.628   8
   5  -4   2 1789.78 179.223   2
   5   4   2 1658.54 196.890   2
   5  -4   2 1501.96 188.601   4
   5  -4   3-0.84095 31.7832   2
   5   4   3-2.74507 47.7041   2
  -5  -4  -3 37.0217 46.9897   9
   5  -4   3 24.8550 36.1459   8
  -5  -4  -3 14.3198 32.2131   5
  -5   4  -3 28.2045 40.7845   5
   5   4   3 32.7577 52.0444   8
   5  -4   4 508.331 99.0351   2
   5   4   4 484.923 108.591   2
  -5  -4  -4 421.044 98.3040   9
  -5  -4  -4 413.805 85.2130   5
   5  -4   4 301.681 78.9147   8
  -5   4  -4 392.754 84.9092   5
   5   4   4 470.653 109.955   8
   5  -4   5 113.317 81.3880  11
   5  -4   5 175.468 67.2392   2
   5   4   5 196.242 79.4011   2
  -5  -4  -5 155.901 66.9163   9
  -5  -4  -5 111.778 42.7172   5
   5  -4   5 90.3916 47.7277   8
  -5   4  -5 128.255 59.9241   5
   5   4   5 42.0214 35.5984   8
   5  -4   6 3679.71 310.541  11
  -5  -4  -6 3025.63 223.323   9
  -5  -4  -6 3291.21 213.101   5
  -5   4  -6 3371.45 249.586   5
   5  -4   6 3682.95 261.613   8
   5   4   6 3515.36 296.178   8
   5  -4   6 3367.94 235.235   2
   5   4   6 3837.22 284.272   2
   5   4   7 682.913 119.965   2
  -5  -4  -7 856.829 104.674   5
   5   4   8 772.894 120.210   2
   5   4   9 1450.34 165.124   2
   5  -5  -9-35.8246 43.4685   2
   5  -5  -8 202.908 67.1047   2
   5   5  -8 287.473 84.2707   8
   5  -5  -7 250.461 80.8148   2
   5   5  -7 381.882 103.023   8
  -5  -5   7 282.284 86.3995   7
   5  -5  -6 911.284 136.536   2
   5  -5  -6 1032.72 123.306   8
   5   5  -6 1116.11 161.013   8
  -5  -5   6 961.343 147.816   7
  -5   5   5 18.0698 60.0948  10
   5  -5  -5 38.5793 30.6270   2
  -5  -5   5-19.9704 50.8072   9
   5  -5  -5 84.8256 47.8958   8
   5   5  -5 4.26622 37.2196   8
   5   5  -5 59.1368 55.1512   2
  -5  -5   5 80.9436 38.8865   7
  -5   5   4 45.8797 47.2299  10
   5  -5  -4-0.40407 43.4053   2
  -5  -5   4-82.1206 70.9056   9
   5  -5  -4 79.8738 52.6540   8
   5   5  -4-8.76763 40.4347   8
   5   5  -4 13.6323 47.4069   2
  -5  -5   4-29.7343 44.0275   7
  -5   5   3 363.901 96.8341  10
   5  -5  -3 411.499 91.9588   2
  -5  -5   3 468.795 106.193   9
   5  -5  -3 584.677 99.7389   8
   5   5  -3 570.419 120.518   2
  -5  -5   3 445.618 91.0746   5
   5   5  -3 412.959 93.0564   8
  -5  -5   3 537.364 106.757   7
  -5   5   2 1654.92 201.796  10
   5  -5  -2 1066.73 146.344   2
  -5  -5   2 1204.07 162.039   9
   5  -5  -2 1272.99 142.966   8
   5   5  -2 1504.75 197.690   2
  -5  -5   2 1145.75 137.336   5
   5   5  -2 1188.79 167.089   8
  -5   5   1 429.545 107.495  10
   5  -5  -1 381.973 82.2930   2
  -5  -5   1 387.714 98.3658   9
   5   5  -1 528.036 120.367   2
   5  -5  -1 333.409 74.9082   8
  -5  -5   1 372.424 76.8721   5
   5   5  -1 488.633 107.205   8
   5  -5  -1 250.443 81.4242   4
  -5   5   0 34.8720 51.4347  10
   5  -5   0-4.88397 33.5433   2
  -5  -5   0 47.5595 54.2665   9
   5   5   0 29.5015 34.7974   2
   5  -5   0 1.33145 34.9320   8
  -5  -5   0 67.2908 35.9139   5
   5   5   0-18.8368 41.4926   8
   5  -5   0 11.3225 45.1348   4
   5  -5   1 420.813 83.6376   2
  -5  -5  -1 583.152 107.476   9
   5   5   1 383.125 95.5549   2
   5  -5   1 693.804 110.809   8
  -5  -5  -1 500.626 88.1720   5
  -5   5  -1 452.631 97.2071   5
   5   5   1 496.071 105.103   8
   5  -5   1 582.166 118.733   4
  -5  -5  -2 2190.74 202.264   9
  -5  -5  -2 2306.12 184.549   5
  -5   5  -2 2498.03 226.946   5
   5  -5   2 2535.31 208.511   8
   5   5   2 2517.72 248.619   8
   5  -5   2 2257.85 200.103   2
   5  -5   2 2277.91 235.771   4
   5   5   2 2110.72 225.506   2
  -5  -5  -3 1161.90 128.657   5
  -5  -5  -3 1125.79 145.695   9
   5   5   3 1271.74 171.206   2
   5  -5   3 1163.08 143.546   8
  -5   5  -3 1131.01 150.966   5
   5   5   3 1328.10 181.214   8
   5  -5   3 1270.51 145.750   2
   5  -5   3 1043.93 162.029   4
  -5  -5  -4 2827.40 224.946   9
  -5  -5  -4 3027.03 204.101   5
  -5   5  -4 3663.72 270.170   5
   5  -5   4 3059.16 235.025   8
   5   5   4 2563.55 253.077   8
   5  -5   4 3003.49 225.806   2
   5   5   4 3538.81 282.284   2
   5  -5   5 41.3591 30.7973   2
   5   5   5-70.3281 51.9267   2
  -5  -5  -5-58.8695 52.7113   9
  -5  -5  -5-3.24153 30.3779   5
  -5   5  -5-60.9449 53.7915   5
   5   5   5-40.1880 46.5828   8
   5   5   6 36.1054 39.8684   2
  -5  -5  -6 11.0341 45.0366   9
  -5  -5  -6-37.4005 29.2182   5
   5   5   7 385.222 90.9987   2
  -5  -5  -7 463.002 78.3452   5
   5   5   8 424.865 98.3976   2
   5   6  -8 776.347 135.316   8
   5   6  -7 2551.67 246.180   8
   5  -6  -7 2430.11 217.447   2
   5  -6  -6 85.0557 60.7946   2
   5   6  -6 65.6719 58.1623   8
  -5  -6   6 79.0614 54.2285   7
   5  -6  -5 155.728 58.7812   2
   5  -6  -5 180.273 65.2941   8
   5   6  -5 154.954 56.3903   8
  -5  -6   5 110.995 52.3743   7
   5  -6  -4 128.575 57.1005   2
   5  -6  -4 169.836 58.3464   8
   5   6  -4 151.774 75.2733   8
   5   6  -4 43.5035 52.9119   2
  -5  -6   4 75.9489 39.5277   7
   5  -6  -3-20.2487 44.7541   2
  -5  -6   3 33.0419 53.4371   9
   5  -6  -3 29.7319 42.6047   8
   5   6  -3-2.53569 47.4443   2
   5   6  -3 30.4110 44.0797   8
  -5  -6   3 16.1427 32.0301   7
  -5   6   2 85.1107 65.6805  10
   5  -6  -2 207.859 68.7177   2
  -5  -6   2 104.430 57.8674   9
   5  -6  -2 122.271 50.3499   8
   5   6  -2 134.900 71.0019   2
   5   6  -2 33.8350 45.1757   8
  -5   6   1 440.830 112.976  10
   5  -6  -1 554.879 101.282   2
  -5  -6   1 554.227 117.860   9
   5   6  -1 462.887 111.351   2
   5  -6  -1 359.091 79.1320   8
   5   6  -1 392.659 97.7194   8
   5  -6  -1 453.602 104.303   4
  -5   6   0 231.692 85.9121  10
   5  -6   0 183.526 58.7870   2
  -5  -6   0 174.856 68.1949   9
   5   6   0 142.666 62.6322   2
   5  -6   0 294.516 77.9793   8
   5   6   0 188.842 81.8207   8
   5  -6   0 316.134 86.8549   4
   5  -6   1 174.036 61.5515   2
  -5  -6  -1 254.777 80.8088   9
   5   6   1 128.958 61.6207   2
   5  -6   1 106.614 51.5664   8
  -5   6  -1 218.602 72.5822   5
   5   6   1 149.711 77.1817   8
   5  -6   1 77.9110 40.7982   4
   5  -6   2 149.323 63.2843   2
  -5  -6  -2 7.10976 38.0718   9
   5   6   2 85.5926 69.0792   2
   5  -6   2 74.6926 42.4816   8
  -5  -6  -2 44.0223 37.4727   5
  -5   6  -2 111.542 64.0315   5
   5   6   2-11.2962 47.0379   8
   5  -6   2 36.6101 61.8639   4
   5  -6   3 634.416 101.620   2
  -5  -6  -3 681.042 113.240   9
   5   6   3 919.779 146.037   2
  -5  -6  -3 670.731 91.7670   5
  -5   6  -3 739.565 125.163   5
   5  -6   3 600.428 123.474   4
   5   6   4 225.431 71.7811   2
  -5  -6  -4 217.163 59.1182   9
  -5  -6  -4 300.150 63.6577   5
   5  -6   4 291.455 103.053   4
   5   6   5 802.528 137.380   2
  -5  -6  -5 732.002 114.419   9
  -5  -6  -5 779.231 96.5432   5
   5  -6   5 738.282 143.707   4
   5   6   6 538.251 110.943   2
  -5  -6  -6 288.687 70.4839   9
  -5  -6  -6 407.427 71.2735   5
  -5  -6  -7-43.7952 44.9100   9
  -5  -6  -7 4.84421 25.0531   5
   5  -7  -5 2141.95 198.819   2
  -5  -7   5 1975.55 199.701   7
   5  -7  -4 249.859 76.2403   2
  -5  -7   4 89.9930 41.8211   7
   5  -7  -3 1738.62 173.506   2
  -5  -7   3 1753.36 177.162   7
   5  -7  -2 7.87423 41.9839   2
   5   7  -2 29.9431 42.2174   2
   5  -7  -2-47.8060 55.4181   4
   5   7  -1 1462.58 198.182   2
   5  -7  -1 1624.57 165.468   2
   5  -7  -1 1563.76 185.026   4
   5  -7   0-37.0402 36.2753   2
   5   7   0 20.7564 45.3631   2
   5  -7   0 89.3116 64.8374   4
   5  -7   1 759.064 112.510   2
   5   7   1 780.815 140.147   2
   5  -7   1 424.634 101.388   4
   5  -7   2 191.644 59.8904   2
   5   7   2 221.817 82.8120   2
   5  -7   2 126.647 67.8516   4
   5   7   3 264.402 87.9232   2
   5  -7   3 230.026 74.4662   4
   5   7   4 194.429 69.2372   2
   5   7   5 50.7802 59.5002   2
   5   7   6 171.889 69.1834   2
  -5  -8   4 571.131 110.347   7
   5  -8  -3-32.3113 41.2287   2
  -5   8   3-32.2908 36.3337   3
   5  -8  -2 191.132 59.9898   2
   5  -8  -2 401.018 107.218   4
   5  -8  -1 34.0343 31.1279   2
   5  -8  -1 77.5654 45.1005   4
   5  -8   0 1888.88 214.140   4
   5   8   2 137.896 65.8203   2
   5   8   3-35.8173 51.8999   2
   5   8   4 286.600 81.6752   2
   0   0   0    0.00    0.00   0

TITL 2017_11_08_JP_NI_nr3 in P2(1)/c
REM P2(1)/c (#14 in standard setting)
CELL 0.71073   3.758391  12.066664  15.804529  90.0000  90.7297  90.0000
ZERR    4.00   0.000085   0.000304   0.000407   0.0000   0.0023   0.0000
LATT  1
SYMM -x, y+1/2,-z+1/2
SFAC C H N O
UNIT 32.00 24.00 8.00 8.00
TREF
HKLF 4
END
;
_shelx_hkl_checksum              9076
_olex2_date_sample_data_collection 2017-11-08
_olex2_submission_original_sample_id 5-Nitroindole
_olex2_submission_special_instructions 'No special instructions were received'
_oxdiff_exptl_absorpt_empirical_details
;
Empirical correction (ABSPACK) includes:
- Absorption correction using spherical harmonics
- Frame scaling
;
_oxdiff_exptl_absorpt_empirical_full_max 1.601
_oxdiff_exptl_absorpt_empirical_full_min 0.382
loop_
_space_group_symop_operation_xyz
'x, y, z'
'-x, y+1/2, -z+1/2'
'-x, -y, -z'
'x, -y-1/2, z-1/2'
loop_
_atom_site_label
_atom_site_type_symbol
_atom_site_fract_x
_atom_site_fract_y
_atom_site_fract_z
_atom_site_U_iso_or_equiv
_atom_site_adp_type
_atom_site_occupancy
_atom_site_site_symmetry_order
_atom_site_calc_flag
_atom_site_refinement_flags_posn
_atom_site_refinement_flags_adp
_atom_site_refinement_flags_occupancy
_atom_site_disorder_assembly
_atom_site_disorder_group
N2 N 0.3364(2) 0.29670(6) 0.06790(5) 0.01743(16) Uani 1 1 d . . . . .
C5 C 0.1822(2) 0.26377(7) -0.01281(5) 0.01448(16) Uani 1 1 d . . . . .
N1 N -0.23639(19) 0.15725(6) -0.23674(5) 0.01739(16) Uani 1 1 d . . . . .
H1 H -0.340605 0.191447 -0.279535 0.021 Uiso 1 1 calc R . . . .
C9 C 0.0404(2) 0.12250(7) -0.11259(5) 0.01370(16) Uani 1 1 d . . . . .
O2 O 0.3380(2) 0.39544(6) 0.08783(5) 0.02865(18) Uani 1 1 d . . . . .
C8 C -0.1085(2) 0.20696(7) -0.16517(5) 0.01401(16) Uani 1 1 d . . . . .
C7 C -0.1121(2) 0.31881(7) -0.14208(5) 0.01607(16) Uani 1 1 d . . . . .
H7 H -0.213517 0.373360 -0.178400 0.019 Uiso 1 1 calc R . . . .
O1 O 0.4647(2) 0.22398(6) 0.11465(4) 0.02447(17) Uani 1 1 d . . . . .
C4 C 0.1893(2) 0.15232(7) -0.03444(5) 0.01419(16) Uani 1 1 d . . . . .
H4 H 0.291411 0.098502 0.002412 0.017 Uiso 1 1 calc R . . . .
C6 C 0.0364(2) 0.34734(7) -0.06496(5) 0.01650(17) Uani 1 1 d . . . . .
H6 H 0.040312 0.422526 -0.047133 0.020 Uiso 1 1 calc R . . . .
C3 C -0.0061(2) 0.01981(7) -0.15672(5) 0.01729(17) Uani 1 1 d . . . . .
H3 H 0.066664 -0.051555 -0.137928 0.021 Uiso 1 1 calc R . . . .
C2 C -0.1763(2) 0.04488(7) -0.23132(5) 0.01917(18) Uani 1 1 d . . . . .
H2 H -0.243311 -0.007669 -0.273344 0.023 Uiso 1 1 calc R . . . .
loop_
_atom_site_aniso_label
_atom_site_aniso_U_11
_atom_site_aniso_U_22
_atom_site_aniso_U_33
_atom_site_aniso_U_23
_atom_site_aniso_U_13
_atom_site_aniso_U_12
N2 0.0195(3) 0.0189(3) 0.0138(3) -0.0016(2) -0.0029(2) 0.0001(2)
C5 0.0158(3) 0.0160(4) 0.0116(3) -0.0004(3) -0.0027(3) 0.0000(3)
N1 0.0176(3) 0.0217(4) 0.0128(3) -0.0003(2) -0.0042(2) 0.0004(2)
C9 0.0137(3) 0.0143(3) 0.0131(3) 0.0006(3) -0.0007(2) -0.0001(2)
O2 0.0429(4) 0.0195(3) 0.0233(4) -0.0071(3) -0.0106(3) 0.0025(3)
C8 0.0128(3) 0.0176(4) 0.0116(3) 0.0009(3) -0.0013(2) 0.0000(2)
C7 0.0165(3) 0.0163(4) 0.0154(3) 0.0031(3) -0.0028(3) 0.0020(3)
O1 0.0328(4) 0.0231(3) 0.0172(3) 0.0019(2) -0.0110(3) 0.0018(3)
C4 0.0146(3) 0.0149(3) 0.0130(3) 0.0016(3) -0.0018(2) 0.0008(2)
C6 0.0188(4) 0.0144(4) 0.0162(4) 0.0004(3) -0.0021(3) 0.0017(3)
C3 0.0182(3) 0.0157(4) 0.0180(4) -0.0016(3) -0.0014(3) -0.0004(3)
C2 0.0184(4) 0.0211(4) 0.0179(4) -0.0047(3) -0.0022(3) -0.0018(3)
loop_
_atom_type_symbol
_atom_type_description
_atom_type_scat_dispersion_real
_atom_type_scat_dispersion_imag
_atom_type_scat_source
C C 0.0033 0.0016 'International Tables Vol C Tables 4.2.6.8 and 6.1.1.4'
H H 0.0000 0.0000 'International Tables Vol C Tables 4.2.6.8 and 6.1.1.4'
N N 0.0061 0.0033 'International Tables Vol C Tables 4.2.6.8 and 6.1.1.4'
O O 0.0106 0.0060 'International Tables Vol C Tables 4.2.6.8 and 6.1.1.4'
loop_
_geom_angle_atom_site_label_1
_geom_angle_atom_site_label_2
_geom_angle_atom_site_label_3
_geom_angle
_geom_angle_site_symmetry_1
_geom_angle_site_symmetry_3
_geom_angle_publ_flag
O2 N2 C5 119.38(7) . . ?
O2 N2 O1 122.07(7) . . ?
O1 N2 C5 118.56(7) . . ?
C4 C5 N2 118.27(7) . . ?
C4 C5 C6 123.92(7) . . ?
C6 C5 N2 117.81(7) . . ?
C8 N1 C2 109.03(7) . . ?
C8 C9 C3 106.88(7) . . ?
C4 C9 C8 118.78(7) . . ?
C4 C9 C3 134.34(7) . . ?
N1 C8 C9 107.52(7) . . ?
N1 C8 C7 129.58(7) . . ?
C7 C8 C9 122.90(7) . . ?
C6 C7 C8 117.84(7) . . ?
C5 C4 C9 117.30(7) . . ?
C7 C6 C5 119.26(8) . . ?
C2 C3 C9 106.34(7) . . ?
C3 C2 N1 110.24(7) . . ?
loop_
_geom_bond_atom_site_label_1
_geom_bond_atom_site_label_2
_geom_bond_distance
_geom_bond_site_symmetry_2
_geom_bond_publ_flag
N2 C5 1.4498(10) . ?
N2 O2 1.2323(10) . ?
N2 O1 1.2407(10) . ?
C5 C4 1.3879(11) . ?
C5 C6 1.4090(11) . ?
N1 C8 1.3624(10) . ?
N1 C2 1.3771(11) . ?
C9 C8 1.4250(11) . ?
C9 C4 1.3967(11) . ?
C9 C3 1.4316(11) . ?
C8 C7 1.3982(11) . ?
C7 C6 1.3778(11) . ?
C3 C2 1.3680(12) . ?
