#------------------------------------------------------------------------------
#$Date: 2020-03-07 00:43:01 +0200 (Sat, 07 Mar 2020) $
#$Revision: 249128 $
#$URL: file:///home/coder/svn-repositories/cod/cif/4/51/74/4517464.cif $
#------------------------------------------------------------------------------
#
# This file is available in the Crystallography Open Database (COD),
# http://www.crystallography.net/
#
# All data on this site have been placed in the public domain by the
# contributors.
#
data_4517464
loop_
_publ_author_name
'Parr, Brendan T.'
'Pastor, Richard'
'Sellers, Benjamin D.'
'Pei, Zhonghua'
'Jaipuri, Firoz A.'
'Castanedo, Georgette M.'
'Gazzard, Lewis'
'Kumar, Sanjeev'
'Li, Xiaokai'
'Liu, Wen'
'Mendonca, Rohan'
'Pavana, Roheeth K.'
'Potturi, Hima'
'Shao, Cheng'
'Velvadapu, Venkata'
'Waldo, Jesse P.'
'Wu, Guosheng'
'Yuen, Po-wai'
'Zhang, Zuhui'
'Zhang, Yamin'
'Harris, Seth F.'
'Oh, Angela J.'
'DiPasquale, Antonio'
'Dement, Kevin'
'La, Hank'
'Goon, Leanne'
'Gustafson, Amy'
'VanderPorten, Erica C.'
'Mautino, Mario R.'
'Liu, Yichin'
_publ_section_title
;
 Implementation of the CYP Index for the Design of Selective
 Tryptophan-2,3-dioxygenase Inhibitors
;
_journal_name_full               'ACS Medicinal Chemistry Letters'
_journal_paper_doi               10.1021/acsmedchemlett.0c00004
_journal_year                    2020
_chemical_absolute_configuration ad
_chemical_formula_sum            'C17 H16 N4 O'
_chemical_formula_weight         292.34
_chemical_name_common            ent-30
_chemical_name_systematic        ent-30
_space_group.centring_type       primitive
_space_group_crystal_system      monoclinic
_space_group_IT_number           4
_space_group_name_Hall           'P 2yb'
_space_group_name_H-M_alt        'P 1 21 1'
_atom_sites_solution_hydrogens   geom
_atom_sites_solution_primary     iterative
_atom_sites_solution_secondary   difmap
_audit_creation_method           SHELXL-2014/7
_cell_angle_alpha                90
_cell_angle_beta                 102.380(2)
_cell_angle_gamma                90
_cell_formula_units_Z            2
_cell_length_a                   9.6081(4)
_cell_length_b                   5.9379(2)
_cell_length_c                   13.0825(5)
_cell_measurement_reflns_used    9824
_cell_measurement_temperature    100(2)
_cell_measurement_theta_max      68.45
_cell_measurement_theta_min      3.46
_cell_volume                     729.03(5)
_computing_cell_refinement       'Bruker SAINT'
_computing_data_collection       'Bruker APEX2'
_computing_data_reduction        'Bruker SAINT'
_computing_molecular_graphics    ORTEP-32
_computing_publication_material  WinGX
_computing_structure_refinement  SHELXL-2014
_computing_structure_solution    SHELXT-2014
_diffrn_ambient_temperature      100(2)
_diffrn_detector_area_resol_mean 8.366
_diffrn_measured_fraction_theta_full 0.995
_diffrn_measured_fraction_theta_max 0.990
_diffrn_measurement_device_type  'Bruker APEX-II CCD'
_diffrn_measurement_method       '\f and \w scans'
_diffrn_radiation_type           CuK\a
_diffrn_radiation_wavelength     1.54178
_diffrn_reflns_av_R_equivalents  0.0415
_diffrn_reflns_av_unetI/netI     0.0191
_diffrn_reflns_Laue_measured_fraction_full 0.995
_diffrn_reflns_Laue_measured_fraction_max 0.990
_diffrn_refln_scan_rate          5
_diffrn_refln_scan_width         2.0
_diffrn_reflns_limit_h_max       11
_diffrn_reflns_limit_h_min       -11
_diffrn_reflns_limit_k_max       6
_diffrn_reflns_limit_k_min       -5
_diffrn_reflns_limit_l_max       15
_diffrn_reflns_limit_l_min       -15
_diffrn_reflns_number            26837
_diffrn_reflns_point_group_measured_fraction_full 0.944
_diffrn_reflns_point_group_measured_fraction_max 0.938
_diffrn_reflns_theta_full        67.000
_diffrn_reflns_theta_max         68.313
_diffrn_reflns_theta_min         3.459
_diffrn_source                   'microfocus rotating anode'
_exptl_absorpt_coefficient_mu    0.695
_exptl_absorpt_correction_T_max  0.929
_exptl_absorpt_correction_T_min  0.809
_exptl_absorpt_correction_type   multi-scan
_exptl_absorpt_process_details   SADABS
_exptl_crystal_colour            colorless
_exptl_crystal_density_diffrn    1.332
_exptl_crystal_description       plate
_exptl_crystal_F_000             308
_exptl_crystal_size_max          0.080
_exptl_crystal_size_mid          0.050
_exptl_crystal_size_min          0.020
_refine_diff_density_max         0.136
_refine_diff_density_min         -0.137
_refine_diff_density_rms         0.029
_refine_ls_abs_structure_details
; 
 Flack x determined using 994 quotients [(I+)-(I-)]/[(I+)+(I-)] 
 (Parsons, Flack and Wagner, Acta Cryst. B69 (2013) 249-259). 
;
_refine_ls_abs_structure_Flack   0.15(10)
_refine_ls_extinction_method     none
_refine_ls_goodness_of_fit_ref   1.040
_refine_ls_hydrogen_treatment    constr
_refine_ls_matrix_type           full
_refine_ls_number_parameters     200
_refine_ls_number_reflns         2520
_refine_ls_number_restraints     1
_refine_ls_restrained_S_all      1.040
_refine_ls_R_factor_all          0.0273
_refine_ls_R_factor_gt           0.0261
_refine_ls_shift/su_max          0.001
_refine_ls_shift/su_mean         0.000
_refine_ls_structure_factor_coef Fsqd
_refine_ls_weighting_details
'w=1/[\s^2^(Fo^2^)+(0.0379P)^2^+0.1224P] where P=(Fo^2^+2Fc^2^)/3'
_refine_ls_weighting_scheme      calc
_refine_ls_wR_factor_gt          0.0663
_refine_ls_wR_factor_ref         0.0674
_reflns_Friedel_coverage         0.715
_reflns_Friedel_fraction_full    0.880
_reflns_Friedel_fraction_max     0.874
_reflns_number_gt                2447
_reflns_number_total             2520
_reflns_threshold_expression     'I > 2\s(I)'
_cod_data_source_file            ml0c00004_si_011.cif
_cod_data_source_block           ent30
_cod_original_sg_symbol_H-M      'P 21'
_cod_database_code               4517464
_shelx_shelxl_version_number     2014/7
_shelx_space_group_comment
; 
The symmetry employed for this shelxl refinement is uniquely defined 
by the following loop, which should always be used as a source of 
symmetry information in preference to the above space-group names. 
They are only intended as comments. 
;
_shelx_estimated_absorpt_t_min   0.946
_shelx_estimated_absorpt_t_max   0.986
_shelx_res_file
; 
  
    shelx.res created by SHELXL-2014/7 
  
TITL SIR2014 run in space group P 1 21 1 
CELL  1.54178   9.6081   5.9379  13.0825   90.000  102.380   90.000 
ZERR     2.00   0.0004   0.0002   0.0005    0.000    0.002    0.000 
LATT  -1 
SYMM  - X, 1/2 + Y, - Z 
SFAC  C    H    N    O 
UNIT  34 32 8 2 
MERG   2 
FMAP   2 
PLAN   25 
SIZE     0.020   0.050   0.080 
ACTA   134.00 
BOND   $H 
CONF 
LIST   4 
WPDB  -2 
L.S.  10 
TEMP  -173.00 
WGHT    0.037900    0.122400 
FVAR       1.26919 
C1    1   -0.234125    0.614694    0.683279    11.00000    0.02808    0.02371 = 
         0.01687   -0.00207    0.00528    0.00199 
AFIX  13 
H1    2   -0.251678    0.778485    0.667966    11.00000   -1.20000 
AFIX   0 
C2    1   -0.369525    0.498153    0.698308    11.00000    0.02376    0.02596 = 
         0.01947    0.00193    0.00317    0.00476 
C3    1   -0.449654    0.542572    0.772531    11.00000    0.02780    0.03151 = 
         0.02056    0.00067    0.00389    0.00727 
AFIX  43 
H3    2   -0.427527    0.666460    0.819135    11.00000   -1.20000 
AFIX   0 
C4    1   -0.563910    0.399584    0.776684    11.00000    0.02447    0.04436 = 
         0.02325    0.00641    0.00584    0.00674 
AFIX  43 
H4    2   -0.620769    0.428134    0.826396    11.00000   -1.20000 
AFIX   0 
C5    1   -0.595768    0.217854    0.710057    11.00000    0.02552    0.04340 = 
         0.02546    0.00652    0.00282   -0.00214 
AFIX  43 
H5    2   -0.673317    0.122362    0.715162    11.00000   -1.20000 
AFIX   0 
C6    1   -0.515556    0.172500    0.635268    11.00000    0.02904    0.03376 = 
         0.02286   -0.00062    0.00154   -0.00282 
AFIX  43 
H6    2   -0.537791    0.047941    0.589077    11.00000   -1.20000 
AFIX   0 
C7    1   -0.402445    0.314264    0.630202    11.00000    0.02420    0.02854 = 
         0.01827    0.00144    0.00119    0.00366 
C8    1   -0.301657    0.313787    0.561239    11.00000    0.02445    0.02451 = 
         0.01977   -0.00048    0.00137    0.00063 
C9    1   -0.266458    0.224684    0.473703    11.00000    0.02757    0.02885 = 
         0.02005   -0.00394    0.00285   -0.00003 
AFIX  43 
H9    2   -0.310438    0.097387    0.436127    11.00000   -1.20000 
AFIX   0 
C10   1   -0.126918    0.509796    0.519824    11.00000    0.02588    0.03285 = 
         0.01897   -0.00085    0.00595    0.00091 
AFIX  43 
H10   2   -0.055637    0.621443    0.521531    11.00000   -1.20000 
AFIX   0 
C11   1   -0.110540    0.581094    0.779108    11.00000    0.02765    0.02204 = 
         0.01487   -0.00181    0.00511   -0.00031 
AFIX  13 
H11   2   -0.133009    0.667830    0.839077    11.00000   -1.20000 
AFIX   0 
C12   1    0.032884    0.664716    0.760134    11.00000    0.02795    0.02016 = 
         0.01814   -0.00179    0.00766    0.00110 
AFIX  13 
H12   2    0.061987    0.564074    0.707094    11.00000   -1.20000 
AFIX   0 
C13   1    0.141234    0.641507    0.861595    11.00000    0.02660    0.02423 = 
         0.02013   -0.00313    0.00963    0.00207 
C14   1    0.257549    0.767062    0.909060    11.00000    0.02954    0.03277 = 
         0.02602   -0.00594    0.00872   -0.00469 
AFIX  43 
H14   2    0.291164    0.903180    0.884777    11.00000   -1.20000 
AFIX   0 
C15   1    0.315224    0.649644    1.000984    11.00000    0.02827    0.04294 = 
         0.02569   -0.00818    0.00249   -0.00348 
AFIX  43 
H15   2    0.397987    0.696422    1.050038    11.00000   -1.20000 
AFIX   0 
C16   1    0.017938    0.303177    0.915396    11.00000    0.03167    0.02300 = 
         0.02132    0.00198    0.00637   -0.00067 
AFIX  23 
H16A  2   -0.030528    0.325301    0.974225    11.00000   -1.20000 
H16B  2    0.055974    0.147713    0.919639    11.00000   -1.20000 
AFIX   0 
C17   1   -0.089472    0.334179    0.811759    11.00000    0.02844    0.02405 = 
         0.02079   -0.00194    0.00336   -0.00071 
AFIX  23 
H17A  2   -0.056203    0.249590    0.756310    11.00000   -1.20000 
H17B  2   -0.182243    0.269912    0.818289    11.00000   -1.20000 
AFIX   0 
N1    3   -0.157160    0.348613    0.448586    11.00000    0.02761    0.03340 = 
         0.01929   -0.00338    0.00485    0.00152 
N2    3   -0.211201    0.493537    0.589519    11.00000    0.02561    0.02632 = 
         0.01596   -0.00181    0.00503    0.00030 
N3    3    0.241555    0.465563    1.012145    11.00000    0.03018    0.03977 = 
         0.01940   -0.00301    0.00042    0.00250 
N4    3    0.135465    0.463368    0.924678    11.00000    0.02636    0.02754 = 
         0.01850   -0.00031    0.00338    0.00227 
O1    4    0.027041    0.887080    0.722377    11.00000    0.03616    0.02176 = 
         0.02578    0.00252    0.01281    0.00041 
AFIX 147 
H1A   2    0.070885    0.895280    0.673427    11.00000   -1.50000 
AFIX   0 
HKLF    4 
  
REM  SIR2014 run in space group P 1 21 1 
REM R1 =  0.0261 for    2447 Fo > 4sig(Fo)  and  0.0273 for all    2520 data 
REM    200 parameters refined using      1 restraints 
  
END 
  
WGHT      0.0379      0.1224 
  
REM Highest difference peak  0.136,  deepest hole -0.137,  1-sigma level  0.029 
Q1    1  -0.1339  0.3771  0.3916  11.00000  0.05    0.14 
Q2    1   0.0884  0.6698  0.8136  11.00000  0.05    0.14 
Q3    1  -0.4886  0.3132  0.6076  11.00000  0.05    0.12 
Q4    1  -0.1655  0.5835  0.7337  11.00000  0.05    0.12 
Q5    1  -0.3444  0.2623  0.5990  11.00000  0.05    0.12 
Q6    1  -0.3630  0.3537  0.6838  11.00000  0.05    0.11 
Q7    1  -0.3218  0.3059  0.5049  11.00000  0.05    0.11 
Q8    1  -0.2542  0.1847  0.5379  11.00000  0.05    0.10 
Q9    1   0.0431  0.9921  0.7774  11.00000  0.05    0.10 
Q10   1  -0.4125  0.1682  0.6554  11.00000  0.05    0.10 
Q11   1  -0.2120  0.5486  0.6309  11.00000  0.05    0.10 
Q12   1  -0.1429  0.4890  0.5765  11.00000  0.05    0.10 
Q13   1  -0.4220  0.5438  0.7225  11.00000  0.05    0.09 
Q14   1  -0.5428  0.5208  0.7445  11.00000  0.05    0.09 
Q15   1  -0.2246  0.3386  0.6002  11.00000  0.05    0.09 
Q16   1  -0.0338  0.3201  0.8613  11.00000  0.05    0.09 
Q17   1  -0.8031  0.2732  0.7453  11.00000  0.05    0.09 
Q18   1  -0.0416  0.6424  0.7773  11.00000  0.05    0.09 
Q19   1  -0.2909  0.4762  0.5538  11.00000  0.05    0.09 
Q20   1   0.4095  0.6218  1.0756  11.00000  0.05    0.09 
Q21   1  -0.3992  0.5144  0.7384  11.00000  0.05    0.08 
Q22   1   0.1584  0.7668  0.8853  11.00000  0.05    0.08 
Q23   1  -0.0426  0.5371  0.5412  11.00000  0.05    0.08 
Q24   1  -0.1528  0.8355  0.5822  11.00000  0.05    0.08 
Q25   1  -0.4053  0.4600  0.6413  11.00000  0.05    0.08 
;
_shelx_res_checksum              63588
_shelx_hkl_file
; 
   1   0   0 1111.16 59.0487  64 
   1   0   0 1191.57 58.9969  65 
   1   0   0 1317.71 60.3874  66 
   1   0   0 1122.64 59.1618  67 
   1   0   0 1158.76 59.3312  58 
   1   0   0 1137.11 60.0211  59 
   1   0   0 1205.65 60.3685  59 
   1   0   0 1271.30 59.0260  61 
   1   0   0 1200.94 58.9755  61 
   1   0   0 1077.14 59.5215  62 
   1   0   0 1173.04 58.7912  63 
   1   0   0 1216.94 59.1648  64 
   1   0   0 1237.13 59.4435  58 
  -1   0   0 1167.90 58.9870  65 
  -1   0   0 1198.71 60.1150  66 
  -1   0   0 1232.83 59.2800  67 
   1   0   0 1178.64 58.9323  55 
   1   0   0 1255.70 62.7401  56 
   1   0   0 1237.77 58.9533  57 
  -1   0   0 1226.38 59.6197  62 
  -1   0   0 1288.60 58.8021  63 
  -1   0   0 1213.69 62.5152  56 
  -1   0   0 1266.00 58.9403  57 
  -1   0   0 1194.05 58.9394  57 
  -1   0   0 1208.24 59.4057  58 
  -1   0   0 1299.76 59.3715  58 
  -1   0   0 1182.22 60.0359  59 
  -1   0   0 1260.52 60.4156  59 
  -1   0   0 1220.51 59.0123  61 
  -1   0   0 1245.99 58.9776  61 
  -1   0   0 1155.79 59.1273  64 
  -2   0   0 11.5723 2.22457  61 
  -2   0   0 10.5833 2.23300  61 
  -2   0   0 10.7904 1.48920  53 
  -2   0   0 10.1962 7.21257  56 
  -2   0   0 9.42413 2.02606  57 
  -2   0   0 10.6991 3.23858  58 
  -2   0   0 11.3975 5.11712  59 
  -2   0   0 10.1012 5.26141  59 
  -2   0   0 8.44051 1.73260  51 
  -2   0   0 11.1339 5.17089  66 
   2   0   0 9.11389 1.78853  53 
   2   0   0 9.90353 2.97024  55 
   2   0   0 11.8716 2.88870  64 
   2   0   0 11.3275 5.99176  59 
  -2   0   0 13.1353 3.70344  62 
  -2   0   0 11.1956 1.66519  63 
   2   0   0 13.5051 3.14532  64 
   2   0   0 14.1360 2.92359  65 
   2   0   0 9.72659 4.90083  66 
   2   0   0 8.72009 2.54601  67 
   2   0   0 10.7037 7.71011  56 
   2   0   0 6.65646 2.37191  57 
   2   0   0 11.9472 4.21766  58 
   2   0   0 6.92905 4.55476  59 
  -2   0   0 10.1230 2.58667  65 
   2   0   0 9.08677 2.64826  61 
   2   0   0 15.5319 2.52575  61 
   3   0   0 37.1034 3.67303  65 
   3   0   0 35.6193 5.00473  67 
   3   0   0 38.1993 5.62257  58 
   3   0   0 28.2508 10.7186  59 
   3   0   0 33.2292 7.51290  59 
  -3   0   0 39.6944 6.28506  59 
  -3   0   0 41.6677 5.29728  62 
  -3   0   0 38.5779 2.93095  63 
  -3   0   0 36.0261 3.41934  65 
   3   0   0 39.3544 3.51905  57 
   3   0   0 38.6334 3.17337  51 
   3   0   0 38.2240 2.87420  53 
   3   0   0 43.0342 3.82605  55 
  -3   0   0 39.0026 2.89482  51 
  -3   0   0 41.3428 2.67813  53 
  -3   0   0 37.7974 10.2361  56 
  -3   0   0 41.2848 3.23183  57 
  -3   0   0 32.8870 4.31707  58 
  -3   0   0 39.2829 4.53376  67 
  -4   0   0 31.9065 5.23551  67 
   4   0   0 32.6613 3.00952  45 
  -4   0   0 27.1008 2.63048  63 
  -4   0   0 33.4887 4.95816  57 
  -4   0   0 25.8414 4.93032  58 
   4   0   0 30.7610 5.49941  67 
   4   0   0 25.7672 2.73589  71 
  -4   0   0 26.0686 2.48200  53 
   4   0   0 25.6094 3.84865  65 
   4   0   0 29.9299 4.06181  55 
  -4   0   0 26.5238 5.36165  62 
   4   0   0 26.9885 5.90794  58 
   4   0   0 25.2733 3.67782  57 
  -4   0   0 28.6974 2.63508  47 
  -5   0   0 20.1964 2.68618  45 
   5   0   0 35.2979 11.4120  72 
   5   0   0 15.1897 4.12803  55 
   5   0   0 25.8609 5.76971  67 
  -5   0   0 19.7280 5.19829  67 
  -5   0   0 19.2093 2.94355  71 
  -5   0   0 22.6477 3.17398  74 
  -5   0   0 22.2935 2.64859  47 
   5   0   0 19.1282 3.03212  45 
   5   0   0 16.4574 3.22601  75 
   5   0   0 15.8191 2.72608  71 
   6   0   0 136.182 15.9810  72 
  -6   0   0 110.894 10.0216  67 
  -6   0   0 116.710 7.08732  47 
   6   0   0 94.7431 7.76389  79 
  -6   0   0 111.739 10.9745  76 
   6   0   0 113.643 6.94347  71 
   6   0   0 113.952 7.89574  78 
   6   0   0 112.718 7.21016  41 
   6   0   0 121.675 7.39839  45 
  -6   0   0 110.753 7.24349  74 
   6   0   0 123.568 7.28329  75 
  -7   0   0 423.558 22.6026  81 
   7   0   0 385.298 21.8479  45 
   7   0   0 375.784 21.8751  71 
   7   0   0 435.848 22.0383  41 
   7   0   0 420.094 22.8458  79 
  -7   0   0 427.059 22.9446  83 
   7   0   0 432.983 31.2336  72 
   7   0   0 416.326 22.0259  75 
  -7   0   0 457.982 22.0055  47 
  -7   0   0 413.683 24.7259  76 
   7   0   0 450.170 22.5577  78 
  -8   0   0 254.446 14.3461  81 
  -8   0   0 257.383 16.0496  76 
   8   0   0 214.700 16.2219  45 
   8   0   0 234.103 13.9277  41 
   8   0   0 280.587 18.6192  76 
  -8   0   0 236.472 15.1601  83 
   8   0   0 249.546 14.1752  33 
   8   0   0 248.630 14.4933  78 
  -8   0   0 213.195 13.5350  47 
  -9   0   0 18.8463 4.09799  19 
  -9   0   0 25.7196 4.27264  18 
   9   0   0 20.9634 5.84272  78 
   9   0   0 24.1414 5.72996  81 
   9   0   0 23.4071 6.43361  20 
  -9   0   0 18.8398 5.31703  13 
   9   0   0 28.9668 5.05533  19 
   9   0   0 28.5702 5.05631  18 
  -9   0   0 28.6191 5.08464   4 
  -9   0   0 20.6786 6.25680  83 
  -9   0   0 18.0943 5.41923   5 
  -9   0   0 23.4623 5.01994   2 
   9   0   0 26.4896 5.39487  41 
  -9   0   0 23.5879 5.16260  20 
 -10   0   0 7.76814 2.82550   4 
  10   0   0 8.50797 2.71637  19 
 -10   0   0 7.61202 3.94668  83 
 -10   0   0 5.48910 2.58303   5 
 -10   0   0 9.35164 2.89347  13 
  10   0   0 9.23152 3.04190  18 
 -10   0   0 7.51204 2.87364   2 
  10   0   0 9.65336 3.48297  20 
 -11   0   0 80.6620 7.38562  16 
 -11   0   0 102.708 6.13326   5 
  11   0   0 101.485 7.39560  13 
 -11   0   0 99.3556 5.98070   4 
  11   0   0 93.6242 6.19494  20 
 -11   0   0 89.6083 5.99192   2 
 -11   0   0 116.769 6.01037  13 
  11   0   0 79.0810 5.92995  18 
   0   1   0 -0.1716 0.84501  59 
   0   1   0 -0.1711 0.92815  59 
   0   1   0 0.45843 1.04123  52 
   0   1   0 0.44462 1.09670  54 
   1  -1   0 3097.16 165.410  62 
   1  -1   0 3423.82 164.783  63 
   1  -1   0 3622.10 164.942  65 
   1  -1   0 3375.17 164.903  61 
   1  -1   0 3330.53 164.939  61 
   1  -1   0 3290.52 165.021  64 
  -1  -1   0 3296.62 165.116  64 
  -1  -1   0 3442.45 165.044  65 
  -1  -1   0 3292.41 165.320  67 
  -1  -1   0 3447.15 165.401  58 
  -1  -1   0 3168.32 168.892  56 
  -1  -1   0 3296.79 165.415  58 
   1  -1   0 3262.73 165.087  67 
  -1  -1   0 3498.70 164.988  61 
   1  -1   0 3446.88 165.116  64 
   1  -1   0 3394.23 165.187  58 
   1  -1   0 3585.58 166.091  59 
  -1  -1   0 3313.37 165.024  61 
  -1  -1   0 3457.99 165.233  64 
  -1  -1   0 3410.06 166.236  59 
  -1  -1   0 3437.34 166.451  59 
   1  -1   0 3156.84 164.900  65 
  -1  -1   0 3302.72 164.818  63 
  -1  -1   0 3428.33 165.697  62 
  -1   1   0 3399.23 165.339  52 
   1   1   0 3336.87 164.771  51 
   1   1   0 3435.68 168.291  56 
   1   1   0 3572.36 166.763  59 
  -1   1   0 3415.84 166.021  66 
   1   1   0 3303.49 166.401  66 
  -1   1   0 3680.84 167.227  56 
   1   1   0 3452.77 164.920  58 
   1   1   0 3496.72 166.424  59 
  -1   1   0 3298.99 164.700  63 
  -1   1   0 3336.68 165.046  54 
  -1   1   0 3472.31 166.218  59 
   1   1   0 3563.77 166.486  66 
   2  -1   0 290.659 15.9961  64 
  -2  -1   0 297.717 16.5788  67 
  -2  -1   0 336.808 15.6112  69 
  -2  -1   0 274.900 22.4091  56 
   2  -1   0 269.091 16.0865  64 
   2  -1   0 338.556 16.8760  58 
   2  -1   0 313.503 16.3336  67 
   2  -1   0 293.908 15.7674  61 
   2  -1   0 300.950 15.5692  57 
  -2  -1   0 325.938 16.0193  65 
  -2  -1   0 304.288 15.8562  61 
  -2  -1   0 322.482 16.1670  64 
  -2  -1   0 315.307 15.7702  57 
  -2  -1   0 324.878 16.8099  58 
   2  -1   0 312.483 15.5995  57 
   2  -1   0 309.890 18.6644  58 
  -2  -1   0 306.564 15.4465  63 
  -2  -1   0 290.276 16.2170  64 
   2  -1   0 283.488 15.3922  63 
   2  -1   0 313.837 15.5664  69 
  -2  -1   0 314.198 17.2586  62 
   2  -1   0 294.139 15.8710  65 
  -2  -1   0 306.991 18.3818  59 
  -2  -1   0 325.785 18.9657  59 
  -2  -1   0 301.914 15.9484  61 
   2  -1   0 305.992 18.6248  59 
   2  -1   0 323.063 15.7925  55 
   2  -1   0 289.593 17.9047  59 
   2  -1   0 329.537 15.9479  61 
   2   1   0 333.208 15.4998  51 
   2   1   0 287.193 18.5902  66 
  -2   1   0 314.330 16.0884  67 
  -2   1   0 333.779 16.1767  58 
   2   1   0 280.156 18.5157  66 
  -2   1   0 317.944 17.1998  62 
   2   1   0 299.830 22.3435  56 
  -2   1   0 306.183 16.0268  52 
  -2   1   0 333.062 18.5374  66 
   2   1   0 315.755 15.3586  53 
  -2   1   0 308.276 15.5013  54 
  -2   1   0 295.278 15.3449  63 
   2   1   0 297.099 15.8191  65 
  -2   1   0 325.824 18.3416  66 
  -2   1   0 325.531 18.3036  59 
  -2   1   0 331.925 20.3134  59 
  -2   1   0 327.950 15.2285  53 
  -2   1   0 316.437 21.8076  56 
   2   1   0 318.555 16.6747  58 
   2   1   0 303.356 15.3570  53 
  -2   1   0 291.105 15.1988  53 
   2   1   0 300.569 15.8187  61 
   2   1   0 341.455 19.6737  59 
   2   1   0 320.622 16.3914  67 
  -2   1   0 284.935 15.3650  51 
   2   1   0 296.710 15.5038  54 
   2   1   0 328.268 15.7433  55 
   3  -1   0 582.735 33.6395  64 
   3  -1   0 616.416 34.6034  58 
  -3  -1   0 655.256 34.2672  67 
   3  -1   0 616.923 32.8587  69 
   3  -1   0 609.193 32.4153  49 
  -3  -1   0 666.827 33.4027  65 
   3  -1   0 687.156 33.4022  65 
  -3  -1   0 661.573 33.2989  61 
  -3  -1   0 658.742 33.1751  57 
  -3  -1   0 625.933 32.8277  69 
  -3  -1   0 695.068 35.4847  62 
  -3  -1   0 746.468 35.1522  64 
  -3  -1   0 706.083 32.7020  63 
   3  -1   0 630.197 33.1096  55 
  -3  -1   0 603.349 34.3223  58 
   3  -1   0 624.780 33.0544  57 
   3  -1   0 666.154 33.3876  61 
   3  -1   0 679.468 34.0870  67 
  -3   1   0 699.633 32.6674  51 
   3   1   0 661.240 34.5592  58 
   3   1   0 710.035 33.1860  55 
  -3   1   0 700.950 43.0817  56 
  -3   1   0 685.781 35.4363  62 
   3   1   0 584.506 38.1578  59 
  -3   1   0 681.582 33.2848  52 
  -3   1   0 649.362 33.7746  67 
  -3   1   0 669.126 32.4589  53 
  -3   1   0 714.235 37.1817  66 
   3   1   0 697.793 32.5910  53 
   3   1   0 665.046 33.9892  67 
   3   1   0 651.656 32.7114  51 
  -4  -1   0 1080.71 53.6843  71 
  -4  -1   0 1078.94 53.8936  63 
  -4  -1   0 1042.36 53.7160  47 
  -4  -1   0 1070.28 53.6307  45 
  -4  -1   0 1013.51 57.3789  62 
   4  -1   0 958.953 53.8779  46 
  -4  -1   0 1169.46 55.0070  65 
   4  -1   0 1133.83 53.6535  71 
  -4  -1   0 1062.68 56.0580  67 
   4  -1   0 1095.64 53.5687  49 
   4  -1   0 1122.62 53.9768  48 
   4  -1   0 1002.02 55.6535  67 
   4  -1   0 1087.34 54.8766  65 
   4  -1   0 1107.90 53.6818  45 
   4   1   0 1130.95 54.0008  51 
  -4   1   0 1081.23 53.8582  51 
   4   1   0 1172.75 58.4382  72 
  -4   1   0 1085.55 71.9798  56 
  -4   1   0 1103.29 53.6342  53 
  -4   1   0 1125.48 54.0423  74 
   4   1   0 1122.14 54.5657  55 
   4   1   0 1155.93 53.7986  53 
   4   1   0 1142.22 55.8522  67 
   5  -1   0 29.5905 5.56876  67 
  -5  -1   0 28.6636 5.61417  67 
   5  -1   0 30.9712 3.21433  45 
   5  -1   0 21.8649 4.64567  44 
  -5  -1   0 25.0898 3.20803  75 
  -5  -1   0 29.4161 4.41748  44 
   5  -1   0 29.8037 4.16201  48 
   5  -1   0 24.8973 3.27209  75 
  -5  -1   0 31.3686 3.29115  47 
  -5  -1   0 27.5497 4.13106  65 
  -5  -1   0 25.4494 2.93095  71 
   5  -1   0 26.1659 4.50117  65 
  -5  -1   0 28.2369 2.95478  45 
   5  -1   0 26.9475 3.17746  71 
   5   1   0 25.2500 4.22951  78 
  -5   1   0 32.4459 3.15953  51 
   5   1   0 21.4500 6.13027  67 
  -5   1   0 26.9065 2.45236  53 
   5   1   0 27.4752 4.33655  55 
   5   1   0 28.0355 5.02586  73 
   5   1   0 30.8329 3.16997  53 
  -5   1   0 24.6910 3.53369  74 
   5   1   0 39.2339 8.66235  72 
  -6  -1   0 73.1217 5.23184  45 
  -6  -1   0 71.6753 5.35266  75 
  -6  -1   0 86.7336 5.32812  47 
  -6  -1   0 76.6431 5.18763  71 
   6  -1   0 80.5842 5.43159  45 
   6  -1   0 88.7773 5.50561  71 
   6  -1   0 86.3106 6.26899  48 
   6  -1   0 69.6821 6.25766  79 
   6  -1   0 80.9125 6.95303  44 
   6  -1   0 76.2339 5.70346  75 
   6  -1   0 68.1014 5.55633  41 
  -6   1   0 60.1952 5.21201  51 
   6   1   0 75.3224 6.09555  53 
  -6   1   0 75.2040 8.73414  83 
  -6   1   0 69.1300 5.00606  81 
   6   1   0 71.1913 6.03305  78 
   6   1   0 67.8504 11.0230  72 
   6   1   0 77.6201 6.53906  81 
   6   1   0 77.9001 7.15900  73 
   7  -1   0 31.7769 4.12831  71 
   7  -1   0 23.3412 5.08676  79 
   7  -1   0 27.0685 5.17499  48 
   7  -1   0 29.6273 4.72718  75 
  -7  -1   0 29.5262 4.41794  75 
  -7  -1   0 27.3022 3.97566  47 
   7  -1   0 30.1063 4.16145  45 
   7  -1   0 28.5805 4.66758  41 
  -7  -1   0 30.2188 4.10967  71 
  -7  -1   0 21.2968 3.69777  45 
   7   1   0 29.2314 6.63640  73 
   7   1   0 22.6904 4.90089  78 
   7   1   0 13.3188 7.35766  76 
  -7   1   0 21.0568 5.21445  83 
   7   1   0 34.2113 5.35915  81 
   8  -1   0 302.792 16.0280  41 
   8  -1   0 296.243 17.0097  79 
  -8  -1   0 307.884 17.4650  75 
  -8  -1   0 259.996 15.5978  47 
   8  -1   0 308.414 15.8945  45 
   8  -1   0 253.105 15.3601  71 
   8  -1   0 289.674 15.9143  75 
   8  -1   0 291.346 15.9585  33 
   8  -1   0 289.681 27.2364  72 
  -8  -1   0 256.143 15.3536  45 
  -8  -1   0 279.924 20.2349  76 
   8   1   0 304.750 17.1741  73 
   8   1   0 288.533 15.7462  81 
  -8   1   0 271.683 16.4398  83 
   8   1   0 284.524 16.0453  78 
   9  -1   0 -1.1293 3.59412  41 
   9  -1   0 1.42827 3.39339  75 
   9  -1   0 -1.6634 2.95889  27 
   9  -1   0 5.59196 3.86339  24 
   9  -1   0 3.13324 4.84870  78 
  -9  -1   0 0.19969 2.96104  20 
  -9  -1   0 0.86471 2.55920  19 
   9  -1   0 4.22565 3.39819  33 
   9  -1   0 0.78610 4.05450  79 
  -9  -1   0 0.16624 2.66601  18 
   9  -1   0 -0.0129 3.30683  18 
   9  -1   0 5.99565 3.73008  20 
  -9  -1   0 -2.9063 2.67401  81 
   9  -1   0 -1.8568 3.21537  19 
  -9  -1   0 1.04376 2.51931  76 
  -9   1   0 -0.1003 2.69822  13 
   9   1   0 -4.6180 6.74401  20 
   9   1   0 7.05374 3.01468  18 
  -9   1   0 -1.6683 2.64925   5 
  -9   1   0 -1.1704 2.82412   7 
  -9   1   0 0.88723 2.74540   2 
  -9   1   0 2.47885 2.95346   4 
   9   1   0 0.08103 3.53123   4 
   9   1   0 -0.0270 3.42251  13 
   9   1   0 0.26539 3.01066  15 
   9   1   0 -0.1475 3.78274  78 
  -9   1   0 2.85108 4.58978  83 
 -10  -1   0 22.7311 3.93706  19 
  10  -1   0 27.4867 4.48889  19 
 -10  -1   0 27.6581 5.01784  20 
  10  -1   0 19.0729 4.53649  18 
  10  -1   0 25.0630 5.25034  20 
  10  -1   0 22.1156 4.74837  33 
 -10  -1   0 22.3465 4.15181  18 
  10   1   0 27.1027 4.82372   4 
 -10   1   0 21.7940 4.85266   5 
 -10   1   0 28.9907 4.05061   3 
 -10   1   0 22.6309 7.00693  83 
 -10   1   0 21.7736 3.86051  13 
  10   1   0 21.1106 4.89925  13 
 -10   1   0 33.8630 4.08139  16 
 -10   1   0 19.0757 4.55503   2 
 -10   1   0 27.1425 4.50294   4 
  11  -1   0 63.0419 5.11243  20 
 -11  -1   0 76.7857 5.49620  13 
  11  -1   0 67.2686 4.71478  18 
 -11  -1   0 53.7629 4.55066  20 
  11  -1   0 63.3422 4.64522  19 
 -11   1   0 73.2664 4.49627   3 
 -11   1   0 75.4968 4.88347   4 
  11   1   0 78.0983 4.78304  16 
 -11   1   0 62.1084 4.27945  13 
 -11   1   0 68.1751 4.86625   2 
  11   1   0 61.4220 4.94695   4 
 -11   1   0 75.6338 4.20895  16 
  11   1   0 77.1760 4.97892  13 
 -11   1   0 72.7160 4.91326   5 
 -11   1   0 71.8697 4.23166   1 
   0  -2   0 53.4407 2.84096  64 
   0  -2   0 52.9419 2.80985  64 
   0  -2   0 52.8215 2.66531  63 
   0   2   0 59.3438 4.13426  54 
   0   2   0 46.7024 4.02551  52 
  -1  -2   0 379.019 18.8234  69 
   1  -2   0 376.274 19.1339  64 
   1  -2   0 367.012 18.9494  61 
  -1  -2   0 377.001 19.3788  64 
  -1  -2   0 382.828 18.8150  69 
   1  -2   0 374.384 19.0699  64 
  -1  -2   0 371.506 18.8932  63 
  -1  -2   0 371.161 19.0840  61 
   1  -2   0 373.671 18.9185  65 
  -1  -2   0 392.379 19.1839  65 
  -1  -2   0 385.015 19.6499  58 
  -1  -2   0 374.022 19.1530  61 
   1  -2   0 390.840 18.9206  61 
  -1  -2   0 419.093 19.3452  64 
   1   2   0 397.926 21.0042  66 
  -1   2   0 366.724 19.7803  59 
  -1   2   0 391.915 20.0909  66 
  -1   2   0 397.896 20.1022  52 
  -1   2   0 376.645 19.6235  54 
  -1   2   0 432.034 20.3178  66 
   1   2   0 371.610 19.7291  52 
   1   2   0 360.834 20.8582  66 
   1   2   0 412.230 19.7233  54 
  -2  -2   0 130.997 7.32795  64 
   2  -2   0 121.641 6.17501  70 
   2  -2   0 127.804 7.84739  58 
   2  -2   0 122.882 6.21688  50 
   2  -2   0 124.625 6.91848  61 
  -2  -2   0 120.648 6.27473  70 
  -2  -2   0 119.133 6.94705  61 
  -2  -2   0 118.683 7.08919  65 
   2  -2   0 125.124 6.48437  69 
  -2  -2   0 117.731 6.38743  50 
  -2  -2   0 121.282 6.58237  69 
   2  -2   0 142.648 11.4048  59 
  -2  -2   0 123.539 6.53510  63 
   2  -2   0 125.831 7.22961  64 
  -2  -2   0 120.968 6.34802  50 
   2  -2   0 123.327 6.90406  65 
   2  -2   0 121.661 6.25847  49 
   2  -2   0 121.331 6.25596  50 
   2  -2   0 116.350 7.02964  64 
  -2  -2   0 120.844 7.99408  58 
   2   2   0 117.430 6.72644  60 
   2   2   0 119.988 7.22457  54 
  -2   2   0 143.812 9.64156  66 
  -2   2   0 122.734 9.20277  66 
   2   2   0 107.134 9.74380  66 
  -2   2   0 123.828 7.08325  54 
  -2   2   0 137.281 8.04463  52 
  -3  -2   0 997.718 50.6699  47 
  -3  -2   0 1076.21 50.7356  63 
   3  -2   0 1029.81 50.4093  49 
   3  -2   0 1105.46 50.4191  70 
  -3  -2   0 1016.65 51.8096  64 
   3  -2   0 995.262 50.8573  69 
  -3  -2   0 1037.05 50.4398  46 
   3  -2   0 1048.83 50.4624  71 
  -3  -2   0 1043.24 50.5228  45 
  -3  -2   0 994.058 51.3858  61 
   3  -2   0 988.472 50.3266  46 
   3  -2   0 959.994 50.6345  48 
  -3  -2   0 983.459 52.4763  67 
   3  -2   0 1062.72 50.4090  50 
   3  -2   0 977.269 52.6715  58 
  -3  -2   0 1053.60 50.9341  69 
   3  -2   0 1114.33 51.4609  65 
  -3  -2   0 1044.51 50.4589  70 
   3  -2   0 1107.69 51.9729  64 
   3  -2   0 969.519 50.4742  45 
  -3  -2   0 1045.98 51.5450  65 
  -3  -2   0 1078.73 50.5825  71 
  -3  -2   0 882.207 52.1058  57 
   3   2   0 1136.90 50.5320  51 
  -3   2   0 1022.87 55.0315  66 
  -3   2   0 1037.70 51.8842  52 
  -4  -2   0 268.525 13.6630  46 
  -4  -2   0 284.194 15.2855  65 
  -4  -2   0 262.939 13.7072  45 
   4  -2   0 271.854 14.1336  48 
  -4  -2   0 264.055 13.8137  71 
  -4  -2   0 269.574 13.9476  75 
  -4  -2   0 270.646 13.6778  70 
   4  -2   0 281.774 13.6835  49 
   4  -2   0 276.843 14.3864  69 
   4  -2   0 254.468 14.3223  44 
   4  -2   0 281.705 13.5908  46 
   4  -2   0 229.938 14.7364  65 
  -4  -2   0 262.379 14.4670  44 
  -4  -2   0 263.495 16.4367  67 
   4  -2   0 280.372 13.6628  70 
   4  -2   0 289.969 13.9277  75 
   4  -2   0 269.084 13.7142  71 
   4  -2   0 251.817 13.7188  45 
  -4  -2   0 251.907 13.8788  47 
   4   2   0 257.122 14.0298  73 
  -4   2   0 280.680 15.2789  52 
  -4   2   0 276.323 13.4415  51 
  -4   2   0 236.998 19.0424  66 
   4   2   0 286.883 13.8873  51 
   5  -2   0 245.176 13.4954  44 
   5  -2   0 228.900 12.7972  41 
   5  -2   0 241.000 13.1444  48 
  -5  -2   0 252.134 12.6427  45 
   5  -2   0 231.013 12.4513  71 
  -5  -2   0 245.556 16.0621  67 
   5  -2   0 234.904 12.3895  46 
  -5  -2   0 241.628 13.5784  44 
   5  -2   0 232.915 12.5821  45 
  -5  -2   0 248.205 12.7664  47 
   5  -2   0 247.839 12.7902  75 
   5  -2   0 215.835 13.0776  79 
  -5  -2   0 238.157 12.8430  75 
  -5  -2   0 235.771 12.5824  71 
   5   2   0 235.117 13.1274  73 
   5   2   0 238.653 12.7234  78 
   5   2   0 223.604 11.9455  53 
   5   2   0 229.108 12.6928  51 
   5   2   0 267.243 13.1511  77 
  -5   2   0 236.369 12.2411  51 
  -5   2   0 238.840 12.7666  77 
   6  -2   0 0.64790 2.20973  45 
   6  -2   0 -0.8415 2.36962  44 
  -6  -2   0 2.63936 2.44143  75 
   6  -2   0 2.76682 2.87179  79 
  -6  -2   0 3.54117 2.02363  45 
  -6  -2   0 0.75317 3.38020  47 
   6  -2   0 3.00767 3.26841  48 
  -6  -2   0 1.51209 2.18122  44 
  -6  -2   0 1.80251 2.21596  71 
   6  -2   0 2.82138 3.35221  41 
   6  -2   0 4.36633 2.04800  71 
   6  -2   0 4.17456 2.71555  75 
   6   2   0 6.15957 3.99512  73 
  -6   2   0 5.24208 2.95740  77 
   6   2   0 -1.1443 3.44495  38 
   6   2   0 1.47475 2.86079  78 
   6   2   0 6.59542 3.67780  77 
  -6   2   0 4.11989 3.61188  83 
   7  -2   0 123.218 9.88042  44 
  -7  -2   0 120.070 8.01201  71 
  -7  -2   0 126.998 8.25653  47 
  -7  -2   0 131.585 8.30180  45 
   7  -2   0 138.515 9.03898  41 
   7  -2   0 119.106 8.09285  45 
  -7  -2   0 130.385 8.58582  75 
   7  -2   0 137.737 9.15735  33 
   7  -2   0 118.196 9.09644  48 
   7  -2   0 131.629 9.25012  79 
   7  -2   0 137.220 8.68234  75 
   7  -2   0 130.667 7.89286  71 
  -7   2   0 133.644 8.66752  77 
   7   2   0 122.718 8.65984  38 
   7   2   0 132.682 10.0360  78 
   7   2   0 140.815 10.2834  77 
  -7   2   0 135.182 9.18605  83 
   7   2   0 138.093 9.13738  73 
  -8  -2   0 26.8347 4.60483  27 
   8  -2   0 26.0106 4.86076  75 
  -8  -2   0 33.0178 4.97711  75 
   8  -2   0 34.0164 6.50153  79 
   8  -2   0 27.5136 5.09305  41 
  -8  -2   0 29.3402 4.95188  18 
   8  -2   0 19.6117 5.92917  33 
  -8  -2   0 28.2926 4.86994  19 
  -8  -2   0 34.0406 5.45664  20 
   8  -2   0 15.7035 4.61546  27 
  -8   2   0 27.5440 5.68549  83 
  -8   2   0 33.4521 3.81016  28 
  -8   2   0 35.5975 4.19611   3 
   8   2   0 32.1049 4.98418  73 
   8   2   0 17.3742 3.89374   4 
   8   2   0 33.0987 6.20749   7 
  -8   2   0 28.2336 4.88984  14 
  -8   2   0 30.6352 4.94103  77 
   8   2   0 24.6670 5.78372  31 
  -8   2   0 25.6037 4.11678   1 
  -8   2   0 28.9893 4.73789  31 
  -8   2   0 30.3412 4.82273   7 
  -8   2   0 32.1171 3.94825  16 
  -8   2   0 27.3263 4.21926  17 
  -8   2   0 30.6088 5.74683   5 
   8   2   0 27.4486 5.53991  13 
   8   2   0 38.3085 7.11641  15 
   8   2   0 30.2145 5.47914  38 
  -8   2   0 24.9371 4.84998   2 
  -8   2   0 24.7846 4.25669  13 
  -8   2   0 28.1236 4.53433   4 
  -9  -2   0 244.692 13.1744  18 
   9  -2   0 223.751 13.5454  19 
  -9  -2   0 223.093 13.4558  20 
  -9  -2   0 230.100 13.9485  27 
   9  -2   0 227.729 14.4093  79 
   9  -2   0 233.712 13.0903  27 
  -9  -2   0 247.774 13.0794  19 
   9  -2   0 256.227 15.0675  24 
   9  -2   0 238.042 13.5697  33 
   9  -2   0 227.380 13.7990  20 
   9  -2   0 241.163 13.6230  41 
  -9   2   0 227.802 12.7919   4 
  -9   2   0 231.642 12.7541   3 
  -9   2   0 239.907 12.5183  16 
  -9   2   0 246.989 13.5238   5 
   9   2   0 240.016 13.0887  16 
  -9   2   0 245.362 13.0180  31 
  -9   2   0 261.673 12.6839   1 
  -9   2   0 246.906 13.2531   7 
   9   2   0 226.341 13.6505   7 
   9   2   0 203.245 13.0545   3 
   9   2   0 218.813 13.2169   4 
   9   2   0 247.695 13.2941  13 
  -9   2   0 242.693 13.8007  83 
  -9   2   0 242.284 12.6715  13 
  -9   2   0 253.667 13.1763  14 
   9   2   0 253.714 13.9692  15 
  -9   2   0 226.591 12.9962   2 
 -10  -2   0 47.7525 5.28476  20 
  10  -2   0 48.4857 5.04313  18 
 -10  -2   0 51.3533 4.46885  19 
  10  -2   0 48.8528 5.75070  20 
  10  -2   0 47.8848 5.08912  19 
  10  -2   0 45.5303 5.05372  33 
 -10  -2   0 50.3961 4.72819  18 
  10  -2   0 52.0450 5.73872  24 
  10  -2   0 45.3484 4.50203  27 
 -10   2   0 47.9071 4.30553   4 
 -10   2   0 54.8032 4.68805  14 
  10   2   0 57.6385 5.10984   4 
 -10   2   0 50.6212 4.50030  31 
 -10   2   0 48.2666 3.70128  32 
 -10   2   0 57.7139 4.61260   2 
 -10   2   0 49.3306 3.85059   1 
  10   2   0 46.2056 4.74902   3 
 -10   2   0 48.2769 5.12990   5 
 -10   2   0 55.5251 5.26539   7 
 -10   2   0 46.4181 3.27603  16 
  10   2   0 52.3175 5.84714   7 
  10   2   0 52.6146 4.48973  16 
 -10   2   0 60.0351 4.01413   3 
  10   2   0 48.9239 4.80871  13 
   0   3   0 1.05400 2.33398  52 
   0   3   0 -0.1450 1.89186  54 
  -1  -3   0 754.073 35.2893  50 
   1  -3   0 714.459 35.5149  64 
  -1  -3   0 751.719 35.4763  69 
  -1  -3   0 724.858 36.0093  64 
   1  -3   0 736.463 35.5438  64 
  -1  -3   0 728.244 35.2821  50 
  -1  -3   0 661.416 35.8391  64 
  -1   3   0 708.825 36.6940  54 
  -1   3   0 777.606 37.5582  52 
   1   3   0 678.528 36.6677  54 
   1   3   0 729.032 37.2733  66 
   2  -3   0 36.0231 2.39708  50 
   2  -3   0 41.6834 2.21637  70 
  -2  -3   0 42.5958 2.44663  70 
  -2  -3   0 36.0265 3.24769  65 
  -2  -3   0 39.7248 2.84161  69 
   2  -3   0 39.1327 2.44660  49 
  -2  -3   0 40.3642 2.39034  46 
   2  -3   0 45.2600 2.66075  69 
   2  -3   0 40.7217 2.30602  50 
  -2  -3   0 38.1371 2.55945  50 
   2  -3   0 40.0071 3.10423  64 
  -2   3   0 38.3836 4.60938  52 
  -2   3   0 38.9912 4.90025  66 
  -2   3   0 41.7374 4.07417  54 
  -2   3   0 38.9043 4.64732  66 
   2   3   0 37.8391 4.02918  54 
   3  -3   0 90.4037 4.81088  70 
  -3  -3   0 89.2399 4.91869  70 
   3  -3   0 90.8729 5.87763  65 
  -3  -3   0 84.6732 4.93980  46 
   3  -3   0 85.5636 5.34816  48 
  -3  -3   0 85.5548 5.80861  44 
   3  -3   0 89.2793 4.73748  46 
   3  -3   0 84.1716 4.92611  49 
  -3  -3   0 86.9690 5.44459  69 
   3  -3   0 92.6672 5.39937  69 
   3  -3   0 90.5451 4.81716  50 
  -3   3   0 87.2025 7.11514  52 
   3   3   0 86.6424 5.23205  77 
   4  -3   0 67.6998 4.31920  49 
  -4  -3   0 67.8386 4.48233  45 
  -4  -3   0 70.8740 4.30741  46 
   4  -3   0 68.3185 5.34872  44 
  -4  -3   0 60.9141 4.75421  69 
   4  -3   0 61.0523 4.72214  69 
  -4  -3   0 72.2861 4.55622  71 
  -4  -3   0 66.8683 4.81175  75 
  -4  -3   0 69.7055 5.69443  44 
  -4  -3   0 60.1198 4.16508  70 
   4  -3   0 71.0656 5.05626  48 
   4  -3   0 62.4144 4.08240  70 
  -4  -3   0 71.6582 4.88550  47 
   4  -3   0 70.4970 4.08719  46 
  -4   3   0 69.5825 5.18108  42 
  -4   3   0 70.9842 4.63685  80 
   4   3   0 62.6632 4.87072  77 
  -4   3   0 54.1299 6.19505  52 
   4   3   0 66.2051 6.03827  43 
  -4   3   0 61.1666 4.15733  77 
   5  -3   0 125.419 7.52986  70 
   5  -3   0 138.844 7.52111  46 
   5  -3   0 137.079 7.68399  71 
  -5  -3   0 112.156 7.60161  46 
   5  -3   0 147.827 8.52974  48 
  -5  -3   0 139.669 7.85439  45 
  -5  -3   0 137.474 9.19074  44 
  -5  -3   0 124.615 7.93396  47 
  -5  -3   0 141.539 8.26171  75 
  -5  -3   0 132.989 7.73349  71 
   5  -3   0 129.235 8.86708  44 
   5   3   0 122.865 8.97138  40 
   5   3   0 139.137 9.64928  43 
   5   3   0 138.071 9.20672  38 
   5   3   0 150.824 8.28183  77 
  -5   3   0 130.316 7.63734  77 
   6  -3   0 195.008 11.7525  46 
  -6  -3   0 242.652 12.5669  47 
  -6  -3   0 217.427 12.1123  45 
   6  -3   0 218.123 11.9671  71 
  -6  -3   0 218.559 12.0773  71 
  -6  -3   0 212.688 13.4232  44 
   6  -3   0 230.119 13.0363  79 
   6  -3   0 250.805 12.9109  48 
   6  -3   0 210.302 12.0570  45 
   6  -3   0 218.497 12.5504  41 
   6  -3   0 208.004 12.1961  75 
   6  -3   0 208.718 13.3729  44 
  -6  -3   0 224.399 12.5005  75 
  -6   3   0 219.454 11.8918  77 
   6   3   0 226.567 12.5102  77 
   6   3   0 209.016 12.8513  38 
   6   3   0 215.421 12.9356  40 
  -7  -3   0 228.650 12.2817  27 
   7  -3   0 217.159 12.5315  75 
   7  -3   0 185.615 12.1755  71 
   7  -3   0 241.393 12.8791  41 
  -7  -3   0 199.144 12.6972  47 
  -7  -3   0 188.145 12.3341  75 
   7  -3   0 213.192 13.7884  44 
   7  -3   0 245.955 13.5440  79 
   7  -3   0 217.697 13.0842  48 
  -7  -3   0 197.170 13.4701  44 
   7  -3   0 222.302 12.2483  45 
  -7  -3   0 208.626 13.0530  71 
   7  -3   0 205.448 12.8552  27 
  -7  -3   0 232.968 12.6148  45 
  -7   3   0 213.018 11.3835   1 
  -7   3   0 234.311 12.6536  25 
   7   3   0 223.105 11.9670   1 
  -7   3   0 215.507 11.4216  32 
  -7   3   0 239.969 12.6592  14 
   7   3   0 220.240 12.3297   4 
   7   3   0 245.506 13.3767  38 
  -7   3   0 223.673 11.9857  77 
  -7   3   0 214.363 11.5564   3 
  -7   3   0 215.986 11.6467  28 
  -7   3   0 211.704 11.5882  29 
   7   3   0 236.564 12.7343  30 
   7   3   0 210.305 11.7997  16 
   7   3   0 209.448 12.0535  28 
  -7   3   0 230.711 13.5247   6 
   7   3   0 228.951 12.6793  77 
   7   3   0 227.877 12.5229  31 
   7   3   0 231.971 12.7883  13 
  -7   3   0 209.885 11.9658  31 
  -7   3   0 222.632 12.2230   7 
   7   3   0 183.485 13.9927  10 
   7   3   0 234.177 12.6793   7 
   7   3   0 214.286 12.1050   3 
  -7   3   0 211.029 12.0131  30 
   8  -3   0 62.4588 6.84416  79 
  -8  -3   0 53.9873 5.26885  27 
   8  -3   0 61.7965 6.14604  41 
   8  -3   0 54.9177 6.16840  33 
   8  -3   0 39.6107 5.29436  27 
   8   3   0 59.5505 5.78797  77 
  -8   3   0 49.4835 4.45387  28 
  -8   3   0 53.8861 4.97025  30 
   8   3   0 55.5383 5.99702  38 
   8   3   0 53.0614 5.22102  32 
  -8   3   0 54.9756 3.88296  32 
   8   3   0 60.1873 4.59763  16 
  -8   3   0 61.1700 4.23357   3 
   8   3   0 63.4891 9.02890  15 
  -8   3   0 57.2870 6.32129   6 
   8   3   0 59.6686 5.20208  13 
  -8   3   0 44.8627 4.64706  17 
   8   3   0 55.5796 5.23573  28 
   8   3   0 62.7890 5.18887   3 
   8   3   0 53.6805 5.75530  31 
  -8   3   0 59.9346 4.03733   1 
  -8   3   0 59.2064 5.06285  31 
  -8   3   0 59.0632 5.41810   7 
   8   3   0 58.7900 4.91156   1 
   8   3   0 58.7489 5.73756   4 
  -8   3   0 54.1158 4.57688  77 
  -8   3   0 57.6289 5.51804  14 
   8   3   0 61.1607 6.12183   7 
  -9  -3   0 26.1874 4.43571  18 
   9  -3   0 42.1962 7.49559  24 
  -9  -3   0 20.1965 3.67860  27 
  -9  -3   0 26.4140 4.77851  20 
  -9  -3   0 18.6814 4.26949  19 
   9  -3   0 31.4199 4.17887  27 
   9  -3   0 26.8202 4.76970  33 
   9   3   0 21.8571 4.49040  31 
  -9   3   0 22.5900 2.23590  32 
   9   3   0 20.7670 3.45393   1 
  -9   3   0 32.6180 4.38235  14 
  -9   3   0 28.1777 3.31488  28 
   9   3   0 19.5174 3.42629  32 
   9   3   0 26.1535 3.86734   3 
  -9   3   0 24.6387 3.61533  30 
   9   3   0 23.1838 5.42335   7 
  -9   3   0 18.5589 4.04585   7 
  -9   3   0 17.3820 2.58010   3 
   9   3   0 21.4794 4.41801   4 
   9   3   0 18.9726 2.68680  16 
  -9   3   0 24.4323 4.74456   6 
   9   3   0 19.4973 5.80368  15 
  -9   3   0 21.4754 3.44565  31 
  10  -3   0 23.7458 3.02910  27 
 -10  -3   0 24.2235 3.71678  20 
  10  -3   0 25.8419 4.22853  24 
 -10  -3   0 27.4979 3.38367  18 
 -10  -3   0 25.2422 3.29816  19 
 -10   3   0 28.1772 2.63597  30 
  10   3   0 22.4401 2.04043   1 
  10   3   0 24.3248 3.39703  30 
  10   3   0 28.0062 2.63369   3 
 -10   3   0 29.4134 3.33536  14 
  10   3   0 18.2184 3.09456   4 
  10   3   0 27.6766 3.43384  15 
 -10   3   0 25.4840 3.22926   7 
 -10   3   0 22.8420 2.45950  31 
 -10   3   0 28.5730 2.50728  28 
  10   3   0 25.5077 2.43117  32 
  10   3   0 21.4119 3.44724  31 
  10   3   0 26.6938 3.78885   7 
   0   4   0 16.3244 5.72213  82 
   0   4   0 7.06629 2.69768  43 
  -1  -4   0 212.291 10.3252  70 
   1  -4   0 211.860 10.3955  69 
  -1  -4   0 210.629 10.6404  69 
  -1  -4   0 208.023 10.3741  50 
   1   4   0 188.133 11.9314  43 
   1   4   0 225.079 10.4125  80 
   1   4   0 189.429 13.2978  82 
  -1   4   0 209.115 13.3705  52 
  -1   4   0 207.569 11.9361  43 
   1   4   0 198.065 11.6175  40 
   2  -4   0 303.529 15.3992  50 
  -2  -4   0 332.941 15.5617  70 
  -2  -4   0 316.682 15.6431  50 
  -2  -4   0 301.212 15.9776  69 
   2  -4   0 318.245 15.3824  70 
   2  -4   0 301.405 15.4388  50 
   2  -4   0 324.312 15.8175  69 
  -2  -4   0 308.938 15.5181  46 
   2   4   0 290.182 16.8286  40 
   2   4   0 314.932 17.7902  82 
  -2   4   0 317.478 15.3814  80 
   2   4   0 294.311 17.0401  43 
   2   4   0 312.855 15.5972  80 
   3  -4   0 28.6854 2.15837  70 
  -3  -4   0 29.4214 2.44196  70 
   3  -4   0 29.1554 2.28342  46 
   3  -4   0 28.7489 2.67830  69 
  -3  -4   0 33.3889 2.96223  69 
   3  -4   0 33.2401 2.32348  50 
  -3  -4   0 28.3353 2.61400  46 
   3   4   0 24.3328 4.77892  43 
  -3   4   0 27.0890 4.27638  42 
  -3   4   0 26.7889 2.56788  80 
   3   4   0 26.9624 2.93151  80 
   3   4   0 27.4546 4.81227  40 
   3   4   0 22.7100 6.50706  82 
  -4  -4   0 45.6754 5.38235  44 
  -4  -4   0 39.6524 3.38827  70 
   4  -4   0 50.9799 3.29818  70 
   4  -4   0 45.4826 3.32750  46 
   4   4   0 41.7749 5.36169  38 
   4   4   0 48.9214 5.81095  40 
   4   4   0 43.6074 3.54012  35 
  -4   4   0 43.9972 3.67058  80 
  -4   4   0 40.8088 4.80296  42 
   4   4   0 46.6446 3.50478  35 
   4   4   0 40.5582 5.99258  43 
   5  -4   0 17.8353 2.47896  70 
  -5  -4   0 15.2885 2.95353  46 
   5  -4   0 21.7536 4.86834  44 
   5  -4   0 19.3128 2.72796  46 
  -5  -4   0 24.7398 5.07602  44 
   5  -4   0 20.2782 3.90637  48 
   5   4   0 17.0741 3.20302  35 
   5   4   0 24.1573 6.00274  40 
   5   4   0 22.1447 4.10103  77 
   5   4   0 15.6327 4.89572  43 
   5   4   0 21.8225 5.52481  38 
  -5   4   0 13.9178 3.09580  80 
  -6  -4   0 66.1028 6.98641  44 
  -6  -4   0 69.4376 5.64135  75 
   6  -4   0 71.1149 7.17008  44 
  -6   4   0 71.2484 4.73750  29 
   6   4   0 71.2814 5.32539  29 
   6   4   0 70.6179 5.71943  30 
  -6   4   0 76.3487 6.57589  25 
   6   4   0 73.1960 6.31591   7 
   6   4   0 69.6024 5.49932  28 
   6   4   0 79.2492 5.71858  35 
   6   4   0 68.6004 4.93665  77 
   6   4   0 70.1227 5.94633  31 
   6   4   0 68.9802 6.32969   3 
  -6   4   0 81.3578 6.87862   6 
  -6   4   0 74.1877 4.96842  30 
   6   4   0 78.4326 7.33982  40 
   6   4   0 71.3955 4.34980  32 
  -6   4   0 68.5464 6.90998  14 
   6   4   0 75.3127 6.76054  38 
  -6   4   0 78.3310 4.95721  28 
   6   4   0 73.0321 7.05216  10 
  -7  -4   0 19.0337 3.99731  27 
   7   4   0 18.0306 4.93169   7 
   7   4   0 15.2685 4.04854  30 
  -7   4   0 16.3377 3.89629  25 
   7   4   0 15.0188 4.28048   3 
   7   4   0 15.9437 1.90431  32 
   7   4   0 18.0293 4.20236  31 
  -7   4   0 10.4473 3.80158   6 
   7   4   0 8.22236 3.71906  38 
   7   4   0 11.9874 3.46042  10 
   7   4   0 22.5674 5.87810  40 
   7   4   0 10.2168 3.68096  35 
  -7   4   0 10.6225 3.01857  14 
   7   4   0 16.5385 4.76328  77 
   7   4   0 10.8263 2.74377  28 
  -7   4   0 13.7989 2.73307  29 
  -7   4   0 13.0004 2.94827  28 
   7   4   0 15.6807 3.69428  29 
  -7   4   0 13.4184 3.06432  30 
  -8  -4   0 59.3050 4.97235  27 
   8  -4   0 64.2008 4.90418  27 
  -8   4   0 62.8361 4.18966  29 
   8   4   0 53.7980 5.64841   7 
  -8   4   0 55.7795 5.20477  14 
  -8   4   0 64.1246 5.40894  25 
   8   4   0 61.7838 4.78796  28 
  -8   4   0 59.6418 4.73737   7 
  -8   4   0 57.1497 4.04986  28 
  -8   4   0 59.7671 3.96582  30 
   8   4   0 52.5079 4.86810  31 
   8   4   0 55.2193 4.17762  35 
  -8   4   0 59.3702 5.85033   6 
   8   4   0 57.3272 4.97412  30 
   9  -4   0 17.4807 3.13708  27 
  -9  -4   0 11.6719 2.55728  27 
   9  -4   0 10.9797 2.98414  24 
   9   4   0 14.3013 2.77830  28 
   9   4   0 10.3715 2.94111  30 
   9   4   0 9.12235 4.41696  15 
  -9   4   0 12.3897 2.58868  25 
  -9   4   0 14.7773 3.06981  14 
  -9   4   0 14.9094 2.13330  28 
   9   4   0 7.32391 2.19638   7 
  -9   4   0 15.4572 3.41705   6 
   9   4   0 10.1654 2.60186  31 
  -9   4   0 17.2679 2.18511  30 
  -9   4   0 16.2523 2.19672  29 
   0  -5   0 0.21514 0.41652  70 
   0   5   0 -0.6255 3.54644  39 
   0   5   0 8.38520 5.77536  82 
   0   5   0 -0.1512 3.01100  43 
   0   5   0 0.41715 3.35894  36 
   1  -5   0 272.529 13.0389  70 
  -1  -5   0 246.363 13.0883  70 
   1   5   0 262.105 15.5268  36 
   1   5   0 257.166 14.5977  39 
  -1   5   0 260.449 16.1671  82 
   1   5   0 280.812 15.4951  43 
  -1   5   0 281.446 14.7537  39 
  -1   5   0 268.106 15.3037  36 
   1   5   0 235.484 16.1832  82 
   2   5   0 255.227 15.6122  43 
   2   5   0 265.133 15.2749  40 
   2   5   0 266.009 17.0775  82 
   2   5   0 276.401 13.3169  80 
  -3  -5   0 318.648 16.1812  46 
   3  -5   0 316.438 15.9094  46 
   3   5   0 297.344 15.9611  29 
   3   5   0 334.514 18.0320  10 
   3   5   0 312.549 17.6840  40 
  -3   5   0 325.484 15.7828  12 
   3   5   0 320.556 15.9322  11 
  -3   5   0 306.988 15.6596  26 
   3   5   0 341.152 18.9518  82 
  -3   5   0 305.180 15.6265  11 
   3   5   0 336.995 18.4406  43 
  -3   5   0 306.129 16.7525   8 
   3   5   0 299.172 18.4621  23 
   3   5   0 321.842 16.3757   9 
  -3   5   0 320.409 15.9628   9 
   3   5   0 308.855 15.9701  80 
  -4  -5   0 110.944 7.82976  44 
  -4   5   0 104.128 5.57623  80 
  -4   5   0 110.378 5.67216  11 
  -4   5   0 98.6889 7.60197  25 
  -4   5   0 98.4688 5.76187  29 
   4   5   0 117.385 8.26586  40 
  -4   5   0 107.017 5.69099  26 
  -4   5   0 107.621 6.38086  12 
  -4   5   0 105.907 6.10954   9 
  -4   5   0 103.062 7.51422   8 
   4   5   0 99.5727 6.31893  29 
   4   5   0 101.219 6.27243  80 
   4   5   0 108.252 6.15743  11 
   4   5   0 95.8388 8.07304  10 
   4   5   0 118.118 8.92818  43 
   4   5   0 124.878 11.6055  23 
   5   5   0 84.5637 5.47836  29 
   5   5   0 81.9323 5.61523  28 
  -5   5   0 88.5204 4.78087  11 
   5   5   0 94.9685 7.38393  10 
   5   5   0 86.4700 5.51534  11 
  -5   5   0 91.2515 6.55266   8 
   5   5   0 84.7733 7.36530  40 
   5   5   0 65.8776 5.43193  80 
   5   5   0 86.9436 7.57270  43 
  -5   5   0 84.8252 4.77977  26 
  -5   5   0 83.4025 4.83299  80 
  -5   5   0 94.2907 6.83314  25 
  -5   5   0 77.6658 4.85066  29 
   6   5   0 48.2451 4.01963  29 
   6   5   0 53.0422 5.91788  40 
  -6   5   0 46.4590 5.50637   6 
  -6   5   0 42.9612 5.28362  25 
  -6   5   0 43.0013 3.38921  28 
  -6   5   0 51.1912 4.48442   8 
  -6   5   0 49.2143 3.16276  26 
  -6   5   0 43.7791 3.11467  11 
   6   5   0 49.1660 5.74508  10 
  -6   5   0 44.6945 3.35250  29 
   6   5   0 46.4696 4.19824  28 
  -7  -5   0 15.0097 3.32544  27 
  -7   5   0 12.9157 4.04950   6 
   7   5   0 15.3740 2.93190  29 
  -7   5   0 16.1991 3.70610  25 
  -7   5   0 15.5640 2.17224  28 
   7   5   0 12.3430 4.12180  10 
   7   5   0 13.0421 2.91743  28 
  -7   5   0 15.0479 2.11000  29 
  -7   5   0 18.4485 1.99252  11 
  -8  -5   0 25.3663 2.66759  27 
   8   5   0 26.8274 2.56950  28 
  -8   5   0 27.4433 2.05901  29 
  -8   5   0 27.2378 2.94069  25 
  -8   5   0 21.9960 3.30308   6 
  -8   5   0 31.9416 2.04174  11 
  -8   5   0 28.0484 2.41202  28 
   1   6   0 27.0913 2.20043   9 
   1   6   0 22.6828 5.82431  39 
   1   6   0 28.1494 6.20093  23 
   1   6   0 32.5791 5.40948  10 
   2   6   0 110.190 8.42550  10 
   2   6   0 119.503 5.95641  12 
   2   6   0 113.248 6.35689   9 
   2   6   0 118.151 8.71383  23 
   2   6   0 115.846 5.93080  12 
   3   6   0 2.81592 1.17446  12 
   3   6   0 -3.1308 3.17966  23 
   3   6   0 1.11368 1.39808   9 
  -3   6   0 -0.7182 2.99464   8 
  -3   6   0 1.85369 0.86993   9 
   3   6   0 0.24905 1.17717  12 
   3   6   0 1.47921 3.25906  10 
   4   6   0 20.1842 2.55974  29 
   4   6   0 20.6974 4.85219  10 
   4   6   0 25.1462 1.85957  11 
   4   6   0 27.0849 2.48525  12 
  -4   6   0 29.2012 2.38449   9 
  -4   6   0 33.7713 4.33266   8 
   4   6   0 26.8185 3.06468   9 
   5   6   0 -0.6360 2.48789  10 
   5   6   0 0.14232 1.39944  12 
   5   6   0 -0.8252 1.17148  29 
  -5   6   0 -2.0903 2.36859  25 
  -5   6   0 0.14117 0.67925  12 
  -5   6   0 0.59462 1.15042   9 
   5   6   0 1.36511 0.97611  11 
  -5   6   0 0.16985 0.65498  12 
   6   6   0 52.5735 3.29590  29 
   6   6   0 58.7509 3.15040  11 
  -6   6   0 62.5208 3.59267   9 
  -6   6   0 58.3563 4.15805  25 
 -11   0   1 1.88364 2.25043   4 
  11   0  -1 4.61227 1.98403  18 
 -11   0   1 2.62033 1.82174   5 
 -11   0   1 2.99937 1.86134  13 
 -11   0   1 5.83565 2.40661   2 
  11   0  -1 1.22256 2.26851  20 
  10   0  -1 164.378 9.17631  19 
 -10   0   1 149.039 9.43031  13 
 -10   0   1 142.656 9.42031   5 
 -10   0   1 154.900 9.53433   2 
  10   0  -1 152.928 9.90051  20 
 -10   0   1 152.084 9.29087   4 
  10   0  -1 161.139 9.38696  18 
  -9   0   1 5.15356 3.37145  13 
   9   0  -1 11.4809 3.80079  20 
  -9   0   1 7.72560 2.98209   5 
   9   0  -1 7.12816 3.45451  81 
   9   0  -1 12.0658 4.59494  41 
   9   0  -1 7.92116 3.18473  19 
  -9   0   1 5.01275 4.58905  83 
  -9   0   1 3.57139 2.85327  18 
  -9   0   1 8.75856 2.63017  19 
   9   0  -1 12.5804 4.70633  78 
  -9   0   1 7.29760 3.26252   2 
  -9   0   1 14.6885 5.04316  20 
  -9   0   1 7.45302 3.03191   4 
   9   0  -1 9.93669 3.61588  18 
   8   0  -1 390.195 31.3761  72 
  -8   0   1 349.388 21.9395  47 
  -8   0   1 444.837 22.6295  81 
   8   0  -1 451.544 26.1028  76 
   8   0  -1 446.965 22.4471  33 
   8   0  -1 453.658 22.8766  78 
   8   0  -1 447.553 22.4351  41 
  -8   0   1 425.675 23.3350  83 
   8   0  -1 397.537 22.3181  45 
  -8   0   1 432.520 24.2355  76 
   7   0  -1 195.002 11.2459  45 
  -7   0   1 195.863 14.5150  76 
  -7   0   1 204.336 11.5602  74 
   7   0  -1 185.980 10.9946  71 
   7   0  -1 184.104 11.5420  78 
   7   0  -1 209.286 11.4521  75 
  -7   0   1 178.893 12.1081  83 
   7   0  -1 194.473 12.0338  79 
  -7   0   1 198.144 11.1255  47 
  -7   0   1 197.644 11.9288  81 
   7   0  -1 201.046 11.4750  41 
   7   0  -1 214.640 20.5989  72 
  -6   0   1 14.6597 3.00053  47 
   6   0  -1 13.2746 2.88489  75 
   6   0  -1 -1.5051 4.84444  79 
  -6   0   1 10.7880 5.00937  67 
  -6   0   1 12.8212 3.14004  74 
   6   0  -1 14.5851 3.67980  45 
   6   0  -1 17.5546 3.86259  78 
  -6   0   1 15.5728 7.74744  76 
   6   0  -1 10.3988 2.79375  71 
   6   0  -1 12.0441 3.59684  41 
   6   0  -1 24.0531 5.73313  67 
   5   0  -1 170.072 11.5179  55 
  -5   0   1 188.360 13.0023  67 
   5   0  -1 179.894 12.8292  67 
   5   0  -1 196.831 11.9836  48 
   5   0  -1 186.749 10.1812  71 
   5   0  -1 198.268 10.4955  45 
  -5   0   1 200.932 10.5453  74 
  -5   0   1 191.789 10.1814  71 
  -5   0   1 185.720 10.1637  45 
  -5   0   1 199.317 10.3656  47 
   5   0  -1 200.357 18.2785  72 
   4   0  -1 20.6740 5.45250  58 
  -4   0   1 12.6093 5.24111  62 
   4   0  -1 12.7743 2.37132  71 
  -4   0   1 19.4076 2.20471  63 
  -4   0   1 25.1786 5.06801  67 
   4   0  -1 17.2417 4.00032  55 
   4   0  -1 15.6046 3.14861  57 
  -4   0   1 16.7828 2.28201  47 
  -4   0   1 14.7588 4.90791  58 
  -4   0   1 16.4675 2.15935  53 
  -4   0   1 15.0041 2.92167  57 
   4   0  -1 17.7456 4.58718  67 
   4   0  -1 16.8907 3.43462  65 
   3   0  -1 7.14584 2.64702  55 
  -3   0   1 3.31250 2.58434  58 
   3   0  -1 2.05733 1.77063  61 
   3   0  -1 2.99846 1.98841  65 
  -3   0   1 4.59733 1.11775  53 
  -3   0   1 4.52039 1.62698  65 
  -3   0   1 2.95493 1.40474  57 
   3   0  -1 3.25395 1.46190  51 
  -3   0   1 2.27223 1.22983  51 
  -3   0   1 5.19182 4.45107  59 
   3   0  -1 3.18024 2.22727  67 
   3   0  -1 3.36763 3.02193  58 
  -3   0   1 4.21832 1.58230  63 
   3   0  -1 2.46341 4.54565  59 
   3   0  -1 7.30114 1.81073  53 
   3   0  -1 0.53870 4.07319  59 
   3   0  -1 3.81444 1.51458  57 
  -3   0   1 4.44514 2.80423  62 
  -3   0   1 5.55760 6.21163  56 
  -3   0   1 2.03870 1.89368  67 
   2   0  -1 6.16299 2.79009  58 
  -2   0   1 7.66906 3.35810  66 
   2   0  -1 8.47940 4.47708  59 
   2   0  -1 5.42574 2.26838  67 
   2   0  -1 4.64137 5.37215  56 
   2   0  -1 7.75143 2.59547  64 
   2   0  -1 5.22225 2.01030  65 
  -2   0   1 5.75927 2.64825  58 
  -2   0   1 6.04579 1.96018  61 
   2   0  -1 9.07522 2.30228  61 
  -2   0   1 6.18888 2.19532  65 
   2   0  -1 4.05911 1.46795  57 
   2   0  -1 6.95540 1.76632  53 
   2   0  -1 10.8428 2.55792  61 
  -2   0   1 6.25329 2.02795  61 
  -2   0   1 7.02299 4.53882  59 
  -2   0   1 5.79598 5.75761  56 
   2   0  -1 7.99084 2.50693  55 
  -2   0   1 4.25251 1.90534  67 
  -2   0   1 5.57784 1.72492  51 
   2   0  -1 4.02021 1.76357  64 
  -2   0   1 8.66980 2.02265  57 
  -2   0   1 4.97333 2.85285  62 
  -2   0   1 7.65600 4.97659  59 
  -2   0   1 9.90317 1.52884  53 
   2   0  -1 7.21431 5.03155  59 
  -2   0   1 6.77407 1.58112  63 
   2   0  -1 6.50900 3.65385  66 
   1   0  -1 2012.86 92.9033  63 
   1   0  -1 2003.71 93.5843  58 
   1   0  -1 1897.28 93.0811  57 
   1   0  -1 1886.04 93.0837  61 
  -1   0   1 2041.93 94.4950  59 
   1   0  -1 1863.16 92.9057  63 
   1   0  -1 1874.33 93.4540  58 
  -1   0   1 1999.97 93.2172  61 
   1   0  -1 1882.55 93.3204  67 
  -1   0   1 1983.61 93.0429  57 
   1   0  -1 1855.15 96.7441  56 
  -1   0   1 1976.81 94.4022  66 
  -1   0   1 1844.49 93.2775  64 
  -1   0   1 1783.81 92.8846  63 
   1   0  -1 1928.99 93.0992  61 
  -1   0   1 1941.12 94.5956  59 
   1   0  -1 1851.16 93.2278  64 
   1   0  -1 1816.16 94.2612  59 
  -1   0   1 2024.83 93.0784  57 
   1   0  -1 1820.89 94.4892  59 
   1   0  -1 1929.06 93.0980  65 
  -1   0   1 2039.58 93.4878  58 
  -1   0   1 1896.30 93.3881  67 
   1   0  -1 1878.56 93.0290  57 
  -1   0   1 1932.00 93.5323  58 
  -1   0   1 1929.99 96.7637  56 
   1   0  -1 1899.40 93.0653  55 
  -1   0   1 1885.30 93.0904  61 
   1   0  -1 1736.46 94.1313  66 
  -1   0   1 1904.95 93.1225  65 
   0   0   1 153.367 8.00996  58 
   0   0   1 151.992 7.93497  58 
   0   0   1 151.789 7.63753  55 
   0   0  -1 159.635 7.65972  57 
   0   0  -1 151.653 8.57914  59 
   0   0  -1 157.711 7.88066  67 
   0   0  -1 141.280 7.66115  65 
   0   0  -1 154.127 8.54190  66 
   0   0   1 146.564 7.87391  67 
   0   0  -1 142.961 7.52267  63 
   0   0  -1 145.025 7.77340  64 
   0   0   1 169.609 7.54708  63 
   0   0  -1 142.333 7.66717  61 
   0   0   1 170.330 8.71740  59 
   0   0  -1 159.268 7.64789  57 
   0   0   1 140.249 7.67181  65 
   0   0   1 157.093 7.70758  60 
   0   0   1 149.944 7.64229  57 
   0   0  -1 156.444 8.59607  59 
   0   0   1 161.007 7.67755  61 
   0   0  -1 143.087 7.96430  58 
   0   0  -1 142.003 7.67998  60 
   0   0   1 148.732 7.76642  64 
   0   0   1 162.858 8.66485  59 
   0   0  -1 152.506 7.93719  58 
   0   0  -1 149.571 7.66234  55 
   0   0   1 158.317 7.64738  57 
  -1   0  -1 183.724 11.2206  59 
   1   0   1 193.888 9.73539  55 
  -1   0  -1 194.697 10.1974  67 
  -1   0  -1 197.424 9.49262  63 
   1   0   1 194.613 9.84646  65 
  -1   0  -1 186.387 9.73826  61 
   1   0   1 191.574 10.1882  67 
  -1   0  -1 217.335 10.3711  58 
  -1   0  -1 188.342 9.69851  57 
   1   0   1 181.054 9.78235  61 
  -1   0  -1 178.681 9.69368  57 
  -1   0  -1 185.073 9.48521  53 
  -1   0  -1 193.263 9.79505  61 
   1   0   1 186.120 11.2991  59 
   1   0   1 186.438 9.70727  57 
   1   0   1 175.239 9.45430  53 
  -1   0  -1 181.570 9.94919  64 
   1   0   1 208.011 10.4555  58 
  -1   0  -1 203.246 9.82696  65 
  -1   0  -1 203.405 11.5672  66 
  -1   0  -1 192.484 11.6178  59 
  -1   0  -1 165.259 13.3746  56 
   1   0   1 207.956 9.85841  60 
   1   0   1 193.121 11.6511  59 
  -1   0  -1 185.702 10.3615  58 
   1   0   1 163.664 9.89045  64 
   1   0   1 202.575 9.77117  61 
   1   0   1 196.677 9.71765  57 
   1   0   1 179.463 10.2686  58 
  -1   0  -1 191.982 9.91270  64 
   1   0   1 189.368 9.91376  64 
   2   0   1 186.878 10.5528  55 
  -2   0  -1 180.443 9.92659  53 
  -2   0  -1 198.753 11.5215  58 
  -2   0  -1 200.099 13.6301  66 
   2   0   1 178.788 10.0501  51 
  -2   0  -1 207.505 10.4077  57 
   2   0   1 189.917 10.9342  64 
   2   0   1 218.504 10.6155  61 
  -2   0  -1 187.962 12.9732  59 
   2   0   1 200.544 11.3055  67 
   2   0   1 206.925 10.7337  61 
  -2   0  -1 196.549 10.5423  65 
  -2   0  -1 205.581 10.8368  64 
  -2   0  -1 206.461 10.5449  61 
   2   0   1 191.948 18.0869  56 
  -2   0  -1 203.689 14.2574  59 
   2   0   1 202.146 10.6470  65 
  -2   0  -1 202.000 10.5430  61 
  -2   0  -1 198.671 17.6527  56 
  -2   0  -1 207.338 10.0586  63 
  -2   0  -1 201.032 10.0630  51 
   2   0   1 184.681 10.4623  57 
   2   0   1 182.236 9.95081  53 
  -2   0  -1 198.427 11.3894  67 
   2   0   1 196.536 11.8770  58 
   2   0   1 171.068 13.1395  59 
   2   0   1 184.588 13.9169  59 
  -3   0  -1 814.300 51.3392  56 
  -3   0  -1 754.238 41.1795  58 
   3   0   1 830.455 40.0616  55 
  -3   0  -1 842.566 41.1977  67 
  -3   0  -1 746.276 39.5399  51 
  -3   0  -1 851.249 39.5266  63 
   3   0   1 763.886 39.4330  53 
  -3   0  -1 787.245 43.8003  59 
   3   0   1 790.172 44.9551  59 
  -3   0  -1 807.144 40.2097  65 
   3   0   1 819.598 40.3079  65 
  -3   0  -1 818.856 39.9251  57 
   3   0   1 788.456 41.7136  58 
   3   0   1 775.757 40.0519  57 
   3   0   1 831.399 41.1239  67 
   4   0   1 84.1852 5.14441  71 
   4   0   1 74.2349 8.34287  58 
  -4   0  -1 86.1744 7.43685  67 
  -4   0  -1 72.9954 7.22954  58 
   4   0   1 73.7952 5.20696  45 
  -4   0  -1 82.3378 5.00524  47 
   4   0   1 91.5294 6.93526  65 
   4   0   1 91.3449 6.35920  55 
  -4   0  -1 93.6139 5.39020  63 
  -4   0  -1 93.1081 5.07930  45 
   4   0   1 94.2204 8.33856  67 
  -4   0  -1 82.3205 5.12308  71 
   4   0   1 90.3453 6.21337  57 
   5   0   1 3.43582 3.72260  67 
   5   0   1 9.02061 3.39240  55 
  -5   0  -1 8.41320 4.53789  67 
  -5   0  -1 9.13864 2.47685  45 
   5   0   1 7.79535 2.11530  45 
  -5   0  -1 12.4610 2.57110  47 
  -5   0  -1 9.57986 2.45640  71 
   5   0   1 11.8458 2.95610  71 
  -5   0  -1 9.35368 2.30303  75 
   5   0   1 10.4505 2.62906  75 
   6   0   1 8.68046 2.71682  75 
   6   0   1 12.8711 3.94360  78 
   6   0   1 3.71281 2.35088  45 
  -6   0  -1 8.49308 3.02832  47 
   6   0   1 6.28630 2.21757  71 
   6   0   1 22.9431 10.5678  72 
   6   0   1 9.51498 3.29238  79 
   6   0   1 10.6168 3.21333  41 
  -6   0  -1 3.52670 2.60024  76 
  -7   0  -1 474.642 27.6165  76 
  -7   0  -1 442.145 24.5720  47 
   7   0   1 496.617 31.8282  76 
  -7   0  -1 463.945 25.5667  83 
   7   0   1 475.560 24.7297  45 
   7   0   1 435.744 25.0100  78 
   7   0   1 491.366 24.6818  41 
   7   0   1 557.859 35.4784  72 
   7   0   1 430.668 26.4281  75 
  -7   0  -1 506.526 25.4961  81 
   8   0   1 601.578 34.9758  81 
   8   0   1 609.033 35.4679  76 
   8   0   1 700.906 32.5530  41 
   8   0   1 530.199 41.1757  72 
   8   0   1 632.373 32.9421  78 
  -8   0  -1 635.590 33.5069  83 
  -8   0  -1 670.711 32.7339  81 
  -8   0  -1 699.956 34.1319  76 
   9   0   1 364.957 19.9237  78 
  -9   0  -1 374.451 18.9439  18 
   9   0   1 375.153 19.6819  20 
   9   0   1 392.317 19.2682  19 
   9   0   1 372.949 19.2685  18 
   9   0   1 391.892 20.0460  81 
  -9   0  -1 369.555 20.5214  83 
  -9   0  -1 336.684 19.3266   2 
  -9   0  -1 379.306 18.8053  19 
  -9   0  -1 365.996 19.4049  13 
   9   0   1 325.695 21.8705  76 
  -9   0  -1 352.268 19.3644   5 
  -9   0  -1 345.378 19.0663   4 
   9   0   1 375.979 19.5885  41 
  -9   0  -1 350.848 19.2389  20 
 -10   0  -1 -0.3784 2.67939   2 
  10   0   1 2.35433 2.56641  18 
  10   0   1 2.02147 2.95780  20 
 -10   0  -1 2.01967 2.47401  13 
 -10   0  -1 1.22040 2.35957   5 
 -10   0  -1 1.60965 2.51244   4 
  10   0   1 1.00201 2.20190  19 
  11   0   1 -0.4722 2.87705  20 
 -11   0  -1 -2.6415 1.71702  16 
  11   0   1 1.76418 2.18192  13 
 -11   0  -1 -0.6840 1.52997  13 
 -11   0  -1 1.73422 1.67855   5 
 -11   0  -1 0.69437 1.74058   4 
 -11   0  -1 -0.6816 1.88111   2 
 -11  -1   1 15.4626 2.79809  18 
  11  -1  -1 15.9569 3.20237  19 
  11  -1  -1 15.1933 4.01918  20 
  11  -1  -1 20.3087 3.30927  18 
 -11  -1   1 15.7749 3.14508  20 
  11   1  -1 23.7165 5.09087  16 
 -11   1   1 16.7865 3.41628   4 
 -11   1   1 21.9821 2.76727   1 
  11   1  -1 24.1586 3.70097  13 
 -11   1   1 18.7880 3.01062   3 
 -11   1   1 21.7704 3.54990   5 
 -11   1   1 18.4666 3.33848   2 
 -11   1   1 12.9170 2.75552  13 
 -11   1   1 21.6099 2.67051  16 
  11   1  -1 22.3111 3.91838   4 
  10  -1  -1 169.373 9.80331  18 
  10  -1  -1 172.543 9.78886  19 
  10  -1  -1 158.630 10.1447  33 
 -10  -1   1 164.351 9.45595  18 
  10  -1  -1 162.424 10.4224  20 
 -10  -1   1 169.627 9.98529  20 
 -10  -1   1 162.880 9.33602  19 
 -10   1   1 173.246 9.85390   2 
 -10   1   1 131.982 10.3232  83 
  10   1  -1 165.187 10.0603  13 
 -10   1   1 150.703 9.81060  15 
 -10   1   1 158.172 9.23258  13 
 -10   1   1 165.324 10.1688   5 
 -10   1   1 164.370 10.0631   7 
 -10   1   1 164.349 9.52842  16 
 -10   1   1 181.127 9.61832   4 
  10   1  -1 174.915 10.0319   4 
 -10   1   1 179.121 9.45072   3 
  -9  -1   1 330.067 16.8080  20 
   9  -1  -1 303.775 17.1153  20 
   9  -1  -1 310.993 16.8959  41 
   9  -1  -1 321.564 16.8238  33 
   9  -1  -1 311.226 16.4025  27 
   9  -1  -1 311.910 19.6794  78 
   9  -1  -1 309.867 17.8693  79 
  -9  -1   1 301.486 16.3699  18 
   9  -1  -1 298.969 17.5362  24 
   9  -1  -1 290.664 16.5565  18 
  -9  -1   1 298.861 17.2393  81 
   9  -1  -1 324.963 16.6203  19 
  -9  -1   1 321.588 16.3127  19 
   9  -1  -1 305.595 16.9433  75 
  -9  -1   1 303.308 19.5810  76 
   9   1  -1 314.700 16.6585   4 
  -9   1   1 279.624 16.6381   5 
   9   1  -1 294.928 16.7435  15 
   9   1  -1 308.653 16.7667  13 
   9   1  -1 300.372 16.6337  10 
  -9   1   1 307.131 18.4625  14 
  -9   1   1 290.901 17.4853  83 
  -9   1   1 288.610 16.4102   7 
  -9   1   1 291.451 16.4549   2 
   9   1  -1 323.534 17.0641  20 
  -9   1   1 315.306 16.2865   4 
   9   1  -1 293.539 16.0811  18 
  -9   1   1 310.933 16.2569  13 
   9   1  -1 272.544 16.7400  78 
   8  -1  -1 33.4445 6.51040  79 
  -8  -1   1 32.7015 4.70267  47 
   8  -1  -1 35.2702 5.32097  75 
   8  -1  -1 35.9435 5.15174  45 
  -8  -1   1 42.6764 11.0835  76 
   8  -1  -1 36.3590 5.92091  33 
  -8  -1   1 36.5248 4.74882  45 
   8  -1  -1 39.2422 5.42442  41 
   8  -1  -1 41.9037 4.38405  71 
  -8  -1   1 36.8281 5.21018  75 
  -8   1   1 35.2683 6.65419  83 
   8   1  -1 40.9465 5.78983  41 
   8   1  -1 40.9940 7.23632  73 
   8   1  -1 36.7236 5.56634  78 
   8   1  -1 39.3903 5.72596  81 
   7  -1  -1 2.59531 3.81799  48 
  -7  -1   1 1.57983 3.12156  47 
  -7  -1   1 2.00848 2.44879  45 
   7  -1  -1 3.06536 2.41749  71 
   7  -1  -1 2.73597 3.50938  41 
  -7  -1   1 3.48171 2.66223  75 
  -7  -1   1 2.26374 2.35689  71 
   7  -1  -1 0.57627 2.70578  75 
   7  -1  -1 3.17942 3.57707  79 
   7  -1  -1 -0.7394 2.53014  45 
   7   1  -1 1.41266 3.70320  78 
   7   1  -1 2.07815 2.68332  81 
   7   1  -1 1.87177 4.69132  73 
  -7   1   1 -0.7366 3.68009  83 
   7   1  -1 -1.0213 3.37048  41 
   7   1  -1 0.41400 2.25385  76 
   6  -1  -1 254.997 13.3666  71 
  -6  -1   1 247.260 13.2984  45 
   6  -1  -1 262.094 13.4712  45 
  -6  -1   1 233.787 13.5378  75 
  -6  -1   1 257.286 14.0580  78 
  -6  -1   1 268.616 13.4434  71 
  -6  -1   1 263.394 13.4869  47 
   6  -1  -1 263.451 14.5910  44 
   6  -1  -1 258.215 14.1640  79 
   6  -1  -1 244.779 13.9824  48 
   6  -1  -1 242.456 13.4815  41 
   6  -1  -1 225.513 13.4849  75 
   6   1  -1 282.392 16.4169  76 
   6   1  -1 227.440 13.6480  78 
   6   1  -1 248.848 19.0199  72 
   6   1  -1 236.441 13.6004  41 
   6   1  -1 245.872 21.8971  67 
  -6   1   1 260.172 13.9026  74 
  -6   1   1 252.602 13.4746  47 
   6   1  -1 257.656 14.5492  73 
  -6   1   1 240.159 13.1664  81 
   6   1  -1 248.606 13.9731  81 
   6   1  -1 247.109 13.4859  53 
  -6   1   1 243.653 13.5370  51 
  -5  -1   1 45.0495 3.63074  45 
   5  -1  -1 37.1768 5.00941  65 
  -5  -1   1 44.5464 4.92729  65 
  -5  -1   1 49.0313 3.72800  47 
  -5  -1   1 42.5409 3.76470  71 
   5  -1  -1 50.9436 4.60561  48 
  -5  -1   1 46.1932 6.56697  67 
   5  -1  -1 50.7885 6.67439  67 
   5  -1  -1 47.3490 4.14558  75 
  -5  -1   1 52.2957 4.25411  75 
   5  -1  -1 50.1760 3.86265  45 
   5  -1  -1 50.0288 5.21164  44 
  -5  -1   1 43.3040 5.42039  44 
   5  -1  -1 49.2450 3.59415  71 
   5   1  -1 54.1089 6.48001  67 
  -5   1   1 41.5465 3.77698  51 
   5   1  -1 40.9882 5.14916  73 
  -5   1   1 49.3214 4.31089  74 
  -5   1   1 51.7760 3.92474  47 
   5   1  -1 55.8183 9.03786  72 
  -5   1   1 44.6455 3.32088  53 
   5   1  -1 49.1623 3.89637  53 
   5   1  -1 42.5950 4.90604  55 
   5   1  -1 45.8296 4.08656  51 
   4  -1  -1 1587.68 79.4650  65 
  -4  -1   1 1698.53 82.4334  62 
   4  -1  -1 1546.90 78.5894  48 
   4  -1  -1 1406.16 78.3232  70 
   4  -1  -1 1587.38 78.3401  45 
   4  -1  -1 1509.85 80.2130  67 
  -4  -1   1 1613.89 78.4160  47 
  -4  -1   1 1686.82 78.3606  45 
   4  -1  -1 1538.83 78.5971  46 
  -4  -1   1 1588.04 78.5546  63 
  -4  -1   1 1644.07 80.8167  67 
   4  -1  -1 1678.17 78.3107  71 
  -4  -1   1 1561.07 78.3407  71 
  -4  -1   1 1545.67 79.4653  65 
   4   1  -1 1582.34 78.6492  51 
  -4   1   1 1590.09 92.3976  56 
  -4   1   1 1696.26 78.4832  47 
   4   1  -1 1509.36 79.1358  55 
  -4   1   1 1727.90 78.5746  51 
   4   1  -1 1611.51 78.4820  53 
  -4   1   1 1689.93 78.3042  53 
   4   1  -1 1653.72 80.4553  67 
  -3  -1   1 376.065 17.8516  63 
   3  -1  -1 355.470 18.9119  64 
   3  -1  -1 375.336 18.4958  65 
   3  -1  -1 381.886 20.0312  58 
   3  -1  -1 342.143 18.3146  55 
   3  -1  -1 343.464 18.2143  57 
  -3  -1   1 361.089 18.5929  65 
  -3  -1   1 348.754 18.3040  57 
  -3  -1   1 369.631 18.4705  61 
   3  -1  -1 342.586 18.4431  61 
  -3  -1   1 343.604 17.9700  69 
   3  -1  -1 336.258 19.0186  67 
  -3  -1   1 339.379 20.3496  62 
  -3  -1   1 346.266 19.4465  67 
  -3  -1   1 370.740 18.8843  64 
   3  -1  -1 339.122 17.9702  69 
  -3  -1   1 404.875 19.9096  58 
   3   1  -1 356.529 17.7541  53 
  -3   1   1 364.987 17.7744  51 
   3   1  -1 344.421 23.1794  59 
   3   1  -1 351.453 19.2415  67 
  -3   1   1 351.854 18.8675  67 
  -3   1   1 384.043 27.2873  56 
  -3   1   1 339.184 21.5905  66 
   3   1  -1 342.398 19.6833  58 
   3   1  -1 360.246 18.3104  55 
   3   1  -1 304.786 21.8078  66 
  -3   1   1 346.905 17.5525  53 
  -3   1   1 364.511 20.2987  62 
   3   1  -1 349.124 17.8763  51 
  -2  -1   1 925.075 45.8739  64 
   2  -1  -1 893.824 45.2505  55 
   2  -1  -1 943.752 46.2478  58 
  -2  -1   1 926.352 45.3238  57 
  -2  -1   1 888.632 47.9130  59 
   2  -1  -1 902.151 45.5461  64 
  -2  -1   1 982.617 45.7199  64 
  -2  -1   1 893.999 45.4783  65 
   2  -1  -1 935.316 44.9991  63 
  -2  -1   1 903.271 45.0163  63 
  -2  -1   1 839.154 48.1260  59 
   2  -1  -1 863.909 45.3220  61 
   2  -1  -1 1043.71 45.8414  67 
   2  -1  -1 847.818 47.1712  59 
  -2  -1   1 950.199 45.4071  61 
  -2  -1   1 1013.51 46.9923  62 
   2  -1  -1 1071.44 45.8031  64 
  -2  -1   1 903.939 45.5101  61 
   2  -1  -1 892.077 45.0615  69 
   2  -1  -1 844.870 45.3121  65 
   2  -1  -1 931.180 45.3412  61 
  -2  -1   1 919.439 46.1252  67 
   2  -1  -1 964.683 45.1246  57 
   2  -1  -1 881.059 45.9999  58 
  -2  -1   1 930.369 46.2385  58 
   2  -1  -1 874.709 47.7294  59 
   2  -1  -1 903.014 45.0961  57 
  -2  -1   1 943.910 53.4733  56 
  -2   1   1 899.691 45.0841  54 
  -2   1   1 941.825 45.6359  52 
  -2   1   1 968.141 44.9436  51 
   2   1  -1 878.440 48.1506  66 
   2   1  -1 880.163 45.4332  60 
  -2   1   1 947.473 45.5082  58 
  -2   1   1 922.872 48.0463  59 
  -2   1   1 985.783 47.8060  59 
   2   1  -1 844.359 45.3541  61 
  -2   1   1 925.986 47.5579  66 
  -2   1   1 848.991 45.1544  55 
   2   1  -1 963.586 44.9518  53 
   2   1  -1 920.198 48.0153  66 
   2   1  -1 986.739 46.3128  58 
   2   1  -1 900.164 52.7329  56 
  -2   1   1 862.717 45.0351  51 
  -2   1   1 965.918 47.7051  66 
   2   1  -1 872.462 45.3666  65 
  -2   1   1 876.444 44.7408  53 
   2   1  -1 957.111 45.8744  67 
   2   1  -1 936.959 45.0505  51 
   2   1  -1 824.766 44.9219  53 
  -2   1   1 906.955 44.7543  53 
   2   1  -1 927.713 45.2602  55 
  -2   1   1 987.797 45.5924  67 
   2   1  -1 906.690 48.7518  59 
  -2   1   1 947.185 46.6157  62 
   1  -1  -1 5347.21 258.897  59 
   1  -1  -1 5320.46 257.808  65 
  -1  -1   1 5148.83 258.339  67 
  -1  -1   1 5318.71 258.144  64 
  -1  -1   1 5192.09 257.744  57 
  -1  -1   1 5303.22 257.751  63 
   1  -1  -1 5139.78 257.818  61 
  -1  -1   1 5216.81 258.503  58 
  -1  -1   1 5475.70 259.700  59 
  -1  -1   1 5393.24 258.703  62 
  -1  -1   1 5514.44 257.752  57 
   1  -1  -1 4937.73 257.814  65 
   1  -1  -1 5066.36 257.978  67 
  -1  -1   1 5470.59 262.646  56 
  -1  -1   1 5159.54 257.955  61 
  -1  -1   1 5366.04 258.015  65 
   1  -1  -1 5452.68 258.014  64 
  -1  -1   1 5599.82 257.772  63 
   1  -1  -1 5257.68 258.069  58 
   1  -1  -1 5217.79 257.827  61 
  -1  -1   1 5360.36 258.002  61 
   1  -1  -1 5486.99 257.678  63 
  -1  -1   1 5128.05 259.364  59 
   1  -1  -1 5560.54 257.689  63 
   1  -1  -1 5149.99 258.663  59 
   1  -1  -1 5090.94 258.116  58 
   1  -1  -1 5287.65 257.949  64 
  -1  -1   1 4750.68 258.158  64 
  -1   1   1 5252.80 257.589  63 
   1   1  -1 5675.68 262.399  56 
  -1   1   1 5793.34 258.308  52 
   1   1  -1 5097.36 259.515  66 
  -1   1   1 5320.90 257.780  68 
   1   1  -1 5140.44 258.095  58 
  -1   1   1 5391.52 258.947  66 
  -1   1   1 5542.22 259.173  59 
   1   1  -1 5468.05 257.971  60 
   1   1  -1 5148.44 257.712  51 
   1   1  -1 5230.48 259.796  59 
   1   1  -1 5247.68 259.445  66 
   1   1  -1 5172.49 258.050  67 
   1   1  -1 5493.51 257.870  61 
  -1   1   1 5208.53 257.959  54 
   1   1  -1 5319.50 259.563  59 
   1   1  -1 5419.96 257.612  53 
   1   1  -1 5226.92 258.132  58 
   1   1  -1 5308.36 257.608  53 
   1   1  -1 5101.62 257.696  55 
   1   1  -1 5381.29 257.982  54 
  -1   1   1 5918.50 259.062  66 
   1   1  -1 5115.17 258.104  52 
   0  -1   1 5137.40 247.902  59 
   0  -1  -1 5273.21 246.949  64 
   0  -1  -1 5021.07 247.317  59 
   0  -1   1 5154.00 247.010  64 
   0  -1  -1 5339.17 246.758  65 
   0  -1   1 5103.37 247.947  59 
   0  -1  -1 5101.96 246.906  58 
   0  -1  -1 5175.08 246.868  58 
   0  -1   1 4889.41 246.713  63 
   0  -1   1 5098.37 247.095  58 
   0  -1  -1 5312.01 246.823  60 
   0  -1  -1 4992.64 246.687  63 
   0  -1   1 5155.88 246.868  61 
   0  -1   1 5080.50 247.122  58 
   0  -1   1 5059.57 247.000  64 
   0  -1   1 5058.37 246.862  65 
   0  -1   1 5110.30 246.912  60 
   0  -1   1 5268.38 246.894  61 
   0  -1  -1 5018.67 246.759  61 
   0  -1  -1 5166.40 246.763  61 
   0  -1  -1 4825.74 246.852  64 
   0  -1   1 5016.64 247.071  67 
   0  -1   1 5157.79 246.853  65 
   0   1   1 4897.42 247.546  59 
   0   1  -1 4947.25 246.693  51 
   0   1  -1 5347.08 246.666  63 
   0   1  -1 4874.85 247.986  59 
   0   1  -1 5257.33 247.966  66 
   0   1   1 5053.68 247.597  59 
   0   1  -1 5403.54 246.831  60 
   0   1  -1 4945.61 246.692  51 
   0   1   1 4911.35 247.082  52 
   0   1   1 4955.52 247.521  66 
   0   1   1 4873.89 247.007  54 
   0   1  -1 5250.99 247.045  54 
   0   1  -1 4711.94 247.199  52 
  -1  -1  -1 8749.67 427.166  56 
   1  -1   1 8501.14 422.014  57 
   1  -1   1 8085.67 422.267  61 
  -1  -1  -1 8885.56 424.064  59 
   1  -1   1 8265.68 422.702  58 
  -1  -1  -1 9538.30 424.436  59 
  -1  -1  -1 8727.25 422.391  65 
   1  -1   1 8631.16 422.283  60 
  -1  -1  -1 8554.75 422.906  58 
   1  -1   1 9292.86 422.889  67 
  -1  -1  -1 8545.40 423.027  67 
   1  -1   1 8576.33 422.220  61 
   1  -1   1 8642.72 422.751  58 
   1  -1   1 8798.74 422.436  64 
  -1  -1  -1 8523.00 422.089  57 
  -1  -1  -1 8768.24 422.100  57 
   1  -1   1 8697.22 422.170  55 
  -1  -1  -1 9999.99 422.771  64 
   1  -1   1 9101.78 422.356  65 
   1  -1   1 9466.57 422.036  63 
   1  -1   1 8160.34 423.024  62 
   1  -1   1 8434.68 423.777  59 
  -1  -1  -1 8726.05 422.023  63 
   1  -1   1 8879.95 422.496  64 
  -1  -1  -1 8278.00 422.297  61 
  -1  -1  -1 8293.11 422.261  61 
   1  -1   1 8932.17 423.979  59 
  -1  -1  -1 8872.47 422.492  64 
  -1  -1  -1 8304.17 422.821  58 
  -1  -1  -1 8077.01 422.187  55 
   1  -1   1 8328.86 422.019  57 
   1   1   1 8683.13 422.050  51 
   1   1   1 8227.72 422.260  54 
   1   1   1 8369.26 422.360  67 
   1   1   1 8842.46 422.482  58 
   1   1   1 8294.01 421.949  55 
  -1   1  -1 8532.86 426.417  56 
  -1   1  -1 8741.63 422.212  51 
  -1   1  -1 9214.05 423.986  59 
   1   1   1 9240.07 424.300  59 
   1   1   1 8794.17 421.976  55 
   1   1   1 9050.55 422.266  60 
   1   1   1 8500.15 422.394  58 
   1   1   1 8552.02 423.924  59 
  -1   1  -1 9150.01 424.060  66 
  -1   1  -1 8452.10 422.527  52 
   1   1   1 8716.78 423.912  66 
  -1   1  -1 9098.40 424.207  59 
  -1   1  -1 8188.06 422.266  58 
  -1   1  -1 8368.15 422.307  67 
   2  -1   1 941.291 47.5885  49 
  -2  -1  -1 907.857 47.6587  69 
  -2  -1  -1 948.116 47.5737  63 
   2  -1   1 973.319 48.1069  61 
  -2  -1  -1 1005.50 47.9222  57 
  -2  -1  -1 1000.56 48.8444  67 
  -2  -1  -1 981.189 48.4722  64 
   2  -1   1 1017.29 48.1027  65 
   2  -1   1 948.797 48.8779  58 
   2  -1   1 886.882 48.1205  64 
   2  -1   1 877.468 47.6911  69 
  -2  -1  -1 985.181 48.2907  64 
   2  -1   1 1000.65 51.1784  59 
   2  -1   1 1075.72 48.5215  64 
   2  -1   1 946.799 47.9410  61 
  -2  -1  -1 988.019 51.4084  59 
  -2  -1  -1 970.884 48.9164  58 
  -2  -1  -1 1026.66 50.8137  59 
   2  -1   1 1002.06 48.1137  60 
   2  -1   1 928.438 47.8857  55 
  -2  -1  -1 1026.37 48.1463  65 
   2  -1   1 963.166 50.5794  59 
   2  -1   1 905.916 48.5096  67 
   2  -1   1 1014.47 47.8583  57 
  -2  -1  -1 971.650 48.0300  61 
  -2  -1  -1 997.189 48.1878  61 
  -2   1  -1 984.494 48.0963  52 
   2   1   1 976.691 47.5757  51 
   2   1   1 832.885 47.4141  53 
   2   1   1 887.395 51.1879  59 
  -2   1  -1 1054.80 51.0786  66 
   2   1   1 912.926 47.5960  54 
   2   1   1 988.919 48.0491  60 
  -2   1  -1 974.768 48.3389  67 
   2   1   1 1030.77 47.8448  55 
   2   1   1 890.993 47.8880  61 
   2   1   1 995.705 48.8296  58 
  -2   1  -1 915.111 47.3724  53 
  -2   1  -1 996.409 55.4544  56 
  -2   1  -1 962.348 50.5709  59 
  -2   1  -1 971.651 47.5441  51 
  -2   1  -1 937.903 47.4865  63 
  -2   1  -1 1056.12 48.5090  58 
   2   1   1 1034.71 48.5465  67 
  -2   1  -1 949.964 47.3997  53 
   2   1   1 1051.94 47.4672  53 
  -3  -1  -1 242.458 13.5910  57 
  -3  -1  -1 264.237 15.1597  58 
   3  -1   1 252.969 13.9749  61 
   3  -1   1 235.772 15.4960  64 
  -3  -1  -1 240.088 14.7436  67 
  -3  -1  -1 262.389 13.4674  69 
  -3  -1  -1 252.955 13.0645  63 
  -3  -1  -1 236.612 13.8084  65 
   3  -1   1 248.616 13.6622  55 
   3  -1   1 245.897 12.8129  49 
   3  -1   1 252.384 15.3675  58 
   3  -1   1 255.533 14.7755  67 
   3  -1   1 270.686 13.4195  69 
   3  -1   1 294.987 14.0728  65 
   3  -1   1 253.657 13.5972  57 
   3   1   1 242.826 13.0680  51 
   3   1   1 256.409 14.6899  67 
  -3   1  -1 271.171 17.9947  66 
   3   1   1 252.617 12.9393  53 
  -3   1  -1 243.893 14.3124  67 
  -3   1  -1 249.977 13.5426  52 
   3   1   1 222.137 13.7466  60 
  -3   1  -1 274.276 13.0796  51 
  -3   1  -1 248.645 12.8331  53 
  -3   1  -1 277.078 23.3282  56 
   3   1   1 271.677 13.6402  55 
  -4  -1  -1 263.073 13.1258  45 
   4  -1   1 246.154 13.0869  49 
   4  -1   1 256.721 13.1569  71 
   4  -1   1 255.170 13.5959  48 
  -4  -1  -1 240.010 13.2077  47 
   4  -1   1 282.755 16.8519  55 
   4  -1   1 247.350 15.6077  67 
  -4  -1  -1 272.496 16.0028  67 
  -4  -1  -1 252.804 13.1696  71 
   4  -1   1 240.398 13.2336  45 
  -4  -1  -1 272.884 13.4557  63 
   4  -1   1 236.939 14.4532  65 
  -4  -1  -1 265.609 14.5003  65 
   4   1   1 264.006 13.2772  53 
   4   1   1 271.786 14.2486  55 
   4   1   1 262.769 15.6997  67 
   4   1   1 245.868 17.4627  72 
  -4   1  -1 242.938 13.0808  53 
   4   1   1 252.160 13.4511  51 
  -4   1  -1 253.621 17.6060  67 
  -4   1  -1 266.819 13.4016  51 
  -5  -1  -1 76.6891 5.00547  47 
  -5  -1  -1 74.9510 6.14288  44 
   5  -1   1 85.2902 7.03501  65 
   5  -1   1 78.1864 4.94549  71 
  -5  -1  -1 64.8447 7.27913  67 
  -5  -1  -1 73.3048 4.96013  71 
   5  -1   1 80.7317 5.95291  48 
  -5  -1  -1 70.3595 5.09536  75 
   5  -1   1 68.2625 5.16018  75 
   5  -1   1 74.2346 6.33587  44 
  -5  -1  -1 65.6112 6.32169  65 
   5  -1   1 64.4869 8.10506  67 
   5  -1   1 78.0050 5.30680  45 
  -5  -1  -1 79.8715 4.97058  45 
   5  -1   1 78.5517 4.98447  49 
   5   1   1 80.9015 6.89474  73 
   5   1   1 75.2975 5.57238  51 
   5   1   1 85.9542 10.5658  72 
   5   1   1 79.4379 5.09448  53 
  -5   1  -1 69.3974 6.23145  76 
  -5   1  -1 75.6234 5.10052  51 
   5   1   1 67.0299 5.78782  78 
   5   1   1 71.7241 7.90081  67 
  -5   1  -1 70.9775 4.62476  53 
   5   1   1 93.0844 8.20169  76 
   5   1   1 82.6435 6.35103  55 
   6  -1   1 102.728 7.03169  41 
   6  -1   1 119.138 6.94536  71 
  -6  -1  -1 101.897 6.85256  75 
  -6  -1  -1 103.711 6.62959  45 
   6  -1   1 109.708 8.95445  44 
  -6  -1  -1 104.751 6.72881  71 
   6  -1   1 108.866 7.70352  48 
   6  -1   1 99.6609 7.71686  79 
   6  -1   1 104.462 6.79630  45 
   6  -1   1 111.294 7.24436  75 
  -6  -1  -1 110.965 6.75656  47 
  -6   1  -1 82.5221 6.60198  51 
   6   1   1 116.283 8.71097  73 
   6   1   1 92.6834 7.39222  78 
  -6   1  -1 116.328 8.34592  83 
   6   1   1 102.496 12.8347  72 
   6   1   1 126.598 9.81553  76 
   6   1   1 119.373 7.66610  81 
   7  -1   1 21.5329 4.36890  75 
   7  -1   1 25.8020 5.41245  41 
   7  -1   1 24.5956 4.12354  71 
  -7  -1  -1 22.0374 3.70613  71 
  -7  -1  -1 25.3804 4.24117  45 
   7  -1   1 30.5081 6.10642  79 
  -7  -1  -1 29.5739 4.27904  75 
   7  -1   1 36.6843 4.35026  45 
  -7  -1  -1 24.3828 3.72782  47 
   7   1   1 26.5249 6.98243  73 
   7   1   1 21.3495 4.45737  38 
   7   1   1 22.7266 5.31590  78 
  -7   1  -1 31.4380 6.25161  83 
   7   1   1 27.4918 5.27356  81 
   8  -1   1 252.047 14.1396  75 
  -8  -1  -1 245.984 13.5654  45 
  -8  -1  -1 243.589 13.7403  47 
  -8  -1  -1 279.763 16.7143  20 
   8  -1   1 219.529 13.5043  71 
  -8  -1  -1 237.161 18.1398  76 
   8  -1   1 254.830 25.2916  72 
   8  -1   1 238.878 14.0193  33 
  -8  -1  -1 286.003 16.2115  18 
   8  -1   1 244.359 15.2770  79 
   8  -1   1 240.610 13.9696  41 
   8  -1   1 230.825 13.7982  45 
  -8   1  -1 236.741 14.8012  83 
   8   1   1 230.939 13.5090  81 
   8   1   1 239.299 14.1095  78 
  -9  -1  -1 7.84517 2.96627  20 
   9  -1   1 11.6923 3.63042  33 
   9  -1   1 3.29194 3.32486  20 
   9  -1   1 6.94256 3.06691  19 
   9  -1   1 3.61354 3.62229  41 
   9  -1   1 7.82561 3.71800  24 
   9  -1   1 3.23094 3.89822  79 
  -9  -1  -1 4.85576 2.61076  76 
  -9  -1  -1 9.22043 3.02423  18 
   9  -1   1 13.4393 4.64803  78 
   9  -1   1 8.36496 3.36589  18 
  -9  -1  -1 1.15038 2.44956  81 
  -9  -1  -1 7.75816 2.82314  19 
   9   1   1 10.9209 3.85129  78 
   9   1   1 8.51956 3.61295  13 
   9   1   1 5.77375 3.32145   4 
  -9   1  -1 6.46489 2.68524   4 
   9   1   1 8.54205 4.85761  18 
  -9   1  -1 9.20265 2.80513  13 
  -9   1  -1 8.58760 3.12986   5 
  -9   1  -1 10.2393 4.57113  83 
  -9   1  -1 16.8015 4.77647   2 
  -9   1  -1 7.54336 3.64794   7 
 -10  -1  -1 224.387 13.0022  20 
  10  -1   1 251.163 13.4133  20 
  10  -1   1 234.909 12.9355  18 
  10  -1   1 247.392 14.5716  33 
 -10  -1  -1 225.253 12.4338  19 
  10  -1   1 228.672 12.8119  19 
 -10  -1  -1 223.655 12.6268  18 
 -10   1  -1 241.671 12.6467   3 
 -10   1  -1 227.398 12.6754   4 
 -10   1  -1 236.661 12.5411  16 
  10   1   1 257.969 13.1454  13 
 -10   1  -1 245.610 13.0174   2 
 -10   1  -1 251.472 13.1059   5 
 -10   1  -1 231.547 12.6230  13 
  11  -1   1 0.74558 1.70448  18 
  11  -1   1 1.36813 2.65661  19 
  11  -1   1 0.68723 1.95445  20 
 -11   1  -1 0.10218 1.73535  13 
  11   1   1 0.01599 1.32068  13 
 -11   1  -1 0.93064 1.63287   2 
 -11   1  -1 1.07169 1.60359   4 
  11   1   1 1.59078 1.89216   4 
 -11   1  -1 2.36512 1.86861   1 
 -11   1  -1 3.03858 1.53069   5 
 -11   1  -1 0.79594 1.05778  16 
 -11   1  -1 2.63289 1.48735   3 
  10  -2  -1 73.8210 5.69507  27 
  10  -2  -1 82.0688 5.93154  18 
 -10  -2   1 77.8736 6.53080  20 
 -10  -2   1 79.2797 5.79756  19 
  10  -2  -1 74.7009 6.18409  19 
  10  -2  -1 77.0478 6.85749  24 
  10  -2  -1 79.6702 6.71667  20 
 -10  -2   1 82.3701 5.84042  18 
  10  -2  -1 66.2503 6.27290  33 
 -10   2   1 79.3500 5.79653  13 
 -10   2   1 78.2997 4.75999  32 
  10   2  -1 85.0838 5.88102   3 
 -10   2   1 79.6369 5.80052  14 
 -10   2   1 68.9583 5.66877   2 
 -10   2   1 72.0175 5.53647   4 
  10   2  -1 74.4568 5.86485  13 
 -10   2   1 70.8302 4.43376  16 
  10   2  -1 85.6562 5.59849  16 
 -10   2   1 84.9727 5.01030   1 
 -10   2   1 82.0290 5.23160   3 
 -10   2   1 74.7238 6.19055   5 
 -10   2   1 74.5703 5.93580   7 
  10   2  -1 82.4490 6.13211   4 
 -10   2   1 71.3227 5.47145  31 
  10   2  -1 70.4512 7.44813   7 
   9  -2  -1 4.26383 3.82284  41 
   9  -2  -1 1.71163 3.44992  20 
   9  -2  -1 3.82282 3.28525  33 
  -9  -2   1 -1.2434 2.52265  19 
  -9  -2   1 -0.1866 2.25454  27 
   9  -2  -1 5.20545 2.77509  27 
  -9  -2   1 2.29151 3.05463  20 
   9  -2  -1 4.31991 4.01114  24 
   9  -2  -1 -0.7830 3.92602  79 
  -9  -2   1 1.02378 2.89745  18 
  -9   2   1 7.48597 3.23438  77 
  -9   2   1 1.27767 2.66286   2 
   9   2  -1 2.74644 3.04536  10 
  -9   2   1 -0.1566 2.89219   7 
  -9   2   1 -1.0095 2.15852   3 
  -9   2   1 0.93139 1.85215  16 
  -9   2   1 3.19818 2.62349  14 
   9   2  -1 4.84427 3.95648   7 
   9   2  -1 1.30921 2.88138  15 
   9   2  -1 -4.2651 3.19541   3 
  -9   2   1 2.42411 2.63205   4 
  -9   2   1 2.75100 2.41215  31 
  -9   2   1 2.29597 2.15376  13 
   9   2  -1 2.34778 3.27546   4 
   9   2  -1 2.06526 3.01414  16 
  -9   2   1 1.20492 4.05481  83 
  -9   2   1 1.36231 2.82444   5 
   9   2  -1 1.24763 2.99297  13 
  -9   2   1 1.10028 2.32729   1 
   8  -2  -1 91.7744 7.02262  75 
   8  -2  -1 98.9110 8.27451  79 
   8  -2  -1 79.0068 8.09799  45 
   8  -2  -1 62.6087 8.10578  48 
   8  -2  -1 73.9303 6.84439  27 
  -8  -2   1 109.455 7.23466  75 
  -8  -2   1 87.1958 7.29078  20 
  -8  -2   1 115.833 9.10218  71 
  -8  -2   1 73.2663 8.05509  47 
   8  -2  -1 104.617 7.76037  41 
  -8  -2   1 96.8886 6.67584  27 
  -8  -2   1 76.2799 7.69469  45 
  -8  -2   1 97.5508 7.18127  18 
  -8  -2   1 94.7394 7.01456  19 
   8  -2  -1 81.9470 7.64045  33 
  -8   2   1 93.3180 6.00011  28 
   8   2  -1 87.1199 7.59228  10 
  -8   2   1 84.3682 6.48764   4 
   8   2  -1 76.6887 7.16443   4 
  -8   2   1 90.1522 6.36937  13 
   8   2  -1 86.2710 7.12657  73 
  -8   2   1 95.1291 6.61217  31 
  -8   2   1 100.860 7.13986  77 
   8   2  -1 89.0559 8.50425  31 
  -8   2   1 92.7788 6.25339   3 
  -8   2   1 95.1283 7.66031  83 
  -8   2   1 94.4636 6.20023   1 
   8   2  -1 92.0782 7.82342   7 
   8   2  -1 76.8143 7.38618  13 
  -8   2   1 103.991 7.28220   5 
  -8   2   1 94.9237 6.34844  17 
  -8   2   1 81.8337 7.00045   7 
  -8   2   1 87.2327 6.89311  14 
   8   2  -1 88.6679 8.48176  15 
   8   2  -1 90.9495 7.01503  38 
  -8   2   1 83.5330 6.96613   2 
  -8   2   1 87.7292 6.05753  16 
  -7  -2   1 110.673 7.78491  47 
  -7  -2   1 125.663 8.40987  75 
   7  -2  -1 122.151 7.70123  71 
   7  -2  -1 121.608 8.06647  45 
   7  -2  -1 122.250 8.71408  48 
   7  -2  -1 123.036 7.95592  75 
   7  -2  -1 132.973 9.24977  79 
  -7  -2   1 131.496 7.91701  71 
  -7  -2   1 108.108 7.65347  45 
   7  -2  -1 113.269 9.50276  44 
   7  -2  -1 129.949 8.55207  41 
   7   2  -1 123.589 8.27359  78 
  -7   2   1 120.666 8.70387  83 
  -7   2   1 129.419 8.37313  77 
   7   2  -1 121.027 8.72326  38 
   7   2  -1 137.241 10.7955  77 
   7   2  -1 126.278 8.94102  73 
  -6  -2   1 83.7251 7.20467  44 
   6  -2  -1 78.0435 6.46226  79 
  -6  -2   1 78.7569 5.57659  71 
  -6  -2   1 83.3022 6.20687  75 
   6  -2  -1 87.6788 6.10135  41 
   6  -2  -1 88.9117 6.13632  75 
   6  -2  -1 79.7688 5.47003  71 
  -6  -2   1 83.3494 5.68548  45 
   6  -2  -1 75.2446 5.83937  45 
   6  -2  -1 91.8671 7.31834  44 
   6  -2  -1 82.9162 6.55501  48 
  -6  -2   1 84.9760 5.76723  47 
   6   2  -1 83.5215 6.83796  73 
  -6   2   1 86.2488 6.14543  77 
  -6   2   1 77.4981 6.88848  83 
   6   2  -1 80.9298 6.56829  77 
   6   2  -1 77.1415 6.03744  78 
   5  -2  -1 61.1514 4.59708  75 
  -5  -2   1 52.4732 7.00937  67 
   5  -2  -1 61.7480 5.16906  48 
  -5  -2   1 71.4955 5.78612  44 
   5  -2  -1 38.8960 6.85572  79 
  -5  -2   1 73.2297 4.51589  71 
  -5  -2   1 64.2753 4.71661  47 
   5  -2  -1 66.8926 4.47520  71 
   5  -2  -1 61.0155 5.66365  44 
  -5  -2   1 68.3885 4.45969  45 
   5  -2  -1 67.5725 4.22590  46 
   5  -2  -1 63.7202 4.37152  45 
  -5  -2   1 69.4240 4.97559  75 
   5  -2  -1 62.8585 4.22371  70 
   5   2  -1 56.7966 4.44669  51 
   5   2  -1 59.9167 4.95766  77 
   5   2  -1 59.6626 3.71670  53 
  -5   2   1 67.9381 5.10626  77 
   5   2  -1 71.4501 5.54434  73 
  -5   2   1 62.7040 3.88366  51 
   5   2  -1 55.2962 4.87418  78 
   4  -2  -1 879.699 41.8436  46 
  -4  -2   1 841.676 44.6921  67 
  -4  -2   1 857.917 42.1483  47 
  -4  -2   1 866.231 42.0472  71 
   4  -2  -1 832.399 42.4340  44 
   4  -2  -1 836.035 41.8982  71 
  -4  -2   1 823.979 42.1330  75 
  -4  -2   1 867.262 43.4175  65 
  -4  -2   1 850.429 41.9929  45 
   4  -2  -1 800.155 43.0399  65 
   4  -2  -1 853.315 42.2695  48 
   4  -2  -1 789.945 42.4649  69 
  -4  -2   1 785.764 41.8974  70 
  -4  -2   1 838.895 42.6252  44 
   4  -2  -1 940.400 42.0270  45 
   4  -2  -1 912.594 41.9023  70 
  -4   2   1 902.554 41.6504  51 
   4   2  -1 833.491 42.1124  51 
  -4   2   1 879.894 48.0738  66 
   4   2  -1 844.160 42.1518  73 
  -3  -2   1 10.8941 2.79109  64 
  -3  -2   1 9.61363 2.76786  57 
   3  -2  -1 9.00242 1.89178  69 
   3  -2  -1 12.2387 2.87352  64 
  -3  -2   1 9.65940 1.98344  69 
  -3  -2   1 9.87038 1.75777  45 
   3  -2  -1 11.2527 1.59313  50 
   3  -2  -1 14.2349 4.39171  58 
   3  -2  -1 9.88746 1.47459  70 
   3  -2  -1 11.0778 2.16749  45 
  -3  -2   1 9.44498 1.84993  71 
   3  -2  -1 11.8212 1.74778  71 
  -3  -2   1 11.1330 2.40506  61 
   3  -2  -1 11.9599 2.52176  65 
  -3  -2   1 11.4384 4.01016  67 
   3  -2  -1 10.5996 1.38666  46 
  -3  -2   1 13.0402 1.87569  63 
   3  -2  -1 12.5800 2.66753  48 
  -3  -2   1 7.53173 3.02276  62 
  -3  -2   1 9.82062 2.68279  65 
  -3  -2   1 8.85505 1.96198  47 
   3  -2  -1 11.9200 1.87481  49 
  -3  -2   1 11.1729 1.78557  46 
  -3  -2   1 12.6262 1.60936  70 
  -3   2   1 12.1377 3.56861  52 
   3   2  -1 10.6981 5.37179  66 
   3   2  -1 9.67691 1.67105  51 
  -3   2   1 11.1352 5.10364  66 
   2  -2  -1 348.893 18.8819  61 
  -2  -2   1 362.527 18.4613  57 
  -2  -2   1 386.812 18.7213  61 
   2  -2  -1 383.505 17.9425  50 
   2  -2  -1 350.872 19.4800  58 
  -2  -2   1 340.591 18.0386  70 
  -2  -2   1 327.465 19.5191  58 
   2  -2  -1 368.200 17.8950  70 
   2  -2  -1 359.675 17.9539  50 
   2  -2  -1 377.761 18.5282  65 
   2  -2  -1 372.435 18.1552  69 
  -2  -2   1 370.707 18.9941  64 
  -2  -2   1 357.849 18.8155  65 
   2  -2  -1 385.153 18.8588  64 
   2  -2  -1 374.258 18.5321  61 
  -2  -2   1 358.187 18.2501  63 
   2  -2  -1 355.638 17.9795  49 
  -2  -2   1 383.321 18.3906  69 
  -2  -2   1 358.794 19.9478  62 
   2  -2  -1 382.685 18.7538  64 
  -2   2   1 378.245 20.7531  66 
  -2   2   1 352.629 18.7662  54 
   2   2  -1 345.380 18.9593  52 
   2   2  -1 371.571 21.8075  66 
  -2   2   1 408.612 19.5675  52 
   2   2  -1 351.575 18.4720  60 
  -2   2   1 368.202 20.6327  66 
   2   2  -1 375.425 18.8056  54 
  -1  -2   1 42.2955 2.46541  69 
  -1  -2   1 41.0293 2.78788  61 
  -1  -2   1 39.7741 2.37984  69 
  -1  -2   1 37.3914 2.23211  50 
   1  -2  -1 45.8797 2.61117  64 
  -1  -2   1 43.5646 2.27609  50 
   1  -2  -1 43.0742 2.33059  61 
   1  -2  -1 43.6904 2.52858  64 
  -1  -2   1 39.7654 2.75571  61 
  -1  -2   1 41.6998 3.09238  64 
   1  -2  -1 41.8509 2.29941  65 
  -1  -2   1 39.0026 2.47829  63 
  -1  -2   1 44.5491 3.22045  64 
  -1  -2   1 39.2565 3.42288  62 
   1  -2  -1 41.2048 2.30637  61 
  -1  -2   1 38.2041 3.81979  59 
  -1  -2   1 40.4129 2.88011  65 
   1   2  -1 44.3985 4.88226  66 
  -1   2   1 44.8889 3.54301  66 
  -1   2   1 44.8869 3.67368  66 
  -1   2   1 40.7285 3.50234  54 
   1   2  -1 50.9490 3.65800  54 
  -1   2   1 39.4832 3.74738  52 
   1   2  -1 39.4100 3.86372  52 
   1   2  -1 37.2693 4.79350  66 
   0  -2   1 35.0747 2.58760  64 
   0  -2  -1 37.0265 2.00189  63 
   0  -2   1 38.2550 2.36371  61 
   0  -2  -1 41.4219 2.27422  64 
   0  -2   1 37.3212 2.88238  58 
   0  -2  -1 39.6344 2.23374  64 
   0  -2   1 38.3466 2.37451  61 
   0  -2   1 36.2211 2.39166  65 
   0   2  -1 36.5320 3.92241  52 
   0   2   1 41.4923 3.19209  66 
   0   2  -1 41.1565 3.46466  54 
   0   2  -1 37.4625 4.01499  66 
   0   2   1 41.8502 3.52084  54 
   0   2   1 34.7776 3.30601  52 
   0   2  -1 36.2102 3.90214  59 
  -1  -2  -1 1221.76 61.7120  63 
   1  -2   1 1249.34 61.6757  69 
   1  -2   1 1285.44 61.5408  50 
   1  -2   1 1266.09 62.1755  64 
   1  -2   1 1244.49 61.9467  61 
  -1  -2  -1 1333.95 61.6946  69 
   1  -2   1 1298.37 61.7076  69 
  -1  -2  -1 1352.12 62.2024  64 
   1  -2   1 1211.48 62.1993  64 
  -1  -2  -1 1243.56 61.5497  50 
   1  -2   1 1285.56 62.0036  65 
  -1  -2  -1 1217.77 61.9686  61 
   1  -2   1 1210.15 61.5741  49 
  -1  -2  -1 1294.37 62.0421  65 
  -1  -2  -1 1163.06 63.0752  59 
   1  -2   1 1279.81 62.0271  61 
  -1  -2  -1 1252.28 62.0149  61 
  -1  -2  -1 1269.18 61.6997  69 
  -1  -2  -1 1244.18 61.5421  50 
   1  -2   1 1229.87 62.4743  58 
  -1  -2  -1 1267.67 62.5398  58 
  -1  -2  -1 1314.65 62.2955  64 
  -1   2  -1 1332.33 63.9316  66 
   1   2   1 1253.05 63.9172  66 
  -1   2  -1 1323.34 62.9283  52 
  -1   2  -1 1346.41 62.4366  54 
   1   2   1 1199.07 62.3642  54 
   2  -2   1 141.792 8.44322  65 
  -2  -2  -1 146.124 8.71555  57 
   2  -2   1 157.360 7.71196  50 
  -2  -2  -1 158.881 8.60606  65 
  -2  -2  -1 145.035 9.46957  58 
  -2  -2  -1 143.608 7.92074  63 
  -2  -2  -1 158.241 7.70695  70 
   2  -2   1 142.531 7.71607  50 
  -2  -2  -1 146.899 8.72540  64 
   2  -2   1 149.186 7.72524  49 
   2  -2   1 160.493 8.09170  69 
   2  -2   1 151.192 7.67048  70 
   2  -2   1 151.146 9.54818  58 
  -2  -2  -1 152.826 7.75787  50 
   2  -2   1 164.466 8.92249  64 
  -2  -2  -1 167.818 8.55200  61 
   2  -2   1 146.347 8.50467  61 
  -2  -2  -1 149.605 7.66119  46 
  -2  -2  -1 155.700 8.05351  69 
  -2   2  -1 145.791 11.1588  56 
  -2   2  -1 161.480 11.3891  66 
   2   2   1 137.591 8.54183  54 
  -2   2  -1 164.630 9.44715  52 
   3  -2   1 42.1857 4.28160  64 
   3  -2   1 38.3295 2.87463  50 
  -3  -2  -1 46.7993 5.44339  67 
  -3  -2  -1 42.0325 2.83453  46 
  -3  -2  -1 43.3297 4.25372  64 
   3  -2   1 32.1110 4.50102  57 
   3  -2   1 44.9936 4.03791  65 
   3  -2   1 40.1843 3.49928  48 
   3  -2   1 41.0197 3.04601  71 
   3  -2   1 39.7996 2.94425  49 
  -3  -2  -1 42.1244 2.77759  70 
  -3  -2  -1 43.9339 3.26849  69 
  -3  -2  -1 40.3891 2.93846  45 
  -3  -2  -1 48.0802 4.49958  61 
   3  -2   1 39.2372 2.74114  70 
  -3  -2  -1 38.3637 3.40464  48 
  -3  -2  -1 38.9568 4.02076  65 
   3  -2   1 40.5885 2.75220  46 
  -3  -2  -1 38.6872 3.09181  71 
  -3  -2  -1 36.3818 2.96773  63 
   3  -2   1 38.4298 3.03291  45 
   3  -2   1 38.9963 3.27703  69 
   3   2   1 42.0367 2.81365  51 
  -3   2  -1 44.8927 2.43157  51 
  -3   2  -1 46.9002 7.29891  66 
  -3   2  -1 47.6992 4.68589  52 
   3   2   1 37.6660 3.15403  73 
   4  -2   1 159.659 10.0709  69 
  -4  -2  -1 172.677 9.51890  70 
  -4  -2  -1 184.184 9.88460  75 
   4  -2   1 178.568 10.3315  44 
  -4  -2  -1 181.476 10.3786  44 
  -4  -2  -1 184.074 9.54106  45 
  -4  -2  -1 191.803 9.62813  71 
   4  -2   1 193.673 9.53955  70 
  -4  -2  -1 187.919 9.90874  47 
   4  -2   1 184.969 10.0560  48 
   4  -2   1 188.381 9.41045  46 
   4  -2   1 190.690 9.82308  75 
   4  -2   1 157.222 10.8385  65 
  -4  -2  -1 159.420 10.7724  65 
   4  -2   1 179.571 9.51687  71 
  -4  -2  -1 167.856 12.2041  67 
   4  -2   1 186.140 9.55467  49 
  -4  -2  -1 190.107 9.49718  46 
   4  -2   1 177.197 9.60511  45 
  -4   2  -1 182.174 9.31885  51 
  -4   2  -1 200.164 11.2632  52 
  -4   2  -1 139.924 15.4933  66 
   4   2   1 174.224 9.58145  51 
   4   2   1 176.242 9.90401  73 
  -4   2  -1 182.653 11.1747  77 
   5  -2   1 252.228 14.4276  79 
  -5  -2  -1 250.220 13.8316  75 
   5  -2   1 276.351 13.5659  49 
   5  -2   1 270.605 13.6217  71 
  -5  -2  -1 292.762 13.8542  71 
  -5  -2  -1 257.666 13.5742  45 
   5  -2   1 268.258 14.6987  44 
   5  -2   1 246.590 13.4298  46 
   5  -2   1 248.065 13.6487  45 
   5  -2   1 288.575 14.3808  48 
   5  -2   1 255.756 13.9207  41 
  -5  -2  -1 257.451 14.6482  44 
   5  -2   1 263.426 13.8531  75 
  -5  -2  -1 254.699 13.8019  47 
   5  -2   1 210.088 16.4930  67 
  -5   2  -1 269.668 13.4238  51 
   5   2   1 264.934 13.9437  77 
   5   2   1 255.192 14.1328  73 
   5   2   1 261.612 13.7666  51 
   5   2   1 236.143 14.1115  43 
   5   2   1 271.576 14.1223  78 
  -5   2  -1 259.865 13.8590  77 
   6  -2   1 228.203 12.5825  75 
   6  -2   1 211.318 12.9702  79 
  -6  -2  -1 213.421 12.2574  71 
  -6  -2  -1 223.711 13.4499  44 
   6  -2   1 216.940 12.4397  41 
   6  -2   1 212.884 12.1339  45 
  -6  -2  -1 219.161 12.0992  45 
  -6  -2  -1 218.810 12.2590  47 
   6  -2   1 227.817 13.6167  44 
   6  -2   1 229.583 12.9641  48 
   6  -2   1 230.602 12.1336  71 
  -6  -2  -1 223.307 12.4213  75 
  -6   2  -1 216.549 12.8685  83 
   6   2   1 244.716 13.4046  78 
   6   2   1 243.218 12.8526  77 
  -6   2  -1 236.151 12.5333  77 
   6   2   1 214.554 12.7402  38 
   6   2   1 190.836 12.4221  40 
   6   2   1 226.419 12.8478  73 
  -7  -2  -1 92.9621 7.08407  75 
   7  -2   1 99.2549 7.29245  75 
   7  -2   1 87.3074 8.65509  44 
  -7  -2  -1 93.3159 6.94110  47 
   7  -2   1 99.8136 7.09939  45 
   7  -2   1 89.7496 7.68802  33 
  -7  -2  -1 92.7967 6.72639  45 
   7  -2   1 98.0935 7.86024  48 
   7  -2   1 93.2907 7.70222  41 
  -7  -2  -1 96.5044 6.67617  71 
   7  -2   1 87.6349 6.39123  71 
   7  -2   1 108.628 8.56099  79 
  -7   2  -1 101.934 7.21256  77 
   7   2   1 83.7842 7.29895  38 
  -7   2  -1 96.5418 7.78077  83 
   7   2   1 78.2817 8.18890  77 
   7   2   1 101.869 7.55800  73 
   8  -2   1 43.8887 5.27661  27 
  -8  -2  -1 41.8697 4.73642  27 
  -8  -2  -1 45.2222 5.45737  19 
   8  -2   1 40.9234 6.21798  41 
  -8  -2  -1 44.5219 5.30838  18 
   8  -2   1 46.2513 5.40949  75 
   8  -2   1 24.4500 6.86996  24 
  -8  -2  -1 44.1805 5.63305  20 
   8  -2   1 44.7376 6.07424  33 
   8  -2   1 51.4967 7.14265  79 
  -8  -2  -1 47.3308 5.32286  75 
   8   2   1 51.1288 5.43641  73 
  -8   2  -1 37.6380 4.79053  13 
  -8   2  -1 50.7689 6.13671  83 
   8   2   1 51.2529 7.00485  15 
  -8   2  -1 46.2972 5.24325   7 
  -8   2  -1 46.7123 5.39436  77 
  -8   2  -1 42.2910 4.31100  16 
  -8   2  -1 42.5050 5.25360  31 
   8   2   1 44.2698 5.45379  38 
  -8   2  -1 43.0165 5.38269  14 
  -8   2  -1 43.9102 5.35463   2 
  -8   2  -1 50.6106 4.82881  28 
   8   2   1 45.7294 5.89505  31 
  -8   2  -1 47.9105 4.44170  17 
  -8   2  -1 41.2557 4.86811   4 
   8   2   1 32.0076 5.12571   3 
   8   2   1 51.3874 5.51287  16 
   8   2   1 54.7600 6.18563   7 
  -8   2  -1 37.8178 4.65027   1 
  -8   2  -1 41.9691 4.43169   3 
   8   2   1 50.9116 5.48496   4 
  -8   2  -1 55.8813 6.32668   5 
  -8   2  -1 60.1749 9.20424   6 
   8   2   1 50.6309 5.90763  13 
   9  -2   1 194.701 11.8043  33 
   9  -2   1 195.604 11.9339  41 
  -9  -2  -1 220.210 11.5668  18 
   9  -2   1 198.886 12.3318  20 
  -9  -2  -1 210.721 11.5407  19 
   9  -2   1 210.100 11.4141  27 
  -9  -2  -1 199.933 11.7709  20 
   9  -2   1 174.712 12.6358  79 
   9  -2   1 211.246 11.8436  18 
   9  -2   1 226.973 13.2722  24 
   9  -2   1 205.240 11.8158  19 
  -9   2  -1 195.567 11.5921   7 
  -9   2  -1 212.575 11.4057  31 
   9   2   1 200.512 11.6440  13 
   9   2   1 210.434 11.6952   4 
   9   2   1 207.862 12.9018  31 
   9   2   1 191.900 12.0140   7 
  -9   2  -1 197.296 12.0167  83 
   9   2   1 200.160 12.2139  15 
  -9   2  -1 198.564 11.4015  14 
  -9   2  -1 201.836 11.2083   4 
  -9   2  -1 222.973 11.4946   2 
   9   2   1 227.608 11.6578   3 
  -9   2  -1 193.526 10.9492   1 
  -9   2  -1 190.337 11.0628   3 
  -9   2  -1 205.544 10.7757  16 
  -9   2  -1 201.554 10.9142  13 
   9   2   1 200.701 11.3574  16 
   9   2   1 203.179 11.9482  38 
  -9   2  -1 185.339 11.7360   5 
 -10  -2  -1 29.2251 4.40236  20 
 -10  -2  -1 28.4397 3.82190  18 
  10  -2   1 22.9899 4.51944  24 
  10  -2   1 24.6146 4.23105  18 
  10  -2   1 26.3737 4.19001  19 
 -10  -2  -1 26.4958 3.54942  19 
  10  -2   1 27.0977 4.91054  20 
  10  -2   1 21.9643 4.04289  33 
  10   2   1 23.0254 3.27276  16 
 -10   2  -1 30.0259 2.79674   1 
 -10   2  -1 32.4043 3.06876   3 
  10   2   1 27.7348 3.58363   1 
  10   2   1 31.0315 3.98447   3 
 -10   2  -1 23.7079 4.44102   5 
 -10   2  -1 28.4879 3.59911   2 
 -10   2  -1 27.2840 3.42575  31 
 -10   2  -1 29.9175 2.70050  32 
  10   2   1 27.3905 5.39281  31 
 -10   2  -1 34.3189 3.77529  14 
 -10   2  -1 27.8954 4.16753   7 
  10   2   1 22.9103 3.65416  13 
 -10   2  -1 32.2951 3.48924   4 
  10   2   1 28.4570 4.12238   4 
  10   2   1 31.0903 5.00458   7 
  10  -3  -1 14.3089 4.49357  33 
 -10  -3   1 12.5946 3.38762  18 
 -10  -3   1 9.36195 2.42367  20 
  10  -3  -1 8.83203 4.28073  24 
 -10  -3   1 8.76299 2.09509  19 
  10  -3  -1 6.37445 1.83972  27 
 -10   3   1 7.95001 2.27005  31 
  10   3  -1 5.13672 2.39033   7 
 -10   3   1 8.92109 2.61926  30 
  10   3  -1 9.37151 2.45928   3 
 -10   3   1 4.62619 1.93371   7 
 -10   3   1 11.0307 3.20111  14 
  10   3  -1 7.22962 3.36229  15 
 -10   3   1 9.58224 2.30419  28 
  10   3  -1 8.42251 1.96246   1 
  10   3  -1 3.73527 2.03664   4 
 -10   3   1 7.26085 1.85582   5 
  10   3  -1 8.14022 2.23639  32 
  10   3  -1 9.65836 2.57563  30 
  10   3  -1 9.40349 2.20856  31 
  -9  -3   1 16.0174 4.77562  20 
  -9  -3   1 10.8608 3.31114  27 
   9  -3  -1 23.2934 4.45297  27 
   9  -3  -1 10.9524 3.26365  33 
  -9  -3   1 8.36460 2.61223  19 
   9  -3  -1 11.3076 3.90705  24 
  -9  -3   1 8.48368 2.99168  18 
   9   3  -1 13.3167 4.11110  38 
   9   3  -1 12.4712 3.58847   3 
   9   3  -1 8.09267 3.36967   7 
  -9   3   1 14.2831 4.42166   5 
  -9   3   1 14.6587 2.02253  32 
  -9   3   1 17.5117 4.12361   7 
   9   3  -1 17.7495 4.57039  10 
   9   3  -1 8.39770 2.99214  31 
   9   3  -1 12.9112 3.35603   1 
  -9   3   1 15.2103 4.32967  14 
  -9   3   1 10.4538 2.38547   3 
  -9   3   1 8.30815 3.32073   6 
   9   3  -1 11.4968 1.96891  16 
  -9   3   1 12.4931 3.21154  31 
   9   3  -1 7.84801 2.75239  13 
  -9   3   1 9.20725 2.84668  28 
  -9   3   1 13.1658 3.39305  30 
   9   3  -1 16.2709 5.59724  15 
   9   3  -1 7.52325 3.00992   4 
   9   3  -1 9.34430 2.58459  32 
  -8  -3   1 57.4997 5.24730  27 
   8  -3  -1 63.4138 6.63810  79 
   8  -3  -1 49.3656 7.53583  75 
   8  -3  -1 79.3177 10.8812  44 
  -8  -3   1 38.1053 7.01669  75 
   8  -3  -1 49.0823 5.93027  33 
   8  -3  -1 39.1767 5.36521  27 
   8  -3  -1 43.1901 5.60100  41 
  -8   3   1 60.3611 3.83719  32 
   8   3  -1 61.0273 5.83944  77 
  -8   3   1 45.3946 4.33400  28 
   8   3  -1 58.6374 5.66885   4 
   8   3  -1 46.9627 10.6711  15 
   8   3  -1 54.8153 4.53713  16 
   8   3  -1 51.6081 5.12490   3 
  -8   3   1 52.7423 5.58571   7 
   8   3  -1 54.1923 6.42344   7 
   8   3  -1 45.3127 6.21854  38 
  -8   3   1 51.5822 5.60576  14 
  -8   3   1 54.4052 6.09973   6 
  -8   3   1 54.1353 4.92716  31 
   8   3  -1 53.1094 6.39794  32 
   8   3  -1 52.7834 5.74749  31 
   8   3  -1 50.1709 5.15035  28 
  -8   3   1 53.6047 4.45449  77 
  -8   3   1 51.6627 4.81356  17 
  -8   3   1 50.1793 4.09331   3 
  -8   3   1 51.4520 4.67023  29 
   8   3  -1 58.4641 4.84352   1 
  -8   3   1 55.6410 3.78359   1 
   8   3  -1 49.4909 5.40873  13 
   8   3  -1 49.6014 6.23425  10 
  -8   3   1 47.8170 4.89954  30 
   7  -3  -1 365.917 18.0979  75 
   7  -3  -1 340.379 18.7630  79 
  -7  -3   1 368.207 18.0426  45 
   7  -3  -1 302.371 18.4134  48 
   7  -3  -1 361.441 17.8265  45 
  -7  -3   1 325.111 18.9741  27 
  -7  -3   1 328.928 17.7760  71 
  -7  -3   1 318.104 19.2015  44 
   7  -3  -1 323.327 19.2313  44 
  -7  -3   1 323.614 18.1333  75 
   7  -3  -1 299.697 20.0170  41 
   7   3  -1 364.434 18.2459  77 
   7   3  -1 392.346 21.8263  10 
  -7   3   1 363.479 17.5831  77 
   7   3  -1 388.437 18.7216  38 
  -7   3   1 288.811 17.5005   1 
   7   3  -1 279.394 19.2065   3 
   6  -3  -1 88.9463 7.16551  48 
  -6  -3   1 103.520 6.45664  71 
   6  -3  -1 101.785 6.61565  75 
  -6  -3   1 98.3031 6.71761  75 
  -6  -3   1 91.1075 7.95052  44 
   6  -3  -1 99.1456 7.34590  79 
  -6  -3   1 101.421 6.62462  45 
  -6  -3   1 93.9300 6.74478  47 
   6  -3  -1 95.8068 8.16247  44 
   6  -3  -1 96.5029 6.24719  71 
   6  -3  -1 92.8872 5.98303  46 
   6   3  -1 107.195 7.20964  77 
   6   3  -1 84.0893 7.94051  38 
  -6   3   1 87.5838 6.23427  77 
  -5  -3   1 66.3578 4.78531  46 
   5  -3  -1 76.7428 5.67868  48 
  -5  -3   1 75.6265 5.02508  71 
  -5  -3   1 80.4268 6.46140  44 
   5  -3  -1 73.0722 6.11794  44 
   5  -3  -1 69.6362 4.55641  70 
  -5  -3   1 74.0192 5.44961  75 
  -5  -3   1 71.5432 5.29829  47 
   5  -3  -1 66.1231 4.53483  46 
  -5  -3   1 73.3111 5.13870  45 
   5  -3  -1 61.0614 5.26936  69 
   5   3  -1 63.1561 5.83916  40 
   5   3  -1 64.8912 6.15721  38 
   5   3  -1 84.4132 5.78306  77 
  -5   3   1 64.7221 4.70494  77 
   4  -3  -1 69.1101 5.77682  44 
  -4  -3   1 69.3823 5.00791  75 
  -4  -3   1 65.5048 5.01014  69 
  -4  -3   1 76.2909 4.48313  70 
  -4  -3   1 68.4161 5.83506  44 
   4  -3  -1 71.4994 5.04228  48 
   4  -3  -1 76.9190 4.32077  70 
   4  -3  -1 73.9911 4.29766  46 
   4  -3  -1 78.8735 5.05735  69 
  -4  -3   1 70.8432 4.73353  45 
  -4  -3   1 66.8131 4.72018  71 
   4   3  -1 72.5924 6.67474  43 
   4   3  -1 72.5428 5.11022  77 
  -4   3   1 75.1686 4.54786  80 
  -4   3   1 75.8194 6.78216  52 
  -4   3   1 66.9281 4.32938  77 
   3  -3  -1 253.146 12.6833  49 
  -3  -3   1 258.059 12.7866  46 
  -3  -3   1 257.610 12.7855  70 
   3  -3  -1 259.380 13.6223  65 
  -3  -3   1 244.274 13.4687  44 
   3  -3  -1 246.099 13.3869  48 
   3  -3  -1 261.642 12.5521  46 
  -3  -3   1 244.109 13.2940  69 
   3  -3  -1 253.541 13.1263  69 
   3  -3  -1 253.031 12.6270  70 
   3  -3  -1 256.773 12.6531  50 
   3   3  -1 250.537 12.9239  77 
  -3   3   1 233.272 14.7894  52 
  -2  -3   1 286.689 14.2280  50 
   2  -3  -1 279.586 13.8796  70 
   2  -3  -1 300.634 13.9727  50 
   2  -3  -1 275.421 14.6542  64 
  -2  -3   1 274.096 14.1369  70 
   2  -3  -1 288.249 13.9841  50 
  -2  -3   1 291.753 14.5630  69 
   2  -3  -1 305.778 14.2266  69 
  -2  -3   1 285.294 14.1039  46 
  -2  -3   1 292.623 15.1170  65 
  -2   3   1 257.160 15.5390  66 
  -2   3   1 282.171 15.6283  66 
   2   3  -1 261.444 15.3593  54 
  -2   3   1 289.867 16.3193  52 
  -2   3   1 288.210 15.4833  54 
  -1  -3   1 249.866 13.4858  64 
  -1  -3   1 252.707 12.8106  50 
  -1  -3   1 255.066 13.6074  64 
  -1  -3   1 262.867 12.7260  70 
  -1  -3   1 254.952 13.4863  65 
  -1  -3   1 266.373 13.0608  69 
   1   3  -1 262.798 15.4527  66 
   1   3  -1 256.056 14.3070  54 
  -1   3   1 258.389 14.8893  52 
   1   3  -1 260.990 14.7186  52 
  -1   3   1 275.082 14.4545  54 
   0  -3   1 813.061 38.9399  69 
   0  -3   1 808.771 38.8256  69 
   0  -3   1 768.719 39.2524  64 
   0  -3   1 816.715 39.2815  64 
   0   3  -1 786.252 40.7093  52 
   0   3  -1 808.190 40.2191  54 
   0   3   1 860.388 40.4203  54 
   0   3   1 709.280 40.3656  52 
   0   3  -1 789.937 39.9344  66 
  -1  -3  -1 725.774 38.5118  64 
  -1  -3  -1 807.460 37.8145  50 
   1  -3   1 806.699 38.5561  64 
   1  -3   1 727.934 38.3782  64 
  -1  -3  -1 714.040 38.3881  64 
   1  -3   1 822.721 38.0332  69 
  -1  -3  -1 779.234 37.7972  50 
   1  -3   1 785.770 37.7936  50 
  -1  -3  -1 804.248 37.9967  69 
   1  -3   1 815.598 37.8006  50 
  -1   3  -1 790.522 39.5731  66 
   1   3   1 789.513 39.3447  54 
  -1   3  -1 744.080 39.1529  54 
   1   3   1 725.958 39.7948  66 
  -1   3  -1 789.579 39.9672  52 
  -2  -3  -1 620.276 29.3337  70 
   2  -3   1 595.093 29.7125  69 
  -2  -3  -1 565.524 29.5978  48 
   2  -3   1 615.027 29.2906  70 
  -2  -3  -1 593.946 29.3790  50 
  -2  -3  -1 610.989 29.2817  46 
   2  -3   1 607.254 29.3234  50 
   2  -3   1 598.440 30.1652  65 
   2  -3   1 618.863 29.3266  49 
  -2  -3  -1 608.900 29.7460  69 
   2  -3   1 594.584 29.2050  46 
  -2  -3  -1 569.991 30.2291  65 
  -2   3  -1 589.451 31.4952  52 
  -2   3  -1 616.844 32.7283  66 
   2   3   1 550.245 30.5469  54 
   3  -3   1 40.9346 2.69166  70 
   3  -3   1 39.7314 2.65190  46 
  -3  -3  -1 39.5959 2.79659  46 
   3  -3   1 40.6857 2.89099  49 
  -3  -3  -1 38.1051 3.22193  69 
  -3  -3  -1 40.6334 3.89381  44 
   3  -3   1 34.3457 2.64640  50 
  -3  -3  -1 34.9945 2.71124  70 
   3  -3   1 43.8237 3.30360  69 
   3  -3   1 40.9198 3.45718  48 
  -3   3  -1 40.8644 4.87934  52 
  -3   3  -1 36.2997 2.75706  77 
   3   3   1 34.8436 3.27583  77 
   4  -3   1 66.5301 4.06375  46 
  -4  -3  -1 67.8653 4.49940  45 
  -4  -3  -1 65.9556 4.59221  71 
  -4  -3  -1 66.4559 4.85853  69 
   4  -3   1 70.7605 4.20821  70 
  -4  -3  -1 65.8241 5.65806  44 
  -4  -3  -1 63.0679 4.72909  47 
   4  -3   1 70.4030 5.05156  48 
  -4  -3  -1 63.2766 4.19820  70 
  -4  -3  -1 71.5190 4.33107  46 
  -4  -3  -1 59.9568 4.81152  75 
   4  -3   1 62.9858 5.36105  44 
   4  -3   1 64.7492 4.85606  69 
   4  -3   1 70.6898 4.44941  49 
  -4   3  -1 58.3917 4.27405  77 
  -4   3  -1 65.9000 5.20852  42 
   4   3   1 59.4522 5.73411  40 
   4   3   1 59.3051 5.69886  43 
  -4   3  -1 64.7619 6.82046  52 
   4   3   1 60.4795 4.84159  77 
   5  -3   1 20.7545 4.89718  44 
  -5  -3  -1 25.0741 3.40955  71 
   5  -3   1 23.6805 3.71420  75 
  -5  -3  -1 18.5786 3.07618  46 
  -5  -3  -1 23.1883 3.49622  47 
   5  -3   1 22.1244 4.51155  79 
   5  -3   1 23.2636 4.38720  48 
   5  -3   1 31.5794 4.72213  41 
   5  -3   1 22.2956 3.10476  71 
  -5  -3  -1 20.6635 3.76941  75 
   5  -3   1 28.5674 2.99076  70 
  -5  -3  -1 22.9265 5.01597  44 
   5  -3   1 25.2112 3.23884  49 
  -5  -3  -1 26.3780 3.42507  45 
   5  -3   1 25.6304 2.91530  46 
   5   3   1 28.5393 4.87755  40 
   5   3   1 20.5993 4.68922  38 
   5   3   1 16.5501 4.44904  43 
   5   3   1 27.1445 4.19520  77 
  -5   3  -1 18.9322 3.35518  77 
   6  -3   1 6.68190 3.76203  48 
  -6  -3  -1 4.10703 2.31583  45 
   6  -3   1 13.7608 4.36980  41 
  -6  -3  -1 5.33736 2.52381  44 
   6  -3   1 11.6790 3.87946  79 
   6  -3   1 5.50324 2.77661  44 
  -6  -3  -1 13.2818 4.05622  75 
  -6  -3  -1 4.91928 2.31209  71 
   6  -3   1 7.35605 2.34693  71 
   6  -3   1 4.72151 2.80710  75 
   6  -3   1 11.0473 2.74006  45 
  -6  -3  -1 8.57399 3.62610  47 
   6   3   1 9.50802 3.35884  40 
  -6   3  -1 7.06182 2.80393  77 
   6   3   1 10.7855 4.49762  38 
   6   3   1 8.21678 3.54869  77 
   7  -3   1 85.3245 8.31115  44 
   7  -3   1 92.8530 6.67862  75 
   7  -3   1 94.5573 8.07345  79 
   7  -3   1 85.6871 7.17310  41 
   7  -3   1 84.7183 7.20455  33 
  -7  -3  -1 90.8892 6.40507  27 
   7  -3   1 75.7007 6.48577  27 
  -7  -3  -1 84.0255 6.73536  75 
  -7  -3  -1 78.4571 7.76513  44 
   7   3   1 80.2521 6.27080   3 
  -7   3  -1 88.0104 7.79777   6 
   7   3   1 81.6075 6.76704  30 
   7   3   1 80.5204 6.96512  77 
   7   3   1 80.0540 6.85230   7 
  -7   3  -1 86.5888 6.15521  77 
  -7   3  -1 87.4531 7.04851  25 
   7   3   1 83.5266 6.91284   4 
  -7   3  -1 91.5984 6.17111  30 
  -7   3  -1 82.2478 5.53281   3 
  -7   3  -1 90.2981 6.20440  31 
   7   3   1 86.5153 6.75125  13 
   7   3   1 80.6427 6.36923  28 
  -7   3  -1 83.6860 5.59449  29 
   7   3   1 100.747 8.64136  40 
   7   3   1 83.6262 6.80788  31 
   7   3   1 81.3619 5.97051  16 
  -7   3  -1 88.6364 5.65945  28 
   7   3   1 87.5865 7.32657  38 
   7   3   1 79.6587 6.23840  32 
  -7   3  -1 88.6303 6.80720  14 
  -7   3  -1 84.0555 5.36213  32 
   7   3   1 87.1590 6.00230   1 
  -7   3  -1 96.5005 6.47504   7 
  -7   3  -1 81.9198 5.25061   1 
   8  -3   1 96.6948 9.71035  24 
  -8  -3  -1 126.715 7.80629  27 
   8  -3   1 129.158 7.98418  27 
   8  -3   1 125.919 8.54759  41 
   8  -3   1 131.103 8.53699  33 
   8  -3   1 127.241 9.42373  79 
  -8   3  -1 131.393 8.17953  77 
   8   3   1 127.021 7.70960  32 
  -8   3  -1 131.045 7.73690  31 
   8   3   1 122.519 7.72707  13 
  -8   3  -1 144.201 8.23633  14 
  -8   3  -1 114.500 8.13062  25 
  -8   3  -1 138.237 8.00728   7 
   8   3   1 107.175 7.78224  28 
   8   3   1 138.415 8.46338  31 
   8   3   1 108.486 8.95782  30 
  -8   3  -1 127.548 7.34217  28 
   8   3   1 129.068 8.18703   4 
  -8   3  -1 118.524 7.66809  30 
   8   3   1 131.713 8.62617   7 
  -8   3  -1 127.609 7.09760   3 
  -8   3  -1 129.774 6.91260  32 
   8   3   1 108.022 8.72753  38 
  -8   3  -1 125.124 7.52416  17 
   8   3   1 134.217 10.0208  15 
   8   3   1 132.740 7.24534  16 
   8   3   1 121.746 7.74010   3 
  -8   3  -1 131.964 6.91194   1 
   8   3   1 126.793 7.55374   1 
   8   3   1 112.725 8.29193  77 
  -8   3  -1 127.275 8.89051   6 
  -9  -3  -1 61.8994 5.50864  20 
   9  -3   1 56.4179 5.25263  33 
  -9  -3  -1 49.1098 4.30575  27 
   9  -3   1 61.8975 4.77171  27 
  -9  -3  -1 48.6075 5.08022  18 
  -9  -3  -1 57.5618 5.10629  19 
   9  -3   1 74.3881 7.14139  24 
  -9   3  -1 54.4090 5.35093   6 
   9   3   1 49.2211 6.12733  15 
  -9   3  -1 44.2542 4.84748   7 
  -9   3  -1 47.4818 3.46928   3 
   9   3   1 53.0811 4.38055  32 
   9   3   1 53.4065 6.11280  30 
   9   3   1 43.0234 4.81889   4 
   9   3   1 56.1359 5.09970  31 
  -9   3  -1 58.7599 4.07391  28 
  -9   3  -1 59.2544 5.01503  14 
  -9   3  -1 43.4739 4.22219  31 
   9   3   1 53.9987 4.46159   3 
  -9   3  -1 56.0629 4.54214  30 
  -9   3  -1 56.4950 3.29734  32 
   9   3   1 53.7760 4.10179   1 
   9   3   1 58.8391 5.38717  38 
   9   3   1 55.3663 5.77527   7 
 -10  -3  -1 7.78930 1.96626  18 
  10  -3   1 9.57698 2.40766  27 
  10  -3   1 16.1650 4.25470  19 
 -10  -3  -1 14.3923 2.81765  19 
 -10  -3  -1 13.5557 3.14731  20 
  10  -3   1 9.18768 3.42424  24 
  10   3   1 10.7143 2.32312   7 
 -10   3  -1 12.9371 2.00286  30 
  10   3   1 11.4032 2.99297   4 
  10   3   1 16.7514 2.99533  30 
  10   3   1 12.3972 1.70106  32 
  10   3   1 12.0831 2.78977  31 
 -10   3  -1 15.5492 2.75393  14 
 -10   3  -1 10.0390 2.00581  31 
 -10   3  -1 10.8825 2.74536   7 
  10   3   1 11.9389 1.93460   3 
 -10   3  -1 11.6368 2.05361  28 
   9  -4  -1 4.18437 1.88312  27 
  -9  -4   1 2.88368 1.46376  27 
   9  -4  -1 1.94955 2.77318  24 
  -9   4   1 3.47448 2.04991  14 
  -9   4   1 3.96727 1.29678  28 
  -9   4   1 3.70089 1.35182  29 
  -9   4   1 4.18766 2.45959   6 
  -9   4   1 3.39816 1.15122  30 
   9   4  -1 3.85642 1.83070  31 
   9   4  -1 4.55963 2.06301  28 
   9   4  -1 3.41741 2.23864  15 
   9   4  -1 5.08787 2.08196  10 
   9   4  -1 4.60173 2.27662   7 
   9   4  -1 3.07665 1.90601  30 
   8  -4  -1 44.5608 4.63182  27 
  -8  -4   1 54.9409 4.84004  27 
  -8   4   1 51.6601 5.38261  25 
  -8   4   1 56.0801 3.89721  29 
   8   4  -1 50.4383 4.67994  31 
  -8   4   1 57.2892 3.88865  28 
  -8   4   1 55.5173 6.04303   7 
  -8   4   1 53.9352 3.73151  30 
  -8   4   1 56.6344 5.06764  14 
   8   4  -1 55.7414 4.81017  30 
  -8   4   1 46.5329 5.53797   6 
   8   4  -1 49.5009 4.46613  28 
   8   4  -1 49.9950 4.25624  35 
   8   4  -1 40.6716 5.55264  10 
   8   4  -1 50.7341 5.42862   7 
  -7  -4   1 199.709 11.1650  27 
   7   4  -1 211.563 11.1946  30 
  -7   4   1 193.675 10.5815  29 
   7   4  -1 206.605 12.2812  10 
  -7   4   1 222.861 12.3990   6 
   7   4  -1 214.531 11.7245   7 
   7   4  -1 172.261 11.7062  38 
   7   4  -1 216.820 11.1105  29 
   7   4  -1 197.538 10.4799   3 
  -7   4   1 181.333 11.3901  14 
  -7   4   1 206.637 11.6577  25 
  -7   4   1 206.263 10.6198  30 
  -7   4   1 199.177 10.6272  28 
   7   4  -1 206.871 11.2284  31 
   7   4  -1 201.544 11.0758  28 
   7   4  -1 200.905 10.1681  32 
   7   4  -1 178.268 10.6333  77 
  -6  -4   1 60.1989 5.66130  75 
   6  -4  -1 73.4391 7.13072  44 
  -6  -4   1 65.5281 6.91261  44 
   6   4  -1 75.1585 7.14860  35 
   6   4  -1 76.3475 5.43598  29 
   6   4  -1 63.3855 7.01763  10 
   6   4  -1 68.8596 5.42195   3 
   6   4  -1 73.1456 6.46485   7 
  -6   4   1 78.0730 4.90912  28 
   6   4  -1 70.0996 4.32835  32 
  -6   4   1 72.5385 7.25575   6 
   6   4  -1 72.1052 4.45619   1 
   6   4  -1 66.4441 5.47808  28 
   6   4  -1 77.8710 5.95549  31 
   6   4  -1 72.8744 5.77149  30 
   6   4  -1 68.6548 5.02904  77 
  -6   4   1 72.8331 4.60660  29 
  -6   4   1 76.9547 6.64858  25 
   6   4  -1 64.4200 7.02615  23 
   6   4  -1 72.5647 6.74910  38 
   6   4  -1 77.4341 7.05281  40 
  -6   4   1 69.3445 4.85884  30 
  -5  -4   1 88.2144 6.71228  70 
   5  -4  -1 84.1500 7.06429  44 
  -5  -4   1 72.8748 5.44776  46 
   5  -4  -1 86.9104 5.32403  46 
   5  -4  -1 81.6999 5.17218  70 
  -5  -4   1 88.0396 7.43280  44 
   5   4  -1 90.5956 7.47580  38 
   5   4  -1 88.9652 5.62356  35 
  -5   4   1 89.3693 5.45197  80 
   5   4  -1 82.0302 5.31417  77 
   5   4  -1 80.5888 7.11261  40 
   4  -4  -1 117.549 6.83175  46 
  -4  -4   1 129.907 8.50992  44 
  -4  -4   1 131.296 7.21524  46 
   4  -4  -1 116.709 6.83909  70 
  -4  -4   1 118.156 7.06738  70 
   4   4  -1 125.688 7.22459  35 
   4   4  -1 123.716 8.38915  38 
   4   4  -1 131.467 9.23916  43 
  -4   4   1 138.740 7.02868  80 
   4   4  -1 128.146 7.04121  35 
   4   4  -1 118.528 8.64560  40 
   3  -4  -1 540.855 26.0347  50 
  -3  -4   1 518.406 26.8362  69 
  -3  -4   1 511.333 26.1871  70 
   3  -4  -1 558.677 26.0209  70 
   3  -4  -1 516.235 25.9295  46 
   3  -4  -1 558.706 26.6180  69 
   3   4  -1 503.708 26.2034  80 
  -3   4   1 544.497 25.9992  80 
   3   4  -1 526.633 26.9322  39 
   3   4  -1 531.165 28.0784  82 
   3   4  -1 497.245 27.4374  43 
   3   4  -1 509.358 27.1674  40 
  -2  -4   1 174.446 9.59190  69 
   2  -4  -1 192.666 9.23200  69 
   2  -4  -1 177.700 8.88566  50 
   2  -4  -1 181.461 8.84340  70 
  -2  -4   1 183.130 9.26122  50 
   2  -4  -1 179.961 8.93320  50 
  -2  -4   1 179.678 9.13876  70 
  -2   4   1 171.536 8.84748  80 
   2   4  -1 166.529 10.6932  43 
  -2   4   1 180.530 8.87279  80 
   2   4  -1 169.299 11.8341  82 
   2   4  -1 164.237 10.3870  40 
   2   4  -1 176.033 9.18086  80 
  -1  -4   1 322.639 15.5575  69 
  -1  -4   1 319.539 15.0885  46 
  -1  -4   1 306.102 15.2154  50 
  -1  -4   1 302.253 15.3172  50 
   1   4  -1 304.108 16.8582  43 
   1   4  -1 295.501 17.3977  82 
   1   4  -1 307.244 16.3178  40 
  -1   4   1 323.234 16.6480  43 
  -1   4   1 304.177 17.0752  82 
   1   4  -1 309.556 15.1628  80 
  -1   4   1 255.729 17.7503  52 
   0  -4   1 140.659 6.84417  50 
   0  -4   1 139.060 6.72352  70 
   0  -4   1 146.883 7.08076  69 
   0  -4   1 134.734 6.82686  50 
   0   4  -1 129.968 6.84050  80 
   0   4  -1 129.712 9.56017  82 
   0   4   1 128.665 8.54807  43 
   0   4   1 124.295 9.58220  82 
   0   4  -1 136.487 8.70785  43 
   0   4  -1 126.951 6.80616  80 
  -1  -4  -1 151.361 8.08190  69 
   1  -4   1 146.536 7.82071  50 
  -1  -4  -1 169.801 7.87654  50 
   1  -4   1 159.434 8.12274  69 
   1  -4   1 162.760 7.77679  70 
  -1  -4  -1 150.438 7.83421  50 
  -1  -4  -1 155.853 7.76606  70 
   1  -4   1 150.105 7.83550  50 
   1   4   1 147.494 10.6467  82 
  -1   4  -1 169.962 7.89050  80 
  -1   4  -1 136.229 10.3880  82 
   1   4   1 164.919 7.87442  80 
   1   4   1 145.508 9.20782  40 
  -1   4  -1 141.602 10.8879  52 
   1   4   1 144.828 9.83623  43 
  -2  -4  -1 148.217 7.57965  46 
   2  -4   1 135.057 7.94280  69 
   2  -4   1 137.917 7.52140  70 
   2  -4   1 145.457 7.55340  50 
   2  -4   1 141.872 7.44885  46 
  -2  -4  -1 147.036 8.07371  69 
  -2  -4  -1 159.297 7.73532  50 
  -2  -4  -1 148.053 7.59662  70 
   2   4   1 149.857 9.15785  40 
   2   4   1 147.936 7.71382  80 
   2   4   1 141.444 9.36721  43 
  -2   4  -1 151.081 7.56079  80 
   2   4   1 166.947 10.6167  82 
  -2   4  -1 150.769 9.03440  42 
  -2   4  -1 121.245 9.66557  39 
   3  -4   1 370.013 17.5085  70 
  -3  -4  -1 317.227 17.4666  70 
  -3  -4  -1 344.092 17.5045  46 
   3  -4   1 319.633 17.4042  49 
   3  -4   1 334.691 18.1365  69 
   3  -4   1 358.730 17.3681  46 
   3  -4   1 340.556 17.4119  50 
   3   4   1 347.264 19.8429  82 
   3   4   1 343.596 19.0298  43 
  -3   4  -1 380.586 18.7724  42 
   3   4   1 343.484 17.5730  80 
   3   4   1 338.349 18.8619  40 
  -3   4  -1 370.841 17.4504  80 
  -4  -4  -1 198.397 11.6488  44 
  -4  -4  -1 165.513 10.0871  70 
  -4  -4  -1 183.708 10.1879  46 
   4  -4   1 181.976 10.1076  49 
   4  -4   1 197.416 10.0702  46 
   4  -4   1 184.060 10.1435  70 
  -4   4  -1 199.418 10.1792  80 
   4   4   1 182.726 11.6086  40 
   4   4   1 196.666 9.97785  35 
   4   4   1 190.578 10.0440  35 
   4   4   1 175.906 12.0472  43 
   4   4   1 203.723 11.4953  38 
  -4   4  -1 207.685 11.5981  42 
   5  -4   1 27.3506 4.01524  48 
   5  -4   1 25.8412 5.26027  44 
   5  -4   1 18.8941 2.78585  46 
  -5  -4  -1 24.9232 5.35941  44 
  -5  -4  -1 18.6445 3.07086  46 
  -5   4  -1 20.5408 3.72109  80 
   5   4   1 27.3692 5.58433  38 
   5   4   1 16.5243 5.48834  43 
   5   4   1 22.3580 6.12091  40 
   5   4   1 25.8889 3.37668  35 
   5   4   1 22.6036 4.55260  77 
  -6  -4  -1 26.4008 4.19552  75 
  -6  -4  -1 25.3570 5.56345  44 
   6  -4   1 36.8434 5.90959  44 
   6   4   1 27.2682 6.29038  40 
  -6   4  -1 31.3603 5.04676  14 
   6   4   1 31.0160 3.71043  35 
   6   4   1 27.3920 4.53497  31 
   6   4   1 35.3488 2.43671  32 
   6   4   1 30.2067 4.03537  28 
   6   4   1 30.3109 3.78429  77 
  -6   4  -1 28.5759 4.57669   8 
  -6   4  -1 33.2158 3.26307  29 
   6   4   1 32.6980 3.94137  29 
  -6   4  -1 26.9135 5.21566  25 
  -6   4  -1 28.5212 3.44203  28 
   6   4   1 27.4650 5.84156  43 
   6   4   1 23.1481 5.76845  38 
  -6   4  -1 28.3192 3.54780  30 
   6   4   1 37.6994 4.31495  30 
  -6   4  -1 29.1669 5.88345   6 
   6   4   1 34.1432 5.11035   7 
  -7  -4  -1 132.545 7.99844  27 
  -7   4  -1 118.012 7.37482  31 
   7   4   1 132.844 8.39272   7 
  -7   4  -1 140.141 9.16829   6 
  -7   4  -1 134.389 8.10579   7 
  -7   4  -1 136.441 8.41880  14 
   7   4   1 133.343 7.67642  35 
   7   4   1 122.372 7.78273  29 
   7   4   1 123.459 7.95475  30 
  -7   4  -1 124.830 7.38005  28 
  -7   4  -1 132.846 7.44184  30 
   7   4   1 127.997 8.91912  38 
   7   4   1 132.888 7.80955  28 
  -7   4  -1 137.730 8.55995  25 
   7   4   1 119.526 8.91854  40 
  -7   4  -1 140.209 7.35737  29 
   7   4   1 135.027 8.04506  31 
   8  -4   1 2.24147 2.02533  27 
  -8  -4  -1 4.03231 1.92363  27 
   8   4   1 2.78787 2.08518  30 
   8   4   1 6.88676 2.28977  28 
   8   4   1 4.81350 2.28399  31 
  -8   4  -1 4.33961 2.03792  31 
   8   4   1 0.59146 2.54991  38 
  -8   4  -1 2.03751 2.32524  14 
  -8   4  -1 1.10347 1.94967   7 
   8   4   1 6.65764 2.20032  35 
  -8   4  -1 5.98991 1.70975  28 
   8   4   1 3.68166 1.69109  35 
  -8   4  -1 4.47291 1.70299  29 
  -8   4  -1 2.59720 2.80076   6 
   8   4   1 3.60790 2.66552   7 
  -8   4  -1 3.62024 2.90820  25 
  -8   4  -1 2.63120 1.40670  30 
  -9  -4  -1 52.4815 3.82857  27 
   9  -4   1 59.0246 5.52333  24 
   9  -4   1 73.1817 4.26622  27 
   9   4   1 51.3184 5.30953  15 
   9   4   1 50.3857 3.80355  28 
   9   4   1 57.5329 3.89832  30 
  -9   4  -1 58.7259 3.57754  28 
   9   4   1 52.4144 4.24641   7 
  -9   4  -1 61.2816 4.34111  25 
  -9   4  -1 61.3405 4.54556   6 
   9   4   1 57.3743 3.80588  31 
  -9   4  -1 59.5733 3.58460  29 
  -9   4  -1 51.6927 4.16236  14 
  -8  -5   1 3.49217 1.47034  27 
  -8   5   1 8.63032 2.27284  25 
  -8   5   1 6.65513 1.46239  11 
   8   5  -1 2.21124 1.61445  28 
  -8   5   1 4.70959 1.10268  29 
   8   5  -1 3.35168 2.16963  10 
  -8   5   1 7.07208 1.48603  26 
   8   5  -1 1.58092 1.45168  29 
  -8   5   1 5.34094 1.59608  28 
  -7  -5   1 1.62514 1.75476  27 
  -7   5   1 2.11560 1.31315  28 
  -7   5   1 3.47212 2.62323  25 
  -7   5   1 1.66395 1.11305  26 
  -7   5   1 1.55432 1.21317  11 
   7   5  -1 0.34392 2.67431  10 
  -7   5   1 0.75720 2.58382   6 
   7   5  -1 3.19097 2.03095  28 
  -7   5   1 1.06656 1.17621  29 
   7   5  -1 2.13426 1.76643  29 
   6   5  -1 56.5315 4.54525  30 
  -6   5   1 63.4940 3.96714  29 
   6   5  -1 66.5123 4.83322  28 
  -6   5   1 64.1995 3.88061  11 
   6   5  -1 66.7612 4.61646  29 
  -6   5   1 63.8897 3.89436  26 
   6   5  -1 57.2239 6.20316  23 
   6   5  -1 59.0810 6.27202  10 
  -6   5   1 56.8646 5.92491  25 
  -6   5   1 70.6494 5.12723   8 
  -6   5   1 69.5336 6.28433   6 
   6   5  -1 65.2270 6.07506  40 
  -5   5   1 93.0474 6.60190   8 
   5   5  -1 82.7024 7.63958  23 
   5   5  -1 88.9411 7.52527  10 
  -5   5   1 89.0218 7.41418   6 
   5   5  -1 80.9967 5.93329  11 
   5   5  -1 93.9101 7.92931  40 
  -5   5   1 92.8848 5.00455  11 
  -5   5   1 89.8607 5.13803  29 
   5   5  -1 93.2467 5.76342  29 
  -5   5   1 91.5842 7.11198  25 
   5   5  -1 85.3671 5.75443  80 
  -5   5   1 90.3853 5.02347  26 
   5   5  -1 86.1181 5.94264  28 
  -5   5   1 94.3116 4.97071  80 
  -4  -5   1 1.36318 2.02937  44 
   4   5  -1 1.81967 2.22013  80 
  -4   5   1 0.29499 3.04908   8 
  -4   5   1 0.09327 1.20464   9 
   4   5  -1 0.66751 1.92502  29 
  -4   5   1 -0.1530 1.23449  29 
   4   5  -1 3.42354 3.15857  40 
  -4   5   1 2.20516 3.65313  25 
  -4   5   1 1.99092 1.08099  11 
   4   5  -1 -6.3718 6.41193  82 
   4   5  -1 -3.3596 3.45571  43 
   4   5  -1 -3.1553 3.35268  10 
  -4   5   1 0.78530 0.93961  26 
  -4   5   1 -0.0900 1.22621  12 
   4   5  -1 -2.0685 3.58136  23 
   4   5  -1 -2.2765 1.61988  11 
   3  -5  -1 225.038 11.8984  46 
  -3  -5   1 229.191 12.2682  46 
  -3   5   1 230.743 11.9679   9 
   3   5  -1 255.111 15.2517  23 
   3   5  -1 225.260 13.5175  10 
   3   5  -1 242.246 12.1121  80 
   3   5  -1 221.043 12.2372  29 
   3   5  -1 267.113 16.0756  82 
  -3   5   1 226.448 11.6717  11 
  -3   5   1 233.337 13.1696   8 
   3   5  -1 246.104 13.9973  40 
   3   5  -1 249.350 13.6535  39 
   3   5  -1 248.362 14.6349  43 
   3   5  -1 225.133 12.5404   9 
   3   5  -1 241.241 12.0665  11 
  -3   5   1 229.898 11.7065  26 
  -3   5   1 239.188 11.8386  12 
  -2  -5   1 35.4314 2.87034  46 
   2   5  -1 38.8309 7.99266  82 
   2   5  -1 35.9891 2.56591  80 
   2   5  -1 25.2704 5.37512  36 
   2   5  -1 30.9861 5.05591  39 
   2   5  -1 39.2321 5.93639  43 
  -1  -5   1 489.031 24.1242  46 
  -1  -5   1 468.926 24.0913  70 
   1   5  -1 462.785 27.0321  82 
  -1   5   1 502.018 25.9651  36 
  -1   5   1 502.444 26.7397  82 
   1   5  -1 486.074 26.0451  36 
   1   5  -1 491.528 25.3604  39 
  -1   5   1 491.170 25.2250  39 
   1   5  -1 501.620 26.0604  43 
   0   5   1 42.3005 5.42426  37 
   0   5  -1 54.0101 8.40868  82 
   0   5   1 57.1145 8.10203  82 
   0   5  -1 57.8763 5.97210  39 
   0   5  -1 55.2806 6.87607  36 
   0   5   1 49.4576 5.77443  39 
   0   5   1 57.5333 6.18575  43 
   0   5   1 49.1580 6.29725  36 
   1  -5   1 10.5280 1.13518  70 
  -1  -5  -1 9.35925 1.18914  70 
  -1  -5  -1 9.39629 1.51326  46 
  -1   5  -1 7.14201 7.27585  82 
   1   5   1 8.78282 6.59854  82 
  -1   5  -1 17.0074 5.03000  39 
  -1   5  -1 15.5614 5.68436  36 
   1   5   1 13.3676 4.29459  40 
   1   5   1 17.0735 5.73619  43 
   1   5   1 5.05336 3.31538  37 
   2  -5   1 27.2220 2.32762  46 
  -2  -5  -1 32.4683 2.67231  46 
   2   5   1 39.5207 5.86702  43 
  -2   5  -1 40.3419 6.25304  36 
   2   5   1 31.2093 2.61065  80 
   2   5   1 51.5093 9.34437  82 
   2   5   1 33.9937 5.90977  40 
   2   5   1 38.0128 2.41220  80 
   3   5   1 57.9447 3.97920  80 
   3   5   1 57.5483 4.12196  29 
  -3   5  -1 61.5690 3.92878   9 
  -3   5  -1 55.0022 5.37642   8 
  -3   5  -1 59.9037 3.30747  80 
   3   5   1 60.6570 3.91973  11 
   3   5   1 66.7773 7.29231  43 
   3   5   1 62.6586 6.59503  10 
   3   5   1 59.0691 6.69627  40 
  -3   5  -1 55.9032 3.48075  26 
  -3   5  -1 60.1056 3.70920  12 
   3   5   1 58.2418 4.51131   9 
  -3   5  -1 58.7778 3.42307  11 
  -4  -5  -1 18.9215 4.42507  44 
   4   5   1 18.3976 2.66607  11 
   4   5   1 19.7341 2.99325  29 
  -4   5  -1 16.1782 2.35451  29 
  -4   5  -1 19.8887 4.99791  25 
  -4   5  -1 18.4861 1.98384  26 
   4   5   1 19.6508 4.14389  10 
  -4   5  -1 19.2714 2.57598   9 
   4   5   1 9.04689 3.68485  40 
  -4   5  -1 18.4189 1.98492  11 
   4   5   1 20.6321 2.92983  80 
  -4   5  -1 19.0321 4.37309   8 
   4   5   1 26.4853 5.87017  43 
  -4   5  -1 17.9411 2.13112  80 
   5   5   1 101.950 7.03725  80 
  -5   5  -1 121.674 6.58412  29 
   5   5   1 125.194 8.99148  40 
   5   5   1 121.152 7.04374  11 
  -5   5  -1 118.843 8.35268  25 
   5   5   1 123.235 7.06465  29 
   5   5   1 107.835 8.50916  10 
   5   5   1 116.879 9.02985  43 
  -5   5  -1 125.448 7.86938   8 
  -5   5  -1 127.282 6.63286  80 
   5   5   1 123.454 7.12306  28 
  -5   5  -1 125.220 6.51020  11 
  -5   5  -1 124.445 6.53046  26 
   6   5   1 112.603 7.98771  40 
   6   5   1 110.393 6.53900  29 
  -6   5  -1 119.253 6.20488  26 
  -6   5  -1 111.560 6.06268  29 
  -6   5  -1 106.166 7.41272  25 
  -6   5  -1 108.603 5.99262  11 
  -6   5  -1 104.449 6.12068  28 
  -6   5  -1 119.274 7.09499   8 
   6   5   1 104.616 6.55674  28 
  -6   5  -1 107.144 7.73277   6 
  -7  -5  -1 23.1764 3.35600  27 
  -7   5  -1 22.0882 3.86788  25 
  -7   5  -1 24.1103 4.05373   6 
  -7   5  -1 28.7080 2.25154  11 
   7   5   1 26.8376 3.09354  29 
  -7   5  -1 23.9053 2.24556  29 
  -7   5  -1 21.3199 2.28587  28 
   7   5   1 20.5697 3.00118  28 
   6   6  -1 64.1578 4.95109  10 
  -6   6   1 68.1886 4.05148   9 
   6   6  -1 69.4158 3.82822  29 
  -6   6   1 64.3329 4.57931  25 
   6   6  -1 71.6205 3.70931  11 
  -5   6   1 7.60701 2.75081  25 
   5   6  -1 7.64271 1.87418  29 
   5   6  -1 13.4898 1.57999  11 
   5   6  -1 7.93356 2.81841  23 
   5   6  -1 7.23469 2.88409  10 
  -5   6   1 15.2561 2.13551   9 
   4   6  -1 3.67643 3.13277  23 
   4   6  -1 3.34369 1.26031  29 
  -4   6   1 9.74899 1.86040   9 
   4   6  -1 4.21828 1.17984  11 
   4   6  -1 3.10669 1.60448   9 
   4   6  -1 4.38264 1.47111  12 
   4   6  -1 0.64887 3.01077  10 
   3   6  -1 60.7293 6.40147  10 
  -3   6   1 45.4532 3.48018   9 
   3   6  -1 68.9716 6.64762  23 
   3   6  -1 57.2091 3.48384  12 
   3   6  -1 56.2167 3.93616   9 
  -3   6   1 58.1061 3.27327   9 
   2   6  -1 61.8191 3.97822   9 
   2   6  -1 67.5844 6.51988  10 
   2   6  -1 61.9726 3.47072  12 
   2   6  -1 50.5728 5.77376  39 
   2   6  -1 57.2907 3.43545  12 
   2   6  -1 69.8327 9.40339  82 
   2   6  -1 63.8772 6.55465  23 
   1   6  -1 163.050 10.1990  10 
   1   6  -1 168.843 10.3467  23 
   1   6  -1 138.677 10.2720  36 
   1   6  -1 163.174 12.5697  82 
   1   6  -1 162.228 9.80723  39 
   1   6  -1 149.856 8.08809   9 
   0   6  -1 160.233 8.25641   9 
   0   6  -1 149.261 10.4428  36 
   0   6  -1 177.922 12.7512  82 
   0   6  -1 161.085 8.13449   9 
  -1   6  -1 14.9630 1.87570   9 
   1   6   1 18.0276 1.82892   9 
  -1   6  -1 16.8983 1.55219   9 
   1   6   1 18.6091 1.77044   9 
  -2   6  -1 108.900 7.26784   8 
  -2   6  -1 103.159 5.57735   9 
   2   6   1 103.294 8.45918  43 
   2   6   1 111.491 7.91005  10 
   2   6   1 107.252 5.40230  12 
   2   6   1 106.066 5.40433  12 
   2   6   1 102.008 5.84873   9 
   3   6   1 15.9291 4.82952  10 
  -3   6  -1 23.9414 2.07636   9 
  -3   6  -1 28.5353 4.74915   8 
   3   6   1 18.5104 2.00642  12 
   3   6   1 23.4544 2.65067   9 
   3   6   1 23.7495 2.13133  12 
   4   6   1 6.95368 1.27461  11 
   4   6   1 7.55847 2.41010   9 
  -4   6  -1 6.10650 1.19201  12 
  -4   6  -1 9.08396 1.74257   9 
   4   6   1 2.42982 2.77207  10 
  -4   6  -1 3.58638 2.75179   8 
   4   6   1 7.21813 1.83426  29 
   4   6   1 7.25342 1.90610  12 
  -4   6  -1 4.68983 1.19419  12 
  -5   6  -1 32.1411 1.92165  12 
   5   6   1 22.6139 3.97583  10 
   5   6   1 29.4051 2.50479  12 
   5   6   1 24.6729 2.22375  29 
  -5   6  -1 34.2195 3.77149   8 
  -5   6  -1 28.7928 3.77898  25 
   5   6   1 27.8487 1.97428  11 
  -5   6  -1 29.9268 2.47441   9 
  -5   6  -1 25.5922 1.93270  12 
  11   0  -2 53.5967 5.79425  19 
  11   0  -2 48.1137 5.02016  20 
 -11   0   2 52.4865 4.42712  13 
 -11   0   2 50.2005 4.31201   5 
  11   0  -2 45.8159 4.26972  10 
  11   0  -2 44.9164 4.14921  18 
 -11   0   2 52.6946 4.77985   4 
 -11   0   2 43.8965 4.74631   2 
 -10   0   2 112.837 7.84424   5 
 -10   0   2 109.040 7.71492  13 
  10   0  -2 108.628 8.29642  41 
 -10   0   2 108.277 7.51794   4 
  10   0  -2 114.460 7.50381  19 
 -10   0   2 117.220 7.94295   2 
  10   0  -2 111.151 7.51755  10 
 -10   0   2 107.756 8.80756  83 
  10   0  -2 108.215 7.45681  18 
  10   0  -2 103.901 8.02936  20 
  10   0  -2 103.736 7.60101  81 
  -9   0   2 95.6120 7.35876  20 
  -9   0   2 74.6241 6.01402  81 
  -9   0   2 80.4154 7.08278   2 
  -9   0   2 90.7305 7.29935  13 
   9   0  -2 70.2940 11.1679  76 
  -9   0   2 79.6567 6.22526  19 
  -9   0   2 83.1939 6.49185  18 
  -9   0   2 99.6690 8.74398  83 
   9   0  -2 103.862 7.83290  78 
   9   0  -2 86.8532 7.52861  41 
   9   0  -2 91.3075 7.01620  18 
  -9   0   2 90.4086 7.24195   5 
   9   0  -2 90.5547 7.14710  19 
   9   0  -2 92.1190 8.14274  20 
  -9   0   2 88.1790 6.98371   4 
   8   0  -2 -1.6347 2.55215  72 
  -8   0   2 -0.0752 2.32820  76 
   8   0  -2 0.41855 3.83777  41 
   8   0  -2 1.59938 4.13325  78 
  -8   0   2 2.73162 3.69439  47 
   8   0  -2 1.60624 2.69505  45 
   8   0  -2 1.55448 3.55175  33 
  -8   0   2 -1.3379 2.71899  81 
  -8   0   2 -3.9044 4.15826  83 
  -8   0   2 -9.1059 2.87195  74 
  -7   0   2 290.536 16.2938  47 
  -7   0   2 310.861 16.9333  81 
   7   0  -2 333.216 16.7867  78 
  -7   0   2 300.560 19.3169  76 
   7   0  -2 303.734 16.4808  75 
   7   0  -2 295.525 16.3859  45 
  -7   0   2 291.790 16.5942  74 
  -7   0   2 321.292 17.3509  83 
   7   0  -2 289.674 16.3559  41 
   7   0  -2 308.255 17.3180  79 
   7   0  -2 316.961 16.2676  71 
   7   0  -2 322.024 25.7633  72 
   6   0  -2 36.8229 4.11278  41 
   6   0  -2 33.5129 3.55745  71 
   6   0  -2 34.8745 4.31066  78 
   6   0  -2 43.6895 4.06081  45 
  -6   0   2 31.2263 3.84945  74 
  -6   0   2 40.9926 3.62274  47 
   6   0  -2 26.2019 3.78502  75 
   6   0  -2 38.0217 6.60201  67 
  -6   0   2 33.4732 5.91983  67 
  -6   0   2 39.1574 8.42635  76 
  -6   0   2 37.0559 4.77494  78 
  -5   0   2 309.887 17.0031  71 
   5   0  -2 366.849 20.2434  67 
  -5   0   2 356.505 17.2855  47 
  -5   0   2 335.128 19.9695  67 
  -5   0   2 323.710 17.0638  45 
   5   0  -2 328.483 24.1653  72 
   5   0  -2 343.663 17.2287  45 
  -5   0   2 310.680 17.3351  74 
   5   0  -2 347.072 17.6969  75 
   5   0  -2 330.519 18.5503  55 
   5   0  -2 320.867 17.0167  71 
   5   0  -2 345.573 18.0688  48 
   4   0  -2 296.694 15.5762  71 
  -4   0   2 322.972 17.9575  67 
  -4   0   2 300.599 15.7392  53 
  -4   0   2 305.328 15.7614  63 
   4   0  -2 299.655 16.7600  55 
  -4   0   2 320.939 18.3854  58 
   4   0  -2 316.415 16.9112  65 
   4   0  -2 283.141 18.6055  58 
  -4   0   2 299.082 19.1016  62 
  -4   0   2 301.069 15.7054  47 
   4   0  -2 286.285 16.5808  57 
   4   0  -2 347.619 18.0770  67 
   4   0  -2 330.441 15.7833  45 
   3   0  -2 47.6187 3.32354  53 
   3   0  -2 49.2241 4.31963  55 
  -3   0   2 45.9539 3.39500  51 
   3   0  -2 47.1633 8.27373  59 
   3   0  -2 48.1705 5.06762  67 
   3   0  -2 49.2577 5.76922  58 
  -3   0   2 48.6533 3.57158  57 
  -3   0   2 54.6501 5.18851  67 
  -3   0   2 48.5445 10.6540  56 
  -3   0   2 55.5130 5.75404  62 
  -3   0   2 42.7276 6.86120  59 
  -3   0   2 45.9183 3.95585  65 
  -3   0   2 45.1395 3.05588  53 
   3   0  -2 49.7572 4.38180  65 
   3   0  -2 46.8715 3.95772  57 
   3   0  -2 36.3716 6.64556  59 
  -3   0   2 50.4490 5.43579  58 
  -3   0   2 43.4140 3.08801  63 
  -2   0   2 7952.10 387.668  62 
  -2   0   2 7989.20 386.295  61 
   2   0  -2 8347.89 388.954  66 
  -2   0   2 7717.08 385.995  51 
   2   0  -2 8455.64 386.838  64 
  -2   0   2 8289.03 386.432  61 
   2   0  -2 7828.16 386.378  65 
   2   0  -2 7994.58 388.962  59 
   2   0  -2 8243.62 389.674  59 
   2   0  -2 8053.84 386.402  61 
  -2   0   2 8105.62 385.958  63 
   2   0  -2 8024.63 387.376  58 
   2   0  -2 7665.03 386.674  64 
   2   0  -2 6845.35 393.280  56 
  -2   0   2 7483.23 388.893  59 
   2   0  -2 8245.01 386.399  57 
   2   0  -2 7571.12 386.376  60 
  -2   0   2 8624.28 386.107  53 
  -2   0   2 7646.73 389.287  59 
   2   0  -2 6785.09 386.281  61 
   2   0  -2 6981.11 385.911  53 
  -2   0   2 8441.80 386.461  65 
  -2   0   2 8185.61 389.054  66 
   2   0  -2 7665.10 386.305  55 
  -2   0   2 7948.96 386.972  67 
  -2   0   2 8511.10 387.225  58 
  -2   0   2 8822.91 386.311  57 
   2   0  -2 8084.73 386.853  67 
  -1   0   2 1300.76 68.8254  66 
   1   0  -2 1289.14 67.0679  61 
   1   0  -2 1378.96 67.8133  58 
   1   0  -2 1411.56 67.3311  64 
   1   0  -2 1486.16 67.1396  61 
  -1   0   2 1197.83 67.0259  61 
   1   0  -2 1328.29 67.0273  57 
   1   0  -2 1345.45 67.0979  60 
   1   0  -2 1370.60 68.8386  66 
  -1   0   2 1297.72 67.1439  68 
   1   0  -2 1406.25 67.3598  64 
   1   0  -2 1403.83 69.2635  59 
  -1   0   2 1443.67 67.0949  61 
  -1   0   2 1368.19 69.1936  59 
  -1   0   2 1460.12 67.1588  65 
   1   0  -2 1346.92 68.9004  59 
   1   0  -2 1423.39 66.7877  63 
   1   0  -2 1320.37 67.0257  55 
   1   0  -2 1374.54 66.8141  53 
  -1   0   2 1465.21 69.1898  59 
  -1   0   2 1369.27 67.5506  67 
  -1   0   2 1274.27 66.7776  63 
  -1   0   2 1380.26 66.7772  53 
  -1   0   2 1366.23 67.6248  58 
   1   0  -2 1383.32 67.0848  65 
  -1   0   2 1411.92 66.9795  57 
   1   0  -2 1394.38 67.4192  67 
  -1   0   2 1381.29 67.0939  60 
   0   0  -2 166.063 8.09977  55 
   0   0   2 143.933 7.96422  57 
   0   0   2 144.840 9.86132  59 
   0   0  -2 160.045 8.03332  57 
   0   0   2 158.519 8.13835  61 
   0   0   2 161.657 10.1627  59 
   0   0  -2 165.206 8.73597  58 
   0   0   2 156.869 8.02000  55 
   0   0  -2 148.472 8.74711  58 
   0   0   2 151.632 8.57708  67 
   0   0  -2 157.282 8.07758  61 
   0   0   2 152.195 8.10824  65 
   0   0  -2 154.862 10.1723  59 
   0   0  -2 153.348 8.01264  57 
   0   0  -2 150.982 8.13670  60 
   0   0   2 161.527 8.27495  68 
   0   0  -2 145.536 9.87207  59 
   0   0  -2 158.001 8.56900  67 
   0   0   2 145.614 8.00575  61 
   0   0   2 163.326 8.71457  58 
   0   0  -2 162.815 8.36507  64 
   0   0  -2 152.639 7.74615  63 
   0   0  -2 141.454 8.04064  61 
   0   0  -2 152.212 9.92296  66 
   0   0   2 157.087 8.14998  60 
   0   0  -2 167.677 7.88524  53 
   0   0  -2 147.969 8.30712  64 
   0   0   2 149.717 7.73005  53 
   0   0  -2 130.909 8.02799  65 
   0   0   2 146.762 9.26786  58 
   1   0   2 3041.03 173.298  53 
   1   0   2 3495.99 173.779  60 
   1   0   2 3334.24 173.999  64 
  -1   0  -2 3579.99 173.649  57 
   1   0   2 3517.37 176.393  59 
   1   0   2 3511.90 173.610  57 
   1   0   2 3827.72 173.841  65 
   1   0   2 3448.87 174.225  67 
   1   0   2 3604.40 176.158  59 
  -1   0  -2 3555.45 173.370  63 
  -1   0  -2 3440.33 176.079  66 
  -1   0  -2 3039.84 173.316  53 
  -1   0  -2 3541.90 174.415  58 
  -1   0  -2 3857.65 173.728  55 
  -1   0  -2 3573.15 173.769  61 
   1   0   2 3193.50 173.708  61 
  -1   0  -2 3591.28 175.988  59 
  -1   0  -2 3418.66 173.975  64 
  -1   0  -2 3833.38 173.735  61 
   1   0   2 3560.83 173.703  61 
  -1   0  -2 3728.70 173.773  60 
  -1   0  -2 3752.88 173.765  65 
  -1   0  -2 3866.97 176.587  59 
   1   0   2 3810.92 174.559  58 
   1   0   2 3666.22 173.674  55 
  -1   0  -2 3938.46 174.350  67 
   2   0   2 6592.25 370.674  60 
   2   0   2 7608.33 374.426  59 
   2   0   2 7387.17 370.693  61 
   2   0   2 7683.67 374.170  59 
   2   0   2 7038.04 370.533  55 
   2   0   2 7039.31 371.317  67 
  -2   0  -2 7577.52 370.210  53 
  -2   0  -2 7852.57 371.541  67 
  -2   0  -2 7902.49 380.607  56 
  -2   0  -2 7516.34 370.705  61 
   2   0   2 7766.53 370.174  53 
  -2   0  -2 7991.36 370.819  65 
  -2   0  -2 8239.93 371.862  58 
   2   0   2 7229.29 370.768  61 
  -2   0  -2 7542.84 370.223  63 
  -2   0  -2 7965.53 370.857  61 
  -2   0  -2 7927.49 374.826  59 
   2   0   2 7444.41 370.835  65 
  -2   0  -2 8506.15 374.285  59 
  -2   0  -2 7421.78 374.658  66 
  -2   0  -2 8160.90 370.666  57 
   2   0   2 7503.37 371.787  58 
   2   0   2 7783.73 370.632  57 
   2   0   2 7209.51 370.237  51 
   3   0   2 853.474 42.1474  57 
  -3   0  -2 846.435 42.0554  57 
   3   0   2 860.458 42.1949  55 
  -3   0  -2 864.811 43.7326  58 
   3   0   2 807.719 41.3742  49 
  -3   0  -2 811.089 41.5250  53 
   3   0   2 835.672 44.0252  58 
  -3   0  -2 805.124 42.3292  65 
  -3   0  -2 849.339 43.4250  67 
  -3   0  -2 867.251 41.6118  63 
   3   0   2 877.237 42.5684  65 
   3   0   2 832.764 43.3023  67 
  -4   0  -2 19.6792 2.65925  71 
   4   0   2 20.2404 4.69456  57 
  -4   0  -2 25.5463 2.61785  45 
  -4   0  -2 19.0354 5.06397  67 
   4   0   2 21.2190 2.75581  71 
   4   0   2 23.7259 4.29988  55 
   4   0   2 22.4108 2.88894  45 
   4   0   2 27.2129 5.49822  67 
  -4   0  -2 21.0669 2.66403  47 
  -5   0  -2 528.809 26.9923  75 
  -5   0  -2 487.726 26.7302  71 
   5   0   2 580.182 34.9003  72 
   5   0   2 514.316 27.1387  78 
   5   0   2 495.699 26.9283  75 
  -5   0  -2 553.257 26.7072  45 
   5   0   2 557.124 26.8813  45 
   5   0   2 510.427 26.7743  71 
  -5   0  -2 559.956 26.7779  47 
  -6   0  -2 318.743 20.7186  76 
   6   0   2 305.395 17.3211  41 
   6   0   2 372.718 17.6019  45 
   6   0   2 343.502 26.4671  72 
   6   0   2 321.464 17.9326  78 
   6   0   2 313.629 17.2562  71 
   6   0   2 311.940 18.3166  79 
  -6   0  -2 392.689 21.7017  81 
  -6   0  -2 326.951 18.2569  83 
   6   0   2 313.400 17.4989  75 
  -7   0  -2 0.46779 2.62836  81 
  -7   0  -2 -5.7351 4.01250  83 
   7   0   2 -3.5952 3.85826  78 
   7   0   2 -2.7059 2.60707  72 
   7   0   2 -2.8723 2.80438  45 
   7   0   2 3.93728 3.52604  41 
  -7   0  -2 -0.2048 2.56872  76 
  -8   0  -2 117.092 9.49194  83 
   8   0   2 133.368 9.60927  41 
  -8   0  -2 122.293 7.88485  19 
   8   0   2 111.921 8.27914  18 
  -8   0  -2 91.2481 7.72274  81 
  -8   0  -2 86.5083 8.15296   2 
  -8   0  -2 124.573 7.88837  18 
  -8   0  -2 108.761 9.15118  76 
   8   0   2 97.5490 12.4090  76 
   8   0   2 114.087 8.89312  78 
  -8   0  -2 142.119 8.32226   4 
  -8   0  -2 105.826 8.68693  20 
   8   0   2 121.055 9.04662  20 
   8   0   2 139.743 8.60702  19 
  -8   0  -2 128.096 8.75643   5 
   8   0   2 117.742 9.38591  81 
   9   0   2 5.19875 3.05414  18 
  -9   0  -2 2.80511 4.49066  83 
  -9   0  -2 2.17462 3.04344   2 
  -9   0  -2 0.52234 2.51389  20 
   9   0   2 2.43492 2.95158  19 
   9   0   2 3.55567 4.01238  78 
  -9   0  -2 0.50684 2.44588  18 
  -9   0  -2 1.96647 2.56222   5 
  -9   0  -2 -4.0350 2.96648  13 
   9   0   2 2.98421 3.30201  20 
   9   0   2 -0.9112 2.54596  81 
  -9   0  -2 -4.7196 2.84634   4 
  -9   0  -2 -0.8646 2.35106  19 
  10   0   2 62.1422 4.99619  19 
 -10   0  -2 66.4977 5.41876  13 
 -10   0  -2 63.4452 5.19027   4 
  10   0   2 64.1939 5.08775  18 
 -10   0  -2 69.8675 5.56407   2 
 -10   0  -2 67.3949 5.41003   5 
  10   0   2 54.9468 5.73751  20 
  11  -1  -2 85.3330 5.57638  10 
 -11  -1   2 81.2812 5.38620  18 
  11  -1  -2 89.3859 5.88331  19 
 -11  -1   2 80.0562 5.93945  20 
  11  -1  -2 96.0038 5.97375  18 
  11  -1  -2 95.3355 6.29547  20 
 -11   1   2 83.0873 5.96683   5 
 -11   1   2 89.5743 5.24089  16 
  11   1  -2 96.0951 6.34415   4 
 -11   1   2 94.5510 5.77765   3 
 -11   1   2 96.2171 5.84939   4 
 -11   1   2 86.6149 5.36503  13 
  11   1  -2 91.5261 5.86061  10 
 -11   1   2 85.2046 5.40782   1 
 -11   1   2 97.2947 5.99075   2 
  11   1  -2 95.8113 6.21347  13 
  10  -1  -2 19.4350 4.58457  19 
 -10  -1   2 15.6510 4.83776  20 
  10  -1  -2 15.5503 4.98883  33 
 -10  -1   2 11.2657 2.60536  19 
  10  -1  -2 16.2166 5.48136  20 
 -10  -1   2 25.5332 4.05857  18 
  10  -1  -2 11.7991 3.34935  18 
 -10   1   2 19.1914 5.23601  83 
  10   1  -2 19.9016 5.29018   4 
 -10   1   2 18.1005 4.00132  13 
 -10   1   2 14.2751 4.29520  16 
  10   1  -2 22.3477 5.28088  13 
 -10   1   2 15.8995 3.67005   3 
 -10   1   2 8.43576 2.81641   5 
  10   1  -2 14.5313 4.49872  10 
 -10   1   2 15.0925 4.60767   2 
 -10   1   2 9.19526 2.78265   4 
 -10   1   2 11.9242 3.23397   7 
   9  -1  -2 190.958 11.4392  18 
  -9  -1   2 201.723 14.8943  76 
   9  -1  -2 194.097 11.4724  19 
   9  -1  -2 209.000 11.9023  41 
  -9  -1   2 192.536 11.0856  19 
   9  -1  -2 193.927 12.0585  20 
  -9  -1   2 200.847 11.7081  20 
   9  -1  -2 173.326 11.5157  75 
   9  -1  -2 195.119 12.6458  24 
   9  -1  -2 216.827 12.9197  79 
   9  -1  -2 176.026 11.1142  27 
  -9  -1   2 201.289 11.3418  18 
  -9  -1   2 183.418 12.1256  81 
   9  -1  -2 204.311 11.7865  33 
   9   1  -2 203.917 11.5444  10 
  -9   1   2 198.345 12.5905  83 
   9   1  -2 199.850 11.7231  15 
   9   1  -2 180.728 11.7673  13 
  -9   1   2 199.794 11.6558   5 
   9   1  -2 195.545 11.6808   4 
   9   1  -2 173.673 10.7475  81 
   9   1  -2 201.742 11.1424  18 
   9   1  -2 184.970 11.6850  41 
  -9   1   2 191.857 11.1801  14 
   9   1  -2 181.523 11.6553  78 
  -9   1   2 187.837 11.2952   2 
  -9   1   2 195.619 11.1462  13 
   9   1  -2 199.464 11.3930  19 
  -9   1   2 199.743 11.2103   4 
   9   1  -2 191.006 11.8600  20 
  -9   1   2 193.726 11.6491   7 
   8  -1  -2 23.0152 4.33155  45 
  -8  -1   2 28.5925 4.18655  47 
   8  -1  -2 31.0330 5.05361  41 
  -8  -1   2 25.8383 10.4545  76 
   8  -1  -2 27.3113 5.01789  75 
  -8  -1   2 20.9212 4.93231  75 
   8  -1  -2 27.7352 6.27565  79 
  -8  -1   2 31.7315 4.68601  45 
   8  -1  -2 27.2017 4.08434  71 
   8  -1  -2 32.0895 5.93590  33 
   8   1  -2 30.2543 5.57586  81 
   8   1  -2 38.2305 5.20207  41 
   8   1  -2 30.2486 5.44215  78 
  -8   1   2 26.2670 6.42556  83 
   8   1  -2 36.6831 6.75935  73 
   7  -1  -2 60.1848 6.33462  79 
  -7  -1   2 73.8445 5.37771  47 
   7  -1  -2 65.2588 5.15219  71 
   7  -1  -2 68.3832 5.80841  41 
  -7  -1   2 64.5329 5.77061  75 
  -7  -1   2 70.7478 5.39988  71 
   7  -1  -2 72.3693 5.97752  75 
   7  -1  -2 74.1488 5.77327  45 
   7  -1  -2 59.4756 6.36356  48 
  -7  -1   2 66.2689 5.58288  45 
  -7  -1   2 67.9611 6.34634  78 
  -7   1   2 68.6450 6.65917  83 
   7   1  -2 60.6468 6.04999  78 
  -7   1   2 60.2789 5.06371  47 
   7   1  -2 69.5820 7.88523  73 
   7   1  -2 69.9195 5.94318  41 
  -7   1   2 64.1628 4.58307  81 
  -7   1   2 69.8422 5.98422  74 
   7   1  -2 70.6561 9.31187  76 
   7   1  -2 72.3148 6.47321  81 
  -6  -1   2 724.630 38.4157  78 
  -6  -1   2 735.630 38.0236  71 
   6  -1  -2 840.324 38.0647  71 
   6  -1  -2 792.112 39.0354  44 
   6  -1  -2 791.991 38.1659  45 
  -6  -1   2 781.234 38.2063  47 
   6  -1  -2 742.089 38.0840  41 
  -6  -1   2 789.302 38.0966  45 
   6  -1  -2 686.842 38.5414  79 
   6  -1  -2 768.849 38.6519  48 
  -6  -1   2 735.852 38.1842  75 
   6  -1  -2 773.241 38.1880  75 
  -6   1   2 768.263 38.2763  47 
  -6   1   2 757.334 38.3120  51 
  -6   1   2 728.388 38.5393  77 
   6   1  -2 723.402 39.0966  73 
   6   1  -2 777.297 38.4003  81 
   6   1  -2 755.067 40.0876  76 
   6   1  -2 770.190 43.4569  72 
  -6   1   2 820.284 38.6132  74 
   6   1  -2 733.177 38.2650  53 
  -6   1   2 756.201 37.8179  81 
   6   1  -2 757.344 38.1797  41 
   6   1  -2 806.984 38.3150  78 
   5  -1  -2 174.715 11.1657  65 
   5  -1  -2 189.429 12.5654  67 
   5  -1  -2 167.304 9.66114  45 
  -5  -1   2 190.710 9.71501  45 
   5  -1  -2 180.505 10.7233  44 
   5  -1  -2 176.983 9.76982  75 
   5  -1  -2 185.040 9.65582  71 
  -5  -1   2 171.517 9.92303  75 
  -5  -1   2 169.729 11.0212  65 
   5  -1  -2 171.670 10.2594  48 
  -5  -1   2 181.657 12.7213  67 
  -5  -1   2 187.973 9.77116  71 
  -5  -1   2 189.711 9.86617  47 
   5   1  -2 170.936 9.86339  53 
   5   1  -2 196.188 11.3645  51 
  -5   1   2 176.018 9.85778  51 
   5   1  -2 159.544 10.7997  55 
   5   1  -2 182.407 12.4049  67 
  -5   1   2 176.862 10.0871  74 
   5   1  -2 177.862 10.7104  73 
  -5   1   2 175.517 9.78384  47 
  -5   1   2 173.066 9.46087  53 
   5   1  -2 186.677 14.9691  72 
  -4  -1   2 462.181 23.2617  47 
   4  -1  -2 432.327 23.4384  48 
   4  -1  -2 428.962 23.1779  45 
   4  -1  -2 498.839 24.3979  65 
  -4  -1   2 454.334 26.9127  62 
  -4  -1   2 499.182 23.4301  63 
  -4  -1   2 456.634 23.1417  71 
  -4  -1   2 466.469 23.1617  45 
  -4  -1   2 452.644 25.5964  67 
   4  -1  -2 465.824 23.0387  46 
   4  -1  -2 469.829 25.2366  67 
   4  -1  -2 435.290 23.0490  70 
   4  -1  -2 422.159 23.0325  71 
  -4  -1   2 493.520 24.5086  65 
   4   1  -2 473.918 23.5128  51 
   4   1  -2 485.208 23.3582  53 
   4   1  -2 490.255 24.2095  55 
  -4   1   2 452.723 23.2830  47 
   4   1  -2 476.919 25.3398  67 
   4   1  -2 443.657 31.8082  72 
  -4   1   2 468.682 23.3022  51 
  -4   1   2 488.968 23.0928  53 
  -3  -1   2 1040.59 51.1925  65 
  -3  -1   2 1091.72 50.7946  69 
  -3  -1   2 1073.63 50.4332  63 
  -3  -1   2 977.458 52.3323  58 
  -3  -1   2 1033.89 51.0137  61 
  -3  -1   2 1015.42 53.0457  62 
   3  -1  -2 923.512 50.8206  57 
   3  -1  -2 1033.16 51.4827  64 
   3  -1  -2 985.285 52.3079  58 
   3  -1  -2 987.065 51.3801  55 
  -3  -1   2 979.215 52.0081  67 
   3  -1  -2 1091.38 51.0980  65 
   3  -1  -2 1054.03 51.6308  67 
  -3  -1   2 1030.55 50.9300  57 
   3  -1  -2 1065.48 51.0801  61 
   3  -1  -2 954.954 50.5343  69 
  -3   1   2 1065.30 50.3457  51 
   3   1  -2 1033.24 50.4922  51 
  -3   1   2 1057.40 54.6623  66 
   3   1  -2 1017.55 55.0124  66 
  -3   1   2 1054.92 51.5283  67 
   3   1  -2 1102.99 50.9620  55 
   3   1  -2 963.931 51.5707  67 
   3   1  -2 1013.31 56.1487  59 
   3   1  -2 1029.42 50.3479  53 
  -3   1   2 1042.38 50.1588  53 
   3   1  -2 997.526 52.3895  58 
  -2  -1   2 2694.28 128.124  62 
  -2  -1   2 2625.96 126.247  63 
  -2  -1   2 2627.90 126.991  64 
   2  -1  -2 2469.79 126.484  55 
   2  -1  -2 2614.76 129.294  59 
  -2  -1   2 2623.58 126.422  69 
  -2  -1   2 2673.13 127.238  64 
   2  -1  -2 2494.34 128.615  59 
  -2  -1   2 2630.51 127.599  58 
   2  -1  -2 2483.27 126.143  63 
  -2  -1   2 2608.51 129.591  59 
   2  -1  -2 2554.53 127.448  58 
   2  -1  -2 2537.30 126.353  57 
  -2  -1   2 2642.85 129.973  59 
  -2  -1   2 2619.60 127.435  67 
   2  -1  -2 2663.68 126.570  65 
   2  -1  -2 2744.71 126.463  57 
   2  -1  -2 2632.89 126.969  64 
   2  -1  -2 2820.81 126.607  61 
  -2  -1   2 2697.35 126.590  57 
   2  -1  -2 2599.55 126.547  61 
   2  -1  -2 2505.60 126.979  67 
  -2  -1   2 2526.94 126.748  65 
   2  -1  -2 2517.64 126.257  69 
  -2  -1   2 2549.82 126.752  61 
  -2  -1   2 2535.00 126.632  61 
   2  -1  -2 2559.32 126.858  64 
  -2   1   2 2588.08 129.025  66 
  -2   1   2 2470.37 126.112  63 
   2   1  -2 2580.67 126.941  65 
  -2   1   2 2683.47 126.671  68 
   2   1  -2 2656.83 126.486  55 
   2   1  -2 2644.54 127.620  58 
  -2   1   2 2545.59 126.311  54 
   2   1  -2 2678.24 127.110  67 
   2   1  -2 2523.79 129.387  66 
   2   1  -2 2539.97 130.204  59 
  -2   1   2 2454.46 126.097  51 
   2   1  -2 2420.49 134.757  56 
  -2   1   2 2623.74 129.017  66 
   2   1  -2 2687.54 126.156  53 
  -2   1   2 2796.99 127.915  62 
   2   1  -2 2470.44 126.631  61 
   2   1  -2 2494.66 126.665  60 
  -2   1   2 2468.49 126.718  58 
  -2   1   2 2676.37 129.273  59 
  -2   1   2 2610.07 125.942  53 
  -2   1   2 2603.23 126.176  51 
  -2   1   2 2734.00 126.867  67 
   2   1  -2 2422.85 126.225  51 
  -1  -1   2 2054.92 105.890  64 
   1  -1  -2 2114.92 106.030  58 
  -1  -1   2 2225.17 105.749  60 
   1  -1  -2 2223.63 105.779  64 
   1  -1  -2 2217.35 106.159  58 
  -1  -1   2 2184.53 105.393  63 
   1  -1  -2 2142.12 105.499  55 
  -1  -1   2 2269.26 105.565  57 
   1  -1  -2 2218.40 107.118  59 
   1  -1  -2 2203.42 105.329  63 
  -1  -1   2 2205.33 107.961  59 
  -1  -1   2 2093.31 105.560  57 
  -1  -1   2 2146.44 105.767  65 
  -1  -1   2 2198.60 105.383  63 
  -1  -1   2 2279.38 106.041  64 
  -1  -1   2 2099.93 105.699  61 
   1  -1  -2 2161.10 105.787  64 
   1  -1  -2 2134.96 105.869  67 
  -1  -1   2 2081.00 105.696  61 
  -1  -1   2 2259.22 108.214  59 
   1  -1  -2 2142.15 105.212  57 
  -1  -1   2 2109.83 106.516  58 
   1  -1  -2 2221.34 105.577  61 
  -1  -1   2 2085.31 106.281  58 
   1  -1  -2 2064.23 105.524  61 
   1  -1  -2 2211.66 105.346  69 
  -1  -1   2 2045.44 106.186  67 
   1  -1  -2 2034.95 105.522  65 
   1  -1  -2 2097.01 107.126  59 
   1  -1  -2 2227.87 105.304  63 
   1   1  -2 2300.93 105.737  60 
  -1   1   2 2121.60 107.196  66 
   1   1  -2 2073.35 105.325  63 
   1   1  -2 2189.73 105.914  67 
   1   1  -2 2268.89 108.359  59 
   1   1  -2 2052.98 105.350  51 
  -1   1   2 2235.59 105.392  58 
  -1   1   2 2194.63 107.429  59 
  -1   1   2 2244.77 105.637  68 
   1   1  -2 2030.15 111.110  56 
  -1   1   2 2180.44 107.284  66 
  -1   1   2 2297.45 107.659  59 
  -1   1   2 2118.07 105.215  51 
  -1   1   2 2248.07 105.229  51 
   1   1  -2 2167.43 105.267  53 
   1   1  -2 2076.10 106.155  58 
   1   1  -2 2149.14 107.933  59 
   1   1  -2 2099.87 107.951  66 
  -1   1   2 2288.37 105.614  67 
   1   1  -2 2140.49 105.255  53 
   1   1  -2 2150.97 107.757  66 
   1   1  -2 2175.16 105.481  55 
  -1   1   2 2210.16 105.601  54 
   1   1  -2 2380.57 105.670  61 
  -1   1   2 1926.87 105.349  63 
   0  -1   2 339.503 17.7200  67 
   0  -1   2 326.865 16.9403  57 
   0  -1  -2 343.200 17.5170  60 
   0  -1   2 336.046 17.2269  60 
   0  -1  -2 340.279 16.6692  57 
   0  -1  -2 327.791 17.4094  67 
   0  -1  -2 351.425 17.0238  65 
   0  -1   2 346.897 16.9440  57 
   0  -1  -2 325.093 16.9866  55 
   0  -1  -2 327.774 17.5820  58 
   0  -1   2 334.171 17.7639  58 
   0  -1   2 313.380 17.8624  58 
   0  -1  -2 320.638 17.2064  64 
   0  -1  -2 354.279 16.7506  63 
   0  -1  -2 360.457 17.7679  58 
   0  -1   2 349.416 16.8121  63 
   0  -1  -2 361.815 17.3056  64 
   0  -1  -2 371.162 17.0094  61 
   0  -1   2 330.388 17.3891  64 
   0  -1   2 318.753 19.2321  59 
   0  -1   2 345.625 19.4802  59 
   0  -1  -2 340.511 18.5875  59 
   0  -1   2 341.897 17.2293  65 
   0  -1   2 348.078 17.1576  61 
   0  -1   2 331.421 17.1827  61 
   0  -1  -2 287.937 16.9642  61 
   0  -1  -2 350.503 18.8226  59 
   0  -1   2 349.221 17.4652  64 
   0   1  -2 333.134 19.4718  59 
   0   1   2 348.833 18.9629  59 
   0   1   2 345.382 18.8889  66 
   0   1   2 334.325 17.0937  67 
   0   1  -2 346.530 16.6681  53 
   0   1  -2 329.711 17.3801  52 
   0   1   2 349.233 16.9094  58 
   0   1  -2 337.204 16.7640  63 
   0   1  -2 359.834 16.6828  53 
   0   1  -2 332.331 19.2708  66 
   0   1  -2 336.747 19.5801  59 
   0   1   2 344.831 17.1508  54 
   0   1  -2 352.922 17.1745  60 
   0   1   2 349.271 17.0085  60 
   0   1  -2 314.010 16.7761  51 
   0   1   2 330.580 18.9649  59 
   0   1  -2 362.012 16.8939  55 
   0   1  -2 329.339 16.9805  61 
   0   1   2 356.322 16.6821  51 
   0   1  -2 353.235 17.4630  58 
   0   1  -2 331.129 17.3320  67 
   0   1   2 333.409 16.6850  51 
  -1  -1  -2 7521.56 360.318  55 
  -1  -1  -2 6931.62 359.981  63 
   1  -1   2 7217.01 360.447  60 
  -1  -1  -2 7480.14 360.224  57 
  -1  -1  -2 8026.02 360.273  69 
   1  -1   2 6965.81 361.095  58 
  -1  -1  -2 7414.11 360.890  67 
  -1  -1  -2 7445.38 362.848  59 
  -1  -1  -2 8262.21 360.479  61 
   1  -1   2 7422.31 360.683  64 
  -1  -1  -2 6954.77 360.609  64 
   1  -1   2 7660.71 360.203  69 
   1  -1   2 7208.06 361.005  57 
   1  -1   2 7172.24 362.826  59 
  -1  -1  -2 7753.08 360.637  64 
   1  -1   2 7023.33 360.320  61 
  -1  -1  -2 7627.57 360.414  65 
   1  -1   2 7713.67 360.508  65 
   1  -1   2 7923.28 360.496  61 
   1  -1   2 7217.78 360.914  67 
   1  -1   2 6820.47 362.804  59 
  -1  -1  -2 7471.71 362.395  59 
  -1  -1  -2 7535.51 361.110  58 
   1  -1   2 7202.97 360.224  57 
   1  -1   2 7588.36 360.300  55 
   1  -1   2 7324.48 360.722  64 
  -1  -1  -2 6978.77 360.306  61 
  -1  -1  -2 7356.50 360.232  57 
  -1   1  -2 8145.44 367.412  56 
   1   1   2 8154.65 360.065  51 
  -1   1  -2 7048.45 359.957  63 
  -1   1  -2 7363.50 363.732  59 
   1   1   2 7640.37 360.876  58 
   1   1   2 7412.42 363.089  59 
  -1   1  -2 7209.80 360.792  58 
   1   1   2 7303.51 362.735  59 
  -1   1  -2 7098.83 360.541  52 
   1   1   2 6976.03 360.190  54 
   1   1   2 7086.31 360.606  67 
  -1   1  -2 7563.50 360.178  51 
   1   1   2 7348.05 359.928  53 
   1   1   2 7568.21 359.896  53 
   1   1   2 7051.28 362.614  66 
  -1   1  -2 7592.25 360.115  53 
   1   1   2 7542.27 360.380  60 
  -1   1  -2 7433.54 360.270  61 
   1   1   2 7444.29 360.076  55 
  -1   1  -2 8098.96 363.250  66 
  -1   1  -2 7152.05 359.891  53 
  -1   1  -2 7182.15 360.663  67 
  -2  -1  -2 3020.60 141.561  64 
   2  -1   2 2453.30 140.757  69 
  -2  -1  -2 2729.39 140.582  63 
   2  -1   2 2795.89 142.216  58 
  -2  -1  -2 2890.39 141.017  57 
  -2  -1  -2 3319.31 142.468  58 
   2  -1   2 2722.91 140.383  49 
  -2  -1  -2 2906.39 141.147  61 
  -2  -1  -2 3051.25 141.274  65 
   2  -1   2 3272.10 142.105  67 
  -2  -1  -2 2730.43 141.024  55 
   2  -1   2 3204.52 141.374  61 
   2  -1   2 3245.84 141.813  64 
   2  -1   2 2614.85 140.966  55 
   2  -1   2 2747.31 140.953  57 
   2  -1   2 3005.41 141.297  65 
  -2  -1  -2 3053.52 142.059  67 
  -2  -1  -2 2783.81 140.735  69 
   2   1   2 3003.05 140.608  51 
   2   1   2 2778.20 140.444  53 
   2   1   2 2776.09 140.654  54 
  -2   1  -2 2985.47 141.999  58 
  -2   1  -2 2842.25 141.555  67 
  -2   1  -2 2796.10 140.573  51 
   2   1   2 2792.04 141.134  60 
   2   1   2 2876.82 141.699  67 
  -2   1  -2 2983.35 140.466  53 
   2   1   2 2635.12 141.923  58 
  -2   1  -2 2875.83 141.110  52 
   2   1   2 2641.22 144.674  59 
   2   1   2 2944.94 140.874  55 
  -2   1  -2 2770.54 149.993  56 
  -2   1  -2 2959.70 144.809  59 
  -2   1  -2 2975.51 144.932  66 
  -3  -1  -2 415.990 22.1771  67 
   3  -1   2 376.418 20.6315  57 
  -3  -1  -2 402.541 20.9780  65 
   3  -1   2 398.170 21.0946  65 
  -3  -1  -2 402.034 20.1176  63 
  -3  -1  -2 372.969 22.2727  58 
   3  -1   2 405.467 19.9342  71 
  -3  -1  -2 381.396 19.8372  45 
   3  -1   2 387.976 19.8588  45 
  -3  -1  -2 376.483 20.1101  48 
  -3  -1  -2 382.751 20.7014  57 
   3  -1   2 393.552 19.8140  49 
   3  -1   2 429.687 20.8721  55 
  -3  -1  -2 368.712 19.8943  71 
   3  -1   2 383.334 21.8713  67 
   3  -1   2 376.098 20.1344  48 
   3  -1   2 391.500 22.5852  58 
   3   1   2 382.728 20.5392  55 
  -3   1  -2 464.505 33.2666  56 
   3   1   2 404.722 19.9323  53 
  -3   1  -2 392.716 21.5878  67 
   3   1   2 434.436 22.0712  67 
   3   1   2 409.203 20.1227  51 
  -3   1  -2 427.953 20.0996  51 
  -3   1  -2 387.667 20.5628  52 
  -3   1  -2 412.510 19.8885  53 
   4  -1   2 532.107 26.5095  71 
  -4  -1  -2 578.582 26.7251  75 
   4  -1   2 520.504 28.4551  55 
  -4  -1  -2 516.847 26.4262  45 
  -4  -1  -2 541.714 29.3983  67 
  -4  -1  -2 543.404 26.5578  71 
   4  -1   2 544.754 26.4578  49 
  -4  -1  -2 519.416 26.5528  47 
   4  -1   2 510.958 28.0126  65 
   4  -1   2 521.854 26.5054  45 
   4  -1   2 507.550 26.6646  75 
  -4  -1  -2 529.913 27.9534  65 
   4  -1   2 515.688 26.8473  48 
  -4  -1  -2 512.329 26.7871  48 
   4  -1   2 561.143 29.4593  67 
  -4   1  -2 568.871 26.8046  51 
   4   1   2 500.671 26.5197  53 
   4   1   2 489.213 27.1650  73 
  -4   1  -2 576.173 26.5369  53 
   4   1   2 536.982 30.8903  72 
   4   1   2 562.583 26.8565  51 
   4   1   2 482.049 27.3044  55 
   5  -1   2 465.911 22.3769  49 
   5  -1   2 445.006 23.3704  44 
  -5  -1  -2 483.085 22.5597  71 
  -5  -1  -2 453.297 22.6985  75 
   5  -1   2 415.951 24.8385  65 
  -5  -1  -2 414.187 25.6675  67 
   5  -1   2 455.951 22.4885  71 
   5  -1   2 416.812 22.6004  75 
   5  -1   2 420.714 22.4499  45 
  -5  -1  -2 465.509 22.4004  45 
  -5  -1  -2 455.882 22.5544  47 
   5  -1   2 448.007 22.9681  48 
   5  -1   2 479.270 26.3517  67 
   5   1   2 450.704 24.2948  76 
   5   1   2 450.749 27.5811  72 
  -5   1  -2 477.884 22.8261  51 
   5   1   2 401.517 22.4263  53 
   5   1   2 428.394 23.3943  73 
  -5   1  -2 428.755 22.3579  53 
  -5   1  -2 398.160 23.2220  76 
   5   1   2 437.069 22.7149  78 
   6  -1   2 277.076 13.8954  71 
   6  -1   2 282.505 14.3694  75 
  -6  -1  -2 263.437 13.8940  47 
   6  -1   2 269.545 14.0366  41 
   6  -1   2 251.334 14.8473  79 
  -6  -1  -2 251.083 13.9861  75 
   6  -1   2 239.650 13.7832  45 
   6  -1   2 234.697 14.4561  48 
  -6  -1  -2 262.695 13.8574  71 
  -6  -1  -2 249.813 13.6997  45 
   6   1   2 257.510 16.1312  76 
   6   1   2 212.344 20.0528  72 
   6   1   2 276.340 14.5040  81 
   6   1   2 268.458 15.3466  73 
  -6   1  -2 262.054 14.7691  83 
   6   1   2 259.819 14.3019  78 
  -7  -1  -2 445.285 22.8361  75 
   7  -1   2 378.493 22.3648  71 
   7  -1   2 434.440 23.1214  33 
   7  -1   2 449.239 22.6341  45 
  -7  -1  -2 425.130 22.5543  47 
   7  -1   2 451.903 22.8982  75 
  -7  -1  -2 412.779 22.4468  45 
   7  -1   2 448.573 23.8460  79 
   7  -1   2 457.267 22.7575  41 
  -7  -1  -2 447.900 22.6311  71 
   7   1   2 393.353 23.6873  76 
  -7   1  -2 449.335 23.4448  83 
   7   1   2 397.242 22.7666  78 
   7   1   2 439.012 23.9350  73 
   7   1   2 446.657 22.7970  38 
   7   1   2 453.365 22.8159  81 
  -8  -1  -2 56.1299 5.36828  19 
  -8  -1  -2 61.3656 5.50829  18 
   8  -1   2 54.9995 6.32560  33 
   8  -1   2 59.2894 6.25441  19 
   8  -1   2 58.1397 7.39947  78 
   8  -1   2 52.1043 6.93554  20 
   8  -1   2 44.3948 7.23667  79 
   8  -1   2 57.6824 6.24098  18 
   8  -1   2 53.4204 7.73758  24 
  -8  -1  -2 62.5340 6.21680  20 
   8  -1   2 45.5943 15.2256  72 
   8  -1   2 51.0709 6.06120  75 
  -8  -1  -2 52.3971 10.3588  76 
   8  -1   2 54.9149 5.90134  27 
   8  -1   2 53.7988 6.25068  41 
  -8   1  -2 47.7497 5.53050   4 
   8   1   2 65.0069 6.29809   4 
  -8   1  -2 50.4490 4.75374  17 
  -8   1  -2 54.6085 6.38395   5 
   8   1   2 50.1993 6.15610  38 
  -8   1  -2 59.7354 7.31474  83 
   8   1   2 65.3360 6.46690  78 
  -8   1  -2 55.1197 5.54959   2 
   8   1   2 58.1467 6.57549  15 
   8   1   2 47.4175 5.07603  81 
  -8   1  -2 56.8095 5.40344  13 
  -8   1  -2 48.4156 5.46750  78 
   8   1   2 57.6176 7.17626  73 
   8   1   2 57.7797 5.85263  18 
   8   1   2 58.0019 6.70592  13 
  -8   1  -2 59.2219 5.55635   7 
   9  -1   2 39.1026 5.42967  19 
  -9  -1  -2 33.2037 4.79987  81 
   9  -1   2 42.3366 8.92759  24 
  -9  -1  -2 40.1590 5.47250  20 
   9  -1   2 39.2788 6.83384  79 
  -9  -1  -2 35.9653 4.83185  18 
   9  -1   2 39.0325 6.08653  20 
  -9  -1  -2 48.0290 4.83757  19 
   9  -1   2 33.7140 5.34027  41 
   9  -1   2 29.5447 5.33148  33 
   9  -1   2 41.7619 5.52946  18 
  -9   1  -2 44.5790 6.14013  83 
  -9   1  -2 35.9160 5.44423   5 
  -9   1  -2 27.1843 4.62563   4 
   9   1   2 38.0332 5.82002  13 
   9   1   2 41.8991 5.48942   4 
  -9   1  -2 36.1283 5.31640   2 
  -9   1  -2 46.6027 4.97321  13 
 -10  -1  -2 44.8427 4.44827  20 
  10  -1   2 36.9635 4.43420  19 
  10  -1   2 39.4804 4.42471  18 
 -10  -1  -2 38.1802 4.04958  18 
 -10  -1  -2 42.8528 3.77907  19 
  10  -1   2 40.9839 5.31225  20 
 -10   1  -2 39.0665 4.68912   5 
 -10   1  -2 41.3060 3.70473  16 
  10   1   2 47.4683 4.80731  13 
  10   1   2 38.2504 4.81579   4 
 -10   1  -2 42.4424 4.62201   2 
 -10   1  -2 38.0217 4.05123  13 
 -10   1  -2 45.4024 4.44633   4 
 -10   1  -2 41.1109 4.11930   3 
  11  -2  -2 201.580 10.8165  18 
  11  -2  -2 201.578 11.0470  20 
 -11  -2   2 200.566 10.6348  18 
 -11  -2   2 193.347 10.9061  20 
 -11  -2   2 208.218 10.6207  19 
  11  -2  -2 211.471 10.8249  19 
  11   2  -2 208.149 10.4353  16 
 -11   2   2 204.155 10.7450   7 
 -11   2   2 213.740 10.9013   5 
  11   2  -2 185.488 10.5431   1 
 -11   2   2 200.343 10.1991  32 
  11   2  -2 212.207 10.7775   4 
 -11   2   2 186.830 10.6124   2 
 -11   2   2 205.732 10.3092   3 
 -11   2   2 200.340 10.6697   4 
 -11   2   2 189.221 10.3911  22 
  11   2  -2 220.383 10.6981  13 
 -11   2   2 224.074 10.6858  31 
  11   2  -2 231.007 10.7654   3 
 -11   2   2 204.530 11.3489  14 
 -10  -2   2 11.8887 3.20553  20 
  10  -2  -2 18.5722 4.51121  19 
  10  -2  -2 15.6374 4.96703  20 
  10  -2  -2 11.1125 3.24812  33 
 -10  -2   2 12.3338 3.89633  19 
  10  -2  -2 10.7556 3.79933  27 
  10  -2  -2 11.8476 5.58502  24 
  10  -2  -2 23.3321 4.61204  18 
 -10  -2   2 20.1419 4.38077  18 
  10   2  -2 18.6165 4.45017  23 
  10   2  -2 23.4311 4.56328  13 
 -10   2   2 15.7164 4.18660  14 
 -10   2   2 17.2721 2.17441  16 
  10   2  -2 14.7067 4.93121  15 
 -10   2   2 9.13874 2.52990   4 
 -10   2   2 11.9215 3.34993   3 
 -10   2   2 11.7697 2.92469   1 
 -10   2   2 16.8398 3.87108  31 
 -10   2   2 15.7945 4.34229   7 
  10   2  -2 7.28659 3.10539   4 
 -10   2   2 8.36752 2.54348   2 
  10   2  -2 15.4160 4.55382   7 
  10   2  -2 17.2141 4.09308  16 
 -10   2   2 14.7506 4.44039   5 
 -10   2   2 16.9341 2.72972  32 
  10   2  -2 10.1377 2.76215   3 
  10   2  -2 8.43035 2.72053  10 
   9  -2  -2 12.2813 3.96220  20 
  -9  -2   2 12.7696 4.14318  27 
  -9  -2   2 14.4360 4.33752  19 
   9  -2  -2 15.6819 4.96630  27 
  -9  -2   2 23.4307 5.61015  20 
   9  -2  -2 5.72896 4.06405  41 
   9  -2  -2 13.1476 3.67719  33 
   9  -2  -2 17.8504 7.78075  24 
   9  -2  -2 16.9283 5.76400  79 
  -9  -2   2 11.7642 3.41726  18 
   9   2  -2 13.6147 3.08483  16 
  -9   2   2 16.5621 3.74244   3 
  -9   2   2 9.06480 2.80391  14 
   9   2  -2 16.6441 5.22762  10 
   9   2  -2 9.78545 3.57811   4 
  -9   2   2 15.9216 4.29886  77 
  -9   2   2 13.3718 3.06775   4 
  -9   2   2 17.8892 5.07333  83 
  -9   2   2 12.3150 3.34453   5 
  -9   2   2 15.8527 3.36803   2 
   9   2  -2 7.44479 3.96739   7 
  -9   2   2 11.6978 2.52895  13 
  -9   2   2 14.1517 3.82111   1 
   9   2  -2 16.4172 5.92787  15 
  -9   2   2 14.1259 2.93525  31 
  -9   2   2 20.4519 3.48624   7 
   9   2  -2 9.75810 4.66687   3 
  -9   2   2 15.0461 3.33859  16 
   9   2  -2 7.23478 3.15713  13 
   8  -2  -2 163.822 9.62925  75 
   8  -2  -2 153.927 9.90135  33 
  -8  -2   2 159.966 9.30102  27 
   8  -2  -2 145.719 10.1340  48 
   8  -2  -2 156.773 9.92200  41 
   8  -2  -2 180.971 14.7676  44 
   8  -2  -2 131.271 9.19072  45 
  -8  -2   2 150.308 10.0455  20 
  -8  -2   2 139.348 9.81884  19 
   8  -2  -2 136.253 9.22591  27 
   8  -2  -2 151.310 10.5019  79 
  -8  -2   2 133.766 9.37758  47 
  -8  -2   2 139.209 9.05277  45 
  -8  -2   2 147.422 9.77515  18 
  -8  -2   2 135.289 9.43767  75 
  -8   2   2 167.468 9.40669   4 
  -8   2   2 158.248 9.31537  31 
  -8   2   2 150.334 9.57795   7 
  -8   2   2 143.080 8.80924   3 
  -8   2   2 145.127 9.03406  13 
   8   2  -2 134.682 9.81561   4 
  -8   2   2 112.089 10.2602   5 
   8   2  -2 119.158 9.92383  13 
  -8   2   2 169.809 8.98636  28 
   8   2  -2 110.373 11.0768   7 
  -8   2   2 162.711 9.64448   2 
  -8   2   2 155.258 9.54927  77 
   8   2  -2 156.954 11.0784  15 
  -8   2   2 157.246 8.93562  16 
   8   2  -2 151.969 9.74923  73 
  -8   2   2 174.635 9.95361  14 
  -8   2   2 158.396 10.2274  83 
  -8   2   2 142.909 8.66362   1 
   8   2  -2 167.454 10.4719  10 
   7  -2  -2 9.78271 3.40882  75 
   7  -2  -2 12.8491 3.35812  71 
  -7  -2   2 11.6863 3.83217  47 
   7  -2  -2 17.0477 4.01080  45 
  -7  -2   2 10.8159 2.86101  71 
  -7  -2   2 6.94096 2.55127  45 
   7  -2  -2 12.6422 4.45580  48 
  -7  -2   2 15.0028 4.41666  75 
   7  -2  -2 8.00661 3.03664  44 
   7  -2  -2 9.25571 3.95658  41 
   7  -2  -2 5.66712 3.53344  79 
  -7   2   2 13.2748 3.78025  77 
   7   2  -2 10.7290 3.51242  78 
   7   2  -2 7.61082 3.87319  38 
  -7   2   2 9.63627 4.11407  83 
   7   2  -2 20.1138 5.33647  73 
  -6  -2   2 88.6688 5.81710  71 
  -6  -2   2 80.5879 5.61556  45 
   6  -2  -2 81.4146 5.67374  45 
  -6  -2   2 82.4003 5.88491  47 
   6  -2  -2 77.0671 5.89476  41 
   6  -2  -2 82.7849 5.89305  75 
  -6  -2   2 88.1971 7.18926  44 
   6  -2  -2 85.3302 5.43967  71 
  -6  -2   2 82.5670 5.89723  75 
   6  -2  -2 74.0174 6.45669  48 
   6  -2  -2 86.0462 6.48699  79 
   6  -2  -2 85.3632 7.26030  44 
   6   2  -2 86.1089 6.69783  73 
  -6   2   2 70.0275 6.45818  83 
  -6   2   2 87.3971 6.08107  77 
   6   2  -2 72.7636 6.16805  77 
   6   2  -2 72.5077 5.96234  78 
  -5  -2   2 306.624 15.8223  47 
   5  -2  -2 293.746 15.5242  70 
  -5  -2   2 313.928 16.7613  44 
  -5  -2   2 271.365 18.7087  67 
  -5  -2   2 320.997 16.0280  75 
   5  -2  -2 323.694 16.2446  48 
   5  -2  -2 310.382 15.5310  46 
  -5  -2   2 315.550 15.7539  45 
   5  -2  -2 267.916 15.6301  75 
   5  -2  -2 302.806 16.5329  44 
   5  -2  -2 328.828 15.8144  45 
  -5  -2   2 306.484 15.7416  71 
   5  -2  -2 303.110 15.5983  71 
  -5   2   2 307.359 16.3088  74 
   5   2  -2 254.359 15.7961  51 
   5   2  -2 318.865 16.2031  73 
  -5   2   2 308.875 15.3156  51 
   5   2  -2 308.093 15.2964  53 
   5   2  -2 294.356 15.7447  78 
   5   2  -2 303.387 15.9777  77 
  -5   2   2 320.789 15.8474  77 
   4  -2  -2 20.0294 2.24213  70 
   4  -2  -2 22.4412 3.96553  75 
  -4  -2   2 22.6147 3.86285  44 
   4  -2  -2 27.1887 2.73557  45 
  -4  -2   2 20.9649 2.55797  45 
  -4  -2   2 22.6182 2.83143  75 
   4  -2  -2 23.9544 3.58363  44 
  -4  -2   2 27.7893 2.62974  46 
  -4  -2   2 21.2047 2.20924  70 
   4  -2  -2 24.9843 3.32086  48 
  -4  -2   2 18.6801 4.76241  67 
  -4  -2   2 23.0621 2.72856  71 
  -4  -2   2 19.3329 3.42951  65 
  -4  -2   2 24.6453 2.84950  47 
   4  -2  -2 25.8818 3.34476  65 
   4  -2  -2 26.4883 2.28971  46 
   4  -2  -2 24.0118 2.93923  69 
   4  -2  -2 21.8710 2.44759  71 
  -4   2   2 25.0384 5.76756  66 
   4   2  -2 24.6212 2.64748  51 
  -4   2   2 17.2453 3.29659  74 
   4   2  -2 22.2921 3.46746  73 
   4   2  -2 24.6324 1.73384  53 
  -4   2   2 21.9639 1.55023  51 
  -3  -2   2 1273.16 64.8849  64 
   3  -2  -2 1215.80 63.4170  71 
   3  -2  -2 1277.89 63.6798  48 
   3  -2  -2 1413.93 65.9609  58 
  -3  -2   2 1291.69 63.7463  63 
   3  -2  -2 1354.51 63.3709  46 
  -3  -2   2 1343.36 63.5076  70 
  -3  -2   2 1320.80 64.4557  61 
  -3  -2   2 1313.60 63.5771  45 
  -3  -2   2 1348.24 66.7399  62 
  -3  -2   2 1297.79 63.9841  69 
  -3  -2   2 1302.14 63.5108  46 
   3  -2  -2 1211.08 64.2088  65 
   3  -2  -2 1306.69 63.4054  70 
  -3  -2   2 1252.69 63.5584  71 
   3  -2  -2 1357.75 64.8044  64 
   3  -2  -2 1295.87 63.4143  50 
   3  -2  -2 1254.07 63.7987  69 
  -3  -2   2 1299.47 65.7157  67 
   3  -2  -2 1337.85 63.5154  45 
  -3  -2   2 1321.08 64.6601  65 
   3   2  -2 1300.55 69.1096  66 
  -3   2   2 1365.14 67.9959  66 
   3   2  -2 1275.23 63.5767  51 
  -3   2   2 1245.75 63.7610  47 
   3   2  -2 1223.39 63.5371  73 
  -2  -2   2 578.115 27.2503  50 
   2  -2  -2 568.066 28.0065  64 
   2  -2  -2 576.007 28.8575  58 
  -2  -2   2 534.941 27.8811  61 
   2  -2  -2 552.278 27.2977  69 
  -2  -2   2 583.004 28.1138  65 
   2  -2  -2 549.376 27.6293  65 
  -2  -2   2 522.557 27.1702  70 
   2  -2  -2 543.668 27.6106  61 
  -2  -2   2 556.998 27.4037  63 
   2  -2  -2 539.446 27.0530  50 
   2  -2  -2 562.367 27.0786  50 
   2  -2  -2 556.379 27.0224  70 
  -2  -2   2 530.897 27.6818  57 
  -2  -2   2 521.257 28.8111  67 
  -2  -2   2 483.011 27.4685  69 
   2  -2  -2 560.178 27.9635  64 
  -2  -2   2 545.134 29.3440  62 
  -2  -2   2 553.056 28.2674  64 
  -2  -2   2 567.182 29.1473  58 
  -2   2   2 589.034 30.1380  66 
   2   2  -2 544.326 31.0587  66 
  -2   2   2 567.507 27.7438  68 
   2   2  -2 579.379 27.1204  51 
   2   2  -2 539.329 27.4434  51 
  -2   2   2 563.906 27.9535  54 
  -2   2   2 575.549 28.5609  52 
   2   2  -2 540.759 28.3197  52 
  -2   2   2 571.395 30.0554  66 
  -1  -2   2 111.218 8.83764  59 
  -1  -2   2 110.085 5.80846  70 
  -1  -2   2 108.136 7.29067  62 
  -1  -2   2 118.985 6.62806  65 
  -1  -2   2 122.712 6.09036  63 
   1  -2  -2 116.882 6.34430  64 
  -1  -2   2 113.867 6.83381  64 
  -1  -2   2 113.665 6.48733  61 
   1  -2  -2 117.085 6.11109  65 
  -1  -2   2 108.696 7.33793  58 
   1  -2  -2 115.241 6.08118  61 
   1  -2  -2 119.489 6.11509  61 
   1  -2  -2 117.038 5.70094  69 
   1  -2  -2 115.766 5.71557  69 
  -1  -2   2 108.085 5.86185  50 
  -1  -2   2 120.644 6.83172  64 
  -1  -2   2 109.482 6.08696  69 
   1  -2  -2 114.887 5.84916  63 
  -1  -2   2 111.018 5.88782  50 
  -1   2   2 112.502 7.23745  52 
   1   2  -2 105.636 7.11312  52 
  -1   2   2 122.274 6.97578  54 
   1   2  -2 121.191 9.06371  66 
  -1   2   2 125.145 7.78749  66 
   1   2  -2 119.033 6.18084  60 
   1   2  -2 103.982 9.26764  56 
  -1   2   2 118.647 7.78953  66 
   0  -2   2 276.945 13.6341  63 
   0  -2  -2 276.699 13.7017  61 
   0  -2   2 258.527 13.4233  50 
   0  -2   2 287.061 14.3082  64 
   0  -2  -2 303.929 14.0229  64 
   0  -2   2 268.373 13.3892  70 
   0  -2   2 272.271 14.3239  64 
   0  -2  -2 269.167 13.3780  69 
   0  -2  -2 267.501 13.3862  69 
   0  -2   2 266.745 13.6359  69 
   0  -2   2 244.879 15.4333  59 
   0  -2   2 295.790 14.0786  61 
   0  -2   2 262.845 13.4569  49 
   0  -2  -2 269.933 13.4770  63 
   0  -2   2 270.159 13.4471  50 
   0  -2  -2 261.151 13.7147  65 
   0  -2  -2 285.672 14.0050  64 
   0  -2   2 278.038 14.0644  65 
   0  -2  -2 274.936 13.7580  61 
   0  -2   2 273.388 13.9931  61 
   0  -2   2 268.852 14.6921  58 
   0   2  -2 278.790 14.8320  52 
   0   2   2 250.626 14.3187  52 
   0   2   2 270.427 15.4340  66 
   0   2  -2 274.747 16.2673  66 
   0   2   2 288.308 14.4475  54 
  -1  -2  -2 914.708 45.3749  63 
  -1  -2  -2 948.143 45.8253  65 
  -1  -2  -2 907.451 45.2057  50 
  -1  -2  -2 978.805 48.8222  59 
   1  -2   2 892.979 45.2220  70 
  -1  -2  -2 890.377 45.9815  64 
  -1  -2  -2 919.493 45.1737  70 
   1  -2   2 908.212 45.2471  49 
   1  -2   2 928.233 45.9122  61 
   1  -2   2 933.733 45.9440  65 
   1  -2   2 861.974 46.1334  64 
   1  -2   2 920.379 46.7162  58 
  -1  -2  -2 921.569 45.7497  61 
  -1  -2  -2 1007.88 45.4598  69 
  -1  -2  -2 919.067 46.5756  58 
   1  -2   2 924.220 45.2672  50 
   1  -2   2 901.596 45.2522  50 
   1  -2   2 927.451 46.1639  64 
  -1  -2  -2 906.867 45.2166  50 
  -1  -2  -2 938.609 46.1045  64 
  -1   2  -2 918.825 49.0121  56 
   1   2   2 909.348 48.3206  66 
  -1   2  -2 997.357 48.7859  66 
  -1   2  -2 966.979 46.6441  52 
   1   2   2 944.304 46.0893  54 
  -2  -2  -2 1888.01 89.9869  48 
  -2  -2  -2 1843.75 89.7743  50 
   2  -2   2 1813.15 90.6402  61 
   2  -2   2 1847.54 90.6842  65 
  -2  -2  -2 1890.44 90.3780  57 
  -2  -2  -2 1830.82 91.7439  58 
  -2  -2  -2 1899.06 89.7453  70 
  -2  -2  -2 1876.60 90.9602  64 
   2  -2   2 1857.06 91.0776  64 
  -2  -2  -2 1877.44 90.5873  61 
  -2  -2  -2 1774.36 89.8775  71 
   2  -2   2 1793.34 89.7300  49 
  -2  -2  -2 1907.54 90.1456  69 
   2  -2   2 1849.96 89.9944  48 
   2  -2   2 1975.66 90.2735  69 
  -2  -2  -2 1777.96 89.9364  45 
   2  -2   2 1942.83 89.9652  71 
   2  -2   2 1678.68 89.7322  70 
   2  -2   2 1871.14 89.7647  50 
  -2  -2  -2 1733.68 89.6734  46 
   2  -2   2 1783.46 89.6756  46 
   2  -2   2 1750.66 90.2775  57 
  -2  -2  -2 1928.98 90.6965  65 
   2  -2   2 1852.83 91.8659  58 
  -2  -2  -2 1806.35 89.9568  63 
  -2   2  -2 1735.93 94.1437  66 
  -2   2  -2 1865.57 89.5787  51 
   2   2   2 1843.33 89.6395  51 
   2   2   2 1872.05 89.5587  51 
   2   2   2 1784.12 90.4225  54 
  -2   2  -2 1875.19 89.5209  51 
  -2   2  -2 1928.12 91.1884  52 
   3  -2   2 303.185 14.2490  49 
   3  -2   2 274.456 14.2708  45 
  -3  -2  -2 257.641 14.2363  45 
   3  -2   2 307.209 14.9907  69 
  -3  -2  -2 274.718 14.1996  70 
   3  -2   2 287.538 14.5961  48 
   3  -2   2 278.573 14.1347  46 
  -3  -2  -2 243.423 16.4148  67 
  -3  -2  -2 288.258 15.4998  65 
  -3  -2  -2 285.417 14.5944  48 
   3  -2   2 283.815 15.5284  65 
   3  -2   2 300.996 14.2983  70 
  -3  -2  -2 285.680 14.1746  46 
   3  -2   2 283.998 14.3295  71 
  -3  -2  -2 282.723 14.3411  71 
  -3  -2  -2 278.124 14.7508  69 
  -3   2  -2 270.773 14.1031  51 
   3   2   2 274.244 14.3195  73 
  -3   2  -2 292.022 15.8796  52 
  -3   2  -2 268.982 19.7631  66 
   3   2   2 286.295 14.2437  51 
  -4  -2  -2 352.505 18.1451  45 
  -4  -2  -2 359.917 18.4333  75 
   4  -2   2 355.628 18.8843  44 
   4  -2   2 367.476 21.2004  67 
  -4  -2  -2 376.256 19.0040  44 
   4  -2   2 348.314 18.0086  46 
  -4  -2  -2 367.809 18.4595  47 
  -4  -2  -2 360.807 18.5671  48 
  -4  -2  -2 343.308 18.0584  46 
  -4  -2  -2 346.084 21.0426  67 
   4  -2   2 359.505 18.2186  71 
   4  -2   2 344.831 18.1534  70 
   4  -2   2 393.540 18.6870  48 
   4  -2   2 345.552 18.1450  45 
   4  -2   2 334.230 18.3512  75 
  -4  -2  -2 343.192 18.2202  71 
   4  -2   2 366.384 18.1198  49 
   4   2   2 343.626 18.1965  51 
  -4   2  -2 384.025 18.0901  51 
   4   2   2 365.509 18.4647  77 
  -4   2  -2 354.574 18.3373  77 
   4   2   2 352.072 18.4184  73 
   5  -2   2 61.2997 4.46944  49 
  -5  -2  -2 64.0665 4.98834  75 
   5  -2   2 58.5270 6.09537  44 
  -5  -2  -2 65.1972 4.56360  71 
   5  -2   2 56.2098 5.21066  48 
  -5  -2  -2 61.3449 4.57881  45 
  -5  -2  -2 56.6496 5.84530  44 
   5  -2   2 59.8471 6.05833  79 
   5  -2   2 61.0900 4.61068  71 
   5  -2   2 56.7005 4.75923  75 
  -5  -2  -2 56.4100 4.54563  47 
   5  -2   2 61.4019 4.74372  45 
   5   2   2 53.1278 4.21792  51 
  -5   2  -2 57.8378 3.99435  51 
   5   2   2 56.8801 5.67757  40 
   5   2   2 49.4345 5.29500  73 
  -5   2  -2 52.9452 5.50397  83 
  -5   2  -2 56.0029 5.02013  77 
   5   2   2 57.6943 5.40625  77 
   5   2   2 58.7042 5.64710  43 
   6  -2   2 15.7903 4.90097  79 
   6  -2   2 14.5767 4.65881  48 
  -6  -2  -2 18.5195 3.30916  45 
  -6  -2  -2 16.3814 3.80355  75 
   6  -2   2 14.4939 4.31823  75 
  -6  -2  -2 17.0386 3.61964  71 
   6  -2   2 12.6671 5.48486  44 
   6  -2   2 24.1024 4.98779  41 
   6  -2   2 13.6372 3.15830  71 
   6  -2   2 14.2727 3.93663  45 
  -6  -2  -2 18.5554 5.21951  44 
  -6  -2  -2 16.0447 3.78422  47 
   6   2   2 14.7646 4.63952  73 
  -6   2  -2 12.7753 3.65742  77 
   6   2   2 13.6521 4.49971  38 
  -6   2  -2 16.3423 4.22598  83 
   6   2   2 15.6097 4.25854  40 
   6   2   2 23.3495 5.10669  77 
   6   2   2 13.7951 4.23194  43 
  -7  -2  -2 29.8524 4.60865  47 
   7  -2   2 22.3516 3.74488  71 
  -7  -2  -2 26.2992 4.73383  75 
   7  -2   2 37.2151 6.01542  41 
  -7  -2  -2 29.3423 3.79647  71 
   7  -2   2 23.4070 5.66745  33 
  -7  -2  -2 28.7211 4.35060  45 
   7  -2   2 21.8496 5.36315  48 
   7  -2   2 24.5204 8.00284  44 
   7  -2   2 28.3111 6.29759  79 
   7  -2   2 26.4782 4.90308  75 
   7  -2   2 26.8523 4.83417  45 
   7   2   2 20.9455 5.89474  38 
  -7   2  -2 22.8812 5.91247  83 
  -7   2  -2 28.8096 5.02508  77 
   7   2   2 32.6635 6.27706  77 
   7   2   2 31.4051 5.07681  73 
  -8  -2  -2 63.4950 6.01774  75 
  -8  -2  -2 68.8622 6.15569  19 
   8  -2   2 70.3369 6.88835  41 
   8  -2   2 61.7560 6.96196  20 
  -8  -2  -2 65.4252 6.06120  18 
   8  -2   2 72.8774 6.73310  33 
  -8  -2  -2 60.7905 6.46286  20 
   8  -2   2 77.0592 6.44928  75 
   8  -2   2 68.4552 7.69213  79 
   8  -2   2 71.2046 6.15884  27 
   8  -2   2 57.1552 7.97471  24 
  -8  -2  -2 67.8113 5.73103  27 
  -8   2  -2 69.4529 5.37549   1 
   8   2   2 69.2974 7.00285  38 
  -8   2  -2 69.2301 5.97141  14 
  -8   2  -2 53.7196 5.63920   4 
   8   2   2 63.0748 5.98261  16 
   8   2   2 71.9618 7.58669  15 
   8   2   2 72.8344 6.61844  31 
  -8   2  -2 76.6628 5.16313  16 
  -8   2  -2 66.3148 5.48208  13 
  -8   2  -2 74.2356 6.92532   6 
   8   2   2 66.0122 6.85104   7 
   8   2   2 72.1462 6.48033  13 
  -8   2  -2 77.7251 5.99385   7 
   8   2   2 72.5619 6.21831   4 
  -8   2  -2 70.2655 6.07598   2 
   8   2   2 63.3904 5.97347   3 
  -8   2  -2 77.9675 5.19885  17 
  -8   2  -2 72.1162 6.62594   5 
  -8   2  -2 66.8488 6.75406  83 
  -8   2  -2 69.2716 5.38572   3 
  -8   2  -2 73.9656 6.26900  77 
  -8   2  -2 73.3006 5.87803  31 
   9  -2   2 16.9750 5.50363  20 
  -9  -2  -2 18.2637 4.24068  19 
  -9  -2  -2 24.5109 4.82709  20 
  -9  -2  -2 21.4216 4.32250  18 
   9  -2   2 13.3941 4.57940  33 
   9  -2   2 18.9037 4.72523  18 
   9  -2   2 14.6313 4.74574  19 
   9  -2   2 26.0270 4.26060  27 
  -9   2  -2 18.5500 2.93161  16 
   9   2   2 26.1799 5.23731  31 
   9   2   2 30.2312 4.73247   4 
   9   2   2 21.9309 4.07484  16 
  -9   2  -2 16.0401 3.48790  17 
   9   2   2 21.8935 4.69031  38 
  -9   2  -2 19.8615 3.56834  13 
   9   2   2 21.3163 4.94389  15 
  -9   2  -2 17.0332 4.70364  83 
  -9   2  -2 22.5024 4.60771   7 
  -9   2  -2 19.7669 3.86299   4 
  -9   2  -2 18.8718 3.90200  14 
   9   2   2 21.3995 4.02047   3 
  -9   2  -2 21.7614 4.07480   2 
  -9   2  -2 22.9539 4.78535   5 
  -9   2  -2 22.1862 4.02388  31 
   9   2   2 30.0623 4.68471  13 
  -9   2  -2 18.7871 3.31547   1 
   9   2   2 21.4469 5.36605   7 
  -9   2  -2 18.5171 3.62628   3 
  10  -2   2 14.8320 4.11829  33 
  10  -2   2 5.72942 2.44102  20 
  10  -2   2 8.42958 2.42518  18 
 -10  -2  -2 13.6185 2.98435  19 
  10  -2   2 12.4821 3.38837  19 
 -10  -2  -2 5.26455 2.15387  18 
 -10  -2  -2 12.0169 3.52744  20 
  10   2   2 11.6517 2.61452  16 
  10   2   2 5.73121 2.46467  31 
 -10   2  -2 10.2487 2.33195   3 
 -10   2  -2 13.4216 2.12535   1 
  10   2   2 5.72209 1.91738   1 
  10   2   2 13.1168 3.03762   7 
 -10   2  -2 12.4428 2.14299  32 
  10   2   2 7.93729 2.01693  13 
 -10   2  -2 9.41734 2.05261  31 
 -10   2  -2 10.6863 3.37948   5 
 -10   2  -2 13.0172 3.59292  14 
 -10   2  -2 9.46680 2.78060   4 
 -10   2  -2 6.78858 2.06808   7 
  10   2   2 16.3921 3.15377   3 
  10   2   2 6.10468 2.20795   4 
 -10   2  -2 12.5908 2.75270   2 
 -10  -3   2 24.5957 3.64534  19 
  10  -3  -2 23.1426 3.35016  27 
 -10  -3   2 25.8620 4.25315  20 
  10  -3  -2 22.8265 4.13926  33 
  10  -3  -2 24.4425 4.82659  24 
 -10  -3   2 22.7309 3.65154  18 
 -10   3   2 28.5118 2.67755  28 
 -10   3   2 24.1880 3.02154  30 
  10   3  -2 19.7657 3.69042  31 
  10   3  -2 27.8624 2.57020   1 
  10   3  -2 24.0729 3.60770   4 
 -10   3   2 19.7067 3.47521   5 
  10   3  -2 24.9885 3.73413  10 
 -10   3   2 23.7316 3.48369   7 
  10   3  -2 26.1393 2.84234  32 
  10   3  -2 22.1652 2.79367   3 
  10   3  -2 26.8386 4.14795   7 
 -10   3   2 25.3953 3.57346  14 
  10   3  -2 24.6266 3.97743  15 
 -10   3   2 24.5556 2.81049  31 
   9  -3  -2 38.4204 5.40233  33 
   9  -3  -2 48.7245 5.05424  27 
  -9  -3   2 34.4983 5.45055  20 
  -9  -3   2 30.7176 5.14923  18 
  -9  -3   2 42.9406 4.18670  27 
   9  -3  -2 37.7198 7.29273  24 
  -9  -3   2 40.3152 4.88681  19 
  -9   3   2 36.1488 5.06638   5 
   9   3  -2 39.4697 4.91561  31 
  -9   3   2 42.3677 4.13516  30 
   9   3  -2 39.7738 4.41822  13 
   9   3  -2 38.0258 3.99443   1 
  -9   3   2 36.8018 4.89820  14 
   9   3  -2 36.7596 5.19451  23 
   9   3  -2 39.8651 5.68859   7 
  -9   3   2 41.6997 3.72921  22 
  -9   3   2 37.3081 3.91388  31 
  -9   3   2 34.2583 4.84727   7 
   9   3  -2 33.7186 3.73005  16 
   9   3  -2 50.0979 4.43729  32 
  -9   3   2 38.2471 3.16489   3 
   9   3  -2 38.1355 5.01175   4 
  -9   3   2 43.5490 2.85845  32 
  -9   3   2 42.7852 5.37289   6 
   9   3  -2 41.4231 6.37520  15 
   9   3  -2 44.4267 5.29747  10 
  -9   3   2 42.8419 3.71475  28 
   9   3  -2 45.3733 4.33989   3 
   8  -3  -2 127.466 9.49509  44 
   8  -3  -2 81.9016 6.89642  27 
   8  -3  -2 97.2089 7.66802  75 
   8  -3  -2 105.031 8.15002  79 
   8  -3  -2 103.656 7.84177  33 
  -8  -3   2 102.719 6.97692  27 
   8   3  -2 98.0957 13.6721  15 
  -8   3   2 97.8685 6.35929  29 
  -8   3   2 97.4636 6.62782  31 
  -8   3   2 104.145 5.87031   1 
   8   3  -2 103.590 6.55041  16 
   8   3  -2 107.995 7.61558  31 
  -8   3   2 101.223 5.93748  32 
   8   3  -2 96.8185 7.82188  10 
  -8   3   2 101.729 8.06462   6 
   8   3  -2 103.565 7.53970  77 
   8   3  -2 99.8009 8.03639   7 
  -8   3   2 118.767 7.36140   7 
   8   3  -2 99.0543 6.86603   1 
  -8   3   2 106.995 6.42661  77 
   8   3  -2 95.3584 6.89250  28 
   8   3  -2 104.175 7.66675   4 
   8   3  -2 91.0253 7.74343  38 
  -8   3   2 104.100 6.81339  30 
   8   3  -2 94.2785 7.02806  13 
  -8   3   2 101.620 6.24712   3 
  -8   3   2 97.2403 6.30503  28 
   8   3  -2 105.781 8.55238  23 
  -8   3   2 119.973 7.63267  14 
   8   3  -2 103.677 6.99964   3 
   7  -3  -2 99.1255 7.61324  79 
  -7  -3   2 90.9248 7.88070  47 
  -7  -3   2 94.7191 6.30749  71 
   7  -3  -2 84.1846 8.12865  44 
   7  -3  -2 90.6903 6.14629  71 
   7  -3  -2 101.385 6.87489  75 
  -7  -3   2 93.6500 7.06138  75 
  -7  -3   2 84.2686 6.60219  45 
   7  -3  -2 91.2263 7.61234  48 
   7  -3  -2 89.4696 6.88139  45 
  -7  -3   2 88.0752 8.29634  44 
   7   3  -2 89.3099 7.46932  38 
  -7   3   2 99.2036 6.26358  77 
   7   3  -2 92.9331 7.29593  77 
   6  -3  -2 76.1522 5.57315  46 
  -6  -3   2 97.4520 6.79829  75 
   6  -3  -2 89.7993 6.31001  75 
   6  -3  -2 88.4531 7.74580  44 
  -6  -3   2 93.3479 6.28495  45 
  -6  -3   2 91.0192 7.81550  44 
   6  -3  -2 98.5412 6.99673  48 
  -6  -3   2 90.6217 6.04952  71 
   6  -3  -2 95.8035 5.89910  71 
  -6  -3   2 87.2934 6.11606  49 
   6  -3  -2 88.1486 7.18521  79 
   6   3  -2 89.9632 6.94304  77 
  -6   3   2 79.9030 5.85887  77 
   6   3  -2 84.6099 7.23204  38 
   5  -3  -2 73.6402 5.68824  48 
   5  -3  -2 74.0726 4.56694  70 
  -5  -3   2 63.5602 4.75388  46 
  -5  -3   2 72.3810 6.50913  44 
  -5  -3   2 66.6712 4.98841  71 
   5  -3  -2 75.0562 4.59318  46 
  -5  -3   2 72.9999 5.45161  75 
   5  -3  -2 71.5998 6.16664  44 
  -5  -3   2 71.9883 5.19356  45 
   5   3  -2 64.6803 5.51464  77 
  -5   3   2 67.5734 4.71574  77 
   5   3  -2 68.9360 6.15170  38 
  -4  -3   2 149.975 9.05613  75 
  -4  -3   2 160.412 8.85678  45 
  -4  -3   2 161.722 8.69819  70 
   4  -3  -2 163.447 9.17334  48 
   4  -3  -2 168.862 8.53636  46 
  -4  -3   2 162.347 9.79244  44 
   4  -3  -2 180.018 10.4253  44 
  -4  -3   2 162.372 9.42102  69 
   4  -3  -2 162.420 9.22896  69 
  -4  -3   2 148.949 8.80352  71 
  -4  -3   2 182.770 8.84568  46 
   4  -3  -2 157.905 8.54852  70 
   4   3  -2 141.912 8.88497  77 
  -4   3   2 163.950 8.63351  80 
  -4   3   2 160.108 8.42420  77 
   3  -3  -2 186.337 9.30879  70 
  -3  -3   2 189.298 10.4044  44 
   3  -3  -2 191.565 10.2947  65 
   3  -3  -2 189.746 9.34312  50 
   3  -3  -2 183.576 9.23201  46 
   3  -3  -2 190.746 10.4943  48 
  -3  -3   2 179.619 9.61888  71 
  -3  -3   2 175.322 10.0352  69 
  -3  -3   2 188.542 9.51171  70 
  -3  -3   2 178.576 9.53124  46 
   3  -3  -2 181.878 9.76081  69 
   3   3  -2 184.502 9.68974  77 
   3   3  -2 137.623 17.9546  66 
   2  -3  -2 169.916 8.27471  70 
   2  -3  -2 171.664 8.37815  50 
   2  -3  -2 166.144 8.35013  50 
   2  -3  -2 176.574 8.63764  69 
  -2  -3   2 169.155 8.67189  50 
  -2  -3   2 164.314 8.57227  70 
  -2  -3   2 157.876 9.55085  65 
  -2  -3   2 166.296 9.03098  69 
   2  -3  -2 161.346 9.08352  64 
   2   3  -2 162.318 12.6829  66 
  -2   3   2 166.470 9.18368  68 
  -2   3   2 167.251 9.98585  54 
  -2   3   2 169.289 10.3490  66 
  -2   3   2 155.958 10.2489  66 
  -2   3   2 184.816 10.9981  52 
   1  -3  -2 161.321 8.39710  64 
   1  -3  -2 164.767 8.29043  64 
  -1  -3   2 165.781 8.14471  50 
  -1  -3   2 154.687 8.86047  65 
  -1  -3   2 157.038 9.04636  64 
  -1  -3   2 158.765 8.42514  48 
  -1  -3   2 167.993 8.18188  49 
  -1  -3   2 152.068 8.10928  50 
  -1  -3   2 157.475 8.04407  70 
  -1   3   2 166.883 9.70856  54 
   1   3  -2 154.610 10.0378  52 
  -1   3   2 139.841 9.90372  52 
   1   3  -2 166.743 11.3522  66 
   0  -3   2 731.273 36.5518  65 
   0  -3  -2 757.217 36.2274  64 
   0  -3   2 707.437 35.8253  50 
   0  -3  -2 782.254 35.8992  69 
   0  -3   2 738.100 35.8510  49 
   0  -3   2 738.159 36.1080  69 
   0  -3  -2 731.205 36.2037  64 
   0  -3   2 751.711 35.8459  50 
   0  -3  -2 740.750 35.7663  69 
   0  -3   2 760.320 36.7644  64 
   0  -3   2 715.609 35.7743  70 
   0   3   2 689.148 37.2202  54 
   0   3  -2 691.239 38.4270  66 
   0   3  -2 721.641 37.8387  52 
  -1  -3  -2 335.967 18.7003  65 
  -1  -3  -2 380.625 18.0717  50 
  -1  -3  -2 398.988 18.3504  69 
   1  -3   2 376.359 17.9932  46 
   1  -3   2 360.334 18.1105  49 
   1  -3   2 366.430 18.1307  50 
   1  -3   2 382.137 18.1530  50 
  -1  -3  -2 366.357 18.0505  50 
  -1  -3  -2 388.212 17.9988  70 
   1  -3   2 348.935 18.8860  65 
   1  -3   2 370.224 18.4822  69 
   1  -3   2 356.249 18.0674  70 
  -1   3  -2 368.640 21.3560  66 
  -1   3  -2 359.127 20.1884  52 
   1   3   2 323.161 19.4149  54 
  -2  -3  -2 70.1967 4.62424  48 
   2  -3   2 74.4360 4.26238  50 
   2  -3   2 80.9800 4.27804  70 
  -2  -3  -2 75.3859 4.29675  50 
  -2  -3  -2 83.9903 4.19589  46 
   2  -3   2 77.6343 4.70849  48 
   2  -3   2 80.3297 4.33032  49 
   2  -3   2 70.3884 5.15919  65 
  -2  -3  -2 75.0316 4.64933  69 
   2  -3   2 74.2524 4.74140  69 
  -2  -3  -2 80.8741 4.24629  70 
   2  -3   2 72.9551 4.15291  46 
  -2  -3  -2 69.7276 5.11442  65 
  -2   3  -2 71.2350 4.29670  77 
  -2   3  -2 66.8793 7.64992  66 
  -2   3  -2 77.6194 6.60905  52 
   2   3   2 81.4574 6.06268  54 
   2   3   2 77.2705 4.39994  77 
  -3  -3  -2 171.808 9.69701  48 
  -3  -3  -2 193.227 9.29425  70 
   3  -3   2 166.750 9.26212  70 
  -3  -3  -2 140.833 10.0965  71 
  -3  -3  -2 182.974 10.0730  44 
   3  -3   2 177.951 9.68997  48 
   3  -3   2 186.492 9.18060  46 
  -3  -3  -2 185.001 9.22936  46 
   3  -3   2 168.332 9.89777  44 
   3  -3   2 172.727 9.94798  69 
  -3  -3  -2 150.154 9.69525  69 
   3  -3   2 176.322 9.25387  49 
   3   3   2 169.869 10.4966  43 
  -3   3  -2 181.167 11.7357  52 
  -3   3  -2 174.090 9.21920  77 
  -3   3  -2 193.316 10.3522  42 
   3   3   2 198.791 9.48813  77 
   4  -3   2 75.1386 4.87344  71 
  -4  -3  -2 77.9070 6.14035  44 
  -4  -3  -2 72.3240 5.22936  75 
   4  -3   2 74.5081 4.55044  46 
  -4  -3  -2 76.6475 5.30357  47 
  -4  -3  -2 73.3862 4.95146  71 
   4  -3   2 57.4942 5.15228  69 
   4  -3   2 73.9906 5.92453  44 
   4  -3   2 68.9125 4.68739  70 
  -4  -3  -2 80.4980 5.01605  45 
   4  -3   2 72.1192 5.55307  48 
   4  -3   2 78.9395 4.87403  49 
  -4  -3  -2 71.6296 4.69147  46 
  -4  -3  -2 74.2336 4.63470  70 
   4   3   2 61.2390 6.05246  40 
   4   3   2 77.7220 6.79927  43 
  -4   3  -2 76.4583 5.67022  42 
  -4   3  -2 70.9613 4.82941  77 
   4   3   2 69.1819 5.25214  77 
  -5  -3  -2 15.3215 3.76399  47 
   5  -3   2 12.3846 3.59247  75 
   5  -3   2 14.0863 4.92059  44 
   5  -3   2 8.70275 2.58404  46 
   5  -3   2 6.91247 2.44194  49 
   5  -3   2 12.6026 3.05596  71 
  -5  -3  -2 13.6940 3.13143  45 
  -5  -3  -2 7.59878 2.66843  75 
   5  -3   2 7.99113 2.31074  45 
   5  -3   2 5.55136 3.24051  79 
   5  -3   2 8.80946 3.44746  48 
  -5  -3  -2 5.65138 2.45089  44 
  -5  -3  -2 8.36290 2.40795  71 
   5   3   2 13.6797 3.57589  40 
   5   3   2 12.0697 4.40151  38 
   5   3   2 10.4905 3.34995  77 
  -5   3  -2 5.99936 2.61849  77 
   5   3   2 10.5061 3.74561  43 
  -6  -3  -2 174.894 10.5723  75 
   6  -3   2 181.407 10.6759  75 
  -6  -3  -2 181.806 10.2602  71 
  -6  -3  -2 167.783 10.0952  45 
   6  -3   2 175.631 10.8079  41 
   6  -3   2 165.083 10.2206  45 
  -6  -3  -2 173.103 11.6897  44 
   6  -3   2 182.485 10.0743  71 
   6  -3   2 162.789 11.0397  48 
   6  -3   2 171.206 11.7109  44 
   6  -3   2 182.197 11.6730  79 
  -6  -3  -2 182.127 10.6479  47 
  -6   3  -2 176.726 10.1452  77 
   6   3   2 195.537 11.6269  43 
   6   3   2 202.661 11.5083  40 
   6   3   2 181.414 11.1187  38 
   6   3   2 151.816 10.5200  77 
  -7  -3  -2 26.9708 4.53398  75 
   7  -3   2 23.0239 6.38766  44 
  -7  -3  -2 29.0019 4.32920  27 
   7  -3   2 30.1617 5.83305  41 
  -7  -3  -2 27.8943 6.23760  44 
   7  -3   2 22.4340 4.58341  27 
   7  -3   2 27.5872 5.96533  79 
   7  -3   2 34.4625 4.66096  75 
   7  -3   2 15.0282 5.41528  33 
   7   3   2 29.7318 3.89551  32 
  -7   3  -2 29.7692 4.14491  77 
   7   3   2 16.4077 5.20235   7 
  -7   3  -2 25.9884 4.88206  14 
   7   3   2 26.8190 5.68954  40 
  -7   3  -2 26.1173 3.30969  32 
  -7   3  -2 25.3311 5.50622  25 
   7   3   2 30.1243 5.17505  77 
  -7   3  -2 24.3451 4.39723   7 
   7   3   2 30.0090 4.48130  28 
  -7   3  -2 29.7543 5.42055   6 
   7   3   2 35.8173 5.11594  30 
   7   3   2 24.2207 3.81385  16 
   7   3   2 26.5567 5.99384  38 
   7   3   2 32.8338 3.92888   1 
   7   3   2 29.1678 4.52862  13 
   7   3   2 29.6742 4.21373   3 
   7   3   2 22.5457 4.95654   4 
  -7   3  -2 29.2946 3.44668   3 
  -7   3  -2 29.1619 3.97667  30 
  -7   3  -2 27.7834 6.10421  29 
   7   3   2 38.4188 5.09624  31 
  -7   3  -2 29.0281 3.13407   1 
  -7   3  -2 26.6305 3.57062  28 
  -7   3  -2 30.5435 4.13825  31 
   8  -3   2 104.589 8.59519  79 
  -8  -3  -2 112.582 7.09879  27 
   8  -3   2 98.8951 9.04454  24 
   8  -3   2 108.839 7.28183  27 
   8  -3   2 110.162 8.04096  41 
   8  -3   2 116.903 8.13395  33 
   8   3   2 107.846 7.35969   4 
  -8   3  -2 110.663 6.69320  28 
   8   3   2 113.169 7.81680  30 
   8   3   2 113.642 9.20021  15 
   8   3   2 107.947 6.41144  16 
   8   3   2 108.089 7.04649   3 
  -8   3  -2 128.105 7.75924  25 
   8   3   2 112.948 6.95343  32 
   8   3   2 119.973 8.17553   7 
   8   3   2 112.700 6.87776   1 
  -8   3  -2 129.725 7.60530  14 
  -8   3  -2 110.400 6.78325  17 
  -8   3  -2 107.807 8.18629   6 
   8   3   2 114.671 7.75622  31 
   8   3   2 116.694 7.24604  28 
  -8   3  -2 107.916 6.47681   3 
  -8   3  -2 121.864 7.89577   2 
  -8   3  -2 116.703 7.15059  30 
   8   3   2 103.208 8.35940  13 
  -8   3  -2 104.084 6.26436  32 
   8   3   2 105.999 8.12568  38 
  -8   3  -2 113.140 6.21243   1 
  -8   3  -2 109.752 7.32183   7 
  -8   3  -2 117.012 7.07401  31 
   9  -3   2 105.434 7.48758  24 
  -9  -3  -2 88.7491 6.29749  19 
   9  -3   2 101.171 6.10947  27 
  -9  -3  -2 88.8145 6.21094  18 
  -9  -3  -2 83.4315 5.77680  27 
   9  -3   2 98.9886 6.59771  33 
  -9  -3  -2 94.6709 6.59366  20 
   9   3   2 81.7265 5.98606   4 
  -9   3  -2 97.3253 5.69295  31 
  -9   3  -2 98.0307 5.43327   3 
   9   3   2 90.4202 5.68738   3 
  -9   3  -2 92.6651 5.86128  30 
  -9   3  -2 89.0738 5.55912  17 
   9   3   2 85.7249 6.21814  31 
   9   3   2 93.9261 6.60955   7 
  -9   3  -2 97.6672 6.71575   6 
   9   3   2 97.8910 5.37659   1 
  -9   3  -2 84.6868 6.10899   7 
  -9   3  -2 93.5010 6.19006  14 
   9   3   2 100.796 6.47453  30 
  -9   3  -2 87.0456 5.51099  28 
   9   3   2 86.5017 6.82044  15 
   9   3   2 89.0965 5.56194  32 
   9  -4  -2 38.7777 5.55350  24 
  -9  -4   2 36.0035 3.61496  27 
   9  -4  -2 48.9811 4.21822  27 
  -9   4   2 38.5801 2.98307  30 
   9   4  -2 41.3942 3.80402  31 
  -9   4   2 42.3727 4.16596   6 
   9   4  -2 46.0034 3.77493  28 
   9   4  -2 40.0195 4.15786  10 
  -9   4   2 43.9614 4.12695  14 
   9   4  -2 39.0630 4.32107   7 
  -9   4   2 44.2335 3.14993  29 
   9   4  -2 36.8356 5.21794  15 
  -9   4   2 48.7289 3.16218  28 
   9   4  -2 46.3153 4.02822  30 
   8  -4  -2 107.909 7.35240  27 
  -8  -4   2 121.012 7.32775  27 
  -8   4   2 118.516 6.44233  30 
   8   4  -2 107.672 7.14264  28 
  -8   4   2 107.971 8.08120   6 
   8   4  -2 116.909 7.85959   7 
  -8   4   2 113.698 6.59533  29 
  -8   4   2 116.462 7.40561  14 
  -8   4   2 109.982 7.49270  25 
   8   4  -2 107.922 7.31946  30 
   8   4  -2 126.518 7.95276  35 
   8   4  -2 116.537 7.17999  31 
  -8   4   2 112.486 6.59722  28 
   8   4  -2 116.847 8.04399  23 
   8   4  -2 122.942 8.24331  10 
  -7  -4   2 25.9628 4.32770  27 
   7   4  -2 18.1131 3.89996  28 
  -7   4   2 28.5848 3.15296  29 
  -7   4   2 23.1292 4.89262  14 
  -7   4   2 23.3546 5.29097   6 
   7   4  -2 21.9816 2.58118  32 
   7   4  -2 25.9268 3.24995   3 
   7   4  -2 27.6915 4.47731  31 
  -7   4   2 22.8415 3.13643  28 
  -7   4   2 27.9724 3.16695  30 
   7   4  -2 13.6388 3.49619   7 
   7   4  -2 20.8996 5.72439  23 
   7   4  -2 18.9736 5.46851  10 
   7   4  -2 27.1044 4.45759  30 
   7   4  -2 19.5158 3.94282  29 
   7   4  -2 24.4188 3.34972  77 
  -7   4   2 24.7793 5.02442  25 
   6  -4  -2 134.483 9.18382  44 
  -6  -4   2 127.646 8.07582  75 
  -6  -4   2 125.453 9.35149  44 
   6   4  -2 119.671 7.88487  30 
   6   4  -2 123.435 7.34496  77 
   6   4  -2 128.782 7.80725  28 
   6   4  -2 115.323 8.50200   7 
  -6   4   2 123.694 9.25391   6 
   6   4  -2 126.144 7.94152  31 
  -6   4   2 123.180 7.16537  28 
   6   4  -2 122.046 7.65943  29 
   6   4  -2 124.093 9.32201  23 
   6   4  -2 127.815 7.09971   3 
  -6   4   2 125.445 8.42999  25 
   6   4  -2 113.323 9.09915  10 
  -6   4   2 113.236 6.99648  30 
  -6   4   2 127.650 7.01106  29 
   6   4  -2 126.558 6.77651  32 
  -5  -4   2 3.79798 2.96670  48 
  -5  -4   2 2.98217 1.95072  46 
   5  -4  -2 2.55142 1.21847  70 
   5  -4  -2 5.28642 1.78812  46 
  -5  -4   2 1.00810 2.40281  44 
   5  -4  -2 1.90695 2.30950  44 
  -5   4   2 2.38491 2.15929  80 
   5   4  -2 5.02015 3.22172  40 
   5   4  -2 3.55630 2.30326  77 
   5   4  -2 4.90428 1.76955  35 
  -4  -4   2 119.112 7.15124  49 
  -4  -4   2 112.845 6.83696  70 
   4  -4  -2 114.334 6.60950  46 
   4  -4  -2 131.187 6.64586  70 
  -4  -4   2 122.736 8.43946  44 
  -4  -4   2 113.873 7.78414  48 
  -4  -4   2 116.090 6.97110  46 
  -4   4   2 126.017 6.69461  80 
   4   4  -2 122.521 6.88316  35 
   4   4  -2 115.650 9.56977  82 
   4   4  -2 115.304 7.83400  39 
   4   4  -2 130.010 8.40368  40 
  -3  -4   2 196.675 11.0978  69 
   3  -4  -2 193.912 10.6735  69 
  -3  -4   2 196.874 10.5983  49 
  -3  -4   2 202.655 11.0954  48 
  -3  -4   2 204.367 10.4875  70 
   3  -4  -2 204.567 10.1911  70 
   3  -4  -2 203.615 10.2367  50 
   3  -4  -2 193.521 10.1404  46 
  -3  -4   2 197.431 10.5188  46 
  -3  -4   2 190.101 13.7152  44 
   3   4  -2 198.532 11.8991  43 
   3   4  -2 205.810 10.5514  80 
  -3   4   2 215.529 10.2286  80 
   3   4  -2 194.080 11.5078  39 
   3   4  -2 200.958 11.7254  40 
   3   4  -2 199.676 13.0345  82 
  -2  -4   2 767.043 36.5897  70 
  -2  -4   2 791.703 36.5771  46 
   2  -4  -2 790.489 36.3058  50 
   2  -4  -2 718.249 36.3000  50 
   2  -4  -2 756.109 36.5972  69 
   2  -4  -2 746.011 36.2538  70 
  -2  -4   2 748.628 37.1206  69 
  -2  -4   2 751.369 36.5880  49 
  -2  -4   2 732.935 36.6293  50 
  -2   4   2 708.515 36.2222  80 
   2   4  -2 652.749 38.3229  39 
   2   4  -2 750.613 37.8202  43 
  -2   4   2 741.355 36.2420  80 
   2   4  -2 736.417 37.4340  40 
   2   4  -2 725.347 36.5037  80 
   2   4  -2 752.346 38.4458  82 
  -1  -4   2 117.992 6.06214  46 
  -1  -4   2 117.796 6.16200  50 
  -1  -4   2 118.688 6.51298  69 
   1  -4  -2 117.958 5.86824  69 
  -1   4   2 105.916 7.56946  43 
   1   4  -2 114.474 6.10123  80 
   1   4  -2 112.834 8.22188  43 
  -1   4   2 110.300 8.74955  82 
   1   4  -2 99.8662 9.71222  82 
   0  -4   2 428.725 21.2688  50 
   0  -4   2 426.977 21.6212  69 
   0  -4  -2 433.934 21.2118  69 
   0  -4   2 448.397 21.2365  70 
   0  -4   2 466.318 21.1666  46 
   0   4   2 412.008 22.5216  43 
   0   4  -2 416.829 21.1881  80 
   0   4   2 426.941 23.1509  82 
   0   4  -2 416.400 24.2896  52 
   0   4   2 434.004 21.0260  80 
   0   4  -2 423.655 22.3460  42 
   0   4  -2 443.108 22.6564  43 
   0   4   2 407.671 21.0149  80 
   0   4  -2 426.860 23.5575  82 
  -1  -4  -2 710.069 33.4769  70 
  -1  -4  -2 678.661 33.8247  69 
  -1  -4  -2 684.045 33.5187  50 
   1  -4   2 728.849 33.5731  70 
   1  -4   2 679.446 33.4758  46 
   1  -4   2 668.390 33.5864  50 
   1  -4   2 718.974 34.0414  69 
  -1  -4  -2 650.855 33.3910  46 
  -1   4  -2 661.819 36.5337  82 
   1   4   2 642.544 34.9036  43 
   1   4   2 645.313 34.4241  40 
  -1   4  -2 669.717 34.6071  42 
   1   4   2 709.284 33.5044  80 
   1   4   2 708.046 35.4014  82 
  -2  -4  -2 49.3978 3.23407  50 
   2  -4   2 50.6253 3.16223  50 
  -2  -4  -2 48.9326 3.08807  70 
   2  -4   2 45.8359 3.58848  49 
  -2  -4  -2 44.3358 3.44445  69 
   2  -4   2 48.7023 3.60313  69 
   2  -4   2 51.0442 3.11720  46 
   2  -4   2 50.7875 3.12798  70 
  -2  -4  -2 54.3790 3.16274  46 
   2   4   2 38.4230 5.20469  43 
  -2   4  -2 46.2003 3.24922  80 
  -2   4  -2 44.2626 4.71590  39 
   2   4   2 44.5590 3.45138  80 
   2   4   2 54.6332 7.04634  82 
  -2   4  -2 49.5145 4.70621  42 
   2   4   2 50.7728 5.61422  40 
  -3  -4  -2 13.3147 2.48838  69 
   3  -4   2 13.5623 2.11000  46 
  -3  -4  -2 14.0315 2.22687  46 
   3  -4   2 14.5679 2.49451  49 
  -3  -4  -2 12.9337 2.02140  70 
   3  -4   2 13.8248 2.03568  70 
  -3  -4  -2 14.4665 4.78877  44 
   3   4   2 14.0200 3.91812  43 
   3   4   2 22.4266 4.46197  37 
   3   4   2 19.5186 4.65617  40 
  -3   4  -2 16.6952 2.48698  80 
  -3   4  -2 17.3869 5.18048  36 
  -3   4  -2 15.2216 4.24629  42 
   3   4   2 16.6696 2.85736  80 
  -4  -4  -2 182.037 9.97781  46 
   4  -4   2 156.777 9.86899  70 
   4  -4   2 180.845 9.83442  46 
   4  -4   2 172.422 11.0728  44 
  -4  -4  -2 203.371 11.5270  44 
  -4  -4  -2 194.115 9.98455  70 
   4  -4   2 192.447 10.6116  48 
   4   4   2 177.684 11.4388  40 
  -4   4  -2 191.950 10.0328  80 
   4   4   2 180.769 9.70739  35 
   4   4   2 175.454 9.70738  35 
   4   4   2 187.070 12.1100  43 
  -4   4  -2 203.220 11.4798  42 
   5  -4   2 283.969 13.8310  46 
  -5  -4  -2 283.473 15.5680  44 
  -5  -4  -2 287.704 14.6349  47 
   5  -4   2 269.163 15.3179  44 
   5  -4   2 264.342 14.5019  48 
  -5  -4  -2 250.872 13.8150  46 
  -5   4  -2 270.614 13.1177  35 
   5   4   2 240.526 14.9623  30 
   5   4   2 241.303 15.6128  31 
  -5   4  -2 235.672 17.4423   6 
  -5   4  -2 289.120 15.3975   8 
   5   4   2 239.949 14.7194  29 
   5   4   2 207.863 14.2871  28 
  -5   4  -2 272.087 13.0974  35 
  -5   4  -2 261.758 13.8900  28 
  -5   4  -2 250.165 13.8482  30 
   5   4   2 279.665 15.3924  40 
   5   4   2 269.752 13.6698  35 
   5   4   2 266.757 15.7075  43 
  -5   4  -2 277.105 16.0693  25 
  -5   4  -2 215.464 13.8611  29 
   5   4   2 263.224 15.0630  38 
   6  -4   2 184.277 11.9374  44 
  -6  -4  -2 175.071 11.8419  44 
  -6  -4  -2 151.420 10.5056  75 
  -6   4  -2 195.600 9.43439  35 
   6   4   2 190.330 11.8449  40 
  -6   4  -2 172.907 9.90171  31 
  -6   4  -2 188.080 10.7026   8 
  -6   4  -2 188.167 9.92962  28 
  -6   4  -2 191.253 11.1185  25 
  -6   4  -2 197.671 11.7770   6 
  -6   4  -2 183.000 10.7674  14 
   6   4   2 182.328 10.2063  28 
  -6   4  -2 182.143 9.41133  35 
   6   4   2 185.599 10.3906  31 
   6   4   2 188.396 11.4551  38 
  -6   4  -2 182.120 9.85284  29 
  -6   4  -2 191.026 9.97689  30 
   6   4   2 181.264 10.1410  29 
   6   4   2 175.697 10.6794   7 
   6   4   2 203.146 10.4699  30 
   6   4   2 177.496 10.0374  35 
   6   4   2 186.424 12.0215  43 
   7  -4   2 29.0040 4.50640  27 
  -7  -4  -2 36.1030 4.26712  27 
  -7   4  -2 34.4991 4.82655  14 
  -7   4  -2 31.4793 5.39628   6 
   7   4   2 30.8527 4.21292  31 
  -7   4  -2 39.0007 5.16994  25 
   7   4   2 33.2502 4.01640  29 
   7   4   2 26.4063 5.36906  38 
   7   4   2 31.7986 3.39269  35 
   7   4   2 37.1583 4.13402  30 
  -7   4  -2 37.3064 3.36430  29 
  -7   4  -2 39.4317 3.42808  31 
  -7   4  -2 39.5297 3.56343  28 
  -7   4  -2 34.0477 3.56015  30 
   7   4   2 35.7948 4.09014  28 
  -7   4  -2 41.0950 4.19852   7 
   7   4   2 39.5186 4.97780   7 
   8  -4   2 21.7851 5.53618  24 
   8  -4   2 28.0768 3.80220  27 
  -8  -4  -2 22.0570 3.35553  27 
   8  -4   2 23.8382 4.33582  33 
  -8   4  -2 24.4050 2.67978  28 
   8   4   2 29.1186 3.52435  30 
  -8   4  -2 27.7513 4.21310   6 
  -8   4  -2 26.0501 3.36075   7 
  -8   4  -2 17.6679 3.51598  14 
   8   4   2 21.9217 2.25514  35 
   8   4   2 26.5739 3.49867  31 
   8   4   2 26.9395 3.33456  28 
  -8   4  -2 23.0113 2.67738  29 
  -8   4  -2 22.6218 3.13362  17 
   8   4   2 24.0536 6.33855  15 
   8   4   2 23.1278 4.23959   7 
  -8   4  -2 22.6809 2.63956  30 
  -8   4  -2 28.6105 4.27864  25 
  -8  -5   2 6.93344 2.36474  27 
  -8   5   2 4.82878 1.39405  11 
   8   5  -2 2.78257 2.01865  10 
  -8   5   2 3.83093 0.99004  26 
  -8   5   2 6.60589 2.07419  25 
  -8   5   2 5.79973 1.60254  28 
   8   5  -2 3.03576 1.67200  28 
  -8   5   2 4.84054 1.10968  29 
   8   5  -2 1.28122 1.50637  29 
  -7  -5   2 29.0875 3.77570  27 
  -7   5   2 35.7482 2.57355  26 
  -7   5   2 33.6285 2.47033  11 
  -7   5   2 25.8526 2.64325  28 
  -7   5   2 26.3751 2.54832  29 
   7   5  -2 27.2229 4.62244  10 
   7   5  -2 18.8919 4.42706  23 
   7   5  -2 31.0279 3.27648  29 
   7   5  -2 27.6746 3.44952  28 
   7   5  -2 23.9950 2.64029  30 
  -7   5   2 27.0102 4.32073   6 
  -7   5   2 33.3965 4.42592  25 
  -6   5   2 17.2520 4.72294   6 
  -6   5   2 19.4897 2.92022  80 
   6   5  -2 23.0918 3.20720  29 
  -6   5   2 21.4018 2.24488  26 
  -6   5   2 18.0016 2.12991  11 
   6   5  -2 11.6495 3.30887  10 
   6   5  -2 14.5464 5.07271  23 
  -6   5   2 21.9995 2.47073  29 
   6   5  -2 18.5548 2.72854  30 
   6   5  -2 21.5870 3.62463  28 
  -6   5   2 24.9333 4.64738  25 
   5   5  -2 153.533 8.89188  80 
   5   5  -2 175.504 10.7067  23 
   5   5  -2 138.766 9.41703  30 
  -5   5   2 160.172 8.27892  11 
  -5   5   2 165.848 9.42974   8 
  -5   5   2 167.275 8.35120  26 
  -5   5   2 156.394 9.81963   9 
  -5   5   2 162.859 9.95170  25 
   5   5  -2 159.987 10.3393  10 
  -5   5   2 152.994 10.2265   6 
  -5   5   2 163.387 8.16859  80 
   5   5  -2 164.583 8.86876  29 
   5   5  -2 157.479 9.01744  28 
  -5   5   2 157.695 8.35016  29 
  -4  -5   2 49.2185 5.74865  44 
  -4   5   2 51.4875 3.34934  12 
  -4   5   2 49.0228 3.45702   9 
   4   5  -2 56.0455 8.64619  82 
  -4   5   2 51.1256 3.09374  26 
   4   5  -2 45.5651 3.67846  11 
   4   5  -2 48.1327 5.66171  39 
   4   5  -2 47.6057 3.99455  29 
   4   5  -2 46.5793 6.63019  23 
  -4   5   2 44.0815 5.73429  25 
   4   5  -2 51.6737 6.03341  10 
  -4   5   2 53.0660 5.16555   8 
  -4   5   2 48.3674 2.98864  11 
   4   5  -2 43.1087 3.82344  80 
   4   5  -2 48.9616 4.54764  28 
  -3  -5   2 120.002 7.25613  46 
   3  -5  -2 128.885 6.84050  46 
  -3   5   2 120.158 6.51902  11 
  -3   5   2 127.915 6.87075   9 
   3   5  -2 132.977 9.02648  10 
  -3   5   2 137.012 8.66697  25 
   3   5  -2 125.246 7.10320  29 
   3   5  -2 140.139 11.1381  82 
   3   5  -2 126.579 7.10793  80 
  -3   5   2 125.706 6.57671  26 
   3   5  -2 133.694 9.99224  36 
   3   5  -2 132.070 9.35281  43 
   3   5  -2 130.814 7.02672  11 
  -3   5   2 138.580 8.61833   8 
   3   5  -2 138.329 9.47380  23 
   3   5  -2 138.229 8.95035  39 
  -3   5   2 125.109 6.72514  12 
  -2  -5   2 36.2905 2.95188  46 
   2   5  -2 30.6222 6.09376  36 
   2   5  -2 43.7296 8.18319  82 
   2   5  -2 37.1999 6.40041  43 
   2   5  -2 38.2192 5.35937  39 
   2   5  -2 36.0579 2.82618  80 
  -1  -5   2 2.13240 1.22894  46 
  -1  -5   2 2.28852 0.80845  70 
   1   5  -2 3.66032 1.32800  80 
   1   5  -2 0.05457 3.04017  36 
  -1   5   2 0.42732 2.87068  43 
   1   5  -2 2.56326 1.26797  80 
   1   5  -2 5.93773 6.72147  82 
   1   5  -2 5.67895 3.32533  39 
   0  -5   2 34.8609 2.51080  46 
   0  -5  -2 34.2676 2.02244  70 
   0   5  -2 41.2771 8.30730  82 
   0   5  -2 34.2738 6.32395  36 
   0   5  -2 42.9098 5.65359  39 
   0   5   2 30.6896 5.91315  43 
   0   5   2 40.6349 4.73132  37 
  -1  -5  -2 57.5914 3.55041  46 
   1  -5   2 60.4189 3.64785  46 
   1   5   2 68.3537 6.26013  40 
  -1   5  -2 65.3592 7.11557  36 
   1   5   2 56.8637 5.63772  37 
  -1   5  -2 68.5622 6.35618  39 
   1   5   2 62.0951 6.49615  43 
  -2  -5  -2 311.500 16.2690  46 
   2  -5   2 271.744 16.1382  46 
  -2   5  -2 342.379 15.9650  80 
  -2   5  -2 349.275 18.2664  36 
   2   5   2 349.568 16.0493  80 
   2   5   2 315.649 18.4051  43 
   2   5   2 341.941 17.9113  40 
  -2   5  -2 294.061 16.4762  26 
   2   5   2 352.846 16.6209  11 
  -2   5  -2 323.625 17.7345  42 
  -2   5  -2 328.055 15.8907  80 
   2   5   2 300.909 17.2204   9 
  -2   5  -2 340.887 16.3850  11 
   2   5   2 301.276 17.3874  37 
  -2   5  -2 316.988 16.9240   9 
   3   5   2 52.2674 6.95661  43 
  -3   5  -2 40.5459 5.24338  42 
   3   5   2 43.4650 3.13706  11 
  -3   5  -2 42.4158 5.28623   8 
  -3   5  -2 45.5732 3.37981   9 
   3   5   2 38.9415 3.51182  29 
  -3   5  -2 43.3538 2.89831  26 
  -3   5  -2 40.0320 3.09055  29 
  -3   5  -2 41.1216 2.80907  11 
  -3   5  -2 40.8593 2.84547  80 
   3   5   2 41.8810 6.23141  40 
   3   5   2 39.9613 4.29442   9 
   3   5   2 45.5007 3.37745  80 
   3   5   2 52.0700 8.06080  10 
  -4  -5  -2 101.817 7.86221  44 
  -4   5  -2 97.0734 5.73739  80 
   4   5   2 105.973 6.16956  29 
   4   5   2 106.851 6.57448  28 
   4   5   2 103.804 5.94784  11 
  -4   5  -2 108.549 5.67905  26 
  -4   5  -2 99.9538 7.14820   8 
  -4   5  -2 94.5429 7.62281  25 
   4   5   2 108.200 8.91474  43 
  -4   5  -2 101.884 5.71476  29 
   4   5   2 100.202 8.26221  40 
   4   5   2 98.1411 6.24623  80 
  -4   5  -2 107.789 5.65365  11 
  -5   5  -2 61.7857 5.77229  25 
   5   5   2 39.3322 6.39484  43 
  -5   5  -2 52.0358 3.29523  11 
  -5   5  -2 54.1626 3.53055  29 
  -5   5  -2 48.2368 3.29903  26 
   5   5   2 48.9328 4.01685  11 
  -5   5  -2 45.2301 3.43863  80 
  -5   5  -2 47.9258 3.49990  28 
   5   5   2 49.1898 4.05389  29 
  -5   5  -2 45.1714 4.92568   8 
   5   5   2 43.0492 4.11301  28 
   5   5   2 52.5292 6.30698  40 
   5   5   2 46.1456 4.08647  80 
   6   5   2 55.6767 4.42188  28 
  -6   5  -2 65.4016 3.93577  29 
   6   5   2 70.7836 4.60415  29 
  -6   5  -2 60.3385 5.75058   6 
  -6   5  -2 67.9027 5.18297   8 
  -6   5  -2 62.0672 3.77637  11 
   6   5   2 68.8605 8.61898  40 
  -6   5  -2 59.4187 3.96311  28 
  -6   5  -2 57.5270 5.55836  25 
  -7  -5  -2 15.5463 2.82988  27 
  -7   5  -2 11.6095 1.92644  29 
  -7   5  -2 9.57276 3.44376   6 
  -7   5  -2 11.3254 1.71237  11 
  -7   5  -2 10.9096 3.27075  25 
  -7   5  -2 16.1563 3.06937   8 
   7   5   2 14.5257 2.53558  29 
   7   5   2 8.90955 2.54033  28 
  -7   5  -2 11.7314 1.88597  28 
   6   6  -2 3.65406 1.17525  29 
   6   6  -2 6.20024 1.46114  11 
  -6   6   2 5.10343 1.79255   9 
   6   6  -2 6.07048 2.46219  23 
   6   6  -2 2.65639 2.19608  10 
   5   6  -2 5.68341 2.88565  10 
   5   6  -2 9.24737 1.64793  11 
   5   6  -2 7.23890 2.90664  23 
   5   6  -2 6.54350 1.89225  29 
  -5   6   2 10.6456 2.03616   9 
  -4   6   2 30.3140 2.42659   9 
   4   6  -2 27.5141 2.08002  11 
   4   6  -2 19.4486 4.89725  23 
   4   6  -2 25.2388 3.28280   9 
   4   6  -2 23.2122 2.60030  12 
   4   6  -2 16.5275 5.11094  10 
   4   6  -2 18.2850 2.25017  29 
   3   6  -2 54.5813 6.06010  23 
  -3   6   2 52.3650 3.01029   9 
   3   6  -2 50.8066 3.30655  12 
   3   6  -2 37.5190 8.24135  82 
   3   6  -2 46.7589 5.86801  10 
   3   6  -2 40.9417 5.52623  39 
   3   6  -2 50.4887 3.77397   9 
   3   6  -2 47.7230 2.88648  11 
   2   6  -2 8.29338 3.32669  36 
   2   6  -2 15.1740 5.15992  10 
   2   6  -2 13.1946 2.39234   9 
   2   6  -2 14.7294 1.35948  26 
   2   6  -2 15.9245 5.57215  23 
   2   6  -2 2.84947 3.25731  39 
   2   6  -2 11.2221 1.73153  12 
   2   6  -2 13.0971 1.60755  12 
   2   6  -2 8.55890 6.71875  82 
   1   6  -2 159.749 10.2487  23 
   1   6  -2 146.200 10.3066  36 
   1   6  -2 137.976 7.62449  12 
   1   6  -2 160.375 7.66313  12 
   1   6  -2 150.968 8.01955   9 
   1   6  -2 157.438 9.94394  10 
   1   6  -2 146.325 9.68733  39 
   1   6  -2 166.709 12.2748  82 
   0   6  -2 160.124 7.92299   9 
   0   6  -2 148.252 9.44020  39 
   0   6  -2 154.877 11.9508  82 
   0   6  -2 140.596 10.0977  36 
   1   6   2 151.720 7.60176   9 
  -1   6  -2 154.308 9.05936   8 
  -1   6  -2 143.043 7.64590   9 
   1   6   2 142.267 10.0885  43 
  -2   6  -2 89.5258 5.03588   9 
   2   6   2 94.9828 5.23474   9 
   2   6   2 88.6878 4.73551  12 
   2   6   2 92.6235 4.74170  12 
  -2   6  -2 90.2570 4.64267  12 
  -2   6  -2 92.8640 4.68820  12 
   2   6   2 80.9570 6.91056  10 
   2   6   2 95.0164 9.84785  43 
  -2   6  -2 93.8259 6.67499   8 
  -3   6  -2 44.5840 2.60201  12 
   3   6   2 32.6182 5.24317  10 
   3   6   2 48.9600 3.44766   9 
   3   6   2 44.1431 2.93760  12 
  -3   6  -2 46.0590 3.06572   9 
   3   6   2 38.8672 2.85944  12 
  -3   6  -2 44.5279 4.87810   8 
  -3   6  -2 45.1702 2.65025  12 
   4   6   2 7.87031 2.34460   9 
   4   6   2 6.80633 0.98896  11 
  -4   6  -2 9.22565 1.38783  12 
  -4   6  -2 7.84360 1.38696  12 
   4   6   2 6.52137 1.79990  12 
  -4   6  -2 5.36232 2.63167   8 
  -4   6  -2 9.84923 1.86667   9 
   5   6   2 31.9363 2.01910  11 
   5   6   2 36.1677 2.60012  12 
  -5   6  -2 33.6253 2.21838  12 
  -5   6  -2 37.0715 2.18186  12 
  -5   6  -2 36.2778 2.58857   9 
  -5   6  -2 40.6019 3.87483   8 
   5   6   2 31.3756 2.28354  29 
 -11   0   3 2.06659 2.23254  13 
 -11   0   3 1.36515 2.55491   4 
  11   0  -3 3.97633 2.31728  18 
  11   0  -3 2.62081 2.09757  10 
  11   0  -3 1.88065 2.50889  20 
  11   0  -3 0.48107 1.95861  19 
 -11   0   3 2.51471 2.56249   2 
 -11   0   3 1.99475 2.29106   5 
 -10   0   3 209.050 11.9325   2 
  10   0  -3 212.870 11.6979  19 
  10   0  -3 211.361 12.1949  20 
  10   0  -3 205.500 12.1428  41 
 -10   0   3 199.998 11.6913  13 
  10   0  -3 197.970 11.9391  81 
  10   0  -3 215.862 11.7534  18 
 -10   0   3 197.873 12.8498  83 
  10   0  -3 202.759 11.7188  10 
 -10   0   3 187.333 11.6263   5 
 -10   0   3 213.899 11.7350   4 
  -9   0   3 299.781 15.6367   4 
  -9   0   3 285.224 15.8552   5 
   9   0  -3 244.684 26.9439  72 
   9   0  -3 303.965 16.3108  20 
   9   0  -3 278.971 19.2953  76 
  -9   0   3 283.265 16.8868  83 
  -9   0   3 293.286 15.8768  20 
  -9   0   3 277.030 15.1217  81 
   9   0  -3 292.955 16.3103  78 
  -9   0   3 284.398 15.1986  18 
   9   0  -3 300.052 15.6597  19 
   9   0  -3 276.554 16.6037  81 
  -9   0   3 267.941 15.6927  13 
   9   0  -3 289.260 16.2407  41 
  -9   0   3 283.694 15.7513  15 
   9   0  -3 308.277 15.8096  18 
  -9   0   3 290.023 15.2189  19 
  -9   0   3 307.681 15.9716   2 
  -8   0   3 100.182 7.42632  74 
   8   0  -3 83.3534 16.3810  72 
  -8   0   3 111.387 8.69965  83 
   8   0  -3 127.427 13.0159  76 
   8   0  -3 93.1532 8.10649  33 
  -8   0   3 95.7679 7.20429  47 
   8   0  -3 91.2320 7.50129  45 
   8   0  -3 97.8296 7.62573  41 
   8   0  -3 100.667 7.68553  78 
  -8   0   3 97.4419 7.76076  81 
  -8   0   3 92.6226 9.69954  76 
  -7   0   3 88.5805 6.82387  74 
   7   0  -3 99.4680 6.45705  71 
   7   0  -3 96.1007 7.99330  79 
  -7   0   3 95.8416 7.96894  83 
   7   0  -3 113.487 16.2249  72 
  -7   0   3 94.7845 7.22236  78 
   7   0  -3 89.0374 6.63630  75 
   7   0  -3 88.7202 6.60020  45 
   7   0  -3 85.1575 7.31025  78 
  -7   0   3 97.8117 7.70845  81 
  -7   0   3 96.4519 6.69904  47 
   7   0  -3 102.464 7.04266  41 
  -7   0   3 92.7992 10.4294  76 
   6   0  -3 724.028 35.7353  45 
   6   0  -3 745.650 44.0991  72 
   6   0  -3 681.428 39.3393  67 
  -6   0   3 625.453 38.6088  67 
  -6   0   3 678.128 35.8804  74 
   6   0  -3 749.137 35.8007  78 
  -6   0   3 725.264 35.8725  78 
  -6   0   3 748.269 35.7858  47 
   6   0  -3 690.887 35.6411  41 
   6   0  -3 779.283 35.8100  75 
   6   0  -3 704.201 35.5206  71 
  -6   0   3 678.006 38.0358  76 
   6   0  -3 720.421 36.2483  79 
   5   0  -3 2074.83 97.3460  71 
   5   0  -3 1952.40 103.892  72 
   5   0  -3 1910.56 97.4142  75 
  -5   0   3 1872.33 97.8632  71 
  -5   0   3 1943.13 97.6498  74 
   5   0  -3 2119.82 100.260  67 
  -5   0   3 1978.16 97.5078  47 
  -5   0   3 2197.67 100.552  67 
   5   0  -3 1960.61 97.4578  45 
   5   0  -3 1999.49 97.9673  48 
   5   0  -3 1901.25 98.6686  55 
  -5   0   3 1979.29 97.3761  45 
   4   0  -3 847.044 50.1325  57 
   4   0  -3 978.680 52.5241  58 
  -4   0   3 1010.60 51.9189  58 
   4   0  -3 978.351 49.2966  45 
   4   0  -3 1010.76 50.4058  65 
   4   0  -3 1026.57 49.1876  71 
  -4   0   3 1024.97 49.3960  53 
  -4   0   3 1086.65 53.4747  62 
   4   0  -3 1046.12 50.3985  55 
  -4   0   3 1025.66 51.5394  67 
  -4   0   3 1025.59 49.3543  47 
   4   0  -3 967.840 51.2010  67 
   3   0  -3 905.782 48.4022  67 
  -3   0   3 850.652 47.1110  51 
  -3   0   3 937.088 48.9455  58 
  -3   0   3 986.694 47.0829  53 
   3   0  -3 842.420 47.6874  65 
  -3   0   3 969.270 48.7505  67 
   3   0  -3 1011.31 47.8714  57 
   3   0  -3 953.985 49.4521  58 
  -3   0   3 940.238 47.5034  57 
  -3   0   3 1066.53 52.6754  59 
  -3   0   3 1007.78 49.9323  62 
  -3   0   3 1010.63 47.8947  65 
   3   0  -3 977.991 47.7826  55 
   2   0  -3 1734.65 86.8883  64 
   2   0  -3 1751.48 86.9880  67 
   2   0  -3 1889.88 86.5392  60 
   2   0  -3 1827.89 86.4275  61 
   2   0  -3 1766.65 86.4750  61 
   2   0  -3 1784.55 89.7278  59 
  -2   0   3 1847.36 86.5092  65 
  -2   0   3 1876.35 86.2484  57 
   2   0  -3 1784.47 85.9992  51 
   2   0  -3 1718.26 86.3352  55 
   2   0  -3 1797.92 85.9117  53 
  -2   0   3 1605.16 85.9144  51 
  -2   0   3 1812.49 89.8404  59 
  -2   0   3 1732.80 87.1277  67 
   2   0  -3 1884.95 85.9243  63 
  -2   0   3 1804.69 85.9141  63 
  -2   0   3 1760.09 90.1145  59 
   2   0  -3 1712.35 86.3748  65 
   2   0  -3 1867.80 86.4193  57 
  -2   0   3 1572.29 89.1636  66 
  -2   0   3 1722.18 87.3198  58 
  -2   0   3 1676.94 85.8548  53 
  -2   0   3 1813.30 86.3489  61 
  -2   0   3 1609.78 86.4779  68 
   2   0  -3 1628.86 89.8446  59 
   2   0  -3 1791.48 87.7216  58 
   1   0  -3 3392.43 179.936  64 
  -1   0   3 3530.85 182.433  59 
  -1   0   3 3607.14 179.643  61 
   1   0  -3 3548.02 179.676  61 
   1   0  -3 3717.82 179.718  61 
  -1   0   3 3803.34 179.690  61 
  -1   0   3 3612.82 179.206  53 
  -1   0   3 3725.66 179.523  57 
   1   0  -3 3643.34 180.120  67 
  -1   0   3 3816.92 179.703  60 
  -1   0   3 3571.66 179.784  68 
   1   0  -3 3543.39 179.240  53 
   1   0  -3 3397.64 179.551  55 
   1   0  -3 3496.52 179.947  64 
   1   0  -3 3786.86 182.480  59 
  -1   0   3 3340.18 179.253  51 
  -1   0   3 3623.15 182.667  59 
  -1   0   3 3706.53 179.729  65 
   1   0  -3 3886.32 179.760  60 
  -1   0   3 4067.34 180.598  58 
   1   0  -3 3952.92 180.794  58 
   1   0  -3 3827.89 179.626  57 
   1   0  -3 3801.11 182.324  66 
  -1   0   3 3797.49 179.283  63 
   1   0  -3 3479.30 179.226  63 
  -1   0   3 3631.78 180.276  67 
   1   0  -3 3653.98 179.669  65 
   1   0  -3 4165.89 182.999  59 
  -1   0   3 3779.68 182.506  66 
   0   0   3 68.8927 4.15877  51 
   0   0   3 74.7020 7.74841  59 
   0   0  -3 72.6769 8.35815  59 
   0   0  -3 73.5924 4.85808  60 
   0   0  -3 65.3455 4.69237  55 
   0   0  -3 68.1403 4.13095  53 
   0   0   3 56.3500 7.37833  59 
   0   0   3 68.3501 4.49802  61 
   0   0  -3 79.6892 4.92135  65 
   0   0   3 65.9012 3.99237  53 
   0   0  -3 67.3747 5.76304  67 
   0   0   3 61.6539 4.03903  63 
   0   0  -3 71.5704 8.37781  59 
   0   0   3 72.0607 5.83134  58 
   0   0   3 65.6234 4.92142  65 
   0   0  -3 68.5138 4.54429  57 
   0   0   3 74.6667 4.57226  57 
   0   0   3 70.3702 4.99787  68 
   0   0   3 73.1473 5.87063  67 
   0   0  -3 70.8819 5.17475  64 
   0   0   3 70.1403 4.72574  55 
   0   0  -3 65.7316 7.76645  66 
   0   0   3 75.3704 5.03827  60 
   0   0  -3 66.8179 4.64428  61 
   0   0  -3 73.5438 4.04651  63 
   0   0  -3 67.0457 5.97048  64 
   0   0   3 72.4165 4.83269  61 
   0   0  -3 76.8598 6.13897  58 
   0   0  -3 67.1009 4.57760  61 
  -1   0  -3 486.305 25.3054  61 
   1   0   3 484.918 25.4584  65 
  -1   0  -3 503.050 25.7875  64 
  -1   0  -3 530.216 29.1259  59 
  -1   0  -3 473.970 24.8097  63 
   1   0   3 455.381 25.7809  64 
   1   0   3 461.631 28.4883  59 
   1   0   3 483.122 24.7852  53 
   1   0   3 519.208 26.5536  58 
   1   0   3 567.040 25.3001  57 
   1   0   3 479.950 26.1251  67 
  -1   0  -3 543.161 26.5043  58 
  -1   0  -3 525.179 25.4606  60 
  -1   0  -3 475.304 24.8349  53 
   1   0   3 535.421 29.2052  59 
   1   0   3 489.144 25.4243  61 
  -1   0  -3 441.936 28.2704  66 
  -1   0  -3 495.383 24.9364  51 
  -1   0  -3 543.197 25.0089  52 
   1   0   3 524.305 25.3754  61 
  -1   0  -3 475.362 25.3263  65 
   1   0   3 484.953 25.4713  60 
   1   0   3 524.432 25.6464  68 
  -1   0  -3 528.390 25.4730  61 
   1   0   3 501.080 24.8728  51 
  -1   0  -3 494.796 26.0102  67 
   1   0   3 548.735 25.3258  55 
  -1   0  -3 472.145 25.2427  55 
  -1   0  -3 502.233 25.2560  57 
  -2   0  -3 890.500 43.4464  65 
   2   0   3 857.333 47.9780  59 
  -2   0  -3 905.904 43.2655  57 
   2   0   3 894.693 43.5941  65 
   2   0   3 907.052 44.5167  67 
   2   0   3 873.639 44.7733  58 
  -2   0  -3 866.782 44.3037  67 
   2   0   3 809.706 42.7667  51 
  -2   0  -3 868.989 42.7252  53 
  -2   0  -3 883.224 42.7636  63 
   2   0   3 837.459 42.6606  53 
  -2   0  -3 867.714 44.5936  58 
   2   0   3 903.191 43.7098  68 
  -2   0  -3 868.463 47.2783  59 
   2   0   3 881.266 43.2783  55 
  -2   0  -3 766.721 53.0319  56 
   2   0   3 877.728 43.2242  57 
   3   0   3 880.886 45.3136  67 
   3   0   3 927.965 43.7340  57 
  -3   0  -3 830.727 43.9033  65 
  -3   0  -3 842.967 42.8081  71 
   3   0   3 876.483 42.7989  45 
  -3   0  -3 934.232 43.1116  63 
   3   0   3 806.473 44.0149  65 
   3   0   3 853.399 45.7559  58 
  -3   0  -3 877.210 42.7805  45 
   3   0   3 907.614 42.8491  71 
  -3   0  -3 897.540 45.2234  67 
   3   0   3 898.450 43.7457  55 
  -3   0  -3 792.393 45.2518  58 
  -3   0  -3 846.874 43.5452  57 
  -4   0  -3 457.322 21.2622  45 
   4   0   3 399.282 21.2348  71 
  -4   0  -3 421.879 24.2125  67 
   4   0   3 350.256 23.8521  67 
  -4   0  -3 419.137 21.2829  71 
   4   0   3 413.238 21.2618  45 
   4   0   3 451.113 22.5532  55 
   4   0   3 450.337 28.8156  72 
  -5   0  -3 39.9318 8.89004  76 
  -5   0  -3 44.7661 3.98995  71 
  -5   0  -3 43.9221 3.62725  45 
  -5   0  -3 31.8977 6.05173  67 
   5   0   3 35.5077 3.83252  45 
   5   0   3 38.1229 5.19794  78 
   5   0   3 49.1590 7.35210  67 
   5   0   3 43.2710 4.63708  75 
  -5   0  -3 43.2849 4.40269  75 
   5   0   3 40.6352 4.04542  71 
   6   0   3 537.319 29.9166  45 
  -6   0  -3 571.061 30.8537  83 
   6   0   3 655.137 30.7137  78 
  -6   0  -3 616.732 33.2860  76 
   6   0   3 579.839 39.4910  72 
   6   0   3 616.415 35.9584  76 
  -6   0  -3 565.053 31.5630  81 
  -7   0  -3 536.862 29.1763  83 
  -7   0  -3 567.736 28.7513  81 
   7   0   3 546.189 28.7513  78 
   7   0   3 511.961 38.6074  72 
  -7   0  -3 572.880 30.8385  76 
   7   0   3 546.459 31.7293  76 
  -8   0  -3 4.67165 4.56523  83 
  -8   0  -3 1.50001 3.77155   2 
  -8   0  -3 -0.9356 2.74320  20 
   8   0   3 -4.1629 3.63053  20 
   8   0   3 -3.5771 3.90071  78 
   8   0   3 1.95096 2.80814  19 
   8   0   3 0.78792 2.97341  81 
   8   0   3 2.70476 3.20226  18 
  -8   0  -3 -0.5249 1.65767  76 
  -8   0  -3 1.73415 2.97396   4 
  -8   0  -3 -0.7544 2.54696  18 
  -8   0  -3 -2.1650 2.15688  19 
  -8   0  -3 1.03728 2.90249   5 
   9   0   3 138.444 9.37555  81 
  -9   0  -3 156.564 9.52693   2 
  -9   0  -3 136.689 10.3870  83 
  -9   0  -3 160.642 9.55837   5 
  -9   0  -3 156.915 9.23203   4 
  -9   0  -3 151.120 9.25468  20 
   9   0   3 159.185 9.34021  18 
  -9   0  -3 153.532 8.79247  18 
   9   0   3 161.102 10.0191  20 
  -9   0  -3 160.086 9.39650  13 
   9   0   3 156.386 9.28732  19 
 -10   0  -3 12.7728 3.66725   4 
 -10   0  -3 9.10820 2.45702  13 
  10   0   3 18.0855 3.27633  18 
  10   0   3 15.6216 3.98119  20 
 -10   0  -3 18.6288 3.78527   5 
  10   0   3 14.4217 3.31729  13 
 -10   0  -3 18.8986 4.06076   2 
  11  -1  -3 119.372 7.17903  10 
  11  -1  -3 122.656 7.32420  19 
  11  -1  -3 118.425 7.91030  20 
 -11  -1   3 114.123 6.86787  18 
 -11  -1   3 108.602 9.31592  13 
  11  -1  -3 128.746 7.36602  18 
  11   1  -3 127.918 7.66687  13 
  11   1  -3 128.891 7.61941   4 
 -11   1   3 122.697 6.92318   3 
 -11   1   3 111.004 6.88449   1 
  11   1  -3 120.175 7.42884  10 
 -11   1   3 124.242 7.33793   2 
 -11   1   3 122.187 6.93237  13 
 -11   1   3 117.635 7.14717   4 
 -11   1   3 111.717 7.80585   7 
 -11   1   3 128.280 8.44929  31 
 -11   1   3 131.403 7.46285   5 
 -11   1   3 139.306 6.80467  16 
 -10  -1   3 88.0978 6.75509  20 
  10  -1  -3 81.5433 6.46841  19 
  10  -1  -3 83.8930 10.4712  24 
 -10  -1   3 89.4349 5.97492  19 
  10  -1  -3 76.8722 7.19418  20 
  10  -1  -3 75.9187 6.64470  18 
 -10  -1   3 82.8102 5.92305  18 
  10  -1  -3 66.7168 6.62511  33 
 -10   1   3 84.9934 6.77119   7 
 -10   1   3 81.2691 6.12923  16 
 -10   1   3 84.8503 6.19137  14 
 -10   1   3 71.7745 5.79322   3 
  10   1  -3 78.0597 6.81844  13 
 -10   1   3 81.8258 6.72835  15 
 -10   1   3 86.8547 6.32020   4 
 -10   1   3 90.2856 6.17138  13 
 -10   1   3 77.0220 6.48478   2 
 -10   1   3 74.2905 6.78661   5 
  10   1  -3 83.2498 6.92423   4 
  10   1  -3 82.4065 6.49232  10 
 -10   1   3 70.0042 7.08830  83 
   9  -1  -3 121.831 9.54662  24 
   9  -1  -3 119.414 8.71238  33 
   9  -1  -3 112.808 7.82147  27 
   9  -1  -3 110.018 9.11639  20 
   9  -1  -3 103.323 8.94715  79 
  -9  -1   3 115.533 7.76053  18 
   9  -1  -3 113.845 8.18541  41 
   9  -1  -3 126.289 8.25945  75 
  -9  -1   3 117.080 8.34140  20 
  -9  -1   3 118.376 11.5365  76 
   9  -1  -3 109.130 7.91235  18 
  -9  -1   3 114.270 8.66043  81 
   9  -1  -3 108.568 8.02322  19 
  -9  -1   3 105.500 7.51078  19 
  -9   1   3 114.318 7.64747  14 
  -9   1   3 124.192 8.27894   2 
   9   1  -3 109.731 8.68763  20 
  -9   1   3 110.761 8.27470   7 
  -9   1   3 121.420 7.65260  13 
   9   1  -3 94.7316 8.07280  41 
   9   1  -3 105.546 7.69680  19 
   9   1  -3 98.3058 8.37515  15 
   9   1  -3 119.039 7.92989  10 
   9   1  -3 110.519 7.71358  18 
   9   1  -3 110.007 8.28364  78 
  -9   1   3 118.513 9.15378  83 
   9   1  -3 106.867 8.39033  13 
   9   1  -3 105.750 7.20880  81 
  -9   1   3 107.043 8.33502   5 
  -9   1   3 114.636 7.76370   4 
   9   1  -3 108.593 8.41578   4 
   8  -1  -3 -2.8212 4.33642  41 
  -8  -1   3 -0.0639 3.16204  76 
  -8  -1   3 -1.6402 3.63552  47 
   8  -1  -3 -1.3092 3.18337  75 
   8  -1  -3 -0.3255 2.53717  71 
  -8  -1   3 2.13620 2.68730  45 
  -8  -1   3 -3.1679 3.34136  78 
   8  -1  -3 -4.4749 2.55757  45 
   8  -1  -3 -0.4131 4.11762  79 
   8  -1  -3 -2.6243 3.62819  33 
   8   1  -3 4.15954 4.09236  78 
  -8   1   3 2.34943 3.33621  47 
  -8   1   3 -3.1945 4.73032  83 
   8   1  -3 2.42821 5.30568  73 
  -8   1   3 -2.5020 3.20668  74 
   8   1  -3 -2.6819 4.16834  41 
   8   1  -3 0.03250 2.80209  81 
   7  -1  -3 67.7158 5.97728  75 
  -7  -1   3 86.1559 5.96214  47 
   7  -1  -3 83.8637 5.47084  71 
  -7  -1   3 78.0487 5.63354  71 
   7  -1  -3 65.6750 5.83633  41 
  -7  -1   3 75.4977 5.99337  75 
  -7  -1   3 74.1806 6.84242  78 
   7  -1  -3 65.1700 5.55249  45 
   7  -1  -3 65.5977 6.54942  79 
  -7  -1   3 65.5750 5.72106  45 
   7  -1  -3 60.1586 6.41877  48 
   7   1  -3 77.5261 6.71807  81 
   7   1  -3 70.6145 9.19729  76 
   7   1  -3 59.0267 5.97060  83 
  -7   1   3 66.5897 5.45107  47 
   7   1  -3 76.4504 8.83922  73 
  -7   1   3 77.2106 6.20077  74 
  -7   1   3 78.2768 6.73218  83 
   7   1  -3 74.6607 6.20129  41 
   7   1  -3 72.6637 6.30763  78 
  -6  -1   3 102.302 7.85822  74 
   6  -1  -3 96.7651 7.33020  79 
   6  -1  -3 106.458 6.59108  45 
  -6  -1   3 105.288 6.44196  47 
   6  -1  -3 101.053 7.11138  48 
  -6  -1   3 90.8301 6.88440  78 
   6  -1  -3 96.9417 6.46925  41 
  -6  -1   3 95.5283 6.33679  75 
  -6  -1   3 98.6797 6.18463  45 
   6  -1  -3 86.4124 5.90693  71 
   6  -1  -3 77.7454 6.07807  75 
  -6  -1   3 92.7798 6.05533  71 
   6  -1  -3 102.542 7.55417  44 
   6   1  -3 90.3235 6.80657  81 
   6   1  -3 91.0887 6.40466  78 
  -6   1   3 90.4753 6.58744  74 
   6   1  -3 87.3505 6.58735  41 
  -6   1   3 99.4384 6.57738  77 
   6   1  -3 94.9277 6.36270  53 
   6   1  -3 83.4837 8.36875  73 
   6   1  -3 90.8233 11.7529  72 
   6   1  -3 100.870 9.24645  67 
  -6   1   3 95.7204 6.25586  47 
  -6   1   3 104.058 6.23063  51 
  -6   1   3 90.7749 5.80269  81 
   6   1  -3 109.540 9.24882  76 
  -5  -1   3 103.871 6.15913  47 
  -5  -1   3 101.671 6.16199  45 
  -5  -1   3 113.063 9.46505  44 
   5  -1  -3 102.380 5.95423  71 
  -5  -1   3 110.460 9.35861  67 
   5  -1  -3 98.7748 7.19363  44 
  -5  -1   3 89.6352 5.96872  71 
   5  -1  -3 97.8241 7.48570  65 
   5  -1  -3 105.854 9.08690  67 
   5  -1  -3 108.732 6.91350  48 
   5  -1  -3 92.8863 6.13572  45 
  -5  -1   3 97.9573 6.21029  74 
   5  -1  -3 98.4883 6.21574  75 
  -5  -1   3 91.2290 6.24895  75 
   5   1  -3 104.532 11.7505  72 
  -5   1   3 109.453 6.59748  74 
   5   1  -3 95.3381 7.27760  73 
   5   1  -3 98.7902 6.35914  53 
   5   1  -3 102.028 8.84854  67 
  -5   1   3 104.204 6.29177  47 
  -5   1   3 100.062 6.19049  51 
   5   1  -3 96.3904 7.52121  55 
   5   1  -3 111.563 6.84474  78 
  -4  -1   3 195.606 10.1426  45 
   4  -1  -3 199.124 9.98747  46 
   4  -1  -3 183.133 10.5679  48 
  -4  -1   3 192.444 10.1734  49 
   4  -1  -3 201.233 11.3675  65 
  -4  -1   3 196.273 10.1846  47 
  -4  -1   3 188.962 12.8040  67 
  -4  -1   3 195.945 10.3099  63 
  -4  -1   3 193.322 11.4950  65 
   4  -1  -3 186.842 12.1660  67 
  -4  -1   3 188.705 13.7803  62 
   4  -1  -3 196.543 10.2607  45 
   4  -1  -3 179.754 10.0386  71 
  -4  -1   3 180.610 10.0719  71 
   4   1  -3 201.791 12.4906  67 
  -4   1   3 187.878 10.4572  74 
   4   1  -3 194.640 10.3478  53 
   4   1  -3 196.709 11.3216  55 
  -4   1   3 182.735 10.2745  47 
   4   1  -3 204.191 15.0879  72 
   4   1  -3 182.658 10.4516  51 
  -4   1   3 196.629 10.2697  51 
  -4   1   3 188.821 9.92268  53 
  -3  -1   3 77.3798 6.60432  67 
   3  -1  -3 68.8181 4.96127  57 
  -3  -1   3 70.0659 4.39700  63 
  -3  -1   3 65.7989 6.76107  58 
   3  -1  -3 67.4100 4.05114  70 
  -3  -1   3 72.1532 4.96565  57 
   3  -1  -3 73.4675 4.61478  69 
   3  -1  -3 69.9654 5.05775  61 
   3  -1  -3 68.7967 6.85979  58 
  -3  -1   3 64.6263 6.71486  62 
  -3  -1   3 76.4543 4.38617  49 
   3  -1  -3 63.5084 6.09355  67 
  -3  -1   3 67.2025 5.10338  65 
   3  -1  -3 65.0322 4.97746  65 
   3  -1  -3 73.0665 5.72683  64 
   3   1  -3 68.8377 6.01645  67 
  -3   1   3 69.9065 4.68231  54 
  -3   1   3 61.3096 5.57813  67 
  -3   1   3 74.1286 8.45545  66 
   3   1  -3 68.2698 5.20842  55 
   3   1  -3 68.5703 6.88859  58 
  -3   1   3 76.4791 4.25580  51 
  -3   1   3 72.1163 3.93966  53 
   3   1  -3 67.4666 4.51640  51 
   3   1  -3 77.1253 4.44323  53 
   2  -1  -3 3589.42 171.884  55 
   2  -1  -3 3590.48 171.938  61 
   2  -1  -3 3505.13 171.573  69 
   2  -1  -3 3518.93 171.408  63 
   2  -1  -3 3535.12 171.264  50 
  -2  -1   3 3635.80 171.534  63 
   2  -1  -3 3548.16 172.441  67 
  -2  -1   3 3443.53 171.903  57 
  -2  -1   3 3343.20 175.801  59 
  -2  -1   3 3332.21 180.421  59 
  -2  -1   3 3397.15 171.669  69 
  -2  -1   3 3630.92 173.208  58 
   2  -1  -3 3714.06 173.195  58 
   2  -1  -3 3486.82 175.038  59 
   2  -1  -3 3518.21 171.905  65 
  -2  -1   3 3618.07 172.053  61 
  -2  -1   3 3641.31 172.183  65 
   2  -1  -3 3542.64 172.364  64 
  -2  -1   3 3500.56 172.921  67 
  -2  -1   3 3456.20 171.302  49 
   2  -1  -3 3769.03 171.877  57 
  -2  -1   3 3591.76 172.456  64 
  -2   1   3 3353.91 172.192  67 
  -2   1   3 3436.47 172.030  68 
   2   1  -3 3529.65 172.463  67 
   2   1  -3 3575.39 171.410  53 
  -2   1   3 3556.90 171.198  53 
  -2   1   3 3439.92 171.196  53 
   2   1  -3 3553.41 173.141  58 
   2   1  -3 3437.14 175.353  66 
  -2   1   3 3534.70 174.934  66 
  -2   1   3 3457.08 171.610  54 
   2   1  -3 3527.73 171.824  55 
   2   1  -3 3353.78 176.018  59 
   2   1  -3 3503.45 171.518  51 
  -2   1   3 3557.40 171.447  55 
  -2   1   3 3642.65 171.392  51 
   1  -1  -3 4071.43 198.604  67 
   1  -1  -3 4293.61 198.008  57 
  -1  -1   3 3829.90 198.880  67 
   1  -1  -3 3924.59 198.102  61 
   1  -1  -3 3978.00 198.096  65 
   1  -1  -3 4124.59 197.711  63 
   1  -1  -3 4034.26 198.412  64 
   1  -1  -3 4161.10 200.467  59 
   1  -1  -3 3754.08 197.883  57 
  -1  -1   3 3904.02 201.175  59 
  -1  -1   3 4068.56 197.816  63 
  -1  -1   3 3988.70 198.334  65 
  -1  -1   3 4248.23 198.394  61 
   1  -1  -3 3931.35 199.022  58 
  -1  -1   3 3837.37 198.077  57 
  -1  -1   3 3943.00 197.965  69 
  -1  -1   3 4360.44 198.767  64 
  -1  -1   3 3985.07 201.450  59 
   1  -1  -3 4153.19 197.817  69 
   1  -1  -3 3960.47 198.129  61 
  -1  -1   3 3987.83 198.544  64 
   1  -1  -3 4064.15 200.554  59 
   1  -1  -3 3839.78 198.378  64 
   1  -1  -3 3753.88 198.005  55 
  -1  -1   3 4195.41 199.219  58 
  -1  -1   3 4237.78 198.316  61 
  -1  -1   3 4051.40 198.348  60 
   1   1  -3 4116.16 201.133  66 
  -1   1   3 4114.67 197.501  53 
   1   1  -3 4069.14 197.803  51 
   1   1  -3 3932.89 197.667  53 
   1   1  -3 4465.99 198.192  61 
  -1   1   3 4092.95 197.681  63 
   1   1  -3 3949.71 198.236  60 
  -1   1   3 4324.16 197.504  53 
  -1   1   3 4049.22 200.648  66 
  -1   1   3 4115.97 200.757  66 
  -1   1   3 4059.56 198.371  58 
  -1   1   3 4365.33 198.057  54 
   1   1  -3 4195.49 201.572  59 
   1   1  -3 3932.74 197.985  55 
  -1   1   3 4351.11 201.143  59 
  -1   1   3 4132.56 197.697  55 
   1   1  -3 4142.14 197.746  63 
  -1   1   3 3962.79 198.240  68 
  -1   1   3 4066.49 197.914  51 
  -1   1   3 3955.84 197.647  51 
  -1   1   3 4199.98 198.051  60 
   1   1  -3 4120.81 199.050  58 
   1   1  -3 3968.42 198.571  67 
   0  -1  -3 207.034 11.5107  67 
   0  -1  -3 201.572 10.7176  57 
   0  -1   3 195.972 11.7886  67 
   0  -1  -3 205.674 10.9021  65 
   0  -1  -3 204.609 10.4237  63 
   0  -1   3 208.173 11.9381  58 
   0  -1   3 211.000 11.3993  64 
   0  -1  -3 189.144 11.0625  57 
   0  -1   3 201.005 10.8005  57 
   0  -1   3 207.825 11.1691  65 
   0  -1  -3 202.917 11.9236  58 
   0  -1  -3 207.233 13.4010  59 
   0  -1   3 200.562 11.1319  60 
   0  -1  -3 204.600 10.8560  61 
   0  -1  -3 212.241 11.2752  64 
   0  -1   3 212.814 14.1541  59 
   0  -1   3 200.523 14.0952  59 
   0  -1  -3 196.105 10.8481  55 
   0  -1   3 215.659 11.5214  64 
   0  -1  -3 199.182 10.4837  69 
   0  -1  -3 214.148 13.6437  59 
   0  -1  -3 218.383 10.9461  61 
   0  -1   3 202.104 10.9668  61 
   0  -1   3 202.967 10.6488  69 
   0  -1  -3 196.968 11.1834  64 
   0  -1   3 204.003 11.0879  61 
   0   1   3 214.023 10.3536  51 
   0   1   3 193.256 11.1983  67 
   0   1  -3 202.149 11.1026  52 
   0   1   3 224.302 10.5232  55 
   0   1  -3 217.060 10.5172  51 
   0   1   3 214.827 10.2091  53 
   0   1  -3 203.963 11.3689  67 
   0   1  -3 200.084 10.3536  53 
   0   1   3 228.442 11.1054  68 
   0   1   3 204.566 10.8793  60 
   0   1   3 216.392 11.3697  58 
   0   1  -3 219.687 14.1757  66 
   0   1  -3 205.501 11.0324  60 
   0   1  -3 189.004 10.8419  61 
   0   1  -3 192.033 11.5494  58 
   0   1   3 209.915 10.8253  54 
   0   1   3 204.232 10.2127  53 
   0   1  -3 195.910 10.4299  63 
   0   1  -3 198.985 10.7227  55 
   0   1  -3 209.433 10.3751  53 
   0   1   3 202.605 10.3890  63 
   0   1   3 203.188 13.6807  59 
   0   1  -3 199.624 14.1120  59 
   0   1   3 211.356 13.6158  66 
  -1  -1  -3 406.316 22.2535  55 
   1  -1   3 413.365 22.0356  69 
   1  -1   3 457.593 22.3313  57 
   1  -1   3 428.213 28.3047  59 
   1  -1   3 475.747 22.6292  61 
   1  -1   3 479.942 23.0088  64 
   1  -1   3 432.960 21.6829  49 
  -1  -1  -3 433.221 22.2398  57 
   1  -1   3 452.950 23.3527  67 
   1  -1   3 451.537 23.6477  58 
   1  -1   3 434.842 22.2659  55 
  -1  -1  -3 423.932 22.7070  64 
  -1  -1  -3 413.341 21.9357  69 
  -1  -1  -3 453.106 23.1436  67 
  -1  -1  -3 464.501 22.3628  61 
  -1  -1  -3 458.130 25.4613  59 
   1  -1   3 420.273 22.5193  65 
  -1  -1  -3 442.649 21.8421  63 
  -1  -1  -3 445.276 22.3902  65 
   1  -1   3 397.545 27.1073  59 
  -1  -1  -3 452.238 23.4643  58 
   1   1   3 435.459 22.3735  60 
  -1   1  -3 409.754 22.4149  52 
  -1   1  -3 390.058 22.7772  67 
  -1   1  -3 450.789 21.7561  53 
  -1   1  -3 392.977 21.9646  63 
   1   1   3 461.225 21.6752  53 
  -1   1  -3 447.509 25.8853  66 
   1   1   3 435.978 22.8302  67 
   1   1   3 460.254 22.0762  55 
   1   1   3 489.839 21.8423  51 
   1   1   3 418.781 25.8665  59 
   1   1   3 471.390 23.7384  58 
  -1   1  -3 389.971 22.9152  58 
  -1   1  -3 458.363 21.8869  51 
   1   1   3 472.496 22.1494  54 
  -1   1  -3 441.172 25.5939  59 
   2  -1   3 1771.20 88.4403  67 
  -2  -1  -3 1707.27 87.2383  57 
   2  -1   3 1787.42 88.9037  58 
   2  -1   3 1694.91 87.5446  65 
  -2  -1  -3 1954.65 87.6060  65 
  -2  -1  -3 1919.56 87.4137  55 
  -2  -1  -3 1738.45 87.3663  61 
   2  -1   3 1765.24 88.9100  61 
   2  -1   3 1622.22 87.2052  55 
  -2  -1  -3 1778.15 88.4134  67 
  -2  -1  -3 1746.65 86.7277  63 
   2  -1   3 1739.39 87.0592  69 
  -2  -1  -3 1723.10 86.9070  69 
   2  -1   3 1724.92 86.4860  49 
   2  -1   3 1846.01 87.3334  57 
  -2  -1  -3 1688.44 88.5944  58 
  -2   1  -3 1870.00 99.0006  56 
  -2   1  -3 1899.29 86.7680  51 
  -2   1  -3 1828.84 86.6086  53 
   2   1   3 1843.97 87.0594  55 
   2   1   3 1824.88 86.7174  51 
  -2   1  -3 1809.52 87.3167  52 
  -2   1  -3 1689.93 87.9609  67 
   2   1   3 1766.10 86.8379  54 
   2   1   3 1677.45 87.4063  60 
   2   1   3 1713.05 88.0510  67 
   2   1   3 1779.66 86.5506  53 
  -3  -1  -3 1288.11 64.7180  71 
  -3  -1  -3 1330.18 64.6742  45 
  -3  -1  -3 1276.16 64.9402  48 
   3  -1   3 1314.59 64.6083  49 
   3  -1   3 1340.87 64.6814  45 
  -3  -1  -3 1316.07 67.1679  67 
  -3  -1  -3 1382.97 64.9969  63 
   3  -1   3 1266.98 64.9406  48 
   3  -1   3 1345.02 67.2406  67 
  -3  -1  -3 1247.72 65.8595  65 
   3  -1   3 1388.43 66.2197  65 
   3  -1   3 1280.56 64.6963  71 
   3  -1   3 1329.03 65.7178  55 
   3   1   3 1376.14 64.7470  53 
   3   1   3 1356.19 66.9271  67 
   3   1   3 1201.40 72.2921  72 
  -3   1  -3 1421.75 64.9969  51 
   3   1   3 1347.15 65.4093  55 
  -3   1  -3 1192.27 78.8335  56 
   3   1   3 1312.78 64.9109  51 
  -3   1  -3 1311.98 66.6508  67 
  -3   1  -3 1432.47 64.7632  53 
   4  -1   3 305.507 16.6967  44 
  -4  -1  -3 309.079 15.8037  45 
   4  -1   3 265.931 17.3966  65 
   4  -1   3 313.611 15.8973  45 
   4  -1   3 283.297 15.8465  71 
   4  -1   3 336.493 19.4186  67 
  -4  -1  -3 313.935 15.8146  45 
  -4  -1  -3 296.215 16.5835  44 
   4  -1   3 279.624 17.3106  55 
  -4  -1  -3 299.878 16.0228  75 
  -4  -1  -3 292.357 16.1837  48 
   4  -1   3 314.047 15.8381  49 
  -4  -1  -3 319.405 15.9427  71 
  -4  -1  -3 321.769 15.9453  47 
   4  -1   3 332.966 16.2268  75 
  -4  -1  -3 326.713 19.1856  67 
   4  -1   3 337.415 16.3530  48 
  -4  -1  -3 323.338 17.5125  65 
   4   1   3 295.567 16.8472  73 
   4   1   3 301.211 15.8682  53 
   4   1   3 317.311 16.8802  55 
   4   1   3 294.737 20.0875  72 
  -4   1  -3 296.192 15.7766  53 
  -4   1  -3 339.053 16.2196  51 
   4   1   3 303.409 16.1480  51 
  -5  -1  -3 53.1119 4.90582  48 
   5  -1   3 59.2052 4.56977  45 
   5  -1   3 59.3488 6.07221  44 
   5  -1   3 61.0818 5.44377  48 
  -5  -1  -3 59.8839 4.30810  45 
   5  -1   3 58.9524 4.81294  75 
  -5  -1  -3 48.3208 4.28200  71 
  -5  -1  -3 56.4938 4.65414  75 
  -5  -1  -3 57.4675 4.32021  47 
   5  -1   3 57.6974 4.66088  71 
   5  -1   3 54.3938 6.14685  79 
  -5   1  -3 47.3369 5.80199  76 
   5   1   3 60.0507 4.63930  53 
  -5   1  -3 46.2555 4.24371  51 
   5   1   3 49.1688 9.68308  72 
   5   1   3 63.8128 5.76511  81 
   5   1   3 71.8079 7.52096  76 
   5   1   3 58.5024 6.53912  73 
   5   1   3 58.8261 5.48080  78 
   6  -1   3 721.636 38.1944  79 
  -6  -1  -3 734.689 37.2460  47 
  -6  -1  -3 757.926 37.1536  45 
   6  -1   3 742.900 37.6070  75 
  -6  -1  -3 763.424 37.3011  71 
   6  -1   3 736.237 37.2126  41 
   6  -1   3 663.430 38.9811  48 
   6  -1   3 788.732 37.3841  71 
  -6  -1  -3 777.525 37.5567  75 
   6  -1   3 804.055 37.4277  45 
   6   1   3 697.905 37.4718  78 
   6   1   3 682.874 37.3242  38 
   6   1   3 744.488 37.2955  40 
   6   1   3 739.659 37.5334  81 
   6   1   3 780.892 38.4574  73 
  -6   1  -3 784.803 38.2160  83 
   6   1   3 698.932 38.7087  76 
  -6   1  -3 724.630 37.3203  78 
   7  -1   3 51.6499 6.08101  41 
   7  -1   3 47.0000 4.99539  71 
   7  -1   3 41.0126 6.47007  79 
  -7  -1  -3 48.2934 4.55777  71 
   7  -1   3 43.5491 5.78536  75 
  -7  -1  -3 42.6769 4.95737  75 
  -7  -1  -3 39.4669 4.63899  47 
   7  -1   3 34.0519 6.13464  33 
  -7  -1  -3 43.4398 4.90686  45 
   7  -1   3 43.2639 5.49710  45 
   7   1   3 44.8910 5.78127  78 
   7   1   3 45.3910 7.22744  73 
   7   1   3 38.0701 5.53404  81 
  -7   1  -3 52.1823 5.25287  78 
   7   1   3 51.0293 5.35545  38 
  -7   1  -3 49.6093 6.46237  83 
   8  -1   3 34.1923 6.22138  78 
   8  -1   3 48.3999 7.41211  79 
  -8  -1  -3 44.2777 4.91723  18 
  -8  -1  -3 40.4103 9.89884  76 
   8  -1   3 31.3091 5.76267  19 
   8  -1   3 43.6005 6.43954  20 
  -8  -1  -3 43.0783 5.67745  20 
   8  -1   3 35.8756 5.29766  75 
   8  -1   3 35.8568 5.88081  33 
   8  -1   3 37.9938 7.32398  24 
  -8  -1  -3 37.8209 4.64976  19 
  -8  -1  -3 38.6935 5.40196   5 
   8  -1   3 42.3316 5.68479  41 
   8  -1   3 42.3274 5.73558  18 
   8  -1   3 36.4904 6.80870  27 
   8   1   3 29.7026 5.60815  38 
   8   1   3 45.8875 6.46369  18 
   8   1   3 34.8047 5.78118  15 
   8   1   3 40.0605 5.75301   4 
  -8   1  -3 44.3045 6.79811  83 
  -8   1  -3 41.2513 4.18639  17 
  -8   1  -3 50.6513 6.10932   5 
  -8   1  -3 34.8819 5.38765   2 
  -8   1  -3 45.1114 6.11195  78 
   8   1   3 40.9868 5.89073  13 
   8   1   3 46.4299 6.12292  78 
  -8   1  -3 37.3115 4.88746  13 
  -8   1  -3 37.9089 5.11608   4 
   9  -1   3 4.49786 2.76688  19 
   9  -1   3 1.69513 3.00881  33 
  -9  -1  -3 4.86174 2.67491  20 
  -9  -1  -3 0.26880 3.71771   5 
  -9  -1  -3 4.25430 2.47559  18 
   9  -1   3 -1.0382 3.09745  20 
  -9  -1  -3 4.79426 2.25124  19 
   9  -1   3 5.60186 2.95324  18 
  -9   1  -3 2.34467 2.34192  16 
  -9   1  -3 5.53087 3.94348  83 
   9   1   3 4.08783 3.01393   4 
  -9   1  -3 6.62817 2.70579   2 
  -9   1  -3 4.36828 2.43539  13 
  -9   1  -3 4.13239 2.46260   4 
   9   1   3 6.41371 3.20352  13 
  -9   1  -3 2.50766 2.59605   5 
 -10  -1  -3 114.674 6.78066  18 
  10  -1   3 113.613 7.04151  19 
 -10  -1  -3 114.087 7.13022  20 
 -10  -1  -3 117.795 6.63207  19 
  10  -1   3 125.947 7.56032  20 
  10  -1   3 106.637 7.15261  18 
 -10   1  -3 116.542 7.16784   2 
  10   1   3 127.572 7.15623  13 
 -10   1  -3 115.719 7.22296   5 
 -10   1  -3 109.094 6.83654   3 
 -10   1  -3 117.044 7.01389   4 
  10   1   3 130.017 7.24640  16 
 -10   1  -3 119.432 6.68064  16 
  10   1   3 134.801 7.40601   4 
 -10   1  -3 118.766 6.81608  13 
  11  -2  -3 14.9938 3.23582  19 
 -11  -2   3 10.0202 2.40332  19 
 -11  -2   3 10.2675 2.43897  18 
  11  -2  -3 12.5187 3.35992  18 
  11  -2  -3 15.6764 3.80674  20 
 -11  -2   3 8.85591 2.11970  20 
 -11   2   3 8.29818 1.67606  22 
 -11   2   3 13.1306 3.18934   7 
 -11   2   3 9.22873 2.69004   5 
 -11   2   3 8.94083 1.52813  32 
 -11   2   3 8.78004 2.77400  30 
 -11   2   3 9.37210 2.37991   2 
  11   2  -3 12.1918 2.50988   1 
  11   2  -3 3.91007 2.01492   4 
  11   2  -3 8.10218 2.33118   3 
  11   2  -3 10.3816 2.91043  13 
  11   2  -3 12.5482 3.97204  23 
 -11   2   3 13.9865 2.65225  31 
 -11   2   3 4.94855 2.07303  15 
 -11   2   3 8.28473 1.87688   3 
 -11   2   3 12.6552 2.83114  14 
 -11   2   3 13.9661 2.73764   4 
  11   2  -3 12.1817 2.36791  16 
  11   2  -3 9.97241 2.92492  10 
 -10  -2   3 35.7676 4.50180  19 
  10  -2  -3 50.9193 5.30534  19 
  10  -2  -3 48.6660 5.00293  18 
 -10  -2   3 42.4894 4.75314  18 
  10  -2  -3 41.1577 5.43116  20 
 -10  -2   3 36.0212 5.39581  20 
  10  -2  -3 34.3493 6.02761  24 
  10  -2  -3 37.7341 5.31282  33 
  10  -2  -3 30.3324 4.21538  27 
 -10   2   3 43.2136 3.98388   3 
 -10   2   3 39.6602 3.52813  32 
 -10   2   3 39.9314 4.24435  31 
 -10   2   3 37.2543 4.75462   7 
 -10   2   3 37.2568 2.98233  16 
  10   2  -3 41.6766 5.29803  13 
  10   2  -3 37.0153 4.83311   3 
 -10   2   3 41.7537 4.77260  14 
  10   2  -3 43.7768 5.12310   4 
 -10   2   3 23.5637 5.40654  15 
 -10   2   3 37.5570 4.21310   2 
  10   2  -3 37.6180 4.63149  16 
  10   2  -3 33.7529 4.56183  10 
 -10   2   3 35.2348 4.05205   4 
 -10   2   3 49.1917 3.79641   1 
 -10   2   3 32.5689 4.78726   5 
  10   2  -3 39.4250 4.95442  23 
   9  -2  -3 14.5626 4.16421  20 
   9  -2  -3 16.9067 6.55366  24 
   9  -2  -3 5.45060 3.71363  79 
   9  -2  -3 12.8293 3.81126  33 
  -9  -2   3 17.8408 4.89700  18 
   9  -2  -3 19.5780 4.51625  27 
   9  -2  -3 18.3554 5.06079  41 
  -9  -2   3 24.3336 5.64820  20 
  -9  -2   3 15.9254 3.22866  19 
  -9   2   3 8.72735 3.07551   7 
  -9   2   3 12.5127 3.06171   4 
  -9   2   3 9.93308 3.07750   2 
  -9   2   3 16.2928 3.28628  16 
  -9   2   3 14.6490 4.11656  31 
  -9   2   3 15.9670 4.11323  77 
   9   2  -3 19.4329 5.41138   4 
   9   2  -3 24.2361 5.14746  10 
  -9   2   3 17.6801 5.22276   5 
  -9   2   3 18.1824 5.12347  83 
  -9   2   3 11.8188 2.60043  13 
   9   2  -3 19.6714 5.16753  16 
  -9   2   3 18.6697 3.57912   1 
   9   2  -3 8.20033 3.20235  13 
  -9   2   3 16.2601 4.33767  28 
  -9   2   3 7.57069 2.85322  14 
  -9   2   3 15.2199 3.75020   3 
   9   2  -3 19.6166 4.28479   7 
   9   2  -3 12.9185 5.58191  15 
   8  -2  -3 2.78615 2.93515  27 
   8  -2  -3 11.7967 4.36979  79 
  -8  -2   3 12.7245 3.74763  20 
   8  -2  -3 4.14791 2.72072  45 
   8  -2  -3 5.78673 4.10935  48 
  -8  -2   3 9.44183 3.30813  75 
  -8  -2   3 14.8496 4.43386  47 
   8  -2  -3 9.67523 3.19366  71 
   8  -2  -3 12.7377 4.14408  41 
  -8  -2   3 11.7621 3.97873  18 
   8  -2  -3 8.52871 3.89530  33 
  -8  -2   3 15.9257 4.11801  45 
  -8  -2   3 10.4841 3.36474  19 
   8  -2  -3 9.75499 3.41173  75 
  -8  -2   3 9.57275 3.58357  71 
  -8  -2   3 12.9483 4.18126  27 
  -8   2   3 12.4528 3.88630  77 
  -8   2   3 14.6709 3.96593   1 
  -8   2   3 15.9993 5.49463  83 
  -8   2   3 10.2727 3.68507   2 
  -8   2   3 9.83966 2.71032   3 
   8   2  -3 5.81203 3.57178   4 
  -8   2   3 13.0963 3.12263  31 
   8   2  -3 8.30519 3.71069  13 
  -8   2   3 11.3216 2.92786  13 
  -8   2   3 11.7835 3.75236   5 
  -8   2   3 9.58290 3.32085   4 
  -8   2   3 8.86665 3.42627   7 
  -8   2   3 9.98640 2.35275  16 
  -8   2   3 8.38583 2.77746  14 
   8   2  -3 15.9369 5.03330  73 
   8   2  -3 13.3041 6.31714  15 
   8   2  -3 13.5957 4.66411   7 
   8   2  -3 12.6612 3.67996  10 
  -8   2   3 11.6541 3.42578  28 
  -7  -2   3 68.0704 5.68884  45 
  -7  -2   3 86.6664 5.64339  71 
   7  -2  -3 67.1972 5.83924  45 
  -7  -2   3 79.6068 6.32476  75 
   7  -2  -3 75.9084 7.39386  44 
   7  -2  -3 76.8917 6.49346  41 
   7  -2  -3 71.2583 5.28408  71 
   7  -2  -3 68.0306 6.73316  48 
   7  -2  -3 69.1536 6.67303  79 
  -7  -2   3 72.4485 5.92012  47 
  -7  -2   3 66.6944 6.55976  48 
   7  -2  -3 72.0748 6.13648  75 
  -7   2   3 70.7045 6.15562  77 
   7   2  -3 75.0232 6.76534  38 
  -7   2   3 66.3472 6.63320  83 
   7   2  -3 71.8231 6.06587  78 
   7   2  -3 82.3209 6.87461  73 
  -6  -2   3 110.414 6.75174  71 
   6  -2  -3 108.112 7.75135  79 
  -6  -2   3 108.729 6.83981  47 
   6  -2  -3 110.276 6.52309  71 
  -6  -2   3 101.139 6.84151  75 
  -6  -2   3 99.5779 8.07996  44 
   6  -2  -3 96.6599 7.22944  41 
  -6  -2   3 106.116 6.72986  49 
  -6  -2   3 98.3930 7.42265  48 
   6  -2  -3 101.794 6.54063  45 
  -6  -2   3 100.965 6.56074  45 
   6  -2  -3 100.231 7.42509  48 
   6  -2  -3 97.2310 6.55308  75 
   6  -2  -3 104.942 8.12347  44 
   6   2  -3 93.5951 7.23276  41 
   6   2  -3 100.980 7.53043  83 
   6   2  -3 108.458 7.23573  77 
  -6   2   3 95.2583 7.49226  74 
  -6   2   3 111.175 7.01122  77 
  -6   2   3 87.9550 7.56440  83 
   6   2  -3 107.676 6.74307  78 
   6   2  -3 109.292 7.59598  73 
   5  -2  -3 673.692 34.1178  79 
  -5  -2   3 668.310 33.6648  45 
   5  -2  -3 651.189 33.6133  75 
  -5  -2   3 684.372 33.7530  47 
   5  -2  -3 649.555 34.3090  44 
   5  -2  -3 660.311 33.6052  45 
   5  -2  -3 720.479 34.1059  48 
  -5  -2   3 665.777 33.8185  75 
  -5  -2   3 686.789 33.6007  49 
   5  -2  -3 725.130 33.4627  46 
   5  -2  -3 715.569 33.5371  71 
  -5  -2   3 611.505 36.8994  67 
   5  -2  -3 586.823 33.3777  70 
  -5  -2   3 674.064 34.5268  44 
  -5  -2   3 670.191 33.6414  71 
   5   2  -3 721.377 33.9635  51 
   5   2  -3 665.119 33.2570  53 
  -5   2   3 639.814 33.1590  51 
  -5   2   3 678.494 33.5780  77 
   5   2  -3 716.637 33.6349  78 
  -5   2   3 685.051 34.1456  74 
   5   2  -3 659.131 33.8609  73 
   5   2  -3 682.567 33.7831  77 
  -5   2   3 680.191 33.9334  47 
   4  -2  -3 190.848 9.93930  70 
   4  -2  -3 198.552 10.6657  69 
   4  -2  -3 178.944 10.7792  44 
   4  -2  -3 183.504 10.1531  75 
   4  -2  -3 200.810 9.92475  46 
  -4  -2   3 197.584 11.0825  44 
  -4  -2   3 193.236 10.1525  45 
  -4  -2   3 209.631 10.2487  71 
   4  -2  -3 193.958 10.1316  45 
  -4  -2   3 173.881 12.7365  67 
  -4  -2   3 186.168 10.1905  49 
   4  -2  -3 188.432 11.2372  65 
   4  -2  -3 190.083 9.98837  71 
  -4  -2   3 177.041 11.4054  65 
  -4  -2   3 199.702 10.1112  46 
   4  -2  -3 196.578 10.5920  48 
  -4  -2   3 180.198 10.3082  75 
   4   2  -3 199.540 10.3331  51 
   4   2  -3 196.463 9.70103  53 
  -4   2   3 180.989 10.3526  47 
   4   2  -3 189.575 10.4489  73 
  -4   2   3 191.016 15.3201  66 
  -4   2   3 191.300 9.49021  51 
  -4   2   3 188.835 10.5892  74 
   3  -2  -3 492.017 25.5628  65 
  -3  -2   3 498.261 25.2570  69 
  -3  -2   3 506.690 24.7928  49 
   3  -2  -3 500.519 24.5911  70 
  -3  -2   3 507.592 24.7453  46 
   3  -2  -3 516.186 24.5738  46 
   3  -2  -3 543.945 25.1128  69 
   3  -2  -3 509.454 24.9946  48 
  -3  -2   3 511.909 27.2233  67 
  -3  -2   3 503.558 25.9986  65 
   3  -2  -3 484.774 24.6247  50 
   3  -2  -3 454.024 25.9387  64 
  -3  -2   3 446.008 27.6757  62 
  -3  -2   3 466.566 24.6849  70 
  -3  -2   3 494.567 24.8128  45 
  -3  -2   3 492.087 24.8085  71 
  -3  -2   3 501.807 25.1863  48 
   3  -2  -3 502.518 24.7461  45 
   3  -2  -3 496.729 24.6390  71 
   3   2  -3 572.377 31.3128  66 
   3   2  -3 487.779 24.8556  73 
  -3   2   3 484.141 25.7819  68 
  -3   2   3 458.998 28.9129  66 
  -3   2   3 525.096 25.8177  54 
   3   2  -3 528.487 26.1317  52 
  -3   2   3 476.505 25.0634  47 
   2  -2  -3 63.8234 3.60564  50 
  -2  -2   3 68.1454 4.36558  48 
  -2  -2   3 62.4169 3.98662  49 
  -2  -2   3 61.9964 3.67953  70 
  -2  -2   3 59.9430 3.80054  46 
   2  -2  -3 63.5283 4.86679  64 
  -2  -2   3 64.4926 6.20708  67 
  -2  -2   3 60.6771 4.11483  69 
   2  -2  -3 65.3364 4.39398  61 
   2  -2  -3 61.5971 4.37048  65 
   2  -2  -3 71.7380 3.89662  69 
   2  -2  -3 62.4933 3.70692  63 
   2  -2  -3 66.1715 3.69524  50 
  -2  -2   3 57.0754 3.76963  71 
  -2  -2   3 60.4149 3.85650  45 
   2  -2  -3 62.6958 3.43238  46 
  -2  -2   3 67.2149 4.82538  65 
  -2  -2   3 69.3289 3.96185  63 
  -2  -2   3 56.5242 4.46563  57 
  -2  -2   3 67.9827 6.14220  62 
   2  -2  -3 63.6945 5.88785  58 
   2  -2  -3 61.3710 3.45973  70 
  -2  -2   3 62.9865 4.66687  61 
  -2  -2   3 60.7586 6.04998  58 
  -2  -2   3 67.5565 4.04859  50 
   2   2  -3 58.2417 7.75582  66 
  -2   2   3 59.6377 4.50567  68 
   2   2  -3 68.1612 5.46694  52 
  -2   2   3 69.9643 7.10953  66 
   2   2  -3 66.5863 3.73749  51 
  -2   2   3 67.2615 4.75228  54 
   1  -2  -3 1159.57 57.2418  58 
  -1  -2   3 1152.02 55.7254  46 
  -1  -2   3 1071.93 55.7477  70 
  -1  -2   3 1158.62 56.5728  61 
  -1  -2   3 1130.64 55.9929  63 
  -1  -2   3 1144.58 55.7623  49 
   1  -2  -3 1157.25 55.8618  69 
   1  -2  -3 1168.27 56.2143  65 
  -1  -2   3 1168.62 56.6767  65 
   1  -2  -3 1074.46 56.1727  61 
   1  -2  -3 1089.10 55.6420  50 
   1  -2  -3 1130.78 55.6283  50 
  -1  -2   3 1169.84 56.1395  69 
  -1  -2   3 1133.00 57.4130  67 
   1  -2  -3 1173.57 55.8155  63 
   1  -2  -3 1127.59 56.5202  64 
  -1  -2   3 1067.75 55.7699  50 
  -1  -2   3 1168.00 56.9140  64 
  -1  -2   3 1124.81 57.5853  58 
   1  -2  -3 1154.25 55.5906  70 
  -1  -2   3 1202.97 56.2817  57 
   1   2  -3 1076.55 55.8019  51 
   1   2  -3 1177.87 57.1808  52 
   1   2  -3 1112.79 55.6617  51 
  -1   2   3 1167.15 58.6856  66 
  -1   2   3 1164.83 56.6040  54 
   1   2  -3 1220.56 60.0309  66 
  -1   2   3 1106.75 58.5895  66 
  -1   2   3 1184.30 56.3521  68 
   0  -2   3 122.025 8.62679  58 
   0  -2  -3 137.141 6.69071  70 
   0  -2  -3 131.376 6.74521  50 
   0  -2   3 133.874 6.91099  50 
   0  -2  -3 132.195 6.92400  63 
   0  -2  -3 132.005 6.76094  50 
   0  -2   3 140.824 9.36495  67 
   0  -2  -3 133.584 8.50720  58 
   0  -2   3 129.681 7.69415  61 
   0  -2   3 141.047 7.12833  63 
   0  -2   3 127.014 6.79752  46 
   0  -2  -3 123.347 7.33192  65 
   0  -2   3 130.246 6.82421  70 
   0  -2  -3 142.479 7.83757  64 
   0  -2  -3 142.669 6.98556  69 
   0  -2   3 129.066 7.20779  69 
   0  -2   3 136.878 7.84203  65 
   0  -2  -3 134.976 7.35995  61 
   0  -2   3 137.631 7.36175  57 
   0  -2  -3 145.020 7.83637  64 
   0  -2   3 128.830 6.88661  49 
   0   2  -3 124.001 8.03957  60 
   0   2  -3 126.627 6.64005  51 
   0   2  -3 139.416 10.8277  66 
   0   2  -3 144.166 8.47585  52 
   0   2   3 132.717 7.93644  54 
   0   2  -3 126.706 6.65402  51 
   1  -2   3 172.790 9.81985  65 
   1  -2   3 168.690 10.1170  64 
   1  -2   3 180.116 11.6197  67 
   1  -2   3 172.156 9.21180  69 
   1  -2   3 163.017 8.70148  46 
  -1  -2  -3 179.333 9.56612  65 
   1  -2   3 179.945 9.42164  57 
  -1  -2  -3 175.387 9.93259  64 
  -1  -2  -3 161.017 8.64725  70 
   1  -2   3 158.735 10.8279  58 
  -1  -2  -3 158.778 8.85805  63 
   1  -2   3 166.945 9.73955  61 
  -1  -2  -3 179.531 10.8043  58 
   1  -2   3 173.183 8.78250  49 
   1  -2   3 173.354 9.10857  48 
  -1  -2  -3 176.589 8.98353  48 
   1  -2   3 184.922 8.84232  50 
  -1  -2  -3 168.813 8.63768  46 
  -1  -2  -3 170.526 9.44020  61 
  -1  -2  -3 170.907 9.00178  69 
   1  -2   3 168.269 8.75828  70 
  -1  -2  -3 175.320 8.73409  50 
   1   2   3 176.721 9.80351  54 
  -1   2  -3 172.522 12.9934  66 
  -1   2  -3 175.086 10.4205  52 
  -1   2  -3 160.860 8.59193  51 
  -2  -2  -3 2101.78 100.601  48 
  -2  -2  -3 2206.90 100.325  70 
   2  -2   3 1957.67 101.905  64 
   2  -2   3 2014.25 102.466  67 
   2  -2   3 2180.30 100.405  70 
   2  -2   3 1957.42 100.356  71 
   2  -2   3 2056.79 100.268  46 
   2  -2   3 2078.45 100.364  45 
  -2  -2  -3 2029.74 100.386  71 
   2  -2   3 2042.89 100.309  49 
  -2  -2  -3 1959.54 100.238  46 
   2  -2   3 2149.32 100.978  69 
   2  -2   3 2020.93 100.613  48 
  -2  -2  -3 2011.06 101.790  64 
  -2  -2  -3 2025.72 100.729  69 
  -2  -2  -3 2049.26 100.335  45 
  -2  -2  -3 1970.67 101.332  65 
   2  -2   3 2077.61 101.539  65 
  -2  -2  -3 1949.93 100.555  63 
  -2   2  -3 1969.74 100.263  51 
  -2   2  -3 2180.07 101.873  52 
   2   2   3 2210.34 100.230  51 
  -2   2  -3 2113.05 106.243  66 
   2   2   3 2080.34 101.074  54 
  -3  -2  -3 965.114 49.1129  69 
   3  -2   3 964.989 49.0325  44 
  -3  -2  -3 1038.53 48.5750  71 
  -3  -2  -3 981.898 48.4178  70 
  -3  -2  -3 993.513 48.6442  75 
  -3  -2  -3 962.181 49.0461  44 
   3  -2   3 984.921 51.2410  67 
  -3  -2  -3 997.292 48.3639  46 
   3  -2   3 1017.54 48.7978  48 
   3  -2   3 960.728 48.6432  75 
   3  -2   3 1000.48 48.4652  45 
   3  -2   3 884.934 49.8229  65 
  -3  -2  -3 1075.78 48.8655  48 
  -3  -2  -3 954.158 49.8383  65 
   3  -2   3 1042.27 48.4130  49 
  -3  -2  -3 1008.04 48.4726  45 
   3  -2   3 994.320 48.3525  46 
  -3  -2  -3 875.452 50.8795  67 
   3  -2   3 954.658 49.2289  69 
   3  -2   3 981.851 48.4968  71 
  -3   2  -3 954.153 48.4209  51 
   3   2   3 955.563 48.4424  51 
   3   2   3 1004.48 48.5113  73 
  -3   2  -3 1091.27 50.1731  52 
   4  -2   3 117.570 7.22960  71 
  -4  -2  -3 122.581 7.03397  45 
  -4  -2  -3 133.630 7.28124  71 
   4  -2   3 125.827 7.15521  49 
   4  -2   3 122.323 8.22361  44 
   4  -2   3 109.397 8.25548  79 
   4  -2   3 125.253 7.22160  45 
   4  -2   3 128.273 10.1108  67 
   4  -2   3 132.087 7.79545  48 
   4  -2   3 122.972 6.92682  46 
  -4  -2  -3 118.500 7.51836  48 
  -4  -2  -3 123.522 8.13590  44 
  -4  -2  -3 129.502 7.53603  75 
  -4  -2  -3 118.410 10.0455  67 
   4  -2   3 126.315 7.52170  75 
  -4   2  -3 132.531 6.97625  51 
   4   2   3 116.376 7.71535  77 
  -4   2  -3 125.204 7.51564  77 
   4   2   3 113.496 7.50799  73 
   4   2   3 130.984 7.17952  51 
   4   2   3 124.035 8.00575  43 
  -4   2  -3 117.677 8.06887  42 
   5  -2   3 117.231 8.61022  79 
  -5  -2  -3 125.514 7.12165  45 
   5  -2   3 120.391 7.72548  75 
  -5  -2  -3 124.642 7.52122  75 
  -5  -2  -3 120.021 7.36396  71 
  -5  -2  -3 111.917 7.28823  47 
   5  -2   3 121.785 7.35366  71 
   5  -2   3 121.345 8.66267  44 
   5  -2   3 110.760 7.12606  49 
   5  -2   3 117.484 8.05093  48 
  -5  -2  -3 120.563 8.49210  44 
   5  -2   3 121.692 7.42347  45 
   5   2   3 113.676 7.82046  40 
   5   2   3 113.097 7.86735  73 
   5   2   3 121.133 8.02975  43 
  -5   2  -3 104.740 8.14215  83 
  -5   2  -3 125.715 7.67725  77 
   5   2   3 99.4081 7.87265  77 
   6  -2   3 104.924 8.27885  48 
  -6  -2  -3 104.767 7.50280  75 
   6  -2   3 111.661 6.91753  71 
   6  -2   3 121.450 7.86142  75 
   6  -2   3 112.493 7.19843  45 
   6  -2   3 104.347 8.92278  44 
  -6  -2  -3 97.4037 6.84312  45 
   6  -2   3 115.307 8.02986  41 
  -6  -2  -3 108.850 7.32489  47 
   6  -2   3 98.4065 6.96452  49 
   6  -2   3 118.256 8.64949  79 
  -6  -2  -3 110.805 7.01150  71 
  -6  -2  -3 86.2878 9.42914  44 
   6   2   3 113.624 8.21909  77 
   6   2   3 105.917 8.17601  38 
   6   2   3 110.078 7.86062  43 
  -6   2  -3 93.4260 8.07791  83 
   6   2   3 109.015 7.82984  73 
   6   2   3 103.070 7.61102  40 
  -6   2  -3 110.427 7.66334  77 
   7  -2   3 68.3277 7.54128  79 
  -7  -2  -3 66.9625 5.50236  71 
  -7  -2  -3 72.7012 5.69025  45 
   7  -2   3 57.3485 6.66311  48 
   7  -2   3 74.0208 5.67398  71 
   7  -2   3 65.5927 6.00602  45 
   7  -2   3 76.4834 6.76744  41 
   7  -2   3 58.5149 6.20543  27 
   7  -2   3 69.4663 6.32575  75 
  -7  -2  -3 57.7885 5.54672  27 
  -7  -2  -3 67.3191 6.09163  75 
  -7  -2  -3 30.6571 9.48949  20 
  -7  -2  -3 65.2604 5.49916  47 
   7  -2   3 61.6569 9.96735  24 
   7  -2   3 63.8173 6.68518  33 
   7   2   3 68.1117 7.04715  38 
  -7   2  -3 52.1519 6.71765   7 
  -7   2  -3 56.5372 6.05578  28 
   7   2   3 100.847 8.77604  16 
   7   2   3 45.5209 7.13585   4 
  -7   2  -3 64.7999 5.82507   3 
  -7   2  -3 55.0364 5.39445  17 
   7   2   3 65.1733 9.46956   7 
  -7   2  -3 46.5605 6.30202   4 
  -7   2  -3 64.8642 7.16669   6 
  -7   2  -3 58.0320 6.80788  16 
   7   2   3 44.6470 8.24801  31 
   7   2   3 71.1271 6.61298  40 
  -7   2  -3 87.6914 6.93854  14 
   7   2   3 65.3852 7.53918  77 
  -7   2  -3 74.4701 7.04782  83 
  -7   2  -3 44.5173 6.57903   2 
   7   2   3 64.9063 6.64491  43 
  -7   2  -3 97.2441 7.35143  13 
  -7   2  -3 72.3619 6.18684  77 
   7   2   3 72.6545 5.91411  73 
  -7   2  -3 68.2961 6.50034  31 
   7   2   3 54.8379 7.33823  15 
  -7   2  -3 65.2285 8.64145   5 
   7   2   3 54.5986 6.63244   3 
   7   2   3 65.5670 8.73524  13 
  -8  -2  -3 144.321 9.08022  18 
  -8  -2  -3 140.491 9.01822  19 
   8  -2   3 147.461 10.4779  24 
   8  -2   3 146.722 8.96661  27 
   8  -2   3 143.098 12.0293  18 
  -8  -2  -3 143.690 8.67923  27 
   8  -2   3 133.229 9.73271  20 
   8  -2   3 170.709 9.76397  33 
   8  -2   3 159.654 10.9407  79 
   8  -2   3 149.321 9.72915  41 
   8  -2   3 146.833 9.42237  19 
  -8  -2  -3 144.216 9.52065  20 
   8   2   3 151.972 10.5153  15 
  -8   2  -3 155.904 8.73024   1 
   8   2   3 133.524 8.95730   3 
  -8   2  -3 153.730 9.88514  83 
  -8   2  -3 139.856 8.99518   7 
  -8   2  -3 147.288 8.39197  16 
   8   2   3 144.879 9.97161  38 
  -8   2  -3 148.417 8.44582  17 
  -8   2  -3 159.483 9.12193   2 
  -8   2  -3 150.732 9.08428  14 
  -8   2  -3 148.255 9.36191   5 
   8   2   3 145.924 9.32356  13 
  -8   2  -3 158.471 8.65703   3 
  -8   2  -3 140.350 9.32375  77 
  -8   2  -3 145.255 8.95807  31 
   8   2   3 127.241 8.89285  16 
  -8   2  -3 142.427 9.57293   6 
  -8   2  -3 156.088 8.80982   4 
  -8   2  -3 153.618 8.64898  13 
   8   2   3 148.742 9.25160   4 
   8   2   3 147.061 9.97186   7 
   8   2   3 146.270 9.49362  31 
   9  -2   3 40.6247 6.34068  24 
  -9  -2  -3 20.7495 3.76514  19 
   9  -2   3 20.4560 5.05014  20 
   9  -2   3 24.7483 3.64383  27 
   9  -2   3 23.0160 4.74979  19 
   9  -2   3 25.3671 4.70398  18 
  -9  -2  -3 24.0775 4.59053  20 
  -9  -2  -3 19.1064 3.95380  18 
   9  -2   3 19.1169 4.59561  33 
  -9   2  -3 19.1927 2.79389  16 
  -9   2  -3 17.6389 3.56363   4 
   9   2   3 27.5474 4.62924  38 
  -9   2  -3 27.4141 4.03820  31 
  -9   2  -3 18.9111 4.62680   5 
  -9   2  -3 21.7305 3.27651   1 
   9   2   3 25.1235 4.07333   3 
   9   2   3 24.6194 4.41265   4 
  -9   2  -3 24.2659 3.70517  14 
   9   2   3 26.4217 5.18654   7 
  -9   2  -3 26.8310 4.47345   7 
   9   2   3 25.4795 4.06934  16 
  -9   2  -3 18.0796 3.79749   2 
  -9   2  -3 26.6768 4.49034  32 
  -9   2  -3 22.7435 3.51804   3 
   9   2   3 18.6607 4.28214  13 
   9   2   3 27.4139 4.51459  15 
  -9   2  -3 23.4839 3.37495  17 
   9   2   3 23.2789 4.56121  31 
  -9   2  -3 20.0093 3.13350  13 
 -10  -2  -3 46.2976 3.41657  19 
 -10  -2  -3 37.8888 3.50566  18 
  10  -2   3 45.8037 3.80187  19 
  10  -2   3 43.1565 3.88509  18 
 -10  -2  -3 45.9103 3.91320  20 
  10  -2   3 47.3258 4.51324  20 
  10   2   3 39.0371 3.52637  32 
 -10   2  -3 47.7775 3.88299   7 
  10   2   3 40.1187 3.78198   4 
 -10   2  -3 47.1788 2.83859  32 
 -10   2  -3 45.7929 2.78921   1 
 -10   2  -3 47.1810 3.02653   3 
  10   2   3 43.2125 4.64810   7 
  10   2   3 43.4073 4.21287  31 
  10   2   3 38.4167 2.86699  16 
  10   2   3 41.0018 3.50169   3 
  10   2   3 35.8384 3.12698   1 
 -10   2  -3 40.3548 3.24836   4 
 -10   2  -3 38.0792 3.36173  31 
  10   2   3 42.0850 3.28595  13 
 -10   2  -3 36.6340 3.63404   5 
 -10   2  -3 40.6029 3.38528   2 
  10  -3  -3 6.28863 2.76525  24 
 -10  -3   3 4.94779 2.09172  19 
  10  -3  -3 11.4621 3.89326  33 
 -10  -3   3 7.36398 2.26862  18 
  10  -3  -3 3.00015 1.77871  27 
 -10  -3   3 3.69108 2.33013  20 
  10   3  -3 7.17189 1.63425   1 
  10   3  -3 8.26722 3.64659  15 
 -10   3   3 8.79183 2.38729  28 
 -10   3   3 5.74669 1.79535  30 
  10   3  -3 6.08327 2.60923   7 
  10   3  -3 4.11383 1.80912   3 
  10   3  -3 4.66117 2.12901  10 
 -10   3   3 6.32737 2.21253  14 
  10   3  -3 6.13863 2.17632  31 
 -10   3   3 3.82982 1.75988   5 
 -10   3   3 4.97459 1.33059  22 
 -10   3   3 9.59589 2.50549  31 
  10   3  -3 8.37505 2.42304  23 
  10   3  -3 6.81582 2.30727   4 
  10   3  -3 4.11844 1.81944  32 
 -10   3   3 5.99456 2.09893   7 
   9  -3  -3 128.410 7.85947  27 
   9  -3  -3 120.405 9.32414  24 
  -9  -3   3 123.555 7.97149  19 
  -9  -3   3 134.420 8.23546  18 
   9  -3  -3 118.493 8.65852  33 
  -9  -3   3 122.523 8.62200  20 
  -9   3   3 126.464 8.29847   5 
   9   3  -3 126.634 8.48279  23 
   9   3  -3 128.530 7.69035  13 
   9   3  -3 121.190 8.57964   7 
  -9   3   3 120.029 7.33359  31 
   9   3  -3 130.784 7.48510   1 
   9   3  -3 124.019 9.48373  15 
  -9   3   3 132.258 8.11304  14 
  -9   3   3 122.962 8.36252   6 
   9   3  -3 133.320 7.67287   3 
   9   3  -3 114.654 7.71222  32 
   9   3  -3 127.392 8.01002   4 
  -9   3   3 122.173 7.54847  30 
  -9   3   3 117.259 7.23691  28 
  -9   3   3 125.265 7.13877  22 
  -9   3   3 124.921 7.87647   7 
  -9   3   3 127.376 6.77416   3 
   9   3  -3 117.065 7.16580  16 
   9   3  -3 133.593 8.52754  10 
   9   3  -3 139.754 8.21143  31 
  -9   3   3 130.499 6.54078  32 
  -8  -3   3 34.6976 4.63758  27 
   8  -3  -3 33.8221 5.96135  75 
   8  -3  -3 35.4551 5.60218  79 
  -8  -3   3 37.5317 4.91475  75 
   8  -3  -3 38.3975 5.57043  33 
   8   3  -3 42.2974 6.41380  23 
  -8   3   3 35.0042 3.19753  32 
   8   3  -3 33.9098 5.64386  10 
  -8   3   3 34.8782 5.74181   6 
  -8   3   3 37.5693 4.22707  30 
   8   3  -3 33.0808 4.45481  16 
  -8   3   3 36.5639 3.61915   3 
  -8   3   3 36.1112 5.62218   5 
   8   3  -3 30.1330 5.25149  31 
  -8   3   3 29.2683 3.68719  29 
   8   3  -3 41.3960 4.87472   3 
  -8   3   3 38.0377 3.86500  77 
   8   3  -3 25.8233 4.97492  77 
   8   3  -3 38.0394 4.65401   1 
   8   3  -3 34.1912 5.30081  13 
  -8   3   3 38.1361 3.64219  28 
  -8   3   3 42.2787 3.83892  22 
  -8   3   3 33.6638 4.90295   7 
   8   3  -3 27.6592 6.02644   7 
   8   3  -3 34.7370 8.25188  15 
  -8   3   3 37.9869 5.08067  14 
   8   3  -3 25.0020 4.64058  28 
  -8   3   3 32.3009 3.17586   1 
  -8   3   3 34.6055 4.06285  31 
   8   3  -3 36.0412 5.46849   4 
  -7  -3   3 128.864 10.4752  44 
   7  -3  -3 162.153 10.0057  79 
   7  -3  -3 149.190 9.19155  75 
  -7  -3   3 153.976 9.39862  75 
   7  -3  -3 139.349 10.4858  44 
   7  -3  -3 168.534 10.1390  48 
  -7  -3   3 124.927 8.89637  45 
   7  -3  -3 144.331 8.55382  71 
  -7  -3   3 149.556 8.85163  71 
   7   3  -3 137.239 9.55870  77 
   7   3  -3 164.101 13.3974  10 
  -7   3   3 156.979 8.57240  77 
   7   3  -3 146.861 9.90447  38 
   6  -3  -3 11.8215 4.34294  79 
   6  -3  -3 11.2617 2.74425  75 
  -6  -3   3 4.52753 2.62574  44 
   6  -3  -3 12.8854 3.16717  71 
  -6  -3   3 14.6914 4.15221  75 
   6  -3  -3 7.06559 2.76614  44 
  -6  -3   3 11.3640 2.73010  45 
  -6  -3   3 7.31665 2.69995  49 
   6  -3  -3 12.4166 4.43156  48 
   6  -3  -3 11.2446 2.58888  46 
  -6  -3   3 17.0538 4.35366  48 
  -6  -3   3 16.3965 3.00956  71 
   6   3  -3 4.71119 3.68046  38 
   6   3  -3 11.6494 3.76861  39 
   6   3  -3 15.8053 3.86925  77 
  -6   3   3 11.1234 3.19837  77 
  -5  -3   3 102.251 7.09665  49 
   5  -3  -3 122.377 7.79588  48 
   5  -3  -3 120.362 6.76861  46 
  -5  -3   3 118.207 7.98264  48 
  -5  -3   3 122.921 8.69649  44 
   5  -3  -3 118.640 7.75707  69 
  -5  -3   3 124.696 7.60328  75 
  -5  -3   3 133.262 7.30175  71 
   5  -3  -3 122.135 6.79932  70 
  -5  -3   3 115.275 7.32313  45 
   5  -3  -3 120.246 8.25698  44 
   5   3  -3 116.329 7.48731  77 
  -5   3   3 116.647 6.82321  77 
   5   3  -3 114.947 8.02257  38 
   5   3  -3 109.846 8.07893  39 
  -4  -3   3 229.192 12.6315  44 
   4  -3  -3 241.168 12.0550  69 
   4  -3  -3 220.719 11.1954  46 
  -4  -3   3 208.943 11.4246  46 
  -4  -3   3 230.634 11.4380  70 
  -4  -3   3 228.685 11.5663  49 
  -4  -3   3 216.515 11.5254  71 
  -4  -3   3 184.737 11.9815  48 
   4  -3  -3 208.175 11.2113  70 
   4  -3  -3 235.179 12.3396  44 
  -4  -3   3 213.726 11.7849  75 
   4  -3  -3 219.526 11.8233  48 
  -4  -3   3 204.190 11.4866  45 
  -4   3   3 208.242 11.0551  77 
  -4   3   3 193.984 11.2289  80 
   4   3  -3 244.443 11.6761  77 
   4   3  -3 209.488 12.5021  42 
   3  -3  -3 683.061 35.3441  48 
  -3  -3   3 703.260 35.1844  46 
   3  -3  -3 749.999 35.5237  69 
  -3  -3   3 749.355 35.3068  71 
  -3  -3   3 720.876 35.6788  48 
  -3  -3   3 695.435 35.2191  49 
  -3  -3   3 733.800 35.8763  69 
  -3  -3   3 662.969 35.2103  45 
   3  -3  -3 725.794 35.0029  70 
   3  -3  -3 723.173 35.0454  50 
  -3  -3   3 709.731 35.8464  75 
  -3  -3   3 696.223 35.1898  70 
   3  -3  -3 713.186 34.9565  46 
   3   3  -3 709.364 35.2109  77 
   2  -3  -3 39.7059 2.42988  50 
  -2  -3   3 37.1292 3.32451  48 
  -2  -3   3 35.8141 2.60465  70 
   2  -3  -3 35.8534 2.15908  46 
  -2  -3   3 39.6300 3.62475  65 
  -2  -3   3 36.2963 3.07558  69 
  -2  -3   3 39.4252 2.90256  50 
   2  -3  -3 39.9848 2.24952  70 
  -2  -3   3 41.6904 2.80756  46 
   2  -3  -3 36.8685 2.40950  50 
   2  -3  -3 36.2452 2.63812  69 
  -2  -3   3 37.3812 2.86794  49 
  -2   3   3 45.0434 4.58454  54 
   2   3  -3 35.6773 2.94975  77 
  -2   3   3 36.7356 5.16294  66 
   2   3  -3 36.1158 6.24662  66 
  -2   3   3 39.4097 3.45794  68 
   2   3  -3 38.3543 4.81502  52 
   1  -3  -3 486.683 24.0598  50 
  -1  -3   3 512.049 25.3884  65 
   1  -3  -3 503.016 24.2999  69 
   1  -3  -3 500.295 24.8747  64 
  -1  -3   3 483.337 24.2620  49 
   1  -3  -3 487.116 24.0395  50 
  -1  -3   3 512.806 24.2832  70 
  -1  -3   3 493.410 24.7486  69 
  -1  -3   3 495.605 24.6018  48 
   1  -3  -3 484.220 23.9741  70 
  -1  -3   3 490.290 24.2958  50 
  -1  -3   3 525.897 24.2243  46 
   1   3  -3 456.742 28.2773  66 
  -1   3   3 456.632 26.0394  66 
   1   3  -3 456.837 26.1802  52 
  -1   3   3 518.452 24.8952  68 
  -1   3   3 493.439 25.7210  54 
  -1   3   3 476.325 26.0194  66 
   0  -3  -3 434.987 20.0155  69 
   0  -3   3 424.107 20.9485  65 
   0  -3   3 426.028 20.3732  69 
   0  -3   3 387.987 20.1871  48 
   0  -3   3 388.195 19.9137  50 
   0  -3   3 414.532 19.8232  46 
   0  -3   3 386.954 19.8599  70 
   0  -3   3 391.028 19.8889  49 
   0  -3  -3 385.120 19.7342  50 
   0  -3  -3 390.054 19.6721  70 
   0  -3  -3 414.447 19.7667  50 
   0   3  -3 366.498 23.6074  66 
   0   3   3 412.488 21.4633  54 
   0   3  -3 396.850 22.0281  52 
  -1  -3  -3 242.137 13.8942  65 
   1  -3   3 256.495 13.2190  49 
  -1  -3  -3 280.801 13.5332  69 
  -1  -3  -3 245.793 13.3945  48 
   1  -3   3 268.691 13.2843  50 
  -1  -3  -3 265.321 13.1738  50 
  -1  -3  -3 286.369 13.1358  70 
   1  -3   3 277.310 13.7531  69 
   1  -3   3 275.147 13.2305  70 
   1  -3   3 260.322 13.1594  46 
   1  -3   3 256.789 13.5417  48 
   1  -3   3 257.017 14.2846  65 
  -1  -3  -3 253.726 13.0507  46 
  -1   3  -3 262.658 17.5810  66 
   1   3   3 240.877 14.6450  54 
  -1   3  -3 257.429 15.4016  52 
  -1   3  -3 270.054 13.2439  77 
   2  -3   3 176.713 10.0148  49 
   2  -3   3 181.440 10.6949  44 
  -2  -3  -3 197.951 11.9999  44 
   2  -3   3 182.464 10.6507  69 
   2  -3   3 207.480 10.5011  48 
  -2  -3  -3 195.637 10.2102  50 
  -2  -3  -3 197.515 9.93864  46 
   2  -3   3 198.125 10.0945  70 
  -2  -3  -3 181.039 9.96099  70 
  -2  -3  -3 200.311 10.3902  48 
  -2  -3  -3 203.966 10.5647  69 
   2  -3   3 210.461 10.0162  46 
  -2   3  -3 186.767 12.2854  52 
   2   3   3 196.330 10.0846  77 
   2   3   3 192.279 11.4250  54 
  -2   3  -3 201.165 10.0136  77 
  -2   3  -3 186.020 12.3053  42 
  -3  -3  -3 600.143 31.1122  44 
  -3  -3  -3 659.379 30.3939  70 
  -3  -3  -3 574.852 30.4451  71 
   3  -3   3 630.971 30.7925  48 
   3  -3   3 621.421 30.4777  71 
  -3  -3  -3 618.802 30.2904  46 
   3  -3   3 642.991 30.3431  49 
   3  -3   3 639.669 30.2969  46 
   3  -3   3 602.626 31.0657  44 
   3  -3   3 590.135 30.4191  70 
   3  -3   3 632.629 31.3179  69 
  -3  -3  -3 611.230 30.7492  48 
  -3  -3  -3 649.405 31.1143  69 
  -3   3  -3 610.876 31.0423  42 
   3   3   3 646.853 31.5786  40 
  -3   3  -3 519.386 32.3255  52 
   3   3   3 608.943 30.4001  77 
   3   3   3 568.811 31.2883  43 
  -3   3  -3 578.657 30.2887  77 
  -4  -3  -3 146.336 8.46668  75 
  -4  -3  -3 127.873 8.16665  70 
   4  -3   3 134.265 8.11719  45 
   4  -3   3 154.182 7.89944  46 
   4  -3   3 137.168 9.24008  79 
   4  -3   3 149.338 9.31296  44 
   4  -3   3 129.392 7.97757  70 
  -4  -3  -3 148.903 9.28581  44 
  -4  -3  -3 140.636 7.93286  46 
   4  -3   3 148.509 8.09962  49 
   4  -3   3 131.099 8.38593  75 
   4  -3   3 144.592 8.74879  48 
   4  -3   3 148.522 8.21400  71 
  -4  -3  -3 135.570 8.24010  71 
  -4  -3  -3 142.158 8.46046  47 
  -4  -3  -3 152.657 8.70221  48 
  -4  -3  -3 137.379 7.99704  45 
   4   3   3 126.703 9.29626  43 
  -4   3  -3 144.729 8.12707  77 
   4   3   3 139.964 9.01214  38 
  -4   3  -3 148.057 9.07953  42 
   4   3   3 152.418 9.60540  40 
   4   3   3 128.995 8.29819  77 
  -5  -3  -3 143.932 9.04846  75 
   5  -3   3 147.755 9.03434  75 
   5  -3   3 147.825 10.0915  79 
   5  -3   3 150.792 8.55521  49 
   5  -3   3 158.667 8.78577  71 
  -5  -3  -3 144.862 8.62266  45 
  -5  -3  -3 156.875 9.21470  47 
  -5  -3  -3 140.545 8.66183  71 
   5  -3   3 111.220 9.24732  46 
  -5  -3  -3 148.199 10.1207  44 
   5  -3   3 156.165 8.78693  45 
   5  -3   3 150.991 10.2012  44 
   5  -3   3 141.976 9.41868  48 
   5   3   3 143.937 9.78424  40 
   5   3   3 156.224 9.71227  38 
   5   3   3 150.179 9.16763  77 
   5   3   3 143.061 10.2812  43 
  -5   3  -3 144.686 8.72850  77 
  -6  -3  -3 103.792 7.44078  47 
   6  -3   3 99.7491 7.18290  45 
   6  -3   3 116.208 8.18057  48 
  -6  -3  -3 110.895 6.90878  71 
   6  -3   3 100.864 8.76366  44 
  -6  -3  -3 96.3929 8.61866  44 
   6  -3   3 92.5754 7.94562  33 
   6  -3   3 119.900 8.89613  79 
   6  -3   3 106.103 7.97518  41 
   6  -3   3 106.292 7.45599  75 
   6  -3   3 106.378 6.86688  71 
  -6  -3  -3 99.2899 6.90885  45 
  -6  -3  -3 100.300 7.36119  75 
  -6   3  -3 101.357 7.08604  77 
   6   3   3 110.386 8.77901  40 
   6   3   3 115.216 8.86094  43 
   6   3   3 105.753 8.54040  38 
   6   3   3 95.5688 7.64606  77 
   7  -3   3 14.2321 4.00797  75 
  -7  -3  -3 10.9289 3.79878  27 
  -7  -3  -3 14.8701 3.98003  75 
   7  -3   3 3.95676 2.40638  27 
   7  -3   3 8.53384 3.41553  33 
   7  -3   3 3.73406 3.65145  79 
   7  -3   3 14.0710 4.40964  41 
   7  -3   3 7.93813 3.35577  44 
  -7   3  -3 8.50902 3.64595   6 
   7   3   3 9.10116 3.01663  31 
   7   3   3 11.5022 3.37443  13 
  -7   3  -3 11.4650 2.67080   1 
   7   3   3 17.1636 4.98132  43 
  -7   3  -3 4.87075 2.25511   7 
  -7   3  -3 9.96798 3.01232  14 
  -7   3  -3 9.41407 2.50806   2 
   7   3   3 3.63577 4.18117  38 
   7   3   3 8.60213 2.77235  28 
  -7   3  -3 9.60135 3.76567  25 
   7   3   3 5.83600 3.00302  30 
  -7   3  -3 6.33831 2.03245  28 
   7   3   3 6.71922 3.35516  40 
  -7   3  -3 12.0837 3.11788  17 
   7   3   3 7.82046 2.04714  16 
  -7   3  -3 9.42822 2.39965  31 
  -7   3  -3 5.46588 2.80540  77 
  -7   3  -3 8.35268 2.27283  30 
  -7   3  -3 6.62456 1.94310  32 
   7   3   3 2.54109 2.40289  32 
   7   3   3 8.86004 2.57409   1 
   7   3   3 4.91088 3.32894  77 
   7   3   3 2.88246 2.23576   3 
   7   3   3 7.21738 2.86302   4 
  -7   3  -3 8.12970 1.99795   3 
   7   3   3 5.28736 3.21341   7 
  -7   3  -3 8.00047 2.28406  16 
   8  -3   3 82.0806 6.06046  27 
   8  -3   3 88.0364 6.82393  33 
  -8  -3  -3 86.6234 6.62574  20 
   8  -3   3 84.7636 7.82094  24 
  -8  -3  -3 87.5726 5.95667  27 
  -8   3  -3 87.5882 6.36930  14 
   8   3   3 91.2818 6.50501  28 
   8   3   3 86.2441 4.89593  16 
   8   3   3 77.0556 6.96052  38 
   8   3   3 85.0422 6.18468   4 
   8   3   3 77.8367 6.48428  31 
  -8   3  -3 81.2393 5.00720  32 
  -8   3  -3 82.0631 5.21268   3 
  -8   3  -3 80.9234 6.96690   6 
  -8   3  -3 85.5757 5.56802  17 
   8   3   3 83.4939 5.55886   1 
  -8   3  -3 92.8405 5.88911  30 
  -8   3  -3 79.4046 5.78393   2 
  -8   3  -3 87.2233 5.42185  28 
   8   3   3 78.0925 6.33968  30 
   8   3   3 83.2754 6.93513   7 
   8   3   3 88.7699 5.61276  32 
  -8   3  -3 85.3196 6.13725   7 
   8   3   3 90.0671 5.85498   3 
   8   3   3 88.1139 8.04719  15 
  -8   3  -3 93.3179 4.90256   1 
   8   3   3 82.0671 9.14288  40 
  -8   3  -3 86.8042 6.58848  25 
  -8   3  -3 87.5059 5.77234  31 
   9  -3   3 71.9614 6.04167  24 
  -9  -3  -3 57.1747 4.90999  20 
  -9  -3  -3 46.3433 4.03622  27 
   9  -3   3 54.4397 4.77892  33 
  -9  -3  -3 65.8915 4.64059  19 
  -9  -3  -3 58.9867 4.48794  18 
   9  -3   3 64.3260 4.33392  27 
   9   3   3 62.2297 3.74811  32 
  -9   3  -3 49.1147 4.51054   7 
   9   3   3 58.0308 4.65658  30 
   9   3   3 65.0440 5.10064   7 
  -9   3  -3 50.8457 4.98101   6 
   9   3   3 53.9811 3.46421   1 
   9   3   3 56.1619 4.63929  31 
   9   3   3 54.8252 3.87678   3 
  -9   3  -3 57.9012 3.86357  28 
  -9   3  -3 53.2743 4.09456  31 
   9   3   3 49.6725 4.36068   4 
  -9   3  -3 57.2890 4.53825  14 
  -9   3  -3 57.2165 4.23504  30 
  -9   3  -3 55.8976 3.89426  17 
   9   3   3 62.0142 5.30970  15 
   9  -4  -3 118.524 8.18730  24 
   9  -4  -3 135.505 7.13443  27 
  -9  -4   3 128.803 6.94819  27 
   9   4  -3 126.281 7.35566   7 
  -9   4   3 98.0431 7.07052  14 
  -9   4   3 118.507 6.65128  29 
  -9   4   3 115.810 6.66588  28 
   9   4  -3 108.633 7.38197  23 
   9   4  -3 122.202 6.97499  28 
   9   4  -3 120.356 7.49565  10 
   9   4  -3 122.787 7.00789  31 
   9   4  -3 137.171 8.35393  15 
   9   4  -3 126.889 7.21512  30 
  -8  -4   3 42.5701 4.53745  27 
   8  -4  -3 35.7031 5.00000  27 
  -8   4   3 43.6652 3.59818  29 
   8   4  -3 36.8249 5.41758  10 
   8   4  -3 36.1138 5.01206   7 
   8   4  -3 36.4269 4.35854  28 
   8   4  -3 44.5314 4.59904  30 
   8   4  -3 43.9229 4.59716  31 
   8   4  -3 36.1730 5.23485  23 
   8   4  -3 35.9005 3.95499   3 
  -8   4   3 40.7627 5.19403   6 
  -8   4   3 42.6242 4.71249  25 
  -8   4   3 31.0392 4.62964  14 
  -8   4   3 39.2201 3.57961  28 
  -8   4   3 41.2981 3.27941  30 
  -7  -4   3 29.3218 4.31082  27 
  -7   4   3 18.0390 5.34502   6 
   7   4  -3 18.2194 3.38941  77 
  -7   4   3 21.6739 4.66258  25 
   7   4  -3 22.7351 5.52377  23 
   7   4  -3 18.3444 5.20925   7 
   7   4  -3 23.9481 3.87120  29 
  -7   4   3 22.1583 3.08889  30 
   7   4  -3 19.9688 5.54564  10 
   7   4  -3 18.3217 4.50036  30 
   7   4  -3 22.3526 3.05984   3 
   7   4  -3 17.8188 3.97728  28 
   7   4  -3 29.1665 4.50404  31 
  -7   4   3 18.4353 3.12527  28 
  -7   4   3 20.9843 3.00888  29 
  -6  -4   3 49.3374 6.70209  44 
  -6  -4   3 62.0123 5.45448  75 
   6  -4  -3 53.4543 6.37231  44 
   6   4  -3 56.1180 6.40739   7 
   6   4  -3 60.1198 6.65907  10 
   6   4  -3 63.4073 4.84706  77 
  -6   4   3 55.5589 5.71329  80 
  -6   4   3 83.8820 6.75741   6 
   6   4  -3 63.9106 4.50643   3 
  -6   4   3 67.1837 6.31982  25 
   6   4  -3 65.6096 6.14169  39 
  -6   4   3 63.8071 4.27808  29 
  -6   4   3 61.6781 4.44681  30 
   6   4  -3 61.2225 5.61836  30 
   6   4  -3 64.6119 7.24490  23 
   6   4  -3 63.4668 5.18533  28 
   6   4  -3 60.9057 5.09725  29 
  -6   4   3 60.0090 4.51173  28 
   6   4  -3 61.1425 5.54597  31 
  -5  -4   3 41.6158 4.77494  48 
   5  -4  -3 40.9397 5.40351  44 
  -5  -4   3 39.2623 3.83250  46 
  -5  -4   3 46.8007 6.16194  44 
   5  -4  -3 39.0980 3.37029  70 
   5  -4  -3 40.2089 3.43048  46 
   5   4  -3 44.2820 5.92069  40 
   5   4  -3 42.6384 4.55416  35 
  -5   4   3 43.8719 3.61011  80 
   5   4  -3 44.3278 4.03041  77 
   5   4  -3 40.3374 5.61376  39 
   4  -4  -3 475.892 23.0546  70 
   4  -4  -3 451.447 22.9880  46 
  -4  -4   3 471.678 24.5715  44 
  -4  -4   3 457.705 23.2595  70 
  -4  -4   3 484.456 23.3741  49 
  -4  -4   3 432.289 23.8705  48 
  -4  -4   3 420.820 23.2263  46 
  -4   4   3 487.606 23.0045  80 
   4   4  -3 461.396 23.9846  39 
   4   4  -3 433.482 23.1084  77 
   4   4  -3 490.391 24.3003  40 
   4   4  -3 456.551 25.3187  82 
   4   4  -3 460.421 23.1527  35 
   4   4  -3 469.024 24.9252  36 
   3  -4  -3 112.888 5.92192  70 
  -3  -4   3 120.101 6.32125  70 
  -3  -4   3 112.675 6.37900  46 
  -3  -4   3 91.6231 6.31703  49 
  -3  -4   3 107.093 7.64795  44 
   3  -4  -3 111.592 6.43404  69 
   3  -4  -3 111.843 5.94167  46 
  -3  -4   3 111.128 6.96886  69 
   3  -4  -3 116.100 6.04888  50 
  -3  -4   3 98.7827 6.89778  48 
   3   4  -3 109.142 6.42650  80 
   3   4  -3 113.227 7.36950  39 
   3   4  -3 101.824 7.60784  40 
  -3   4   3 107.174 5.96118  80 
   3   4  -3 136.592 10.8124  43 
   3   4  -3 116.465 9.54465  82 
  -2  -4   3 151.487 8.14467  70 
   2  -4  -3 158.192 7.76808  70 
   2  -4  -3 155.395 7.81549  50 
  -2  -4   3 154.169 8.14972  46 
  -2  -4   3 152.439 8.77594  69 
   2  -4  -3 150.280 8.13096  69 
  -2  -4   3 154.056 8.22724  49 
  -2  -4   3 141.757 10.3339  48 
  -2   4   3 155.365 7.77196  80 
   2   4  -3 150.750 9.43320  42 
   2   4  -3 150.506 11.0443  82 
   2   4  -3 153.731 9.69454  43 
   2   4  -3 152.010 8.14352  80 
   2   4  -3 148.999 9.18182  39 
  -1  -4   3 25.5573 2.51896  69 
   1  -4  -3 23.1823 1.47858  70 
  -1  -4   3 20.6789 2.24533  50 
   1  -4  -3 18.4350 1.64712  50 
   1  -4  -3 24.7001 1.64786  50 
   1  -4  -3 22.5756 1.76050  69 
  -1  -4   3 21.7541 2.08744  46 
  -1  -4   3 19.8404 2.21975  49 
  -1   4   3 20.1511 1.64620  80 
  -1   4   3 18.2722 1.71492  80 
   1   4  -3 19.3800 5.51073  39 
   1   4  -3 21.0722 6.35752  82 
   1   4  -3 20.7983 2.32287  80 
   1   4  -3 24.7219 4.52262  42 
   1   4  -3 22.9436 4.79434  43 
   0  -4   3 154.058 8.12415  49 
   0  -4  -3 155.665 8.03791  50 
   0  -4  -3 156.440 8.18041  69 
   0  -4   3 152.484 8.18394  50 
   0  -4   3 152.892 8.11614  70 
   0  -4   3 166.266 8.07886  46 
   0  -4  -3 166.318 7.85942  70 
   0  -4   3 160.534 8.68601  69 
   0  -4  -3 150.091 7.90768  50 
   0   4  -3 155.897 8.11682  80 
   0   4   3 147.619 9.78613  43 
   0   4  -3 138.420 10.7395  82 
   0   4  -3 153.619 9.47737  42 
   0   4  -3 137.045 10.5969  39 
   0   4   3 157.266 7.91660  80 
   1  -4   3 14.0721 1.89282  50 
   1  -4   3 15.2925 2.29241  69 
  -1  -4  -3 11.2343 1.61246  50 
  -1  -4  -3 10.3516 1.46314  70 
   1  -4   3 9.81183 1.89414  49 
  -1  -4  -3 13.3476 1.58210  46 
   1  -4   3 12.0420 1.73433  46 
  -1  -4  -3 13.0563 1.74474  69 
   1  -4   3 13.2253 1.60536  70 
  -1   4  -3 10.0368 3.54845  42 
  -1   4  -3 13.1148 1.98734  80 
   1   4   3 15.0894 1.96973  80 
  -1   4  -3 13.3957 3.51910  39 
   1   4   3 9.94571 2.81122  40 
   1   4   3 12.2500 3.91813  43 
  -2  -4  -3 72.3413 4.69939  50 
  -2  -4  -3 64.2960 4.47239  69 
   2  -4   3 62.2840 4.08587  49 
   2  -4   3 66.9872 3.98489  46 
  -2  -4  -3 66.6253 3.91419  46 
  -2  -4  -3 59.8891 3.88682  70 
   2  -4   3 59.3969 4.58051  69 
   2  -4   3 67.5051 3.99113  70 
   2   4   3 68.5843 4.30752  80 
  -2   4  -3 65.5919 5.85311  42 
   2   4   3 61.5799 5.73904  40 
   2   4   3 52.6318 5.87747  43 
  -2   4  -3 67.0333 5.31726  39 
   2   4   3 54.2322 7.02351  37 
  -2   4  -3 60.7707 4.11115  80 
   3  -4   3 109.623 6.60621  49 
   3  -4   3 116.455 6.49222  46 
   3  -4   3 115.428 7.22735  48 
  -3  -4  -3 118.528 7.82951  44 
  -3  -4  -3 128.391 6.59645  70 
  -3  -4  -3 110.772 6.51493  46 
   3  -4   3 103.216 6.48631  70 
   3  -4   3 108.785 7.72334  44 
   3   4   3 116.930 7.50288  37 
   3   4   3 112.166 8.61103  40 
   3   4   3 115.140 8.58908  43 
  -3   4  -3 107.740 5.76995  35 
  -3   4  -3 118.186 6.65630  80 
   3   4   3 114.410 5.94637  35 
  -3   4  -3 120.508 8.07557  36 
   3   4   3 116.871 5.92974  35 
  -3   4  -3 120.720 8.25655  42 
   3   4   3 109.036 6.80038  80 
   4  -4   3 12.9381 3.69841  48 
   4  -4   3 10.4853 4.52832  44 
  -4  -4  -3 16.1089 4.76336  44 
   4  -4   3 15.9696 2.45511  70 
   4  -4   3 16.5994 2.62295  46 
  -4  -4  -3 15.2034 4.06205  47 
  -4  -4  -3 9.87577 2.72462  46 
  -4   4  -3 16.3364 2.18257  35 
  -4   4  -3 15.7606 2.22438  35 
   4   4   3 13.6428 3.57079  37 
   4   4   3 14.3625 2.57560  35 
   4   4   3 12.4310 3.49503  40 
   4   4   3 14.2662 4.28474  43 
   4   4   3 15.4543 2.61974  35 
  -4   4  -3 16.9692 4.31240  42 
  -5  -4  -3 469.610 25.3841  44 
   5  -4   3 478.545 25.3091  41 
   5  -4   3 457.081 25.2597  44 
   5   4   3 461.099 24.0409   7 
  -5   4  -3 504.674 25.2594   6 
   5   4   3 489.473 25.1754  40 
  -5   4  -3 475.102 24.3577  14 
  -5   4  -3 471.690 23.5641  29 
   5   4   3 491.412 25.6436  43 
   5   4   3 480.071 23.7097  35 
   5   4   3 498.561 23.8691  28 
  -5   4  -3 465.215 24.5879  25 
  -5   4  -3 448.879 23.5662  28 
  -5   4  -3 465.272 23.6671  31 
  -5   4  -3 450.745 24.1527   8 
  -5   4  -3 462.925 23.4269  35 
  -5   4  -3 479.254 23.3877  35 
   5   4   3 483.456 24.8727  38 
  -5   4  -3 451.565 23.5871  30 
   5   4   3 454.589 23.8253  30 
   5   4   3 465.731 23.8780  31 
   6  -4   3 11.3675 4.17220  41 
  -6  -4  -3 18.0709 3.97925  27 
  -6   4  -3 18.3405 3.20440  31 
  -6   4  -3 16.5743 2.83183  29 
   6   4   3 11.1423 3.84511  38 
  -6   4  -3 26.3590 4.65424   8 
  -6   4  -3 16.0110 3.00337  30 
   6   4   3 17.7323 3.81727  30 
  -6   4  -3 22.7612 5.80444   6 
   6   4   3 18.0311 5.45180  43 
  -6   4  -3 18.2853 4.98511  25 
   6   4   3 7.27527 2.39074  28 
   6   4   3 12.4825 3.55924  40 
  -6   4  -3 19.9726 3.00036  28 
  -6   4  -3 18.2151 2.24403  35 
   6   4   3 15.1481 4.43288   7 
   6   4   3 15.0112 3.42532  29 
   6   4   3 19.1724 3.10936  35 
   6   4   3 17.5725 3.98420  31 
  -6   4  -3 15.0909 2.27934  35 
  -6   4  -3 20.6636 4.77311  14 
  -6   4  -3 18.6998 3.72343   7 
  -7  -4  -3 32.5316 4.08592  27 
   7  -4   3 35.6465 4.23628  27 
   7   4   3 24.9291 5.15766  40 
  -7   4  -3 30.6857 3.33103  30 
   7   4   3 32.5215 4.10697  31 
   7   4   3 39.7664 4.77959   7 
  -7   4  -3 33.0512 3.23743  29 
   7   4   3 29.4202 3.99511  30 
  -7   4  -3 35.5989 4.95657  25 
   7   4   3 40.0893 3.98221  29 
  -7   4  -3 33.8556 3.33299  28 
  -7   4  -3 35.7326 4.29211   8 
   7   4   3 23.3907 3.35087  35 
   7   4   3 38.0266 3.98156  28 
   7   4   3 31.4874 3.05570  35 
  -7   4  -3 35.5627 3.28856  31 
  -7   4  -3 32.0796 5.16109   6 
  -7   4  -3 40.6600 4.64820  14 
  -7   4  -3 34.8513 3.78422   7 
   7   4   3 23.9568 4.79502  38 
   8  -4   3 36.4952 5.12298  24 
   8  -4   3 31.0215 5.31281  33 
  -8  -4  -3 37.8732 3.45292  27 
   8  -4   3 42.1668 3.69875  27 
   8   4   3 37.8476 3.48949  28 
  -8   4  -3 37.7867 4.23006  25 
   8   4   3 35.5231 4.24870   7 
   8   4   3 33.4567 5.13571  15 
  -8   4  -3 44.2249 4.48323   6 
   8   4   3 29.3076 3.26147  31 
   8   4   3 35.4677 3.31394  30 
  -8   4  -3 35.3871 2.80572  30 
  -8   4  -3 35.2091 3.74085  14 
  -8   4  -3 36.9411 2.99761  28 
  -8   4  -3 37.3031 2.99184  29 
  -8   4  -3 34.2576 3.43426   7 
  -8   4  -3 34.1571 3.12865  17 
  -8  -5   3 13.1965 2.83550  27 
  -8   5   3 11.3524 1.54613  11 
   8   5  -3 12.9852 2.26380  29 
  -8   5   3 11.8193 1.59001  26 
   8   5  -3 14.1015 2.42591  28 
  -8   5   3 9.15800 1.68661  28 
   8   5  -3 11.4384 2.99891  10 
   8   5  -3 9.97342 3.05007  23 
  -8   5   3 10.3950 1.60063  29 
  -7   5   3 61.0180 3.56983  11 
  -7   5   3 58.1557 3.74838  28 
   7   5  -3 53.5605 3.59648  30 
  -7   5   3 56.7122 3.67310  29 
   7   5  -3 64.5354 4.40806  29 
   7   5  -3 47.5659 5.38918  23 
   7   5  -3 59.2079 4.39716  28 
  -7   5   3 60.6003 5.29869  25 
  -7   5   3 59.9088 3.66405  26 
   7   5  -3 56.4781 5.45475  10 
   6   5  -3 106.641 6.36819  28 
   6   5  -3 95.7131 6.07764  29 
  -6   5   3 98.9318 7.24968  25 
   6   5  -3 94.5892 7.68482  23 
   6   5  -3 97.1077 5.61218  30 
  -6   5   3 100.367 5.46052  11 
   6   5  -3 88.4351 7.45562  10 
  -6   5   3 97.8881 5.53704  29 
  -6   5   3 101.041 5.52047  26 
  -5   5   3 20.7283 2.08228  11 
  -5   5   3 19.7505 1.80306  80 
  -5   5   3 11.6805 2.94814   9 
   5   5  -3 19.2864 4.76610  39 
   5   5  -3 14.4016 3.69722  28 
  -5   5   3 17.4494 4.96302  25 
  -5   5   3 21.8876 2.42447  29 
  -5   5   3 20.9547 2.17316  26 
   5   5  -3 15.2108 3.36549  29 
   5   5  -3 13.2549 3.74328  80 
   5   5  -3 17.6449 2.62397  30 
   5   5  -3 19.5257 5.15012  10 
   5   5  -3 22.7048 4.56298  23 
  -4  -5   3 108.944 8.42091  44 
  -4   5   3 115.213 7.86944   8 
   4   5  -3 128.857 11.2091  36 
   4   5  -3 105.841 6.67319  80 
   4   5  -3 109.265 8.86425  23 
  -4   5   3 113.873 6.49499   9 
  -4   5   3 106.841 7.99043  25 
   4   5  -3 118.857 6.53850  11 
   4   5  -3 120.864 6.93925  28 
   4   5  -3 113.989 10.0364  82 
   4   5  -3 113.489 8.31761  39 
   4   5  -3 110.292 6.66427  29 
  -4   5   3 111.582 5.95064  11 
   4   5  -3 112.627 8.37997  10 
  -4   5   3 114.652 6.24391  12 
  -4   5   3 111.998 6.04035  26 
   3   5  -3 531.908 27.4656  10 
   3   5  -3 567.120 29.0766  82 
  -3   5   3 519.411 26.0053  26 
  -3   5   3 515.915 25.9655  11 
  -3   5   3 524.669 26.1360  12 
  -3   5   3 519.396 26.2787   9 
   3   5  -3 538.509 26.3448  11 
   3   5  -3 541.317 28.1960  36 
   3   5  -3 529.535 28.0596  43 
   3   5  -3 512.798 26.3846  80 
   3   5  -3 528.204 27.7298  23 
   3   5  -3 536.429 26.3707  29 
  -3   5   3 525.916 27.2387  25 
   3   5  -3 546.116 27.4869  39 
  -2  -5   3 117.825 7.00823  46 
   2   5  -3 125.824 9.38949  36 
   2   5  -3 137.764 8.82425  39 
   2   5  -3 129.950 6.89165  80 
   2   5  -3 122.412 11.7425  82 
  -1  -5   3 10.3305 1.89129  46 
   1   5  -3 6.53157 3.28789  36 
   1   5  -3 12.9777 4.22851  39 
   1   5  -3 11.3846 1.93103  80 
  -1   5   3 7.64735 3.58145  37 
   1   5  -3 8.41686 6.79718  82 
   0  -5   3 103.849 5.75151  46 
   0  -5  -3 86.4799 5.42067  46 
   0   5  -3 113.295 5.50622  80 
   0   5  -3 93.9834 10.3021  82 
   0   5  -3 107.703 8.80780  36 
   0   5   3 108.743 7.25111  37 
   0   5   3 102.313 8.24503  43 
   0   5  -3 112.750 7.42837  39 
   1  -5   3 19.2900 2.23373  46 
  -1  -5  -3 19.4165 2.02693  46 
  -1   5  -3 22.0327 1.96406  80 
  -1   5  -3 23.7416 6.04832  36 
   1   5   3 15.6906 5.48571  43 
  -1   5  -3 24.1103 5.05624  39 
  -1   5  -3 20.1447 4.48424  42 
   1   5   3 19.7928 4.81798  37 
   2   5   3 300.135 16.1943  37 
   2   5   3 282.659 15.1956  12 
   2   5   3 294.638 16.5069  40 
  -2   5  -3 283.755 14.7952  11 
  -2   5  -3 302.043 14.8675  29 
   2   5   3 299.301 17.2873  43 
  -2   5  -3 298.405 16.6012  42 
   2   5   3 303.788 14.8517  80 
   2   5   3 288.677 14.8609  11 
  -2   5  -3 314.314 16.9055  36 
   2   5   3 293.988 14.9313  29 
   2   5   3 289.916 15.2386   9 
  -2   5  -3 291.059 14.8482  26 
  -2   5  -3 309.330 14.8515  80 
  -2   5  -3 304.352 15.2157   9 
  -2   5  -3 287.700 15.9081   8 
   3   5   3 24.2941 2.62564  11 
   3   5   3 23.4475 2.79224  80 
  -3   5  -3 19.2296 4.73664  42 
   3   5   3 20.0148 6.08425  43 
   3   5   3 22.3350 2.83163  29 
  -3   5  -3 23.6731 2.22654  26 
  -3   5  -3 22.5874 2.17841  11 
  -3   5  -3 19.9687 2.50559  29 
  -3   5  -3 25.3040 2.39449  80 
  -3   5  -3 32.0265 4.92729   8 
   3   5   3 23.3565 5.70209  40 
  -4   5  -3 253.522 13.8444  25 
   4   5   3 254.820 12.8535  29 
   4   5   3 247.859 14.5042  40 
   4   5   3 245.409 12.7513  11 
  -4   5  -3 245.825 12.5731  11 
  -4   5  -3 240.241 12.5841  26 
   4   5   3 245.620 12.8958  28 
  -4   5  -3 263.441 12.6721  29 
  -4   5  -3 246.400 13.6360   8 
   4   5   3 264.011 15.1237  43 
   4   5   3 227.610 12.9541  80 
  -5   5  -3 33.1717 4.91475  25 
  -5   5  -3 45.5498 3.10742  11 
   5   5   3 51.1495 3.97810  28 
  -5   5  -3 46.3949 3.36621  29 
   5   5   3 46.0071 3.91723  29 
  -5   5  -3 45.1986 3.33693  28 
  -5   5  -3 43.1340 4.85085   8 
   5   5   3 41.1811 8.63941  43 
   5   5   3 44.5214 4.39852  11 
   5   5   3 40.2855 5.97827  40 
  -6   5  -3 1.02111 2.76741  25 
  -6   5  -3 0.51722 1.24842  29 
   6   5   3 3.02099 1.79148  29 
  -6   5  -3 2.95611 2.32111   8 
  -6   5  -3 -0.4062 2.64218   6 
   6   5   3 -0.9071 1.76189  28 
  -6   5  -3 1.69134 1.29787  28 
  -6   5  -3 3.97122 1.33447  11 
  -7  -5  -3 26.0234 2.85555  27 
   7  -5   3 25.6711 2.97372  27 
  -7   5  -3 23.3482 2.06198  28 
  -7   5  -3 35.3719 3.02377   8 
  -7   5  -3 23.4129 3.12365  25 
  -7   5  -3 24.5830 2.06211  11 
   7   5   3 26.2440 2.66177  28 
  -7   5  -3 19.3224 3.34760   6 
   7   5   3 29.3106 2.74381  29 
  -7   5  -3 24.3255 2.20800  29 
   6   6  -3 67.4481 5.33781  10 
   6   6  -3 62.0061 3.73599  29 
   6   6  -3 64.9621 4.56119  28 
  -6   6   3 66.2519 3.84875   9 
   6   6  -3 64.9019 4.75917  23 
   6   6  -3 68.3319 3.65573  11 
   5   6  -3 26.5044 2.47487  29 
  -5   6   3 30.2523 2.50964   9 
   5   6  -3 28.7293 2.23581  11 
   5   6  -3 23.6556 4.51098  10 
   5   6  -3 28.2783 4.35450  23 
   4   6  -3 30.8329 2.22580  11 
   4   6  -3 25.1255 2.89238  12 
  -4   6   3 28.6129 2.45939   9 
   4   6  -3 26.7800 2.50457  29 
   4   6  -3 23.3064 5.20461  23 
   4   6  -3 33.2497 5.37953  39 
   4   6  -3 22.6496 5.13092  10 
   3   6  -3 42.2677 2.56819  11 
   3   6  -3 39.4836 5.80816  10 
   3   6  -3 38.1755 5.14647  39 
  -3   6   3 39.0690 2.43287   9 
  -3   6   3 38.0568 2.54160   9 
   3   6  -3 40.9641 2.95492  12 
   3   6  -3 40.6687 6.03607  23 
   3   6  -3 39.9512 2.79193  29 
   3   6  -3 53.0729 8.26671  82 
   3   6  -3 42.0222 3.51696   9 
   3   6  -3 34.1985 5.70261  36 
   3   6  -3 40.9727 2.70372  26 
   2   6  -3 176.329 8.85411  26 
   2   6  -3 176.194 9.38797   9 
   2   6  -3 172.012 10.6274  39 
   2   6  -3 178.253 10.8539  10 
   2   6  -3 173.294 12.6639  82 
   2   6  -3 179.738 11.0273  23 
   2   6  -3 180.228 8.70718  11 
   2   6  -3 176.519 9.05664  12 
   2   6  -3 164.933 11.1771  36 
   1   6  -3 33.4488 5.33645  39 
   1   6  -3 43.0068 2.41631  26 
   1   6  -3 37.9539 2.62387  12 
   1   6  -3 38.8339 5.96320  36 
   1   6  -3 48.1685 5.68427  10 
   1   6  -3 47.4240 5.99634  23 
   1   6  -3 43.9518 3.18044   9 
   1   6  -3 51.0490 8.00376  82 
   1   6  -3 43.5699 2.70528  12 
   0   6  -3 30.1940 5.64207  36 
   0   6  -3 34.4099 2.19991  12 
   0   6  -3 31.8927 2.63612   9 
   0   6  -3 36.6658 7.76422  82 
   0   6  -3 29.7567 2.17103  12 
   0   6  -3 29.2956 4.89675  39 
   1   6   3 261.778 13.1937   9 
  -1   6  -3 266.742 13.2685   9 
  -1   6  -3 244.510 12.9849  12 
  -1   6  -3 273.381 12.9859  12 
  -2   6  -3 7.59597 1.32894  12 
  -2   6  -3 5.42370 1.75579   9 
   2   6   3 7.53645 1.30873  12 
  -2   6  -3 5.08283 0.88192  26 
  -2   6  -3 5.49853 0.87607  26 
  -2   6  -3 10.3026 2.89332   8 
  -2   6  -3 4.50725 1.40482  12 
   2   6   3 3.98724 1.32033  12 
   2   6   3 7.51549 2.11401   9 
  -3   6  -3 65.7894 5.52893   8 
   3   6   3 62.9974 4.11191  12 
  -3   6  -3 69.1886 3.72090  26 
  -3   6  -3 76.1171 3.96323  12 
   3   6   3 76.1644 4.57120   9 
   3   6   3 76.3208 4.13620  12 
  -3   6  -3 76.0180 4.38938   9 
  -3   6  -3 73.4059 4.05791  12 
  -4   6  -3 13.1312 3.42333   8 
  -4   6  -3 20.7305 1.67431  12 
   4   6   3 17.7678 2.41206   9 
  -4   6  -3 19.8444 2.08670   9 
   4   6   3 17.9018 2.03730  12 
  -4   6  -3 18.1490 1.24564  26 
  -4   6  -3 11.7406 1.68314  26 
  -4   6  -3 14.4193 1.71937  12 
   5   6   3 4.53833 1.49856  12 
  -5   6  -3 5.34199 1.54598   9 
  -5   6  -3 6.28183 1.92161   8 
  -5   6  -3 2.38975 0.81356  12 
   5   6   3 6.33125 1.52564  29 
  -5   6  -3 5.41206 1.18790  12 
 -11   0   4 85.7945 6.21504   2 
 -11   0   4 108.385 6.29404   4 
  11   0  -4 82.6028 5.63275  19 
 -11   0   4 91.5491 5.89276  13 
  11   0  -4 83.6853 5.74068  18 
  11   0  -4 82.9149 5.85862  10 
  11   0  -4 76.3307 6.38491  20 
  10   0  -4 187.494 11.3512  41 
 -10   0   4 188.356 12.0569  83 
  10   0  -4 176.524 11.0693  81 
  10   0  -4 199.503 10.9227  18 
  10   0  -4 201.235 10.9180  19 
 -10   0   4 186.038 11.0345   2 
 -10   0   4 169.163 10.8577   5 
 -10   0   4 199.086 10.9942  13 
 -10   0   4 174.443 10.7404   4 
  10   0  -4 185.466 11.4183  20 
  -9   0   4 189.466 10.7476  13 
  -9   0   4 170.343 10.7750   2 
  -9   0   4 178.783 10.9404  20 
   9   0  -4 165.129 14.1011  76 
  -9   0   4 180.451 10.7356   5 
  -9   0   4 165.478 10.5294   4 
  -9   0   4 173.825 9.65064  81 
  -9   0   4 156.539 10.5378  15 
  -9   0   4 185.192 11.7718  83 
   9   0  -4 198.612 12.3085  81 
   9   0  -4 181.197 11.2904  41 
   9   0  -4 168.960 11.0424  78 
  -9   0   4 172.788 10.0751  18 
   9   0  -4 170.002 10.5033  19 
  -9   0   4 163.089 10.3596  19 
   9   0  -4 167.285 10.4975  18 
   9   0  -4 182.681 11.2873  20 
  -8   0   4 38.1597 7.47125  76 
   8   0  -4 38.0277 6.00699  78 
   8   0  -4 43.9609 5.28378  45 
   8   0  -4 23.7469 13.4495  72 
  -8   0   4 41.6222 5.54500  74 
   8   0  -4 60.3254 11.5032  76 
   8   0  -4 44.2240 6.35499  41 
  -8   0   4 40.2033 5.08142  47 
  -8   0   4 25.8488 6.94728  83 
  -8   0   4 35.5904 5.51645  81 
   8   0  -4 36.3598 6.34690  33 
  -7   0   4 41.0374 8.81990  76 
   7   0  -4 38.4048 4.62873  45 
  -7   0   4 42.4095 4.38530  47 
  -7   0   4 51.8744 6.97314  83 
   7   0  -4 54.7713 14.5541  72 
  -7   0   4 43.0810 5.04838  78 
   7   0  -4 38.3997 4.23364  71 
   7   0  -4 47.0892 5.30483  41 
   7   0  -4 38.8902 4.61093  75 
  -7   0   4 45.0708 5.21029  74 
  -7   0   4 44.3383 5.84109  81 
   7   0  -4 43.9930 5.06303  78 
   7   0  -4 46.0265 6.29824  79 
   6   0  -4 2.25664 2.47738  45 
   6   0  -4 4.61787 2.99402  78 
  -6   0   4 1.64059 2.18875  76 
   6   0  -4 0.99960 2.05681  71 
   6   0  -4 11.5934 11.1815  72 
   6   0  -4 5.65409 3.16115  79 
   6   0  -4 -3.8334 3.12049  41 
  -6   0   4 4.52107 2.51512  74 
  -6   0   4 1.07128 2.30310  81 
   6   0  -4 1.23757 2.41649  75 
  -6   0   4 -1.5055 2.97405  78 
  -6   0   4 0.15743 3.05063  67 
  -6   0   4 1.27510 2.67591  47 
   5   0  -4 191.584 16.7482  72 
   5   0  -4 159.679 9.29154  75 
   5   0  -4 134.582 11.3418  67 
   5   0  -4 183.048 9.45209  45 
   5   0  -4 146.306 10.6475  55 
   5   0  -4 157.306 11.3364  48 
  -5   0   4 164.586 9.46537  74 
  -5   0   4 179.581 9.43699  45 
  -5   0   4 169.449 12.1406  67 
  -5   0   4 173.878 9.44550  47 
   5   0  -4 173.496 9.13387  71 
  -4   0   4 191.851 14.0335  62 
  -4   0   4 206.984 17.2518  72 
   4   0  -4 220.797 12.7508  57 
  -4   0   4 189.804 10.4557  53 
   4   0  -4 191.013 10.4620  45 
  -4   0   4 212.334 10.6030  74 
  -4   0   4 210.427 12.9952  67 
  -4   0   4 188.495 10.2461  71 
   4   0  -4 197.672 11.8038  55 
   4   0  -4 195.553 11.7591  65 
   4   0  -4 192.255 11.0354  48 
  -4   0   4 191.000 10.4152  47 
   4   0  -4 195.119 10.3066  71 
   4   0  -4 189.943 12.6452  67 
  -4   0   4 195.119 10.3170  45 
  -4   0   4 161.798 12.7479  58 
   3   0  -4 2.07363 2.03606  65 
  -3   0   4 1.63196 2.27488  67 
  -3   0   4 0.12895 2.26458  58 
  -3   0   4 2.54803 1.35795  51 
  -3   0   4 1.37701 1.37449  57 
   3   0  -4 2.54110 2.73554  55 
  -3   0   4 -0.3788 2.49056  62 
  -3   0   4 4.38275 1.69185  63 
   3   0  -4 2.44276 2.52405  67 
   3   0  -4 3.72028 1.77828  63 
  -3   0   4 1.81263 1.05704  53 
   3   0  -4 3.46822 3.13165  58 
   3   0  -4 8.10404 2.86035  57 
  -2   0   4 328.306 17.9804  51 
   2   0  -4 335.627 20.1274  58 
   2   0  -4 360.111 18.5642  57 
  -2   0   4 315.855 18.5049  65 
  -2   0   4 346.476 22.6205  59 
  -2   0   4 357.200 19.7563  58 
   2   0  -4 340.997 22.6958  59 
  -2   0   4 329.164 17.9043  63 
   2   0  -4 380.755 19.5209  67 
   2   0  -4 368.846 17.9476  63 
   2   0  -4 401.135 18.7186  55 
  -2   0   4 369.887 18.8665  68 
   2   0  -4 357.813 18.6565  65 
  -2   0   4 376.154 17.9141  53 
  -2   0   4 335.893 18.2743  57 
  -2   0   4 368.322 19.7377  67 
  -2   0   4 396.469 19.9053  60 
  -1   0   4 0.02626 2.12546  67 
   1   0  -4 2.03425 4.85565  59 
   1   0  -4 1.95210 1.27798  51 
  -1   0   4 1.57888 1.50009  63 
  -1   0   4 -1.4645 1.45048  68 
  -1   0   4 0.40157 1.16405  57 
  -1   0   4 1.10014 3.93115  59 
  -1   0   4 0.31377 3.85838  66 
  -1   0   4 1.68130 0.93660  53 
   1   0  -4 1.31409 1.12640  53 
  -1   0   4 1.13181 1.47962  65 
   1   0  -4 0.09709 1.73745  60 
  -1   0   4 1.40824 1.09578  51 
   1   0  -4 -0.3748 1.52916  63 
   1   0  -4 -0.8596 3.79750  59 
   1   0  -4 0.18052 1.74662  67 
   1   0  -4 0.72025 1.50929  61 
   1   0  -4 -0.8701 2.14038  55 
  -1   0   4 0.32457 1.28944  60 
  -1   0   4 0.36980 2.05766  58 
   1   0  -4 0.25830 1.37760  57 
   1   0  -4 0.02639 1.51996  65 
   1   0  -4 0.66469 2.56088  58 
   0   0  -4 1715.25 83.0857  63 
   0   0   4 1764.01 83.1559  63 
   0   0   4 1584.32 83.6595  65 
   0   0   4 1555.59 83.1020  51 
   0   0   4 1559.83 87.2920  59 
   0   0  -4 1725.70 83.6906  65 
   0   0  -4 1640.43 87.5308  59 
   0   0  -4 1702.28 87.4406  59 
   0   0  -4 1885.07 83.9078  61 
   0   0   4 1600.28 83.6823  60 
   0   0  -4 1798.32 83.6149  55 
   0   0   4 1669.94 83.4473  55 
   0   0  -4 1591.32 83.5193  57 
   0   0   4 1738.47 83.0323  53 
   0   0   4 1791.79 83.5010  57 
   0   0   4 1776.90 84.8868  58 
   0   0  -4 1707.95 84.9215  58 
   0   0   4 1963.72 84.7722  67 
   0   0  -4 1724.82 83.1012  53 
   0   0  -4 1735.59 84.4712  67 
   0   0   4 1609.36 83.8517  68 
   0   0  -4 1594.47 83.1578  51 
   1   0   4 858.917 42.8087  57 
   1   0   4 921.259 42.9496  55 
  -1   0  -4 871.349 42.9243  57 
   1   0   4 872.311 44.4399  58 
  -1   0  -4 859.959 43.0741  65 
   1   0   4 854.996 43.2028  65 
   1   0   4 864.236 44.0792  67 
   1   0   4 780.813 42.3692  51 
   1   0   4 854.656 43.3477  68 
   1   0   4 853.287 47.6940  59 
  -1   0  -4 899.832 43.0200  55 
  -1   0  -4 902.511 44.0150  67 
   1   0   4 843.681 42.3152  53 
  -1   0  -4 883.151 44.4056  58 
  -1   0  -4 939.401 48.8882  59 
  -1   0  -4 828.450 42.3702  63 
  -1   0  -4 758.649 42.3684  53 
  -2   0  -4 955.177 54.9939  55 
   2   0   4 1161.85 55.6414  65 
   2   0   4 1108.06 55.0665  57 
  -2   0  -4 1102.60 56.7847  58 
   2   0   4 1090.14 55.1307  55 
  -2   0  -4 1170.26 56.5301  67 
  -2   0  -4 1083.87 55.0765  57 
   2   0   4 1066.80 56.8914  58 
   2   0   4 1130.30 56.6047  67 
  -2   0  -4 1122.05 55.4098  65 
  -2   0  -4 1202.85 54.5942  63 
  -3   0  -4 1981.37 95.9841  71 
   3   0   4 1945.05 96.9398  55 
   3   0   4 1898.07 102.508  72 
   3   0   4 1914.32 95.9143  45 
  -3   0  -4 1997.73 96.6490  63 
   3   0   4 2153.67 99.1697  67 
  -3   0  -4 1856.85 95.8887  45 
  -3   0  -4 2038.97 98.7324  67 
   3   0   4 1893.98 95.9435  71 
   4   0   4 370.386 18.3684  71 
  -4   0  -4 332.341 18.3816  75 
   4   0   4 318.105 19.4168  55 
  -4   0  -4 347.684 18.2455  71 
   4   0   4 347.022 18.5023  75 
   4   0   4 389.895 27.0341  72 
   4   0   4 373.858 22.1024  67 
   4   0   4 374.256 18.9078  78 
  -4   0  -4 329.042 21.2666  67 
   4   0   4 361.017 18.3513  45 
  -4   0  -4 371.503 18.2165  45 
  -5   0  -4 7.69663 2.21285  45 
   5   0   4 14.3426 3.43161  75 
  -5   0  -4 4.71671 2.74214  76 
   5   0   4 10.8317 4.12597  78 
   5   0   4 7.63116 2.35854  71 
   5   0   4 11.7021 3.11128  45 
   6   0   4 187.839 11.1563  38 
  -6   0  -4 204.529 12.2738  81 
  -6   0  -4 213.700 15.2561  76 
   6   0   4 190.799 22.2626  72 
   6   0   4 164.387 11.7058  45 
   6   0   4 218.369 15.5757  76 
   6   0   4 204.275 11.3650  40 
   6   0   4 163.503 11.4022  34 
   6   0   4 209.253 12.3864  78 
  -6   0  -4 212.872 12.9432  83 
  -7   0  -4 81.5846 7.14505  78 
  -7   0  -4 79.8302 7.88122  83 
   7   0   4 67.0390 11.6298  76 
   7   0   4 91.4568 8.04800  81 
   7   0   4 91.0897 7.74099  78 
   7   0   4 82.3506 6.93132  38 
  -7   0  -4 87.1890 9.50430  76 
  -8   0  -4 24.1073 6.35541  83 
  -8   0  -4 28.6347 4.00642  19 
  -8   0  -4 16.1655 5.27919   5 
   8   0   4 20.8355 5.65139  81 
   8   0   4 32.6800 4.88029  19 
  -8   0  -4 25.2789 4.83747   4 
  -8   0  -4 32.0242 4.46138  18 
   8   0   4 26.0795 6.17454  20 
  -8   0  -4 27.7048 6.47644   2 
   8   0   4 33.2889 5.03232  18 
  -8   0  -4 27.7896 5.20428  20 
   8   0   4 31.0117 6.07027  78 
  -8   0  -4 28.5563 5.08851  78 
   9   0   4 -0.9004 2.82586  20 
   9   0   4 -0.0564 2.45691  18 
  -9   0  -4 0.16322 3.02052  20 
  -9   0  -4 0.49669 2.26419   5 
  -9   0  -4 1.35143 6.16355  83 
  -9   0  -4 1.69132 2.35782  18 
  -9   0  -4 2.84515 2.37322   4 
  -9   0  -4 -0.3516 2.30719  13 
  -9   0  -4 -1.0840 2.56389   2 
   9   0   4 0.16812 2.44086  19 
 -10   0  -4 0.11546 1.71331  13 
 -10   0  -4 1.07362 1.85706   2 
 -10   0  -4 1.11379 1.89183   4 
 -10   0  -4 -1.9556 1.62412   5 
  10   0   4 0.42177 1.99346  13 
  11  -1  -4 59.2078 4.67403  10 
 -11  -1   4 48.3413 4.43061  18 
 -11  -1   4 46.0616 4.49419  20 
  11  -1  -4 62.1770 4.80307  19 
  11  -1  -4 70.3165 4.93283  18 
  11  -1  -4 63.1228 5.69250  20 
 -11  -1   4 56.5639 5.08313  13 
  11   1  -4 69.8445 5.16048   4 
 -11   1   4 60.2054 4.70481   4 
 -11   1   4 66.4645 4.97398   2 
 -11   1   4 68.9463 5.06510   7 
 -11   1   4 60.3461 4.32061   3 
 -11   1   4 67.8598 4.71448  31 
 -11   1   4 58.3818 4.30686   1 
  11   1  -4 59.7808 5.45920  13 
 -11   1   4 56.5555 4.17900  13 
 -11   1   4 51.4895 4.57580   5 
  11   1  -4 54.7330 4.78572  10 
 -11   1   4 59.4374 3.94277  16 
 -10  -1   4 50.9731 4.95487  18 
  10  -1  -4 48.7774 5.57524  19 
  10  -1  -4 42.0404 6.00448  33 
 -10  -1   4 42.2278 5.82159  20 
 -10  -1   4 43.9438 4.79308  19 
  10  -1  -4 43.8768 6.16724  24 
  10  -1  -4 48.8313 6.37950  20 
  10  -1  -4 53.9603 5.60497  18 
 -10   1   4 44.3593 4.79065   3 
 -10   1   4 51.5957 5.50744   2 
 -10   1   4 46.0803 5.64062  15 
 -10   1   4 51.1414 6.12185  83 
 -10   1   4 48.2410 5.24208   5 
  10   1  -4 45.0158 5.61093  10 
  10   1  -4 53.4829 5.97660  13 
 -10   1   4 60.2687 5.17562  14 
 -10   1   4 55.1573 5.04581  16 
 -10   1   4 54.2353 5.50362   4 
  10   1  -4 45.0025 5.81380   4 
 -10   1   4 44.9993 5.49187   7 
 -10   1   4 52.0363 5.25422  13 
   9  -1  -4 306.724 17.4175  27 
  -9  -1   4 331.872 17.5245  19 
  -9  -1   4 346.800 20.7292  76 
   9  -1  -4 337.241 17.7499  19 
  -9  -1   4 349.243 17.6452  18 
   9  -1  -4 326.597 18.7169  24 
  -9  -1   4 343.480 18.4899  81 
   9  -1  -4 309.737 17.9595  75 
  -9  -1   4 328.058 18.0661  20 
   9  -1  -4 328.767 18.1359  41 
   9  -1  -4 363.833 19.1734  79 
   9  -1  -4 347.597 18.3810  33 
   9  -1  -4 315.149 18.3020  20 
   9  -1  -4 337.842 17.8896  18 
   9   1  -4 344.645 18.1599  20 
   9   1  -4 335.296 18.1383  78 
   9   1  -4 325.886 17.3209  81 
  -9   1   4 353.050 18.1209   5 
  -9   1   4 315.282 17.5134   4 
   9   1  -4 358.985 17.5606  19 
   9   1  -4 310.153 17.5545  18 
  -9   1   4 332.355 17.8444   2 
   9   1  -4 342.517 18.0041   4 
   9   1  -4 313.937 17.9671  13 
   9   1  -4 338.384 17.9520  10 
  -9   1   4 331.723 17.8659   7 
  -9   1   4 328.448 17.6052  14 
   9   1  -4 273.779 18.9604  15 
  -9   1   4 313.119 17.6217  13 
  -9   1   4 343.230 18.8005  83 
  -9   1   4 324.489 18.5908  15 
   9   1  -4 367.208 18.3198  41 
   8  -1  -4 31.7212 5.29106  75 
   8  -1  -4 34.4169 5.90685  41 
  -8  -1   4 26.6062 4.35133  45 
   8  -1  -4 28.9331 4.38451  71 
  -8  -1   4 30.5428 4.71707  47 
   8  -1  -4 21.8433 5.67862  79 
   8  -1  -4 24.2755 6.04316  33 
  -8  -1   4 21.5284 10.1068  76 
   8  -1  -4 24.7152 4.69001  45 
  -8  -1   4 35.0626 5.75681  78 
  -8   1   4 30.4134 6.61761  83 
   8   1  -4 22.0755 5.22541  78 
   8   1  -4 22.1047 5.22475  81 
   8   1  -4 26.7555 5.56584  41 
   8   1  -4 26.1380 7.71276  73 
   8   1  -4 30.0619 5.36756  83 
  -8   1   4 24.6607 5.13183  74 
  -8   1   4 27.3581 4.24275  47 
  -7  -1   4 91.4633 6.29257  47 
   7  -1  -4 70.4143 5.52824  71 
   7  -1  -4 80.2049 6.01869  75 
   7  -1  -4 76.5457 6.24410  45 
  -7  -1   4 74.5063 5.84420  45 
   7  -1  -4 82.3438 7.38826  79 
   7  -1  -4 77.0259 7.09813  48 
  -7  -1   4 75.2653 7.89939  74 
  -7  -1   4 84.8139 6.83144  78 
  -7  -1   4 79.5117 5.99168  75 
   7  -1  -4 80.4604 6.46592  41 
  -7  -1   4 85.9221 5.74208  71 
  -7   1   4 81.5764 6.44645  74 
  -7   1   4 85.0188 7.02854  83 
   7   1  -4 81.7851 6.85187  41 
   7   1  -4 92.5390 6.81422  81 
  -7   1   4 67.5899 5.64912  47 
   7   1  -4 86.7529 6.62179  78 
   7   1  -4 80.8824 8.99626  76 
   7   1  -4 58.8330 11.6460  72 
   7   1  -4 71.8593 7.22530  83 
  -6  -1   4 496.503 24.7335  74 
  -6  -1   4 467.161 24.4893  75 
   6  -1  -4 485.834 24.4527  75 
   6  -1  -4 524.491 24.6494  45 
   6  -1  -4 484.625 25.1064  48 
  -6  -1   4 474.668 24.3934  45 
   6  -1  -4 452.264 25.0170  79 
   6  -1  -4 459.434 24.4947  41 
  -6  -1   4 469.212 24.3046  71 
  -6  -1   4 458.461 24.7986  78 
   6  -1  -4 485.506 25.4833  44 
   6  -1  -4 424.674 24.1380  71 
  -6  -1   4 471.590 24.4633  47 
   6   1  -4 461.550 24.6558  81 
  -6   1   4 508.976 24.9733  74 
  -6   1   4 496.268 24.4819  78 
   6   1  -4 466.539 24.4261  78 
  -6   1   4 474.903 24.6134  51 
   6   1  -4 456.421 24.5379  41 
  -6   1   4 527.579 24.6669  77 
  -6   1   4 479.388 25.0287  83 
   6   1  -4 478.303 30.1437  72 
   6   1  -4 482.904 26.5257  76 
  -6   1   4 502.471 24.7196  47 
  -6   1   4 474.612 23.8716  81 
  -5  -1   4 589.155 28.0780  47 
  -5  -1   4 559.354 27.9098  71 
  -5  -1   4 538.591 28.0795  75 
  -5  -1   4 625.149 31.7603  67 
   5  -1  -4 556.642 28.0211  75 
   5  -1  -4 590.125 28.1013  45 
   5  -1  -4 558.935 27.8190  71 
   5  -1  -4 527.106 29.4530  65 
  -5  -1   4 626.925 28.6724  48 
   5  -1  -4 521.133 30.5704  67 
  -5  -1   4 557.422 27.9751  45 
   5  -1  -4 588.535 28.8308  44 
   5  -1  -4 564.640 28.5002  48 
  -5  -1   4 522.105 28.0929  74 
   5   1  -4 504.263 29.1158  55 
   5   1  -4 513.283 28.0990  53 
  -5   1   4 548.479 28.3226  74 
  -5   1   4 487.836 27.6615  53 
   5   1  -4 597.231 28.1202  78 
   5   1  -4 569.303 33.3220  72 
  -5   1   4 533.586 27.9725  78 
  -5   1   4 573.663 28.1979  47 
   5   1  -4 557.714 29.9048  76 
  -5   1   4 543.204 28.1064  51 
   5   1  -4 560.930 30.7759  67 
  -4  -1   4 1944.25 101.595  65 
  -4  -1   4 2129.29 100.253  49 
  -4  -1   4 2190.96 100.776  48 
  -4  -1   4 2013.75 100.257  71 
  -4  -1   4 2093.43 100.560  63 
  -4  -1   4 2122.70 103.209  67 
  -4  -1   4 1997.10 100.328  47 
   4  -1  -4 2059.26 100.194  46 
   4  -1  -4 1979.30 100.158  71 
   4  -1  -4 1989.49 100.613  48 
   4  -1  -4 1849.23 102.174  67 
   4  -1  -4 1907.07 101.428  65 
   4  -1  -4 1964.78 100.290  45 
  -4  -1   4 2109.10 100.342  45 
  -4  -1   4 2057.70 100.479  74 
  -4   1   4 2110.82 100.512  47 
  -4   1   4 2119.12 100.609  74 
   4   1  -4 2073.84 100.495  53 
  -4   1   4 2101.30 100.164  53 
   4   1  -4 2151.84 101.367  55 
   4   1  -4 2033.56 102.461  67 
   4   1  -4 1983.88 104.442  72 
   4   1  -4 2068.27 100.717  51 
  -4   1   4 2212.80 100.510  51 
  -3  -1   4 996.133 51.4385  71 
  -3  -1   4 910.992 52.1792  57 
   3  -1  -4 1093.96 51.3672  70 
   3  -1  -4 971.444 54.1136  58 
  -3  -1   4 1162.43 51.5271  45 
   3  -1  -4 993.221 51.3336  71 
   3  -1  -4 1013.49 51.8178  69 
   3  -1  -4 1063.23 52.3792  65 
   3  -1  -4 1107.61 51.7825  48 
  -3  -1   4 1067.07 53.8429  67 
  -3  -1   4 990.325 54.6778  62 
   3  -1  -4 1006.99 51.5665  63 
   3  -1  -4 924.583 52.9780  67 
   3  -1  -4 1043.77 51.4646  45 
   3  -1  -4 1057.89 52.4083  57 
  -3  -1   4 1041.02 51.3985  49 
  -3  -1   4 1019.13 51.6567  63 
  -3  -1   4 1036.96 52.5946  65 
  -3  -1   4 1057.51 54.2132  58 
  -3  -1   4 1105.31 51.8387  48 
   3   1  -4 1041.35 52.2553  55 
   3   1  -4 1114.11 51.8011  51 
   3   1  -4 1160.15 53.3978  67 
   3   1  -4 1044.00 51.5888  53 
  -3   1   4 1091.49 51.3199  53 
  -3   1   4 1051.82 51.7037  54 
  -3   1   4 1090.44 51.5723  51 
  -3   1   4 1081.86 52.6876  68 
  -3   1   4 1082.34 57.0543  66 
  -3   1   4 1023.84 51.6098  47 
  -2  -1   4 1177.41 59.9007  57 
   2  -1  -4 1206.91 60.5873  67 
  -2  -1   4 1118.03 59.0964  49 
   2  -1  -4 1204.29 60.4553  64 
   2  -1  -4 1277.48 59.2756  70 
   2  -1  -4 1154.17 59.8671  65 
   2  -1  -4 1118.40 59.8072  57 
  -2  -1   4 1294.57 61.6374  58 
   2  -1  -4 1187.57 59.2631  63 
   2  -1  -4 1157.53 59.9005  61 
  -2  -1   4 1202.20 61.1590  67 
  -2  -1   4 1260.12 59.4231  63 
   2  -1  -4 1200.44 61.4702  58 
   2  -1  -4 1083.71 59.4136  69 
  -2  -1   4 1170.63 60.1107  65 
   2   1  -4 1258.91 59.4319  51 
   2   1  -4 1223.61 59.8124  55 
  -2   1   4 1145.20 60.3063  67 
   2   1  -4 1220.54 65.6124  59 
  -2   1   4 1261.36 63.7845  66 
  -2   1   4 1260.06 59.3932  55 
   2   1  -4 1380.82 60.8949  67 
  -2   1   4 1236.27 59.2304  51 
   2   1  -4 1262.51 61.5449  58 
  -2   1   4 1192.76 59.0115  53 
  -2   1   4 1185.19 60.0974  68 
   2   1  -4 1228.70 59.2632  53 
   1  -1  -4 54.0964 3.51597  69 
   1  -1  -4 54.0257 4.96253  67 
   1  -1  -4 55.6875 3.39307  63 
  -1  -1   4 51.8287 3.42422  63 
   1  -1  -4 52.8456 4.61098  64 
  -1  -1   4 51.1343 5.40724  67 
  -1  -1   4 45.3840 3.24520  49 
  -1  -1   4 49.7594 4.09367  61 
  -1  -1   4 53.0110 3.66692  69 
   1  -1  -4 55.7358 3.93623  57 
   1  -1  -4 53.3527 4.16631  55 
  -1  -1   4 52.0561 4.02014  57 
  -1  -1   4 44.9251 5.20410  58 
  -1  -1   4 52.1577 4.23095  65 
   1  -1  -4 50.7468 3.96985  61 
   1  -1  -4 48.5317 3.09448  50 
   1  -1  -4 58.3499 4.21173  65 
  -1  -1   4 49.2912 4.51766  64 
   1  -1  -4 45.8780 5.54959  58 
   1   1  -4 57.3025 3.54391  51 
   1   1  -4 50.9168 7.88924  59 
  -1   1   4 54.0630 3.97899  60 
   1   1  -4 53.5513 3.90870  55 
  -1   1   4 53.3222 2.99574  53 
  -1   1   4 48.4467 6.79280  66 
  -1   1   4 54.9041 4.36513  68 
   1   1  -4 54.9216 4.97698  67 
   1   1  -4 52.6083 5.18955  58 
  -1   1   4 46.7814 4.67492  67 
   1   1  -4 51.3921 3.32611  53 
  -1   1   4 50.8104 3.16533  51 
   1   1  -4 56.1261 7.75097  66 
  -1   1   4 55.0211 3.50414  55 
   0  -1  -4 600.043 31.0003  55 
   0  -1  -4 618.056 30.4738  63 
   0  -1   4 579.734 30.7142  69 
   0  -1  -4 602.327 31.0613  65 
   0  -1  -4 588.127 32.3377  58 
   0  -1   4 573.814 31.6982  64 
   0  -1  -4 600.683 31.5119  64 
   0  -1   4 635.828 31.3197  61 
   0  -1   4 602.671 30.9987  55 
   0  -1  -4 629.269 31.0967  61 
   0  -1   4 630.079 32.1977  67 
   0  -1  -4 626.347 31.8691  67 
   0  -1  -4 651.749 31.0134  57 
   0  -1  -4 584.042 30.6141  69 
   0  -1   4 637.668 30.6087  63 
   0  -1   4 613.747 32.3929  58 
   0  -1   4 621.029 31.3185  65 
   0  -1   4 619.331 31.0317  57 
   0  -1   4 622.829 30.3259  49 
   0   1   4 577.807 31.2344  68 
   0   1  -4 712.581 35.9582  59 
   0   1  -4 581.678 34.8514  66 
   0   1  -4 636.400 30.4230  53 
   0   1  -4 618.289 30.5514  51 
   0   1   4 598.398 31.0097  60 
   0   1  -4 637.078 30.9110  55 
   0   1   4 625.492 30.2531  53 
   0   1   4 652.919 30.4126  51 
   0   1   4 637.965 30.6588  55 
   0   1  -4 628.368 31.2273  52 
   0   1  -4 620.555 31.6829  67 
   0   1  -4 618.396 32.0735  58 
   0   1   4 568.501 31.5178  67 
  -1  -1  -4 89.1025 5.83005  57 
   1  -1   4 88.3572 5.01726  49 
  -1  -1  -4 88.0696 5.31962  69 
   1  -1   4 87.4961 6.31999  65 
   1  -1   4 83.4253 7.25253  67 
  -1  -1  -4 88.5932 5.92611  55 
   1  -1   4 86.4651 5.85430  55 
  -1  -1  -4 92.1912 5.92198  61 
  -1  -1  -4 93.8331 7.42929  58 
  -1  -1  -4 89.7963 6.96844  67 
  -1  -1  -4 90.3489 5.19670  63 
  -1  -1  -4 91.2556 5.92030  65 
   1  -1   4 85.7557 5.84890  57 
   1  -1   4 86.2930 7.53007  58 
  -1   1  -4 95.6460 5.13674  53 
  -1   1  -4 89.9516 5.29690  51 
   1   1   4 95.1113 6.43673  68 
   1   1   4 90.6431 6.77023  67 
   1   1   4 96.6075 5.19429  51 
  -1   1  -4 83.0507 5.79176  52 
   1   1   4 94.1658 4.96160  53 
   1   1   4 89.4489 5.61108  55 
   1   1   4 90.4975 5.95245  60 
  -1   1  -4 86.3085 6.69545  67 
   2  -1   4 727.500 36.8956  67 
  -2  -1  -4 674.899 34.4961  63 
   2  -1   4 658.527 34.2845  45 
   2  -1   4 708.888 34.2611  49 
  -2  -1  -4 737.828 35.5255  65 
   2  -1   4 682.727 35.2477  55 
   2  -1   4 702.800 35.6688  65 
  -2  -1  -4 680.181 35.2351  55 
   2  -1   4 689.654 34.3331  71 
   2  -1   4 690.812 34.6205  48 
  -2  -1  -4 735.195 34.3767  71 
  -2  -1  -4 693.864 34.2882  45 
  -2  -1  -4 631.514 34.5064  48 
  -2  -1  -4 668.435 36.4415  67 
  -2   1  -4 695.121 36.2827  67 
   2   1   4 739.743 34.5363  51 
  -2   1  -4 766.166 48.9509  56 
   2   1   4 690.356 34.9093  55 
   2   1   4 640.964 34.2520  53 
   2   1   4 705.623 34.7126  54 
  -2   1  -4 662.389 35.0948  52 
   2   1   4 729.301 36.4304  67 
  -2   1  -4 725.307 34.5981  51 
  -2   1  -4 654.040 34.3192  53 
  -3  -1  -4 912.828 44.0337  75 
   3  -1   4 780.262 44.8039  55 
   3  -1   4 901.275 43.7448  49 
   3  -1   4 880.929 44.0165  75 
   3  -1   4 1003.59 45.7870  65 
  -3  -1  -4 936.062 46.8842  67 
   3  -1   4 799.356 46.5437  67 
  -3  -1  -4 852.682 45.1680  65 
   3  -1   4 816.323 43.7548  45 
  -3  -1  -4 889.890 43.8630  71 
  -3  -1  -4 905.519 44.1490  48 
  -3  -1  -4 949.430 43.8355  45 
   3  -1   4 883.320 44.1629  48 
   3  -1   4 935.860 43.8835  71 
   3   1   4 869.415 44.0627  51 
   3   1   4 812.646 46.5543  67 
  -3   1  -4 877.439 46.2224  67 
   3   1   4 946.734 43.8726  53 
   3   1   4 937.485 44.6775  55 
   3   1   4 952.877 47.5133  72 
   3   1   4 857.898 44.4329  73 
  -3   1  -4 840.048 44.0502  51 
   4  -1   4 79.2980 5.84289  75 
  -4  -1  -4 90.7734 5.56080  47 
  -4  -1  -4 88.0843 6.03349  48 
   4  -1   4 81.3535 7.17820  55 
   4  -1   4 92.2607 6.37958  48 
  -4  -1  -4 86.6547 5.76089  75 
  -4  -1  -4 72.7370 6.91345  65 
   4  -1   4 88.9838 5.76939  71 
   4  -1   4 89.9573 6.96513  44 
  -4  -1  -4 92.5311 5.73498  71 
  -4  -1  -4 89.6221 5.49921  45 
   4  -1   4 96.9808 5.80275  45 
   4  -1   4 84.1071 5.65260  49 
   4  -1   4 89.8504 7.79202  65 
  -4  -1  -4 92.1078 6.70424  44 
  -4   1  -4 95.6911 6.03528  78 
   4   1   4 84.7435 7.23115  73 
  -4   1  -4 77.0446 7.44645  76 
   4   1   4 95.5094 7.74888  76 
  -4   1  -4 92.5359 5.73112  51 
   4   1   4 91.0448 5.93909  51 
   4   1   4 83.5083 5.42748  53 
  -4   1  -4 76.2056 5.26000  53 
   4   1   4 98.2453 6.45556  78 
   4   1   4 90.3545 10.8123  72 
  -5  -1  -4 313.755 19.9806  48 
   5  -1   4 320.102 18.4234  79 
   5  -1   4 340.837 17.5544  45 
   5  -1   4 375.895 18.2535  48 
  -5  -1  -4 345.311 17.3667  45 
   5  -1   4 315.375 17.7410  75 
  -5  -1  -4 331.719 17.4058  47 
  -5  -1  -4 320.030 17.3842  71 
  -5  -1  -4 316.137 17.5806  75 
   5  -1   4 346.310 17.5448  71 
  -5   1  -4 329.786 18.1907  76 
   5   1   4 317.834 19.1063  76 
   5   1   4 335.314 18.7062  73 
   5   1   4 332.816 17.4837  40 
   5   1   4 364.427 17.9528  78 
   5   1   4 320.118 17.7929  81 
  -5   1  -4 334.515 18.8536  51 
  -5   1  -4 318.722 18.3891  83 
  -5   1  -4 341.622 17.6295  78 
   6  -1   4 117.263 8.26227  34 
  -6  -1  -4 139.343 8.30361  71 
  -6  -1  -4 123.126 7.95182  47 
   6  -1   4 144.139 8.47937  71 
   6  -1   4 121.649 8.56032  41 
  -6  -1  -4 135.620 7.95067  45 
   6  -1   4 125.189 9.63637  79 
   6  -1   4 143.379 9.00334  75 
   6  -1   4 128.898 8.19712  45 
  -6  -1  -4 130.612 8.58374  75 
   6   1   4 117.648 9.92164  76 
   6   1   4 134.982 8.76233  81 
   6   1   4 137.940 9.02500  78 
   6   1   4 129.759 10.0689  73 
  -6   1  -4 125.309 9.31304  83 
  -6   1  -4 131.476 8.56388  78 
   6   1   4 115.412 8.63537  38 
   6   1   4 128.066 8.50987  40 
  -7  -1  -4 538.183 26.8442  79 
   7  -1   4 587.579 26.1639  45 
   7  -1   4 474.325 26.2572  78 
   7  -1   4 512.672 25.8042  41 
  -7  -1  -4 494.759 26.0328  71 
   7  -1   4 486.113 25.7751  71 
   7  -1   4 508.435 25.8501  33 
   7  -1   4 526.626 27.4045  79 
   7  -1   4 477.180 38.0235  72 
  -7  -1  -4 504.431 26.0487  75 
  -7  -1  -4 452.869 25.4811  45 
   7  -1   4 500.298 26.1520  75 
  -7   1  -4 494.770 26.7904  83 
   7   1   4 516.060 26.3040  43 
   7   1   4 497.695 25.7669  40 
   7   1   4 453.873 25.9676  78 
  -7   1  -4 450.276 25.5732  78 
   7   1   4 485.616 25.2693  81 
   7   1   4 503.716 26.8484  73 
   7   1   4 482.951 25.7930  38 
   8  -1   4 137.119 10.0949  24 
  -8  -1  -4 110.669 9.25007  78 
   8  -1   4 148.407 9.43498  33 
  -8  -1  -4 140.069 9.19532   5 
   8  -1   4 146.227 9.15209  19 
  -8  -1  -4 140.326 12.4575  76 
  -8  -1  -4 148.846 8.63588  19 
   8  -1   4 158.004 9.87129  20 
   8  -1   4 147.483 9.32222  41 
   8  -1   4 160.683 10.2586  78 
   8  -1   4 145.877 15.7858  76 
   8  -1   4 134.279 10.6413  79 
  -8  -1  -4 156.421 9.30709  20 
   8  -1   4 150.731 9.27889  18 
  -8  -1  -4 148.061 8.76885  18 
  -8   1  -4 154.671 8.79462   4 
   8   1   4 128.712 9.26623  38 
  -8   1  -4 123.775 8.85259   2 
   8   1   4 145.841 9.33400  15 
  -8   1  -4 138.458 10.3956  83 
  -8   1  -4 133.742 8.70962  13 
   8   1   4 137.825 9.26066  78 
   8   1   4 144.520 9.32593   4 
  -8   1  -4 145.816 8.13526  17 
  -8   1  -4 140.221 9.39443   5 
   8   1   4 144.726 9.49283  13 
   9  -1   4 2.51843 2.79550  20 
   9  -1   4 1.17588 2.44686  19 
  -9  -1  -4 1.07619 2.01032  19 
  -9  -1  -4 2.10220 2.17557  18 
  -9  -1  -4 -0.3260 2.25593  20 
   9  -1   4 2.41535 2.52864  18 
  -9  -1  -4 1.59299 2.14602   5 
  -9   1  -4 3.58432 3.98922  83 
   9   1   4 5.49399 2.82722  13 
  -9   1  -4 2.25436 1.97374  16 
  -9   1  -4 0.89169 2.09414   5 
  -9   1  -4 -0.1697 2.22388  13 
  -9   1  -4 0.69045 2.34335   4 
   9   1   4 5.61965 2.84553   4 
  -9   1  -4 -0.0818 2.50027   2 
  10  -1   4 15.3329 3.63025  20 
 -10  -1  -4 16.2675 2.51110  18 
  10  -1   4 11.4871 3.03232  18 
  10  -1   4 15.4262 2.90750  19 
 -10  -1  -4 18.9321 2.85546  20 
 -10   1  -4 12.3536 3.00711   5 
 -10   1  -4 19.0893 2.88270   4 
 -10   1  -4 22.0069 3.20753   2 
  10   1   4 19.7072 3.28143  13 
  10   1   4 23.8336 3.15930  16 
 -10   1  -4 11.7608 2.39823   3 
 -10   1  -4 20.6395 2.78131   1 
  10   1   4 21.0599 3.38616   4 
 -10   1  -4 17.0115 2.59142  13 
 -10   1  -4 17.5391 2.30712  16 
  11  -2  -4 18.2312 3.58405  20 
 -11  -2   4 16.5189 2.74566  18 
  11  -2  -4 23.5885 3.49866  18 
 -11  -2   4 17.0226 3.06730  20 
 -11  -2   4 14.8594 2.65394  19 
  11  -2  -4 21.3119 2.99521  19 
  11   2  -4 21.2523 2.68084  16 
  11   2  -4 14.3556 2.90143  10 
 -11   2   4 14.3104 2.79919   5 
 -11   2   4 14.1799 2.89250   2 
 -11   2   4 15.6220 1.78136   3 
 -11   2   4 17.1229 3.18476   4 
 -11   2   4 17.8470 2.83561  14 
  11   2  -4 13.2077 2.83446  13 
 -11   2   4 19.6091 2.76218  31 
 -11   2   4 20.9655 3.08198   7 
 -11   2   4 16.1038 3.54653  15 
  11   2  -4 16.4654 2.63931   1 
 -11   2   4 20.1032 3.31584  30 
 -11   2   4 14.8172 1.62950  32 
  11   2  -4 15.5863 3.20294   4 
 -11   2   4 16.0769 1.94638  22 
  11   2  -4 15.3323 3.01819  23 
  11   2  -4 11.4003 2.79105   3 
 -10  -2   4 142.146 9.45684  20 
  10  -2  -4 140.598 8.70685  27 
 -10  -2   4 152.410 8.87217  19 
  10  -2  -4 135.852 9.52175  33 
  10  -2  -4 152.064 10.0432  24 
  10  -2  -4 143.807 9.12494  18 
 -10  -2   4 147.707 8.90079  18 
  10  -2  -4 175.997 9.78724  20 
  10  -2  -4 149.446 9.13091  19 
 -10   2   4 150.507 8.73775   4 
  10   2  -4 159.222 9.44011  23 
 -10   2   4 149.801 7.89914  16 
 -10   2   4 146.425 8.92505  14 
  10   2  -4 142.265 9.20759   4 
  10   2  -4 138.812 8.85055   3 
  10   2  -4 152.653 8.85167  16 
 -10   2   4 150.536 8.42235   3 
 -10   2   4 158.965 10.0490  15 
 -10   2   4 140.564 8.85219   2 
  10   2  -4 146.409 9.25603  10 
 -10   2   4 165.915 9.05228   7 
 -10   2   4 171.222 8.79672  31 
 -10   2   4 146.743 8.29475   1 
 -10   2   4 156.949 9.10369   5 
  10   2  -4 159.688 9.25154  13 
 -10   2   4 149.422 8.23241  32 
   9  -2  -4 16.7224 5.05933  41 
   9  -2  -4 19.1097 5.75281  33 
   9  -2  -4 26.3037 5.67565  79 
   9  -2  -4 15.0527 4.43779  20 
   9  -2  -4 25.6129 6.43805  24 
  -9  -2   4 17.8513 5.03416  18 
  -9  -2   4 12.6990 3.13087  19 
   9  -2  -4 30.3752 4.96067  27 
  -9  -2   4 13.9797 3.66767  20 
  -9   2   4 19.2743 3.33109   4 
  -9   2   4 22.1651 3.68663  28 
  -9   2   4 17.9624 3.40312  16 
  -9   2   4 16.6204 4.02776  31 
  -9   2   4 17.3515 4.41635  32 
   9   2  -4 18.7192 5.52543  15 
   9   2  -4 19.4800 3.95521   4 
   9   2  -4 21.0466 6.08730   7 
   9   2  -4 16.5391 5.08471  10 
  -9   2   4 23.6507 5.17536  83 
  -9   2   4 22.5181 4.17137  77 
   9   2  -4 11.6256 3.72198  16 
  -9   2   4 16.5094 4.89350   7 
  -9   2   4 18.4191 5.35040   5 
   9   2  -4 19.7797 5.36855  13 
  -9   2   4 22.6298 4.08635  13 
  -9   2   4 18.0606 4.51705  14 
  -9   2   4 20.4864 3.74511   1 
  -9   2   4 15.3174 4.73233   2 
  -9   2   4 19.6543 4.00261   3 
  -8  -2   4 111.137 9.84892  45 
  -8  -2   4 113.631 8.20600  18 
   8  -2  -4 98.5685 7.79683  27 
   8  -2  -4 119.281 8.98381  79 
   8  -2  -4 109.668 8.16808  41 
  -8  -2   4 118.864 7.89830  19 
   8  -2  -4 115.469 7.99307  75 
  -8  -2   4 110.078 7.43871  27 
   8  -2  -4 110.279 8.57882  33 
  -8  -2   4 119.432 8.73320  20 
   8  -2  -4 76.8460 10.4936  48 
  -8  -2   4 112.788 7.93769  75 
  -8  -2   4 135.754 9.98483  47 
  -8   2   4 104.167 7.89531   2 
   8   2  -4 103.863 8.17013  10 
  -8   2   4 106.073 7.95166  14 
  -8   2   4 114.603 8.49188   5 
  -8   2   4 117.586 7.35786  13 
  -8   2   4 115.068 7.82216   4 
   8   2  -4 115.742 8.51815   4 
  -8   2   4 102.006 6.99546  16 
   8   2  -4 115.195 9.74068  15 
  -8   2   4 118.339 7.05237  28 
   8   2  -4 96.5411 8.32601  13 
  -8   2   4 119.806 7.98068  77 
  -8   2   4 105.276 7.97480   7 
  -8   2   4 107.970 7.27248   3 
  -8   2   4 115.459 7.23160   1 
   8   2  -4 130.591 8.30134  73 
  -8   2   4 119.515 8.62514  83 
   8   2  -4 110.045 8.97571   7 
  -8   2   4 113.935 7.68918  31 
   8   2  -4 110.044 8.42776  41 
   7  -2  -4 5.09273 3.19101  44 
   7  -2  -4 0.59828 2.08034  71 
   7  -2  -4 5.20912 3.62214  33 
  -7  -2   4 -6.8964 3.24104  48 
   7  -2  -4 0.78900 3.73414  79 
   7  -2  -4 1.21158 2.78335  75 
  -7  -2   4 2.96804 2.53264  71 
  -7  -2   4 4.99812 3.47857  47 
   7  -2  -4 -6.0457 3.50681  48 
   7  -2  -4 0.89092 2.54770  45 
  -7  -2   4 3.22500 2.99971  75 
  -7  -2   4 0.57435 2.07280  45 
  -7   2   4 6.20344 3.37957  47 
   7   2  -4 4.51046 3.69778  83 
  -7   2   4 -3.9839 3.92487  83 
  -7   2   4 5.50377 3.27136  77 
   7   2  -4 8.79285 4.27740  73 
  -7   2   4 1.96820 3.62948  74 
   7   2  -4 0.64813 4.02329  41 
   7   2  -4 4.40992 3.41472  78 
  -6  -2   4 11.1812 2.98382  47 
  -6  -2   4 12.2581 3.54532  45 
  -6  -2   4 14.2134 3.97012  75 
   6  -2  -4 9.55540 2.76076  75 
  -6  -2   4 14.4150 3.32341  71 
   6  -2  -4 8.40506 2.77833  44 
  -6  -2   4 11.5279 4.89105  44 
  -6  -2   4 12.5116 3.60853  48 
   6  -2  -4 11.8401 3.58592  79 
   6  -2  -4 11.8281 2.99702  71 
   6  -2  -4 8.56618 3.64418  48 
   6  -2  -4 3.72525 2.16279  45 
   6   2  -4 4.68757 3.10265  38 
   6   2  -4 18.0715 4.98894  83 
  -6   2   4 12.8887 3.75839  77 
   6   2  -4 12.4398 4.19478  73 
  -6   2   4 8.46182 3.48429  74 
  -6   2   4 13.1644 3.42976  47 
   6   2  -4 15.2399 4.34980  77 
   6   2  -4 16.3544 4.12331  41 
   6   2  -4 14.2154 3.63895  78 
  -6   2   4 11.4397 3.90665  83 
  -5  -2   4 58.5234 4.83516  75 
  -5  -2   4 65.4056 4.82933  45 
   5  -2  -4 63.3005 4.25052  46 
  -5  -2   4 67.3895 4.75635  71 
   5  -2  -4 70.4697 5.57436  48 
   5  -2  -4 56.9481 5.52545  79 
  -5  -2   4 57.7436 5.46433  48 
   5  -2  -4 73.2071 4.78727  45 
  -5  -2   4 58.6869 5.99958  44 
   5  -2  -4 62.9884 5.81301  44 
   5  -2  -4 66.2736 4.87679  75 
   5  -2  -4 65.9300 4.34628  71 
  -5  -2   4 60.5178 4.73666  49 
   5   2  -4 56.4076 4.69516  51 
  -5   2   4 65.8658 4.85683  77 
   5   2  -4 55.5904 5.53383  41 
  -5   2   4 61.9154 3.70839  51 
   5   2  -4 61.2585 4.92603  77 
  -5   2   4 62.7347 5.14155  74 
  -5   2   4 67.1424 5.04655  47 
   5   2  -4 57.2540 4.75833  78 
   5   2  -4 69.0996 5.57925  73 
  -4  -2   4 277.014 14.3282  44 
   4  -2  -4 281.157 13.1418  71 
  -4  -2   4 243.429 13.4537  75 
  -4  -2   4 295.771 14.0205  48 
   4  -2  -4 257.903 13.7507  48 
   4  -2  -4 241.658 13.7093  69 
   4  -2  -4 251.853 13.8969  44 
  -4  -2   4 267.831 13.3210  49 
   4  -2  -4 259.980 14.5546  65 
  -4  -2   4 250.980 14.7770  65 
  -4  -2   4 246.356 16.2021  67 
   4  -2  -4 235.355 13.1415  45 
   4  -2  -4 254.365 13.2679  75 
  -4  -2   4 260.742 13.3144  71 
   4  -2  -4 258.441 13.0269  46 
   4  -2  -4 243.189 13.0361  70 
  -4  -2   4 257.856 13.2638  45 
  -4   2   4 250.212 13.2233  77 
  -4   2   4 249.324 13.5812  47 
  -4   2   4 224.612 18.4806  66 
   4   2  -4 236.260 13.3674  51 
  -4   2   4 260.448 13.7962  74 
   4   2  -4 256.252 12.8793  53 
  -4   2   4 262.111 12.6280  51 
   4   2  -4 251.393 13.5394  73 
   4   2  -4 236.278 13.7176  77 
   3  -2  -4 102.139 7.18386  64 
  -3  -2   4 97.2656 6.72072  44 
  -3  -2   4 91.7167 5.72407  74 
   3  -2  -4 93.8409 5.41935  71 
  -3  -2   4 92.8937 5.56476  49 
  -3  -2   4 108.024 7.05342  65 
   3  -2  -4 93.1423 5.86545  69 
   3  -2  -4 91.4097 5.55896  45 
  -3  -2   4 100.828 6.14164  48 
   3  -2  -4 95.3198 6.43215  65 
   3  -2  -4 106.812 5.34077  46 
  -3  -2   4 90.1652 5.52122  45 
  -3  -2   4 93.4809 5.69278  71 
   3  -2  -4 89.8476 5.26352  70 
  -3  -2   4 94.8275 5.50419  46 
  -3  -2   4 99.5170 8.31902  67 
  -3  -2   4 92.7666 5.43657  70 
   3  -2  -4 86.6805 6.09962  48 
  -3   2   4 102.696 10.0876  66 
   3   2  -4 100.885 5.70284  51 
  -3   2   4 93.4565 6.21123  54 
   3   2  -4 98.2831 5.03321  53 
  -3   2   4 97.3294 6.91873  68 
   3   2  -4 101.895 7.09169  52 
  -2  -2   4 369.552 19.6406  63 
   2  -2  -4 407.262 20.2093  65 
   2  -2  -4 388.000 19.2381  70 
   2  -2  -4 379.697 21.7717  58 
  -2  -2   4 385.338 19.3755  46 
  -2  -2   4 384.834 19.9299  69 
  -2  -2   4 423.009 21.0005  61 
  -2  -2   4 406.131 19.5152  71 
  -2  -2   4 369.548 19.4238  45 
   2  -2  -4 397.725 19.6859  69 
  -2  -2   4 386.750 20.6177  65 
   2  -2  -4 369.799 19.3467  45 
   2  -2  -4 379.693 19.1970  46 
   2  -2  -4 385.971 20.6786  64 
   2  -2  -4 389.213 19.6606  48 
   2  -2  -4 407.144 19.2787  50 
  -2  -2   4 394.344 21.8523  67 
  -2  -2   4 409.612 19.4159  70 
   2  -2  -4 374.854 19.4382  63 
  -2  -2   4 353.264 19.7322  48 
  -2  -2   4 397.630 19.4136  49 
   2  -2  -4 371.046 19.2883  71 
  -2   2   4 387.906 20.3989  68 
   2   2  -4 380.145 20.8633  52 
   2   2  -4 401.548 19.4976  51 
   2   2  -4 411.057 25.2841  66 
  -2   2   4 387.316 20.2187  54 
  -2   2   4 388.410 23.6351  66 
  -1  -2   4 101.910 7.85209  67 
   1  -2  -4 99.4303 5.43783  50 
  -1  -2   4 99.8128 5.71287  45 
   1  -2  -4 102.935 8.00275  58 
  -1  -2   4 107.321 6.89429  65 
   1  -2  -4 110.175 5.40201  70 
  -1  -2   4 108.012 6.72265  61 
   1  -2  -4 102.039 5.37560  46 
   1  -2  -4 105.758 5.66835  63 
   1  -2  -4 106.733 6.85751  64 
   1  -2  -4 99.1152 5.74289  69 
  -1  -2   4 103.672 6.50669  57 
  -1  -2   4 96.3853 5.53680  46 
  -1  -2   4 103.651 5.87134  63 
   1  -2  -4 100.573 5.97018  48 
   1  -2  -4 105.969 6.38559  65 
  -1  -2   4 104.890 7.11758  64 
  -1  -2   4 103.936 5.64745  49 
  -1  -2   4 98.6264 6.02859  48 
  -1   2   4 97.1427 6.61512  54 
   1   2  -4 107.069 10.5537  66 
  -1   2   4 102.157 6.60572  68 
   1   2  -4 102.516 5.61062  51 
  -1   2   4 98.0924 9.10460  66 
   1   2  -4 106.365 7.27193  52 
   0  -2   4 433.475 22.1832  48 
   0  -2  -4 418.639 21.6931  46 
   0  -2   4 438.922 21.8626  70 
   0  -2  -4 403.151 21.7800  45 
   0  -2   4 436.856 22.1334  63 
   0  -2   4 425.604 21.9569  71 
   0  -2  -4 469.122 22.1408  69 
   0  -2  -4 461.637 23.1438  64 
   0  -2  -4 404.771 22.0175  48 
   0  -2   4 438.036 22.9688  65 
   0  -2  -4 449.401 21.7315  70 
   0  -2   4 419.659 21.7955  46 
   0  -2  -4 470.561 24.2530  58 
   0  -2   4 454.874 24.0206  67 
   0  -2  -4 426.560 21.8014  71 
   0  -2   4 417.033 21.8796  45 
   0  -2   4 468.157 23.4730  64 
   0  -2  -4 456.157 22.6332  65 
   0  -2   4 427.684 22.3273  69 
   0  -2  -4 452.248 21.8032  50 
   0  -2   4 458.773 23.0093  61 
   0  -2   4 460.829 21.8739  49 
   0  -2  -4 446.071 21.9648  63 
   0  -2   4 442.856 22.7565  57 
   0   2   4 471.476 22.9248  68 
   0   2  -4 446.274 23.4498  52 
   0   2  -4 425.792 26.8446  66 
   0   2  -4 443.261 21.8451  51 
   0   2   4 424.770 22.7541  54 
   1  -2   4 126.060 7.36641  71 
   1  -2   4 133.477 7.61337  48 
   1  -2   4 139.756 7.15198  46 
  -1  -2  -4 133.799 7.30279  63 
  -1  -2  -4 130.820 8.13936  65 
   1  -2   4 127.177 7.23097  45 
  -1  -2  -4 144.656 8.78552  64 
   1  -2   4 151.156 9.30591  61 
  -1  -2  -4 136.086 7.08995  70 
  -1  -2  -4 134.558 7.15689  45 
   1  -2   4 130.822 7.19479  49 
   1  -2   4 139.282 8.51110  65 
  -1  -2  -4 141.838 7.50016  48 
  -1  -2  -4 131.086 7.22879  71 
   1  -2   4 138.807 7.82265  69 
  -1  -2  -4 126.539 7.51197  69 
   1  -2   4 132.154 7.18361  70 
   1  -2   4 144.878 9.78477  67 
  -1  -2  -4 134.577 7.04309  46 
   1   2   4 135.693 8.24831  54 
   1   2   4 132.428 6.80952  51 
  -1   2  -4 140.086 8.86965  52 
  -1   2  -4 137.031 7.13756  51 
  -1   2  -4 139.190 12.5250  66 
   2  -2   4 1445.11 66.7156  69 
  -2  -2  -4 1399.53 67.1951  65 
   2  -2   4 1351.15 65.9318  45 
   2  -2   4 1353.19 65.9784  71 
   2  -2   4 1413.05 65.9702  70 
   2  -2   4 1310.68 66.4904  44 
   2  -2   4 1286.33 65.8508  49 
   2  -2   4 1326.50 67.3585  65 
  -2  -2  -4 1347.60 66.2024  48 
  -2  -2  -4 1292.19 66.4251  44 
  -2  -2  -4 1299.10 65.7874  46 
   2  -2   4 1429.04 68.7911  67 
  -2  -2  -4 1395.13 65.9767  71 
  -2  -2  -4 1336.60 65.8863  45 
   2  -2   4 1329.37 66.2512  48 
  -2  -2  -4 1357.05 65.8839  70 
   2  -2   4 1345.17 66.1107  75 
  -2  -2  -4 1337.05 69.0754  67 
  -2  -2  -4 1252.13 66.3680  69 
   2  -2   4 1363.22 65.8431  46 
  -2  -2  -4 1315.52 66.0869  75 
  -2   2  -4 1353.82 65.9365  51 
   2   2   4 1282.14 65.7020  73 
  -2   2  -4 1453.25 67.5908  52 
   2   2   4 1389.46 66.7603  54 
   2   2   4 1249.98 65.7658  51 
  -3  -2  -4 679.965 32.5595  46 
  -3  -2  -4 635.177 33.3355  44 
   3  -2   4 668.704 32.7580  71 
   3  -2   4 632.178 33.3531  44 
  -3  -2  -4 676.220 32.9157  75 
  -3  -2  -4 666.007 32.6409  45 
  -3  -2  -4 699.440 33.0968  48 
  -3  -2  -4 583.117 35.4155  67 
   3  -2   4 626.021 32.8588  75 
   3  -2   4 695.865 33.1326  48 
   3  -2   4 662.269 32.6753  45 
   3  -2   4 686.253 32.6137  49 
  -3  -2  -4 622.069 32.6885  71 
   3  -2   4 680.726 32.5711  46 
   3   2   4 694.338 32.6821  51 
  -3   2  -4 632.951 32.8218  77 
   3   2   4 647.925 32.7281  73 
  -3   2  -4 636.049 32.6601  51 
   3   2   4 659.752 32.8771  77 
   4  -2   4 591.518 31.3381  79 
   4  -2   4 629.826 30.3312  49 
   4  -2   4 603.585 30.6985  75 
   4  -2   4 618.650 30.4885  71 
  -4  -2  -4 616.685 30.5071  71 
  -4  -2  -4 618.578 31.2944  44 
  -4  -2  -4 619.601 30.6775  75 
  -4  -2  -4 628.273 30.8801  48 
   4  -2   4 615.357 30.8937  48 
   4  -2   4 576.688 30.3316  45 
   4  -2   4 606.440 31.2827  44 
  -4  -2  -4 603.485 30.3064  45 
  -4   2  -4 606.606 30.5724  77 
   4   2   4 648.050 30.7583  77 
   4   2   4 563.882 30.6948  40 
  -4   2  -4 574.214 30.6291  42 
  -4   2  -4 551.211 30.2739  51 
   4   2   4 601.003 30.6014  73 
   4   2   4 622.527 31.1477  43 
  -4   2  -4 629.119 31.0339  83 
   5  -2   4 143.693 8.58320  71 
  -5  -2  -4 148.541 8.81950  75 
  -5  -2  -4 147.918 9.82367  44 
  -5  -2  -4 138.202 8.41225  45 
  -5  -2  -4 139.457 8.73527  47 
   5  -2   4 138.574 8.41470  49 
   5  -2   4 132.820 9.26923  48 
   5  -2   4 148.572 10.0548  44 
   5  -2   4 147.107 9.07019  75 
   5  -2   4 149.162 8.53110  45 
  -5  -2  -4 140.583 9.07813  48 
  -5  -2  -4 147.307 8.60458  71 
   5  -2   4 139.979 9.78050  79 
   5   2   4 131.170 9.07941  40 
   5   2   4 155.774 9.43116  43 
   5   2   4 133.878 8.95361  38 
  -5   2  -4 122.074 9.29696  83 
   5   2   4 144.145 9.27365  77 
  -5   2  -4 144.336 8.95436  77 
   5   2   4 136.707 9.02197  73 
   6  -2   4 203.880 11.5213  71 
   6  -2   4 201.748 11.9292  75 
  -6  -2  -4 183.249 11.2192  71 
   6  -2   4 193.491 12.3773  48 
  -6  -2  -4 201.820 11.8646  75 
   6  -2   4 193.215 11.8845  33 
  -6  -2  -4 190.356 11.3359  47 
  -6  -2  -4 203.753 11.3398  45 
   6  -2   4 210.141 11.6912  45 
   6  -2   4 194.101 11.6496  41 
   6  -2   4 181.464 13.0381  44 
   6  -2   4 201.373 13.0983  79 
   6   2   4 205.518 11.7931  73 
  -6   2  -4 194.491 12.3930  83 
   6   2   4 192.484 11.7893  40 
   6   2   4 209.581 12.2840  77 
   6   2   4 198.229 12.1076  43 
   6   2   4 209.333 12.2289  38 
  -6   2  -4 203.334 11.7486  77 
   7  -2   4 21.2006 5.37053  20 
  -7  -2  -4 24.9514 4.63124  75 
   7  -2   4 22.7644 4.73556  75 
   7  -2   4 20.8388 5.21731  79 
  -7  -2  -4 18.5575 4.69025  18 
  -7  -2  -4 24.8337 4.13209  27 
   7  -2   4 16.7007 4.44714  27 
  -7  -2  -4 19.4284 5.03569  20 
   7  -2   4 21.7552 5.47231  41 
   7  -2   4 13.1906 6.46963  24 
  -7  -2  -4 24.9622 4.72581  19 
   7  -2   4 12.1961 3.68588  33 
  -7   2  -4 20.8288 3.52655  17 
  -7   2  -4 21.8570 3.74251   3 
  -7   2  -4 19.0028 5.09570   5 
   7   2   4 23.8167 6.24139  77 
   7   2   4 17.4790 5.11673  43 
  -7   2  -4 25.8045 4.38375  31 
   7   2   4 19.5599 5.62213   7 
  -7   2  -4 21.2987 4.40253   2 
  -7   2  -4 32.5649 5.89827  83 
  -7   2  -4 20.2677 3.75435  13 
   7   2   4 9.38707 3.25335  31 
  -7   2  -4 14.9389 4.95190  25 
   7   2   4 21.3612 4.68930   3 
   7   2   4 22.6380 5.03973  38 
  -7   2  -4 18.5688 3.62808  16 
  -7   2  -4 22.2605 4.65063  14 
  -7   2  -4 19.9326 4.78702   6 
   7   2   4 20.6870 6.20900  15 
   7   2   4 26.6074 4.66990  16 
  -7   2  -4 14.0172 4.05115   4 
  -7   2  -4 20.4784 4.09294   7 
   7   2   4 18.2233 3.71407   4 
   7   2   4 23.8446 5.37108  73 
  -7   2  -4 23.8478 5.14012  77 
   7   2   4 18.7349 3.56568  13 
   7   2   4 14.0546 3.48760  40 
   8  -2   4 30.6987 5.14880  19 
   8  -2   4 33.0716 6.46129  79 
  -8  -2  -4 34.8217 5.74360  79 
   8  -2   4 37.2012 5.60354  33 
   8  -2   4 43.4962 4.77522  27 
   8  -2   4 36.3333 5.76330  20 
   8  -2   4 35.7344 5.25469  18 
   8  -2   4 30.5965 5.65153  41 
  -8  -2  -4 34.5699 4.68068  19 
  -8  -2  -4 40.0421 4.27516  27 
   8  -2   4 48.2542 6.77574  24 
  -8  -2  -4 35.6564 4.58443  18 
  -8  -2  -4 40.9506 5.38942  20 
   8   2   4 29.4973 7.43251  40 
   8   2   4 32.7815 5.25873  13 
   8   2   4 31.5331 5.84804  38 
   8   2   4 41.0109 5.38990  31 
   8   2   4 37.7837 4.78753  16 
  -8   2  -4 39.5405 4.01224   3 
  -8   2  -4 38.0250 4.19926   1 
  -8   2  -4 38.9246 4.54062   4 
   8   2   4 38.8344 5.23764   4 
  -8   2  -4 39.3771 4.15259  13 
   8   2   4 38.7542 6.30260  15 
  -8   2  -4 35.7297 5.10651   5 
  -8   2  -4 38.1558 4.82582   2 
  -8   2  -4 38.9661 4.80546   7 
   8   2   4 38.5765 4.68657   3 
  -8   2  -4 38.7109 4.46314  31 
  -8   2  -4 34.6319 4.63161  14 
  -8   2  -4 42.5697 3.77802  16 
  -8   2  -4 39.1534 3.84861  17 
   8   2   4 44.8946 5.70546   7 
  -8   2  -4 36.4390 5.40918   6 
  -8   2  -4 42.7997 5.67687  83 
  -9  -2  -4 30.0328 3.99896  19 
   9  -2   4 27.8760 4.44928  33 
   9  -2   4 34.0565 4.43532  18 
   9  -2   4 36.6366 4.59483  19 
  -9  -2  -4 42.8281 4.46973  20 
  -9  -2  -4 34.4535 3.85404  18 
   9  -2   4 34.6697 5.06040  20 
   9  -2   4 27.0645 5.06714  24 
   9   2   4 34.2782 3.60770   1 
   9   2   4 30.3462 4.46534  15 
  -9   2  -4 28.2499 3.72849  31 
  -9   2  -4 25.6342 4.41310   5 
  -9   2  -4 34.5080 3.27991   3 
   9   2   4 34.1353 3.72645  16 
   9   2   4 36.4415 3.92488   3 
   9   2   4 34.6638 4.83409   7 
   9   2   4 32.0255 4.24893   4 
   9   2   4 32.0906 4.37982  31 
  -9   2  -4 33.4874 3.14436   1 
  -9   2  -4 26.6409 3.96425   2 
  -9   2  -4 28.4596 3.60584   4 
  -9   2  -4 36.8116 4.29962   7 
  -9   2  -4 29.4014 2.60702  16 
  -9   2  -4 29.4437 5.34282  14 
  -9   2  -4 28.3870 3.07151  17 
   9   2   4 29.1515 4.07014  13 
  -9   2  -4 32.5531 3.13089  13 
  -9   2  -4 27.4229 3.16812  32 
  10  -3  -4 7.68784 2.95685  33 
 -10  -3   4 8.68647 2.54320  20 
  10  -3  -4 4.82784 1.85436  27 
 -10  -3   4 9.53196 2.27000  19 
  10  -3  -4 8.54836 4.24262  24 
 -10  -3   4 12.1561 2.44287  18 
  10   3  -4 12.0665 2.17236   1 
  10   3  -4 10.4324 3.54671  10 
 -10   3   4 10.5626 3.29940   7 
 -10   3   4 5.06189 2.09843  14 
  10   3  -4 8.22413 2.37211  32 
  10   3  -4 14.2041 3.98346   7 
 -10   3   4 5.18889 1.86617   5 
  10   3  -4 8.86605 2.26688   4 
 -10   3   4 9.28932 2.48972  30 
  10   3  -4 7.73800 2.39486  23 
  10   3  -4 14.1276 3.30056  15 
  10   3  -4 2.73491 2.14648  31 
 -10   3   4 8.70538 2.47373  31 
 -10   3   4 9.35777 2.10195  22 
 -10   3   4 9.90195 2.37523  28 
  10   3  -4 9.35277 2.71134   3 
   9  -3  -4 40.1098 4.86036  27 
   9  -3  -4 30.3475 5.90039  24 
  -9  -3   4 35.9342 4.78873  18 
   9  -3  -4 29.6801 5.79206  33 
  -9  -3   4 31.4273 5.50004  20 
  -9  -3   4 29.7770 4.92247  19 
  -9  -3   4 42.3600 4.32306  27 
   9   3  -4 36.8471 4.17252   1 
   9   3  -4 40.8191 6.35309  15 
   9   3  -4 36.0258 3.95965  13 
   9   3  -4 33.9594 5.47041   7 
   9   3  -4 30.3521 5.28313  23 
  -9   3   4 36.7004 4.74562   7 
  -9   3   4 33.3270 4.08188  30 
  -9   3   4 30.2277 4.70284  14 
   9   3  -4 37.0059 3.69522  16 
  -9   3   4 43.7509 4.07015  31 
   9   3  -4 35.4861 5.17181   4 
  -9   3   4 35.2542 4.75666   5 
  -9   3   4 37.0863 3.44091   3 
  -9   3   4 34.4155 3.55019  22 
   9   3  -4 36.2880 4.99002  31 
   9   3  -4 32.2479 4.38633  32 
   9   3  -4 43.9095 5.60016  10 
  -9   3   4 39.4774 3.77151  28 
   9   3  -4 34.9018 4.47185   3 
  -8  -3   4 16.8301 4.74279  20 
   8  -3  -4 24.2058 4.98260  79 
   8  -3  -4 16.8083 3.82757  75 
   8  -3  -4 11.1861 2.98512  27 
  -8  -3   4 27.2707 5.33337  75 
   8  -3  -4 18.9639 5.61982  33 
  -8  -3   4 21.4580 4.33330  27 
  -8   3   4 21.1787 4.61553   7 
  -8   3   4 23.3667 5.31452   6 
   8   3  -4 23.2679 5.14700  31 
   8   3  -4 20.8162 6.95242  15 
  -8   3   4 19.9003 3.24883  28 
  -8   3   4 20.2023 2.88200  32 
   8   3  -4 21.0130 4.89954  39 
  -8   3   4 20.2694 3.29550  22 
   8   3  -4 20.1802 5.31082  10 
  -8   3   4 18.6527 3.72570  31 
  -8   3   4 24.9910 5.50167   5 
   8   3  -4 22.3714 6.00127  23 
   8   3  -4 16.8319 4.58815  28 
   8   3  -4 16.0268 3.96614  16 
  -8   3   4 16.6032 3.89452  30 
   8   3  -4 19.2341 5.33840   4 
   8   3  -4 22.6439 4.32463   1 
  -8   3   4 20.4849 3.31172   3 
  -8   3   4 23.2401 3.51320  29 
  -8   3   4 21.4827 3.29363  77 
   8   3  -4 22.5641 4.57957   3 
   8   3  -4 16.1750 4.01064   7 
   8   3  -4 18.4735 5.18723  13 
   8   3  -4 11.5232 3.95598  77 
  -8   3   4 21.6873 2.44057   1 
  -8   3   4 25.2077 4.80179  14 
  -7  -3   4 0.16248 2.46982  44 
   7  -3  -4 0.00340 2.89539  75 
  -7  -3   4 -2.6118 2.19552  45 
   7  -3  -4 -3.0091 3.95165  48 
  -7  -3   4 -0.8368 2.36922  27 
  -7  -3   4 -0.7030 2.05054  71 
  -7  -3   4 -4.1514 2.72895  48 
   7  -3  -4 -1.8642 2.37923  71 
  -7  -3   4 1.63991 3.05185  75 
   7  -3  -4 0.68735 3.08810  44 
   7  -3  -4 -0.7227 3.30080  79 
  -7   3   4 1.34165 2.10975  31 
   7   3  -4 2.40545 3.74768  10 
   7   3  -4 -8.3157 2.47428  16 
  -7   3   4 -0.8400 1.88225   1 
   7   3  -4 -0.6885 3.23636  31 
   7   3  -4 -3.1094 3.65875   4 
   7   3  -4 -4.5961 3.42131  13 
  -7   3   4 2.49025 3.15005   7 
   7   3  -4 -5.8005 3.15530  28 
   7   3  -4 1.60577 3.65878  77 
   7   3  -4 0.43789 3.85521   7 
  -7   3   4 -3.2113 2.99471  14 
  -7   3   4 0.59941 1.98197  28 
   7   3  -4 -1.2397 4.73063  23 
   7   3  -4 0.09518 2.87918   3 
  -7   3   4 -0.8849 2.34446  30 
  -7   3   4 -4.0026 4.01030   6 
  -7   3   4 -2.0580 1.96164   3 
   7   3  -4 10.9273 3.92713  39 
   7   3  -4 -0.0755 3.01524   1 
  -7   3   4 -0.3408 1.82540  32 
  -7   3   4 0.38815 2.53808  77 
  -7   3   4 0.25039 1.84199  29 
  -7   3   4 0.27517 2.00687  22 
   6  -3  -4 47.9615 6.25350  44 
  -6  -3   4 34.1593 6.36974  44 
  -6  -3   4 42.9449 5.20935  48 
   6  -3  -4 43.8052 5.70773  48 
  -6  -3   4 53.4119 4.89612  45 
   6  -3  -4 50.2821 5.85612  79 
   6  -3  -4 45.2906 3.91554  46 
  -6  -3   4 51.4351 5.13743  75 
  -6  -3   4 47.3513 4.48025  71 
   6  -3  -4 42.9252 4.03361  71 
   6  -3  -4 54.6765 4.61386  75 
  -6  -3   4 41.6431 4.20960  49 
   6   3  -4 46.5769 5.05447  77 
   6   3  -4 51.4806 5.50295  39 
  -6   3   4 53.7237 4.35630  77 
   6   3  -4 49.1014 6.29683  42 
   5  -3  -4 270.691 14.6813  70 
  -5  -3   4 290.016 16.3665  44 
   5  -3  -4 267.699 14.6107  46 
   5  -3  -4 290.345 15.5834  48 
   5  -3  -4 281.348 15.7893  44 
  -5  -3   4 304.167 15.0574  71 
  -5  -3   4 293.317 15.3688  75 
  -5  -3   4 294.754 15.1216  45 
  -5  -3   4 288.201 14.9197  49 
   5  -3  -4 234.578 15.4064  69 
   5   3  -4 260.956 15.2715  83 
  -5   3   4 288.264 14.5631  77 
   5   3  -4 296.753 16.3140  42 
   5   3  -4 319.498 15.1912  77 
   5   3  -4 280.777 15.6242  39 
   4  -3  -4 544.604 26.7170  70 
  -4  -3   4 527.277 27.1926  75 
  -4  -3   4 491.649 26.8478  49 
  -4  -3   4 540.352 27.9949  44 
  -4  -3   4 592.950 27.0457  71 
  -4  -3   4 582.653 26.9539  46 
  -4  -3   4 506.351 26.9363  45 
  -4  -3   4 493.764 27.4301  48 
   4  -3  -4 556.063 26.6867  46 
   4  -3  -4 546.373 27.4886  69 
   4  -3  -4 549.472 27.2957  48 
  -4  -3   4 525.173 27.3995  70 
   4  -3  -4 506.432 27.4579  44 
  -4   3   4 496.104 26.4686  77 
   4   3  -4 530.857 27.8378  42 
   4   3  -4 543.398 27.2233  83 
  -4   3   4 574.309 26.9573  80 
   4   3  -4 545.673 26.9492  77 
  -3  -3   4 97.4534 6.19460  75 
   3  -3  -4 98.8153 5.50902  46 
   3  -3  -4 103.808 6.11866  69 
  -3  -3   4 94.5222 6.44926  69 
  -3  -3   4 96.6616 5.90885  49 
  -3  -3   4 108.056 7.23613  44 
  -3  -3   4 105.937 6.00692  45 
   3  -3  -4 96.7550 5.55788  50 
   3  -3  -4 102.759 6.26876  48 
  -3  -3   4 101.296 5.80293  70 
   3  -3  -4 106.428 5.54191  70 
  -3  -3   4 100.332 6.51673  48 
  -3  -3   4 101.295 5.96886  71 
  -3  -3   4 103.600 5.83519  46 
  -3   3   4 96.0152 5.66746  80 
   3   3  -4 93.5838 6.90456  42 
  -3   3   4 104.731 7.17844  68 
   3   3  -4 97.7960 6.01461  77 
   2  -3  -4 525.827 26.2892  48 
  -2  -3   4 516.624 25.8452  49 
   2  -3  -4 549.794 26.1129  69 
   2  -3  -4 511.248 25.5984  70 
  -2  -3   4 525.438 26.5174  69 
  -2  -3   4 538.495 25.8655  70 
   2  -3  -4 533.035 26.7034  65 
   2  -3  -4 519.816 25.5534  46 
   2  -3  -4 537.413 25.6504  50 
  -2  -3   4 513.032 25.8674  45 
  -2  -3   4 519.442 26.2848  48 
  -2  -3   4 469.701 25.8702  71 
  -2  -3   4 493.774 25.7781  46 
  -2  -3   4 513.373 26.5836  44 
  -2   3   4 526.712 27.2505  54 
   2   3  -4 527.027 28.1488  52 
   2   3  -4 510.915 25.7698  77 
  -2   3   4 523.158 26.8662  68 
  -1  -3   4 192.031 9.91886  49 
  -1  -3   4 197.669 9.86477  46 
  -1  -3   4 201.161 12.8645  65 
   1  -3  -4 189.421 10.5198  65 
   1  -3  -4 201.308 9.73150  50 
  -1  -3   4 183.728 10.3143  48 
   1  -3  -4 188.112 10.0547  69 
   1  -3  -4 186.301 9.59419  46 
  -1  -3   4 185.902 10.4948  69 
  -1  -3   4 194.885 10.6868  44 
   1  -3  -4 194.799 9.65033  70 
  -1   3   4 189.517 11.6198  54 
   1   3  -4 210.942 12.4809  52 
  -1   3   4 193.860 10.8888  68 
   1   3  -4 173.395 9.82713  77 
   1   3  -4 185.000 15.1722  66 
   0  -3   4 212.156 10.4932  46 
   0  -3   4 229.922 13.7191  65 
   0  -3   4 214.459 11.1627  69 
   0  -3   4 209.906 10.5645  49 
   0  -3  -4 212.520 10.7990  69 
   0  -3  -4 199.012 10.7039  48 
   0  -3   4 195.575 10.5331  70 
   0  -3  -4 215.324 10.4329  50 
   0  -3  -4 191.584 11.2134  65 
   0  -3   4 190.316 11.1558  74 
   0  -3  -4 197.206 10.3025  46 
   0  -3   4 193.467 11.1343  44 
   0  -3  -4 211.784 10.3566  70 
   0  -3   4 198.752 10.9618  48 
   0   3   4 196.918 12.1323  54 
   0   3  -4 196.087 12.7110  52 
   0   3  -4 195.129 16.7041  66 
   0   3   4 235.751 11.8597  68 
   0   3  -4 200.376 10.5154  77 
  -1  -3  -4 16.4890 1.79183  50 
  -1  -3  -4 19.2626 1.71001  46 
   1  -3   4 17.0659 2.07293  49 
   1  -3   4 13.8246 1.84580  70 
   1  -3   4 17.2224 1.88577  46 
  -1  -3  -4 17.1177 1.71092  70 
   1  -3   4 15.9535 2.93833  44 
   1  -3   4 16.2599 2.88121  74 
  -1  -3  -4 16.7925 2.17355  69 
   1  -3   4 17.0654 2.66536  48 
   1  -3   4 15.5027 2.52879  69 
  -1  -3  -4 17.8883 2.28531  48 
   1   3   4 16.4905 3.63056  54 
  -1   3  -4 14.3296 2.13637  77 
   1   3   4 15.1832 1.94957  77 
  -1   3  -4 12.1679 4.52316  52 
  -1   3  -4 11.7696 3.41987  42 
  -2  -3  -4 159.744 8.81114  69 
   2  -3   4 149.242 9.10292  44 
  -2  -3  -4 159.080 8.04801  46 
   2  -3   4 146.331 8.35035  71 
  -2  -3  -4 142.159 8.07968  70 
   2  -3   4 154.045 8.20200  49 
   2  -3   4 151.864 8.97375  69 
   2  -3   4 149.774 8.68657  48 
   2  -3   4 155.840 8.21117  70 
   2  -3   4 190.852 9.40701  45 
  -2  -3  -4 142.908 8.79623  44 
   2  -3   4 162.206 8.13009  46 
  -2  -3  -4 151.205 8.50662  48 
   2   3   4 151.062 9.85828  54 
   2   3   4 136.547 8.16842  77 
  -2   3  -4 140.340 9.11365  42 
   2   3   4 142.416 9.32381  43 
  -2   3  -4 160.719 10.7487  52 
  -2   3  -4 153.040 8.20152  77 
  -3  -3  -4 654.686 34.2789  69 
  -3  -3  -4 666.439 34.1892  44 
   3  -3   4 674.893 33.6428  75 
  -3  -3  -4 641.340 33.2541  45 
  -3  -3  -4 659.849 33.3206  70 
   3  -3   4 701.388 33.2606  46 
   3  -3   4 744.356 33.4010  45 
   3  -3   4 693.601 33.8278  48 
  -3  -3  -4 693.005 33.8030  48 
   3  -3   4 693.220 33.4359  70 
  -3  -3  -4 635.029 33.5416  75 
   3  -3   4 675.253 34.2127  44 
  -3  -3  -4 681.988 33.2368  46 
   3  -3   4 670.306 33.4490  71 
   3  -3   4 639.718 33.2322  49 
  -3  -3  -4 637.065 33.3839  71 
   3  -3   4 654.841 34.1433  79 
  -3   3  -4 655.571 33.2883  77 
  -3   3  -4 690.342 34.0771  42 
   3   3   4 617.179 33.9039  40 
   3   3   4 706.830 33.4093  77 
   3   3   4 638.622 34.2690  43 
  -4  -3  -4 90.4420 7.12120  44 
  -4  -3  -4 87.4187 6.33153  75 
   4  -3   4 87.0692 7.28857  79 
  -4  -3  -4 90.7727 6.49808  48 
  -4  -3  -4 86.8638 5.72452  45 
   4  -3   4 89.7598 5.55496  46 
   4  -3   4 93.9256 7.29569  44 
   4  -3   4 93.7011 6.56441  48 
   4  -3   4 98.1470 5.90825  49 
   4  -3   4 90.3554 6.01545  71 
  -4  -3  -4 90.8427 6.06465  71 
   4  -3   4 79.3069 5.76956  45 
   4  -3   4 89.3610 6.32758  75 
  -4  -3  -4 83.3325 5.56990  46 
  -4   3  -4 91.9094 6.89801  42 
   4   3   4 80.2321 7.66299  43 
   4   3   4 80.7631 7.50369  40 
   4   3   4 82.0723 7.19631  38 
   4   3   4 77.8740 6.22249  77 
  -4   3  -4 81.5193 6.00645  77 
   5  -3   4 304.799 17.8588  48 
   5  -3   4 305.283 17.2262  45 
  -5  -3  -4 341.815 17.7193  75 
   5  -3   4 339.034 18.6522  44 
  -5  -3  -4 330.990 18.5734  44 
  -5  -3  -4 334.088 17.1847  45 
   5  -3   4 312.748 18.4375  79 
  -5  -3  -4 326.296 17.6791  47 
   5  -3   4 346.327 17.3330  71 
  -5  -3  -4 283.726 17.1118  71 
   5  -3   4 339.325 17.6966  75 
  -5   3  -4 333.054 17.2471  77 
   5   3   4 312.141 17.4723  77 
   5   3   4 332.557 17.9182  38 
   5   3   4 319.755 18.3743  43 
   5   3   4 368.816 18.4908  40 
   6  -3   4 272.504 14.5873  41 
  -6  -3  -4 220.880 14.1853  75 
   6  -3   4 243.976 13.8910  27 
  -6  -3  -4 247.560 15.3876  44 
  -6  -3  -4 263.404 13.7911  27 
   6  -3   4 276.430 14.5831  75 
   6  -3   4 266.607 14.4289  33 
   6  -3   4 259.665 15.5318  79 
   6  -3   4 249.991 15.5281  44 
  -6   3  -4 245.851 13.2704  32 
   6   3   4 240.669 13.8846  30 
  -6   3  -4 261.279 13.6418  30 
  -6   3  -4 254.006 13.6358   2 
  -6   3  -4 228.056 13.1943   3 
   6   3   4 251.213 13.8992   4 
  -6   3  -4 257.012 13.9313  77 
   6   3   4 269.445 15.2202  43 
   6   3   4 250.267 13.4626  32 
  -6   3  -4 258.380 12.9509  16 
   6   3   4 259.382 13.9491  31 
  -6   3  -4 243.570 13.8782   8 
   6   3   4 255.601 13.2894  16 
  -6   3  -4 261.489 14.2808  14 
   6   3   4 261.258 13.8705  28 
   6   3   4 265.519 14.3348   7 
   6   3   4 262.063 15.0471  40 
   6   3   4 257.971 14.3664  77 
  -6   3  -4 253.132 13.6197  31 
  -6   3  -4 257.164 14.3709  25 
  -6   3  -4 270.184 14.8589   6 
  -6   3  -4 246.069 13.6376   7 
  -6   3  -4 254.004 13.2862   1 
   6   3   4 257.550 13.4352   1 
   6   3   4 269.039 13.5606   3 
   6   3   4 270.179 15.0727  38 
  -6   3  -4 254.274 13.4105  28 
   7  -3   4 22.1469 4.40891  27 
   7  -3   4 16.6012 6.11389  24 
   7  -3   4 32.9924 6.13885  79 
  -7  -3  -4 23.5580 5.57032  79 
   7  -3   4 21.0669 5.07857  33 
  -7  -3  -4 25.4473 4.20652  27 
   7  -3   4 32.7129 5.43234  41 
   7   3   4 26.3102 4.78239  30 
   7   3   4 25.4058 4.49237   4 
  -7   3  -4 23.6050 4.76212  14 
  -7   3  -4 26.5989 2.90706   1 
  -7   3  -4 30.3823 3.40753  28 
  -7   3  -4 22.9332 3.86311   4 
  -7   3  -4 21.3471 4.05060   2 
   7   3   4 28.1356 4.84823  31 
   7   3   4 25.1477 3.44891  32 
   7   3   4 27.1737 3.21092  16 
  -7   3  -4 28.3910 4.17692   8 
  -7   3  -4 26.0453 5.01911  25 
   7   3   4 21.5688 4.17134  28 
   7   3   4 15.0695 4.33371  77 
  -7   3  -4 22.0043 3.52882  77 
  -7   3  -4 19.0027 3.45834  17 
   7   3   4 28.2685 3.43625   1 
   7   3   4 18.5107 5.08660  38 
  -7   3  -4 27.6285 3.07860  32 
  -7   3  -4 24.5399 4.73401   6 
  -7   3  -4 26.2068 3.86416  30 
  -7   3  -4 28.3029 3.20035   3 
   7   3   4 24.7489 3.87067   3 
  -7   3  -4 29.3776 4.02187  31 
   7   3   4 27.4455 5.71577  40 
  -7   3  -4 27.0920 4.21539   7 
   7   3   4 26.8079 5.35390   7 
   7   3   4 24.5776 5.27173  43 
  -8  -3  -4 33.6796 4.12434  19 
   8  -3   4 23.0443 4.81421  33 
  -8  -3  -4 23.9429 4.36018  20 
  -8  -3  -4 19.4232 3.38502  27 
   8  -3   4 26.1767 3.85256  27 
   8  -3   4 32.9097 5.91424  24 
  -8   3  -4 22.9902 3.92619   7 
   8   3   4 25.0572 3.50483   3 
  -8   3  -4 25.7911 2.36790  32 
  -8   3  -4 23.9145 3.57488  31 
  -8   3  -4 25.1548 3.19656  17 
   8   3   4 25.6490 5.61042  15 
  -8   3  -4 26.2663 3.00753  28 
   8   3   4 17.2272 3.00595   1 
  -8   3  -4 24.4715 2.15257   1 
  -8   3  -4 21.4718 3.52202   2 
   8   3   4 20.8870 3.94339   4 
   8   3   4 19.9997 4.53786  38 
  -8   3  -4 28.5509 4.41933  25 
  -8   3  -4 30.3753 4.99487   6 
   8   3   4 29.4879 4.78477   7 
  -8   3  -4 28.3828 4.05861  14 
   8   3   4 27.3814 4.33519  31 
   8   3   4 22.6659 4.29172  30 
  -8   3  -4 28.8111 3.67708  30 
  -8   3  -4 23.8205 2.71955   3 
   8   3   4 25.7211 3.21576  32 
  -9  -3  -4 21.9814 2.98474  18 
   9  -3   4 17.0715 3.41671  19 
   9  -3   4 18.1791 2.68860  27 
   9  -3   4 20.0702 4.36639  24 
   9  -3   4 22.3552 3.93747  20 
  -9  -3  -4 19.7514 3.41039  20 
  -9  -3  -4 21.7990 3.10818  19 
   9  -3   4 17.6318 3.69121  18 
  -9   3  -4 19.1870 2.53721  31 
   9   3   4 19.4969 1.72854  32 
   9   3   4 22.9907 3.18759  30 
  -9   3  -4 19.2326 2.61280  30 
  -9   3  -4 20.7098 2.28014  17 
   9   3   4 17.8325 2.75717   4 
   9   3   4 28.0965 3.64369   7 
  -9   3  -4 18.2081 2.96170  14 
   9   3   4 15.3983 1.97238   3 
  -9   3  -4 21.4665 3.32059   6 
   9   3   4 23.8581 3.46100  15 
  -9   3  -4 15.6515 3.03738   7 
   9   3   4 19.5332 3.19260  31 
  -9  -4   4 35.0477 3.58041  27 
   9  -4  -4 43.9508 3.59872  27 
   9  -4  -4 45.1991 5.17224  24 
   9   4  -4 49.8917 3.93295  30 
  -9   4   4 35.2424 3.67246  14 
   9   4  -4 40.6929 5.03285  15 
   9   4  -4 48.6926 3.64124  28 
   9   4  -4 38.0212 4.35474  23 
   9   4  -4 41.5181 4.37020  10 
   9   4  -4 39.5503 4.33304   7 
  -9   4   4 46.6798 3.23916  29 
  -9   4   4 36.8972 3.11097  28 
   9   4  -4 40.5216 3.49664  31 
  -8  -4   4 36.8276 4.45100  27 
   8  -4  -4 36.9825 4.71408  27 
   8   4  -4 41.2508 5.18084   7 
   8   4  -4 38.2648 4.33062  28 
   8   4  -4 34.8307 5.29023  10 
   8   4  -4 35.0535 4.55349  31 
  -8   4   4 33.1764 3.52267  29 
   8   4  -4 38.4821 4.77711  30 
   8   4  -4 33.1820 3.28720   3 
  -8   4   4 38.3645 3.49079  28 
  -8   4   4 36.5806 3.59922  22 
  -8   4   4 34.8087 4.78379  25 
  -8   4   4 42.2777 5.77297  14 
   8   4  -4 37.0590 5.36143  23 
  -8   4   4 34.3535 3.10089  30 
  -7  -4   4 3.62804 2.32816  27 
   7   4  -4 4.75824 2.62762  29 
   7   4  -4 7.00274 2.70881  28 
  -7   4   4 5.63707 1.92301  29 
   7   4  -4 2.76607 2.69310  31 
   7   4  -4 6.42814 2.68123  30 
  -7   4   4 4.53009 1.93025  22 
   7   4  -4 6.19452 2.02509   3 
  -7   4   4 6.40559 3.40110  25 
   7   4  -4 1.52701 1.61555  32 
  -7   4   4 3.02398 3.19226   6 
   7   4  -4 3.22708 3.14655   7 
   7   4  -4 5.39220 2.57293  77 
   7   4  -4 1.76417 3.44293  23 
  -7   4   4 2.90413 1.81923  28 
   7   4  -4 5.38723 3.36593  10 
  -7   4   4 3.33231 1.67985  30 
   7   4  -4 6.19702 3.15030  39 
  -6  -4   4 88.2273 8.64709  27 
  -6  -4   4 77.8270 6.36964  75 
   6  -4  -4 80.2265 7.49323  44 
  -6  -4   4 73.9554 7.75143  44 
   6   4  -4 86.0935 7.02834  39 
  -6   4   4 89.7229 5.43838  29 
  -6   4   4 87.8446 7.58888   6 
  -6   4   4 82.8009 5.34271  30 
  -6   4   4 84.3247 5.51611  28 
   6   4  -4 87.3474 6.49992  31 
   6   4  -4 89.5671 6.40731  30 
   6   4  -4 90.6762 6.15698  28 
  -6   4   4 90.1066 6.11614  22 
   6   4  -4 92.9725 5.54892   3 
   6   4  -4 89.3545 5.86149  77 
  -6   4   4 98.8807 7.33122  25 
   6   4  -4 81.2494 4.90740   1 
   6   4  -4 82.1524 5.19268  32 
   6   4  -4 91.5977 8.02721  23 
  -6   4   4 93.8228 7.07369  80 
   6   4  -4 83.3809 7.62348  10 
   6   4  -4 89.6505 7.12664   7 
   6   4  -4 89.2048 6.04699  29 
  -5  -4   4 386.142 21.1519  44 
  -5  -4   4 374.568 20.3226  48 
  -5  -4   4 315.912 20.5827  71 
   5  -4  -4 391.797 19.2903  46 
  -5  -4   4 385.046 20.5669  75 
   5  -4  -4 400.056 20.5264  44 
   5   4  -4 361.566 19.2102  77 
   5   4  -4 389.328 20.1462  39 
  -5   4   4 375.500 19.1723  80 
   5   4  -4 384.060 21.0576  36 
  -4  -4   4 389.815 21.3878  48 
  -4  -4   4 402.148 20.6956  70 
  -4  -4   4 393.041 20.7125  46 
  -4  -4   4 410.192 22.1597  44 
   4  -4  -4 417.315 20.4546  70 
   4  -4  -4 396.361 20.4159  46 
  -4   4   4 418.228 20.3959  80 
   4   4  -4 427.515 22.3982  36 
   4   4  -4 405.211 20.6228  35 
   4   4  -4 416.309 22.7488  82 
   4   4  -4 408.622 23.0987  42 
   4   4  -4 402.630 21.3441  39 
   4   4  -4 392.117 20.3145  77 
  -3  -4   4 354.730 17.4208  70 
  -3  -4   4 325.532 17.3697  46 
  -3  -4   4 339.219 17.4358  49 
   3  -4  -4 336.435 17.1345  50 
   3  -4  -4 345.952 17.0794  46 
  -3  -4   4 303.894 18.5617  69 
   3  -4  -4 359.901 17.1102  70 
  -3  -4   4 343.609 18.6510  44 
  -3  -4   4 348.790 18.0726  48 
   3   4  -4 346.324 19.7631  82 
   3   4  -4 348.038 17.2275  35 
  -3   4   4 331.046 17.0290  80 
   3   4  -4 335.380 18.2105  39 
   3   4  -4 329.557 18.8996  36 
   3   4  -4 347.609 18.6656  42 
  -2  -4   4 178.883 9.32732  70 
  -2  -4   4 181.247 9.29941  46 
  -2  -4   4 166.824 9.28104  49 
   2  -4  -4 169.027 8.88997  46 
  -2  -4   4 171.825 9.82937  48 
   2  -4  -4 176.367 8.99546  50 
   2  -4  -4 171.692 8.90819  70 
   2  -4  -4 173.571 9.41501  69 
  -2  -4   4 166.619 10.4442  44 
  -2  -4   4 188.978 10.1324  69 
  -2   4   4 177.903 8.93486  80 
   2   4  -4 170.985 12.8736  82 
   2   4  -4 171.671 10.1933  39 
   2   4  -4 172.594 10.6408  42 
   2   4  -4 167.328 9.26151  80 
  -1  -4   4 386.303 20.3142  69 
   1  -4  -4 397.367 19.2852  70 
  -1  -4   4 380.817 19.9962  48 
   1  -4  -4 393.252 19.7326  69 
  -1  -4   4 402.527 19.5335  46 
  -1  -4   4 387.000 19.5625  49 
   1  -4  -4 390.009 19.3592  50 
   1  -4  -4 379.164 19.2308  46 
  -1   4   4 399.558 19.2941  80 
   1   4  -4 379.814 21.9169  82 
   1   4  -4 420.393 20.8838  42 
   1   4  -4 373.929 19.5008  80 
   1   4  -4 365.287 20.3276  39 
   0  -4   4 61.5854 3.92051  49 
   0  -4  -4 61.9322 3.63414  50 
   0  -4   4 64.1815 3.92852  70 
   0  -4  -4 63.8788 3.51477  70 
   0  -4   4 60.4346 3.81617  46 
   0  -4  -4 57.2155 3.53230  46 
   0  -4  -4 55.5596 3.86003  69 
   0   4   4 61.7501 3.69236  80 
   0   4  -4 51.2374 7.61823  82 
   0   4   4 61.0154 5.84178  43 
   0   4  -4 61.0475 5.20650  39 
   0   4  -4 60.1447 5.50945  42 
   0   4  -4 56.7477 3.95805  80 
  -1  -4  -4 28.6137 2.18218  70 
  -1  -4  -4 28.3178 2.37836  46 
   1  -4   4 33.1080 2.63131  70 
   1  -4   4 28.3493 2.52149  46 
  -1  -4  -4 26.4557 2.69190  69 
  -1  -4  -4 27.2210 2.40717  50 
   1  -4   4 28.3607 2.97970  69 
   1  -4   4 25.3728 3.28132  48 
   1  -4   4 27.0205 2.64575  49 
  -1   4  -4 22.1507 2.72986  80 
   1   4   4 24.2816 4.69165  37 
  -1   4  -4 29.2236 4.31033  42 
   1   4   4 28.8679 4.50566  43 
   1   4   4 28.6261 2.71153  80 
  -1   4  -4 28.8356 4.43310  39 
  -2  -4  -4 8.30043 1.87377  46 
   2  -4   4 12.9431 1.95562  70 
   2  -4   4 10.6418 2.11933  46 
  -2  -4  -4 9.77815 1.82052  70 
   2  -4   4 9.75833 2.98059  48 
   2  -4   4 5.80857 1.98628  44 
   2  -4   4 7.50130 1.93600  49 
  -2   4  -4 10.8120 1.65059  35 
   2   4   4 16.6720 4.96539  40 
   2   4   4 9.91393 2.40377  80 
  -2   4  -4 7.85824 1.78820  35 
  -2   4  -4 10.0519 3.26376  39 
   2   4   4 12.3045 3.76487  37 
  -2   4  -4 7.90410 3.27792  36 
  -2   4  -4 7.37848 2.05665  80 
   2   4   4 9.44876 3.17739  43 
  -2   4  -4 10.9887 3.89833  42 
   3  -4   4 403.199 20.0396  46 
  -3  -4  -4 324.900 19.9612  70 
   3  -4   4 388.561 21.1910  44 
   3  -4   4 384.354 20.1907  70 
  -3  -4  -4 422.243 20.6462  48 
   3  -4   4 410.249 20.6831  48 
  -3  -4  -4 389.950 20.0450  46 
  -3  -4  -4 419.242 21.2558  44 
  -3   4  -4 391.232 19.7263  35 
   3   4   4 380.451 20.5329  37 
   3   4   4 397.870 19.5733  35 
   3   4   4 400.752 21.3523  40 
  -3   4  -4 400.766 19.6463  35 
   3   4   4 401.984 21.8496  43 
   3   4   4 386.717 19.5651  35 
  -3   4  -4 416.409 21.3536  42 
  -4  -4  -4 350.383 18.5576  47 
   4  -4   4 327.572 17.7014  46 
   4  -4   4 344.101 19.0805  44 
  -4  -4  -4 341.304 19.1259  44 
   4  -4   4 324.036 18.3958  48 
  -4  -4  -4 346.047 17.8393  46 
  -4   4  -4 366.049 18.8847  42 
  -4   4  -4 342.826 17.4529  35 
   4   4   4 342.994 17.4642  35 
   4   4   4 360.093 17.6332  35 
  -4   4  -4 351.048 17.3258  35 
   4   4   4 337.770 19.3858  43 
   4   4   4 346.042 18.9490  40 
   5  -4   4 32.5528 5.87039  44 
  -5  -4  -4 25.1783 5.52619  44 
  -5   4  -4 30.4733 3.79698   7 
  -5   4  -4 27.8211 5.88924   6 
  -5   4  -4 30.0495 5.18923  25 
   5   4   4 36.9651 4.82911   7 
  -5   4  -4 28.7602 3.58261  31 
  -5   4  -4 37.2704 2.97328  35 
   5   4   4 36.4023 6.21115  40 
  -5   4  -4 32.1567 3.42447  28 
   5   4   4 35.1285 4.19608  28 
   5   4   4 35.8339 3.41451  35 
   5   4   4 36.2984 4.11412  30 
  -5   4  -4 32.4904 4.67738   8 
   5   4   4 33.1037 3.79408  29 
   5   4   4 44.1070 6.33510  43 
  -5   4  -4 36.8859 5.27596  14 
  -5   4  -4 29.1958 3.24253  29 
   5   4   4 38.7999 4.41316  31 
  -5   4  -4 28.2791 3.49256  30 
  -5   4  -4 30.8539 3.12771  35 
   6  -4   4 38.4671 4.74262  27 
   6  -4   4 46.7955 5.55696  41 
  -6  -4  -4 42.0385 4.29402  27 
  -6  -4  -4 42.2274 5.41361  79 
   6   4   4 46.5635 4.30254  30 
  -6   4  -4 44.0269 5.16540  14 
  -6   4  -4 45.3568 3.01389  35 
  -6   4  -4 46.6343 4.69139   8 
  -6   4  -4 46.0644 3.66778  29 
   6   4   4 35.9281 4.22356  28 
   6   4   4 40.3622 5.66149  38 
   6   4   4 36.7702 4.94294   7 
   6   4   4 35.9139 4.19271  29 
   6   4   4 41.9842 6.14320  40 
   6   4   4 41.9616 3.63136  35 
  -6   4  -4 42.1970 3.69068  30 
  -6   4  -4 50.8222 6.13661   6 
  -6   4  -4 40.3196 3.75303  31 
   6   4   4 40.8645 5.89377  43 
   6   4   4 46.6697 4.40076  31 
  -6   4  -4 42.7303 3.83438  28 
  -6   4  -4 45.8009 5.59501  25 
  -6   4  -4 42.8588 4.12131   7 
  -6   4  -4 37.4511 3.00964  35 
  -7  -4  -4 2.50393 1.77617  27 
   7  -4   4 4.50388 2.46798  33 
   7  -4   4 3.56829 2.03757  27 
   7  -4   4 3.75008 3.61171  24 
   7   4   4 6.66829 2.20675  28 
  -7   4  -4 0.01500 3.06539   6 
  -7   4  -4 3.58930 1.90828   7 
   7   4   4 5.40275 2.54383   7 
  -7   4  -4 6.27336 2.37051   8 
  -7   4  -4 1.80009 1.58966  17 
  -7   4  -4 5.24262 1.74548  28 
  -7   4  -4 0.99495 1.52657  30 
   7   4   4 3.41483 2.93604  38 
  -7   4  -4 2.76891 1.40532  31 
   7   4   4 3.31806 1.98415  30 
  -7   4  -4 1.85937 2.05903  14 
  -7   4  -4 5.42229 2.88525  25 
   7   4   4 1.86136 1.04436  35 
   7   4   4 2.40001 2.08344  31 
   7   4   4 5.96482 2.31140  29 
  -7   4  -4 5.34144 1.73821  29 
   7   4   4 6.24546 1.99970  35 
  -8  -4  -4 70.3378 4.49664  27 
   8  -4   4 81.0634 4.71908  27 
   8  -4   4 74.8016 5.99119  24 
  -8   4  -4 68.4885 4.46376   7 
   8   4   4 82.5506 4.65879  28 
  -8   4  -4 67.8951 5.07799   6 
  -8   4  -4 74.7950 5.03627  25 
   8   4   4 61.4571 5.87279  15 
  -8   4  -4 65.8014 4.33370  17 
  -8   4  -4 73.7894 4.83496  14 
   8   4   4 71.6763 4.34510  31 
  -8   4  -4 75.0303 4.29287  29 
   8   4   4 74.1554 4.41439  30 
  -8   4  -4 70.3890 4.02261  30 
  -8   4  -4 73.1591 4.29006  28 
   8   4   4 66.4792 4.96797   7 
  -8  -5   4 21.9881 2.76917  27 
   8   5  -4 21.2436 3.17233  10 
  -8   5   4 17.6115 1.79317  29 
  -8   5   4 18.3055 1.77003  11 
  -8   5   4 18.4913 1.67385  26 
   8   5  -4 15.2962 3.22186  23 
   8   5  -4 17.2157 2.42638  29 
  -8   5   4 17.3900 2.06699  28 
   8   5  -4 15.6712 2.22191  28 
  -7  -5   4 28.1692 3.83932  27 
  -7   5   4 29.0564 2.43940  29 
   7   5  -4 26.4974 4.56751  10 
   7   5  -4 24.7307 3.35675  28 
  -7   5   4 27.5408 2.58524  28 
   7   5  -4 18.2073 4.53243  23 
  -7   5   4 30.9574 2.44640  26 
   7   5  -4 25.9144 2.48012  30 
   7   5  -4 29.5896 3.19596  29 
  -7   5   4 31.4105 2.35909  11 
   6   5  -4 134.262 9.24746  10 
  -6   5   4 152.202 8.93349  25 
   6   5  -4 133.325 7.96586  28 
   6   5  -4 144.005 7.53195  30 
   6   5  -4 130.032 9.31400  23 
  -6   5   4 146.815 7.34962  11 
  -6   5   4 140.005 7.40172  26 
   6   5  -4 138.647 7.97533  29 
  -6   5   4 143.564 7.45770  29 
   6   5  -4 121.684 8.84070  39 
  -5   5   4 117.420 5.94958  11 
   5   5  -4 107.222 6.69415  29 
   5   5  -4 114.992 8.23375  10 
   5   5  -4 114.708 6.25366  30 
   5   5  -4 108.498 6.81665  28 
   5   5  -4 108.707 8.01214  39 
   5   5  -4 114.467 8.60667  23 
  -5   5   4 111.932 6.09194  80 
  -5   5   4 127.943 8.02288  25 
  -5   5   4 93.7673 8.53664   9 
  -5   5   4 101.143 5.68314  80 
  -5   5   4 108.793 6.02189  26 
  -5   5   4 106.172 6.03866  29 
  -4  -5   4 16.6101 4.50475  44 
   4   5  -4 10.4396 3.74312  39 
   4   5  -4 10.0036 3.95111  36 
   4   5  -4 7.83981 2.18785  11 
   4   5  -4 16.3596 3.14391  29 
  -4   5   4 12.2597 2.06420  29 
  -4   5   4 15.4969 2.19157  12 
  -4   5   4 13.8429 1.85246  26 
   4   5  -4 13.4289 2.60350  28 
   4   5  -4 11.3087 6.56915  82 
   4   5  -4 14.0929 4.93209  10 
  -4   5   4 6.85167 2.85937   9 
  -4   5   4 13.7384 1.81758  11 
   4   5  -4 15.6753 2.99832  80 
   4   5  -4 12.7300 4.03931  23 
  -4   5   4 16.6430 4.03495  25 
  -3  -5   4 13.4600 4.37194  44 
   3   5  -4 13.0938 3.87697  39 
   3   5  -4 12.2475 2.61121  80 
   3   5  -4 16.5954 2.89456  29 
   3   5  -4 17.5022 5.66084  36 
   3   5  -4 15.8840 5.62158  23 
   3   5  -4 18.0271 3.91425  28 
  -3   5   4 7.77416 1.50823  11 
  -3   5   4 6.77773 1.68664   9 
  -3   5   4 9.84477 3.89960  25 
   3   5  -4 11.8918 2.27330  11 
  -3   5   4 13.9278 1.93607  12 
   3   5  -4 11.3244 3.54251  10 
  -3   5   4 10.1588 1.59594  26 
   3   5  -4 8.96978 6.69917  82 
  -2  -5   4 231.131 13.8515  46 
   2  -5  -4 231.980 13.0715  46 
   2   5  -4 257.744 14.5415  10 
  -2   5   4 244.909 14.8034  21 
   2   5  -4 262.444 13.0960  80 
   2   5  -4 264.342 14.8026  23 
   2   5  -4 286.689 14.6371  39 
   2   5  -4 249.892 12.9743  11 
  -2   5   4 264.208 13.1393  12 
   2   5  -4 275.387 15.4497  36 
  -2   5   4 253.205 12.6034  11 
   2   5  -4 248.995 13.0489  29 
   2   5  -4 268.695 16.4398  82 
  -2   5   4 259.263 12.8204  12 
  -2   5   4 252.464 12.6672  26 
  -2   5   4 244.695 12.9866   9 
  -1  -5   4 141.600 8.06050  46 
   1  -5  -4 143.333 7.70211  46 
  -1   5   4 150.566 7.84747   9 
   1   5  -4 142.308 10.5624  36 
   1   5  -4 141.178 11.7387  23 
   1   5  -4 154.122 12.4400  82 
  -1   5   4 154.777 10.9184  21 
  -1   5   4 161.432 7.76908  12 
  -1   5   4 157.102 7.70341  12 
  -1   5   4 141.202 7.50587  26 
   1   5  -4 148.239 9.28751  39 
   1   5  -4 142.412 8.13018  29 
   1   5  -4 152.403 9.29427   9 
   1   5  -4 144.652 7.94229  26 
  -1   5   4 147.134 7.46324  11 
  -1   5   4 143.836 9.35249  37 
   1   5  -4 159.484 7.91868  80 
   1   5  -4 144.130 7.90084  11 
   1   5  -4 144.695 9.87628  42 
   0  -5   4 25.7732 2.50593  46 
   0  -5  -4 24.3933 2.18912  46 
   0   5   4 23.9973 1.87030  11 
   0   5  -4 32.2005 7.08016  23 
   0   5   4 27.4864 5.76649  21 
   0   5  -4 25.8705 4.99366  39 
   0   5  -4 23.7804 6.03804  36 
   0   5   4 24.5409 4.92910  37 
   0   5   4 26.9633 2.37676   9 
   0   5  -4 24.9727 2.51449  26 
   0   5  -4 27.2909 3.02838   9 
   0   5  -4 25.9570 2.50551  80 
   0   5  -4 27.9814 5.08378  42 
   0   5  -4 29.5796 7.19512  82 
   0   5  -4 20.3694 2.46611  11 
   0   5   4 24.2206 5.28880  43 
   0   5   4 25.4507 2.22933  12 
   0   5  -4 24.9937 2.74172  29 
   1   5   4 28.5895 4.47234  37 
   1   5   4 26.5218 2.05935  11 
   1   5   4 23.3461 1.92248  80 
  -1   5  -4 31.6392 6.20216  36 
  -1   5  -4 23.0140 3.29941   9 
   1   5   4 27.7760 2.61201   9 
   1   5   4 23.8070 1.88338  80 
  -1   5  -4 25.2447 2.34554  26 
   1   5   4 34.6541 6.78196  21 
  -1   5  -4 21.3178 4.90325  42 
  -1   5  -4 22.4710 4.87163  39 
   1   5   4 21.8100 4.94033  43 
   1   5   4 27.6665 2.57028  12 
  -1   5  -4 31.1782 2.53672  80 
  -1   5  -4 23.3521 2.41915  11 
  -1   5  -4 28.0821 2.59592  29 
  -2   5  -4 127.810 8.30473   8 
  -2   5  -4 125.281 6.67888  29 
   2   5   4 123.370 9.47226  21 
   2   5   4 116.669 7.00684   9 
   2   5   4 114.295 6.70167  29 
  -2   5  -4 126.475 6.66919  80 
   2   5   4 124.894 6.63791  80 
  -2   5  -4 132.618 8.95161  36 
   2   5   4 111.426 6.53028  11 
  -2   5  -4 124.770 8.62544  42 
  -2   5  -4 120.013 6.58186  26 
   2   5   4 116.081 8.91536  43 
  -2   5  -4 119.036 6.50621  11 
   2   5   4 126.536 7.98312  37 
  -3  -5  -4 65.2711 6.56743  44 
   3  -5   4 63.2130 6.45093  44 
  -3   5  -4 69.6269 4.35612  80 
   3   5   4 69.3315 6.56648  40 
  -3   5  -4 71.5663 6.13798   8 
  -3   5  -4 68.4379 4.07874  11 
  -3   5  -4 70.9436 4.19222  26 
   3   5   4 66.3401 4.30105  11 
   3   5   4 67.6056 5.89044  37 
   3   5   4 66.1133 4.43567  29 
  -3   5  -4 65.4151 6.12671  42 
   3   5   4 67.1069 7.27556  43 
  -3   5  -4 67.8299 4.30353  29 
   3   5   4 71.5442 4.54649  80 
  -4   5  -4 80.4950 7.58937  25 
  -4   5  -4 78.5292 4.89434  80 
   4   5   4 75.2956 7.58620  43 
   4   5   4 85.9136 5.19832  29 
  -4   5  -4 79.1925 6.38645   8 
  -4   5  -4 77.5299 4.68673  11 
   4   5   4 83.9781 7.27256  40 
  -4   5  -4 85.8229 4.88424  29 
   4   5   4 82.2189 5.01216  11 
   4   5   4 75.0398 5.17810  28 
  -4   5  -4 82.2326 4.85239  28 
   4   5   4 80.1535 5.18583  80 
   5   5   4 117.709 7.16421  28 
  -5   5  -4 119.786 6.74514  11 
  -5   5  -4 129.203 7.88098   8 
  -5   5  -4 124.972 8.06764  25 
  -5   5  -4 124.388 6.93599  28 
   5   5   4 135.894 7.20964  29 
  -5   5  -4 138.089 6.92330  29 
  -6  -5  -4 37.5565 3.49748  27 
  -6   5  -4 33.4430 2.75852  29 
  -6   5  -4 34.9163 3.79837  25 
  -6   5  -4 37.5703 2.79643  28 
   6   5   4 34.8083 3.21727  29 
   6   5   4 38.8596 3.22254  28 
  -6   5  -4 30.0477 3.84156   8 
  -6   5  -4 27.2135 4.30214   6 
   6   6  -4 52.3132 3.26778  29 
   6   6  -4 54.7775 4.32490  10 
  -6   6   4 58.8688 3.30749   9 
   6   6  -4 57.4932 3.18100  11 
   6   6  -4 52.2338 4.28589  23 
   5   6  -4 37.4153 4.62857  23 
  -5   6   4 39.9355 2.86066   9 
   5   6  -4 38.9642 2.92998  29 
   5   6  -4 44.7294 4.77138  10 
   5   6  -4 44.7379 2.79561  11 
   4   6  -4 -0.9286 1.33215  11 
   4   6  -4 4.59327 3.13237  23 
   4   6  -4 0.99413 1.18259  26 
   4   6  -4 -1.8848 2.69236  36 
   4   6  -4 0.45555 2.82244  10 
   4   6  -4 0.92478 1.30118  29 
  -4   6   4 -0.1927 1.01025   9 
   3   6  -4 85.3768 4.85328  12 
   3   6  -4 81.8767 5.50643   9 
   3   6  -4 71.0555 7.01923  36 
   3   6  -4 73.4656 6.58332  39 
   3   6  -4 86.0720 4.69394  29 
   3   6  -4 63.7187 9.42930  82 
  -3   6   4 85.2487 4.55138   9 
   3   6  -4 83.4372 4.62425  26 
   3   6  -4 87.3295 4.51139  11 
  -3   6   4 80.8309 4.46294   9 
   3   6  -4 87.2876 6.85241  10 
   3   6  -4 86.0973 7.04786  23 
   2   6  -4 80.0024 4.89442   9 
   2   6  -4 77.3698 4.23281  26 
   2   6  -4 64.7185 8.46494  82 
   2   6  -4 81.0189 4.71695  29 
   2   6  -4 78.8931 6.74635  23 
   2   6  -4 78.2703 7.17567  36 
   2   6  -4 77.8830 6.57005  10 
   2   6  -4 66.9699 6.33679  39 
   2   6  -4 75.5286 4.43462  12 
   2   6  -4 75.3226 4.09864  11 
   1   6  -4 16.1490 1.85989  12 
   1   6  -4 16.2909 1.33936  11 
   1   6  -4 9.59966 5.92950  82 
   1   6  -4 6.25941 3.05506  36 
   1   6  -4 15.8757 3.81515  23 
   1   6  -4 14.2996 2.36610   9 
   1   6  -4 16.4864 4.67759  39 
   1   6  -4 14.7384 1.54979  26 
   0   6  -4 139.995 11.3544  82 
   0   6   4 180.576 8.57319   9 
   0   6  -4 173.426 10.7558  36 
   0   6  -4 167.307 8.87914   9 
   0   6  -4 168.449 8.56662  12 
   0   6  -4 164.720 8.40795  26 
   0   6   4 156.256 10.8832  21 
   0   6  -4 177.362 10.1619  39 
   1   6   4 19.0053 5.63140  21 
  -1   6  -4 21.3331 2.26756   9 
  -1   6  -4 20.3718 1.56110  26 
  -1   6  -4 21.0799 1.84771  12 
   2   6   4 6.78437 1.38450  12 
  -2   6  -4 3.67859 2.59320   8 
   2   6   4 5.14430 1.55021   9 
  -2   6  -4 6.22803 1.86191   9 
  -2   6  -4 6.56660 1.36398  12 
   2   6   4 5.71851 1.41879  12 
  -2   6  -4 7.10250 1.19376  26 
   3   6   4 5.07092 1.62488  12 
  -3   6  -4 4.64676 1.34494  12 
  -3   6  -4 5.26981 1.90936   9 
  -3   6  -4 5.72062 1.06284  26 
  -3   6  -4 6.70324 2.46292   8 
   3   6   4 5.92376 2.26922   9 
   3   6   4 5.91449 1.69104  12 
  -4   6  -4 15.3279 1.91601   9 
  -4   6  -4 15.1719 1.57027  12 
  -4   6  -4 13.8269 1.19037  26 
   4   6   4 12.9934 1.74147  12 
  -4   6  -4 10.8658 3.13411   8 
   4   6   4 17.8319 2.26323   9 
  11   0  -5 26.4218 3.43499  19 
  11   0  -5 24.6820 3.88080  10 
 -11   0   5 32.9495 3.94976  13 
  11   0  -5 26.8699 4.53582  20 
 -11   0   5 32.6852 4.38781   4 
 -11   0   5 29.8259 4.23590   2 
  11   0  -5 31.9454 3.86326  18 
 -11   0   5 32.7421 3.84745  16 
 -10   0   5 31.1634 5.06594   4 
  10   0  -5 28.2763 6.09855  20 
 -10   0   5 33.6904 5.29289   2 
  10   0  -5 31.5338 6.64350  41 
  10   0  -5 36.2733 4.92647  10 
  10   0  -5 37.3352 4.90021  19 
  10   0  -5 35.9588 5.09192  18 
 -10   0   5 33.0347 5.47105  13 
  -9   0   5 35.2482 5.67770   2 
  -9   0   5 30.2074 4.67099  18 
  -9   0   5 34.9179 4.23569  81 
  -9   0   5 27.8660 5.30313   4 
   9   0  -5 39.4351 5.69530  78 
   9   0  -5 40.9001 6.37807  81 
  -9   0   5 23.8242 6.39859  20 
   9   0  -5 22.4175 8.66531  76 
  -9   0   5 30.3006 5.64728  13 
   9   0  -5 32.4557 6.35952  20 
   9   0  -5 37.9347 5.73803  19 
   9   0  -5 38.9664 5.69566  41 
   9   0  -5 26.5995 5.39668  18 
  -9   0   5 43.2649 6.87130  83 
  -9   0   5 23.5755 4.72504  15 
  -9   0   5 27.3848 5.54446   5 
   8   0  -5 1474.05 74.1992  41 
  -8   0   5 1574.65 74.0951  81 
   8   0  -5 1511.31 74.4330  45 
   8   0  -5 1480.18 83.4027  72 
   8   0  -5 1369.62 74.2031  78 
  -8   0   5 1628.87 75.0959  83 
  -8   0   5 1375.41 74.4788  74 
  -8   0   5 1514.73 74.6688  76 
   8   0  -5 1550.15 77.8615  76 
   8   0  -5 1552.21 74.2449  33 
  -8   0   5 1431.41 74.2111  78 
   7   0  -5 133.848 9.82733  79 
  -7   0   5 133.409 8.95490  78 
  -7   0   5 131.268 9.27837  81 
  -7   0   5 143.079 9.00912  47 
  -7   0   5 132.196 9.15878  74 
   7   0  -5 134.652 9.24066  78 
   7   0  -5 139.839 8.55502  71 
   7   0  -5 140.691 9.05576  45 
   7   0  -5 149.023 9.17479  41 
   7   0  -5 154.227 18.4469  72 
   7   0  -5 137.169 8.83907  75 
  -7   0   5 142.576 11.8990  76 
  -7   0   5 132.024 9.89104  83 
  -6   0   5 488.982 24.9923  78 
   6   0  -5 489.518 24.7759  75 
   6   0  -5 493.153 24.5987  71 
   6   0  -5 496.423 24.9010  45 
   6   0  -5 511.850 33.6548  72 
  -6   0   5 494.447 24.9309  47 
  -6   0   5 463.955 27.0764  76 
  -6   0   5 498.821 25.2114  81 
   6   0  -5 489.356 24.8746  41 
  -6   0   5 411.977 26.6364  83 
  -6   0   5 480.565 25.0843  74 
   6   0  -5 484.734 25.3751  79 
   6   0  -5 474.270 24.9056  78 
   5   0  -5 455.606 24.8975  67 
   5   0  -5 436.346 21.8074  45 
  -5   0   5 392.039 24.0760  76 
   5   0  -5 408.840 28.6411  72 
   5   0  -5 439.261 21.5922  71 
   5   0  -5 418.607 21.8351  78 
   5   0  -5 414.921 21.7337  75 
  -5   0   5 407.594 21.9614  78 
   5   0  -5 436.576 23.3658  55 
  -5   0   5 436.597 21.9490  74 
  -5   0   5 434.099 24.9156  67 
  -5   0   5 429.407 21.8075  47 
   4   0  -5 10.4498 3.79884  48 
   4   0  -5 6.22127 2.09629  45 
  -4   0   5 12.8060 2.58716  47 
   4   0  -5 4.91554 3.31230  55 
  -4   0   5 8.03931 2.39913  74 
  -4   0   5 3.93636 3.67316  62 
  -4   0   5 11.8069 4.68355  67 
  -4   0   5 7.98245 1.73883  45 
   4   0  -5 9.36010 4.91797  67 
  -4   0   5 10.1511 2.23482  71 
  -4   0   5 9.91326 2.11709  53 
   4   0  -5 6.34160 1.95489  71 
   3   0  -5 937.055 49.7237  45 
  -3   0   5 955.844 51.8389  67 
   3   0  -5 1023.20 49.9054  63 
   3   0  -5 934.581 49.5774  71 
   3   0  -5 1049.29 50.4491  48 
  -3   0   5 971.989 49.7531  47 
  -3   0   5 1075.64 49.8688  53 
   3   0  -5 1028.37 56.5755  58 
   3   0  -5 1012.88 50.8129  65 
   3   0  -5 1097.38 50.8584  55 
  -3   0   5 1008.39 52.4349  58 
   3   0  -5 1012.74 50.7600  57 
   3   0  -5 1042.05 51.9375  67 
  -2   0   5 19.0002 3.64548  57 
  -2   0   5 23.1107 2.32166  63 
  -2   0   5 24.0070 4.51213  58 
  -2   0   5 24.0418 4.00100  68 
  -2   0   5 27.2827 2.40459  53 
   2   0  -5 24.2307 3.87185  55 
  -2   0   5 25.4943 4.99045  67 
   2   0  -5 25.1565 3.46707  65 
   2   0  -5 25.1780 2.50428  63 
   2   0  -5 22.6358 4.64048  67 
  -2   0   5 24.7466 2.71794  51 
   2   0  -5 24.5196 5.32950  58 
   2   0  -5 23.8442 3.41802  57 
   1   0  -5 1417.10 70.5853  65 
  -1   0   5 1407.24 69.7205  53 
  -1   0   5 1497.29 71.7623  67 
   1   0  -5 1315.33 71.2311  67 
  -1   0   5 1453.67 71.9487  58 
  -1   0   5 1468.49 70.3043  55 
   1   0  -5 1436.55 70.4663  55 
   1   0  -5 1475.73 72.3887  58 
  -1   0   5 1405.15 70.7952  68 
   1   0  -5 1255.45 69.7416  63 
   1   0  -5 1483.80 70.4752  57 
  -1   0   5 1444.03 69.8761  63 
  -1   0   5 1419.94 70.6561  65 
  -1   0   5 1464.56 69.9060  51 
   0   0   5 10.8219 1.88687  63 
   0   0  -5 11.4869 3.16039  65 
   0   0  -5 10.7255 2.61455  57 
   0   0  -5 12.5301 4.17501  67 
   0   0  -5 11.9091 2.16072  63 
   0   0   5 9.01409 2.76069  65 
   0   0   5 12.1621 2.67814  55 
   0   0   5 13.9335 2.53572  57 
   0   0  -5 10.7066 3.00293  55 
   0   0   5 11.4691 3.33624  68 
   0   0   5 12.1924 4.28026  58 
   0   0  -5 10.3447 4.34926  58 
   0   0   5 10.2004 1.84003  53 
   0   0   5 8.44417 4.14256  67 
   0   0   5 9.63011 1.97153  51 
   1   0   5 156.180 9.97655  55 
   1   0   5 175.553 9.35631  53 
  -1   0  -5 190.468 9.17117  71 
   1   0   5 147.685 11.7282  58 
  -1   0  -5 182.939 10.4742  65 
   1   0   5 176.180 10.0589  57 
  -1   0  -5 171.561 9.15251  45 
  -1   0  -5 185.824 11.7041  67 
   1   0   5 157.374 11.3579  67 
  -1   0  -5 206.124 10.2729  57 
  -1   0  -5 185.636 9.48395  63 
  -1   0  -5 161.631 10.1143  55 
  -1   0  -5 170.141 11.7544  58 
   2   0   5 4.78553 2.75703  55 
  -2   0  -5 3.84706 1.50608  71 
  -2   0  -5 5.18342 3.10928  67 
  -2   0  -5 7.24582 2.17752  63 
   2   0   5 3.55924 3.16282  67 
  -2   0  -5 7.98938 2.68237  55 
   2   0   5 3.83001 1.83295  71 
   2   0   5 4.27973 1.55199  45 
  -2   0  -5 3.57304 1.24881  45 
  -3   0  -5 64.0336 7.33711  67 
   3   0   5 59.5186 4.69123  75 
   3   0   5 72.0070 4.41335  45 
  -3   0  -5 57.4342 4.36627  75 
  -3   0  -5 65.1046 4.34555  71 
   3   0   5 47.4876 6.93169  67 
   3   0   5 58.9353 5.79937  55 
   3   0   5 59.3675 4.37734  71 
  -3   0  -5 64.7916 4.12873  45 
  -4   0  -5 4.35325 1.87267  71 
   4   0   5 2.88266 2.06940  71 
  -4   0  -5 3.73581 2.10156  75 
  -4   0  -5 3.97967 3.15817  67 
   4   0   5 7.73884 3.24399  78 
   4   0   5 0.78455 2.93032  67 
  -4   0  -5 3.50628 2.69294  78 
   4   0   5 2.71998 2.08208  45 
  -4   0  -5 5.22770 1.71109  45 
   4   0   5 6.20782 2.47257  75 
   5   0   5 20.1220 5.38031  78 
   5   0   5 12.1096 4.02207  38 
  -5   0  -5 5.58631 3.04916  78 
   5   0   5 15.0284 3.86445  45 
  -5   0  -5 8.55273 3.06225  45 
  -5   0  -5 13.4801 8.07413  76 
   6   0   5 60.3364 10.4895  76 
   6   0   5 61.0803 5.91474  34 
  -6   0  -5 59.4778 7.38800  83 
  -6   0  -5 70.2541 9.63406  76 
   6   0   5 86.7732 7.60942  78 
   6   0   5 67.7400 5.79275  40 
   6   0   5 77.8253 8.71478  81 
   6   0   5 68.3304 6.20117  38 
  -6   0  -5 73.1732 6.21012  78 
  -7   0  -5 100.407 7.23623  78 
  -7   0  -5 80.9072 6.29019  18 
   7   0   5 88.9089 6.80315  40 
   7   0   5 91.1271 6.83285  19 
   7   0   5 93.2268 8.06732  81 
  -7   0  -5 93.5188 8.61136  83 
   7   0   5 80.9595 6.62912  38 
  -7   0  -5 82.8944 8.64112  76 
   7   0   5 90.5939 6.63371  18 
   7   0   5 87.5785 7.63335  20 
   7   0   5 84.7331 7.83408  78 
  -7   0  -5 83.7738 6.12815  19 
  -7   0  -5 85.8966 6.87136  20 
  -7   0  -5 76.4422 7.08300   5 
   7   0   5 58.2184 18.5844  72 
  -8   0  -5 9.47663 2.63672  20 
   8   0   5 6.62359 2.68568  81 
  -8   0  -5 5.64342 2.41188  18 
   8   0   5 4.14965 2.58166  19 
  -8   0  -5 8.04953 4.71694  83 
   8   0   5 10.8712 3.89043  78 
  -8   0  -5 8.84213 2.92320   4 
   8   0   5 6.03835 2.92699  18 
  -8   0  -5 10.0813 2.84585   5 
  -8   0  -5 9.28256 4.67154  13 
  -8   0  -5 7.50397 2.22589  19 
   8   0   5 5.17077 3.34737  20 
  -8   0  -5 14.8901 4.24735  78 
  -9   0  -5 137.750 8.27284   5 
   9   0   5 114.042 9.07240  19 
  -9   0  -5 128.924 7.86358   4 
   9   0   5 130.763 7.75944  18 
  -9   0  -5 151.478 8.34510   2 
   9   0   5 132.175 9.52779  13 
  -9   0  -5 143.166 8.16375  13 
   9   0   5 129.468 8.22120  20 
 -11  -1   5 37.7881 4.07193  20 
  11  -1  -5 40.3899 4.93382  20 
 -11  -1   5 60.4566 4.71739  13 
  11  -1  -5 61.6138 4.58309  18 
  11  -1  -5 44.3063 4.16107  19 
 -11   1   5 46.1935 3.79907  13 
  11   1  -5 42.1746 4.31583  10 
 -11   1   5 55.8784 4.21951  14 
 -11   1   5 50.9859 4.28008   4 
 -11   1   5 48.8994 4.14168  31 
 -11   1   5 47.5848 4.49222   7 
 -11   1   5 47.3269 3.98525   3 
  11   1  -5 55.8985 4.91418  13 
 -11   1   5 48.0813 4.36996   2 
 -11   1   5 48.2299 3.26683  22 
 -11   1   5 46.1212 3.89252   1 
  11   1  -5 49.5812 4.83936   4 
 -11   1   5 43.4902 3.98743   5 
 -11   1   5 50.6728 3.48317  16 
 -10  -1   5 24.1729 4.13404  18 
 -10  -1   5 18.4800 4.88641  20 
  10  -1  -5 20.8313 5.15560  33 
  10  -1  -5 23.9110 5.03259  18 
  10  -1  -5 15.4482 6.96059  24 
  10  -1  -5 21.1290 5.58016  20 
 -10  -1   5 19.4968 3.97777  19 
  10  -1  -5 10.4359 3.14468  19 
 -10   1   5 19.7056 4.73461  15 
 -10   1   5 18.9076 4.67295   7 
 -10   1   5 26.7758 4.33256  13 
 -10   1   5 23.4028 3.96106   3 
 -10   1   5 25.4668 4.45459  14 
 -10   1   5 21.6699 5.34349  83 
 -10   1   5 29.5127 4.60283   4 
  10   1  -5 23.3389 5.07900  13 
 -10   1   5 24.2439 5.86737  31 
  10   1  -5 18.1793 4.59115  10 
 -10   1   5 16.4872 4.71431   2 
 -10   1   5 27.1212 4.74106   5 
  10   1  -5 18.9372 4.91410   4 
 -10   1   5 27.1193 3.84265  16 
   9  -1  -5 438.347 24.1079  24 
  -9  -1   5 449.195 25.6977  76 
  -9  -1   5 455.980 23.1215  18 
  -9  -1   5 442.938 23.5598  20 
   9  -1  -5 456.995 23.8191  33 
  -9  -1   5 453.145 23.0511  19 
   9  -1  -5 439.986 23.7723  20 
   9  -1  -5 490.454 24.6306  79 
   9  -1  -5 448.638 23.3535  18 
   9  -1  -5 390.704 23.2104  19 
   9  -1  -5 420.218 23.5455  75 
   9  -1  -5 481.051 23.7821  41 
  -9  -1   5 459.696 23.8640  81 
   9  -1  -5 434.060 23.0498  27 
   9   1  -5 446.933 22.8219  81 
  -9   1   5 425.879 23.3457   2 
  -9   1   5 446.477 23.2574  14 
  -9   1   5 451.513 24.1964  83 
   9   1  -5 461.935 23.6144  78 
  -9   1   5 455.300 23.1649  13 
   9   1  -5 446.977 22.9550  19 
   9   1  -5 467.526 23.8235  41 
   9   1  -5 415.473 23.2593   4 
  -9   1   5 417.142 23.1886  16 
  -9   1   5 482.145 24.2506  15 
   9   1  -5 466.968 23.7592  20 
  -9   1   5 457.482 23.1746   4 
  -9   1   5 431.876 23.3437   5 
  -9   1   5 460.100 23.3480   7 
   9   1  -5 430.592 23.5064  13 
   9   1  -5 463.771 23.1265  18 
  -9   1   5 402.307 25.0265   3 
   9   1  -5 489.854 23.6145  10 
  -8  -1   5 21.4496 9.90533  76 
   8  -1  -5 19.4145 5.57030  41 
   8  -1  -5 26.3001 4.20866  45 
   8  -1  -5 25.1065 4.91356  75 
  -8  -1   5 21.2227 5.45538  78 
   8  -1  -5 18.1741 4.13519  71 
   8  -1  -5 19.1572 6.01418  79 
   8  -1  -5 22.8587 6.35690  33 
  -8  -1   5 16.7199 3.99063  47 
  -8  -1   5 13.4504 3.26067  45 
  -8   1   5 23.6846 4.53053  74 
  -8   1   5 21.8111 4.27687  47 
   8   1  -5 30.5534 5.92314  83 
  -8   1   5 21.5250 6.19235  83 
   8   1  -5 23.7166 5.28590  78 
   8   1  -5 8.59321 4.07776  41 
   8   1  -5 22.9685 5.06175  81 
   8   1  -5 18.8491 6.66854  73 
  -7  -1   5 4.14773 2.39260  71 
  -7  -1   5 4.63664 2.72316  75 
  -7  -1   5 3.11897 3.55124  78 
  -7  -1   5 5.72196 3.09248  74 
  -7  -1   5 3.14751 2.53609  45 
   7  -1  -5 15.4000 4.35309  41 
   7  -1  -5 1.93243 2.58098  71 
   7  -1  -5 1.09271 2.39739  45 
   7  -1  -5 4.39595 3.04613  75 
  -7  -1   5 12.2708 4.19179  47 
   7  -1  -5 9.91338 4.03179  48 
   7  -1  -5 6.53302 3.66943  79 
  -7   1   5 10.5372 4.69280  83 
  -7   1   5 -0.9716 3.15894  74 
   7   1  -5 4.14641 3.58393  78 
   7   1  -5 5.68745 3.91805  83 
   7   1  -5 4.55915 2.69944  81 
  -7   1   5 5.91259 3.73124  47 
   7   1  -5 5.62895 3.76928  41 
   7   1  -5 2.41960 2.32380  76 
  -6  -1   5 163.962 9.24944  47 
  -6  -1   5 149.670 9.21379  74 
   6  -1  -5 146.061 9.01342  75 
  -6  -1   5 158.960 9.24147  75 
  -6  -1   5 166.370 9.11667  45 
   6  -1  -5 149.337 9.37814  41 
   6  -1  -5 148.595 9.78775  79 
   6  -1  -5 154.573 9.29770  45 
  -6  -1   5 153.735 9.66811  78 
  -6  -1   5 153.183 8.89711  71 
   6  -1  -5 176.981 10.9745  44 
   6  -1  -5 165.084 9.03895  71 
   6  -1  -5 147.348 9.98423  48 
  -6   1   5 161.703 9.13708  78 
   6   1  -5 154.365 15.2733  72 
  -6   1   5 152.076 9.67379  74 
   6   1  -5 167.976 10.1081  83 
  -6   1   5 146.810 9.17421  47 
   6   1  -5 155.764 9.72396  81 
  -6   1   5 154.733 9.84138  83 
   6   1  -5 160.998 11.9727  76 
   6   1  -5 156.952 9.38389  78 
   6   1  -5 155.833 9.46087  41 
  -6   1   5 136.476 9.83949  51 
  -6   1   5 144.848 8.16213  81 
  -6   1   5 150.623 9.48819  77 
   5  -1  -5 94.0989 8.33230  67 
  -5  -1   5 102.742 5.76091  45 
   5  -1  -5 93.1322 5.96121  75 
   5  -1  -5 92.3469 6.73772  79 
  -5  -1   5 89.9550 6.10343  75 
   5  -1  -5 80.6676 7.04446  44 
  -5  -1   5 88.9178 5.82714  74 
   5  -1  -5 92.1791 5.79046  45 
  -5  -1   5 92.6828 16.4497  72 
   5  -1  -5 83.4165 5.45028  71 
  -5  -1   5 83.0833 8.54504  67 
  -5  -1   5 87.9734 5.72856  71 
  -5  -1   5 88.0432 6.27146  78 
  -5  -1   5 83.0318 5.55967  47 
   5  -1  -5 82.1687 6.59606  48 
  -5   1   5 92.9457 6.00555  77 
   5   1  -5 80.4087 6.16205  53 
   5   1  -5 86.6279 8.65731  67 
   5   1  -5 85.8748 8.58729  76 
  -5   1   5 83.6098 5.72349  51 
  -5   1   5 82.6299 5.94383  74 
   5   1  -5 94.9950 6.17796  78 
  -5   1   5 84.4113 5.74097  81 
   5   1  -5 84.4357 11.4014  72 
  -5   1   5 80.1705 5.95120  78 
  -5   1   5 85.5125 5.17088  53 
  -5   1   5 92.7569 5.91107  47 
  -4  -1   5 300.966 19.0026  67 
   4  -1  -5 348.119 17.7097  65 
  -4  -1   5 297.862 16.0580  47 
   4  -1  -5 280.078 16.8321  44 
   4  -1  -5 282.849 18.3332  67 
  -4  -1   5 306.119 16.2411  75 
  -4  -1   5 306.009 16.0635  71 
   4  -1  -5 331.314 16.1893  45 
  -4  -1   5 303.405 16.2727  74 
  -4  -1   5 312.653 17.5888  65 
   4  -1  -5 309.607 16.6306  48 
  -4  -1   5 320.398 16.1136  45 
   4  -1  -5 305.727 16.1163  75 
  -4  -1   5 319.052 16.5962  48 
   4  -1  -5 313.466 15.9716  71 
  -4   1   5 313.153 15.8441  53 
   4   1  -5 327.877 17.4119  55 
  -4   1   5 309.477 16.3532  74 
   4   1  -5 300.874 20.8028  72 
   4   1  -5 334.917 18.6859  67 
  -4   1   5 319.578 16.3845  47 
  -4   1   5 357.436 16.3630  51 
   4   1  -5 312.615 16.3083  53 
   3  -1  -5 320.897 16.6356  45 
  -3  -1   5 316.629 16.6057  71 
  -3  -1   5 330.658 17.0611  48 
  -3  -1   5 352.756 16.5912  49 
   3  -1  -5 316.660 16.4246  46 
   3  -1  -5 313.175 16.9985  48 
   3  -1  -5 306.701 16.4673  71 
  -3  -1   5 335.344 16.8722  63 
   3  -1  -5 310.402 16.6832  63 
   3  -1  -5 352.031 18.9693  67 
  -3  -1   5 332.750 19.5044  67 
   3  -1  -5 295.714 17.5252  65 
  -3  -1   5 321.790 17.9284  65 
  -3  -1   5 354.392 16.6705  45 
  -3  -1   5 316.629 16.7752  74 
   3   1  -5 336.079 17.6486  55 
   3   1  -5 328.291 16.9559  51 
  -3   1   5 306.427 16.7456  47 
  -3   1   5 335.631 18.1144  68 
  -3   1   5 321.060 16.9454  55 
   3   1  -5 323.502 16.7357  53 
  -3   1   5 334.419 16.3953  53 
  -3   1   5 314.035 16.6792  51 
   3   1  -5 369.059 19.0590  67 
  -3   1   5 337.830 17.0186  54 
   3   1  -5 308.743 20.7562  72 
   2  -1  -5 189.425 9.60716  70 
   2  -1  -5 180.737 10.1441  69 
   2  -1  -5 196.128 9.83729  45 
   2  -1  -5 178.705 9.63482  71 
  -2  -1   5 179.856 9.80540  45 
  -2  -1   5 181.836 10.8931  65 
   2  -1  -5 171.725 10.0984  48 
  -2  -1   5 171.749 9.89440  63 
   2  -1  -5 159.197 14.9008  58 
  -2  -1   5 190.173 12.4343  67 
  -2  -1   5 218.990 15.2129  58 
   2  -1  -5 192.417 9.92475  46 
   2  -1  -5 189.658 11.7330  67 
   2  -1  -5 199.383 10.8831  65 
  -2  -1   5 180.914 10.1472  48 
   2  -1  -5 152.355 11.6208  57 
  -2  -1   5 181.621 9.68361  49 
   2  -1  -5 191.587 9.86285  63 
  -2  -1   5 196.077 10.7437  57 
   2   1  -5 167.911 11.5205  67 
  -2   1   5 197.838 9.82625  51 
   2   1  -5 198.219 10.1261  51 
  -2   1   5 190.929 11.0761  68 
   2   1  -5 186.363 9.87457  53 
  -2   1   5 180.580 10.0274  55 
  -2   1   5 201.682 9.53759  53 
   2   1  -5 185.016 10.6979  55 
   1  -1  -5 109.373 6.46186  45 
   1  -1  -5 125.155 6.67637  63 
   1  -1  -5 117.262 6.33237  70 
  -1  -1   5 119.651 9.03832  58 
   1  -1  -5 116.503 7.49807  65 
  -1  -1   5 129.336 7.22857  48 
   1  -1  -5 108.669 6.42620  71 
   1  -1  -5 119.409 6.87549  69 
   1  -1  -5 125.335 8.59893  67 
  -1  -1   5 121.488 9.05099  67 
   1  -1  -5 113.069 9.30583  58 
   1  -1  -5 110.291 6.91589  48 
  -1  -1   5 120.500 6.50001  45 
  -1  -1   5 113.965 7.63944  65 
  -1  -1   5 120.269 6.72287  63 
  -1  -1   5 112.253 7.34260  57 
   1  -1  -5 119.624 7.40647  57 
  -1  -1   5 118.994 6.46581  49 
  -1   1   5 123.459 7.86690  68 
   1   1  -5 128.042 6.61563  53 
  -1   1   5 99.2460 9.40447  67 
  -1   1   5 117.221 7.35671  60 
  -1   1   5 110.366 6.44304  51 
   1   1  -5 119.028 7.27946  55 
  -1   1   5 108.106 11.1635  66 
   1   1  -5 118.577 6.78346  51 
  -1   1   5 115.670 6.81349  55 
  -1   1   5 139.227 6.33727  53 
   1   1  -5 130.034 8.61024  67 
   0  -1   5 448.590 22.3418  63 
   0  -1  -5 399.661 23.8100  67 
   0  -1   5 421.720 22.0010  45 
   0  -1   5 461.453 22.9827  57 
   0  -1  -5 475.768 22.2222  63 
   0  -1  -5 384.127 22.3178  69 
   0  -1  -5 440.911 22.0212  45 
   0  -1   5 412.199 22.0473  71 
   0  -1  -5 444.281 21.9344  70 
   0  -1   5 452.809 22.9324  55 
   0  -1   5 473.440 23.3537  65 
   0  -1  -5 475.433 23.0718  65 
   0  -1   5 419.601 22.3233  48 
   0  -1   5 447.151 24.3715  67 
   0  -1   5 467.535 24.8715  58 
   0  -1  -5 429.384 22.8364  57 
   0  -1  -5 450.982 24.7541  58 
   0  -1   5 406.509 21.9356  49 
   0  -1  -5 414.797 22.2393  48 
   0  -1  -5 442.538 21.9860  71 
   0   1   5 455.845 21.9206  53 
   0   1  -5 441.985 22.2898  51 
   0   1   5 486.095 22.5358  55 
   0   1  -5 464.466 23.0973  52 
   0   1   5 418.112 22.8846  60 
   0   1  -5 449.113 23.8105  67 
   0   1   5 438.341 23.7756  67 
   0   1   5 481.820 22.1317  51 
   0   1   5 388.131 23.1476  68 
   0   1  -5 447.554 22.1184  53 
   0   1  -5 474.484 22.8265  55 
   1  -1   5 174.521 10.9917  65 
  -1  -1  -5 175.422 9.70752  63 
   1  -1   5 173.535 9.47867  49 
   1  -1   5 182.146 9.94674  48 
  -1  -1  -5 190.095 10.8275  65 
   1  -1   5 184.533 10.5374  55 
  -1  -1  -5 187.989 9.84113  48 
  -1  -1  -5 155.988 9.39274  45 
   1  -1   5 169.497 9.59228  71 
   1  -1   5 191.881 12.3898  67 
  -1  -1  -5 188.064 11.9307  67 
  -1  -1  -5 172.036 9.47101  71 
   1  -1   5 167.092 9.48335  45 
  -1   1  -5 166.728 10.4717  52 
   1   1   5 202.279 10.2999  55 
   1   1   5 173.673 11.5215  67 
  -1   1  -5 199.763 10.3747  55 
   1   1   5 180.737 9.42696  53 
   1   1   5 186.930 9.69202  51 
  -1   1  -5 184.023 11.6838  67 
  -1   1  -5 201.106 9.69534  53 
   1   1   5 188.893 11.1859  68 
  -1   1  -5 184.048 9.88768  51 
  -2  -1  -5 1048.02 53.8731  45 
  -2  -1  -5 969.093 55.2985  55 
   2  -1   5 1122.44 53.8596  49 
   2  -1   5 1019.64 53.8699  45 
  -2  -1  -5 1113.12 55.2975  65 
   2  -1   5 1042.51 53.9432  71 
   2  -1   5 1027.09 54.0773  75 
   2  -1   5 1123.37 56.9992  67 
   2  -1   5 1139.34 55.6248  65 
   2  -1   5 948.075 54.8575  55 
  -2  -1  -5 1178.99 56.8113  67 
   2  -1   5 1109.40 54.2770  48 
  -2  -1  -5 1126.87 54.0930  75 
  -2  -1  -5 1057.66 54.2049  48 
  -2  -1  -5 1112.20 53.9270  71 
  -2   1  -5 1160.48 54.0404  53 
  -2   1  -5 1161.17 54.3021  51 
   2   1   5 1203.72 54.5223  54 
   2   1   5 1107.04 53.8880  53 
   2   1   5 1042.26 54.4342  73 
   2   1   5 1103.53 56.6140  72 
   2   1   5 1046.06 55.5576  68 
   2   1   5 1182.31 54.6980  55 
   2   1   5 1177.13 54.1909  51 
   3  -1   5 239.322 15.7805  67 
   3  -1   5 222.540 13.0687  44 
  -3  -1  -5 233.862 15.3810  67 
   3  -1   5 246.151 12.2812  71 
   3  -1   5 228.989 12.5378  75 
  -3  -1  -5 218.396 12.1100  71 
   3  -1   5 232.930 12.1469  45 
   3  -1   5 218.081 12.0562  49 
  -3  -1  -5 239.925 12.5577  48 
  -3  -1  -5 232.672 12.0740  45 
   3  -1   5 217.392 13.9754  65 
  -3  -1  -5 224.132 12.8891  44 
  -3  -1  -5 228.167 12.3298  75 
   3  -1   5 239.266 12.7408  48 
   3  -1   5 207.398 13.4042  55 
  -3  -1  -5 249.814 13.9962  65 
  -3   1  -5 208.212 12.0576  53 
   3   1   5 237.083 12.4662  51 
   3   1   5 210.476 13.0765  73 
   3   1   5 222.557 12.5403  78 
  -3   1  -5 224.895 12.2685  78 
  -3   1  -5 245.923 12.5135  51 
   3   1   5 241.256 13.1573  55 
   3   1   5 233.524 16.0392  72 
   3   1   5 233.454 12.1004  53 
  -3   1  -5 223.588 14.0054  76 
   3   1   5 257.661 14.0363  76 
  -4  -1  -5 73.3413 4.96009  47 
  -4  -1  -5 71.9263 6.30663  79 
  -4  -1  -5 80.1696 5.00673  45 
  -4  -1  -5 70.9910 5.44143  75 
   4  -1   5 67.6427 5.37515  71 
   4  -1   5 71.3827 5.75649  75 
  -4  -1  -5 75.9340 5.07445  71 
  -4  -1  -5 77.6177 5.57322  48 
   4  -1   5 85.0797 6.15130  48 
   4  -1   5 70.4636 5.01677  45 
   4  -1   5 58.5807 6.38008  79 
  -4   1  -5 68.8869 6.94009  76 
   4   1   5 71.3833 7.60653  76 
   4   1   5 83.5394 6.00524  81 
   4   1   5 75.3403 6.77661  73 
   4   1   5 69.2124 5.44852  51 
  -4   1  -5 66.7640 5.35330  78 
   4   1   5 64.2982 5.46601  78 
  -5  -1  -5 222.295 12.6043  47 
  -5  -1  -5 223.261 12.6174  75 
   5  -1   5 233.467 12.6367  71 
  -5  -1  -5 244.524 12.4431  45 
   5  -1   5 205.955 12.2383  38 
   5  -1   5 210.384 13.6263  79 
   5  -1   5 213.483 12.3636  45 
  -5  -1  -5 205.088 12.2568  71 
   5  -1   5 243.156 13.0172  75 
  -5  -1  -5 257.968 13.8062  79 
  -5   1  -5 216.615 12.5148  78 
  -5   1  -5 213.511 12.5996  76 
   5   1   5 213.004 12.8467  78 
   5   1   5 223.348 12.7209  38 
   5   1   5 232.188 12.8320  81 
   5   1   5 240.958 14.3825  76 
   5   1   5 220.646 12.4814  40 
   5   1   5 219.192 13.8350  73 
  -5   1  -5 227.096 13.4316  83 
   6  -1   5 101.670 7.36834  45 
  -6  -1  -5 96.8815 8.59422  79 
  -6  -1  -5 92.5248 7.25056  75 
   6  -1   5 100.354 7.85659  75 
  -6  -1  -5 98.5724 6.85332  71 
   6  -1   5 96.5370 9.08215  79 
   6  -1   5 100.304 7.53117  41 
   6  -1   5 107.495 8.52701  78 
   6  -1   5 96.0364 7.87600  33 
   6  -1   5 96.6202 7.53851  34 
  -6  -1  -5 98.2140 6.78544  45 
   6  -1   5 105.549 7.30801  71 
   6   1   5 91.8375 7.58470  78 
   6   1   5 105.246 8.97145  73 
   6   1   5 102.266 7.38690  38 
  -6   1  -5 96.2240 7.02506  78 
   6   1   5 105.932 7.59142  40 
   6   1   5 97.6510 7.14520  81 
  -6   1  -5 103.737 8.96196  83 
   7  -1   5 41.1317 5.82809  19 
   7  -1   5 38.6855 6.06814  33 
   7  -1   5 47.0330 5.66541  41 
  -7  -1  -5 44.9133 6.58111  79 
   7  -1   5 42.0471 5.57708  18 
   7  -1   5 45.5479 5.60266  75 
  -7  -1  -5 39.8490 5.60419   5 
  -7  -1  -5 51.4024 5.45877  20 
   7  -1   5 60.5574 7.06610  78 
  -7  -1  -5 26.0793 6.08500  75 
  -7  -1  -5 43.1436 5.21009  18 
   7  -1   5 52.3102 7.66234  79 
   7  -1   5 44.5158 6.85795  24 
  -7  -1  -5 37.6859 9.80829  76 
   7  -1   5 38.9568 8.37791  27 
  -7  -1  -5 36.5031 5.32930  78 
   7  -1   5 54.9474 6.41339  20 
  -7  -1  -5 43.3373 5.23326  19 
  -7   1  -5 38.9222 3.97232  17 
  -7   1  -5 43.0866 5.91904   5 
   7   1   5 46.5280 6.22072  15 
   7   1   5 43.4303 5.43267  43 
   7   1   5 37.7354 5.81799   4 
   7   1   5 45.9106 5.91841  38 
  -7   1  -5 42.9091 4.71916  78 
   7   1   5 38.6977 6.06939  73 
  -7   1  -5 40.3072 6.96454  83 
  -7   1  -5 45.4364 5.01307   4 
   7   1   5 38.4062 5.65196  78 
  -7   1  -5 42.1432 4.76163  13 
   7   1   5 45.0184 5.90756  40 
   7   1   5 36.2695 6.26105  13 
  -7   1  -5 37.8330 5.22480   2 
   8  -1   5 29.6113 4.86038  19 
   8  -1   5 28.5321 5.17003  33 
  -8  -1  -5 31.6513 4.34258  18 
  -8  -1  -5 35.3200 4.28753  19 
   8  -1   5 36.0297 4.94520  18 
   8  -1   5 32.9124 5.77392  20 
  -8  -1  -5 39.8654 4.98568  20 
  -8  -1  -5 33.1201 5.23912   5 
   8   1   5 33.0502 5.48839  38 
   8   1   5 34.2014 5.18086   4 
  -8   1  -5 30.5537 5.28933   5 
  -8   1  -5 30.4331 3.58220  17 
   8   1   5 29.2149 5.63039  13 
  -8   1  -5 27.0029 4.38794   4 
  -8   1  -5 33.3140 4.74990   2 
  -8   1  -5 31.5715 4.38595  13 
   8   1   5 30.7188 5.08615  43 
  -8   1  -5 36.5563 6.21162  83 
  -9  -1  -5 4.58314 2.03829  20 
  -9  -1  -5 3.70976 1.86335  18 
   9  -1   5 7.17611 2.27283  18 
   9  -1   5 4.10536 2.49847  20 
  -9  -1  -5 2.18753 1.89148  19 
   9  -1   5 5.16474 2.21882  19 
  -9  -1  -5 12.5246 3.54308   5 
   9   1   5 2.72930 2.55635  13 
  -9   1  -5 6.09316 2.81576   3 
  -9   1  -5 4.63832 2.03898  13 
  -9   1  -5 5.17917 2.39147   2 
  -9   1  -5 3.77461 1.83459  16 
  -9   1  -5 5.42981 2.18398   4 
   9   1   5 0.97675 2.44394   4 
  -9   1  -5 2.86934 1.93315   5 
 -11  -2   5 2.83930 1.71196  20 
  11  -2  -5 5.86511 2.12075  18 
  11  -2  -5 6.07207 1.91533  19 
  11  -2  -5 1.68022 2.66537  20 
 -11  -2   5 3.96617 1.76523  19 
 -11  -2   5 2.32998 1.64876  18 
 -11   2   5 7.13828 2.03734   7 
  11   2  -5 1.64915 1.87744   4 
 -11   2   5 3.74821 2.23462   2 
  11   2  -5 3.88242 1.76833  13 
  11   2  -5 2.86729 1.51247  16 
 -11   2   5 3.82459 2.32717  30 
  11   2  -5 3.72176 1.90187  10 
 -11   2   5 2.35771 1.65561  14 
  11   2  -5 2.95445 2.33259   1 
  11   2  -5 3.42865 1.88908  23 
 -11   2   5 2.14467 1.39484   5 
  11   2  -5 4.14151 2.02046   3 
 -11   2   5 2.34217 1.04114  22 
 -11   2   5 3.19331 1.53535  31 
 -10  -2   5 1.80442 2.85615  20 
 -10  -2   5 1.50148 2.30617  19 
  10  -2  -5 4.24858 2.93925  33 
 -10  -2   5 0.73529 2.36865  18 
  10  -2  -5 -3.3010 2.77142  24 
  10  -2  -5 1.40447 1.97645  27 
  10  -2  -5 1.85396 2.56218  19 
  10  -2  -5 3.94740 3.28493  20 
  10  -2  -5 7.29861 3.08459  18 
 -10   2   5 6.08361 2.68532  14 
 -10   2   5 8.29331 1.99124   3 
  10   2  -5 3.49644 2.54778  16 
 -10   2   5 -0.8694 2.25055  15 
  10   2  -5 6.64036 3.03135  23 
 -10   2   5 3.86186 2.63458   7 
 -10   2   5 4.05668 2.11691  31 
 -10   2   5 7.55147 2.43206   4 
 -10   2   5 6.87531 2.00905  32 
 -10   2   5 7.57904 3.12116  30 
 -10   2   5 2.45679 2.15156   5 
 -10   2   5 3.88020 1.45366  22 
 -10   2   5 2.94851 2.32326   2 
 -10   2   5 4.81787 2.00353   1 
  10   2  -5 5.11126 2.72714  10 
  10   2  -5 6.63834 3.47472   4 
  10   2  -5 4.91287 2.70890   3 
  10   2  -5 6.70616 2.75385  13 
  -9  -2   5 77.3507 6.15320  19 
   9  -2  -5 72.9292 6.14916  27 
   9  -2  -5 70.3896 7.65809  24 
   9  -2  -5 66.3752 7.36205  33 
  -9  -2   5 64.5292 6.95128  20 
  -9  -2   5 64.2160 6.20560  18 
   9  -2  -5 68.3418 7.64426  20 
   9  -2  -5 73.4814 7.07545  79 
  -9   2   5 71.8628 5.56057  28 
   9   2  -5 70.4850 7.80788   7 
  -9   2   5 72.6442 6.66788   5 
  -9   2   5 69.1253 6.19630   7 
  -9   2   5 72.3745 5.27676   1 
  -9   2   5 75.6525 6.05295   4 
  -9   2   5 73.0248 5.37863   3 
   9   2  -5 49.5208 7.84065  16 
  -9   2   5 67.4220 4.86465  16 
   9   2  -5 80.5538 6.69529   4 
   9   2  -5 62.6592 6.66486  41 
   9   2  -5 72.4318 7.01283  15 
   9   2  -5 72.0261 6.60837  10 
  -9   2   5 60.3314 5.38975  32 
  -9   2   5 70.0898 6.18392  14 
  -9   2   5 76.6017 5.35559  13 
  -9   2   5 77.3907 5.81534  31 
  -9   2   5 66.7066 6.23877   2 
  -9   2   5 58.6175 7.45134  15 
   9   2  -5 65.3803 6.86663  13 
   9   2  -5 68.7237 6.98488  42 
  -9   2   5 62.6497 6.90617  77 
  -9   2   5 74.6062 6.33525  83 
  -8  -2   5 29.0896 4.97472  27 
  -8  -2   5 27.6550 6.25103  20 
  -8  -2   5 28.2281 4.85646  75 
   8  -2  -5 12.8528 6.59858  24 
   8  -2  -5 22.1354 4.82227  27 
  -8  -2   5 32.2612 5.33158  19 
   8  -2  -5 30.1556 6.11532  79 
   8  -2  -5 29.1454 6.38738  33 
   8  -2  -5 29.2633 4.61365  75 
  -8  -2   5 21.4363 5.47278  18 
  -8   2   5 27.4913 5.04093  14 
   8   2  -5 32.0440 6.52639   7 
   8   2  -5 33.5769 6.47308  15 
  -8   2   5 24.9281 4.97252   5 
   8   2  -5 30.2864 5.90367   4 
  -8   2   5 27.3279 4.45738  31 
  -8   2   5 27.5007 3.84297  28 
  -8   2   5 27.0627 5.58888  83 
  -8   2   5 28.3748 4.25372   1 
  -8   2   5 30.9337 4.57318  13 
   8   2  -5 33.4069 5.19701  73 
  -8   2   5 26.5227 4.44842   3 
  -8   2   5 24.4879 5.49254   2 
  -8   2   5 20.4059 4.94910   4 
   8   2  -5 32.6358 5.90958  41 
   8   2  -5 32.4621 6.11130  13 
   8   2  -5 32.0114 6.14855  42 
  -8   2   5 27.7884 4.86188  77 
  -8   2   5 25.8509 5.08726   7 
  -8   2   5 28.3805 3.93233  16 
   8   2  -5 35.8774 5.71675  10 
  -7  -2   5 76.8592 6.29370  75 
   7  -2  -5 63.2281 5.87713  75 
  -7  -2   5 58.2081 5.71443  45 
   7  -2  -5 57.9751 6.89327  48 
   7  -2  -5 70.5422 7.08825  79 
   7  -2  -5 63.1457 5.81916  45 
   7  -2  -5 87.7645 8.62791  44 
  -7  -2   5 73.3920 5.77472  71 
   7  -2  -5 68.7503 7.37772  33 
   7  -2  -5 65.9788 5.23765  71 
  -7   2   5 71.9097 6.10922  47 
  -7   2   5 72.5613 5.99109  77 
   7   2  -5 74.6973 6.74681  73 
   7   2  -5 62.9754 6.94246  41 
  -7   2   5 77.2764 6.86246  74 
   7   2  -5 63.7292 5.89124  78 
  -7   2   5 69.9980 6.51809  83 
   7   2  -5 65.6839 6.48745  83 
   6  -2  -5 158.494 10.8325  44 
  -6  -2   5 150.692 9.50618  75 
   6  -2  -5 168.179 9.19225  71 
   6  -2  -5 154.232 9.39902  45 
   6  -2  -5 166.315 9.36653  75 
  -6  -2   5 149.332 9.96297  48 
  -6  -2   5 166.005 9.36735  71 
  -6  -2   5 155.908 9.29010  45 
   6  -2  -5 146.231 10.2034  48 
   6  -2  -5 160.055 10.3444  79 
   6   2  -5 162.626 10.0639  73 
  -6   2   5 156.753 9.38760  77 
  -6   2   5 163.104 10.0881  74 
   6   2  -5 158.793 9.80337  41 
  -6   2   5 150.227 10.0302  83 
  -6   2   5 155.903 9.76985  47 
   6   2  -5 158.559 9.31207  78 
   6   2  -5 179.534 10.4036  83 
   5  -2  -5 641.411 32.1752  48 
   5  -2  -5 628.529 31.6003  45 
   5  -2  -5 630.717 32.0849  79 
   5  -2  -5 597.128 31.3474  71 
  -5  -2   5 645.692 32.2765  48 
   5  -2  -5 642.739 31.6081  75 
  -5  -2   5 658.040 31.8606  75 
  -5  -2   5 597.672 31.5817  45 
   5  -2  -5 650.469 31.4094  46 
  -5  -2   5 630.141 31.5741  71 
   5  -2  -5 644.329 32.5102  44 
  -5  -2   5 683.261 31.6042  49 
  -5  -2   5 629.967 32.7254  44 
   5   2  -5 608.390 31.8766  41 
   5   2  -5 646.664 31.9528  51 
   5   2  -5 605.487 31.6509  77 
  -5   2   5 643.547 32.0753  74 
   5   2  -5 655.926 31.9392  73 
  -5   2   5 597.791 31.4704  77 
  -5   2   5 632.195 30.9812  51 
  -5   2   5 561.235 31.7714  83 
   5   2  -5 592.261 31.4215  78 
  -5   2   5 652.325 32.0816  47 
   5   2  -5 604.841 32.0415  83 
   5   2  -5 645.919 32.4240  42 
  -4  -2   5 667.031 31.8550  45 
   4  -2  -5 627.642 31.5409  46 
   4  -2  -5 703.017 31.6423  71 
  -4  -2   5 609.377 31.9322  74 
   4  -2  -5 625.244 31.7475  45 
  -4  -2   5 612.487 31.7309  71 
  -4  -2   5 671.584 31.7436  49 
  -4  -2   5 648.972 31.9841  75 
   4  -2  -5 620.510 32.3808  44 
   4  -2  -5 602.592 32.1286  48 
  -4  -2   5 651.587 32.3409  48 
  -4  -2   5 671.104 35.4708  67 
   4  -2  -5 603.414 31.7042  75 
   4  -2  -5 601.444 31.5533  70 
  -4  -2   5 659.966 32.7923  44 
   4   2  -5 646.916 31.6890  78 
   4   2  -5 654.109 32.0282  51 
   4   2  -5 643.844 33.5829  52 
   4   2  -5 610.037 31.4141  53 
   4   2  -5 599.898 31.7627  77 
  -4   2   5 627.819 31.6821  77 
  -4   2   5 637.508 31.1704  51 
   3  -2  -5 1361.15 72.0760  44 
   3  -2  -5 1464.74 71.6461  45 
  -3  -2   5 1515.91 71.6723  49 
   3  -2  -5 1532.01 72.2094  69 
   3  -2  -5 1528.06 72.8642  65 
  -3  -2   5 1439.87 72.4489  44 
   3  -2  -5 1379.54 71.4984  70 
  -3  -2   5 1452.16 74.7409  67 
  -3  -2   5 1434.61 73.2602  65 
  -3  -2   5 1464.16 71.7169  45 
  -3  -2   5 1426.28 71.6517  46 
   3  -2  -5 1424.84 71.9373  48 
   3  -2  -5 1458.59 71.6562  75 
  -3  -2   5 1411.14 71.9037  74 
  -3  -2   5 1610.11 72.2467  48 
  -3  -2   5 1477.36 71.7517  71 
   3  -2  -5 1440.28 71.4885  46 
   3  -2  -5 1420.83 71.5103  71 
  -3   2   5 1486.66 73.1165  68 
  -3   2   5 1384.61 71.6783  77 
  -3   2   5 1408.87 72.3671  54 
   3   2  -5 1464.64 71.8550  51 
  -3   2   5 1434.66 77.8858  66 
   3   2  -5 1534.71 73.5352  52 
   3   2  -5 1607.63 71.4011  53 
  -2  -2   5 1200.54 57.2564  44 
   2  -2  -5 1177.85 56.3833  70 
  -2  -2   5 1169.55 58.0026  65 
  -2  -2   5 1144.89 56.7806  74 
  -2  -2   5 1118.11 59.2240  67 
   2  -2  -5 1071.89 58.0108  64 
   2  -2  -5 1098.66 56.7139  48 
  -2  -2   5 1145.25 56.5483  45 
  -2  -2   5 1184.91 56.5040  49 
   2  -2  -5 1085.67 56.4375  45 
   2  -2  -5 1133.58 56.8921  69 
   2  -2  -5 1125.61 57.4452  65 
   2  -2  -5 1121.86 56.3889  71 
   2  -2  -5 1117.89 56.3184  46 
  -2  -2   5 1208.60 56.9855  48 
  -2  -2   5 1227.12 56.4900  46 
  -2  -2   5 1072.11 56.4718  70 
   2   2  -5 1207.34 58.3108  52 
  -2   2   5 1207.61 62.2669  66 
  -2   2   5 1114.90 57.3349  54 
   2   2  -5 1189.12 56.6649  51 
  -2   2   5 1169.98 57.8325  68 
   2   2  -5 1195.08 56.1602  53 
   1  -2  -5 556.826 28.8100  64 
   1  -2  -5 576.453 28.2559  65 
   1  -2  -5 528.043 27.4894  48 
  -1  -2   5 592.980 27.7320  48 
  -1  -2   5 536.459 27.2651  45 
   1  -2  -5 507.763 27.1411  71 
  -1  -2   5 555.862 29.9431  67 
  -1  -2   5 520.995 27.5761  74 
  -1  -2   5 547.529 28.6928  65 
   1  -2  -5 566.675 27.6448  69 
  -1  -2   5 543.694 27.1959  46 
   1  -2  -5 527.282 27.1857  45 
   1  -2  -5 547.313 27.1072  70 
   1  -2  -5 558.828 27.0919  46 
  -1  -2   5 573.216 27.2623  49 
  -1  -2   5 538.382 27.8989  69 
   1   2  -5 568.539 27.3625  51 
  -1   2   5 526.274 28.4746  68 
   1   2  -5 547.919 28.9676  52 
  -1   2   5 540.489 32.4802  66 
  -1   2   5 574.732 28.2832  54 
   0  -2   5 143.617 8.70145  44 
   0  -2   5 132.619 7.15950  49 
   0  -2   5 127.142 7.78859  69 
   0  -2   5 132.801 7.09057  46 
   0  -2   5 132.668 7.20865  45 
   0  -2   5 146.664 8.85930  65 
   0  -2  -5 137.422 7.09538  45 
   0  -2  -5 127.422 6.99052  46 
   0  -2  -5 134.768 7.50726  48 
   0  -2   5 123.066 7.35655  71 
   0  -2   5 131.270 7.20056  70 
   0  -2  -5 136.316 8.15161  65 
   0  -2  -5 129.042 7.51308  69 
   0  -2   5 147.555 10.0573  67 
   0  -2  -5 128.040 7.04861  71 
   0  -2  -5 131.996 8.82157  64 
   0  -2   5 134.953 7.70449  74 
   0  -2   5 127.176 7.63530  48 
   0  -2  -5 127.619 6.98499  70 
   0   2   5 136.039 8.49484  54 
   0   2   5 125.313 6.66610  51 
   0   2  -5 137.043 8.93129  52 
   0   2  -5 131.584 7.21528  51 
   0   2   5 126.786 8.53493  68 
   1  -2   5 322.622 17.3928  75 
  -1  -2  -5 318.779 18.2298  65 
  -1  -2  -5 323.907 16.9917  46 
  -1  -2  -5 326.087 17.6864  44 
   1  -2   5 325.764 19.8542  67 
  -1  -2  -5 334.783 17.1078  45 
  -1  -2  -5 338.701 17.1218  71 
   1  -2   5 313.721 17.8180  44 
   1  -2   5 325.843 17.2967  71 
   1  -2   5 317.161 17.1308  45 
  -1  -2  -5 359.224 17.7250  69 
   1  -2   5 343.502 17.0974  46 
   1  -2   5 326.311 17.5525  74 
   1  -2   5 340.589 17.5655  48 
   1  -2   5 359.759 18.8501  65 
   1  -2   5 328.624 17.1825  70 
  -1  -2  -5 359.961 17.1023  70 
   1  -2   5 353.386 17.1616  49 
  -1  -2  -5 345.484 17.3219  75 
  -1  -2  -5 342.847 17.4296  48 
  -1   2  -5 337.604 18.8519  52 
  -1   2  -5 362.938 17.2377  51 
   1   2   5 350.283 18.8088  68 
   1   2   5 354.338 18.3011  54 
   1   2   5 374.218 16.9530  51 
   2  -2   5 183.771 10.1434  71 
   2  -2   5 197.891 10.4845  48 
  -2  -2  -5 192.610 10.2988  48 
  -2  -2  -5 172.134 9.77887  70 
   2  -2   5 181.654 10.2384  75 
   2  -2   5 199.185 13.2381  67 
  -2  -2  -5 178.074 10.5774  44 
  -2  -2  -5 181.457 9.80334  45 
  -2  -2  -5 193.729 12.7698  67 
  -2  -2  -5 186.872 10.1583  75 
   2  -2   5 185.389 14.7106  65 
  -2  -2  -5 209.345 10.0479  71 
   2  -2   5 170.080 9.76532  46 
  -2  -2  -5 208.736 9.80667  46 
   2  -2   5 186.834 10.7972  44 
   2  -2   5 188.586 9.90122  49 
   2  -2   5 188.196 9.91913  45 
  -2   2  -5 176.929 10.1968  77 
   2   2   5 177.898 10.8666  54 
   2   2   5 184.269 10.2956  77 
  -2   2  -5 188.952 11.5396  52 
   2   2   5 189.775 9.75465  51 
   2   2   5 168.975 11.6996  68 
  -2   2  -5 196.298 9.96321  51 
   2   2   5 173.176 9.80435  73 
   3  -2   5 165.842 9.27170  45 
   3  -2   5 158.781 9.29501  71 
  -3  -2  -5 149.761 11.9187  67 
  -3  -2  -5 181.666 9.39912  71 
   3  -2   5 167.045 13.5420  67 
  -3  -2  -5 160.331 9.60637  48 
  -3  -2  -5 168.561 9.45135  75 
  -3  -2  -5 172.476 9.13430  45 
   3  -2   5 167.321 9.12801  49 
  -3  -2  -5 166.098 10.0733  44 
   3  -2   5 166.533 10.3184  79 
   3  -2   5 177.785 10.3459  44 
   3  -2   5 167.546 9.78189  48 
   3  -2   5 166.774 9.69836  75 
   3   2   5 165.620 9.03632  51 
  -3   2  -5 172.464 9.62860  77 
   3   2   5 169.978 9.73623  77 
   3   2   5 168.509 10.0232  43 
  -3   2  -5 164.599 9.54639  42 
   3   2   5 168.367 9.36196  73 
   4  -2   5 1123.97 54.9264  45 
  -4  -2  -5 1180.17 55.3163  75 
   4  -2   5 1170.80 55.9755  44 
   4  -2   5 1051.11 54.7794  49 
  -4  -2  -5 1063.28 54.8020  45 
   4  -2   5 1146.63 55.0777  71 
   4  -2   5 1095.14 55.9018  79 
  -4  -2  -5 1108.04 55.8418  44 
   4  -2   5 1151.18 55.3181  75 
  -4  -2  -5 1119.94 55.4283  48 
   4  -2   5 1088.59 55.4374  48 
  -4  -2  -5 1122.26 55.0075  71 
  -4   2  -5 1029.35 56.0259  42 
   4   2   5 1087.29 55.2743  40 
  -4   2  -5 1107.05 55.4913  83 
   4   2   5 1159.35 55.2648  77 
   4   2   5 990.945 55.4049  38 
   4   2   5 1105.95 55.0505  73 
   4   2   5 1169.38 55.6740  43 
  -4   2  -5 1127.06 55.1405  77 
   5  -2   5 5.58733 2.82661  44 
   5  -2   5 8.90890 2.83403  45 
   5  -2   5 14.1943 4.57702  48 
  -5  -2  -5 8.08178 2.51468  45 
  -5  -2  -5 3.86063 2.88433  48 
  -5  -2  -5 7.14409 3.89570  47 
  -5  -2  -5 4.59578 2.53045  44 
  -5  -2  -5 8.51383 2.78897  71 
  -5  -2  -5 5.42964 2.72890  75 
   5  -2   5 6.33743 2.82453  71 
   5  -2   5 13.9591 4.01335  49 
   5  -2   5 9.37915 3.46896  75 
   5  -2   5 8.47559 4.07837  79 
  -5   2  -5 15.3638 4.55926  83 
   5   2   5 6.59383 3.97847  77 
   5   2   5 15.6886 4.70674  43 
   5   2   5 9.49501 4.38129  38 
   5   2   5 4.43257 2.98279  40 
   5   2   5 10.6486 3.81301  73 
  -5   2  -5 5.18163 3.49619  77 
  -6  -2  -5 603.808 33.2369  45 
   6  -2   5 679.270 33.5478  33 
   6  -2   5 696.669 35.0400  79 
   6  -2   5 645.331 33.8356  75 
   6  -2   5 642.563 33.5134  71 
  -6  -2  -5 615.918 33.4138  71 
  -6  -2  -5 677.235 34.5100  79 
   6  -2   5 603.845 33.3805  45 
  -6  -2  -5 681.288 33.8217  75 
   6  -2   5 690.959 33.6506  41 
  -6   2  -5 663.333 33.6879  77 
   6   2   5 715.693 34.2883  43 
   6   2   5 661.993 33.9266  77 
   6   2   5 708.383 33.8267  38 
  -6   2  -5 657.249 34.1559  83 
   6   2   5 655.641 33.7500  40 
   6   2   5 603.483 33.0334  73 
   7  -2   5 47.3864 5.56331  75 
   7  -2   5 45.3890 5.88723  41 
  -7  -2  -5 42.2338 6.31049  79 
   7  -2   5 43.3826 5.15719  27 
  -7  -2  -5 45.2079 4.63050  27 
   7  -2   5 44.8110 6.11053  33 
   7  -2   5 55.0113 6.03175  20 
  -7  -2  -5 50.9359 5.56325  20 
   7  -2   5 35.0192 5.70800  19 
  -7  -2  -5 43.6813 5.12084  19 
   7  -2   5 40.5793 6.76796  24 
  -7  -2  -5 44.4719 5.23250  18 
  -7  -2  -5 48.4270 5.55721  75 
   7  -2   5 45.7312 7.11287  79 
   7  -2   5 38.6633 5.86870  18 
   7   2   5 52.9338 6.10102   7 
   7   2   5 48.2798 6.09931  43 
  -7   2  -5 48.1849 4.18116  17 
  -7   2  -5 43.2511 5.66884   5 
   7   2   5 45.5773 5.75203  31 
   7   2   5 42.8123 6.11517  38 
  -7   2  -5 51.7857 5.96185   6 
  -7   2  -5 49.2989 4.40738   3 
   7   2   5 48.6459 6.16425  40 
  -7   2  -5 46.4203 5.13850  14 
  -7   2  -5 43.3419 4.39256  13 
  -7   2  -5 44.6237 4.98769  31 
  -7   2  -5 42.1151 4.59344   7 
   7   2   5 38.5041 5.26950  13 
  -7   2  -5 50.7922 5.09729   2 
  -7   2  -5 45.4714 4.78172   4 
  -7   2  -5 34.5135 5.40848  25 
   7   2   5 38.1570 5.04917  16 
   7   2   5 51.1776 5.20016   3 
  -7   2  -5 40.1031 4.12248  16 
  -7   2  -5 41.2287 5.30781  77 
   7   2   5 47.4864 5.49591   4 
  -7   2  -5 44.8171 6.17167  83 
   7   2   5 43.7424 6.66218  15 
  -8  -2  -5 12.4862 3.78747  18 
   8  -2   5 13.4635 3.19592  18 
   8  -2   5 28.4735 5.77133  24 
  -8  -2  -5 15.2859 4.68758  20 
  -8  -2  -5 12.0538 3.74382  19 
   8  -2   5 12.9149 3.26980  20 
   8  -2   5 15.0935 4.41386  33 
   8  -2   5 10.9886 2.83923  19 
   8  -2   5 13.7378 3.70261  27 
  -8   2  -5 10.6896 2.82146  17 
   8   2   5 10.5910 4.89457  15 
  -8   2  -5 7.25718 2.51659   7 
  -8   2  -5 11.7017 3.35554  13 
   8   2   5 17.0281 4.39898  13 
  -8   2  -5 15.1586 4.22197   5 
   8   2   5 5.11322 3.03115  40 
   8   2   5 16.8410 5.07644   7 
   8   2   5 6.97897 3.99102  38 
   8   2   5 9.33018 2.81839   4 
  -8   2  -5 14.3650 2.96365   1 
  -8   2  -5 7.25913 2.27875  31 
  -8   2  -5 13.6419 2.75083   2 
   8   2   5 6.79588 2.35833  16 
  -8   2  -5 9.26456 2.79447  16 
   8   2   5 11.9075 2.76291   3 
  -8   2  -5 12.4335 3.17979   3 
   8   2   5 6.72500 2.79850  31 
  -8   2  -5 2.37963 2.96055  83 
  -8   2  -5 10.3274 2.53621   4 
  -8   2  -5 12.1816 3.76849  14 
  -8   2  -5 8.03909 3.27989   6 
  -9  -2  -5 11.9167 3.40437  20 
   9  -2   5 3.20211 2.34543  20 
   9  -2   5 8.29048 2.19966  19 
  -9  -2  -5 6.81592 1.95382  18 
   9  -2   5 2.58857 2.06846  18 
  -9  -2  -5 4.97826 1.74355  19 
   9  -2   5 9.36504 3.11744  33 
  -9   2  -5 4.61093 1.89180   2 
  -9   2  -5 4.20367 1.85255   5 
   9   2   5 4.59821 2.20401  31 
   9   2   5 9.40278 2.65985   1 
  -9   2  -5 7.88172 2.25029  32 
  -9   2  -5 5.92954 1.79980  31 
   9   2   5 4.84450 1.68097  16 
   9   2   5 8.75033 2.57045   7 
   9   2   5 6.04598 1.91010   3 
  -9   2  -5 10.8146 2.21879   1 
  -9   2  -5 3.92545 1.91692   7 
  -9   2  -5 4.44074 1.77100   4 
   9   2   5 5.76671 2.06854   4 
   9   2   5 11.1091 3.20288  13 
  -9   2  -5 8.82405 2.39165   3 
 -10  -3   5 112.708 6.93007  18 
  10  -3  -5 109.895 6.77517  27 
 -10  -3   5 114.962 6.90825  19 
  10  -3  -5 126.761 7.92301  24 
 -10  -3   5 108.602 7.28372  20 
  10   3  -5 120.538 7.29412  23 
  10   3  -5 119.180 7.16261  10 
 -10   3   5 115.173 6.54205  31 
  10   3  -5 124.510 6.35754   1 
  10   3  -5 116.716 6.57112   3 
 -10   3   5 107.753 6.91753   5 
  10   3  -5 110.019 7.34207   7 
 -10   3   5 116.901 6.36611  22 
 -10   3   5 122.306 6.83770   7 
  10   3  -5 121.043 6.46573  32 
  10   3  -5 113.920 6.83404   4 
  10   3  -5 122.835 6.97579  31 
 -10   3   5 117.467 6.99230  14 
  10   3  -5 112.521 7.07459  15 
 -10   3   5 124.263 6.65352  30 
 -10   3   5 134.066 6.57200  28 
  -9  -3   5 42.9009 4.58782  27 
  -9  -3   5 49.3804 6.08494  20 
   9  -3  -5 50.4479 6.30394  24 
   9  -3  -5 46.2152 6.19359  33 
  -9  -3   5 54.1082 5.20409  18 
  -9  -3   5 43.1896 5.15827  19 
   9  -3  -5 59.2774 5.13935  27 
   9   3  -5 48.4163 6.40894  15 
  -9   3   5 58.2438 5.19805  35 
  -9   3   5 47.4953 3.88562  22 
  -9   3   5 50.2762 4.10594  28 
   9   3  -5 50.9795 4.58759  32 
  -9   3   5 45.9227 4.98860  14 
   9   3  -5 46.3950 5.59036  39 
   9   3  -5 53.7794 4.05267  16 
   9   3  -5 51.5048 4.34515   1 
   9   3  -5 50.5147 5.34452  31 
  -9   3   5 45.3276 5.26224   7 
   9   3  -5 63.0751 5.79571  10 
  -9   3   5 48.5141 5.23811   5 
   9   3  -5 45.3122 4.64776   3 
   9   3  -5 44.3917 4.55934  13 
  -9   3   5 48.7942 4.59646  30 
  -9   3   5 52.2123 4.45884  31 
   9   3  -5 48.5142 5.35576   4 
   9   3  -5 51.2035 5.97163   7 
   9   3  -5 45.5563 5.74062  23 
   8  -3  -5 38.5328 6.34146  33 
  -8  -3   5 36.2431 6.37429  20 
   8  -3  -5 30.7137 5.52645  79 
   8  -3  -5 32.6029 4.95659  27 
  -8  -3   5 35.7775 5.06629  27 
  -8   3   5 42.5173 4.73393  30 
   8   3  -5 38.5947 5.13836  13 
  -8   3   5 42.7532 3.79494  22 
   8   3  -5 35.8260 5.67922  10 
   8   3  -5 35.9367 4.83831   1 
   8   3  -5 41.5089 7.21916  15 
  -8   3   5 41.4607 5.83235   5 
   8   3  -5 36.3238 4.58433  16 
   8   3  -5 40.4163 6.50292  23 
  -8   3   5 48.3099 4.54476  31 
   8   3  -5 33.3123 5.32480  31 
  -8   3   5 35.5340 3.18028  32 
  -8   3   5 36.8558 5.52077   7 
  -8   3   5 38.4389 3.99438  28 
   8   3  -5 32.8034 5.45788  39 
  -8   3   5 39.1737 3.50786   3 
   8   3  -5 29.3239 5.70047   4 
   8   3  -5 40.8193 4.86695   3 
  -8   3   5 38.9035 4.93746  14 
  -8   3   5 37.8597 3.65003  77 
   8   3  -5 31.4752 6.18489   7 
  -8   3   5 39.6663 2.81650   1 
   8   3  -5 40.7946 5.37755  77 
  -8   3   5 41.7778 4.05262  29 
   7  -3  -5 36.3953 4.36752  75 
  -7  -3   5 35.7388 5.07544  27 
   7  -3  -5 33.1151 5.36834  79 
  -7  -3   5 35.1879 4.83907  75 
   7  -3  -5 49.4533 7.00257  44 
  -7   3   5 34.4499 3.63485   3 
  -7   3   5 27.2584 3.25436  32 
   7   3  -5 23.6470 5.21383  13 
  -7   3   5 35.9044 3.90362  77 
  -7   3   5 33.8564 4.42079  30 
   7   3  -5 31.0158 5.93133  42 
   7   3  -5 25.3005 5.25563  31 
   7   3  -5 25.2330 4.75292  28 
  -7   3   5 22.1562 4.28601  31 
  -7   3   5 29.8096 3.76658  22 
   7   3  -5 32.5573 5.07010   3 
   7   3  -5 24.3687 6.32908   7 
   7   3  -5 27.2417 5.64393   4 
  -7   3   5 31.1133 3.03997   1 
  -7   3   5 34.2860 3.79249  29 
  -7   3   5 26.8247 5.09813   7 
   7   3  -5 30.1459 5.63038  10 
  -7   3   5 33.6639 5.32709  14 
   7   3  -5 31.3292 5.71890  39 
   7   3  -5 30.7470 6.28379  23 
   7   3  -5 35.2224 5.05993   1 
   7   3  -5 19.6956 4.74859  16 
  -7   3   5 45.9598 6.00110   5 
  -7   3   5 28.6878 5.79836   6 
  -7   3   5 28.2273 3.64599  28 
   7   3  -5 21.1046 4.79740  77 
   6  -3  -5 21.5240 4.87098  48 
   6  -3  -5 16.7199 3.14247  71 
   6  -3  -5 16.8721 5.47453  44 
   6  -3  -5 18.7588 3.82546  75 
   6  -3  -5 17.4991 5.00330  79 
  -6  -3   5 17.8805 5.42601  44 
  -6  -3   5 11.6731 4.20343  48 
   6  -3  -5 12.9554 2.81163  46 
  -6  -3   5 11.8472 2.79444  45 
  -6  -3   5 17.3594 3.35102  71 
  -6  -3   5 17.7874 4.24854  75 
   6   3  -5 14.1316 4.46666  83 
   6   3  -5 12.7799 3.59402  77 
   6   3  -5 11.9641 4.75315  42 
   6   3  -5 13.8375 3.84530  39 
  -6   3   5 16.6177 3.46288  77 
   6   3  -5 13.1544 5.32879  36 
   5  -3  -5 8.29731 2.23506  46 
  -5  -3   5 3.46962 2.46514  44 
  -5  -3   5 12.2272 3.09446  75 
  -5  -3   5 12.4334 2.76914  71 
  -5  -3   5 3.56016 2.78346  48 
  -5  -3   5 6.37822 2.30898  45 
   5  -3  -5 5.40081 3.48184  48 
  -5  -3   5 5.86423 2.29449  49 
   5  -3  -5 9.82755 2.39503  70 
   5  -3  -5 5.24560 2.56568  44 
   5   3  -5 9.32819 4.11145  42 
   5   3  -5 11.1037 3.68599  83 
  -5   3   5 7.83266 2.27105  77 
   5   3  -5 9.96137 3.55927  39 
   5   3  -5 4.90348 3.76447  41 
   5   3  -5 7.48509 3.44289  36 
   5   3  -5 5.34569 3.18323  77 
   4  -3  -5 342.693 17.5926  48 
  -4  -3   5 333.802 18.4638  44 
  -4  -3   5 347.781 17.1723  46 
  -4  -3   5 323.765 17.1496  45 
   4  -3  -5 311.928 17.6025  69 
  -4  -3   5 346.867 17.8899  48 
   4  -3  -5 336.335 17.8697  44 
  -4  -3   5 340.374 17.1817  71 
  -4  -3   5 344.527 17.1171  49 
   4  -3  -5 327.839 16.8624  70 
   4  -3  -5 328.688 16.8196  46 
  -4  -3   5 350.559 17.5247  75 
   4   3  -5 316.675 18.5758  82 
   4   3  -5 311.664 17.5115  41 
   4   3  -5 337.310 17.8917  39 
   4   3  -5 315.224 18.0472  42 
   4   3  -5 329.631 17.1464  77 
   4   3  -5 308.558 17.3988  83 
  -4   3   5 326.010 16.6448  77 
  -3  -3   5 365.959 18.7322  48 
   3  -3  -5 357.201 17.7996  46 
   3  -3  -5 352.061 17.8188  70 
  -3  -3   5 366.959 18.1837  71 
   3  -3  -5 391.893 18.4532  48 
  -3  -3   5 372.563 19.2625  44 
   3  -3  -5 322.168 18.3872  69 
  -3  -3   5 367.840 18.0857  70 
   3  -3  -5 340.002 18.6098  44 
  -3  -3   5 342.343 18.0894  45 
  -3  -3   5 373.759 18.0672  46 
  -3  -3   5 346.480 18.0484  49 
   3   3  -5 331.398 18.4787  41 
   3   3  -5 291.149 20.0063  52 
   3   3  -5 362.148 18.0366  77 
   3   3  -5 358.519 19.7647  82 
  -3   3   5 351.683 17.8837  80 
   3   3  -5 352.347 19.1269  42 
  -3   3   5 353.216 19.6100  68 
  -3   3   5 367.108 17.6341  77 
  -2  -3   5 212.891 11.5850  48 
  -2  -3   5 198.757 11.7215  69 
  -2  -3   5 211.488 11.0215  70 
  -2  -3   5 214.684 11.0261  49 
   2  -3  -5 215.983 10.8362  50 
  -2  -3   5 220.456 12.0814  44 
   2  -3  -5 227.439 10.7678  46 
   2  -3  -5 201.957 11.2761  48 
  -2  -3   5 202.824 11.1089  71 
   2  -3  -5 199.858 10.7434  70 
  -2  -3   5 228.993 11.0002  46 
  -2  -3   5 202.909 11.0357  45 
   2  -3  -5 206.170 11.3427  69 
  -2   3   5 209.943 12.3512  68 
  -2   3   5 211.749 14.7189  54 
   2   3  -5 195.012 11.7431  41 
   2   3  -5 230.544 13.8088  52 
  -2   3   5 198.826 10.8460  80 
   2   3  -5 191.966 11.9063  42 
  -2   3   5 215.893 10.5821  77 
   2   3  -5 203.505 10.9817  77 
  -1  -3   5 161.080 9.43719  74 
   1  -3  -5 177.567 8.73052  46 
  -1  -3   5 167.834 9.52148  48 
   1  -3  -5 171.640 9.24830  48 
   1  -3  -5 170.846 8.73243  70 
  -1  -3   5 169.690 9.73275  69 
  -1  -3   5 170.262 9.86549  44 
   1  -3  -5 168.206 8.81736  50 
   1  -3  -5 173.839 9.32129  69 
  -1  -3   5 163.945 8.97088  45 
  -1  -3   5 164.989 8.96608  49 
  -1  -3   5 173.385 8.91143  46 
   1   3  -5 163.537 8.97269  77 
  -1   3   5 159.649 8.89763  80 
  -1   3   5 173.914 11.3774  54 
  -1   3   5 167.655 8.54226  77 
   1   3  -5 176.153 10.1030  41 
  -1   3   5 173.428 10.3660  68 
   1   3  -5 170.327 11.5619  52 
   1   3  -5 147.580 9.80723  42 
   0  -3  -5 180.784 8.85263  50 
   0  -3   5 169.703 9.60421  69 
   0  -3   5 167.633 8.88655  70 
   0  -3  -5 165.215 8.61575  46 
   0  -3   5 159.973 9.24972  75 
   0  -3   5 169.426 8.84250  49 
   0  -3  -5 160.540 9.04470  48 
   0  -3   5 173.231 9.39890  48 
   0  -3  -5 158.362 9.15931  69 
   0  -3   5 168.590 8.85639  45 
   0  -3   5 171.093 8.78880  46 
   0  -3   5 167.721 9.49379  74 
   0  -3   5 164.721 9.69759  44 
   0  -3  -5 170.022 8.62988  70 
   0   3  -5 156.224 8.77644  77 
   0   3   5 170.197 10.3312  68 
   0   3  -5 162.197 11.1444  52 
   0   3   5 152.249 8.71247  80 
   0   3   5 164.818 8.53755  77 
   0   3  -5 154.376 9.71687  42 
   1  -3   5 84.4861 6.13881  44 
   1  -3   5 93.0257 6.52393  79 
   1  -3   5 90.9319 5.14514  49 
   1  -3   5 88.4960 5.38306  71 
  -1  -3  -5 83.5367 5.49059  69 
   1  -3   5 89.5270 5.72090  48 
  -1  -3  -5 86.2452 4.90928  70 
   1  -3   5 92.3529 5.18579  70 
  -1  -3  -5 94.3721 5.85499  44 
   1  -3   5 86.8400 5.86885  74 
   1  -3   5 82.4877 5.68968  75 
  -1  -3  -5 76.8861 5.28801  48 
   1  -3   5 85.2632 4.98812  46 
   1  -3   5 79.6431 5.07079  45 
  -1  -3  -5 83.3044 4.82390  46 
   1  -3   5 77.5256 5.78554  69 
   1   3   5 76.2617 6.81557  68 
   1   3   5 80.4017 4.97969  77 
   1   3   5 72.4585 6.04579  43 
  -1   3  -5 92.0339 7.91889  52 
  -1   3  -5 84.2481 6.34695  42 
  -1   3  -5 77.5565 5.06805  77 
  -2  -3  -5 50.4703 3.69209  71 
   2  -3   5 50.9035 4.02033  71 
  -2  -3  -5 46.6834 3.45202  70 
  -2  -3  -5 47.8103 4.16341  69 
   2  -3   5 49.8850 4.91171  44 
   2  -3   5 53.5259 3.77075  45 
  -2  -3  -5 48.5243 3.39944  46 
   2  -3   5 40.6498 3.55943  70 
  -2  -3  -5 55.3634 4.66484  44 
   2  -3   5 48.6099 3.55440  46 
   2  -3   5 53.4961 4.47690  48 
   2  -3   5 48.0237 5.27091  79 
   2  -3   5 55.8200 3.79993  49 
  -2  -3  -5 51.5018 4.11780  48 
   2  -3   5 44.6238 4.36829  75 
   2   3   5 47.1179 3.90936  77 
   2   3   5 43.6743 5.46962  43 
  -2   3  -5 48.4835 4.66356  42 
   2   3   5 39.7922 4.96416  40 
  -2   3  -5 48.2211 3.85065  77 
  -3  -3  -5 1119.26 54.1205  46 
  -3  -3  -5 1079.45 54.9247  79 
   3  -3   5 1106.00 55.2105  44 
  -3  -3  -5 1094.29 54.6890  48 
  -3  -3  -5 1070.04 55.0390  70 
  -3  -3  -5 1160.96 54.3330  71 
   3  -3   5 1121.66 54.7555  48 
   3  -3   5 1128.68 54.6242  75 
   3  -3   5 1085.91 54.1096  46 
  -3  -3  -5 1035.13 54.0764  45 
  -3  -3  -5 1075.31 55.1503  44 
   3  -3   5 1110.02 54.4022  71 
   3  -3   5 1140.93 54.2433  45 
   3  -3   5 1079.01 55.2081  79 
  -3  -3  -5 1099.00 54.4800  75 
   3   3   5 1028.60 54.7102  40 
  -3   3  -5 1089.53 54.1756  77 
   3   3   5 1133.43 54.2671  77 
  -3   3  -5 1133.60 54.8524  42 
   3   3   5 1065.55 55.2123  43 
   4  -3   5 546.606 28.5725  75 
   4  -3   5 542.834 29.3057  79 
  -4  -3  -5 565.960 29.3304  44 
   4  -3   5 579.762 28.1507  49 
   4  -3   5 546.364 29.2824  44 
   4  -3   5 548.422 28.7817  48 
  -4  -3  -5 552.896 28.0545  45 
   4  -3   5 563.304 28.3489  71 
  -4  -3  -5 541.009 28.2023  71 
  -4  -3  -5 544.551 28.4484  75 
  -4  -3  -5 549.761 28.7273  48 
   4  -3   5 498.375 28.0860  45 
  -4  -3  -5 606.131 29.2453  79 
   4   3   5 539.385 28.8374  40 
   4   3   5 544.867 29.2730  43 
   4   3   5 575.295 28.3377  77 
   4   3   5 565.263 28.7700  38 
  -4   3  -5 569.950 28.1949  77 
  -4   3  -5 585.729 28.7724  42 
  -5  -3  -5 89.2528 6.27889  71 
  -5  -3  -5 98.7398 7.18240  47 
  -5  -3  -5 90.4275 6.44576  45 
   5  -3   5 95.2025 6.78976  45 
   5  -3   5 99.1676 7.38281  33 
   5  -3   5 101.109 7.32502  75 
   5  -3   5 88.4139 8.24886  44 
  -5  -3  -5 92.8851 8.15012  44 
  -5  -3  -5 91.5541 8.09237  79 
  -5  -3  -5 103.959 7.08405  75 
   5  -3   5 95.2843 7.52152  48 
   5  -3   5 90.3502 6.56249  71 
   5  -3   5 106.599 8.66247  79 
   5   3   5 96.6736 8.71502  43 
  -5   3  -5 94.9499 6.78461  77 
   5   3   5 105.873 8.03189  40 
   5   3   5 90.9882 7.01779  77 
   5   3   5 96.3327 7.99529  38 
   6  -3   5 25.9268 4.64881  27 
   6  -3   5 30.0113 8.41940  24 
  -6  -3  -5 27.2191 5.90618  44 
   6  -3   5 29.6469 6.32932  44 
   6  -3   5 30.7966 6.31129  79 
  -6  -3  -5 33.9066 4.36704  27 
  -6  -3  -5 27.3324 4.54520  75 
   6  -3   5 29.6236 5.32371  41 
   6  -3   5 33.9043 4.78155  75 
   6  -3   5 28.5985 5.52860  33 
  -6  -3  -5 32.2466 5.92169  79 
  -6   3  -5 26.1624 3.80461  31 
   6   3   5 32.3533 6.38082  40 
  -6   3  -5 29.1550 3.30934   3 
   6   3   5 32.8401 4.61974  30 
  -6   3  -5 30.3115 3.57093  28 
   6   3   5 33.5876 3.63193   1 
   6   3   5 30.8403 4.28737  28 
  -6   3  -5 29.6591 4.11961   7 
  -6   3  -5 34.2611 4.66142   8 
  -6   3  -5 25.2691 4.42020  14 
   6   3   5 30.8407 3.72541  32 
  -6   3  -5 24.4754 3.46863  17 
  -6   3  -5 37.3975 4.03248  30 
   6   3   5 27.7119 4.93509  77 
   6   3   5 23.7932 5.42121   7 
   6   3   5 27.0107 5.75062  38 
  -6   3  -5 34.9253 5.36774  25 
  -6   3  -5 27.4661 3.28244  32 
  -6   3  -5 28.2220 4.13562  77 
   6   3   5 30.7204 4.83388   4 
   6   3   5 32.6734 3.79211   3 
  -6   3  -5 19.9278 3.80545   4 
  -6   3  -5 31.9667 3.23540   1 
  -6   3  -5 32.1497 2.62948  16 
   6   3   5 35.1733 4.70564  31 
  -6   3  -5 33.0543 5.76484   6 
   6   3   5 31.4021 6.05876  43 
   6   3   5 26.8098 3.29927  16 
  -6   3  -5 38.1176 4.35007   2 
  -7  -3  -5 171.299 11.2028  79 
  -7  -3  -5 164.754 9.49301  27 
   7  -3   5 166.169 9.55559  27 
   7  -3   5 160.430 10.0521  33 
   7  -3   5 160.760 10.2463  41 
   7  -3   5 158.571 10.7954  24 
   7  -3   5 179.659 11.6180  79 
  -7   3  -5 157.440 8.75653   1 
  -7   3  -5 172.945 8.89106   3 
  -7   3  -5 171.578 8.81504  32 
   7   3   5 164.426 9.40477   4 
  -7   3  -5 172.189 9.37382  30 
  -7   3  -5 160.403 9.42150   8 
  -7   3  -5 163.178 9.11594   4 
  -7   3  -5 164.980 9.07238  28 
  -7   3  -5 161.210 10.5433   6 
   7   3   5 162.771 9.17003   3 
   7   3   5 169.478 8.50288  16 
  -7   3  -5 168.553 9.41175  31 
   7   3   5 163.361 9.84247  30 
   7   3   5 156.559 11.1291  15 
  -7   3  -5 163.367 9.92595  25 
   7   3   5 145.258 10.2033  38 
   7   3   5 155.999 9.41454  28 
  -7   3  -5 176.702 9.37514   2 
  -7   3  -5 175.659 9.51890   7 
  -7   3  -5 168.438 9.06235  17 
   7   3   5 165.392 9.91887   7 
  -7   3  -5 174.529 9.74685  14 
   7   3   5 166.369 9.01740   1 
   7   3   5 164.240 9.75102  31 
  -8  -3  -5 7.61929 2.19671  18 
  -8  -3  -5 3.15169 2.20276  20 
   8  -3   5 11.2798 4.47640  24 
   8  -3   5 5.49279 2.57929  33 
   8  -3   5 4.44877 1.81559  27 
  -8  -3  -5 7.17178 2.01445  19 
  -8  -3  -5 2.26274 1.60112  27 
   8   3   5 5.01439 2.51236   7 
  -8   3  -5 1.76312 1.92911   7 
  -8   3  -5 5.37956 2.84412   6 
  -8   3  -5 4.60981 2.62173  25 
  -8   3  -5 4.70406 1.28378   3 
   8   3   5 2.84415 2.33758  15 
  -8   3  -5 3.05237 1.95770   2 
  -8   3  -5 3.38331 1.51309  17 
   8   3   5 1.98780 1.35999   1 
  -8   3  -5 4.91152 1.67243  28 
   8   3   5 4.47716 2.33242  31 
   8   3   5 3.15919 1.67350  32 
   8   3   5 0.74423 1.66627   3 
  -8   3  -5 5.32569 1.79943  31 
  -8   3  -5 5.05670 2.13783  14 
  -8   3  -5 4.79919 1.28918  32 
  -8   3  -5 5.38952 1.91742  30 
   8   3   5 4.17983 2.27510  30 
   8   3   5 6.77925 2.10768   4 
   9  -4  -5 30.8409 4.57757  24 
   9  -4  -5 19.1825 2.97462  27 
  -9  -4   5 14.9831 2.68340  27 
   9   4  -5 18.2420 3.95898  15 
  -9   4   5 22.6495 2.40067  29 
   9   4  -5 21.0077 3.44004   7 
   9   4  -5 18.5451 3.51671  23 
   9   4  -5 16.1449 2.63994  28 
   9   4  -5 19.7741 2.97762  31 
  -9   4   5 17.4685 3.44437  14 
   9   4  -5 21.3636 3.31964  10 
  -9   4   5 17.7898 2.40890  28 
  -9   4   5 19.0080 2.18585  22 
   9   4  -5 18.0060 3.46835  30 
  -8  -4   5 16.8787 4.06632  27 
   8  -4  -5 24.1516 3.76362  27 
   8   4  -5 26.8653 4.28796  30 
  -8   4   5 16.6033 2.86511  28 
   8   4  -5 15.4397 3.87904  31 
   8   4  -5 21.3579 4.93296  10 
   8   4  -5 16.8657 3.92283  28 
   8   4  -5 16.5916 7.59107  15 
   8   4  -5 17.0859 4.71353   7 
  -8   4   5 23.8379 2.97297  22 
   8   4  -5 22.6304 4.28788  39 
  -8   4   5 19.9664 2.44956  30 
   8   4  -5 18.7154 4.70520  23 
  -8   4   5 15.7567 2.87357  29 
  -7  -4   5 39.9632 4.89056  27 
   7   4  -5 44.3023 5.21790  30 
   7   4  -5 43.4182 5.19367  31 
   7   4  -5 45.4043 3.54168  32 
  -7   4   5 48.8252 4.09280  22 
   7   4  -5 50.8593 3.15115   1 
  -7   4   5 47.9111 3.92749  29 
  -7   4   5 50.9723 5.61467  25 
   7   4  -5 43.3284 6.13096  23 
  -7   4   5 47.6326 3.76902  30 
   7   4  -5 53.2409 4.07168   3 
   7   4  -5 56.2809 5.97827   7 
  -7   4   5 46.8082 4.13576  28 
   7   4  -5 43.5176 4.84420  28 
   7   4  -5 57.4897 6.25233  29 
   7   4  -5 49.5055 5.41512  39 
   7   4  -5 43.4867 5.85019  10 
   6  -4  -5 184.867 11.8629  44 
  -6  -4   5 207.425 10.9476  75 
  -6  -4   5 200.074 10.7828  27 
  -6  -4   5 168.006 11.9199  44 
   6   4  -5 196.777 10.4869  28 
  -6   4   5 181.505 9.80966  30 
   6   4  -5 180.468 11.8100  23 
  -6   4   5 200.999 10.1406  22 
   6   4  -5 179.222 10.7524  30 
   6   4  -5 179.001 11.4591  10 
  -6   4   5 169.803 11.1092  25 
  -6   4   5 172.593 9.97200  28 
   6   4  -5 191.873 12.1837  36 
   6   4  -5 161.414 10.1472  77 
   6   4  -5 183.136 9.93889   3 
  -6   4   5 189.666 9.90925  29 
   6   4  -5 175.551 10.3500  29 
   6   4  -5 205.256 11.1816   7 
   6   4  -5 184.742 9.70462  32 
   6   4  -5 189.060 11.2865  39 
   6   4  -5 178.988 10.7036  31 
   6   4  -5 189.170 9.57662   1 
   5  -4  -5 223.449 13.7186  44 
  -5  -4   5 224.736 13.0211  75 
   5  -4  -5 223.404 12.2605  46 
  -5  -4   5 223.582 13.4665  48 
  -5  -4   5 237.413 12.6114  71 
   5   4  -5 221.616 14.3406  36 
   5   4  -5 228.721 14.0140  42 
   5   4  -5 219.806 13.9499  31 
   5   4  -5 223.099 11.8385   1 
  -5   4   5 235.174 12.2286  80 
  -5   4   5 238.313 12.7687  28 
   5   4  -5 239.087 12.7994   3 
  -5   4   5 209.767 12.3773  30 
   5   4  -5 243.782 16.9039  10 
   5   4  -5 241.482 13.3359  30 
  -5   4   5 236.510 12.2462  29 
   5   4  -5 246.057 12.1073  32 
   5   4  -5 256.089 12.9967  28 
   5   4  -5 248.376 12.7881  29 
   5   4  -5 239.499 13.3040  39 
   5   4  -5 220.391 14.7103   7 
  -4  -4   5 197.119 11.5877  46 
  -4  -4   5 205.932 12.5115  48 
   4  -4  -5 222.379 11.3821  70 
   4  -4  -5 217.617 11.3727  46 
  -4  -4   5 199.359 13.0957  44 
   4   4  -5 216.726 11.3935  77 
   4   4  -5 245.774 13.4993  42 
   4   4  -5 236.240 13.7554  36 
  -4   4   5 223.739 11.3267  80 
   4   4  -5 210.180 14.1149  82 
   4   4  -5 207.562 12.4020  39 
   3  -4  -5 2.73868 1.42112  46 
  -3  -4   5 3.74975 1.50541  70 
  -3  -4   5 3.32696 2.20295  44 
   3  -4  -5 2.39196 1.12936  70 
  -3  -4   5 2.29355 2.44346  48 
  -3  -4   5 2.37403 1.99040  49 
  -3  -4   5 3.30053 1.66469  46 
   3   4  -5 -1.5960 6.05575  82 
   3   4  -5 4.40676 1.91549  77 
   3   4  -5 2.03231 3.83297  36 
   3   4  -5 3.78614 1.51234  35 
   3   4  -5 4.44355 2.89500  39 
  -3   4   5 1.45264 1.71126  80 
   3   4  -5 1.08712 3.77852  42 
   2  -4  -5 13.9640 1.68106  70 
   2  -4  -5 14.1901 1.95251  46 
   2  -4  -5 15.8955 1.95924  50 
  -2  -4   5 10.7920 2.21203  46 
  -2  -4   5 12.3387 2.52696  49 
  -2  -4   5 14.1831 3.99219  44 
  -2  -4   5 14.8920 3.41763  48 
  -2  -4   5 18.7403 3.57320  69 
  -2   4   5 13.9994 2.14743  80 
   2   4  -5 15.5541 4.81672  42 
   2   4  -5 10.8612 2.44592  35 
   2   4  -5 14.5782 4.01753  36 
   2   4  -5 19.4842 4.71662  39 
  -2   4   5 14.9430 3.98023  37 
   2   4  -5 19.3193 6.71723  82 
   1  -4  -5 81.3160 4.57945  70 
   1  -4  -5 81.9276 4.69250  50 
  -1  -4   5 74.8515 4.86508  46 
  -1  -4   5 81.6430 5.02298  49 
  -1  -4   5 79.0075 5.69714  48 
  -1  -4   5 85.2166 4.96323  70 
  -1  -4   5 77.4047 5.65295  69 
   1  -4  -5 75.8781 5.41019  69 
  -1  -4   5 82.5847 6.31784  44 
   1  -4  -5 83.3278 4.65782  46 
  -1   4   5 81.5450 4.70657  80 
  -1   4   5 77.9278 6.48798  37 
   1   4  -5 76.9704 5.59898  35 
   1   4  -5 90.1431 7.13260  42 
   1   4  -5 76.4374 6.50506  39 
   1   4  -5 77.7478 7.53696  36 
   1   4  -5 88.5712 5.25020  80 
   1   4  -5 77.6121 4.76859  35 
   1   4  -5 62.6133 8.72113  82 
   0  -4  -5 60.5426 5.94046  69 
   0  -4  -5 71.3526 4.17165  46 
   0  -4   5 70.6287 5.78690  44 
   0  -4   5 63.8927 4.36809  46 
   0  -4   5 74.6854 4.50053  49 
   0  -4  -5 73.3805 4.13912  70 
   0  -4   5 72.5410 5.16174  48 
   0  -4  -5 69.9315 4.26082  50 
   0  -4   5 65.9909 5.26816  69 
   0   4  -5 64.5869 4.56303  80 
   0   4  -5 67.1106 5.94374  39 
   0   4  -5 66.2485 6.77367  36 
   0   4  -5 67.9562 4.16932  35 
   0   4   5 78.6008 5.86452  37 
   0   4  -5 75.2134 6.15867  42 
   0   4   5 70.4522 4.32272  80 
   0   4  -5 64.3103 9.17715  82 
   0   4  -5 64.0675 4.17765  35 
  -1  -4  -5 23.5044 2.44168  46 
   1  -4   5 21.2214 2.72687  49 
   1  -4   5 20.0814 3.42299  48 
   1  -4   5 24.2341 2.64116  70 
   1  -4   5 21.4184 2.56956  46 
   1  -4   5 22.4655 4.11370  44 
  -1  -4  -5 21.6642 2.29810  70 
   1   4   5 23.3233 2.72654  80 
  -1   4  -5 22.4096 4.24941  39 
  -1   4  -5 21.1157 4.78161  36 
  -1   4  -5 26.1838 4.45330  42 
   1   4   5 18.6350 4.91501  43 
   1   4   5 27.8165 4.31429  37 
  -1   4  -5 24.4104 3.50010  80 
  -1   4  -5 24.1743 2.64324  35 
  -1   4  -5 21.8843 2.32068  35 
  -2  -4  -5 30.0168 4.14917  44 
   2  -4   5 29.2152 3.00745  70 
  -2  -4  -5 24.5630 2.61578  46 
   2  -4   5 25.2418 5.89238  74 
  -2  -4  -5 25.2241 2.61924  70 
   2  -4   5 26.1942 3.78252  48 
  -2  -4  -5 24.8342 3.51340  48 
   2  -4   5 23.0948 2.81959  46 
   2  -4   5 25.8650 4.50710  44 
   2   4   5 21.6511 5.59666  40 
   2   4   5 25.0579 3.31185  80 
   2   4   5 30.4327 5.49317  43 
  -2   4  -5 24.1662 4.96038  42 
  -2   4  -5 29.3492 3.17997  35 
  -2   4  -5 25.8735 2.69149  35 
   2   4   5 26.5457 4.33146  37 
  -3  -4  -5 75.1855 6.47380  44 
   3  -4   5 70.6888 6.29180  74 
   3  -4   5 67.8841 4.76786  46 
   3  -4   5 66.4084 5.76789  48 
  -3  -4  -5 62.1102 4.72023  46 
   3  -4   5 73.8852 6.68791  44 
  -3  -4  -5 64.4137 5.54162  48 
   3   4   5 72.9943 4.32685  35 
   3   4   5 65.3424 6.53824  40 
   3   4   5 67.2746 5.96226  37 
  -3   4  -5 68.8542 4.42646  35 
   3   4   5 67.2740 6.93998  43 
   3   4   5 75.0491 4.40890  35 
  -3   4  -5 74.2552 6.74488  42 
  -4  -4  -5 627.364 31.7510  44 
   4  -4   5 638.183 31.7507  44 
   4  -4   5 662.685 31.5318  74 
  -4   4  -5 583.698 30.6577  14 
   4   4   5 616.467 30.1648  31 
   4   4   5 550.751 30.1472  28 
  -4   4  -5 601.977 30.0511  30 
  -4   4  -5 608.643 30.6850   8 
  -4   4  -5 611.147 30.0189  29 
  -4   4  -5 561.046 30.7091  25 
   4   4   5 625.172 30.1610  30 
  -4   4  -5 575.320 30.0066  31 
  -4   4  -5 639.073 31.3764  42 
   4   4   5 645.138 32.1185  43 
   4   4   5 585.053 30.0335  35 
   4   4   5 626.091 29.9911  35 
  -4   4  -5 591.363 30.0658  28 
   4   4   5 612.112 31.4278  40 
  -4   4  -5 548.179 30.1041   7 
  -4   4  -5 619.328 29.9483  35 
   4   4   5 597.430 31.3712   7 
   4   4   5 577.863 30.1708  29 
  -5  -4  -5 53.2536 8.48819  79 
   5   4   5 49.7661 4.52223  30 
   5   4   5 45.2716 3.87854  35 
   5   4   5 46.2265 6.38586  40 
   5   4   5 49.3400 4.52782  28 
  -5   4  -5 50.9486 3.98926  28 
  -5   4  -5 43.5302 3.99116  35 
   5   4   5 53.8743 3.82818  35 
  -5   4  -5 52.3288 3.94027  29 
  -5   4  -5 44.2873 6.12345   6 
   5   4   5 52.9645 4.74781  31 
  -5   4  -5 50.5272 5.86343  25 
  -5   4  -5 49.6206 5.45749  14 
  -5   4  -5 49.7285 4.35131   7 
   5   4   5 53.3600 6.32312  43 
   5   4   5 52.9941 5.16916   7 
  -5   4  -5 49.1274 5.27710   8 
  -5   4  -5 53.2740 4.02020  30 
  -5   4  -5 54.4252 3.57211  35 
   5   4   5 45.9133 4.35075  29 
  -5   4  -5 49.4406 4.13930  31 
  -6  -4  -5 20.0073 3.61339  27 
   6  -4   5 12.5289 3.78568  27 
  -6   4  -5 16.3114 1.87306  35 
   6   4   5 16.4119 3.37375  29 
   6   4   5 17.4302 2.44532  35 
   6   4   5 14.6916 3.47041  31 
  -6   4  -5 21.5185 4.25003  14 
   6   4   5 12.3143 3.29603  40 
  -6   4  -5 17.7803 2.83745  28 
   6   4   5 17.6265 3.42689  30 
  -6   4  -5 17.8469 2.86356  30 
  -6   4  -5 20.6620 5.01521   6 
   6   4   5 13.9063 2.39638  35 
  -6   4  -5 18.8991 1.86296  35 
   6   4   5 17.0069 4.04154   7 
  -6   4  -5 18.0928 2.83424  31 
  -6   4  -5 19.4670 4.93467  25 
   6   4   5 13.1936 3.19845  28 
   6   4   5 17.7254 4.57045  38 
  -6   4  -5 17.7521 2.82154  29 
  -6   4  -5 19.4921 3.80975   8 
  -6   4  -5 16.9313 3.31209   7 
   7  -4   5 108.129 6.41005  27 
   7  -4   5 107.203 7.59197  24 
   7  -4   5 100.017 6.69037  33 
  -7  -4  -5 101.474 6.17707  27 
  -7   4  -5 104.202 5.92968  29 
  -7   4  -5 100.543 6.93641   6 
  -7   4  -5 105.599 5.95623  17 
  -7   4  -5 102.708 5.72534  31 
   7   4   5 96.8804 6.53811   7 
  -7   4  -5 111.501 6.37413   8 
   7   4   5 83.3934 10.2600  15 
  -7   4  -5 100.207 6.15660   7 
  -7   4  -5 99.3677 6.43785  14 
   7   4   5 95.1378 6.13398  31 
  -7   4  -5 103.950 5.86999  30 
  -7   4  -5 110.717 5.95886  28 
   7   4   5 102.492 6.14305  30 
   7   4   5 112.922 6.31713  28 
   7   4   5 106.434 6.58790  29 
  -7   4  -5 126.925 6.96284  25 
  -8  -5   5 17.4767 2.56946  27 
   8   5  -5 19.9912 2.40587  28 
  -8   5   5 18.4350 1.99164  26 
  -8   5   5 13.6345 1.66846  29 
   8   5  -5 17.4329 2.71751  29 
  -8   5   5 16.9297 1.60811  11 
   8   5  -5 18.6274 3.18070  10 
   8   5  -5 16.0583 2.91206  23 
  -7  -5   5 56.7533 4.45791  27 
   7   5  -5 57.3274 5.04221  10 
   7   5  -5 48.2181 5.17146  23 
   7   5  -5 45.5795 3.29584  30 
  -7   5   5 51.9757 3.31287  11 
   7   5  -5 55.6779 4.12451  28 
  -7   5   5 53.8288 3.34789  29 
  -7   5   5 52.1238 3.41173  28 
  -7   5   5 53.5470 3.35320  26 
   7   5  -5 54.4831 4.09964  29 
  -6  -5   5 27.1895 4.49559  27 
  -6   5   5 25.3780 2.60033  29 
   6   5  -5 21.8781 2.99321  30 
   6   5  -5 35.8613 3.47553  29 
  -6   5   5 28.0994 2.47260  26 
   6   5  -5 18.4684 5.14504  23 
   6   5  -5 28.4121 3.77065  28 
   6   5  -5 32.0541 4.76584  39 
  -6   5   5 27.0423 2.48635  11 
   6   5  -5 22.5272 4.97280  10 
   5   5  -5 304.536 17.0609  36 
   5   5  -5 304.731 16.6711  23 
  -5   5   5 290.533 14.9384  11 
   5   5  -5 305.588 15.0917  30 
  -5   5   5 298.861 14.9783  26 
   5   5  -5 311.599 16.3580  10 
  -5   5   5 281.919 14.7095  80 
   5   5  -5 309.427 15.3991  29 
   5   5  -5 300.868 15.4804  28 
  -5   5   5 276.260 14.9618  80 
   5   5  -5 302.650 16.4615  39 
  -5   5   5 299.315 14.9779  29 
  -4  -5   5 149.256 10.9235  44 
   4   5  -5 119.427 7.04152  28 
   4   5  -5 121.768 6.98820  29 
  -4   5   5 115.884 6.28512  26 
  -4   5   5 115.350 6.24170  11 
  -4   5   5 111.864 6.94006   9 
   4   5  -5 122.323 7.93151  80 
   4   5  -5 112.407 8.22021  10 
   4   5  -5 112.766 8.36591  39 
  -4   5   5 107.624 6.33659  29 
   4   5  -5 113.193 9.30311  36 
  -4   5   5 120.067 6.63254  12 
   4   5  -5 111.808 10.8210  82 
   4   5  -5 119.142 8.70273  23 
  -3  -5   5 52.8867 5.72728  44 
   3   5  -5 54.3431 4.14228  80 
   3   5  -5 52.3511 3.90378  11 
  -3   5   5 56.5188 3.62031  12 
  -3   5   5 52.0415 3.26273  11 
   3   5  -5 56.2754 8.40428  42 
  -3   5   5 54.8082 3.36851  26 
   3   5  -5 47.4748 6.05043  39 
   3   5  -5 49.9198 9.29832  82 
   3   5  -5 59.4326 7.23470  36 
   3   5  -5 56.1697 4.23280  29 
   3   5  -5 55.6992 4.50450  28 
  -3   5   5 53.9306 4.03356   9 
   3   5  -5 62.8016 6.44584  23 
   3   5  -5 57.4168 5.95323  10 
  -2  -5   5 28.3490 4.79936  44 
   2   5  -5 31.8023 3.18132  29 
   2   5  -5 23.9813 5.69902  23 
  -2   5   5 30.8668 2.85509   9 
   2   5  -5 30.4048 5.27836  39 
  -2   5   5 26.6332 2.10840  11 
   2   5  -5 27.8258 2.91535  11 
  -2   5   5 29.5097 2.36872  12 
   2   5  -5 32.5419 6.34158  36 
   2   5  -5 29.8349 3.00590  80 
   2   5  -5 23.2182 5.03930  42 
   2   5  -5 37.5311 8.96303  82 
  -2   5   5 33.1512 5.70308  21 
   2   5  -5 34.2433 4.25933  28 
  -2   5   5 28.1129 2.17633  26 
  -1  -5   5 168.791 10.5150  44 
   1   5  -5 155.510 11.2703  36 
   1   5  -5 162.725 10.6616  23 
   1   5  -5 165.949 8.90743  11 
  -1   5   5 169.885 8.54269  11 
  -1   5   5 171.668 10.4158  37 
   1   5  -5 175.200 8.97089  80 
   1   5  -5 164.307 10.3982  39 
  -1   5   5 178.966 11.3072  21 
  -1   5   5 166.335 8.99263   9 
  -1   5   5 168.690 8.78087  12 
  -1   5   5 169.183 8.60072  26 
   1   5  -5 164.417 10.8795  42 
   1   5  -5 171.588 9.01155  29 
   1   5  -5 169.217 8.93039  26 
   1   5  -5 173.835 13.1279  82 
   0   5   5 88.9010 5.36218   9 
   0   5   5 94.8750 5.24501  12 
   0   5   5 91.3243 7.11173  37 
   0   5  -5 86.8804 5.24897  26 
   0   5  -5 82.5884 7.39077  42 
   0   5  -5 96.8244 7.09758  39 
   0   5  -5 85.7346 5.36777  29 
   0   5  -5 95.6062 5.33996  80 
   0   5   5 87.8890 4.87588  11 
   0   5  -5 91.1698 5.24196  11 
   0   5  -5 87.0817 8.06791  36 
   0   5  -5 100.549 7.64917  23 
   0   5  -5 102.392 10.2314  82 
   0   5   5 83.8096 8.58953  21 
   1  -5   5 95.6624 7.43987  44 
   1   5   5 106.992 6.20164   9 
   1   5   5 106.670 5.71466  80 
   1   5   5 107.566 5.72676  11 
   1   5   5 103.070 5.91468  29 
  -1   5  -5 113.453 7.52390  39 
   1   5   5 107.459 9.19324  21 
  -1   5  -5 113.936 6.08189  80 
   1   5   5 96.0600 8.23959  43 
  -1   5  -5 113.589 8.63001  36 
   1   5   5 101.234 7.25546  37 
  -1   5  -5 103.212 5.89686  11 
  -1   5  -5 109.321 5.93703  26 
  -1   5  -5 105.022 8.00151  42 
   2  -5   5 93.4714 7.30973  44 
   2   5   5 101.957 8.28763  43 
  -2   5  -5 88.8546 5.61476  28 
  -2   5  -5 100.294 5.71016  29 
   2   5   5 104.529 7.26159  37 
  -2   5  -5 96.3891 7.64247  42 
  -2   5  -5 103.941 7.91095  36 
  -2   5  -5 100.390 5.73821  80 
   2   5   5 100.531 5.63080  80 
   2   5   5 109.507 8.69359  21 
  -2   5  -5 99.6784 5.52883  11 
  -2   5  -5 93.8981 7.09450   8 
   2   5   5 97.5417 5.77512  29 
   3   5   5 9.23005 3.83805  43 
  -3   5  -5 12.4397 2.43622  29 
   3   5   5 12.9431 2.82139  28 
  -3   5  -5 6.35231 2.01577  80 
   3   5   5 6.67700 2.10846  80 
  -3   5  -5 9.77527 2.61632  28 
  -3   5  -5 10.6677 1.88691  11 
  -3   5  -5 18.0880 4.44343   8 
   3   5   5 8.62745 3.32049  37 
   3   5   5 9.23368 2.38683  11 
   3   5   5 17.9653 5.09538  40 
  -3   5  -5 7.73224 3.69389  42 
   3   5   5 8.30941 1.91389  29 
   4   5   5 91.6950 5.35570  11 
   4   5   5 78.6545 5.45230  29 
  -4   5  -5 91.1969 5.13725  11 
  -4   5  -5 92.5930 5.26455  28 
  -4   5  -5 97.7544 6.56263   8 
   4   5   5 93.4871 7.37444  40 
   4   5   5 90.1446 5.50643  28 
  -4   5  -5 90.8349 5.29903  29 
  -5   5  -5 72.2771 4.56977  11 
  -5   5  -5 67.6773 5.58280  25 
  -5   5  -5 75.9743 4.35690  29 
   5   5   5 81.7818 4.70732  29 
   5   5   5 65.1053 4.60603  28 
  -5   5  -5 66.9322 4.32207  28 
  -5   5  -5 68.2205 5.49128   8 
  -6  -5  -5 116.257 6.55627  27 
   6  -5   5 118.152 6.58630  27 
  -6   5  -5 111.554 6.60807   8 
  -6   5  -5 116.428 6.20197  29 
   6   5   5 119.097 6.40987  28 
  -6   5  -5 118.000 6.14073  28 
  -6   5  -5 115.867 6.75153  25 
  -6   5  -5 108.467 6.94536  14 
   6   5   5 122.524 6.40611  29 
   5   6  -5 2.87272 1.22969  29 
   5   6  -5 4.97163 2.39588  10 
   5   6  -5 2.85704 1.41126  28 
   5   6  -5 4.46906 1.18371  26 
   5   6  -5 6.05615 1.33290  11 
  -5   6   5 3.88910 1.48306   9 
   5   6  -5 6.89361 2.49606  23 
   4   6  -5 84.5335 6.16763  10 
   4   6  -5 81.0239 4.61994  11 
   4   6  -5 88.7059 6.49814  23 
  -4   6   5 83.3962 4.64913   9 
   4   6  -5 80.6973 4.68691  26 
   4   6  -5 86.8884 4.75961  29 
   3   6  -5 23.2251 2.18504  26 
   3   6  -5 26.3504 4.78042  23 
   3   6  -5 20.0627 4.83341  39 
   3   6  -5 28.1931 4.83498  10 
  -3   6   5 21.1951 1.88943   9 
   3   6  -5 25.9974 2.03064  11 
   3   6  -5 15.4974 4.85385  36 
   3   6  -5 21.5017 2.26057  29 
   2   6  -5 68.3769 3.66289  11 
  -2   6   5 53.7394 4.07843   9 
   2   6  -5 70.7599 4.09511  12 
   2   6  -5 67.1081 3.75292  26 
  -2   6   5 67.2371 3.66986   9 
   2   6  -5 62.5098 3.81741  29 
   2   6  -5 62.9112 6.48178  36 
   2   6  -5 74.8141 6.12786  23 
   2   6  -5 72.0056 6.09448  39 
   2   6  -5 60.4171 4.61284   9 
   1   6  -5 2.33443 4.83391  82 
   1   6  -5 10.8154 2.31854   9 
   1   6  -5 13.1429 4.86343  36 
   1   6  -5 11.1172 1.55455  26 
   1   6  -5 10.6437 1.45333  11 
  -1   6   5 6.59367 3.60505  21 
  -1   6   5 11.1361 1.51555   9 
  -1   6   5 6.39444 2.90097  37 
   1   6  -5 11.8118 3.32109  39 
   1   6  -5 11.5443 1.76722  12 
   0   6   5 40.1597 6.39604  21 
   0   6   5 27.6169 4.50439  37 
   0   6  -5 44.7024 2.95208  29 
   0   6   5 41.0709 2.89809   9 
   0   6  -5 45.6936 2.69147  26 
   0   6  -5 44.6275 2.53545  11 
   0   6  -5 40.9667 4.74905  39 
   0   6  -5 44.0592 2.84349  12 
   0   6  -5 44.7677 5.51167  36 
   0   6  -5 42.8230 3.23776   9 
  -1   6  -5 18.3460 1.78595  12 
   1   6   5 15.3687 1.29709  12 
  -1   6  -5 19.9675 2.27199   9 
   1   6   5 17.4878 2.04733   9 
   1   6   5 9.11661 3.62653  21 
  -1   6  -5 15.4179 1.36246  11 
  -1   6  -5 18.1282 1.57858  26 
   1   6   5 13.6363 1.29942  12 
  -2   6  -5 6.36590 0.98568  11 
  -2   6  -5 8.64219 1.29070  26 
   2   6   5 7.58590 1.49422  12 
  -2   6  -5 6.38321 1.88427   9 
  -2   6  -5 7.26727 1.55524  29 
   2   6   5 4.61888 1.38683  12 
   2   6   5 5.31951 1.49945   9 
  -2   6  -5 7.24953 1.46904  12 
  -3   6  -5 126.893 5.86397  12 
  -3   6  -5 116.766 5.68365  26 
  -3   6  -5 103.213 6.19184   9 
  -3   6  -5 97.1797 6.50820   8 
   3   6   5 114.575 5.84407  12 
   3   6   5 119.950 6.32540   9 
   3   6   5 96.4839 5.84936  12 
  -4   6  -5 104.229 5.19851  26 
   4   6   5 104.294 5.41261  12 
  -4   6  -5 107.560 5.36920  12 
   4   6   5 100.595 5.62701  12 
  -4   6  -5 99.7004 6.03992   8 
 -11   0   6 13.7168 3.15449  16 
 -11   0   6 15.5629 4.02648   2 
  11   0  -6 12.2969 3.72337  20 
  11   0  -6 17.3637 4.87405  19 
 -11   0   6 13.1390 3.75965   4 
 -11   0   6 14.9222 3.38785  13 
  11   0  -6 11.8383 3.33723  10 
  11   0  -6 16.8964 3.24449  18 
  10   0  -6 0.90386 2.41669  10 
 -10   0   6 5.22533 2.89146  13 
 -10   0   6 5.24100 4.43792  83 
 -10   0   6 1.90324 3.17829   2 
  10   0  -6 2.15342 2.68147  19 
 -10   0   6 1.30493 2.87692   4 
  10   0  -6 3.37638 3.38953  20 
  10   0  -6 4.23361 3.05904  18 
  -9   0   6 6.31622 3.07031  18 
  -9   0   6 8.05589 5.29816  83 
   9   0  -6 10.5339 4.02295  20 
  -9   0   6 10.7736 3.38971  13 
  -9   0   6 18.4800 4.62751  14 
   9   0  -6 4.49768 3.93489  41 
   9   0  -6 14.7839 3.83851  18 
   9   0  -6 14.7434 3.55936  19 
  -9   0   6 11.9169 3.73966   2 
  -9   0   6 4.96321 2.04685  15 
  -9   0   6 9.00829 3.11596   4 
   9   0  -6 6.88576 3.01232  81 
   9   0  -6 2.31853 2.68890  76 
   9   0  -6 12.8870 4.56013  78 
   8   0  -6 361.194 18.1735  78 
  -8   0   6 326.341 17.4298  81 
   8   0  -6 298.375 26.6787  72 
  -8   0   6 337.548 18.6593  83 
   8   0  -6 328.023 18.0294  41 
  -8   0   6 315.783 18.0069  74 
   8   0  -6 332.673 21.5703  76 
  -8   0   6 343.171 17.9562  78 
   8   0  -6 317.731 18.0565  33 
  -8   0   6 339.575 17.9883  47 
   8   0  -6 294.489 17.8741  45 
  -7   0   6 370.271 19.6056  47 
  -7   0   6 352.447 21.3672  76 
   7   0  -6 382.184 19.4461  75 
  -7   0   6 359.708 19.5618  81 
   7   0  -6 360.726 19.0996  71 
  -7   0   6 411.360 19.8371  78 
   7   0  -6 361.672 20.2358  79 
   7   0  -6 349.906 19.4268  41 
   7   0  -6 364.602 29.2670  72 
   7   0  -6 318.249 19.3527  45 
   7   0  -6 416.763 19.7708  78 
  -7   0   6 345.052 19.6873  74 
  -7   0   6 351.857 20.2551  83 
   6   0  -6 59.4799 5.35423  41 
   6   0  -6 61.8354 5.85355  78 
  -6   0   6 57.8322 5.59997  81 
  -6   0   6 58.7491 5.53464  78 
   6   0  -6 68.9787 13.6239  72 
  -6   0   6 64.0795 5.13906  47 
   6   0  -6 55.3866 4.98650  75 
  -6   0   6 58.3218 8.50510  76 
   6   0  -6 63.3468 4.76417  71 
   6   0  -6 56.9211 5.96728  79 
   6   0  -6 56.2227 5.14691  45 
  -6   0   6 59.0945 6.90525  83 
  -6   0   6 61.5008 5.18772  74 
   5   0  -6 59.5575 5.81227  79 
   5   0  -6 58.2560 7.39392  67 
  -5   0   6 65.4342 7.71442  67 
   5   0  -6 52.6630 6.58484  41 
   5   0  -6 71.5901 12.6234  72 
  -5   0   6 63.0874 4.68742  47 
   5   0  -6 67.5630 5.06586  45 
  -5   0   6 57.1199 4.82414  74 
   5   0  -6 57.9962 5.03856  75 
  -5   0   6 60.7672 8.74464  76 
  -5   0   6 69.3224 5.46227  78 
   5   0  -6 68.8921 4.82439  71 
   5   0  -6 67.1114 5.16695  78 
   4   0  -6 269.563 13.6324  71 
  -4   0   6 266.188 13.9131  74 
  -4   0   6 231.513 14.9365  78 
  -4   0   6 259.669 16.6135  67 
  -4   0   6 250.879 20.7858  72 
   4   0  -6 266.101 16.6313  67 
   4   0  -6 262.988 15.2930  55 
   4   0  -6 269.786 13.9011  75 
   4   0  -6 271.378 15.8599  48 
   4   0  -6 260.566 13.9000  45 
  -4   0   6 260.703 13.7714  47 
   3   0  -6 81.9545 8.01000  67 
   3   0  -6 114.325 6.94098  48 
   3   0  -6 110.293 6.15574  45 
   3   0  -6 104.755 5.86606  71 
  -3   0   6 98.7245 5.88217  71 
   3   0  -6 102.973 7.45499  55 
  -3   0   6 97.5118 5.95322  47 
  -3   0   6 95.0601 6.09986  74 
  -3   0   6 108.058 9.11877  67 
   3   0  -6 76.9731 8.02448  65 
  -3   0   6 103.998 5.93648  45 
  -3   0   6 110.366 6.08704  53 
   3   0  -6 93.0000 6.03183  63 
  -2   0   6 63.8041 5.09966  55 
   2   0  -6 51.8220 3.89552  45 
   2   0  -6 47.0445 5.44338  57 
  -2   0   6 57.6796 4.00140  74 
  -2   0   6 46.9523 3.66158  45 
  -2   0   6 54.6749 3.72553  53 
   2   0  -6 49.0351 3.85770  63 
   2   0  -6 56.5853 5.07889  65 
   2   0  -6 53.6231 3.91927  71 
   2   0  -6 52.5526 5.13739  55 
  -2   0   6 41.5945 6.10284  58 
   2   0  -6 50.8241 4.73512  48 
   2   0  -6 55.7034 6.48990  67 
  -2   0   6 60.3857 6.77634  67 
  -2   0   6 48.2888 3.59861  71 
  -1   0   6 57.9185 6.74401  67 
   1   0  -6 58.5733 4.88473  57 
   1   0  -6 62.7736 5.51184  65 
  -1   0   6 51.1530 3.74391  45 
   1   0  -6 59.2018 4.26286  45 
  -1   0   6 47.8054 6.24167  58 
   1   0  -6 51.9700 4.31509  48 
  -1   0   6 58.2909 3.88121  53 
   1   0  -6 65.9762 4.29860  63 
   1   0  -6 55.9137 5.22621  55 
   1   0  -6 65.0153 6.61918  67 
  -1   0   6 57.0650 5.10228  55 
   1   0  -6 67.0670 3.91435  71 
   0   0   6 319.715 16.9041  55 
   0   0   6 333.935 18.8737  67 
   0   0  -6 285.341 16.2827  48 
   0   0   6 294.864 16.0422  71 
   0   0   6 333.904 19.2829  58 
   0   0  -6 334.375 17.2005  55 
   0   0  -6 301.155 15.9491  71 
   0   0   6 280.009 15.9229  45 
   0   0  -6 314.542 15.9858  45 
   0   0  -6 331.933 18.6440  67 
   0   0  -6 344.745 17.1401  57 
   0   0  -6 309.882 17.3081  65 
   0   0   6 309.595 23.0711  72 
   0   0  -6 326.893 16.2959  63 
  -1   0  -6 1705.40 80.2708  45 
   1   0   6 1640.59 80.2856  71 
   1   0   6 1550.39 80.2018  45 
  -1   0  -6 1661.00 80.2251  71 
   1   0   6 1591.22 81.2194  55 
   1   0   6 1680.81 87.1062  72 
   1   0   6 1522.74 82.7609  67 
  -1   0  -6 1736.70 80.5615  63 
  -1   0  -6 1666.95 82.9814  67 
   2   0   6 1210.99 61.4579  67 
   2   0   6 1130.26 58.3135  75 
  -2   0  -6 1163.23 58.0797  45 
  -2   0  -6 1282.82 59.5383  55 
   2   0   6 1101.10 58.1284  71 
  -2   0  -6 1188.17 58.2840  75 
   2   0   6 1227.65 59.3558  55 
   2   0   6 1191.60 58.1044  45 
  -2   0  -6 1157.52 58.0553  71 
   2   0   6 1200.18 65.6614  72 
  -2   0  -6 1142.10 61.0626  67 
   3   0   6 162.724 9.79427  78 
   3   0   6 170.684 9.27900  45 
  -3   0  -6 167.709 9.12368  45 
   3   0   6 142.983 9.43086  75 
  -3   0  -6 168.085 9.47227  75 
   3   0   6 181.364 12.9717  76 
  -3   0  -6 147.474 12.3169  67 
  -3   0  -6 160.058 9.11383  71 
   3   0   6 184.783 18.0155  72 
  -3   0  -6 167.500 9.56360  78 
   4   0   6 7.04526 3.58322  78 
  -4   0  -6 1.75645 2.49284  76 
  -4   0  -6 5.59134 4.02895  75 
   4   0   6 6.19192 2.14114  45 
  -4   0  -6 5.31999 1.67263  45 
  -4   0  -6 8.04368 3.03492  78 
   5   0   6 212.467 12.7187  34 
  -5   0  -6 229.519 12.9511  78 
  -5   0  -6 213.935 16.1915  76 
   5   0   6 192.552 24.2738  72 
   5   0   6 228.121 12.6029  38 
   5   0   6 244.582 12.5060  40 
   5   0   6 205.014 16.0762  76 
   5   0   6 239.610 13.4387  78 
   6   0   6 37.0755 20.0954  72 
   6   0   6 75.8517 7.50487  81 
   6   0   6 77.5141 6.50455  40 
   6   0   6 61.5429 5.91176  34 
   6   0   6 62.2712 6.96019  78 
  -6   0  -6 56.0930 9.55556  83 
   6   0   6 71.3276 6.37402  38 
   6   0   6 46.8112 11.1596  76 
  -6   0  -6 69.4536 9.44883  76 
  -6   0  -6 79.8445 6.72074  78 
   7   0   6 2.75515 2.98431  81 
  -7   0  -6 1.48531 4.38967  83 
  -7   0  -6 3.87428 2.16618  19 
   7   0   6 -0.9547 3.66246  38 
   7   0   6 2.71335 3.33951  20 
   7   0   6 0.12270 3.59770  78 
  -7   0  -6 3.65944 2.87792  20 
   7   0   6 4.83371 2.74996  19 
  -7   0  -6 2.12943 3.03106  78 
  -7   0  -6 4.05068 2.75402   5 
  -7   0  -6 0.86270 1.83455  76 
   7   0   6 4.53995 2.87345  18 
   7   0   6 2.77018 2.78714  40 
  -7   0  -6 0.25291 2.47475  18 
  -8   0  -6 10.6454 2.72199   5 
   8   0   6 5.29481 2.33676  19 
  -8   0  -6 12.0847 2.67252   4 
  -8   0  -6 5.65683 2.37602  13 
   8   0   6 13.3521 3.85796  18 
  -8   0  -6 13.5186 3.32141  18 
  -8   0  -6 8.27922 3.95861  83 
  -8   0  -6 16.4827 4.19483  20 
   8   0   6 11.9091 3.22482  20 
   8   0   6 14.2366 4.94018  38 
  -9   0  -6 -0.0734 1.94074   4 
  -9   0  -6 -2.1921 1.83538  13 
   9   0   6 0.04854 2.15448  13 
  -9   0  -6 2.35160 2.16305   2 
   9   0   6 3.85514 2.76235  20 
  -9   0  -6 -0.4715 1.61194   5 
  11  -1  -6 10.6233 3.31850  18 
  11  -1  -6 5.23267 1.72648  10 
  11  -1  -6 1.68570 2.43693  20 
 -11  -1   6 7.26297 2.14200  13 
  11  -1  -6 2.13445 1.98865  19 
 -11   1   6 3.59939 1.23022  16 
 -11   1   6 2.68676 1.68686   3 
 -11   1   6 4.79038 1.81354   1 
 -11   1   6 6.77638 2.28889   7 
 -11   1   6 4.92498 2.07139   2 
 -11   1   6 4.60017 2.00835  14 
 -11   1   6 4.51592 2.02624   4 
  11   1  -6 3.37806 2.19701  23 
 -11   1   6 4.83045 1.93268  31 
  11   1  -6 3.63654 2.16751   4 
 -11   1   6 1.33644 1.46413   5 
 -11   1   6 5.21315 1.53980  13 
  11   1  -6 9.91102 2.96639  10 
 -11   1   6 4.30990 1.22806  22 
 -11   1   6 3.51398 2.43851  32 
  11   1  -6 2.39117 2.27870  13 
  10  -1  -6 44.0933 5.24176  19 
  10  -1  -6 46.8722 5.52458  18 
  10  -1  -6 36.7767 5.43926  33 
 -10  -1   6 36.4490 5.13618  20 
 -10  -1   6 35.7781 4.15951  19 
  10  -1  -6 39.7222 6.11801  20 
 -10  -1   6 38.6650 4.37029  18 
  10   1  -6 45.5910 5.99248  13 
  10   1  -6 34.8346 5.49643   4 
 -10   1   6 36.8643 5.24138   7 
 -10   1   6 55.3598 7.12887  83 
 -10   1   6 43.4961 4.86405   5 
 -10   1   6 36.0571 4.79598  31 
 -10   1   6 37.5301 5.14066   4 
 -10   1   6 41.7118 5.28086   2 
 -10   1   6 36.5864 4.57360  13 
 -10   1   6 36.6939 4.76492  14 
 -10   1   6 43.9949 4.80708  15 
  10   1  -6 41.9528 5.32142  10 
 -10   1   6 46.0806 4.45405  16 
 -10   1   6 36.3928 4.46166   3 
   9  -1  -6 6.92039 3.90102  41 
   9  -1  -6 -0.0792 3.56598  33 
  -9  -1   6 0.77194 2.93721  19 
  -9  -1   6 2.47981 2.31168  76 
  -9  -1   6 5.55142 3.81431  78 
   9  -1  -6 -0.1457 3.74323  79 
  -9  -1   6 5.55718 3.09998  18 
   9  -1  -6 0.54508 3.52168  18 
  -9  -1   6 -4.3225 3.32328  20 
   9  -1  -6 -3.8371 3.29188  24 
   9  -1  -6 0.57894 2.51226  27 
   9  -1  -6 -0.4767 3.74326  20 
  -9  -1   6 2.89906 2.73519  81 
   9  -1  -6 -0.0998 3.12096  19 
   9   1  -6 2.52884 3.64321   4 
  -9   1   6 2.47688 2.48226   5 
  -9   1   6 3.75884 3.36958   7 
   9   1  -6 -0.5415 3.49613  13 
  -9   1   6 -4.0007 2.63699  15 
   9   1  -6 -2.9060 3.43481  20 
   9   1  -6 5.70514 3.14326  18 
  -9   1   6 5.53739 3.22498   2 
   9   1  -6 2.76629 2.83809  19 
  -9   1   6 -3.9418 4.23937  83 
   9   1  -6 3.23622 3.19354  10 
  -9   1   6 0.28807 3.08655   4 
  -9   1   6 5.39641 2.75449   3 
  -9   1   6 2.84894 2.72052  16 
  -9   1   6 4.59377 2.79264  13 
   9   1  -6 -0.6207 4.05198  41 
   9   1  -6 0.34960 1.82775  81 
  -9   1   6 1.00273 2.84223  14 
  -9   1   6 0.12276 4.34853  31 
   9   1  -6 0.27083 3.36952  78 
   8  -1  -6 245.057 15.1874  24 
   8  -1  -6 251.258 14.5823  33 
  -8  -1   6 273.672 14.4735  78 
  -8  -1   6 257.433 14.1117  74 
   8  -1  -6 187.091 16.0458  19 
  -8  -1   6 233.801 13.9235  18 
   8  -1  -6 207.846 15.8854  18 
  -8  -1   6 255.329 17.8424  76 
   8  -1  -6 214.410 13.5868  27 
   8  -1  -6 258.351 14.6848  79 
   8  -1  -6 266.213 13.9487  75 
  -8  -1   6 257.237 14.5808  20 
   8  -1  -6 211.562 13.6731  45 
   8  -1  -6 238.819 13.4279  71 
   8  -1  -6 248.707 13.9196  41 
  -8  -1   6 240.950 13.9708  19 
  -8  -1   6 260.048 15.2084  81 
  -8   1   6 275.038 14.8644  83 
   8   1  -6 260.124 13.7233  81 
   8   1  -6 205.451 14.3513  19 
   8   1  -6 290.011 17.2673  73 
   8   1  -6 205.394 13.6938  18 
   8   1  -6 192.218 14.3527  10 
  -8   1   6 256.741 14.3246  74 
   8   1  -6 243.492 14.2570  41 
   8   1  -6 210.171 14.9702  20 
  -8   1   6 212.024 13.5368   4 
   8   1  -6 248.032 13.9485  78 
   8   1  -6 249.156 14.4988  83 
   8   1  -6 232.043 13.9212  15 
  -8   1   6 281.460 14.6034   5 
   8   1  -6 211.677 14.6038  76 
  -8   1   6 249.871 13.7162  14 
  -8   1   6 266.169 14.0850  47 
  -8   1   6 248.025 15.0848  15 
  -8   1   6 278.375 14.3237   2 
  -8   1   6 212.228 13.4292  13 
  -7  -1   6 195.684 17.5770  76 
  -7  -1   6 196.403 11.6800  78 
  -7  -1   6 180.174 10.9608  47 
   7  -1  -6 171.088 11.5577  79 
   7  -1  -6 157.136 11.7438  48 
   7  -1  -6 182.840 10.5692  71 
   7  -1  -6 181.591 11.0483  45 
   7  -1  -6 181.929 11.2031  41 
  -7  -1   6 177.393 11.0056  75 
  -7  -1   6 156.075 10.4480  45 
   7  -1  -6 206.960 11.1825  75 
  -7  -1   6 187.972 11.2086  74 
   7   1  -6 179.311 10.9199  78 
  -7   1   6 194.859 12.0851  83 
   7   1  -6 194.829 11.2788  81 
   7   1  -6 214.540 12.1907  83 
   7   1  -6 186.492 11.4728  41 
  -7   1   6 168.245 10.8142  47 
   7   1  -6 172.298 17.3942  72 
  -7   1   6 192.100 11.4868  74 
   7   1  -6 178.017 13.2435  76 
  -7   1   6 177.715 10.5593  78 
   6  -1  -6 75.2232 6.01278  45 
   6  -1  -6 68.7214 5.61193  75 
  -6  -1   6 73.3404 5.45875  47 
  -6  -1   6 66.7401 5.35392  45 
   6  -1  -6 85.7649 5.68622  71 
  -6  -1   6 96.4018 16.9847  72 
   6  -1  -6 101.799 8.81000  44 
  -6  -1   6 77.4781 5.82047  75 
   6  -1  -6 66.0161 6.77640  48 
   6  -1  -6 78.2519 6.99878  79 
  -6  -1   6 70.2747 5.28269  71 
  -6  -1   6 68.9703 6.26907  78 
  -6  -1   6 81.2242 6.08542  74 
  -6   1   6 64.4342 5.65205  78 
   6   1  -6 65.0351 6.06306  41 
  -6   1   6 79.3868 6.70072  83 
   6   1  -6 71.2591 6.76248  83 
   6   1  -6 70.0061 12.0248  72 
  -6   1   6 74.1406 7.26441  77 
   6   1  -6 73.5917 6.59688  81 
   6   1  -6 77.8219 6.12084  78 
  -6   1   6 69.8973 5.64839  47 
  -6   1   6 76.4361 6.07726  74 
   6   1  -6 74.1733 8.91787  76 
   5  -1  -6 355.529 19.2941  44 
   5  -1  -6 324.663 18.6174  79 
  -5  -1   6 346.905 18.2374  75 
  -5  -1   6 369.007 17.9811  71 
  -5  -1   6 352.817 18.2546  74 
  -5  -1   6 348.394 18.0436  45 
   5  -1  -6 339.131 18.0678  75 
  -5  -1   6 334.685 18.0812  47 
   5  -1  -6 347.425 18.7352  48 
   5  -1  -6 383.064 17.8954  71 
  -5  -1   6 325.528 28.5135  72 
   5  -1  -6 366.816 18.2698  45 
  -5  -1   6 355.965 18.5721  78 
   5   1  -6 345.634 18.1447  78 
   5   1  -6 329.264 18.2133  41 
  -5   1   6 363.850 18.3347  47 
  -5   1   6 341.879 18.1629  51 
  -5   1   6 315.205 17.9943  78 
  -5   1   6 338.583 17.4598  81 
   5   1  -6 334.887 23.7582  72 
   5   1  -6 348.368 21.0983  67 
  -5   1   6 361.245 18.2060  77 
  -5   1   6 353.710 18.3987  74 
   5   1  -6 353.442 20.2636  76 
   5   1  -6 342.147 18.4339  81 
   4  -1  -6 43.7169 3.43564  71 
  -4  -1   6 46.2633 4.43952  48 
   4  -1  -6 40.5428 5.33756  44 
   4  -1  -6 47.4086 5.20349  65 
  -4  -1   6 44.5705 3.86279  74 
   4  -1  -6 41.7406 3.82297  45 
  -4  -1   6 39.9658 3.81691  75 
   4  -1  -6 42.2525 6.15336  67 
   4  -1  -6 42.8124 4.11868  75 
   4  -1  -6 45.2306 4.73827  48 
  -4  -1   6 42.9890 3.59477  45 
  -4  -1   6 47.3704 6.66219  67 
  -4  -1   6 38.1389 3.46318  71 
  -4   1   6 38.5399 3.77781  47 
   4   1  -6 41.5893 9.09604  72 
  -4   1   6 44.4073 5.99354  55 
  -4   1   6 44.3722 3.85287  74 
  -4   1   6 46.2045 3.09277  53 
   4   1  -6 45.7065 3.77411  53 
   4   1  -6 43.2909 4.00854  78 
  -4   1   6 34.2087 5.95794  77 
   4   1  -6 38.1046 5.76033  67 
   4   1  -6 46.4929 6.80197  76 
  -4   1   6 39.4649 3.93709  78 
   4   1  -6 36.7201 5.29702  55 
  -4   1   6 44.8862 3.64954  51 
  -3  -1   6 1326.42 66.3081  74 
   3  -1  -6 1412.52 66.1536  45 
  -3  -1   6 1338.18 67.6980  65 
   3  -1  -6 1420.53 68.7228  67 
   3  -1  -6 1298.20 66.6841  44 
   3  -1  -6 1301.93 67.3579  65 
   3  -1  -6 1351.66 66.1272  75 
  -3  -1   6 1384.46 66.5658  48 
   3  -1  -6 1371.57 65.9724  71 
  -3  -1   6 1377.28 66.1222  45 
  -3  -1   6 1302.78 69.0618  67 
   3  -1  -6 1284.36 66.4124  48 
  -3  -1   6 1272.31 66.0593  71 
  -3   1   6 1300.81 66.2732  47 
  -3   1   6 1451.53 67.9221  68 
   3   1  -6 1297.86 66.2225  53 
  -3   1   6 1339.73 66.2585  74 
   3   1  -6 1364.26 67.1883  55 
  -3   1   6 1390.81 65.8973  53 
   3   1  -6 1328.90 70.5151  72 
   3   1  -6 1395.24 68.5724  67 
  -3   1   6 1297.99 66.4498  55 
  -2  -1   6 172.114 10.8336  65 
  -2  -1   6 195.178 10.1290  48 
   2  -1  -6 189.945 10.8792  65 
   2  -1  -6 151.499 11.4712  67 
  -2  -1   6 161.372 9.39987  49 
  -2  -1   6 173.089 9.50363  45 
  -2  -1   6 179.919 9.72610  74 
   2  -1  -6 167.125 9.47798  45 
  -2  -1   6 175.695 12.4870  67 
   2  -1  -6 173.054 9.35622  46 
   2  -1  -6 172.189 10.0466  48 
   2  -1  -6 173.021 9.38856  71 
  -2  -1   6 179.435 9.83824  63 
   2   1  -6 167.837 9.81780  51 
  -2   1   6 174.701 10.2764  73 
   2   1  -6 179.963 9.65240  53 
  -2   1   6 183.685 9.61771  51 
   2   1  -6 182.896 10.5538  55 
  -2   1   6 191.610 9.96726  55 
  -2   1   6 177.218 9.23107  53 
  -2   1   6 201.090 11.2577  68 
   2   1  -6 195.738 11.9962  67 
  -1  -1   6 480.562 24.4634  45 
   1  -1  -6 507.017 25.7543  65 
   1  -1  -6 483.445 24.4712  45 
  -1  -1   6 522.844 27.5425  67 
  -1  -1   6 490.399 25.5468  55 
   1  -1  -6 465.944 24.3246  46 
  -1  -1   6 457.423 24.7435  63 
  -1  -1   6 527.086 24.4464  49 
  -1  -1   6 450.312 25.8048  65 
   1  -1  -6 511.643 24.8658  48 
  -1  -1   6 462.090 24.6341  74 
  -1  -1   6 476.613 24.8588  48 
   1  -1  -6 438.369 26.5332  67 
   1  -1  -6 473.272 24.4078  71 
   1   1  -6 507.952 25.3993  55 
   1   1  -6 515.414 24.6048  53 
   1   1  -6 501.754 26.6449  67 
  -1   1   6 479.030 24.9115  73 
  -1   1   6 502.188 24.3134  53 
   1   1  -6 493.192 24.8127  51 
  -1   1   6 504.138 24.5525  51 
  -1   1   6 473.318 25.9702  68 
  -1   1   6 529.620 25.0044  55 
   0  -1   6 1165.26 57.5702  49 
   0  -1   6 1150.27 58.6406  55 
   0  -1   6 1135.95 57.8503  74 
   0  -1   6 1186.19 57.7302  71 
   0  -1  -6 1211.85 60.2333  67 
   0  -1   6 1110.11 58.0165  63 
   0  -1   6 1213.65 57.6724  45 
   0  -1   6 1195.93 58.0307  48 
   0  -1  -6 1221.39 57.6400  45 
   0  -1  -6 1090.97 57.5462  71 
   0  -1  -6 1179.40 57.9691  48 
   0  -1   6 1155.68 59.1082  65 
   0  -1  -6 1132.57 58.7871  65 
   0  -1   6 1164.28 60.4357  67 
   0   1   6 1236.40 57.5366  53 
   0   1  -6 1216.17 59.8869  67 
   0   1  -6 1266.42 58.6450  55 
   0   1   6 1071.49 57.9916  73 
   0   1   6 1188.93 57.7408  51 
   0   1   6 1109.62 58.1268  55 
   0   1  -6 1275.00 57.8029  53 
   0   1   6 1089.09 59.1481  68 
   0   1  -6 1226.17 58.9231  52 
   0   1  -6 1169.97 57.9632  51 
  -1  -1  -6 16.7029 2.60561  75 
   1  -1   6 15.5947 2.45547  49 
  -1  -1  -6 15.6061 2.65857  48 
  -1  -1  -6 21.1391 3.67298  65 
   1  -1   6 14.9232 2.22561  45 
   1  -1   6 15.5906 5.16432  67 
   1  -1   6 16.1315 3.99885  65 
   1  -1   6 13.9750 2.98010  75 
   1  -1   6 16.3191 3.39779  55 
   1  -1   6 16.1482 3.01543  48 
  -1  -1  -6 17.2073 2.38003  71 
  -1  -1  -6 15.3810 3.15328  44 
  -1  -1  -6 19.1247 4.89699  67 
  -1  -1  -6 16.8934 2.30905  45 
   1  -1   6 13.2922 2.66351  74 
   1  -1   6 16.1670 2.89716  71 
   1   1   6 13.5219 3.86504  73 
  -1   1  -6 17.9696 4.59907  67 
  -1   1  -6 19.9674 3.02584  55 
   1   1   6 17.0830 2.52209  51 
   1   1   6 15.2234 2.08766  53 
  -1   1  -6 18.1044 3.31389  52 
  -1   1  -6 14.9122 2.51840  53 
   1   1   6 14.5968 3.78857  68 
  -1   1  -6 16.5607 2.79164  51 
   1   1   6 15.0284 3.29900  55 
  -2  -1  -6 558.038 27.9254  45 
   2  -1   6 581.103 27.9898  45 
  -2  -1  -6 534.006 27.9036  71 
  -2  -1  -6 602.994 31.4384  67 
   2  -1   6 569.471 28.2606  75 
   2  -1   6 548.375 29.3597  55 
   2  -1   6 591.985 28.4097  49 
   2  -1   6 562.881 28.7266  44 
  -2  -1  -6 543.009 28.1081  75 
   2  -1   6 634.638 32.0260  67 
  -2  -1  -6 594.153 28.7265  44 
   2  -1   6 513.947 27.9989  71 
  -2  -1  -6 614.334 29.8784  65 
   2  -1   6 561.967 28.4095  48 
  -2  -1  -6 550.016 28.3198  48 
   2  -1   6 548.096 29.8808  65 
   2   1   6 532.362 28.6985  55 
  -2   1  -6 583.302 29.8405  76 
  -2   1  -6 544.003 28.1092  78 
   2   1   6 573.847 27.9019  53 
  -2   1  -6 565.072 30.7842  67 
   2   1   6 586.336 28.8128  73 
   2   1   6 467.655 28.0537  51 
   2   1   6 460.084 30.2582  68 
  -2   1  -6 560.055 28.3524  51 
   2   1   6 543.366 29.2225  76 
   2   1   6 557.071 28.1851  78 
  -3  -1  -6 201.717 10.7308  75 
   3  -1   6 198.653 11.0262  75 
   3  -1   6 170.065 11.5170  79 
  -3  -1  -6 200.924 10.9532  48 
  -3  -1  -6 185.606 11.3050  44 
  -3  -1  -6 212.814 10.4424  45 
  -3  -1  -6 181.788 11.4851  79 
  -3  -1  -6 208.528 10.5083  71 
   3  -1   6 213.654 10.8277  71 
   3  -1   6 200.315 11.1365  48 
   3  -1   6 199.182 10.4839  45 
   3   1   6 194.283 10.9485  81 
  -3   1  -6 173.670 12.2328  76 
   3   1   6 189.629 11.7578  73 
  -3   1  -6 196.324 10.6798  78 
   3   1   6 181.973 12.3261  76 
   3   1   6 179.162 10.8075  78 
   3   1   6 167.317 10.6313  51 
  -4  -1  -6 11.7091 4.45959  48 
   4  -1   6 20.7766 3.91597  71 
  -4  -1  -6 13.4661 2.54056  45 
  -4  -1  -6 11.5365 3.53244  75 
  -4  -1  -6 18.5973 4.44316  79 
   4  -1   6 10.0307 2.57200  45 
   4  -1   6 12.9900 4.85410  79 
   4  -1   6 16.4254 4.23171  75 
   4  -1   6 18.7546 5.17042  38 
  -4  -1  -6 14.8442 3.25749  71 
   4   1   6 18.4765 3.77201  40 
  -4   1  -6 12.8001 3.42178  78 
   4   1   6 15.5982 5.34995  73 
  -4   1  -6 14.7799 4.95347  76 
   4   1   6 20.0840 6.74274  76 
   4   1   6 13.5082 3.75285  38 
   4   1   6 12.1970 3.42535  78 
  -4   1  -6 18.0029 4.72148  83 
   4   1   6 8.97088 2.44144  81 
   5  -1   6 42.7933 6.25349  78 
   5  -1   6 47.0163 5.16025  71 
  -5  -1  -6 45.1617 4.96655  75 
  -5  -1  -6 42.5946 5.69561  78 
   5  -1   6 47.7154 5.03163  45 
  -5  -1  -6 51.3138 4.45649  71 
   5  -1   6 48.1471 5.08152  34 
   5  -1   6 47.0878 6.55122  79 
   5  -1   6 47.4047 5.64099  75 
   5  -1   6 43.9808 4.70116  38 
  -5  -1  -6 45.9221 4.43439  45 
  -5  -1  -6 43.0091 6.43844  79 
  -5   1  -6 39.4986 4.81998  78 
   5   1   6 39.2225 6.70062  73 
   5   1   6 39.1530 5.20382  81 
   5   1   6 47.7754 5.17791  38 
   5   1   6 35.8341 5.44097  78 
   5   1   6 45.8391 4.90520  40 
  -5   1  -6 51.7922 6.97274  83 
   6  -1   6 53.7105 7.76647  79 
   6  -1   6 62.9963 5.66597  45 
   6  -1   6 49.0002 5.32689  71 
  -6  -1  -6 49.1543 4.84537  71 
   6  -1   6 55.8894 6.15996  33 
  -6  -1  -6 50.4507 5.28765  75 
  -6  -1  -6 54.3879 5.35243  45 
   6  -1   6 48.7769 5.57681  38 
  -6  -1  -6 52.2717 7.08036  79 
   6  -1   6 55.0751 6.40264  78 
   6  -1   6 57.0671 6.02830  75 
   6  -1   6 51.6934 5.56620  34 
  -6  -1  -6 49.9468 6.16076  78 
   6   1   6 55.8524 5.66047  40 
  -6   1  -6 57.5576 7.11139   2 
   6   1   6 54.7276 4.42847  81 
   6   1   6 48.9781 6.07504  78 
   6   1   6 56.5030 6.26947  38 
  -6   1  -6 55.2560 5.71231  78 
  -6   1  -6 69.6580 7.00995  83 
   6   1   6 48.7275 6.86609  73 
   7  -1   6 5.62386 3.30531  33 
  -7  -1  -6 15.8791 7.80265  76 
  -7  -1  -6 16.8147 4.33738  19 
   7  -1   6 22.0268 6.39572  79 
   7  -1   6 16.7706 5.39342  20 
  -7  -1  -6 10.8448 3.83843  78 
  -7  -1  -6 10.7926 2.85193  18 
   7  -1   6 9.78838 3.10532  40 
   7  -1   6 11.4104 3.11178  19 
   7  -1   6 1.66406 3.18482  76 
   7  -1   6 11.6205 4.50867  78 
  -7  -1  -6 14.3345 4.50945  20 
   7  -1   6 8.37954 3.96485  24 
  -7  -1  -6 5.43643 2.64278   5 
   7  -1   6 15.1147 4.63357  18 
   7   1   6 6.96788 3.49886  13 
   7   1   6 11.9077 3.65000   4 
  -7   1  -6 14.3368 2.96460  17 
  -7   1  -6 11.2381 2.82478   4 
   7   1   6 8.94300 3.39486  40 
  -7   1  -6 5.60198 5.61831   6 
  -7   1  -6 0.14599 4.15760  83 
   7   1   6 12.1172 4.91702  15 
  -7   1  -6 7.59494 3.16602  78 
  -7   1  -6 4.07366 2.82464   2 
  -7   1  -6 8.32993 2.70426   5 
   7   1   6 5.81543 3.41390  78 
   7   1   6 6.57479 3.20616  43 
   7   1   6 8.01940 4.32855  38 
  -7   1  -6 8.16422 2.62769  13 
   8  -1   6 32.2667 4.63106  19 
  -8  -1  -6 30.1993 4.05367  18 
  -8  -1  -6 34.2133 4.52686  20 
   8  -1   6 28.8858 5.43200  20 
   8  -1   6 30.4930 4.26057  18 
  -8  -1  -6 35.3529 3.89792  19 
  -8  -1  -6 30.7407 4.81823   5 
  -8   1  -6 25.2616 4.01390  13 
  -8   1  -6 30.0603 4.39568   2 
   8   1   6 24.3904 5.14183  40 
   8   1   6 28.9036 4.99167  38 
   8   1   6 28.3847 4.91851  13 
  -8   1  -6 28.3895 4.15477   4 
  -8   1  -6 28.9311 4.86386   5 
   8   1   6 28.3639 4.78068   4 
  -8   1  -6 28.2546 5.53800  83 
   9  -1   6 109.002 6.83841  19 
  -9  -1  -6 116.194 6.93302  20 
  -9  -1  -6 104.076 6.60369  18 
  -9  -1  -6 114.024 6.95630   5 
  -9  -1  -6 112.713 6.64948  19 
   9  -1   6 121.121 6.94706  18 
   9  -1   6 116.954 7.34250  20 
  -9   1  -6 120.895 7.10018   2 
  -9   1  -6 113.815 6.80128  13 
   9   1   6 121.349 6.98383  16 
  -9   1  -6 124.670 6.60817  16 
  -9   1  -6 124.451 6.90066   4 
  -9   1  -6 138.448 6.86755   3 
  -9   1  -6 123.254 7.15454   5 
   9   1   6 127.298 7.22047   4 
   9   1   6 129.821 7.21760  13 
 -10  -2   6 -1.0309 2.23077  18 
 -10  -2   6 0.25577 2.54784  20 
  10  -2  -6 3.05879 2.94456  18 
  10  -2  -6 -3.2729 2.43429  24 
  10  -2  -6 -3.2360 1.81314  27 
  10  -2  -6 3.26560 2.58771  19 
  10  -2  -6 0.22900 3.17315  20 
 -10  -2   6 0.46854 2.07039  19 
  10  -2  -6 1.46233 2.70814  33 
 -10   2   6 -3.8590 2.10601  14 
 -10   2   6 -1.6906 1.94344   4 
  10   2  -6 0.73151 2.48206   3 
 -10   2   6 1.10677 2.07198  31 
 -10   2   6 -2.2501 1.86165   5 
 -10   2   6 -2.0777 2.46134   7 
  10   2  -6 -0.6052 2.62770  23 
 -10   2   6 -0.7041 1.53610   1 
 -10   2   6 1.92468 1.40397  22 
 -10   2   6 2.66855 1.72253   3 
 -10   2   6 -0.9266 1.78762  32 
  10   2  -6 -3.2781 2.49493  13 
  10   2  -6 -0.7442 2.42366  10 
 -10   2   6 -1.1596 2.20842  15 
  10   2  -6 -1.0136 2.62237   4 
 -10   2   6 0.51652 2.29935  30 
  10   2  -6 -0.0750 2.23645  16 
 -10   2   6 -1.1290 2.11648   2 
   9  -2  -6 36.0268 6.98224  24 
   9  -2  -6 32.8282 6.36655  20 
  -9  -2   6 43.0365 5.32121  18 
   9  -2  -6 43.1160 6.03602  33 
   9  -2  -6 32.2684 5.79718  79 
  -9  -2   6 40.2703 6.04227  20 
  -9  -2   6 41.8502 5.22390  19 
   9  -2  -6 40.0294 5.13738  27 
   9   2  -6 49.7878 8.75595   7 
   9   2  -6 37.0729 5.48078  10 
  -9   2   6 45.5986 5.70128  83 
  -9   2   6 44.3149 5.27591  14 
  -9   2   6 38.7107 4.30669  32 
  -9   2   6 40.2713 4.38045  13 
   9   2  -6 44.3242 5.56477  15 
  -9   2   6 40.4899 4.53837   3 
  -9   2   6 41.1341 6.63940  28 
  -9   2   6 40.9676 3.82536  16 
  -9   2   6 40.3752 7.20076  15 
   9   2  -6 34.7456 5.76779  41 
   9   2  -6 51.5628 5.99315  13 
  -9   2   6 39.4033 5.45527   5 
  -9   2   6 42.9838 4.38768   1 
  -9   2   6 42.2590 5.33936   2 
  -9   2   6 46.4228 5.51901   7 
   9   2  -6 34.9704 5.98441  16 
  -9   2   6 40.9725 5.22246   4 
   9   2  -6 42.4192 5.79921   4 
  -9   2   6 38.1997 3.68527  22 
  -9   2   6 53.5610 4.88915  31 
   9   2  -6 34.0787 5.82053  42 
  -8  -2   6 8.22607 7.28048  78 
  -8  -2   6 3.00486 2.51726  27 
   8  -2  -6 12.9998 6.02006  24 
   8  -2  -6 3.95683 2.67539  27 
   8  -2  -6 6.38311 3.04195  75 
  -8  -2   6 3.76548 3.30362  18 
   8  -2  -6 6.31868 4.07035  33 
  -8  -2   6 3.39010 3.15800  19 
   8  -2  -6 4.77696 4.01719  79 
  -8  -2   6 6.87848 3.18506  75 
  -8  -2   6 2.52669 3.65891  20 
  -8   2   6 3.52860 2.57468   3 
  -8   2   6 3.63205 2.59505  31 
  -8   2   6 4.18550 3.20590   7 
   8   2  -6 14.8011 5.15288  10 
   8   2  -6 4.14672 3.20578  15 
   8   2  -6 6.46264 4.09608   4 
   8   2  -6 0.17353 3.89207   7 
  -8   2   6 4.31346 2.22387  28 
   8   2  -6 -6.1520 3.69875  13 
   8   2  -6 10.1822 4.60856  41 
  -8   2   6 1.80084 2.70516   1 
  -8   2   6 4.99704 3.38398  77 
   8   2  -6 7.48958 5.91930  73 
  -8   2   6 -1.1785 4.02473  83 
  -8   2   6 1.44147 2.54551  13 
   8   2  -6 7.73155 4.60520  42 
  -8   2   6 4.84706 2.72389  14 
  -8   2   6 1.97865 2.12422  16 
  -8   2   6 8.96024 3.30424   4 
  -8   2   6 1.15384 2.73699   5 
   8   2  -6 4.28644 3.90980  83 
  -8   2   6 5.18652 3.31663   2 
  -8   2   6 0.69386 5.17803  74 
  -7  -2   6 192.482 12.0685  45 
   7  -2  -6 219.103 13.1626  79 
   7  -2  -6 212.181 13.1951  48 
   7  -2  -6 201.322 11.6366  71 
  -7  -2   6 197.923 11.8627  71 
   7  -2  -6 220.470 12.2470  75 
  -7  -2   6 230.186 12.5129  75 
   7  -2  -6 185.542 12.0460  45 
   7  -2  -6 211.480 13.0226  33 
   7   2  -6 210.753 11.9787  78 
  -7   2   6 194.059 12.4673  74 
  -7   2   6 220.042 12.6468  47 
   7   2  -6 233.416 13.3845  42 
  -7   2   6 219.994 12.0148  77 
  -7   2   6 204.962 12.3992  83 
   7   2  -6 205.061 12.2671  73 
   7   2  -6 218.861 13.0692  83 
   7   2  -6 212.276 12.6244  41 
  -6  -2   6 54.4717 5.02805  45 
   6  -2  -6 73.5665 7.56222  44 
   6  -2  -6 58.9887 6.61996  79 
  -6  -2   6 60.3534 5.84380  75 
   6  -2  -6 67.5077 5.00612  71 
   6  -2  -6 73.6285 5.62775  45 
   6  -2  -6 60.6927 5.22190  75 
  -6  -2   6 59.6848 5.07631  71 
   6  -2  -6 59.8815 6.30107  48 
  -6  -2   6 54.0472 5.89623  48 
   6   2  -6 65.2855 6.34853  73 
   6   2  -6 61.7311 6.80465  83 
   6   2  -6 56.1001 5.14169  78 
  -6   2   6 57.2144 5.78253  47 
  -6   2   6 64.6890 5.53910  77 
   6   2  -6 53.2229 6.05997  41 
  -6   2   6 60.0423 5.65078  74 
  -6   2   6 65.6132 6.21344  83 
   6   2  -6 64.1023 6.60276  42 
   5  -2  -6 200.772 11.1176  45 
  -5  -2   6 201.137 11.7545  48 
   5  -2  -6 189.329 11.7412  48 
  -5  -2   6 188.512 11.1724  75 
   5  -2  -6 217.505 11.1189  75 
  -5  -2   6 176.727 11.9755  44 
   5  -2  -6 178.993 12.1981  44 
  -5  -2   6 190.801 11.0882  74 
  -5  -2   6 212.890 11.0638  71 
   5  -2  -6 208.169 10.8154  71 
  -5  -2   6 211.342 11.0619  45 
   5  -2  -6 199.349 11.8658  79 
   5   2  -6 199.047 11.6923  83 
  -5   2   6 191.778 10.9439  77 
   5   2  -6 211.698 11.5842  73 
  -5   2   6 187.127 11.3723  83 
   5   2  -6 180.335 10.8952  78 
   5   2  -6 200.234 11.4938  41 
   5   2  -6 218.435 11.4795  77 
   5   2  -6 190.245 11.9181  42 
  -4  -2   6 186.044 9.84069  71 
   4  -2  -6 173.356 10.7658  44 
   4  -2  -6 182.559 10.4029  48 
   4  -2  -6 174.677 10.5859  79 
   4  -2  -6 173.147 9.61329  45 
  -4  -2   6 171.678 9.67714  45 
  -4  -2   6 192.769 10.5483  48 
  -4  -2   6 162.276 10.7096  44 
  -4  -2   6 182.984 9.69741  49 
  -4  -2   6 175.716 9.95109  74 
  -4  -2   6 168.799 9.91049  75 
   4  -2  -6 191.960 9.52420  46 
   4  -2  -6 166.269 9.77568  75 
   4  -2  -6 178.894 9.55633  71 
   4   2  -6 151.470 9.67138  78 
   4   2  -6 153.612 9.84082  51 
   4   2  -6 173.881 11.7610  52 
   4   2  -6 180.471 10.3932  41 
  -4   2   6 194.463 9.82942  77 
  -4   2   6 182.523 8.95139  51 
   4   2  -6 168.235 10.5087  42 
   4   2  -6 177.966 9.79809  77 
   3  -2  -6 35.7356 4.71790  44 
   3  -2  -6 49.1873 3.73882  45 
   3  -2  -6 46.4054 5.59605  69 
   3  -2  -6 46.8529 3.90484  75 
  -3  -2   6 45.9741 3.82340  71 
  -3  -2   6 48.1978 3.73251  45 
  -3  -2   6 47.0500 4.47220  48 
  -3  -2   6 47.9224 3.73761  49 
   3  -2  -6 42.9224 3.36013  70 
   3  -2  -6 44.8792 4.59274  48 
  -3  -2   6 50.7639 4.11152  74 
   3  -2  -6 48.5857 3.43061  46 
  -3  -2   6 52.8305 5.00991  44 
  -3  -2   6 56.0828 6.89059  67 
   3  -2  -6 51.8631 3.68058  71 
  -3   2   6 51.7125 3.87184  77 
  -3   2   6 52.5685 4.70718  54 
   3   2  -6 46.6961 3.85277  78 
  -3   2   6 50.2936 2.81604  51 
  -3   2   6 46.7216 5.22093  68 
   3   2  -6 45.7172 5.61640  52 
   3   2  -6 52.9716 4.32221  77 
   3   2  -6 53.3040 3.26773  53 
   3   2  -6 47.9007 3.95494  51 
   2  -2  -6 346.292 20.0261  44 
  -2  -2   6 371.369 20.3015  44 
  -2  -2   6 385.193 22.7998  67 
   2  -2  -6 375.545 19.8657  48 
   2  -2  -6 368.331 19.3279  71 
  -2  -2   6 382.930 21.2045  65 
   2  -2  -6 383.649 19.3372  70 
   2  -2  -6 398.413 20.0769  69 
  -2  -2   6 393.542 19.4776  49 
   2  -2  -6 363.783 20.6796  65 
  -2  -2   6 390.841 20.0359  48 
   2  -2  -6 413.434 19.3486  46 
   2  -2  -6 373.506 19.5055  75 
  -2  -2   6 398.763 19.8951  74 
  -2  -2   6 396.131 19.5704  45 
   2  -2  -6 374.900 19.4297  45 
  -2   2   6 405.504 20.5749  54 
  -2   2   6 394.352 21.1596  68 
   2   2  -6 396.454 21.5392  52 
   2   2  -6 395.853 19.6909  51 
   2   2  -6 390.961 19.1453  53 
  -2   2   6 383.956 19.4893  77 
   2   2  -6 343.853 20.2243  77 
  -2   2   6 389.091 18.9609  51 
  -2   2   6 404.263 26.0935  66 
  -1  -2   6 71.3292 5.26175  75 
  -1  -2   6 81.6135 5.49711  48 
  -1  -2   6 76.3011 5.81271  44 
   1  -2  -6 78.2273 5.26497  69 
   1  -2  -6 70.5290 5.57661  44 
   1  -2  -6 77.0772 4.53198  46 
  -1  -2   6 76.8878 5.26137  74 
  -1  -2   6 73.7862 6.23201  65 
   1  -2  -6 68.5043 5.29855  48 
   1  -2  -6 74.7724 4.72348  71 
   1  -2  -6 78.5480 4.71940  45 
  -1  -2   6 77.3167 4.75119  49 
  -1  -2   6 71.1629 4.76939  45 
  -1  -2   6 85.9880 7.77469  67 
   1  -2  -6 81.4982 4.92628  75 
  -1  -2   6 72.9899 4.58837  46 
   1  -2  -6 71.0523 5.84157  65 
   1  -2  -6 72.9313 4.50918  70 
  -1   2   6 79.5555 4.96811  77 
   1   2  -6 77.3527 6.48538  52 
  -1   2   6 81.3762 6.38754  68 
  -1   2   6 69.4500 9.27106  66 
  -1   2   6 81.0731 6.23486  54 
   1   2  -6 84.2298 4.27169  53 
  -1   2   6 76.1001 4.15379  51 
   1   2  -6 78.3365 4.89662  51 
   0  -2   6 372.902 19.7496  74 
   0  -2   6 390.240 22.5531  67 
   0  -2  -6 383.507 19.1926  46 
   0  -2   6 406.014 20.2651  44 
   0  -2  -6 419.419 20.0280  69 
   0  -2  -6 372.693 19.4148  75 
   0  -2   6 350.553 19.4528  71 
   0  -2   6 393.768 19.3359  49 
   0  -2   6 377.684 19.6412  75 
   0  -2  -6 392.110 19.2338  70 
   0  -2   6 397.360 19.4025  45 
   0  -2  -6 383.561 20.6558  65 
   0  -2  -6 381.176 19.6614  48 
   0  -2   6 369.255 19.2473  46 
   0  -2  -6 359.111 19.9514  44 
   0  -2   6 397.840 19.8669  48 
   0  -2   6 370.908 21.0572  65 
   0  -2  -6 371.967 19.2439  71 
   0  -2  -6 358.750 19.2387  45 
   0   2  -6 386.857 19.6614  77 
   0   2  -6 397.499 18.9034  53 
   0   2   6 376.199 19.0032  51 
   0   2  -6 387.432 19.4739  51 
   0   2   6 364.930 19.4250  77 
   0   2  -6 373.974 21.1661  52 
   0   2   6 401.130 20.6225  54 
   0   2   6 388.058 21.1373  68 
  -1  -2  -6 292.109 15.5502  44 
   1  -2   6 302.838 15.0931  71 
   1  -2   6 294.568 15.3275  74 
  -1  -2  -6 319.832 14.8700  45 
   1  -2   6 309.500 14.9482  45 
  -1  -2  -6 303.866 14.7318  46 
  -1  -2  -6 297.429 15.0437  75 
  -1  -2  -6 285.735 14.7729  71 
   1  -2   6 264.185 17.8967  67 
   1  -2   6 299.034 15.3777  48 
   1  -2   6 307.944 15.8682  44 
  -1  -2  -6 252.049 14.6616  70 
  -1  -2  -6 288.335 15.1599  48 
   1  -2   6 283.663 15.1584  75 
   1  -2   6 299.759 14.8363  49 
   1   2   6 290.433 14.5089  73 
   1   2   6 294.657 16.0875  54 
   1   2   6 282.077 14.6049  51 
  -1   2  -6 290.309 14.2611  53 
   1   2   6 284.559 15.0829  77 
  -1   2  -6 259.544 14.7943  78 
  -1   2  -6 292.575 16.8097  52 
  -1   2  -6 265.066 14.8464  51 
   1   2   6 251.428 16.5590  68 
  -1   2  -6 289.314 15.0429  77 
   2  -2   6 35.8610 3.35456  49 
   2  -2   6 33.4877 4.47785  44 
   2  -2   6 38.3356 3.52402  45 
   2  -2   6 42.4330 4.12057  48 
  -2  -2  -6 38.4751 3.49999  75 
   2  -2   6 36.5204 3.59505  71 
  -2  -2  -6 34.3408 3.15456  45 
   2  -2   6 33.6746 7.98293  67 
  -2  -2  -6 39.1465 4.77980  79 
  -2  -2  -6 31.7444 5.52120  67 
  -2  -2  -6 40.7473 4.28133  44 
  -2  -2  -6 41.8936 3.42946  46 
   2  -2   6 36.5033 4.18733  75 
  -2  -2  -6 38.1801 3.73872  48 
   2  -2   6 33.0862 4.83102  79 
  -2  -2  -6 35.5798 3.38618  71 
   2   2   6 41.3620 4.37670  43 
  -2   2  -6 36.5902 4.37650  42 
   2   2   6 38.9714 4.40041  77 
  -2   2  -6 32.2900 2.96159  51 
  -2   2  -6 33.9832 3.89109  77 
   2   2   6 34.5653 3.34722  73 
   2   2   6 34.1453 2.97449  51 
   2   2   6 35.6753 5.31181  68 
  -3  -2  -6 674.013 31.7929  71 
  -3  -2  -6 607.006 31.9219  75 
  -3  -2  -6 624.609 32.1123  48 
  -3  -2  -6 620.340 32.6017  44 
   3  -2   6 629.574 31.6939  45 
  -3  -2  -6 649.303 31.6264  45 
   3  -2   6 619.896 32.6347  44 
   3  -2   6 668.971 32.2896  48 
  -3  -2  -6 597.584 32.4649  79 
   3  -2   6 655.656 31.9165  71 
   3  -2   6 661.448 32.1435  75 
   3  -2   6 593.394 32.7268  79 
   3  -2   6 657.397 31.6082  49 
  -3   2  -6 587.790 32.2101  83 
   3   2   6 647.229 32.0293  77 
   3   2   6 641.544 32.0990  40 
   3   2   6 592.376 31.5862  73 
  -3   2  -6 615.519 31.8807  77 
   3   2   6 649.600 32.4494  43 
  -4  -2  -6 41.1396 6.02682  79 
  -4  -2  -6 46.2719 4.68369  48 
   4  -2   6 44.2145 6.34146  79 
   4  -2   6 42.7771 5.88293  44 
   4  -2   6 48.5035 4.80516  71 
  -4  -2  -6 50.3998 4.92082  75 
  -4  -2  -6 35.3682 3.90342  71 
   4  -2   6 42.0714 4.64551  34 
   4  -2   6 40.5280 4.10291  45 
  -4  -2  -6 38.3596 5.45918  44 
   4  -2   6 41.1010 4.59797  38 
   4  -2   6 42.0622 5.13147  48 
   4  -2   6 41.2694 4.41731  49 
   4  -2   6 41.1037 5.10036  75 
  -4  -2  -6 39.6637 3.84459  45 
   4   2   6 37.8163 4.38577  73 
   4   2   6 48.5286 5.89766  43 
   4   2   6 46.7978 5.74948  77 
   4   2   6 47.0735 5.08344  38 
   4   2   6 38.6865 5.71480  40 
  -4   2  -6 43.3459 5.15754  77 
  -4   2  -6 32.2218 5.55980  83 
   5  -2   6 41.4577 5.87693  33 
  -5  -2  -6 37.2000 4.68623  75 
  -5  -2  -6 35.9544 4.32902  71 
  -5  -2  -6 41.0059 4.18052  45 
  -5  -2  -6 38.4948 4.80260  47 
   5  -2   6 44.0485 4.79937  45 
   5  -2   6 34.3612 4.69273  34 
   5  -2   6 33.9843 4.89368  75 
   5  -2   6 41.5307 7.04888  79 
  -5  -2  -6 32.8939 4.96152  48 
   5  -2   6 34.5330 5.45474  48 
   5  -2   6 38.7036 4.73597  71 
  -5  -2  -6 43.6116 6.67441  79 
   5   2   6 44.8768 6.25576  43 
   5   2   6 44.1669 6.16895  77 
  -5   2  -6 25.7213 5.88400  83 
   5   2   6 36.8593 5.54467  40 
   5   2   6 39.9086 4.32644  73 
  -5   2  -6 39.2863 5.52469  77 
   5   2   6 31.5198 5.10450  38 
   6  -2   6 354.848 20.0252  24 
  -6  -2  -6 369.058 18.7570  27 
   6  -2   6 380.094 21.0051  79 
  -6  -2  -6 370.189 20.5597  79 
   6  -2   6 400.441 19.5068  33 
   6  -2   6 352.768 19.2015  41 
   6  -2   6 380.849 18.9614  27 
  -6  -2  -6 308.173 19.2389  75 
  -6  -2  -6 321.686 18.9509  19 
   6  -2   6 340.761 19.6105  34 
   6  -2   6 344.067 19.6322  75 
  -6  -2  -6 336.259 19.1408  20 
   6  -2   6 365.671 19.4476  20 
   6   2   6 369.904 19.2073  31 
  -6   2  -6 357.534 18.6955   4 
  -6   2  -6 364.532 18.8211  31 
   6   2   6 357.698 19.6615  40 
   6   2   6 347.927 19.7282  77 
   6   2   6 386.840 19.5709  38 
  -6   2  -6 351.416 19.9620  83 
  -6   2  -6 365.183 18.8654   8 
  -6   2  -6 350.334 18.7796   7 
   6   2   6 371.730 18.7844  16 
   6   2   6 363.143 19.3995   7 
  -6   2  -6 354.654 18.9589   2 
   6   2   6 393.042 20.5683  15 
   6   2   6 358.558 19.0250  13 
  -6   2  -6 353.137 18.5482  16 
  -6   2  -6 358.020 18.6676   3 
  -6   2  -6 350.136 18.6369  13 
   6   2   6 367.871 18.9515   4 
   6   2   6 365.681 18.8679   3 
   6   2   6 376.513 20.1917  43 
  -6   2  -6 354.028 19.4477  77 
  -6   2  -6 362.242 18.4554  17 
  -6   2  -6 391.041 19.6502   6 
  -6   2  -6 370.423 18.9721  14 
   7  -2   6 151.724 9.86081  33 
  -7  -2  -6 161.237 9.31878  18 
   7  -2   6 153.047 9.52734  18 
  -7  -2  -6 159.668 9.68791  20 
  -7  -2  -6 154.808 9.27075  19 
   7  -2   6 137.339 9.74342  41 
   7  -2   6 152.780 11.0457  79 
  -7  -2  -6 153.306 10.6920  79 
   7  -2   6 169.721 9.97090  20 
   7  -2   6 162.961 10.5402  24 
   7  -2   6 154.907 9.50392  19 
   7  -2   6 167.500 9.27378  27 
  -7  -2  -6 152.972 8.86826  27 
  -7   2  -6 153.639 9.37117  14 
  -7   2  -6 161.676 9.27199   2 
  -7   2  -6 158.532 8.83861  13 
   7   2   6 145.905 10.2621  43 
  -7   2  -6 156.482 9.64528  25 
   7   2   6 159.251 9.63009  31 
  -7   2  -6 153.295 9.02083   8 
  -7   2  -6 155.747 9.23162  31 
   7   2   6 167.137 10.5999  15 
   7   2   6 158.166 9.14413   3 
  -7   2  -6 156.805 8.58857  17 
  -7   2  -6 128.830 9.61945   1 
  -7   2  -6 170.313 8.88684   3 
  -7   2  -6 154.544 9.89044   6 
  -7   2  -6 134.636 9.96058  83 
   7   2   6 149.193 10.1322  40 
   7   2   6 160.045 9.38073  13 
   7   2   6 153.081 9.49890   4 
   7   2   6 155.250 9.98466   7 
   7   2   6 158.809 9.10361  16 
   7   2   6 143.156 10.0170  38 
  -7   2  -6 157.341 9.05396   7 
  -7   2  -6 150.929 9.03206   4 
  -7   2  -6 160.403 8.57253  16 
   8  -2   6 175.000 10.0073  19 
   8  -2   6 169.470 10.3717  24 
   8  -2   6 197.281 10.1837  18 
  -8  -2  -6 189.079 10.1456  20 
   8  -2   6 176.481 10.1609  33 
  -8  -2  -6 176.569 9.78228  18 
   8  -2   6 176.813 10.4582  20 
  -8  -2  -6 184.968 9.76412  19 
   8   2   6 169.260 9.53856   1 
  -8   2  -6 202.418 9.91390   2 
  -8   2  -6 162.114 9.43563   3 
   8   2   6 164.301 9.68512  13 
  -8   2  -6 180.205 9.31321  17 
  -8   2  -6 171.775 9.46485   1 
   8   2   6 171.305 10.1833  15 
  -8   2  -6 161.161 9.73781  31 
   8   2   6 192.245 9.82107   3 
   8   2   6 170.998 9.78448   4 
  -8   2  -6 170.078 9.36789  13 
  -8   2  -6 184.415 9.65924   4 
  -8   2  -6 176.122 9.88774   7 
  -8   2  -6 178.562 9.98659   5 
   8   2   6 168.681 10.0294  31 
   8   2   6 173.790 9.52079  16 
  -8   2  -6 174.151 10.2972   6 
  -8   2  -6 171.649 9.18972  16 
  -9  -2  -6 22.8119 2.97900  20 
   9  -2   6 23.9261 3.32281  20 
  -9  -2  -6 16.6270 2.56196  18 
   9  -2   6 20.5959 3.12514  19 
  -9  -2  -6 18.7247 2.72019  19 
   9  -2   6 22.4776 2.91153  18 
  -9   2  -6 29.7996 3.56989   7 
  -9   2  -6 19.2646 2.63277   4 
   9   2   6 20.3310 2.69523   4 
  -9   2  -6 20.1179 1.82544   1 
  -9   2  -6 17.6583 2.65584   2 
  -9   2  -6 22.7587 2.17517   3 
   9   2   6 21.1249 2.59697   3 
  -9   2  -6 23.3741 1.94170  32 
   9   2   6 19.4092 2.14991   1 
  -9   2  -6 26.7897 3.04922  31 
   9   2   6 23.2283 2.47284  32 
  10  -3  -6 0.09206 1.57989  27 
 -10  -3   6 5.39296 2.17144  18 
 -10  -3   6 3.06866 1.73162  19 
 -10  -3   6 2.47648 1.91068  20 
  10  -3  -6 -0.6681 2.02892  24 
  10   3  -6 3.67436 1.82357  31 
 -10   3   6 -0.2186 1.02322  22 
  10   3  -6 0.79192 1.12696   1 
  10   3  -6 3.27622 2.11576  23 
 -10   3   6 -0.0627 1.63217   7 
 -10   3   6 2.01242 1.33814  28 
  10   3  -6 0.01283 1.78140   4 
 -10   3   6 0.83060 1.29379  30 
 -10   3   6 0.83758 1.74858  14 
  10   3  -6 0.88785 1.30007  32 
  10   3  -6 0.27299 2.38183   7 
  10   3  -6 0.73471 1.90505  10 
 -10   3   6 0.14339 1.29113  31 
  10   3  -6 1.45593 1.07505   3 
  -9  -3   6 6.05925 2.68657  18 
   9  -3  -6 6.30811 3.11474  24 
  -9  -3   6 2.88786 1.77875  27 
   9  -3  -6 3.51929 2.26727  27 
  -9  -3   6 3.14252 2.69081  20 
   9  -3  -6 3.06266 2.93000  33 
  -9  -3   6 6.45352 2.73248  19 
  -9   3   6 7.31059 2.63275   7 
   9   3  -6 3.67121 2.11267  13 
  -9   3   6 5.96418 2.03319  30 
   9   3  -6 5.26380 3.14400   7 
   9   3  -6 5.86513 3.11085  23 
  -9   3   6 2.93816 2.16984   5 
   9   3  -6 4.08295 1.78581  16 
   9   3  -6 5.42593 2.89620  31 
  -9   3   6 4.61974 2.02857  31 
   9   3  -6 8.98729 2.53761  32 
   9   3  -6 2.95214 2.37258   3 
   9   3  -6 11.3496 3.28396   1 
  -9   3   6 3.81132 1.82397  28 
   9   3  -6 5.32678 2.51524  39 
  -9   3   6 4.72522 2.40618  14 
   9   3  -6 9.25873 3.04701  10 
  -9   3   6 4.14182 1.65178  22 
   9   3  -6 3.44114 2.28635  15 
  -9   3   6 7.35651 2.38285  35 
   9   3  -6 8.30360 2.87461   4 
   8  -3  -6 107.969 8.00862  79 
  -8  -3   6 104.763 7.02374  27 
  -8  -3   6 92.3172 7.89914  19 
   8  -3  -6 115.899 7.12184  27 
   8  -3  -6 106.495 8.18388  33 
   8   3  -6 129.374 8.76869  77 
   8   3  -6 100.503 7.83272  10 
   8   3  -6 96.4230 7.10797  13 
  -8   3   6 102.395 7.75660   5 
   8   3  -6 92.2122 7.48140  39 
   8   3  -6 99.7495 6.86854   1 
  -8   3   6 102.372 6.76267  30 
  -8   3   6 104.245 6.73680  31 
  -8   3   6 97.2199 6.35317  28 
  -8   3   6 100.781 6.41441  29 
   8   3  -6 102.650 7.02712   3 
  -8   3   6 98.3913 6.23818  22 
   8   3  -6 101.766 8.29729  42 
  -8   3   6 103.565 7.39023   7 
  -8   3   6 95.4854 7.30203  14 
   8   3  -6 106.118 7.48062   4 
   8   3  -6 94.5853 8.62019  15 
  -8   3   6 99.4272 5.60100  32 
   8   3  -6 117.552 8.23612   7 
  -8   3   6 110.568 5.92864   3 
   8   3  -6 94.9589 7.61186  31 
   8   3  -6 104.541 6.70674  16 
   8   3  -6 98.3055 8.09794  23 
   7  -3  -6 19.4428 4.72807  27 
   7  -3  -6 21.7149 5.37232  79 
  -7  -3   6 23.3917 4.81449  27 
   7  -3  -6 14.7220 3.78381  75 
  -7  -3   6 2.52553 2.69421  75 
   7   3  -6 16.6315 3.29848   1 
   7   3  -6 10.6117 3.53178  77 
  -7   3   6 14.1540 3.27954  77 
   7   3  -6 18.0993 3.72455   4 
  -7   3   6 17.1998 3.55379  29 
   7   3  -6 7.41728 4.25361  42 
  -7   3   6 16.3525 2.69701  32 
   7   3  -6 20.0673 5.72064  23 
   7   3  -6 14.6659 5.14369  10 
   7   3  -6 16.6836 3.45370  13 
  -7   3   6 18.1934 3.56253  28 
   7   3  -6 8.54494 6.62141  41 
  -7   3   6 10.2850 3.02849   3 
   7   3  -6 17.1901 5.97791  36 
   7   3  -6 14.0935 3.36087  28 
   7   3  -6 21.5211 4.25673   7 
   7   3  -6 22.2399 4.77550   3 
  -7   3   6 17.0162 3.30780  22 
   7   3  -6 16.0793 4.41731  16 
  -7   3   6 14.5899 4.07161  30 
  -7   3   6 13.0464 4.06768  31 
  -7   3   6 8.03954 3.14872   5 
  -7   3   6 8.04081 2.88858  14 
  -7   3   6 17.1544 3.58842   7 
   7   3  -6 14.0657 3.50709  31 
   7   3  -6 10.0256 3.69903  39 
  -7   3   6 17.4250 2.42906   1 
  -6  -3   6 681.469 37.9668  44 
   6  -3  -6 729.314 37.2780  79 
  -6  -3   6 756.337 36.7233  71 
   6  -3  -6 741.168 38.0211  44 
  -6  -3   6 722.211 36.9762  75 
   6  -3  -6 710.807 37.3047  48 
   6  -3  -6 760.474 36.6943  75 
  -6  -3   6 665.694 37.4346  48 
   6   3  -6 768.483 37.2889  41 
   6   3  -6 746.906 37.8457  42 
   6   3  -6 740.546 37.1391  39 
   6   3  -6 759.962 37.7918  36 
   6   3  -6 738.331 36.7276  77 
   6   3  -6 709.939 36.9923  83 
  -6   3   6 695.411 36.1088  77 
   5  -3  -6 214.336 11.9047  46 
  -5  -3   6 214.740 13.7562  44 
  -5  -3   6 248.769 12.8606  75 
   5  -3  -6 220.985 12.2461  71 
  -5  -3   6 225.121 12.2689  71 
  -5  -3   6 214.662 13.1327  48 
   5  -3  -6 205.497 12.8697  48 
   5  -3  -6 245.096 13.2850  70 
  -5  -3   6 220.033 12.2845  45 
   5  -3  -6 222.402 13.5864  44 
   5   3  -6 225.493 13.1308  41 
   5   3  -6 216.106 12.6690  83 
   5   3  -6 222.425 13.5772  36 
  -5   3   6 223.169 11.7621  77 
   5   3  -6 231.350 13.5169  42 
   5   3  -6 219.663 12.3743  77 
   5   3  -6 226.087 12.8432  39 
  -4  -3   6 26.6645 3.38372  49 
  -4  -3   6 24.5590 3.41083  71 
   4  -3  -6 24.6206 2.89828  70 
   4  -3  -6 26.3386 4.33429  48 
  -4  -3   6 29.6613 4.49510  48 
   4  -3  -6 15.1815 4.59258  44 
   4  -3  -6 27.2744 2.83497  46 
  -4  -3   6 29.1783 4.20219  75 
  -4  -3   6 26.9642 4.89176  44 
  -4  -3   6 30.8308 3.73122  45 
   4  -3  -6 28.6283 3.67677  69 
   4   3  -6 35.1448 4.20460  77 
   4   3  -6 30.7443 5.40739  42 
  -4   3   6 26.1792 3.06776  77 
   4   3  -6 28.8732 4.76129  83 
   4   3  -6 26.8355 4.93347  41 
   4   3  -6 31.1025 6.54165  82 
   4   3  -6 28.4311 5.04412  39 
   3  -3  -6 111.698 6.08395  46 
  -3  -3   6 120.836 7.89317  44 
   3  -3  -6 87.0880 7.18070  44 
   3  -3  -6 108.504 6.99771  48 
  -3  -3   6 110.011 6.28501  46 
  -3  -3   6 106.573 6.41987  71 
  -3  -3   6 102.112 6.34544  49 
   3  -3  -6 107.644 6.83581  69 
  -3  -3   6 112.477 7.19759  48 
   3  -3  -6 108.502 6.08645  70 
  -3  -3   6 108.941 6.59934  45 
  -3   3   6 98.3324 5.94504  77 
   3   3  -6 101.578 9.68947  82 
   3   3  -6 106.067 7.57694  41 
   3   3  -6 105.473 6.56078  77 
   3   3  -6 95.2681 7.48473  42 
   3   3  -6 100.365 7.13918  83 
  -2  -3   6 85.5151 5.27808  45 
  -2  -3   6 91.9438 5.93121  74 
  -2  -3   6 86.3169 5.34177  71 
   2  -3  -6 73.9604 5.50995  69 
  -2  -3   6 84.1129 5.19906  49 
  -2  -3   6 78.7823 5.50131  70 
   2  -3  -6 72.9301 4.81504  70 
  -2  -3   6 83.5404 6.46382  44 
  -2  -3   6 85.1770 6.01538  48 
  -2  -3   6 87.3502 5.10937  46 
   2  -3  -6 86.5099 5.70899  48 
   2  -3  -6 88.6004 4.94506  46 
   2  -3  -6 68.4208 5.96417  44 
   2   3  -6 82.2403 8.47722  82 
  -2   3   6 81.2032 4.78628  77 
   2   3  -6 83.3252 5.95122  83 
   2   3  -6 82.5856 5.35830  77 
   2   3  -6 81.1772 6.27592  42 
   2   3  -6 92.0811 9.72290  52 
   2   3  -6 86.6591 6.21796  41 
  -1  -3   6 96.6233 6.84492  44 
   1  -3  -6 88.1534 6.37696  44 
   1  -3  -6 87.7709 5.29876  70 
   1  -3  -6 94.3180 5.32667  46 
  -1  -3   6 93.1412 6.36502  48 
  -1  -3   6 88.5929 5.55486  45 
  -1  -3   6 94.4675 5.59874  49 
  -1  -3   6 91.0669 5.47883  46 
  -1  -3   6 100.325 6.40736  74 
   1  -3  -6 93.6886 6.05186  69 
   1  -3  -6 100.061 5.99311  48 
  -1   3   6 101.987 8.94912  68 
   1   3  -6 89.8149 6.67137  42 
   1   3  -6 85.9449 7.86202  52 
   1   3  -6 81.8712 8.62379  82 
   1   3  -6 90.8149 6.68126  41 
  -1   3   6 91.1020 5.25781  77 
   1   3  -6 93.3735 5.79498  77 
   0  -3   6 213.852 10.9295  46 
   0  -3  -6 208.018 10.7690  46 
   0  -3   6 209.059 11.5912  48 
   0  -3   6 206.075 10.9465  49 
   0  -3   6 210.907 12.3056  79 
   0  -3   6 198.100 10.9554  45 
   0  -3   6 208.957 12.0737  44 
   0  -3   6 198.397 11.4584  75 
   0  -3   6 211.188 11.6858  74 
   0  -3  -6 205.414 11.5093  69 
   0  -3  -6 215.423 11.7879  44 
   0  -3  -6 216.896 10.8408  70 
   0  -3  -6 204.032 11.2768  48 
   0   3  -6 213.850 12.1020  42 
   0   3  -6 204.710 10.9621  77 
   0   3  -6 186.198 13.1315  82 
   0   3   6 198.013 10.7132  77 
   1  -3   6 47.6650 3.57611  46 
   1  -3   6 52.7896 5.19274  44 
   1  -3   6 45.1501 4.58967  75 
   1  -3   6 51.4114 5.05791  74 
  -1  -3  -6 50.3482 4.21810  69 
   1  -3   6 51.1195 3.87407  45 
   1  -3   6 46.0231 4.45975  48 
   1  -3   6 43.6281 5.43789  79 
  -1  -3  -6 51.6197 4.21256  48 
   1  -3   6 52.3702 5.08357  70 
  -1  -3  -6 48.2791 3.47294  46 
   1  -3   6 44.6948 3.65670  49 
  -1  -3  -6 45.2853 3.64759  71 
  -1  -3  -6 56.4225 4.64998  44 
  -1  -3  -6 49.6421 3.55080  70 
   1  -3   6 51.0508 4.17928  71 
  -1   3  -6 42.3563 5.01984  42 
  -1   3  -6 50.8362 3.96791  77 
   1   3   6 44.1890 3.73076  77 
   2  -3   6 58.5939 5.70667  44 
  -2  -3  -6 58.3754 5.30370  44 
   2  -3   6 61.9901 4.28922  49 
   2  -3   6 46.4689 6.07533  79 
  -2  -3  -6 57.4417 5.39001  79 
   2  -3   6 63.7297 4.69028  71 
   2  -3   6 55.8046 5.13640  74 
  -2  -3  -6 56.1273 3.91979  45 
  -2  -3  -6 50.6611 3.82448  46 
  -2  -3  -6 56.4491 4.65212  75 
   2  -3   6 59.4560 4.34561  45 
   2  -3   6 54.5036 5.05654  75 
   2  -3   6 56.7144 5.05001  48 
  -2  -3  -6 55.8352 4.12160  71 
  -2  -3  -6 57.1607 4.03284  70 
   2  -3   6 60.6521 4.90095  38 
   2  -3   6 48.1569 3.98554  46 
  -2  -3  -6 50.5315 4.60273  48 
  -2   3  -6 63.3641 5.59656  42 
   2   3   6 52.9065 4.46158  77 
   2   3   6 52.3331 6.03416  43 
  -2   3  -6 49.0905 6.68826  83 
  -2   3  -6 58.6297 4.47973  77 
  -3  -3  -6 140.206 8.23969  71 
   3  -3   6 132.184 8.42883  71 
   3  -3   6 143.201 8.22809  49 
  -3  -3  -6 151.109 8.12207  45 
   3  -3   6 145.576 9.07078  75 
  -3  -3  -6 133.775 8.59137  75 
  -3  -3  -6 138.448 9.45681  79 
   3  -3   6 137.900 9.03178  48 
  -3  -3  -6 110.761 8.57894  48 
   3  -3   6 133.842 8.74185  34 
   3  -3   6 150.608 9.87565  44 
   3  -3   6 147.468 9.75709  79 
  -3  -3  -6 144.045 9.60872  44 
   3  -3   6 139.409 9.07113  74 
   3  -3   6 141.741 8.38543  45 
  -3   3  -6 145.436 9.66089  83 
   3   3   6 137.682 9.88735  43 
   3   3   6 133.460 8.51143  77 
  -3   3  -6 162.721 9.35966  42 
   3   3   6 136.214 9.51848  40 
  -3   3  -6 158.036 8.42001  77 
  -4  -3  -6 305.308 17.1549  71 
   4  -3   6 313.645 17.3757  71 
  -4  -3  -6 325.630 17.1275  45 
   4  -3   6 339.068 17.3321  45 
   4  -3   6 320.931 17.9858  48 
  -4  -3  -6 329.424 18.5491  44 
   4  -3   6 335.799 18.6922  44 
   4  -3   6 353.832 17.9417  75 
  -4  -3  -6 333.370 17.9091  48 
  -4  -3  -6 314.689 17.5532  75 
   4  -3   6 318.069 18.7545  79 
  -4  -3  -6 324.763 18.4558  79 
   4  -3   6 321.458 17.5834  33 
   4   3   6 334.596 17.5017  77 
  -4   3  -6 336.720 17.2729  77 
  -4   3  -6 347.049 17.9865  42 
   4   3   6 318.402 18.0421  40 
  -4   3  -6 323.847 19.6304  83 
   4   3   6 317.353 18.6272  43 
  -5  -3  -6 837.547 39.6166  75 
  -5  -3  -6 702.049 40.0273  79 
   5  -3   6 748.152 39.5878  75 
   5  -3   6 778.360 40.5445  79 
  -5  -3  -6 761.443 38.9174  27 
   5  -3   6 792.044 39.2373  33 
   5  -3   6 743.832 40.3901  44 
  -5  -3  -6 750.518 40.2987  44 
   5  -3   6 776.510 38.9420  27 
   5   3   6 736.793 38.7925  28 
  -5   3  -6 771.674 38.8342   7 
   5   3   6 775.726 40.1802  43 
  -5   3  -6 738.992 38.5733  17 
  -5   3  -6 777.603 38.5664   3 
   5   3   6 791.599 38.6397   3 
   5   3   6 765.522 39.1103   7 
  -5   3  -6 805.074 39.7317   6 
  -5   3  -6 754.519 38.6196  28 
  -5   3  -6 758.558 38.6073   4 
  -5   3  -6 824.503 39.1077   8 
   5   3   6 815.379 39.6060  38 
   5   3   6 797.710 38.9885  31 
   5   3   6 819.929 39.0054  30 
   5   3   6 805.896 38.5816   1 
  -5   3  -6 755.677 38.5305  32 
   5   3   6 805.833 38.5924  32 
  -5   3  -6 783.226 38.3171  16 
   5   3   6 783.505 38.3412  16 
   5   3   6 821.205 39.8102  40 
   5   3   6 811.280 39.2937  77 
   5   3   6 761.665 38.7781   4 
  -5   3  -6 749.891 38.7725  30 
  -5   3  -6 832.051 39.2676  14 
  -5   3  -6 819.194 38.5700   1 
  -5   3  -6 725.885 38.7785   2 
  -5   3  -6 803.906 39.3273  25 
  -5   3  -6 757.920 38.7687  31 
   6  -3   6 92.3052 7.31752  33 
   6  -3   6 95.1125 7.42116  41 
  -6  -3  -6 88.4287 7.75649  79 
   6  -3   6 101.716 8.26786  24 
   6  -3   6 91.2429 8.31689  79 
   6  -3   6 106.686 6.75575  27 
  -6  -3  -6 95.3838 6.28691  27 
  -6   3  -6 94.1565 5.84956  28 
   6   3   6 93.9676 7.64362  38 
   6   3   6 92.9235 6.68869   4 
   6   3   6 88.8080 5.83924  32 
   6   3   6 94.7804 6.77160  31 
   6   3   6 95.3006 8.24427  43 
  -6   3  -6 94.1259 5.67086   1 
  -6   3  -6 93.0746 6.28313  31 
   6   3   6 95.1162 6.44932  28 
  -6   3  -6 111.338 6.40143   7 
   6   3   6 100.710 5.79687   1 
  -6   3  -6 93.0817 5.08956  16 
  -6   3  -6 84.5686 6.09172   4 
  -6   3  -6 94.8586 5.69683  32 
  -6   3  -6 92.5586 5.77523   3 
  -6   3  -6 106.360 7.30402  25 
  -6   3  -6 79.3423 6.14338  77 
   6   3   6 97.6188 6.61042  30 
  -6   3  -6 94.0840 6.65863   8 
   6   3   6 86.9854 7.98783  40 
  -6   3  -6 96.5395 6.18197  30 
  -6   3  -6 86.0931 6.32521   2 
  -6   3  -6 94.5290 7.52994   6 
   6   3   6 80.0825 6.74740  77 
   6   3   6 92.4321 5.32997  16 
  -6   3  -6 92.9723 5.92202  17 
   6   3   6 94.0077 7.20674   7 
   6   3   6 96.0372 6.09798   3 
  -6   3  -6 92.4387 6.87988  14 
  -7  -3  -6 7.79585 2.72600  20 
   7  -3   6 11.9060 4.36795  33 
   7  -3   6 11.5132 3.33882  27 
  -7  -3  -6 5.45660 1.83900  27 
   7  -3   6 10.9663 5.28119  24 
   7   3   6 10.5763 2.49601   1 
   7   3   6 3.77726 1.89833   3 
  -7   3  -6 11.5226 2.69377  14 
  -7   3  -6 9.91883 3.15950  30 
  -7   3  -6 8.03519 2.14570  32 
  -7   3  -6 6.66718 2.11763   7 
  -7   3  -6 6.62117 1.53741   3 
   7   3   6 8.55854 2.67730  31 
  -7   3  -6 3.68835 3.04728  25 
   7   3   6 9.07758 2.73786  30 
   7   3   6 7.20250 2.20539   4 
   7   3   6 4.81265 2.30108  28 
  -7   3  -6 12.0223 2.81112  28 
  -7   3  -6 6.24904 1.87612   4 
  -7   3  -6 11.3572 2.71594  17 
   7   3   6 3.86721 2.61489  15 
   7   3   6 10.8866 2.80491  32 
  -7   3  -6 6.66862 1.51342   1 
  -7   3  -6 5.55695 2.04360   2 
  -7   3  -6 8.72029 3.37739   6 
   7   3   6 1.37554 3.10804  38 
   7   3   6 7.20862 2.83281   7 
  -7   3  -6 9.28378 2.49525   8 
  -7   3  -6 5.86203 2.00509  31 
  -8  -3  -6 22.1843 3.22594  19 
   8  -3   6 24.2367 3.95683  24 
   8  -3   6 29.8925 3.63220  18 
   8  -3   6 24.9449 3.44761  19 
  -8  -3  -6 16.7380 2.54512  27 
   8  -3   6 19.0749 3.65262  20 
   8  -3   6 20.4427 2.78489  27 
  -8  -3  -6 25.0712 3.04660  18 
  -8  -3  -6 24.0295 3.46291  20 
   8   3   6 16.5284 2.10409   3 
  -8   3  -6 19.6646 3.15497  25 
  -8   3  -6 19.9638 2.73935  31 
   8   3   6 22.6969 3.23619  31 
  -8   3  -6 21.4146 3.77320   6 
   8   3   6 23.5316 3.73042  15 
   8   3   6 22.7136 3.17602  30 
   8   3   6 20.1147 1.73694  32 
   8   3   6 21.8127 3.68064   7 
  -8   3  -6 25.2184 3.05247   7 
  -8   3  -6 20.1086 2.77686  30 
  -8   3  -6 24.7197 2.47096  17 
   8   3   6 23.8499 4.34693   4 
  -8   3  -6 24.3659 3.18346  14 
   9  -4  -6 73.5325 5.48653  24 
  -9  -4   6 74.2591 4.81587  19 
   9  -4  -6 67.4277 4.49457  27 
  -9  -4   6 64.9176 4.44865  27 
   9   4  -6 70.3573 4.53003  31 
   9   4  -6 66.3139 4.72310  10 
   9   4  -6 68.1400 4.74378  30 
  -9   4   6 71.9875 4.19216  28 
  -9   4   6 72.6801 4.11349  29 
   9   4  -6 68.0294 4.68097   7 
   9   4  -6 62.4013 5.30560  15 
   9   4  -6 64.7796 4.95584  23 
  -9   4   6 67.8198 4.08435  22 
   9   4  -6 72.5792 4.37318  28 
   8  -4  -6 23.0361 3.58637  27 
  -8  -4   6 19.2388 3.62080  27 
   8   4  -6 35.8059 4.57065  39 
   8   4  -6 17.8323 4.46555   7 
   8   4  -6 19.7464 3.64285  31 
   8   4  -6 26.5892 4.75499  10 
  -8   4   6 19.6563 2.14701  30 
   8   4  -6 20.7662 3.50215  28 
   8   4  -6 20.5686 4.97331  23 
   8   4  -6 20.1438 4.20752  30 
  -8   4   6 22.3039 2.76431  28 
  -8   4   6 21.8785 2.78221  22 
  -8   4   6 25.3557 2.80180  29 
   8   4  -6 18.5752 5.48639  15 
  -7  -4   6 14.9174 4.40787  27 
  -7   4   6 12.0758 2.83862  29 
   7   4  -6 7.61918 2.67299  31 
   7   4  -6 16.2246 2.40827  32 
   7   4  -6 14.0854 5.24810  36 
   7   4  -6 12.7284 3.80565  23 
  -7   4   6 11.8552 2.44141  30 
  -7   4   6 6.92305 1.94987  22 
   7   4  -6 15.5894 3.99657  28 
  -7   4   6 14.1114 3.08562  28 
   7   4  -6 15.0720 3.40839   7 
   7   4  -6 16.7540 4.77748  10 
   7   4  -6 12.3759 1.73263   1 
   7   4  -6 13.2750 3.08412  30 
   7   4  -6 12.2618 3.51245  39 
  -6  -4   6 27.8837 5.69382  44 
  -6  -4   6 34.4000 4.67300  27 
   6  -4  -6 35.3971 6.50770  44 
   6   4  -6 27.0954 6.09125  36 
   6   4  -6 27.7926 3.64225  77 
   6   4  -6 28.4874 5.53241   7 
   6   4  -6 22.8173 5.22729  42 
   6   4  -6 22.8545 4.96261  39 
  -6   4   6 27.2685 3.45775  28 
  -6   4   6 29.5332 2.92006  30 
   6   4  -6 24.8700 2.78482   1 
   6   4  -6 24.8456 5.77999  23 
  -6   4   6 29.3193 3.34814  29 
   6   4  -6 31.8804 5.48823  10 
   6   4  -6 26.5073 4.17746  29 
   6   4  -6 24.0295 5.02172  30 
   6   4  -6 23.8821 4.54337  31 
   6   4  -6 31.2247 2.99093  32 
   6   4  -6 26.2006 4.43434  28 
  -6   4   6 28.7944 3.45850  22 
  -5  -4   6 259.512 15.7881  44 
   5  -4  -6 254.540 15.4602  44 
  -5  -4   6 252.578 14.5827  75 
   5   4  -6 270.539 14.1544  31 
  -5   4   6 274.374 13.8084  80 
   5   4  -6 253.694 14.5449   7 
   5   4  -6 272.022 15.6376  42 
   5   4  -6 252.440 15.1501  23 
   5   4  -6 284.921 13.4036   1 
   5   4  -6 235.395 13.7814  77 
   5   4  -6 261.843 14.1303  28 
  -5   4   6 295.500 13.8095  28 
   5   4  -6 270.565 14.3001  30 
  -5   4   6 254.462 13.6534  29 
   5   4  -6 278.312 15.0333  39 
   5   4  -6 260.090 15.8753  36 
  -5   4   6 266.871 13.8603  22 
  -5   4   6 255.738 13.4821  30 
   5   4  -6 266.867 13.4609  32 
   5   4  -6 261.337 14.0124  29 
   4  -4  -6 219.395 11.9516  46 
  -4  -4   6 236.418 12.3620  71 
  -4  -4   6 252.214 14.1108  44 
   4  -4  -6 226.562 13.3950  44 
  -4  -4   6 225.168 12.7831  75 
  -4  -4   6 188.256 12.8597  48 
   4   4  -6 244.935 14.0252  42 
   4   4  -6 226.270 15.3965  82 
   4   4  -6 212.192 11.9560  77 
  -4   4   6 222.939 11.8601  80 
   4   4  -6 240.680 14.2300  36 
   4   4  -6 230.310 13.1839  39 
   3  -4  -6 164.533 8.78850  46 
  -3  -4   6 157.324 9.01845  46 
  -3  -4   6 156.254 9.90235  48 
   3  -4  -6 160.451 8.72187  70 
  -3  -4   6 163.207 10.7169  44 
   3   4  -6 162.378 11.4051  36 
   3   4  -6 160.789 8.75805  77 
  -3   4   6 166.273 8.72393  80 
   3   4  -6 165.555 13.2580  82 
   3   4  -6 149.504 10.7277  42 
   3   4  -6 163.195 10.1140  39 
  -2  -4   6 96.4081 6.04085  46 
  -2  -4   6 96.3355 6.58411  49 
  -2  -4   6 102.802 6.13998  70 
   2  -4  -6 102.821 5.76065  70 
  -2  -4   6 107.909 7.88773  44 
   2  -4  -6 98.3145 5.79102  46 
  -2  -4   6 98.9515 6.93348  48 
   2   4  -6 110.229 8.55171  36 
  -2   4   6 99.3236 5.80365  80 
   2   4  -6 100.588 6.08695  35 
  -2   4   6 98.0816 7.55990  37 
   2   4  -6 82.8122 10.7325  82 
   2   4  -6 100.941 7.67262  42 
   2   4  -6 96.2698 5.70842  77 
   2   4  -6 96.2162 7.09618  39 
  -1  -4   6 75.1109 4.79622  70 
   1  -4  -6 68.1672 4.43075  46 
   1  -4  -6 73.9104 4.38989  70 
  -1  -4   6 70.7896 5.61521  48 
  -1  -4   6 67.8867 4.66503  46 
  -1  -4   6 68.2913 6.37364  44 
  -1  -4   6 67.5140 4.79603  49 
   1   4  -6 66.5417 6.11917  39 
   1   4  -6 72.0409 4.87308  77 
   1   4  -6 73.8039 6.50840  42 
  -1   4   6 66.5744 6.39899  37 
   1   4  -6 72.3103 7.27555  36 
   1   4  -6 73.1115 4.69135  35 
  -1   4   6 73.3238 4.52976  80 
   1   4  -6 59.2044 9.03108  82 
   0  -4   6 75.4716 5.75189  48 
   0  -4  -6 74.1078 4.65566  46 
   0  -4  -6 73.5410 4.67099  70 
   0  -4   6 61.7935 5.79632  49 
   0  -4   6 81.9821 6.67299  44 
   0  -4   6 82.8092 4.96827  46 
   0   4  -6 73.8634 7.10066  36 
   0   4   6 78.4264 6.17363  37 
   0   4  -6 68.5335 4.98599  77 
   0   4  -6 80.2148 4.83789  35 
   0   4   6 79.1018 4.95132  80 
   0   4  -6 83.1374 6.66751  42 
   0   4  -6 66.7792 9.62429  82 
   1  -4   6 48.2294 4.76715  48 
  -1  -4  -6 46.6654 4.28200  48 
   1  -4   6 52.0118 3.90676  46 
  -1  -4  -6 50.0868 3.70157  46 
   1  -4   6 55.6697 5.80920  44 
  -1  -4  -6 59.2334 5.05388  44 
  -1  -4  -6 54.2883 3.76802  70 
   1  -4   6 55.5580 4.28726  70 
   1   4   6 64.5955 5.78309  37 
   1   4   6 48.2310 4.02257  80 
  -1   4  -6 45.7337 5.89035  42 
  -1   4  -6 50.0982 3.77843  35 
   2  -4   6 347.807 17.0973  46 
   2  -4   6 318.256 17.6499  48 
   2  -4   6 325.718 18.1213  74 
  -2  -4  -6 339.096 16.9661  46 
  -2  -4  -6 350.404 18.2448  44 
   2  -4   6 338.090 18.4181  44 
  -2   4  -6 358.940 18.2292  42 
   2   4   6 355.006 17.6812  37 
   2   4   6 316.360 18.4555  43 
   2   4   6 272.102 16.0848  35 
  -2   4  -6 325.349 16.7527  35 
   3  -4   6 443.347 24.3394  44 
  -3  -4  -6 461.378 24.3079  44 
   3  -4   6 411.045 23.8122  74 
   3   4   6 480.255 22.5048  35 
   3   4   6 429.279 22.7980  29 
   3   4   6 417.227 22.9613  31 
  -3   4  -6 438.820 23.4126  14 
  -3   4  -6 450.871 22.6900  35 
   3   4   6 465.930 24.4907  43 
   3   4   6 493.965 25.0611  37 
  -3   4  -6 443.962 22.7752  30 
   3   4   6 482.497 22.8148  30 
   3   4   6 478.558 22.9019  28 
  -3   4  -6 456.725 22.7207  28 
  -3   4  -6 423.558 22.7056  31 
  -3   4  -6 423.620 22.8420   7 
  -3   4  -6 416.994 23.3564   8 
   3   4   6 464.753 22.4761  35 
  -3   4  -6 462.922 22.7251  29 
   3   4   6 478.052 24.0956  40 
  -3   4  -6 479.135 24.1298  42 
   4  -4   6 11.5442 4.91999  44 
   4  -4   6 15.4358 5.55711  79 
  -4  -4  -6 5.02372 2.43910  44 
  -4   4  -6 8.38757 1.90231  29 
  -4   4  -6 13.3916 4.03874  25 
  -4   4  -6 13.0117 2.81648  30 
  -4   4  -6 14.6631 2.33419  35 
   4   4   6 8.12181 3.81680  43 
   4   4   6 10.7227 2.32363  35 
  -4   4  -6 16.7307 4.63675  42 
  -4   4  -6 12.9090 2.91386  31 
   4   4   6 5.40081 3.17847  40 
  -4   4  -6 9.26952 2.94568  14 
  -4   4  -6 14.2533 3.43848   8 
   4   4   6 11.6685 3.33424  31 
   4   4   6 10.5718 2.62379  35 
   4   4   6 14.1187 3.33113  29 
   4   4   6 15.7220 4.69456   7 
   4   4   6 13.4428 3.29362  30 
  -4   4  -6 11.3903 3.46384   7 
  -4   4  -6 13.6668 3.06856  28 
   4   4   6 8.32086 2.38741  28 
  -5  -4  -6 125.957 9.23864  79 
   5  -4   6 141.342 9.86686  79 
  -5  -4  -6 146.659 8.33307  27 
   5  -4   6 135.207 8.34377  27 
  -5   4  -6 148.608 7.96228  28 
  -5   4  -6 138.730 9.04289  25 
   5   4   6 142.094 8.22621  30 
  -5   4  -6 152.234 8.04746  31 
   5   4   6 143.556 7.65850  35 
   5   4   6 139.089 8.53786   7 
   5   4   6 144.238 8.37245  28 
  -5   4  -6 149.962 8.79735   8 
   5   4   6 132.813 7.64566  35 
  -5   4  -6 139.315 7.90611  29 
   5   4   6 153.445 8.31268  31 
  -5   4  -6 162.025 8.18029   7 
   5   4   6 132.271 8.13006  29 
   5   4   6 149.938 9.82027  40 
  -5   4  -6 144.917 7.65073  35 
  -5   4  -6 151.617 7.99226  30 
  -5   4  -6 142.096 7.87118  35 
  -5   4  -6 138.605 9.49724   6 
  -5   4  -6 147.433 9.01485  14 
   5   4   6 133.128 9.96143  43 
  -6  -4  -6 4.36473 1.77778  27 
   6  -4   6 1.01154 2.54094  24 
   6  -4   6 2.34215 2.46238  33 
   6  -4   6 2.23001 1.95821  27 
  -6   4  -6 2.61981 2.53009   8 
  -6   4  -6 1.04074 1.54482  29 
  -6   4  -6 1.68366 1.39682  31 
   6   4   6 0.99871 1.76292  30 
  -6   4  -6 3.92317 2.99332  25 
  -6   4  -6 -0.4045 1.64725   7 
  -6   4  -6 3.29935 1.63121  28 
   6   4   6 4.13891 2.15361  29 
   6   4   6 1.87628 2.18097   7 
  -6   4  -6 2.17863 1.45719  17 
   6   4   6 3.60780 1.90193  31 
  -6   4  -6 3.03237 1.44212  30 
  -6   4  -6 1.68693 2.27692  14 
  -6   4  -6 1.71005 2.92911   6 
   6   4   6 -0.4281 2.14668  28 
   7  -4   6 24.6699 4.18748  24 
   7  -4   6 29.1408 3.01313  27 
  -7  -4  -6 21.3050 2.76870  27 
  -7   4  -6 21.6207 2.33946  28 
   7   4   6 12.2231 4.14493  15 
   7   4   6 25.7539 2.78142  28 
  -7   4  -6 20.7237 2.19789  30 
  -7   4  -6 23.0928 2.60655  31 
   7   4   6 19.1187 2.54005  30 
  -7   4  -6 23.1421 2.66907   7 
   7   4   6 22.1157 2.55463  31 
  -7   4  -6 26.7967 2.38274  29 
  -7   4  -6 18.7436 3.58107   6 
   7   4   6 23.5201 3.36329   7 
  -7   4  -6 19.9801 3.22523  25 
  -7   4  -6 23.5076 2.31240  17 
  -7   4  -6 24.0370 3.00649   8 
  -7   4  -6 18.4153 2.92418  14 
  -7  -5   6 52.6038 4.10496  27 
   7   5  -6 48.5861 3.84996  28 
   7   5  -6 50.9568 3.85675  29 
  -7   5   6 50.2983 3.25583  28 
  -7   5   6 56.0072 3.21541  26 
   7   5  -6 53.3485 4.69530  10 
  -7   5   6 53.1617 3.18784  11 
   7   5  -6 53.3991 4.90653  23 
  -7   5   6 47.4614 3.23060  29 
  -6  -5   6 17.5859 3.64916  27 
  -6   5   6 18.7097 2.13970  26 
  -6   5   6 17.5682 2.81448  22 
   6   5  -6 15.5264 4.70936  23 
   6   5  -6 15.3336 4.93125  36 
   6   5  -6 17.3940 3.15383  29 
   6   5  -6 17.6441 2.64428  30 
   6   5  -6 17.3895 4.54951  10 
  -6   5   6 17.8359 2.08038  11 
  -6   5   6 17.0388 2.24391  29 
   6   5  -6 19.6442 3.25201  28 
   6   5  -6 10.1773 3.11446  39 
   5   5  -6 162.119 8.13327  30 
   5   5  -6 145.569 9.52806  10 
   5   5  -6 136.953 9.51161  39 
  -5   5   6 167.566 8.59164  22 
   5   5  -6 147.481 8.46393  29 
  -5   5   6 150.967 7.95831  26 
   5   5  -6 144.694 10.2527  36 
   5   5  -6 148.940 8.60272  28 
  -5   5   6 148.702 7.93060  11 
  -5   5   6 156.436 8.02269  29 
   5   5  -6 153.692 9.78577  23 
   4   5  -6 120.160 8.76765  42 
  -4   5   6 105.578 5.88047  80 
   4   5  -6 119.054 8.39861  39 
   4   5  -6 127.663 6.99203  29 
  -4   5   6 113.913 6.28045  26 
   4   5  -6 112.868 6.96609  28 
   4   5  -6 111.540 6.47501  30 
   4   5  -6 116.615 9.21649  36 
   4   5  -6 123.143 8.43160  23 
  -4   5   6 117.514 6.24723  11 
  -4   5   6 118.569 6.99956   9 
  -4   5   6 116.154 7.23801  22 
   4   5  -6 123.641 10.5645  82 
  -4   5   6 114.692 6.09103  80 
  -4   5   6 119.663 6.32691  29 
   3   5  -6 360.445 20.0147  42 
   3   5  -6 339.411 18.7895  80 
  -3   5   6 370.048 18.1349  29 
   3   5  -6 360.233 18.5080  28 
   3   5  -6 356.228 18.4488  29 
   3   5  -6 367.364 19.4804  39 
   3   5  -6 368.925 19.6774  23 
   3   5  -6 413.776 21.7840  82 
  -3   5   6 354.318 18.1335  26 
  -3   5   6 359.656 18.3295  12 
  -3   5   6 365.850 18.0879  11 
   3   5  -6 381.252 20.4378  36 
   3   5  -6 357.706 18.1760  30 
  -3   5   6 359.008 18.5794   9 
  -2  -5   6 121.634 8.79714  44 
   2   5  -6 119.280 7.14943  80 
  -2   5   6 125.806 7.17222   9 
   2   5  -6 133.443 9.63398  36 
   2   5  -6 118.908 7.39451  11 
  -2   5   6 127.332 6.73507  29 
   2   5  -6 132.049 11.7883  82 
  -2   5   6 125.996 6.71277  26 
  -2   5   6 121.405 6.89013  12 
   2   5  -6 132.636 8.73684  39 
  -2   5   6 127.660 6.64690  11 
   2   5  -6 131.143 7.26619  28 
  -2   5   6 124.490 8.33893  37 
   2   5  -6 124.276 9.03816  42 
   2   5  -6 134.018 7.23516  29 
  -2   5   6 133.863 9.23026  21 
   2   5  -6 129.560 9.13263  23 
  -1  -5   6 15.0918 4.08529  44 
  -1   5   6 9.45183 4.12966  21 
   1   5  -6 13.0061 2.85334  29 
  -1   5   6 14.8348 2.18970  12 
  -1   5   6 16.2363 2.39126   9 
   1   5  -6 11.3429 3.73383  36 
   1   5  -6 16.6909 2.55229  80 
  -1   5   6 11.2397 2.00768  29 
  -1   5   6 16.1790 4.77961  37 
   1   5  -6 9.52463 6.76677  82 
  -1   5   6 16.4064 1.75612  11 
  -1   5   6 14.0535 1.89948  26 
   1   5  -6 11.6385 3.53743  39 
  -1   5   6 11.4867 1.47721  80 
  -1   5   6 15.3151 1.35939  80 
   1   5  -6 8.93004 3.72783  42 
   1   5  -6 17.4010 2.92848  28 
   1   5  -6 16.3156 2.56686  11 
   0  -5   6 165.562 10.5562  44 
   0   5  -6 163.723 10.7646  42 
   0   5  -6 160.510 9.08083  80 
   0   5  -6 178.168 10.2176  39 
   0   5  -6 164.695 8.94128  11 
   0   5  -6 172.678 9.04177  29 
   0   5   6 169.947 11.5550  21 
   0   5   6 172.470 8.72549  11 
   0   5   6 175.453 8.65451  80 
   0   5   6 163.901 9.19277   9 
   0   5   6 178.974 10.3929  37 
   0   5  -6 170.457 11.1010  36 
   0   5   6 166.640 8.84493  29 
   0   5  -6 181.394 12.9851  82 
   0   5  -6 164.999 9.05444  28 
   1  -5   6 50.9970 6.59445  44 
   1   5   6 52.7536 3.53692  11 
  -1   5  -6 54.1160 4.02058  29 
  -1   5  -6 59.8949 6.44049  36 
   1   5   6 64.0275 5.79001  37 
   1   5   6 55.5987 3.83052  29 
   1   5   6 57.3223 3.60273  80 
  -1   5  -6 54.3560 3.87772  28 
  -1   5  -6 57.3285 5.93165  42 
  -1   5  -6 61.4307 3.80593  11 
   1   5   6 52.4410 7.17681  21 
  -1   5  -6 63.5551 4.04681  80 
   2   5   6 17.0856 4.30399  37 
   2   5   6 18.5121 5.12817  43 
  -2   5  -6 16.0847 4.56816  42 
   2   5   6 19.2367 2.37749  80 
  -2   5  -6 19.4715 2.30758  11 
  -2   5  -6 19.5234 2.52405  28 
  -2   5  -6 18.7158 5.15607   8 
  -2   5  -6 19.0179 2.70777  29 
   2   5   6 16.9732 2.13524  11 
   2   5   6 20.1381 2.86281  29 
  -2   5  -6 21.6860 2.59097  80 
   2   5   6 17.7514 5.97732  21 
   3   5   6 208.554 13.4422  80 
   3   5   6 249.142 12.5674  11 
   3   5   6 257.787 12.6353  29 
  -3   5  -6 257.378 12.5686  29 
  -3   5  -6 226.346 13.8983  42 
  -3   5  -6 251.358 12.6164  28 
   3   5   6 248.680 15.9387  21 
   3   5   6 225.451 13.2529  37 
  -3   5  -6 262.514 13.3978   8 
  -3   5  -6 241.049 13.2524  11 
   3   5   6 253.133 12.6980  28 
  -4   5  -6 12.8246 2.21071  28 
   4   5   6 14.7238 2.27197  11 
   4   5   6 8.42131 2.55110  28 
  -4   5  -6 12.2518 2.81520   8 
  -4   5  -6 12.6417 2.40212  29 
   4   5   6 10.7528 2.44969  29 
   5  -5   6 -1.2815 1.59346  27 
  -5  -5  -6 -1.0489 1.61455  27 
   5   5   6 0.40895 1.45734  28 
  -5   5  -6 0.62825 1.15930  28 
   5   5   6 1.00488 1.59850  29 
  -5   5  -6 4.30836 2.35894  25 
   5   5   6 0.64055 1.82210  11 
  -5   5  -6 -0.6274 1.94601   8 
  -5   5  -6 -0.0775 1.19534  29 
   5   6  -6 43.8627 2.92463  29 
   5   6  -6 48.7334 4.18415  23 
   5   6  -6 44.1160 2.77052  11 
   5   6  -6 41.8426 3.04360  28 
  -5   6   6 48.2799 2.82631   9 
   5   6  -6 46.7924 2.86771  26 
   4   6  -6 175.044 9.78846  23 
   4   6  -6 168.616 8.74643  26 
  -4   6   6 171.968 8.73857   9 
   4   6  -6 171.655 8.76137  29 
   4   6  -6 168.284 8.67157  11 
   4   6  -6 168.642 9.20926  28 
  -3   6   6 5.20069 1.42029   9 
   3   6  -6 8.86576 2.82246  23 
   3   6  -6 6.89912 1.85645  29 
   3   6  -6 7.30537 1.35132  11 
   3   6  -6 8.18445 1.81372  26 
   3   6  -6 3.64927 2.65055  36 
   2   6  -6 14.1020 4.23518  39 
   2   6  -6 11.6715 1.86593  29 
   2   6  -6 14.6088 1.66899  11 
  -2   6   6 11.6561 1.60339   9 
   2   6  -6 8.70327 3.07375  36 
   2   6  -6 15.0653 4.41890  23 
   2   6  -6 14.3114 1.74389  26 
   1   6  -6 51.3211 3.41793  29 
   1   6  -6 67.4006 3.44507  26 
  -1   6   6 52.9704 4.99346  37 
   1   6  -6 54.5606 4.36891  12 
   1   6  -6 62.5800 3.33792  11 
   1   6  -6 60.3603 5.91848  36 
  -1   6   6 60.3809 3.51056   9 
  -1   6   6 42.6845 6.14909  21 
   0   6  -6 9.57883 1.36808  11 
   0   6  -6 7.65268 1.55334  26 
   0   6   6 4.16532 2.69717  37 
   0   6   6 6.04073 3.59644  21 
   0   6  -6 4.55677 2.51970  36 
   0   6   6 8.34505 1.70254   9 
   0   6  -6 8.56416 1.56768  29 
   0   6  -6 9.10214 1.61812  12 
   1   6   6 4.06292 3.51804  21 
   1   6   6 2.28062 0.79364  12 
  -1   6  -6 2.30454 0.86731  26 
  -1   6  -6 2.70196 0.84935  11 
   1   6   6 2.00800 1.14338   9 
  -1   6  -6 2.31689 1.05698  12 
  -1   6  -6 1.74026 0.96794  29 
   1   6   6 2.56044 0.76171  12 
   2   6   6 0.35910 0.84706  12 
   2   6   6 -0.7807 1.23966   9 
   2   6   6 2.11928 0.94962  12 
  -2   6  -6 0.27954 0.68290  11 
  -2   6  -6 0.24992 0.77799  29 
  -2   6  -6 1.34753 0.76920  26 
  -2   6  -6 1.58803 0.91519  12 
   2   6   6 -1.1508 2.40002  21 
   3   6   6 2.92101 1.23434   9 
  -3   6  -6 4.17613 1.01734  26 
   3   6   6 3.06845 0.92261  12 
   3   6   6 4.41235 0.90945  12 
  -3   6  -6 2.91017 0.93217  12 
  -3   6  -6 2.93435 1.95861   8 
  -3   6  -6 3.35496 0.92036  29 
  11   0  -7 20.9579 3.18154  10 
  11   0  -7 13.1505 2.97993  18 
 -11   0   7 14.7584 3.32288   4 
  11   0  -7 13.7639 3.38510  20 
 -11   0   7 16.0997 3.46674   2 
 -11   0   7 17.7744 3.15538  13 
 -11   0   7 19.0787 2.92143  16 
 -10   0   7 66.2462 5.99772   4 
  10   0  -7 65.2536 6.40507  20 
 -10   0   7 70.0486 6.18454   2 
 -10   0   7 62.8405 6.07726  13 
  10   0  -7 65.6225 5.77040  19 
  10   0  -7 58.2675 5.45725  18 
  10   0  -7 69.1705 5.53653  10 
   9   0  -7 17.2627 6.00256  20 
  -9   0   7 9.68107 4.87419  83 
  -9   0   7 26.5086 5.71515   2 
   9   0  -7 19.0580 5.10445  81 
   9   0  -7 24.6330 5.53820  41 
  -9   0   7 28.0354 5.48940   4 
   9   0  -7 22.8738 5.40098  19 
  -9   0   7 28.4648 5.45026  13 
   9   0  -7 31.1056 5.36541  18 
  -9   0   7 26.3203 5.08176  14 
   9   0  -7 17.3817 4.90229  78 
  -9   0   7 26.3965 4.74564  15 
   8   0  -7 32.1016 5.90558  19 
  -8   0   7 38.4908 5.95236  20 
   8   0  -7 39.7900 10.0008  76 
  -8   0   7 41.1332 5.43655  15 
   8   0  -7 41.6021 6.01676  18 
  -8   0   7 42.9593 5.56334  78 
   8   0  -7 39.2977 6.64954  33 
   8   0  -7 35.9312 6.88275  20 
  -8   0   7 28.3728 5.25281   4 
  -8   0   7 39.4975 6.18467  13 
  -8   0   7 42.1053 4.89823  19 
  -8   0   7 36.0389 5.50879  14 
  -8   0   7 32.0103 7.32532  47 
   8   0  -7 22.5084 13.1473  72 
  -8   0   7 39.0758 4.52623  81 
  -8   0   7 28.5837 6.35860   2 
  -8   0   7 46.7631 7.24644  83 
   8   0  -7 34.8783 7.70633  24 
   8   0  -7 43.1875 5.57305  78 
   8   0  -7 45.9781 6.01013  41 
  -8   0   7 42.9295 5.20282  18 
  -8   0   7 33.0927 4.75117  74 
   7   0  -7 82.5545 6.57761  75 
  -7   0   7 82.0304 6.53494  81 
   7   0  -7 67.5524 7.48907  79 
   7   0  -7 65.3479 6.27484  41 
  -7   0   7 77.9613 6.76633  78 
  -7   0   7 77.8625 8.77658  76 
   7   0  -7 68.5196 6.50264  45 
   7   0  -7 83.2676 16.2000  72 
  -7   0   7 73.4019 8.20143  83 
   7   0  -7 64.2261 6.22161  78 
   7   0  -7 67.4550 7.34741  33 
  -7   0   7 73.0167 6.56353  74 
  -7   0   7 81.3658 6.43335  47 
   7   0  -7 58.0003 6.89785  71 
   6   0  -7 238.117 13.7228  78 
  -6   0   7 250.343 14.0474  78 
   6   0  -7 256.803 14.6312  79 
   6   0  -7 260.091 13.4190  71 
   6   0  -7 262.905 22.8064  72 
  -6   0   7 238.510 16.1336  76 
  -6   0   7 246.826 13.8802  74 
  -6   0   7 247.134 14.6405  83 
   6   0  -7 228.179 13.6336  45 
   6   0  -7 239.777 13.8340  41 
   6   0  -7 226.421 13.5019  75 
  -6   0   7 231.250 13.8674  81 
  -6   0   7 279.039 13.9923  47 
  -5   0   7 636.679 32.0706  83 
   5   0  -7 643.561 30.9247  71 
  -5   0   7 585.701 33.3243  76 
  -5   0   7 613.523 31.2533  47 
   5   0  -7 639.243 39.6023  72 
   5   0  -7 591.188 31.7800  79 
   5   0  -7 594.997 31.1246  78 
   5   0  -7 566.349 31.1041  41 
  -5   0   7 652.068 31.3772  78 
  -5   0   7 633.660 31.4618  81 
  -5   0   7 611.090 31.3553  74 
   5   0  -7 619.046 31.0775  75 
   5   0  -7 610.814 31.1832  45 
   4   0  -7 404.323 22.1073  71 
  -4   0   7 408.863 22.3128  47 
  -4   0   7 400.109 24.7413  76 
   4   0  -7 429.500 22.3139  75 
  -4   0   7 448.351 22.5864  78 
   4   0  -7 473.752 22.4384  45 
  -4   0   7 479.690 26.0491  67 
   4   0  -7 438.610 22.4476  78 
  -4   0   7 435.532 29.6712  72 
  -4   0   7 459.630 22.5785  74 
  -3   0   7 648.133 32.5713  47 
   3   0  -7 645.839 35.4105  67 
  -3   0   7 678.027 35.8998  67 
   3   0  -7 679.035 32.4300  71 
  -3   0   7 597.305 33.4372  55 
  -3   0   7 610.181 39.2228  72 
   3   0  -7 622.344 32.5158  45 
  -3   0   7 666.602 32.7943  78 
   3   0  -7 672.122 32.6199  75 
   3   0  -7 692.405 34.0613  55 
  -3   0   7 647.523 32.6783  74 
  -2   0   7 731.641 35.2411  55 
  -2   0   7 749.420 37.5223  67 
   2   0  -7 642.579 34.2033  75 
  -2   0   7 598.068 40.2421  72 
   2   0  -7 660.182 34.1616  45 
   2   0  -7 698.255 34.1011  71 
  -2   0   7 685.832 34.1465  45 
   2   0  -7 728.164 35.0297  48 
  -2   0   7 678.656 34.3050  74 
   2   0  -7 653.315 35.4249  55 
   2   0  -7 732.621 37.0641  67 
   1   0  -7 302.518 15.6696  55 
   1   0  -7 265.461 15.7552  48 
  -1   0   7 230.213 21.4023  72 
  -1   0   7 295.825 17.4644  67 
   1   0  -7 252.402 14.1901  75 
  -1   0   7 297.371 15.2515  55 
  -1   0   7 266.289 14.2495  74 
   1   0  -7 305.797 17.3018  67 
  -1   0   7 263.223 14.0853  45 
   1   0  -7 270.185 14.0832  71 
   1   0  -7 273.928 14.1713  45 
   0   0  -7 3.45970 1.40523  45 
   0   0   7 3.31364 1.36890  45 
   0   0  -7 2.16788 2.79056  55 
   0   0   7 0.82046 2.48185  55 
   0   0  -7 5.00553 1.88109  75 
   0   0  -7 2.70897 1.57465  71 
   0   0   7 3.64753 2.81228  67 
   0   0   7 4.96398 1.90413  74 
   0   0  -7 3.93593 2.94405  67 
   1   0   7 120.925 15.3088  72 
  -1   0  -7 107.211 8.10483  55 
  -1   0  -7 118.738 7.23687  75 
  -1   0  -7 128.175 6.96173  45 
  -1   0  -7 126.965 10.0926  67 
   1   0   7 126.751 8.41533  55 
   1   0   7 124.774 7.63112  78 
   1   0   7 124.129 7.08309  45 
  -1   0  -7 117.505 6.97338  71 
  -1   0  -7 111.243 7.72581  78 
   1   0   7 115.254 10.0727  67 
  -2   0  -7 1226.87 61.3242  75 
  -2   0  -7 1222.94 61.1084  45 
   2   0   7 1162.19 61.4347  78 
  -2   0  -7 1257.97 61.4482  78 
   2   0   7 1338.43 70.3360  72 
   2   0   7 1216.05 63.8258  76 
   2   0   7 1264.84 61.1377  45 
  -2   0  -7 1257.69 64.8747  67 
  -2   0  -7 1211.92 61.1077  71 
   3   0   7 156.229 19.7929  72 
  -3   0  -7 149.247 9.47178  78 
  -3   0  -7 159.969 9.02731  71 
  -3   0  -7 162.508 9.00318  45 
   3   0   7 160.847 12.7363  76 
   3   0   7 160.036 9.99794  78 
  -3   0  -7 155.133 9.28000  75 
  -3   0  -7 174.799 10.8567  79 
   4   0   7 62.0926 19.0328  72 
   4   0   7 99.0053 9.03765  81 
  -4   0  -7 75.5526 5.66101  45 
  -4   0  -7 92.8148 10.7936  76 
   4   0   7 99.2057 7.60649  78 
  -4   0  -7 88.0378 6.52212  78 
   4   0   7 93.7912 6.43001  38 
   4   0   7 98.4915 7.08464  34 
   4   0   7 83.5049 10.7326  76 
   5   0   7 2.05981 3.34393  38 
   5   0   7 -0.2999 3.18860  76 
   5   0   7 0.39914 3.98565  72 
  -5   0  -7 2.09863 2.61011  76 
   5   0   7 4.08668 3.08500  34 
   5   0   7 1.93054 2.48025  40 
  -5   0  -7 0.72708 3.00996  78 
   5   0   7 -2.0077 3.92646  78 
   5   0   7 3.54764 2.93173  81 
   6   0   7 36.8031 5.82310  78 
  -6   0  -7 39.8880 4.48167  18 
  -6   0  -7 32.8618 5.59656   5 
   6   0   7 36.5881 5.18431  18 
   6   0   7 41.3004 5.32708  19 
   6   0   7 49.5934 5.76641  40 
   6   0   7 55.3918 13.2017  76 
  -6   0  -7 38.5970 4.77450   8 
   6   0   7 33.9254 5.89005  20 
   6   0   7 41.1072 6.32724  81 
   6   0   7 38.1307 5.11839  38 
   6   0   7 38.1892 5.54306  34 
  -6   0  -7 38.1752 5.07261  78 
  -6   0  -7 45.7316 5.31120  20 
  -6   0  -7 38.0022 7.12782  76 
  -6   0  -7 38.3672 4.71664  19 
  -7   0  -7 7.91446 4.50441  83 
  -7   0  -7 18.8439 4.57345  20 
  -7   0  -7 12.1040 3.77429  18 
   7   0   7 13.9818 4.16684  19 
   7   0   7 15.8797 4.63253  40 
   7   0   7 17.5228 4.44889  38 
  -7   0  -7 15.9922 4.91447   5 
  -7   0  -7 14.4711 3.54085  19 
   7   0   7 17.3860 4.14418  18 
   7   0   7 14.8970 4.65778  81 
   7   0   7 15.7825 5.22085  20 
  -8   0  -7 6.75172 2.26056   4 
   8   0   7 11.8965 3.33199  18 
  -8   0  -7 11.7153 2.95657  18 
  -8   0  -7 19.8885 4.29467   5 
   8   0   7 12.6718 3.07208  13 
   8   0   7 9.17567 2.71793  20 
  -8   0  -7 18.1816 3.77365  13 
  -9   0  -7 133.853 7.64867  13 
  -9   0  -7 150.540 7.64916   5 
   9   0   7 119.822 7.63260  13 
  11  -1  -7 1.71402 2.30310  20 
 -11  -1   7 4.95379 2.21292  13 
  11  -1  -7 5.13357 1.79748  10 
  11  -1  -7 6.45561 1.93312  19 
  11  -1  -7 3.42601 1.96791  18 
 -11   1   7 3.66122 1.17252  22 
 -11   1   7 4.38296 1.90661  14 
 -11   1   7 6.26338 1.64591   3 
 -11   1   7 4.31601 1.06154  16 
 -11   1   7 2.06087 2.05792  31 
  11   1  -7 8.87999 2.86602  10 
 -11   1   7 2.67197 1.48235  32 
 -11   1   7 6.64838 1.86146   4 
 -11   1   7 5.19775 1.81896   2 
  11   1  -7 8.67688 2.93788  23 
 -11   1   7 4.61256 2.19623   7 
  11   1  -7 4.16223 1.99509  13 
 -11   1   7 6.22670 1.55788   1 
  11   1  -7 4.86812 2.47025   4 
  10  -1  -7 20.7665 4.51523  19 
 -10  -1   7 22.5615 4.31234  20 
  10  -1  -7 20.7652 4.63634  18 
 -10  -1   7 14.5562 3.55364  18 
  10  -1  -7 14.4176 4.67344  33 
  10  -1  -7 12.9916 3.60885  20 
 -10   1   7 14.7830 4.27220  31 
 -10   1   7 18.0055 2.54833  22 
 -10   1   7 13.4413 3.81681  13 
 -10   1   7 10.6459 2.35043   5 
 -10   1   7 16.3960 3.55345  15 
 -10   1   7 21.6786 4.83477   7 
 -10   1   7 8.74698 2.47330   3 
 -10   1   7 11.5743 3.07489   4 
  10   1  -7 19.4719 4.33146  10 
 -10   1   7 7.01509 2.72981   2 
 -10   1   7 14.3393 4.14096  14 
  10   1  -7 11.0687 3.39526  13 
 -10   1   7 17.7384 3.42003  16 
  10   1  -7 16.9389 4.57431   4 
   9  -1  -7 27.9704 5.63885  19 
   9  -1  -7 36.3076 5.73249  18 
   9  -1  -7 21.8666 5.84091  24 
   9  -1  -7 34.4201 6.03482  33 
  -9  -1   7 36.3870 4.66069  19 
  -9  -1   7 24.6337 4.72400  18 
  -9  -1   7 27.3278 5.86936  20 
  -9  -1   7 33.3251 4.99252  81 
   9  -1  -7 29.1350 4.80362  41 
  -9  -1   7 26.6180 5.87066  78 
   9  -1  -7 27.7409 4.62889  27 
   9  -1  -7 25.0568 5.98436  79 
   9  -1  -7 31.9807 6.68148  20 
  -9   1   7 35.2753 4.54989  16 
  -9   1   7 32.2138 5.36025   7 
   9   1  -7 37.0069 5.91703   4 
   9   1  -7 32.7655 5.06567  18 
  -9   1   7 32.6332 5.28726   4 
   9   1  -7 29.7637 5.74717  41 
  -9   1   7 37.7348 5.28973  31 
  -9   1   7 33.5101 6.17618  83 
  -9   1   7 25.0458 5.07763  13 
  -9   1   7 40.8249 5.14551  14 
  -9   1   7 22.9443 5.61352   2 
  -9   1   7 25.6836 4.78026   3 
   9   1  -7 34.4851 5.99099  78 
  -9   1   7 32.1599 5.04833   5 
   9   1  -7 25.6341 6.38166  13 
   9   1  -7 24.2729 5.21217  10 
   9   1  -7 34.6129 8.12016  19 
  -9   1   7 28.6693 6.00537  15 
   9   1  -7 33.1490 5.95990  20 
  -8  -1   7 10.9025 4.32551  78 
  -8  -1   7 16.7656 5.52707  20 
  -8  -1   7 7.45747 3.19058  74 
   8  -1  -7 17.3894 4.14930  18 
   8  -1  -7 19.8181 6.69953  20 
   8  -1  -7 21.0502 6.16241  79 
  -8  -1   7 18.7515 9.08475  76 
   8  -1  -7 18.8232 4.91974  27 
   8  -1  -7 24.1120 5.94115  33 
  -8  -1   7 14.1509 5.61060  81 
  -8  -1   7 4.46658 2.88415  18 
   8  -1  -7 13.2869 4.80987  41 
   8  -1  -7 14.6423 3.88227  19 
   8  -1  -7 20.7742 6.60369  24 
   8  -1  -7 30.3281 15.0851  72 
  -8  -1   7 15.1546 4.86561  19 
  -8   1   7 28.7055 5.37566  13 
  -8   1   7 8.89513 4.79957  83 
   8   1  -7 17.7011 4.46902  15 
   8   1  -7 20.7107 5.45412  19 
   8   1  -7 21.4777 5.09237  10 
   8   1  -7 17.4714 4.24067  78 
  -8   1   7 22.2104 3.87821   4 
   8   1  -7 15.2607 4.22932   4 
   8   1  -7 18.3322 4.49199  81 
   8   1  -7 29.1758 6.62342  83 
  -8   1   7 19.7636 5.28543   5 
   8   1  -7 14.0703 4.15566  20 
   8   1  -7 19.8269 5.13652  18 
  -8   1   7 19.7160 4.30149  14 
   8   1  -7 13.8835 4.51843  41 
  -8   1   7 19.5887 4.66532  31 
  -8   1   7 19.3888 3.89067   2 
  -8   1   7 17.9772 4.72581  74 
  -8   1   7 11.2207 3.55466  15 
  -8   1   7 19.6208 5.55436   7 
   8   1  -7 5.94307 4.89705  73 
   7  -1  -7 560.838 30.1401  75 
   7  -1  -7 612.736 31.1314  79 
   7  -1  -7 577.172 30.4156  33 
   7  -1  -7 587.033 29.9466  71 
   7  -1  -7 535.796 30.2048  45 
  -7  -1   7 552.532 30.1280  45 
  -7  -1   7 602.576 34.0770  76 
  -7  -1   7 623.861 30.7156  74 
  -7  -1   7 577.724 30.5706  78 
  -7   1   7 606.167 30.6251  47 
   7   1  -7 582.172 31.8219  76 
  -7   1   7 628.824 30.8841  74 
  -7   1   7 604.683 30.6660  78 
  -7   1   7 552.016 30.8492  83 
   7   1  -7 602.741 30.2570  78 
   7   1  -7 599.012 30.6500  41 
   7   1  -7 595.290 30.2520  81 
   7   1  -7 598.498 30.8689  83 
  -6  -1   7 346.811 19.5883  78 
   6  -1  -7 344.276 19.1964  75 
   6  -1  -7 409.587 20.2918  48 
  -6  -1   7 362.899 19.5362  74 
   6  -1  -7 360.989 19.3426  45 
  -6  -1   7 349.016 18.9576  71 
  -6  -1   7 348.349 19.1645  45 
   6  -1  -7 367.085 19.9008  79 
   6  -1  -7 353.639 18.8918  71 
  -6  -1   7 329.440 19.1838  75 
  -6  -1   7 376.840 30.8272  72 
  -6   1   7 364.833 19.5550  47 
  -6   1   7 379.844 19.1443  78 
   6   1  -7 370.282 19.5008  81 
   6   1  -7 345.776 24.7844  72 
   6   1  -7 379.343 19.9758  83 
   6   1  -7 357.983 19.4708  41 
   6   1  -7 356.670 19.2618  78 
   6   1  -7 368.010 21.3639  76 
  -6   1   7 352.239 19.5511  74 
  -6   1   7 408.957 20.1802  83 
   5  -1  -7 52.1033 4.50481  71 
  -5  -1   7 46.5503 4.79645  74 
   5  -1  -7 58.2325 6.63172  44 
   5  -1  -7 45.0056 5.62353  48 
  -5  -1   7 46.7413 17.1971  72 
  -5  -1   7 50.7468 4.36963  45 
   5  -1  -7 48.7041 5.89012  79 
  -5  -1   7 54.8962 4.61149  71 
   5  -1  -7 52.3828 4.54083  75 
  -5  -1   7 55.6422 5.51060  78 
  -5  -1   7 49.0714 4.94674  75 
   5  -1  -7 48.9101 4.55255  45 
   5   1  -7 57.7842 7.65041  76 
   5   1  -7 46.2580 5.22552  41 
  -5   1   7 47.3262 4.75456  78 
   5   1  -7 46.8294 5.42255  81 
  -5   1   7 44.1130 4.57083  74 
  -5   1   7 71.3231 6.29994  51 
  -5   1   7 50.4904 3.94695  81 
   5   1  -7 46.4376 10.5460  72 
   5   1  -7 54.6138 5.91404  83 
  -5   1   7 49.2584 4.66456  47 
  -5   1   7 47.2938 5.58714  83 
  -5   1   7 49.2611 4.95305  77 
   5   1  -7 58.0111 5.17719  78 
   4  -1  -7 110.066 7.11036  48 
   4  -1  -7 91.2183 7.45979  44 
   4  -1  -7 105.261 6.16908  45 
  -4  -1   7 90.5008 6.79771  78 
  -4  -1   7 99.0057 6.01166  71 
   4  -1  -7 96.0932 6.03801  71 
  -4  -1   7 96.2801 6.11685  45 
   4  -1  -7 81.8840 12.5774  67 
   4  -1  -7 87.3459 6.12298  75 
  -4  -1   7 95.0936 6.28132  75 
  -4  -1   7 102.928 6.36799  74 
   4  -1  -7 92.4588 6.92481  79 
   4   1  -7 93.8291 11.8092  72 
  -4   1   7 96.5976 6.35274  47 
  -4   1   7 93.0277 6.50819  77 
  -4   1   7 102.483 6.42562  78 
  -4   1   7 98.8763 6.25075  74 
   4   1  -7 100.479 6.57420  78 
   4   1  -7 83.6303 6.41616  53 
  -4   1   7 94.4678 5.62972  81 
   4   1  -7 92.8301 6.73739  42 
   4   1  -7 99.7979 9.35174  67 
   4   1  -7 93.8816 6.82131  41 
  -4   1   7 84.4716 5.98760  51 
   3  -1  -7 98.8047 7.77666  65 
  -3  -1   7 114.648 6.88768  48 
  -3  -1   7 88.9083 6.42023  78 
   3  -1  -7 89.8249 6.04152  75 
   3  -1  -7 89.9928 8.68005  67 
  -3  -1   7 98.2313 6.25858  74 
   3  -1  -7 96.0314 7.22832  44 
  -3  -1   7 97.9144 5.97426  45 
   3  -1  -7 98.4597 5.92439  71 
  -3  -1   7 99.4655 9.41411  67 
   3  -1  -7 91.9311 6.79415  48 
  -3  -1   7 92.3847 5.86426  71 
   3  -1  -7 100.524 6.04831  45 
  -3   1   7 98.5307 5.52041  53 
  -3   1   7 106.059 8.05006  68 
  -3   1   7 96.1768 5.99770  51 
   3   1  -7 95.2224 9.21946  76 
   3   1  -7 95.8837 8.51675  67 
   3   1  -7 100.622 6.14931  53 
  -3   1   7 97.8692 6.07785  74 
  -3   1   7 88.4740 6.08459  78 
   3   1  -7 93.1921 6.20111  78 
  -3   1   7 95.6055 6.44147  77 
   2  -1  -7 37.1430 4.62940  65 
   2  -1  -7 52.1674 6.18615  67 
   2  -1  -7 48.0433 3.94662  45 
  -2  -1   7 46.9633 3.87454  45 
  -2  -1   7 44.7666 3.85490  74 
   2  -1  -7 45.1301 3.88557  75 
  -2  -1   7 48.3060 4.39539  48 
  -2  -1   7 50.2821 6.68748  67 
   2  -1  -7 44.7938 4.92274  44 
   2  -1  -7 43.6529 3.55926  71 
   2  -1  -7 49.5009 4.68973  48 
  -2   1   7 50.0290 3.63235  51 
   2   1  -7 43.4861 4.30936  78 
  -2   1   7 44.6843 5.24561  73 
   2   1  -7 43.8469 6.04096  67 
   2   1  -7 45.6417 4.91562  55 
   2   1  -7 56.0025 9.19276  76 
   2   1  -7 44.5318 3.80849  53 
  -2   1   7 42.4467 5.10148  68 
  -2   1   7 53.5077 4.14628  55 
  -2   1   7 45.0857 3.15832  53 
  -1  -1   7 1.98061 2.15033  48 
   1  -1  -7 0.94507 2.32265  48 
  -1  -1   7 3.24228 1.35813  45 
   1  -1  -7 3.50654 1.91110  75 
  -1  -1   7 3.37496 2.02621  74 
   1  -1  -7 9.46434 3.70158  44 
  -1  -1   7 0.95669 2.32494  75 
  -1  -1   7 1.88554 2.88362  55 
   1  -1  -7 -1.2983 1.94059  65 
   1  -1  -7 1.26837 2.74274  67 
  -1  -1   7 1.49816 1.91526  44 
  -1  -1   7 2.64919 3.48409  65 
   1  -1  -7 2.70973 1.49078  45 
   1  -1  -7 1.59724 1.60179  71 
  -1  -1   7 2.14528 2.67118  67 
  -1   1   7 0.83541 1.10276  53 
   1   1  -7 1.63151 2.27940  55 
  -1   1   7 1.62727 1.14587  51 
  -1   1   7 1.36052 3.04431  73 
   1   1  -7 1.48873 2.75003  67 
   1   1  -7 0.68421 2.41336  78 
  -1   1   7 1.98072 1.95994  55 
   1   1  -7 3.82916 1.44450  53 
  -1   1   7 2.43967 2.26385  68 
   0  -1   7 28.1424 4.08928  75 
   0  -1  -7 29.2214 2.79140  71 
   0  -1   7 25.1280 5.59593  67 
   0  -1   7 31.2157 5.57837  44 
   0  -1  -7 35.9604 5.44173  67 
   0  -1  -7 31.7395 4.08917  44 
   0  -1  -7 25.5839 3.35671  48 
   0  -1   7 25.1520 3.23974  74 
   0  -1  -7 31.0297 3.33763  75 
   0  -1  -7 34.7001 2.99204  45 
   0  -1   7 27.7204 3.20999  71 
   0  -1   7 28.3738 3.00195  45 
   0  -1   7 29.6067 4.15918  55 
   0  -1   7 29.6233 3.57877  48 
   0  -1  -7 29.7461 4.32863  65 
   0   1  -7 27.4238 5.38559  67 
   0   1  -7 29.4412 3.49114  78 
   0   1  -7 30.3060 5.76097  76 
   0   1  -7 30.7743 4.23224  52 
   0   1   7 28.7840 3.43974  55 
   0   1   7 28.0551 4.10396  73 
   0   1  -7 24.2645 2.97434  53 
   0   1   7 25.0910 3.50583  78 
   0   1   7 29.5989 4.68536  68 
   0   1   7 32.4962 2.69687  53 
   0   1   7 31.8066 2.95463  51 
  -1  -1  -7 187.019 9.65227  71 
  -1  -1  -7 187.293 10.1311  48 
   1  -1   7 184.575 13.3365  67 
   1  -1   7 194.926 11.3155  55 
  -1  -1  -7 192.725 9.72011  45 
   1  -1   7 188.608 10.3208  48 
   1  -1   7 177.813 10.1523  74 
   1  -1   7 172.971 10.0696  75 
  -1  -1  -7 163.412 12.4700  67 
  -1  -1  -7 171.061 10.5172  44 
  -1  -1  -7 181.737 11.5098  65 
   1  -1   7 191.470 10.0311  71 
   1  -1   7 189.374 9.73215  45 
  -1  -1  -7 186.951 9.98292  75 
   1   1   7 167.602 14.7305  68 
   1   1   7 146.013 11.2366  76 
   1   1   7 170.934 10.0240  78 
   1   1   7 175.284 10.4557  55 
   1   1   7 167.268 9.86533  51 
  -1   1  -7 191.902 12.6961  67 
  -1   1  -7 165.850 9.73869  53 
   1   1   7 178.197 9.50973  53 
  -1   1  -7 178.627 9.85647  78 
   1   1   7 169.370 10.5718  73 
  -1   1  -7 178.574 11.8950  76 
  -2  -1  -7 300.486 16.6037  44 
  -2  -1  -7 310.374 16.6398  79 
   2  -1   7 306.753 15.7927  45 
   2  -1   7 276.610 17.9375  78 
  -2  -1  -7 340.007 15.8411  71 
  -2  -1  -7 337.162 16.1856  75 
   2  -1   7 312.602 15.9512  71 
  -2  -1  -7 307.754 16.2622  48 
  -2  -1  -7 312.562 15.7818  45 
   2  -1   7 279.356 16.0557  75 
   2  -1   7 296.223 16.1590  74 
   2  -1   7 279.917 16.9672  79 
   2  -1   7 304.867 16.3675  48 
   2   1   7 319.549 16.0429  81 
   2   1   7 274.075 17.1551  76 
  -2   1  -7 291.686 15.9150  78 
   2   1   7 326.229 16.1898  78 
  -2   1  -7 298.968 17.7519  76 
   2   1   7 287.490 16.0047  51 
   2   1   7 285.962 16.6762  73 
   3  -1   7 199.788 10.6146  74 
   3  -1   7 172.240 10.9128  78 
  -3  -1  -7 171.815 10.0449  71 
   3  -1   7 180.537 10.3358  71 
  -3  -1  -7 182.428 10.0321  45 
  -3  -1  -7 188.496 10.7414  48 
   3  -1   7 180.007 10.6446  75 
   3  -1   7 187.011 10.3070  45 
   3  -1   7 165.552 11.6190  79 
  -3  -1  -7 173.114 10.3334  75 
  -3  -1  -7 171.767 11.2340  79 
   3   1   7 191.862 10.5605  81 
   3   1   7 175.276 10.5987  78 
  -3   1  -7 175.407 11.8856  76 
   3   1   7 182.690 11.6825  76 
  -3   1  -7 182.695 10.4941  78 
   3   1   7 192.858 11.6029  73 
   3   1   7 183.308 10.4031  40 
  -3   1  -7 177.189 11.0477  83 
  -4  -1  -7 39.5278 3.74467  45 
   4  -1   7 39.2018 4.60414  38 
   4  -1   7 42.5554 4.81234  71 
   4  -1   7 36.3377 6.62511  79 
   4  -1   7 51.0213 5.64486  34 
   4  -1   7 39.9127 5.47325  78 
  -4  -1  -7 38.4701 5.85780  79 
  -4  -1  -7 43.2893 4.25609  71 
  -4  -1  -7 40.1751 4.62682  75 
   4  -1   7 37.9562 4.57868  45 
   4  -1   7 37.9719 4.91790  75 
   4   1   7 43.0365 5.10939  40 
  -4   1  -7 46.4902 5.79390  83 
   4   1   7 38.8959 4.80620  38 
   4   1   7 30.8244 4.78907  81 
  -4   1  -7 34.6896 4.87005  78 
  -4   1  -7 37.3917 4.88649  76 
   4   1   7 42.2580 5.36683  78 
   4   1   7 40.0645 5.22290  34 
   4   1   7 52.8278 6.73515  73 
   5  -1   7 145.975 22.6990  72 
  -5  -1  -7 168.710 11.5586  79 
   5  -1   7 168.311 12.5094  79 
   5  -1   7 176.487 10.6016  45 
   5  -1   7 174.754 10.9305  75 
  -5  -1  -7 179.665 10.3626  71 
   5  -1   7 167.226 10.4758  71 
  -5  -1  -7 196.136 11.3250  78 
   5  -1   7 156.335 11.1810  78 
  -5  -1  -7 179.985 10.2344  45 
   5  -1   7 179.179 10.6924  38 
   5  -1   7 172.505 10.8010  33 
   5  -1   7 177.097 10.9045  34 
  -5  -1  -7 197.487 10.9497  75 
   5   1   7 178.400 11.9797  73 
  -5   1  -7 178.572 10.6606  78 
  -5   1  -7 171.572 11.8992  83 
   5   1   7 166.055 9.59605  81 
   5   1   7 185.108 11.0298  38 
   5   1   7 177.319 10.6051  40 
   5   1   7 189.701 11.0354  78 
   6  -1   7 187.236 11.7028  20 
  -6  -1  -7 182.838 15.8010  76 
  -6  -1  -7 185.756 11.5446  75 
   6  -1   7 195.106 12.4468  78 
   6  -1   7 203.871 11.4694  18 
  -6  -1  -7 209.499 11.6184   5 
   6  -1   7 201.526 11.4824  19 
  -6  -1  -7 185.970 11.0420  19 
  -6  -1  -7 216.277 11.2531  18 
  -6  -1  -7 174.533 12.4295  79 
   6  -1   7 204.249 11.6665  40 
   6  -1   7 192.963 12.2477  24 
   6  -1   7 200.868 11.9817  34 
  -6  -1  -7 188.229 11.9133  78 
   6  -1   7 208.022 13.4680  79 
  -6  -1  -7 201.133 11.3994  20 
   6  -1   7 197.736 11.5336  38 
   6  -1   7 188.026 11.7494  33 
   6  -1   7 185.299 18.6151  76 
   6   1   7 225.148 12.0458  40 
   6   1   7 179.121 11.4898  13 
   6   1   7 204.705 12.0507  15 
  -6   1  -7 192.407 11.4972   5 
   6   1   7 205.448 11.7788  38 
   6   1   7 182.808 11.2026   4 
  -6   1  -7 215.329 12.9989  83 
   6   1   7 192.685 12.0285  43 
  -6   1  -7 185.428 11.1898   2 
  -6   1  -7 202.589 11.1399  13 
  -6   1  -7 193.237 11.9368   6 
   6   1   7 191.513 11.9239   2 
  -6   1  -7 191.163 11.1213   8 
  -6   1  -7 186.954 11.3417  78 
  -6   1  -7 185.886 10.4272  17 
  -6   1  -7 208.186 11.0931   4 
   6   1   7 190.997 11.7518  78 
  -7  -1  -7 193.058 10.5515  19 
  -7  -1  -7 203.793 10.8874  20 
   7  -1   7 200.117 11.0005  40 
  -7  -1  -7 186.457 10.5734  18 
  -7  -1  -7 181.679 10.8406   5 
   7  -1   7 200.183 10.8412  18 
   7  -1   7 161.959 11.1596  33 
   7  -1   7 198.516 11.3207  20 
   7  -1   7 194.275 10.8019  19 
  -7   1  -7 175.821 10.6914   2 
  -7   1  -7 173.028 10.8866   5 
  -7   1  -7 181.121 11.1054   6 
  -7   1  -7 198.712 10.5050  13 
   7   1   7 174.497 11.2757  40 
   7   1   7 178.572 11.1430  38 
   7   1   7 186.025 11.0417  13 
   7   1   7 182.070 11.3255  15 
  -7   1  -7 193.225 10.5173   4 
  -7   1  -7 181.941 10.3142   8 
   7   1   7 172.067 11.3455  43 
  -7   1  -7 178.340 11.9427  83 
   7   1   7 182.016 10.9151   4 
   8  -1   7 120.730 7.38096  18 
  -8  -1  -7 116.099 7.18164  18 
  -8  -1  -7 115.686 7.12344  19 
  -8  -1  -7 139.075 7.81160   5 
  -8  -1  -7 130.038 7.60611  20 
   8  -1   7 120.718 8.02101  20 
   8  -1   7 121.300 7.44722  19 
  -8   1  -7 120.752 7.57842   2 
  -8   1  -7 133.536 7.42566   4 
  -8   1  -7 119.595 7.17102  16 
   8   1   7 122.308 7.89898  13 
  -8   1  -7 125.233 7.35836  13 
  -8   1  -7 124.627 7.80365   5 
   8   1   7 133.234 7.80227   4 
   8   1   7 131.715 7.62968  16 
 -10  -2   7 2.47901 2.13897  18 
  10  -2  -7 1.41580 2.47823  19 
 -10  -2   7 4.20801 1.98895  19 
 -10  -2   7 3.71683 2.42743  20 
  10  -2  -7 2.13841 2.01662  24 
  10  -2  -7 5.51638 2.65919  33 
  10  -2  -7 3.79371 1.79652  27 
  10  -2  -7 1.71435 3.03712  20 
  10  -2  -7 8.58466 2.83915  18 
 -10   2   7 3.64883 1.27140   1 
  10   2  -7 3.42831 2.02879   3 
 -10   2   7 5.81986 1.57032  32 
 -10   2   7 2.90854 1.85365   5 
 -10   2   7 4.91154 2.23374  15 
 -10   2   7 4.49959 1.96965   2 
 -10   2   7 6.50310 2.37134  14 
  10   2  -7 1.85097 2.42434  13 
 -10   2   7 3.74498 1.33212  22 
 -10   2   7 2.84810 2.03610   4 
  10   2  -7 0.66059 2.69848   4 
  10   2  -7 8.92054 2.74495  23 
 -10   2   7 3.75052 2.10137  31 
 -10   2   7 3.43266 2.39224   7 
  10   2  -7 4.23635 2.24205  16 
 -10   2   7 3.96544 1.58652   3 
  10   2  -7 5.24548 2.41971  10 
 -10   2   7 4.01005 2.11240  30 
  -9  -2   7 46.3211 5.31074  18 
   9  -2  -7 52.4498 6.08993  33 
  -9  -2   7 55.2594 5.20766  19 
   9  -2  -7 66.4562 6.84547  79 
  -9  -2   7 50.0195 6.16808  20 
   9  -2  -7 39.4532 6.44322  20 
   9  -2  -7 38.2815 6.36550  24 
   9  -2  -7 42.2252 5.01000  27 
  -9   2   7 54.2708 7.43502  83 
   9   2  -7 50.3353 6.22032  23 
   9   2  -7 43.9288 6.80459  41 
  -9   2   7 44.6761 6.82292  30 
  -9   2   7 50.5394 3.92556  22 
   9   2  -7 50.5325 4.98977  15 
  -9   2   7 49.9781 5.21651   2 
  -9   2   7 46.9313 3.61682  16 
  -9   2   7 50.4671 4.93907   4 
  -9   2   7 48.7813 6.94722  15 
   9   2  -7 78.0510 9.23138  42 
  -9   2   7 49.0818 4.50817   3 
   9   2  -7 50.2184 5.50771  10 
   9   2  -7 49.5322 5.60206  16 
  -9   2   7 51.9257 5.29910  13 
   9   2  -7 43.7824 5.75588  13 
  -9   2   7 50.5059 4.01243   1 
  -9   2   7 46.7979 5.35571  14 
  -9   2   7 42.8100 5.76736   7 
  -9   2   7 49.9873 5.03098  31 
  -9   2   7 46.6547 5.65810   5 
  -9   2   7 48.7218 4.30531  32 
   9   2  -7 51.9617 5.78336   4 
   8  -2  -7 112.389 8.41635  33 
  -8  -2   7 100.906 8.23833  78 
  -8  -2   7 99.5887 7.51673  75 
  -8  -2   7 102.221 7.65183  19 
   8  -2  -7 114.759 8.59150  79 
   8  -2  -7 82.8813 6.95963  75 
  -8  -2   7 99.3725 8.00943  20 
   8  -2  -7 98.0870 8.63735  24 
  -8  -2   7 104.647 7.21679  18 
   8  -2  -7 94.7814 7.15234  27 
  -8  -2   7 107.078 8.00923  27 
   8   2  -7 97.1642 8.53944  42 
  -8   2   7 102.431 7.77699   7 
  -8   2   7 104.373 7.82815  83 
   8   2  -7 92.6702 8.04289  83 
  -8   2   7 92.6685 7.47563   4 
   8   2  -7 96.8177 8.08852  13 
  -8   2   7 101.398 6.19486  22 
  -8   2   7 101.852 6.82354   1 
  -8   2   7 96.2661 6.46277  13 
  -8   2   7 109.150 6.92598   3 
  -8   2   7 93.8526 7.16786  31 
   8   2  -7 100.469 8.24068  15 
   8   2  -7 103.673 8.30808  41 
  -8   2   7 102.373 7.11267  77 
  -8   2   7 105.315 7.80600   5 
   8   2  -7 94.0708 7.88256  10 
  -8   2   7 101.147 6.33277  16 
   8   2  -7 105.994 8.03408   4 
  -8   2   7 88.3377 6.50493  28 
  -8   2   7 115.660 7.85604   2 
   8   2  -7 103.385 9.07715   7 
  -8   2   7 101.277 7.14279  14 
   7  -2  -7 538.384 28.4919  79 
  -7  -2   7 577.667 28.0932  75 
  -7  -2   7 560.078 27.7080  71 
   7  -2  -7 538.377 27.8574  45 
   7  -2  -7 608.393 28.7635  27 
   7  -2  -7 543.711 27.7939  75 
  -7  -2   7 480.524 27.6416  45 
   7  -2  -7 527.524 28.0555  33 
  -7  -2   7 547.242 29.0789  27 
   7  -2  -7 578.459 30.0658  44 
   7   2  -7 534.175 28.2113  41 
  -7   2   7 457.404 28.5674  31 
  -7   2   7 568.101 27.3306  22 
  -7   2   7 562.916 27.5941  77 
  -7   2   7 545.647 29.7908  14 
  -7   2   7 432.612 29.5264   2 
   7   2  -7 503.794 27.6586  78 
  -7   2   7 444.347 27.6799   3 
  -7   2   7 604.505 28.3659  16 
  -7   2   7 568.301 28.0692  83 
   7   2  -7 552.850 28.4759  83 
   7   2  -7 522.097 28.6318  42 
  -7   2   7 508.769 28.1057  74 
  -7   2   7 551.326 28.9467  13 
   7   2  -7 570.165 27.9141  73 
  -6  -2   7 70.6366 5.81958  45 
   6  -2  -7 74.0506 6.85833  48 
   6  -2  -7 65.1913 5.12462  71 
   6  -2  -7 62.9401 5.78842  75 
   6  -2  -7 62.2543 6.83427  79 
   6  -2  -7 70.5683 5.84969  45 
  -6  -2   7 74.1663 5.52409  71 
  -6  -2   7 64.5913 5.77486  74 
   6  -2  -7 65.2422 7.18886  33 
   6  -2  -7 88.5828 8.86554  44 
  -6  -2   7 61.5140 6.06248  75 
  -6   2   7 65.3102 5.81831  77 
  -6   2   7 53.4402 6.49498  83 
   6   2  -7 73.2624 7.05827  41 
   6   2  -7 58.4384 6.58368  83 
   6   2  -7 61.0017 5.56013  78 
   6   2  -7 57.4207 6.68121  42 
   6   2  -7 67.8957 6.31300  73 
  -5  -2   7 28.0436 3.67724  74 
   5  -2  -7 27.5897 3.61904  71 
   5  -2  -7 27.6507 5.13688  48 
  -5  -2   7 25.6843 4.10605  45 
   5  -2  -7 27.7853 5.40059  79 
   5  -2  -7 32.5690 4.09379  45 
  -5  -2   7 25.2286 4.80490  48 
   5  -2  -7 30.9432 4.25692  75 
   5  -2  -7 36.6169 6.22378  44 
  -5  -2   7 22.3697 3.54452  71 
  -5  -2   7 18.4985 3.98680  75 
  -5   2   7 28.9345 4.17434  77 
  -5   2   7 29.5008 4.76071  83 
   5   2  -7 30.2433 5.01730  42 
   5   2  -7 31.9000 4.22632  78 
   5   2  -7 32.1997 4.89755  41 
   5   2  -7 22.5720 5.61904  83 
  -4  -2   7 1090.23 52.8924  48 
  -4  -2   7 1069.93 52.1743  45 
  -4  -2   7 1068.16 52.4306  75 
  -4  -2   7 1130.27 53.3966  44 
   4  -2  -7 1054.49 53.1019  44 
  -4  -2   7 1018.18 52.1285  49 
  -4  -2   7 1089.54 52.2217  71 
  -4  -2   7 1032.95 52.4484  74 
   4  -2  -7 1048.48 52.1520  75 
   4  -2  -7 1029.99 52.6689  79 
   4  -2  -7 1069.84 52.1301  45 
   4  -2  -7 1089.03 52.7172  48 
   4  -2  -7 1000.81 51.9029  71 
   4   2  -7 1069.89 52.6403  83 
  -4   2   7 1013.36 52.0205  77 
   4   2  -7 1004.65 52.3462  41 
   4   2  -7 1144.75 52.2187  77 
   4   2  -7 1083.09 51.9811  78 
  -4   2   7 967.721 52.3345  83 
   4   2  -7 1014.78 53.4293  82 
   4   2  -7 992.922 52.7608  42 
   3  -2  -7 196.357 11.2435  48 
   3  -2  -7 199.832 11.3918  79 
   3  -2  -7 190.320 10.6827  75 
  -3  -2   7 185.363 10.6020  71 
  -3  -2   7 204.068 10.6754  45 
   3  -2  -7 197.136 10.4067  71 
  -3  -2   7 207.444 11.8952  44 
   3  -2  -7 197.766 10.4211  46 
  -3  -2   7 207.703 11.4013  48 
  -3  -2   7 202.432 11.1645  74 
  -3  -2   7 197.093 10.5456  49 
   3  -2  -7 195.480 11.5775  44 
   3  -2  -7 209.877 10.6525  45 
   3   2  -7 189.535 12.7027  52 
   3   2  -7 178.603 11.2458  42 
  -3   2   7 188.320 10.5534  77 
   3   2  -7 203.661 10.5642  78 
   3   2  -7 187.059 10.7905  77 
   3   2  -7 182.098 10.9751  41 
  -3   2   7 193.116 12.5735  68 
  -3   2   7 203.125 9.91012  51 
   3   2  -7 176.122 10.7654  51 
   3   2  -7 168.980 11.8263  83 
   2  -2  -7 105.781 6.93061  48 
   2  -2  -7 106.015 6.47634  75 
  -2  -2   7 95.7865 9.54247  67 
   2  -2  -7 107.348 6.32364  71 
  -2  -2   7 107.201 6.36940  45 
  -2  -2   7 110.231 7.58906  44 
  -2  -2   7 110.974 7.12068  48 
   2  -2  -7 108.438 6.36201  45 
   2  -2  -7 118.240 6.42391  70 
   2  -2  -7 103.732 7.35896  44 
   2  -2  -7 107.179 7.04157  79 
   2  -2  -7 107.393 6.15501  46 
  -2  -2   7 108.753 6.33526  49 
  -2  -2   7 116.153 6.80983  74 
   2   2  -7 102.319 8.22860  52 
  -2   2   7 113.506 5.72329  51 
  -2   2   7 105.515 6.50397  77 
   2   2  -7 105.634 6.56721  51 
   2   2  -7 92.0036 6.97388  42 
   2   2  -7 97.5032 6.60446  77 
   2   2  -7 101.084 6.38034  78 
   2   2  -7 100.894 6.98038  41 
   2   2  -7 99.9339 6.84017  53 
  -2   2   7 107.383 8.15552  68 
  -2   2   7 108.321 7.50738  54 
  -1  -2   7 52.3983 6.72804  67 
  -1  -2   7 59.6446 4.57378  74 
   1  -2  -7 48.6785 3.80659  71 
  -1  -2   7 54.5796 4.73209  48 
   1  -2  -7 52.2942 3.76288  70 
  -1  -2   7 54.3321 3.94842  49 
   1  -2  -7 58.7446 4.70076  48 
   1  -2  -7 59.9607 3.86670  46 
  -1  -2   7 52.7112 4.63966  75 
  -1  -2   7 54.8134 6.36089  79 
   1  -2  -7 55.1802 3.73802  45 
  -1  -2   7 54.4216 3.90348  45 
   1  -2  -7 59.5113 4.24406  75 
   1  -2  -7 54.6790 5.07566  44 
  -1  -2   7 54.6747 5.29810  44 
   1  -2  -7 50.3454 4.90027  79 
   1   2  -7 52.1618 4.47380  77 
  -1   2   7 54.4479 5.63135  68 
   1   2  -7 60.9663 4.21064  51 
  -1   2   7 51.9043 5.13599  54 
   1   2  -7 55.9426 4.94020  41 
   1   2  -7 48.7383 5.55578  52 
  -1   2   7 59.6563 4.32087  77 
  -1   2   7 51.8597 3.35908  51 
   1   2  -7 59.6118 3.47536  53 
   1   2  -7 49.8717 4.18979  78 
   0  -2   7 31.3417 3.79934  75 
   0  -2   7 27.2794 4.20500  44 
   0  -2  -7 27.5841 3.40699  48 
   0  -2  -7 29.6239 4.02334  79 
   0  -2  -7 34.7672 4.23027  44 
   0  -2   7 25.0281 2.78879  45 
   0  -2   7 28.2085 2.89725  49 
   0  -2   7 29.7251 3.62598  74 
   0  -2   7 31.4812 3.64234  48 
   0  -2  -7 33.0676 3.03702  71 
   0  -2  -7 27.5352 2.71442  45 
   0  -2  -7 27.7379 2.58008  46 
   0  -2  -7 27.5112 3.21086  75 
   0  -2   7 24.2288 5.37281  79 
   0  -2   7 19.9851 5.44452  67 
   0   2  -7 27.9568 3.76877  42 
   0   2   7 28.3507 3.51066  77 
   0   2  -7 32.7287 3.14627  51 
   0   2   7 26.8935 2.36836  51 
   0   2  -7 25.6634 3.58939  77 
   0   2  -7 30.0443 2.47239  53 
   0   2  -7 26.0070 3.23465  78 
   0   2   7 22.6132 4.15549  68 
   0   2  -7 35.4827 4.96287  52 
   0   2  -7 27.5500 4.32390  41 
  -1  -2  -7 126.800 8.04919  79 
   1  -2   7 121.417 7.84473  74 
   1  -2   7 126.839 7.78629  75 
   1  -2   7 122.991 7.87161  48 
   1  -2   7 130.282 7.66798  71 
  -1  -2  -7 129.091 7.25363  71 
   1  -2   7 143.508 7.31353  49 
   1  -2   7 129.417 8.46843  44 
  -1  -2  -7 134.359 8.27241  44 
   1  -2   7 126.439 8.95332  79 
  -1  -2  -7 122.826 7.63662  48 
  -1  -2  -7 125.259 7.51540  75 
   1  -2   7 134.606 7.40272  45 
  -1  -2  -7 126.498 7.16533  45 
   1   2   7 111.216 6.85893  51 
  -1   2  -7 119.325 8.02260  83 
   1   2   7 116.676 7.66346  77 
   1   2   7 126.045 6.91890  73 
   1   2   7 105.233 9.09259  68 
  -1   2  -7 117.770 9.16390  52 
  -1   2  -7 118.537 7.22934  78 
   1   2   7 122.518 8.35592  83 
  -1   2  -7 131.320 7.66930  77 
   2  -2   7 91.0681 7.39373  38 
  -2  -2  -7 69.2230 5.95161  44 
   2  -2   7 73.9959 6.48184  44 
   2  -2   7 70.5667 5.11077  45 
   2  -2   7 71.6624 5.20154  71 
  -2  -2  -7 67.9737 4.67889  45 
   2  -2   7 70.7054 5.71941  48 
  -2  -2  -7 63.8941 6.16253  79 
   2  -2   7 74.3703 4.90566  49 
   2  -2   7 69.0774 6.95965  79 
  -2  -2  -7 71.1420 5.27786  75 
  -2  -2  -7 75.9833 5.01729  71 
   2  -2   7 62.5279 5.79205  74 
   2  -2   7 65.6564 5.51970  75 
  -2  -2  -7 76.2771 5.49908  48 
   2   2   7 43.2746 8.89965  40 
  -2   2  -7 71.4856 5.28769  77 
   2   2   7 62.9573 4.71152  73 
   2   2   7 74.8396 5.85281  77 
  -2   2  -7 67.7076 6.05202  83 
   2   2   7 73.5140 6.20992  43 
  -3  -2  -7 70.4595 5.49983  75 
  -3  -2  -7 68.3675 5.69583  48 
   3  -2   7 67.3317 5.89342  49 
   3  -2   7 57.6787 5.82033  48 
  -3  -2  -7 63.0150 6.21566  44 
  -3  -2  -7 65.4382 6.66308  79 
   3  -2   7 61.3950 7.13917  79 
   3  -2   7 61.5356 5.72343  75 
   3  -2   7 70.5361 6.74988  44 
  -3  -2  -7 69.0318 4.81914  45 
   3  -2   7 68.8559 5.13528  38 
   3  -2   7 67.3702 5.68390  74 
   3  -2   7 67.3728 5.24679  71 
   3  -2   7 63.2870 5.00284  45 
   3  -2   7 61.8077 6.05724  34 
  -3  -2  -7 70.3909 5.03420  71 
   3   2   7 68.9674 6.17365  77 
  -3   2  -7 60.5364 5.59414  77 
   3   2   7 60.1080 9.21540  38 
   3   2   7 75.1469 6.22455  43 
   3   2   7 60.8970 5.79469  40 
  -3   2  -7 56.0066 5.78927  83 
   3   2   7 63.4345 4.78878  73 
   4  -2   7 348.297 19.3395  45 
   4  -2   7 335.659 19.5154  71 
   4  -2   7 376.845 19.5641  38 
  -4  -2  -7 355.303 20.5078  79 
   4  -2   7 399.760 20.0086  34 
  -4  -2  -7 344.719 19.3157  71 
  -4  -2  -7 389.919 19.9323  75 
  -4  -2  -7 347.951 20.5408  44 
   4  -2   7 367.490 19.7093  33 
   4  -2   7 378.286 20.0490  74 
  -4  -2  -7 405.616 20.1903  48 
   4  -2   7 369.199 20.0466  75 
   4  -2   7 371.970 21.0934  79 
  -4  -2  -7 318.632 19.1382  45 
  -4   2  -7 406.264 20.4498  83 
  -4   2  -7 364.947 19.7651  77 
   4   2   7 419.961 20.6441  43 
   4   2   7 406.084 19.8692  38 
   4   2   7 380.049 19.9086  40 
   4   2   7 375.340 20.0374  77 
   4   2   7 330.945 18.9295  73 
   5  -2   7 300.399 17.1274  20 
   5  -2   7 323.679 17.8626  24 
  -5  -2  -7 294.736 17.0949  75 
   5  -2   7 341.225 18.7583  79 
  -5  -2  -7 300.482 16.8660  20 
   5  -2   7 306.758 16.6107  27 
   5  -2   7 315.672 17.4962  75 
  -5  -2  -7 331.626 18.3075  79 
  -5  -2  -7 303.219 16.4840  27 
   5  -2   7 290.210 17.2192  74 
   5  -2   7 304.030 17.1769  34 
   5  -2   7 310.172 17.0964  33 
  -5  -2  -7 255.302 17.9224  47 
  -5   2  -7 320.751 16.5830  31 
   5   2   7 358.973 18.1412  43 
  -5   2  -7 332.890 16.5322  13 
   5   2   7 319.224 17.5347  40 
   5   2   7 316.573 17.3142  38 
  -5   2  -7 313.532 16.7834  14 
  -5   2  -7 303.533 16.1474  17 
   5   2   7 321.800 16.4467  16 
   5   2   7 295.762 16.7334  31 
   5   2   7 315.100 17.3481   7 
   5   2   7 311.213 16.6005   3 
  -5   2  -7 296.760 16.3433   3 
   5   2   7 306.315 17.4726  77 
   5   2   7 304.130 18.2290  15 
  -5   2  -7 334.790 16.7433   8 
  -5   2  -7 313.887 17.5086   6 
  -5   2  -7 299.887 16.5307   7 
  -5   2  -7 329.378 17.7793  83 
  -5   2  -7 323.213 16.4004   4 
   5   2   7 311.039 16.6969  13 
  -5   2  -7 332.307 16.6411   2 
  -5   2  -7 296.295 16.2264  16 
   5   2   7 343.134 16.7649   4 
   5   2   7 325.735 17.1141   2 
  -5   2  -7 292.813 17.1411  77 
  -6  -2  -7 78.0578 7.48257  79 
   6  -2   7 78.9134 6.34368  18 
  -6  -2  -7 76.7714 5.92232  18 
   6  -2   7 69.2236 6.76311  20 
   6  -2   7 67.0988 6.44093  34 
   6  -2   7 68.9816 6.44958  41 
   6  -2   7 70.4073 7.29347  24 
   6  -2   7 79.5223 6.06408  27 
  -6  -2  -7 72.5013 6.26220  20 
   6  -2   7 66.4830 6.12314  19 
  -6  -2  -7 81.9004 6.06596  19 
   6  -2   7 74.4914 6.59446  33 
  -6  -2  -7 69.6985 5.40666  27 
   6  -2   7 65.0457 7.95792  79 
   6   2   7 73.9573 5.77973  16 
   6   2   7 64.7384 6.98368  43 
   6   2   7 72.8449 5.98528   4 
  -6   2  -7 72.9698 5.65596  31 
  -6   2  -7 69.8131 5.48397   7 
   6   2   7 82.1717 6.45681  13 
  -6   2  -7 72.3658 5.89145   2 
  -6   2  -7 62.5397 6.16263  77 
   6   2   7 65.2686 6.83948  77 
   6   2   7 80.7192 5.86969   3 
   6   2   7 75.0841 6.79597  38 
  -6   2  -7 82.2799 6.85059   6 
   6   2   7 79.5030 6.92525  40 
  -6   2  -7 69.9336 5.28057   3 
  -6   2  -7 71.6221 6.15071  14 
  -6   2  -7 70.0033 5.15035  16 
  -6   2  -7 72.1435 5.73051   8 
   6   2   7 74.7138 7.51481  15 
  -6   2  -7 72.6382 4.98643  17 
   6   2   7 73.5751 7.06753   7 
  -6   2  -7 71.8652 5.40803  13 
  -6   2  -7 77.7074 5.53147   4 
  -6   2  -7 71.6539 7.00980  83 
   6   2   7 66.7920 6.29464  31 
   7  -2   7 22.0808 4.79135  33 
   7  -2   7 32.7883 4.63209  19 
   7  -2   7 28.4307 3.91009  27 
  -7  -2  -7 30.4204 4.73489  20 
  -7  -2  -7 32.2562 4.20567  19 
   7  -2   7 31.0771 5.18057  20 
  -7  -2  -7 28.1842 4.63953  27 
  -7  -2  -7 29.2289 4.11300  18 
   7  -2   7 26.9743 4.56884  18 
   7  -2   7 38.2999 5.29804  24 
   7   2   7 23.0858 4.93593   7 
   7   2   7 26.1878 5.14049  40 
   7   2   7 30.7729 3.91337  16 
  -7   2  -7 30.4192 3.18029  17 
  -7   2  -7 30.9873 4.67013  83 
  -7   2  -7 16.3181 4.42202  25 
  -7   2  -7 26.2347 3.86048   7 
  -7   2  -7 25.6027 3.91158   4 
  -7   2  -7 22.0514 4.77385   6 
  -7   2  -7 25.4507 3.99504   2 
   7   2   7 30.6287 4.03119   3 
   7   2   7 21.1567 4.39349  13 
  -7   2  -7 33.2458 3.62833   1 
  -7   2  -7 29.9437 4.15384  14 
  -7   2  -7 24.3657 3.89803  31 
   7   2   7 24.1931 4.66331  31 
  -7   2  -7 26.7501 3.48965   3 
  -7   2  -7 32.8513 3.61531  13 
   7   2   7 24.7266 5.14616  38 
   7   2   7 30.6447 4.45019   4 
   7   2   7 24.1172 5.24987  15 
  -7   2  -7 28.8370 3.90919   8 
   7   2   7 30.3261 3.55170   1 
   8  -2   7 18.9285 4.23156  20 
  -8  -2  -7 23.4467 3.76197  20 
   8  -2   7 19.5942 3.41503  18 
   8  -2   7 20.4484 3.68030  19 
   8  -2   7 27.6849 4.16046  33 
  -8  -2  -7 22.7193 3.01594  19 
  -8  -2  -7 24.8138 3.07923  18 
  -8   2  -7 21.3841 2.73921  13 
  -8   2  -7 25.1953 3.35786  25 
  -8   2  -7 22.6268 3.05799   2 
  -8   2  -7 27.9743 2.65873   3 
   8   2   7 28.1438 3.95048   7 
  -8   2  -7 21.8390 2.89986   4 
  -8   2  -7 22.5001 2.56185  32 
  -8   2  -7 23.5010 3.25425  31 
  -8   2  -7 20.0365 2.02909  16 
   8   2   7 17.6681 3.39069   4 
  -8   2  -7 21.3671 3.68891   6 
   8   2   7 20.7891 2.35669  16 
  -8   2  -7 29.7533 2.79265   1 
  -8   2  -7 18.7346 2.46127  17 
   8   2   7 27.7412 3.09600   3 
   8   2   7 27.2370 2.86665   1 
   8   2   7 21.4713 3.11995  32 
  -8   2  -7 18.9698 3.34513   7 
   8   2   7 21.0463 3.02710  13 
   8   2   7 23.1192 3.96734  31 
  10  -3  -7 7.11771 2.43492  27 
 -10  -3   7 6.95713 2.08723  20 
  10  -3  -7 3.19653 1.77045  24 
 -10  -3   7 9.43051 2.85750  18 
 -10  -3   7 4.85082 1.50449  19 
 -10  -3   7 2.54307 1.89768  18 
  10   3  -7 7.07474 1.92735   3 
 -10   3   7 7.60006 2.31989  28 
  10   3  -7 6.93436 2.25806   7 
 -10   3   7 4.29071 1.40161  31 
 -10   3   7 5.34010 1.93170  14 
 -10   3   7 2.97375 1.03780  22 
 -10   3   7 5.90019 1.71031  30 
  10   3  -7 5.18704 1.72549  10 
  10   3  -7 3.28268 1.70275  31 
 -10   3   7 6.02004 2.42949  15 
  10   3  -7 7.57730 1.44924   1 
  10   3  -7 7.87636 1.75091  32 
  10   3  -7 6.19764 2.11274   4 
  10   3  -7 6.08848 2.05889  23 
 -10   3   7 3.14968 1.62291   7 
   9  -3  -7 18.6926 3.92582  27 
  -9  -3   7 24.3724 4.88114  20 
  -9  -3   7 28.9306 4.11816  19 
   9  -3  -7 16.9958 5.04846  24 
  -9  -3   7 13.6180 3.92659  24 
  -9  -3   7 23.7373 4.29865  18 
  -9  -3   7 18.7280 4.83238  27 
   9  -3  -7 29.3459 4.46973  33 
   9   3  -7 29.9203 5.09770   7 
   9   3  -7 28.0166 3.75383   3 
   9   3  -7 27.3355 4.50050  23 
   9   3  -7 25.2746 4.06515  31 
  -9   3   7 15.0860 3.17736  31 
   9   3  -7 18.5826 3.13117  32 
   9   3  -7 22.5061 2.68914  16 
   9   3  -7 27.3572 4.33930  10 
  -9   3   7 26.7175 2.98617  28 
  -9   3   7 19.0210 4.03530   7 
  -9   3   7 26.2157 3.42026  30 
  -9   3   7 27.7781 2.75670  22 
   9   3  -7 27.3740 4.41824  15 
   9   3  -7 23.6801 4.04437  13 
  -9   3   7 20.7695 3.79953  14 
  -9   3   7 24.2032 2.54181  35 
  -9   3   7 20.1366 3.10050  35 
   9   3  -7 17.7539 4.13139   4 
   8  -3  -7 172.410 9.66230  33 
  -8  -3   7 140.387 9.05735  19 
   8  -3  -7 124.225 9.48700  79 
   8  -3  -7 139.763 8.86854  27 
  -8  -3   7 152.704 9.19631  18 
   8  -3  -7 143.463 10.9652  24 
  -8  -3   7 145.632 8.75144  27 
  -8  -3   7 145.108 9.82596  20 
   8   3  -7 147.315 9.63263  10 
   8   3  -7 141.849 9.72596  23 
   8   3  -7 147.841 10.1374  36 
  -8   3   7 143.437 8.36475  29 
  -8   3   7 158.155 8.26462  22 
  -8   3   7 143.354 7.84316   3 
   8   3  -7 145.109 9.37752  39 
  -8   3   7 160.736 9.59971   5 
  -8   3   7 139.181 8.38190  28 
   8   3  -7 147.430 8.44494  16 
   8   3  -7 147.093 8.85356  13 
  -8   3   7 151.670 9.04238  14 
  -8   3   7 151.725 8.69751  30 
   8   3  -7 143.685 8.78760   3 
  -8   3   7 149.652 9.08300   7 
   8   3  -7 121.586 9.82775  42 
   8   3  -7 156.067 9.33983   4 
  -8   3   7 144.428 7.39521  32 
  -8   3   7 147.877 8.57197  31 
   8   3  -7 155.411 10.0669  15 
   8   3  -7 154.342 9.29031  31 
   8   3  -7 155.296 8.62122   1 
   8   3  -7 158.510 9.63469   7 
   7  -3  -7 203.981 11.5855  79 
  -7  -3   7 170.213 11.6821  20 
  -7  -3   7 193.122 10.7577  27 
   7  -3  -7 196.291 10.6024  27 
  -7  -3   7 159.069 10.7413  75 
   7  -3  -7 189.444 11.8623  33 
  -7   3   7 178.973 9.90482  22 
  -7   3   7 175.651 10.3253  31 
  -7   3   7 177.275 9.43970   3 
   7   3  -7 161.915 10.9451  83 
   7   3  -7 192.405 12.0700  36 
   7   3  -7 177.840 10.1875  16 
   7   3  -7 175.931 11.2906  28 
   7   3  -7 188.498 10.7848  77 
   7   3  -7 171.102 10.3806   1 
  -7   3   7 175.823 9.76037  77 
  -7   3   7 182.367 9.41633  32 
   7   3  -7 173.842 11.4972  23 
   7   3  -7 177.953 11.2709  41 
   7   3  -7 197.865 13.3774  10 
   7   3  -7 172.413 10.8678   4 
  -7   3   7 180.742 11.2071   5 
   7   3  -7 170.765 11.1436  39 
  -7   3   7 182.269 10.0650  28 
   7   3  -7 171.621 10.5917  13 
   7   3  -7 185.428 12.5829  15 
   7   3  -7 179.676 10.9937  31 
  -7   3   7 188.143 10.8710   7 
   7   3  -7 176.379 10.5818   3 
  -7   3   7 176.746 10.0134  29 
  -7   3   7 195.301 9.24821   1 
   7   3  -7 181.718 11.4194   7 
  -7   3   7 184.882 10.3611  30 
   7   3  -7 167.952 11.8305  42 
  -6  -3   7 199.145 11.7608  75 
   6  -3  -7 198.225 12.2156  79 
   6  -3  -7 206.651 11.3728  75 
   6  -3  -7 211.164 13.6725  44 
   6  -3  -7 188.171 12.7565  48 
  -6  -3   7 193.697 11.4842  27 
   6  -3  -7 189.223 11.5849  71 
  -6  -3   7 226.665 11.8903  45 
  -6  -3   7 192.341 12.7187  48 
  -6   3   7 207.581 10.7958  22 
   6   3  -7 217.937 12.1710  83 
  -6   3   7 178.519 10.7055  29 
  -6   3   7 193.726 10.2739  32 
  -6   3   7 190.315 11.0415  30 
   6   3  -7 211.678 11.8535   4 
  -6   3   7 193.444 10.9625  31 
  -6   3   7 210.047 12.4442   5 
  -6   3   7 204.004 10.1506   1 
   6   3  -7 172.985 11.4636  77 
   6   3  -7 193.383 11.0935  16 
  -6   3   7 192.078 10.8082  28 
   6   3  -7 192.547 11.9682   7 
   6   3  -7 215.247 13.0918  36 
   6   3  -7 176.535 11.1599  28 
   6   3  -7 205.788 12.9117  23 
   6   3  -7 206.973 11.5934  13 
  -6   3   7 183.120 11.3715   7 
   6   3  -7 194.311 12.0913  39 
  -6   3   7 202.640 10.6689  77 
   6   3  -7 193.608 12.1343  41 
   6   3  -7 192.580 12.7465  42 
   6   3  -7 199.862 11.1749   1 
   6   3  -7 200.928 11.8272  31 
   6   3  -7 186.399 11.2436   3 
  -6   3   7 192.752 10.3027   3 
  -5  -3   7 395.674 19.3410  45 
   5  -3  -7 356.456 19.7559  48 
   5  -3  -7 352.306 18.8145  71 
   5  -3  -7 343.178 18.8329  46 
   5  -3  -7 344.223 20.4463  44 
   5  -3  -7 400.666 19.9666  79 
  -5  -3   7 377.577 19.1397  71 
  -5  -3   7 385.887 19.6158  75 
   5  -3  -7 361.661 19.1098  75 
  -5  -3   7 329.825 20.4229  44 
  -5  -3   7 335.396 19.8532  48 
   5   3  -7 381.389 20.6092  36 
  -5   3   7 393.706 18.6144  77 
   5   3  -7 383.766 19.2154  77 
   5   3  -7 339.926 19.4225  83 
   5   3  -7 355.238 20.3779  42 
   5   3  -7 351.828 19.5586  39 
   5   3  -7 380.118 19.8761  41 
  -4  -3   7 94.5541 6.59205  75 
  -4  -3   7 90.8406 6.15452  45 
  -4  -3   7 85.6659 5.73285  49 
  -4  -3   7 88.9001 7.53476  44 
  -4  -3   7 70.0938 6.58310  48 
   4  -3  -7 91.5725 5.62429  46 
  -4  -3   7 87.0406 5.86612  71 
   4  -3  -7 88.9169 6.79902  48 
   4  -3  -7 84.4754 7.71258  44 
   4  -3  -7 72.9831 5.40243  70 
   4   3  -7 76.7157 7.94289  36 
   4   3  -7 79.1446 7.25289  42 
   4   3  -7 88.1201 9.44088  82 
   4   3  -7 97.2067 7.45840  41 
   4   3  -7 76.7848 6.93145  83 
   4   3  -7 100.166 7.13521  39 
   4   3  -7 84.1270 6.31628  77 
  -4   3   7 80.7735 5.38353  77 
   3  -3  -7 136.821 9.67926  69 
  -3  -3   7 126.590 7.74794  74 
  -3  -3   7 122.711 8.91823  44 
   3  -3  -7 121.597 6.96553  70 
  -3  -3   7 126.579 7.40740  45 
   3  -3  -7 113.893 6.95089  46 
   3  -3  -7 110.093 8.30976  44 
  -3  -3   7 128.796 8.22655  48 
   3  -3  -7 116.147 7.88147  48 
  -3  -3   7 121.714 7.41460  71 
  -3  -3   7 119.611 7.19076  49 
   3   3  -7 117.504 7.65493  39 
   3   3  -7 124.834 7.90280  83 
   3   3  -7 121.917 8.14746  41 
   3   3  -7 114.366 10.7503  82 
  -3   3   7 113.742 6.78682  77 
   3   3  -7 116.549 8.65950  42 
   3   3  -7 128.280 7.43377  77 
   2  -3  -7 164.286 9.44158  48 
  -2  -3   7 155.288 8.85034  49 
   2  -3  -7 162.935 8.66663  46 
   2  -3  -7 154.588 9.49861  69 
   2  -3  -7 158.245 9.88859  44 
  -2  -3   7 158.643 9.64036  48 
  -2  -3   7 161.218 9.39069  74 
  -2  -3   7 157.487 8.95842  45 
  -2  -3   7 156.764 10.2968  44 
   2  -3  -7 153.381 8.61976  70 
  -2  -3   7 160.540 9.04208  71 
   2   3  -7 147.186 9.39989  83 
   2   3  -7 160.930 9.98538  41 
   2   3  -7 163.680 9.96749  42 
   2   3  -7 147.652 11.6911  82 
  -2   3   7 149.394 8.53732  77 
   2   3  -7 171.613 8.96933  77 
   1  -3  -7 161.609 9.41672  48 
  -1  -3   7 160.054 8.94024  45 
  -1  -3   7 161.278 9.65784  48 
  -1  -3   7 155.909 10.2382  44 
   1  -3  -7 153.946 9.55003  69 
   1  -3  -7 174.619 8.75724  70 
   1  -3  -7 160.534 9.86175  44 
  -1  -3   7 164.472 8.89283  49 
  -1  -3   7 149.206 9.54740  74 
   1  -3  -7 161.587 8.70957  46 
   1   3  -7 166.020 9.06701  77 
   1   3  -7 161.363 9.50115  83 
   1   3  -7 151.141 10.0431  42 
   1   3  -7 150.344 12.2805  82 
   1   3  -7 164.519 10.1589  41 
  -1   3   7 150.247 8.57910  77 
   0  -3   7 3.12074 1.67061  45 
   0  -3  -7 10.1404 3.36104  69 
   0  -3   7 8.25522 2.08069  49 
   0  -3  -7 8.48177 2.48693  48 
   0  -3  -7 13.2187 3.72722  44 
   0  -3   7 3.94587 1.93548  44 
   0  -3   7 8.42160 4.23611  79 
   0  -3  -7 5.50729 1.60084  70 
   0  -3  -7 2.38428 1.31265  46 
   0  -3  -7 4.86078 1.80292  71 
   0  -3   7 7.64167 2.72109  75 
   0  -3   7 2.91235 2.48365  48 
   0  -3   7 7.92863 3.03716  74 
   0   3  -7 4.94118 3.06927  42 
   0   3  -7 6.58741 2.22529  77 
   0   3  -7 5.31586 3.00216  83 
   0   3   7 4.51059 1.74819  77 
   0   3  -7 5.28700 6.48777  82 
  -1  -3  -7 205.367 12.4584  79 
   1  -3   7 202.575 12.0028  38 
   1  -3   7 223.031 11.7808  49 
   1  -3   7 245.292 11.9623  45 
  -1  -3  -7 220.275 11.9916  75 
   1  -3   7 224.523 12.1318  71 
  -1  -3  -7 225.343 11.6308  46 
   1  -3   7 207.420 12.4171  48 
  -1  -3  -7 224.123 12.8244  44 
   1  -3   7 216.254 12.3551  75 
  -1  -3  -7 201.261 11.6387  70 
   1  -3   7 225.073 13.1524  44 
  -1  -3  -7 212.633 11.6960  71 
   1  -3   7 205.051 13.3595  79 
  -1  -3  -7 215.589 12.2274  48 
   1  -3   7 226.415 12.6567  74 
   1   3   7 242.405 12.9932  37 
  -1   3  -7 216.514 11.8577  77 
  -1   3  -7 216.570 12.2523  83 
   1   3   7 222.037 11.7072  77 
  -1   3  -7 218.817 12.7033  42 
   2  -3   7 199.904 11.7155  75 
   2  -3   7 214.641 12.1993  74 
  -2  -3  -7 204.613 12.2502  44 
  -2  -3  -7 196.715 10.8411  45 
  -2  -3  -7 203.389 11.3679  75 
   2  -3   7 208.439 12.4972  44 
   2  -3   7 208.487 12.8351  79 
  -2  -3  -7 217.540 11.6534  48 
  -2  -3  -7 181.052 10.8787  46 
   2  -3   7 189.125 11.5224  34 
   2  -3   7 203.413 11.7970  48 
   2  -3   7 183.735 10.9873  45 
   2  -3   7 172.352 10.8977  49 
   2  -3   7 212.173 11.3116  38 
  -2  -3  -7 217.312 12.1751  79 
   2  -3   7 207.189 11.3992  71 
  -2  -3  -7 206.493 11.0379  71 
  -2   3  -7 205.160 11.9369  42 
  -2   3  -7 207.589 11.5748  83 
   2   3   7 190.101 12.3080  43 
  -2   3  -7 192.677 11.1487  77 
   2   3   7 204.537 11.1963  77 
  -3  -3  -7 396.068 20.1231  71 
  -3  -3  -7 328.744 20.4769  48 
  -3  -3  -7 372.748 21.1123  79 
   3  -3   7 385.413 20.8633  48 
   3  -3   7 402.625 20.7444  75 
   3  -3   7 422.902 20.2763  45 
   3  -3   7 421.800 21.7895  79 
   3  -3   7 381.136 21.4669  44 
  -3  -3  -7 373.005 20.3861  75 
   3  -3   7 389.394 20.5183  33 
   3  -3   7 411.919 20.4135  71 
  -3  -3  -7 390.298 21.3794  44 
   3  -3   7 378.296 20.7236  34 
   3  -3   7 369.617 20.8259  74 
  -3   3  -7 389.349 20.7745  42 
  -3   3  -7 389.357 20.4982  83 
   3   3   7 403.728 20.2779  77 
  -3   3  -7 420.030 20.2352  77 
   3   3   7 360.151 20.6579  40 
   3   3   7 379.849 21.1869  43 
  -4  -3  -7 194.103 12.1507  75 
  -4  -3  -7 230.430 13.3807  79 
  -4  -3  -7 225.044 11.8666  27 
   4  -3   7 222.670 13.5962  44 
   4  -3   7 214.466 12.6911  74 
   4  -3   7 212.834 12.4284  33 
   4  -3   7 225.668 12.6363  34 
   4  -3   7 213.451 12.6573  75 
  -4  -3  -7 211.054 13.3257  44 
   4  -3   7 207.590 11.8687  27 
   4  -3   7 219.852 13.8385  79 
  -4   3  -7 226.935 12.6128  13 
   4   3   7 215.792 11.3298   1 
   4   3   7 188.575 12.8463   4 
   4   3   7 223.188 11.5613   3 
  -4   3  -7 220.250 11.5616  28 
   4   3   7 216.790 11.7561  28 
  -4   3  -7 201.262 11.4235  17 
  -4   3  -7 212.188 11.7838   7 
  -4   3  -7 215.858 11.5098   4 
  -4   3  -7 209.099 11.3348   3 
  -4   3  -7 206.509 12.1513  14 
  -4   3  -7 213.267 11.6671  31 
   4   3   7 217.043 11.0615  16 
   4   3   7 201.778 13.3209  43 
   4   3   7 210.041 12.1792   2 
   4   3   7 213.111 11.3392  32 
  -4   3  -7 202.870 11.7139   2 
  -4   3  -7 247.420 14.5762  83 
   4   3   7 210.763 13.1039  40 
  -4   3  -7 212.177 12.1106   8 
   4   3   7 204.325 11.8747  31 
  -4   3  -7 201.706 11.6811  30 
  -4   3  -7 201.854 11.2959   1 
   4   3   7 221.859 12.4662   7 
  -4   3  -7 226.818 12.0129  77 
   4   3   7 208.319 12.1683  77 
  -4   3  -7 219.179 11.1140  16 
  -4   3  -7 218.088 11.4183  32 
  -4   3  -7 214.279 12.6672   6 
  -5  -3  -7 6.30240 3.41772  79 
   5  -3   7 17.1174 4.23593  75 
   5  -3   7 3.58870 3.96518  79 
  -5  -3  -7 10.4211 3.25888  75 
  -5  -3  -7 11.4820 3.69372  27 
   5  -3   7 14.1311 4.89407  33 
   5  -3   7 15.2267 5.86662  24 
   5   3   7 12.3266 3.07913  32 
  -5   3  -7 17.1814 4.99013  25 
   5   3   7 5.98781 3.03039  77 
  -5   3  -7 20.6019 3.40454  30 
  -5   3  -7 9.28069 1.61322  16 
   5   3   7 7.45739 2.77427  31 
  -5   3  -7 13.4635 3.69412   7 
  -5   3  -7 15.0942 3.35347   8 
   5   3   7 11.1000 2.89320   4 
  -5   3  -7 10.5962 2.68490   1 
  -5   3  -7 14.4755 3.70720   2 
  -5   3  -7 13.8411 2.96812  32 
   5   3   7 13.3824 2.51079  16 
  -5   3  -7 11.0197 2.21571  17 
   5   3   7 8.56707 3.31514   7 
  -5   3  -7 15.9140 3.69646  31 
  -5   3  -7 14.6132 4.56128  14 
  -5   3  -7 17.5929 3.39416   4 
  -5   3  -7 8.24354 2.69241  77 
   5   3   7 18.4693 3.46907   3 
  -5   3  -7 13.1079 2.89716  28 
   5   3   7 9.74718 4.23125  38 
   5   3   7 12.7514 2.99269   1 
  -5   3  -7 12.8882 2.88138   3 
   5   3   7 6.82570 3.63659  40 
   5   3   7 12.6699 3.74095  28 
  -5   3  -7 18.7422 5.29131   6 
   5   3   7 11.7090 4.05474  43 
   5   3   7 12.2331 2.89736  30 
  -6  -3  -7 66.6822 4.96646  27 
   6  -3   7 61.1131 6.09405  33 
   6  -3   7 76.6922 5.44993  27 
   6  -3   7 60.8604 6.72686  24 
  -6   3  -7 68.9690 4.36509   1 
  -6   3  -7 67.0276 5.12070  31 
  -6   3  -7 69.4043 5.76873  14 
   6   3   7 64.4404 5.70376  31 
  -6   3  -7 65.2290 4.73340  28 
  -6   3  -7 65.2715 5.08985   2 
  -6   3  -7 65.2867 4.83193   4 
  -6   3  -7 82.0236 6.19943  25 
   6   3   7 46.0823 7.30570  43 
   6   3   7 66.4157 7.06585  15 
   6   3   7 70.2274 4.73417   3 
   6   3   7 58.5979 6.26712  38 
  -6   3  -7 64.7260 4.38154  32 
   6   3   7 72.1643 5.33062  28 
  -6   3  -7 73.9992 5.59966   8 
   6   3   7 70.0603 5.33452   4 
  -6   3  -7 71.2659 4.71407  17 
   6   3   7 64.1924 6.04022   7 
  -6   3  -7 64.7108 6.25930   6 
  -6   3  -7 64.5132 4.45391   3 
   6   3   7 66.8385 4.54119  32 
   6   3   7 64.9082 6.61953  40 
  -6   3  -7 69.1667 4.95680  30 
   6   3   7 64.7346 4.41671   1 
   7  -3   7 8.65195 2.84030  27 
   7  -3   7 1.86417 2.24867  33 
   7  -3   7 9.49681 4.19562  24 
  -7  -3  -7 4.70531 2.24874  18 
  -7  -3  -7 5.83353 1.60226  27 
  -7  -3  -7 4.98102 1.91676  19 
  -7  -3  -7 7.30542 2.14309  20 
   7  -3   7 8.43680 2.19534  19 
   7  -3   7 13.4105 4.24584  20 
  -7   3  -7 6.88732 3.03801  28 
  -7   3  -7 7.18677 1.86843   3 
  -7   3  -7 10.3456 2.91331  25 
   7   3   7 6.70041 1.63771   1 
   7   3   7 6.39276 1.56463   3 
  -7   3  -7 13.4061 3.32753  14 
  -7   3  -7 9.72739 3.00574  30 
  -7   3  -7 7.54205 2.17570  17 
  -7   3  -7 5.56254 2.60464   6 
  -7   3  -7 6.10579 1.56514  32 
  -7   3  -7 9.28910 1.46369   1 
   7   3   7 5.42715 2.21751  31 
   7   3   7 6.95084 1.93858  32 
  -7   3  -7 8.72116 2.29149   8 
  -7   3  -7 9.14573 2.65921   2 
  -7   3  -7 7.96615 2.49536   4 
   7   3   7 4.67008 2.09730  30 
  -7   3  -7 10.7742 2.96524   7 
   7   3   7 7.52339 1.94706   4 
   7   3   7 5.70804 2.39615   7 
   7   3   7 3.92374 2.21689  15 
  -7   3  -7 9.97277 2.95320  31 
   9  -4  -7 70.9493 4.29385  27 
  -9  -4   7 65.2820 4.42488  27 
  -9  -4   7 62.5602 5.72189  24 
   9   4  -7 67.0633 4.52447   7 
   9   4  -7 67.6910 4.35048  31 
  -9   4   7 58.2683 3.94696  22 
   9   4  -7 74.5284 5.26329  10 
   9   4  -7 72.0350 4.79243  23 
  -9   4   7 67.1484 3.83681  28 
  -9   4   7 59.8381 3.97372  29 
   9   4  -7 70.9579 4.68468  15 
   9   4  -7 67.5942 4.30517  30 
  -8  -4   7 36.2795 3.69611  27 
   8  -4  -7 40.6360 3.79744  27 
   8   4  -7 32.3494 4.09785  35 
  -8   4   7 35.3544 3.09199  22 
  -8   4   7 38.3579 3.10861  29 
   8   4  -7 36.3053 4.23327  10 
   8   4  -7 30.5127 4.78854  15 
   8   4  -7 31.9870 4.52718  23 
  -8   4   7 38.4600 3.12278  28 
   8   4  -7 39.5414 4.28107  30 
  -8   4   7 28.8053 2.75100  30 
   8   4  -7 33.0424 3.60836  28 
   8   4  -7 34.8977 4.34481   7 
   8   4  -7 35.1333 4.03083  31 
  -7  -4   7 220.871 12.7406  27 
   7   4  -7 236.298 13.8718  36 
   7   4  -7 224.725 12.6222  28 
   7   4  -7 246.387 12.9500  30 
   7   4  -7 245.719 11.8693  32 
   7   4  -7 252.988 13.0358   7 
  -7   4   7 246.566 12.3110  29 
  -7   4   7 225.540 12.3071  22 
  -7   4   7 229.049 11.9288  30 
  -7   4   7 233.312 12.3212  28 
   7   4  -7 247.061 12.8502  31 
   7   4  -7 219.404 13.2291  10 
   7   4  -7 230.653 13.4637  23 
  -6  -4   7 213.759 11.9172  27 
   6   4  -7 194.666 13.1136  36 
   6   4  -7 229.900 11.8870  31 
   6   4  -7 218.967 13.1906  42 
   6   4  -7 218.313 11.8683  30 
   6   4  -7 220.859 11.9553   7 
  -6   4   7 204.491 11.2041  22 
   6   4  -7 206.524 10.9005  32 
  -6   4   7 207.649 11.2411  28 
  -6   4   7 202.866 10.8836  30 
  -6   4   7 227.342 11.2183  29 
   6   4  -7 210.339 11.5926  28 
   6   4  -7 206.904 12.3734  39 
   6   4  -7 212.314 10.7487   1 
   6   4  -7 189.095 12.4373  23 
   6   4  -7 213.307 12.6800  29 
  -5  -4   7 65.2957 5.70932  75 
  -5  -4   7 68.0216 6.02829  27 
   5  -4  -7 63.3100 7.05514  44 
  -5  -4   7 62.5136 6.96875  44 
   5   4  -7 70.5736 5.54358  29 
   5   4  -7 68.0596 6.16053   7 
   5   4  -7 63.1558 5.78437  31 
  -5   4   7 63.3505 4.61883  29 
  -5   4   7 74.0298 4.96923  28 
   5   4  -7 74.2142 4.61226  32 
   5   4  -7 66.9222 5.01195  77 
   5   4  -7 65.2159 5.52953  28 
   5   4  -7 74.7225 4.32345   1 
  -5   4   7 67.8727 5.02095  22 
   5   4  -7 64.6232 7.38588  36 
   5   4  -7 69.0819 5.82373  30 
   5   4  -7 69.2314 6.53494  39 
   5   4  -7 64.2580 6.59020  23 
  -5   4   7 66.7572 4.36148  30 
   5   4  -7 61.1572 6.85246  42 
  -4  -4   7 84.6397 6.40251  75 
   4  -4  -7 81.8760 7.32936  44 
  -4  -4   7 75.4723 7.55182  44 
   4   4  -7 87.6553 4.94887   1 
   4   4  -7 82.7346 6.46539  30 
  -4   4   7 73.2809 5.25002  29 
   4   4  -7 84.0399 5.54004  77 
  -4   4   7 77.5689 4.93185  30 
  -4   4   7 87.6957 5.39250  28 
  -4   4   7 84.5462 5.21799  80 
   4   4  -7 79.8938 6.83007   7 
   4   4  -7 89.4540 5.91849  29 
  -4   4   7 77.1139 5.57747  22 
   4   4  -7 82.0998 9.92250  82 
   4   4  -7 98.1130 8.35629  36 
   4   4  -7 81.7693 5.16364  32 
   4   4  -7 83.1890 6.37535  31 
   4   4  -7 85.4871 7.77773  42 
   4   4  -7 84.1103 5.89244  28 
   4   4  -7 92.3899 7.15554  39 
   3  -4  -7 117.083 6.74597  46 
   3  -4  -7 108.000 8.24552  44 
  -3  -4   7 109.303 7.50369  75 
  -3  -4   7 114.711 7.94381  48 
  -3  -4   7 117.084 8.86665  44 
  -3  -4   7 118.740 7.07221  71 
   3   4  -7 108.592 6.73037  77 
   3   4  -7 121.810 8.08982  39 
   3   4  -7 120.028 9.03811  42 
  -3   4   7 109.144 8.10646  37 
   3   4  -7 117.960 11.7397  82 
   3   4  -7 115.634 8.71271  41 
   3   4  -7 115.161 9.22477  36 
   2  -4  -7 10.1314 1.96892  46 
  -2  -4   7 11.9806 3.39265  48 
  -2  -4   7 13.0155 2.52412  46 
  -2  -4   7 4.71652 2.35796  44 
   2  -4  -7 8.85740 2.33991  70 
   2  -4  -7 14.5944 4.12560  44 
   2   4  -7 12.7919 3.62877  39 
   2   4  -7 10.2270 2.17639  77 
   2   4  -7 8.01113 3.75477  42 
   2   4  -7 10.5644 3.80877  36 
  -2   4   7 8.65440 3.83036  37 
   2   4  -7 15.0934 7.98930  82 
  -2   4   7 9.36295 2.38841  80 
   1  -4  -7 205.756 10.4553  46 
  -1  -4   7 191.213 12.2157  44 
  -1  -4   7 191.505 10.5985  46 
   1  -4  -7 194.273 10.5264  70 
   1  -4  -7 202.920 11.6865  44 
  -1  -4   7 175.714 11.2531  48 
  -1   4   7 188.835 11.4038  37 
  -1   4   7 197.905 10.4634  80 
   1   4  -7 197.310 12.3930  36 
   1   4  -7 199.812 12.2021  42 
   1   4  -7 195.300 10.1690  77 
   1   4  -7 184.798 13.8987  82 
   1   4  -7 201.203 10.8420  35 
   0  -4   7 79.0611 5.33722  46 
   0  -4   7 77.7162 6.98421  44 
   0  -4   7 71.1448 6.02793  48 
   0  -4  -7 79.2860 5.81030  48 
   0  -4  -7 86.2081 6.38418  44 
   0  -4  -7 86.9065 5.19541  46 
   0   4   7 83.0566 6.83811  37 
   0   4  -7 81.4178 6.87202  42 
   0   4  -7 85.5618 4.81574  77 
   0   4   7 81.6156 5.32071  80 
   0   4  -7 82.2679 10.1748  82 
   0   4  -7 86.6837 5.37583  35 
  -1  -4  -7 89.4844 6.79546  44 
   1  -4   7 79.0064 5.50383  46 
   1  -4   7 84.1923 6.39458  48 
  -1  -4  -7 84.3930 5.92247  48 
   1  -4   7 81.9253 6.74085  74 
  -1  -4  -7 75.9321 5.27817  46 
   1  -4   7 83.7028 7.15114  44 
  -1   4  -7 91.9987 5.48086  77 
   1   4   7 90.2466 6.49908  37 
  -1   4  -7 91.6889 5.46315  35 
  -1   4  -7 83.7459 7.29427  42 
  -2  -4  -7 8.54459 4.16660  44 
   2  -4   7 6.03649 2.50056  44 
   2  -4   7 10.5163 6.24847  79 
   2  -4   7 10.3219 4.08558  34 
   2  -4   7 10.4071 3.37977  74 
  -2   4  -7 7.18399 2.26616   7 
  -2   4  -7 16.0857 2.63891  35 
  -2   4  -7 9.51740 2.04113  29 
   2   4   7 8.50622 1.53402  35 
  -2   4  -7 11.5453 2.72941  28 
   2   4   7 11.8173 3.14332  28 
  -2   4  -7 12.9386 3.03301  31 
   2   4   7 14.6840 3.10247  30 
   2   4   7 16.0323 6.22113  21 
   2   4   7 10.1374 3.47768  37 
  -2   4  -7 8.15054 1.29488  32 
   2   4   7 10.7071 1.83936  35 
  -2   4  -7 10.7594 2.65582  77 
   2   4   7 15.6373 5.07976  43 
  -2   4  -7 7.13078 3.25736  42 
  -2   4  -7 8.44136 2.73382  14 
  -2   4  -7 10.0869 2.18447  30 
   2   4   7 12.3840 2.82576  29 
  -2   4  -7 9.22852 3.65000   8 
  -3  -4  -7 4.70499 2.45642  44 
   3  -4   7 9.76425 4.86826  75 
   3  -4   7 5.28182 2.42041  44 
   3  -4   7 9.27535 4.06207  79 
  -3   4  -7 12.0330 3.65966   7 
   3   4   7 8.98444 3.66276  43 
   3   4   7 6.57896 2.19720  31 
   3   4   7 8.65253 2.38487  28 
  -3   4  -7 9.95666 2.68410  29 
   3   4   7 9.14067 2.29687  35 
  -3   4  -7 9.60284 3.77205  42 
   3   4   7 6.81568 2.25561  29 
  -3   4  -7 3.34320 3.03278   8 
  -3   4  -7 14.7049 4.54924  14 
  -3   4  -7 6.80219 1.92034  28 
   3   4   7 12.1266 4.82551   7 
  -3   4  -7 6.78960 1.90497  31 
  -3   4  -7 7.82971 1.51189  35 
   3   4   7 5.61659 2.06202  30 
  -3   4  -7 6.38694 1.96709  30 
   3   4   7 7.41565 1.99165  35 
   4  -4   7 5.82944 2.08767  27 
   4  -4   7 3.04227 3.47053  79 
  -4  -4  -7 4.44769 2.00975  27 
   4   4   7 6.15490 2.02583  30 
   4   4   7 8.35893 2.13577  31 
   4   4   7 4.56500 1.20787  35 
   4   4   7 5.16446 1.80223  35 
   4   4   7 0.16009 2.89262  40 
  -4   4  -7 6.34242 1.81086  31 
  -4   4  -7 11.8361 3.39790   7 
  -4   4  -7 8.75056 2.10986  28 
  -4   4  -7 2.11906 3.30414  42 
  -4   4  -7 7.86452 3.67645  25 
   4   4   7 6.17063 3.41478  43 
   4   4   7 5.44300 2.30498  28 
  -4   4  -7 5.69202 1.80877  29 
  -4   4  -7 7.68779 3.13076   8 
   4   4   7 6.74848 2.84488   7 
  -4   4  -7 10.0479 2.25321  35 
  -4   4  -7 12.0922 2.79956  30 
   4   4   7 5.08244 2.18005  29 
  -4   4  -7 7.50184 2.66630  14 
   5  -4   7 251.252 13.8831  27 
  -5  -4  -7 263.974 13.7944  27 
   5  -4   7 241.107 14.1539  33 
   5  -4   7 246.977 15.8682  24 
  -5   4  -7 273.981 13.5520  30 
  -5   4  -7 269.933 14.1325   8 
  -5   4  -7 262.836 14.1646  14 
  -5   4  -7 259.168 13.5288  29 
  -5   4  -7 262.456 13.2674  35 
  -5   4  -7 259.213 14.6216   6 
   5   4   7 268.407 13.6639  30 
  -5   4  -7 267.149 13.2118  35 
  -5   4  -7 249.156 14.1827  25 
  -5   4  -7 282.769 13.6716   7 
   5   4   7 245.781 13.8489   7 
  -5   4  -7 257.993 13.5169  17 
   5   4   7 277.945 13.8255  28 
  -5   4  -7 274.273 13.5583  28 
   5   4   7 260.357 13.6355  31 
   5   4   7 278.471 13.7061  29 
  -5   4  -7 272.038 13.5558  31 
   6  -4   7 75.4317 6.16380  24 
  -6  -4  -7 80.8472 4.97769  27 
   6  -4   7 78.7788 5.47837  33 
   6  -4   7 77.2224 5.10979  27 
   6   4   7 70.6866 4.93480  29 
  -6   4  -7 78.4337 4.65742  28 
   6   4   7 75.0434 4.90531  28 
  -6   4  -7 71.7711 4.49857  31 
  -6   4  -7 71.8985 4.67125  29 
  -6   4  -7 74.5328 5.41035  25 
   6   4   7 75.0912 5.06414   7 
   6   4   7 79.8146 4.74154  31 
   6   4   7 72.9340 4.74722  30 
  -6   4  -7 75.9107 5.12595   8 
  -6   4  -7 88.5577 6.17251   6 
  -6   4  -7 77.6101 4.58513  17 
  -6   4  -7 73.2416 4.78935   7 
  -6   4  -7 75.1998 5.20324  14 
  -6   4  -7 78.5407 4.55132  30 
  -7  -5   7 24.7245 3.12773  27 
  -7  -5   7 28.4655 4.17610  24 
   7   5  -7 27.9169 2.82895  28 
   7   5  -7 29.4702 3.76167  23 
  -7   5   7 24.8632 2.22315  28 
  -7   5   7 29.3227 2.09288  11 
  -7   5   7 28.8337 2.12197  29 
   7   5  -7 28.3628 2.78391  29 
  -7   5   7 24.6332 2.67888  22 
  -7   5   7 32.9550 2.19734  26 
  -6  -5   7 5.43208 2.01950  27 
   6   5  -7 1.34869 2.61814  36 
  -6   5   7 2.72510 1.76611  22 
  -6   5   7 3.30594 1.17481  29 
   6   5  -7 2.44260 1.79159  28 
   6   5  -7 3.65969 1.96713  29 
  -6   5   7 5.93047 1.36556  11 
  -6   5   7 7.44663 1.84008  26 
   6   5  -7 4.25481 2.66416  23 
  -5  -5   7 19.4251 3.90236  27 
  -5   5   7 17.3796 2.20372  29 
  -5   5   7 17.9921 3.56008  22 
   5   5  -7 18.9250 3.22630  29 
  -5   5   7 21.3937 2.14872  11 
   5   5  -7 19.0110 4.85160  23 
   5   5  -7 21.3170 3.37792  28 
  -5   5   7 21.7305 2.36272  26 
   5   5  -7 15.9301 2.57678  30 
   5   5  -7 18.8726 4.70544  39 
   5   5  -7 17.6901 5.21847  36 
  -4   5   7 120.581 6.57516  26 
   4   5  -7 96.9919 10.6701  42 
  -4   5   7 108.733 6.29859  80 
   4   5  -7 117.806 8.32099  39 
   4   5  -7 128.326 6.79509  30 
   4   5  -7 130.976 7.09315  28 
   4   5  -7 123.835 7.13055  29 
  -4   5   7 126.644 6.49498  11 
   4   5  -7 108.840 8.98937  36 
   4   5  -7 122.163 10.4068  82 
   4   5  -7 125.588 8.59340  23 
  -4   5   7 126.601 6.54815  29 
  -3   5   7 166.414 8.84156  80 
   3   5  -7 171.437 11.4230  36 
   3   5  -7 180.063 9.52516  29 
  -3   5   7 170.327 9.13881  26 
  -3   5   7 178.757 9.15384  29 
  -3   5   7 170.973 9.06845  11 
   3   5  -7 182.017 9.22804  30 
   3   5  -7 181.446 9.59883  28 
   3   5  -7 190.804 10.7359  39 
   3   5  -7 182.118 13.5160  82 
   2   5  -7 24.8889 2.52869  30 
  -2   5   7 21.8518 5.73035  21 
  -2   5   7 21.3116 4.58069  37 
   2   5  -7 27.3845 8.36460  82 
  -2   5   7 23.2371 1.81761  80 
  -2   5   7 23.5160 2.21795  26 
   2   5  -7 21.5696 4.92362  42 
   2   5  -7 23.3275 3.09180  28 
   2   5  -7 23.0621 5.79505  36 
   2   5  -7 22.2569 3.10517  29 
  -2   5   7 21.4723 2.32767  29 
   2   5  -7 20.9968 4.64913  39 
  -2   5   7 20.9073 2.07542  11 
  -2   5   7 24.9574 2.79584   9 
  -1   5   7 45.3889 5.47675  37 
   1   5  -7 51.7683 8.83503  82 
   1   5  -7 54.7320 6.47920  36 
   1   5  -7 52.5306 4.00059  29 
  -1   5   7 51.8528 3.39243  26 
  -1   5   7 49.8881 4.29710   9 
  -1   5   7 54.4550 3.13947  80 
   1   5  -7 50.0327 3.92344  80 
  -1   5   7 50.4852 3.24415  11 
   1   5  -7 49.1144 4.01410  28 
  -1   5   7 53.7299 6.73963  21 
  -1   5   7 50.0851 3.45637  29 
   1   5  -7 54.3043 3.42155  30 
   1   5  -7 50.6313 5.27897  39 
   1   5  -7 53.7337 6.01641  42 
   0   5  -7 3.44461 3.10761  36 
   0   5   7 5.76920 3.97979  21 
   0   5  -7 5.52742 1.76846  29 
   0   5  -7 4.89989 1.75868  28 
   0   5  -7 2.23133 6.13107  82 
   0   5   7 8.66667 1.60533  80 
   0   5   7 6.01877 1.53329  29 
   0   5  -7 5.59437 2.11190  80 
   0   5   7 8.13709 1.71161  11 
   0   5   7 6.14841 3.58728  37 
   0   5  -7 7.79759 3.65669  42 
  -1   5  -7 126.311 7.13001  80 
   1   5   7 129.780 6.89741  80 
  -1   5  -7 116.023 8.54372  42 
   1   5   7 127.996 8.31157  37 
   1   5   7 125.277 6.96627  29 
  -1   5  -7 121.016 7.04066  28 
  -1   5  -7 129.188 7.09395  29 
   1   5   7 129.444 6.80883  11 
   1   5   7 136.567 9.51687  21 
  -2   5  -7 3.41224 1.46147  28 
   2   5   7 11.7757 4.01295  21 
   2   5   7 3.68025 1.69976  28 
  -2   5  -7 6.65537 1.61525  29 
   2   5   7 4.01265 1.68749  29 
   2   5   7 3.31038 3.01487  37 
   2   5   7 6.27935 1.84414  11 
  -2   5  -7 -0.8798 4.00857  42 
   3   5   7 7.65618 2.75492  37 
  -3   5  -7 12.1528 2.41804  29 
   3   5   7 14.5114 2.78062  28 
  -3   5  -7 11.5088 2.42878  28 
  -3   5  -7 9.89164 2.69189   8 
   3   5   7 10.6475 2.45509  29 
   3   5   7 15.8737 2.26863  11 
   4  -5   7 14.1752 2.78223  27 
  -4   5  -7 16.2001 3.55463   8 
   4   5   7 17.4737 2.44226  28 
   4   5   7 20.8031 2.30148  11 
  -4   5  -7 15.7424 2.16391  28 
  -4   5  -7 16.7991 2.33249  29 
   4   5   7 17.0221 2.52962  29 
   5  -5   7 234.878 12.2051  27 
  -5  -5  -7 235.529 12.1478  27 
  -5   5  -7 242.193 11.9501  29 
  -5   5  -7 225.891 12.2287   8 
   5   5   7 264.273 12.0820  29 
  -5   5  -7 250.760 11.9702  28 
   5   5   7 226.620 12.0388  28 
   5   5   7 224.067 12.0022  11 
   4   6  -7 11.6784 3.16753  23 
   4   6  -7 13.4574 1.61369  11 
   4   6  -7 11.4212 1.71487  28 
   4   6  -7 13.3095 1.72872  26 
  -4   6   7 15.3812 1.53726   9 
   4   6  -7 12.3684 1.77903  29 
  -3   6   7 102.396 5.18033   9 
   3   6  -7 96.6639 5.17157  29 
   3   6  -7 93.3313 5.72051  28 
   3   6  -7 95.7393 5.09908  11 
   3   6  -7 95.8853 5.17155  26 
   3   6  -7 79.3268 8.18675  23 
  -2   6   7 117.433 6.09014   9 
   2   6  -7 115.494 5.98933  11 
   2   6  -7 114.163 6.04787  29 
   2   6  -7 112.534 6.03336  26 
   1   6  -7 1.45568 1.01187  29 
  -1   6   7 1.42060 0.96274   9 
   1   6  -7 1.82381 1.01791  26 
   1   6  -7 2.79260 1.02361  11 
  -1   6   7 -3.4794 2.75342  21 
   0   6   7 21.2198 2.13167   9 
   0   6  -7 19.6219 1.83727  29 
   0   6  -7 22.0853 1.85289  26 
   0   6  -7 22.4445 1.70967  11 
   0   6   7 17.2484 4.54438  21 
  -1   6  -7 152.199 8.02251  29 
   1   6   7 163.159 8.33635   9 
   1   6   7 176.263 9.84552  21 
  -1   6  -7 163.044 8.04626  26 
   1   6   7 157.120 7.90381  12 
   1   6   7 151.558 7.89655  12 
  -1   6  -7 159.654 7.96701  11 
   2   6   7 183.010 8.68352  12 
   2   6   7 169.683 8.67892  12 
  -2   6  -7 184.353 8.63044  11 
  -2   6  -7 176.970 8.72683  26 
  -2   6  -7 174.271 8.70004  29 
   2   6   7 168.364 9.09937   9 
  -2   6  -7 166.656 8.85479  12 
 -11   0   8 123.848 7.03643  16 
 -11   0   8 127.590 7.50704   4 
 -11   0   8 152.658 8.07928   2 
  10   0  -8 43.5567 4.69660  10 
 -10   0   8 35.5575 4.91419   4 
 -10   0   8 50.7910 4.64872  14 
  10   0  -8 38.2586 5.39262  20 
 -10   0   8 40.6605 5.18634  13 
  10   0  -8 38.8731 4.89418  19 
  10   0  -8 38.7556 4.48091  18 
 -10   0   8 46.1521 5.06449   2 
   9   0  -8 22.3356 5.88186  20 
  -9   0   8 16.7084 5.41769   2 
  -9   0   8 17.2491 4.73375  14 
   9   0  -8 30.7276 5.49962  18 
   9   0  -8 29.5948 5.55728  41 
   9   0  -8 22.7198 7.54168  10 
   9   0  -8 19.8137 5.26672  19 
  -9   0   8 21.9539 5.30380  13 
  -9   0   8 23.9689 4.91069   4 
   9   0  -8 15.2559 4.78741  81 
  -9   0   8 21.1342 6.05745  83 
  -8   0   8 0.38148 2.93536  18 
   8   0  -8 -0.8226 3.85072  20 
  -8   0   8 -1.6083 3.53884  78 
  -8   0   8 -3.2789 2.84302  81 
  -8   0   8 -2.0479 4.80233  83 
  -8   0   8 -4.1024 3.84869   2 
   8   0  -8 -5.9857 4.01143  41 
   8   0  -8 -0.6021 2.81276  76 
  -8   0   8 0.58604 2.07057  15 
  -8   0   8 -1.3748 3.36753  13 
  -8   0   8 -3.4538 3.48237   4 
   8   0  -8 0.71483 3.75972  33 
  -8   0   8 -1.7815 3.25553  14 
  -8   0   8 -2.6672 4.05863  74 
   8   0  -8 -1.0834 3.30725  19 
   8   0  -8 3.25710 3.60590  18 
   8   0  -8 -0.6500 3.55567  78 
   7   0  -8 23.3226 5.51291  41 
  -7   0   8 26.9067 7.35884  76 
  -7   0   8 28.7188 4.34800  74 
   7   0  -8 16.1089 6.84231  75 
  -7   0   8 23.9769 4.61745  81 
  -7   0   8 26.2226 7.01386  83 
  -7   0   8 26.1748 5.17940  78 
   7   0  -8 12.6136 12.7487  72 
   7   0  -8 34.2997 9.86802  76 
   7   0  -8 16.4878 5.95252  79 
  -7   0   8 20.6842 4.31157  47 
   7   0  -8 17.8292 4.36791  33 
   7   0  -8 26.2413 4.60455  45 
   7   0  -8 20.4301 4.60563  78 
  -6   0   8 51.2347 6.51061  83 
   6   0  -8 52.9560 14.0213  72 
   6   0  -8 45.3986 5.36283  41 
   6   0  -8 53.9214 5.50899  78 
   6   0  -8 46.9171 6.53541  79 
  -6   0   8 48.7653 5.00891  47 
  -6   0   8 43.7227 5.65865  78 
   6   0  -8 40.8743 4.51061  71 
  -6   0   8 49.3005 5.53115  81 
   6   0  -8 44.6365 5.25422  75 
  -6   0   8 54.4445 5.48358  74 
  -6   0   8 42.4998 8.07692  76 
   6   0  -8 51.5785 5.48868  45 
  -5   0   8 58.3933 5.73168  78 
  -5   0   8 60.7565 5.21999  47 
   5   0  -8 54.3088 5.73133  41 
  -5   0   8 62.5161 8.72749  76 
   5   0  -8 65.7241 4.85314  71 
   5   0  -8 51.1460 6.47581  79 
  -5   0   8 67.0399 5.21379  74 
  -5   0   8 50.5458 6.18315  83 
  -5   0   8 63.1763 5.94090  81 
   5   0  -8 54.6069 5.04884  75 
   5   0  -8 59.9527 5.43790  78 
   5   0  -8 55.0524 5.05847  45 
  -4   0   8 37.1366 3.70670  47 
  -4   0   8 38.9429 4.00921  74 
  -4   0   8 30.9693 8.14292  76 
   4   0  -8 38.8168 4.37950  45 
   4   0  -8 37.0520 3.58391  71 
   4   0  -8 30.0923 3.96149  75 
  -4   0   8 38.5051 4.12039  78 
   4   0  -8 30.1561 4.97299  79 
  -4   0   8 29.6190 4.39198  81 
  -4   0   8 51.5902 13.9820  72 
  -4   0   8 40.6608 6.13164  83 
   4   0  -8 35.7727 4.79503  78 
   3   0  -8 570.173 30.1801  78 
  -3   0   8 640.547 34.1240  67 
  -3   0   8 555.694 32.5815  76 
   3   0  -8 619.834 30.0208  71 
  -3   0   8 603.215 30.3613  74 
   3   0  -8 597.140 30.7775  79 
  -3   0   8 576.415 30.6497  81 
  -3   0   8 566.952 37.8848  72 
  -3   0   8 618.007 30.4333  78 
   3   0  -8 617.942 30.2376  75 
   3   0  -8 617.672 30.1919  45 
   2   0  -8 132.179 7.88646  78 
  -2   0   8 123.158 10.9298  67 
  -2   0   8 141.767 7.86730  74 
   2   0  -8 125.955 7.70484  75 
   2   0  -8 111.422 10.3691  67 
  -2   0   8 114.108 17.2490  72 
  -2   0   8 142.237 8.07041  78 
   2   0  -8 136.736 7.55097  71 
   2   0  -8 144.218 7.73118  45 
   1   0  -8 30.7254 3.26074  75 
   1   0  -8 31.4240 3.12099  45 
   1   0  -8 19.1684 5.76988  67 
  -1   0   8 29.4909 3.50937  74 
   1   0  -8 27.7755 3.64889  78 
  -1   0   8 36.8963 4.31641  78 
  -1   0   8 38.0076 6.38480  67 
   1   0  -8 31.6567 3.18893  71 
   0   0  -8 6.62726 1.67327  45 
   0   0  -8 9.45912 2.85341  78 
   0   0  -8 6.56752 3.61219  67 
   0   0  -8 5.52097 2.07300  75 
   0   0  -8 6.70554 1.97370  71 
   0   0   8 3.29759 2.65255  78 
   0   0   8 2.76068 2.63801  67 
  -1   0  -8 515.433 25.1147  71 
   1   0   8 450.924 28.2746  76 
   1   0   8 486.461 25.5340  78 
  -1   0  -8 545.154 25.9805  79 
  -1   0  -8 476.432 25.0482  45 
   1   0   8 486.267 34.5422  72 
  -1   0  -8 501.067 25.3938  78 
  -1   0  -8 502.099 25.2398  75 
  -2   0  -8 148.794 9.35067  78 
   2   0   8 168.015 12.6861  81 
   2   0   8 155.467 9.46492  78 
  -2   0  -8 159.355 8.79663  71 
   2   0   8 150.272 20.9189  72 
  -2   0  -8 164.035 8.67416  45 
   2   0   8 128.403 12.8141  76 
  -2   0  -8 138.419 9.43364  79 
  -2   0  -8 151.708 8.98863  75 
  -3   0  -8 421.038 25.9912  76 
  -3   0  -8 408.487 22.2029  78 
   3   0   8 385.969 33.8505  72 
  -3   0  -8 434.967 21.8382  45 
   3   0   8 438.182 22.4930  78 
   3   0   8 428.084 22.8774  81 
   3   0   8 430.588 26.0130  76 
   3   0   8 430.705 21.9343  38 
   4   0   8 173.725 10.5601  38 
   4   0   8 193.533 27.1224  72 
   4   0   8 178.841 11.4418  78 
   4   0   8 163.634 16.7690  76 
  -4   0  -8 180.699 11.1569  78 
   4   0   8 183.332 11.0132  34 
  -4   0  -8 178.549 14.6087  76 
   4   0   8 164.701 11.7649  81 
  -5   0  -8 62.4163 5.39441  18 
   5   0   8 63.5504 6.70586  20 
   5   0   8 60.0883 6.38005  38 
   5   0   8 95.3499 13.9906  76 
  -5   0  -8 61.8743 6.24021   6 
  -5   0  -8 59.9229 5.18883  19 
   5   0   8 59.7801 5.80117  19 
  -5   0  -8 65.1943 6.23350   5 
  -5   0  -8 69.6421 6.60926  78 
   5   0   8 61.1565 6.36233  40 
   5   0   8 61.3425 6.00074  18 
  -5   0  -8 70.6522 9.11193  76 
   5   0   8 54.8580 7.14376  81 
   5   0   8 65.0188 6.45318  34 
   5   0   8 65.9541 6.97130  78 
  -5   0  -8 62.5196 5.90444  20 
  -6   0  -8 14.8428 3.03690   5 
  -6   0  -8 21.0698 6.60257  76 
   6   0   8 24.1581 5.35022  81 
   6   0   8 22.1611 4.75194  40 
   6   0   8 21.7005 5.07294  38 
   6   0   8 17.6998 4.96185  20 
  -6   0  -8 19.5374 3.96228  19 
  -6   0  -8 17.0701 4.01435   8 
   6   0   8 17.6269 4.14617  19 
  -6   0  -8 23.6706 4.07461  18 
   6   0   8 16.5571 4.29170  18 
   6   0   8 20.9242 5.47992  78 
  -6   0  -8 15.1898 4.60780  20 
  -6   0  -8 24.0653 4.67243  78 
  -7   0  -8 0.55951 2.08048  20 
   7   0   8 2.43348 2.61382  20 
  -7   0  -8 -1.7945 3.56178  83 
   7   0   8 0.21307 2.35757  18 
  -7   0  -8 0.18154 1.99160  19 
   7   0   8 -3.8689 2.39950  40 
   7   0   8 -1.4987 3.35901  19 
  -7   0  -8 -2.4755 2.38172   5 
  -7   0  -8 0.66870 1.85001  18 
   7   0   8 1.43994 3.53467  38 
  -7   0  -8 1.47736 2.65616  13 
  -7   0  -8 1.72639 2.25068   8 
   7   0   8 -0.5347 2.93623  13 
   8   0   8 -0.6933 2.97366   4 
  -8   0  -8 -0.8058 1.67600   5 
   8   0   8 0.29842 2.32391  13 
  -8   0  -8 -2.9024 1.72771   4 
  -8   0  -8 3.53422 1.94703  13 
  10  -1  -8 126.104 7.72417  19 
  10  -1  -8 109.233 7.41636  33 
 -10  -1   8 115.378 9.04899  13 
  10  -1  -8 118.715 7.20058  10 
  10  -1  -8 118.075 7.64490  18 
  10  -1  -8 121.758 8.06378  20 
 -10  -1   8 108.196 7.19617  20 
 -10  -1   8 105.564 6.83910  18 
 -10   1   8 122.039 6.68831  16 
 -10   1   8 127.850 7.47487   2 
 -10   1   8 128.393 7.60902  14 
 -10   1   8 107.824 7.34126  31 
  10   1  -8 122.553 7.64644   4 
 -10   1   8 126.269 6.99517   3 
  10   1  -8 125.597 8.01118  13 
 -10   1   8 115.807 7.39966   4 
 -10   1   8 119.740 7.81307   7 
 -10   1   8 112.875 7.18461  22 
 -10   1   8 111.680 6.86539   1 
  10   1  -8 114.432 7.44465  10 
 -10   1   8 113.031 6.81882  13 
   9  -1  -8 127.712 9.58416  24 
  -9  -1   8 155.115 9.50969  20 
   9  -1  -8 142.642 9.43149  18 
   9  -1  -8 149.176 9.46873  19 
  -9  -1   8 143.800 8.65505  81 
   9  -1  -8 152.998 10.0263  20 
   9  -1  -8 144.803 9.65944  33 
   9  -1  -8 135.377 10.9121  79 
  -9  -1   8 161.159 8.95437  18 
  -9  -1   8 138.425 8.49974  19 
   9   1  -8 144.107 9.85148  13 
  -9   1   8 146.884 9.32970   2 
  -9   1   8 131.207 9.10953   5 
   9   1  -8 142.548 9.57995  20 
  -9   1   8 129.619 8.64875  16 
  -9   1   8 147.346 9.51772  15 
   9   1  -8 143.250 10.0781  10 
  -9   1   8 144.059 8.84396   3 
  -9   1   8 135.771 9.38732   7 
  -9   1   8 158.456 9.33830  14 
  -9   1   8 143.336 9.19802  31 
   9   1  -8 154.812 9.86925  41 
  -9   1   8 190.504 9.21378  22 
   9   1  -8 158.866 10.3219  42 
   9   1  -8 149.920 8.84875  18 
  -9   1   8 157.718 9.27772   4 
   9   1  -8 160.216 9.51444   4 
  -9   1   8 155.331 9.11733  13 
  -9   1   8 143.123 9.97154  83 
  -8  -1   8 63.6614 6.57018  78 
  -8  -1   8 66.7529 9.20769  76 
  -8  -1   8 60.3203 6.87995  20 
   8  -1  -8 71.1812 7.26635  79 
   8  -1  -8 53.0262 7.59804  20 
  -8  -1   8 64.8530 5.91897  19 
   8  -1  -8 55.3834 5.71927  27 
  -8  -1   8 63.3868 6.41963  81 
   8  -1  -8 60.9664 6.69408  19 
  -8  -1   8 56.1994 5.75522  18 
   8  -1  -8 55.9816 6.91938  24 
   8  -1  -8 61.5395 6.61251  18 
   8  -1  -8 61.7729 7.16954  33 
   8  -1  -8 48.7303 5.65067  75 
   8   1  -8 78.2165 7.68152  83 
  -8   1   8 49.7452 5.93335  13 
   8   1  -8 57.2395 5.13489  81 
  -8   1   8 53.8145 5.35427  14 
  -8   1   8 51.0260 5.80209  16 
   8   1  -8 52.4349 6.43475   4 
   8   1  -8 60.3787 5.85856  78 
   8   1  -8 70.5102 7.08340  41 
   8   1  -8 56.7912 6.47819  19 
  -8   1   8 60.7440 6.33116   5 
  -8   1   8 56.7308 6.34691   7 
   8   1  -8 48.1311 6.83508  20 
  -8   1   8 50.2416 5.83020   4 
   8   1  -8 43.4541 8.56518  13 
   8   1  -8 52.7643 6.16295  18 
  -8   1   8 54.3587 5.98733  31 
  -8   1   8 55.3855 6.24600   2 
  -8   1   8 61.4105 6.05388   3 
  -8   1   8 46.2890 7.12049  15 
   8   1  -8 66.3760 7.15156  42 
  -8   1   8 51.4599 7.25673  83 
  -7  -1   8 249.374 17.6751  76 
   7  -1  -8 219.538 14.2137  79 
   7  -1  -8 214.145 13.2348  75 
  -7  -1   8 244.255 13.6697  74 
  -7  -1   8 243.626 13.9917  78 
   7  -1  -8 245.549 13.5725  45 
   7  -1  -8 208.715 12.7540  71 
   7  -1  -8 231.326 13.9971  33 
  -7  -1   8 245.356 16.5147  81 
  -7   1   8 213.514 13.5254  74 
   7   1  -8 214.817 14.6105  76 
   7   1  -8 266.027 14.6628  83 
  -7   1   8 226.127 14.2064  83 
   7   1  -8 243.380 13.3374  81 
   7   1  -8 223.710 13.8939  41 
  -7   1   8 232.193 13.6355  47 
   7   1  -8 235.366 13.4009  78 
  -6  -1   8 665.246 33.2764  45 
   6  -1  -8 687.575 33.4159  45 
   6  -1  -8 646.735 34.0997  48 
  -6  -1   8 696.690 34.3964  75 
   6  -1  -8 633.087 32.9351  71 
  -6  -1   8 634.687 37.1844  76 
   6  -1  -8 658.481 33.9278  79 
   6  -1  -8 713.561 33.3701  75 
  -6  -1   8 635.241 33.5066  74 
  -6  -1   8 653.003 33.5748  78 
   6  -1  -8 542.953 33.4947  33 
  -6   1   8 604.895 32.9260  78 
   6   1  -8 647.596 38.5279  72 
   6   1  -8 665.007 33.8851  83 
  -6   1   8 606.928 33.5182  74 
   6   1  -8 685.169 33.2976  78 
   6   1  -8 673.755 35.0518  76 
   6   1  -8 645.546 33.4314  41 
   6   1  -8 658.758 33.9402  42 
   6   1  -8 664.848 33.3967  81 
  -6   1   8 669.146 33.6726  47 
  -6   1   8 675.610 33.9302  83 
   5  -1  -8 125.326 8.22079  75 
  -5  -1   8 117.036 7.73501  71 
   5  -1  -8 125.488 8.97033  79 
   5  -1  -8 117.270 9.01562  48 
  -5  -1   8 140.081 22.4634  72 
  -5  -1   8 120.991 8.12942  75 
   5  -1  -8 129.809 7.86526  71 
   5  -1  -8 153.776 13.1362  44 
   5  -1  -8 122.662 8.00642  45 
  -5  -1   8 134.344 8.81710  78 
  -5  -1   8 123.832 8.18927  74 
  -5  -1   8 138.149 8.21817  45 
  -5   1   8 128.901 8.42399  74 
  -5   1   8 132.107 8.21792  78 
  -5   1   8 118.954 9.73395  77 
   5   1  -8 141.481 8.47747  78 
   5   1  -8 120.451 8.98140  83 
   5   1  -8 123.994 8.94863  42 
  -5   1   8 127.681 8.89693  83 
   5   1  -8 126.973 14.1299  72 
   5   1  -8 128.803 10.7738  76 
   5   1  -8 121.132 8.70328  41 
   4  -1  -8 7.16105 3.35483  48 
   4  -1  -8 6.04780 2.76405  44 
   4  -1  -8 9.70765 3.24455  79 
  -4  -1   8 14.6352 3.09121  75 
   4  -1  -8 5.41311 2.23844  71 
  -4  -1   8 10.1106 2.79877  74 
   4  -1  -8 7.55765 2.24927  45 
  -4  -1   8 13.7504 2.67468  71 
   4  -1  -8 6.19074 2.60761  75 
  -4  -1   8 7.37800 2.21632  45 
  -4  -1   8 13.2370 4.20118  78 
  -4   1   8 9.48478 3.80729  83 
   4   1  -8 13.0293 4.28590  83 
  -4   1   8 12.0553 2.92978  74 
   4   1  -8 7.55219 3.44537  42 
  -4   1   8 8.44269 2.85575  77 
   4   1  -8 9.51834 3.28802  41 
  -4   1   8 11.2775 2.68221  81 
   4   1  -8 14.5169 3.89330  78 
  -4   1   8 11.2986 3.63127  78 
   3  -1  -8 184.546 10.7866  75 
  -3  -1   8 220.066 10.8935  45 
   3  -1  -8 205.867 10.9639  45 
   3  -1  -8 182.321 12.0175  44 
  -3  -1   8 189.449 11.2370  78 
   3  -1  -8 204.614 10.7135  71 
  -3  -1   8 194.219 11.1750  74 
   3  -1  -8 204.481 11.8425  79 
   3  -1  -8 209.011 11.5609  48 
  -3  -1   8 180.929 10.6656  71 
   3   1  -8 204.747 13.5818  76 
   3   1  -8 171.957 10.8446  41 
   3   1  -8 195.039 11.0138  78 
  -3   1   8 190.447 10.2554  81 
  -3   1   8 201.446 10.8530  78 
  -3   1   8 187.446 11.0051  77 
  -3   1   8 196.182 10.8150  51 
   2  -1  -8 542.451 28.4036  79 
  -2  -1   8 575.173 27.8097  45 
   2  -1  -8 568.349 28.3441  48 
   2  -1  -8 568.341 27.6973  71 
   2  -1  -8 588.744 33.9150  67 
   2  -1  -8 563.342 27.7889  45 
  -2  -1   8 491.460 38.1152  72 
  -2  -1   8 555.791 28.3288  78 
   2  -1  -8 546.522 28.7523  44 
  -2  -1   8 560.433 28.0765  74 
   2  -1  -8 572.344 27.9330  75 
  -2   1   8 611.923 27.9553  51 
   2   1  -8 542.987 27.9336  53 
  -2   1   8 575.658 28.4325  73 
   2   1  -8 493.888 27.8765  41 
  -2   1   8 487.846 27.9531  53 
  -2   1   8 510.843 27.9275  77 
  -2   1   8 565.552 27.9132  78 
  -2   1   8 560.288 27.4767  81 
   2   1  -8 526.751 29.7608  76 
   2   1  -8 561.517 27.8985  78 
   1  -1  -8 177.617 9.55429  75 
   1  -1  -8 176.788 9.29807  45 
   1  -1  -8 165.300 10.4217  44 
   1  -1  -8 166.422 12.7776  67 
  -1  -1   8 181.413 9.98853  78 
  -1  -1   8 157.569 17.3985  67 
   1  -1  -8 180.018 9.26626  71 
   1  -1  -8 159.989 9.99251  79 
  -1  -1   8 181.479 9.43546  45 
  -1  -1   8 160.933 9.71825  74 
  -1  -1   8 163.088 24.1177  72 
   1  -1  -8 172.535 9.95368  48 
   1   1  -8 160.603 12.2112  67 
   1   1  -8 168.474 9.45408  53 
  -1   1   8 166.943 10.2398  73 
   1   1  -8 152.838 11.6209  41 
  -1   1   8 179.888 9.88381  77 
  -1   1   8 159.694 9.41315  78 
   1   1  -8 163.453 10.8904  52 
  -1   1   8 157.767 9.05074  81 
   1   1  -8 169.228 11.7432  76 
  -1   1   8 150.000 9.28324  51 
   1   1  -8 178.292 9.53390  78 
   0  -1  -8 448.912 22.9632  79 
   0  -1  -8 444.312 22.6981  48 
   0  -1   8 403.593 22.6246  78 
   0  -1  -8 453.146 22.3173  75 
   0  -1   8 427.347 22.5229  75 
   0  -1   8 453.965 22.2188  45 
   0  -1   8 452.961 23.4833  79 
   0  -1  -8 434.900 22.1082  71 
   0  -1   8 387.132 36.3425  72 
   0  -1  -8 472.116 22.2253  45 
   0  -1  -8 434.176 23.0464  44 
   0  -1   8 443.835 22.5127  74 
   0   1   8 448.775 22.1047  81 
   0   1  -8 454.240 22.3521  53 
   0   1   8 381.122 22.1917  51 
   0   1   8 472.252 22.9898  73 
   0   1  -8 429.123 22.2433  78 
   0   1   8 395.077 22.2568  78 
   0   1  -8 425.522 24.0621  76 
  -1  -1  -8 484.394 24.1208  44 
  -1  -1  -8 463.934 23.5373  48 
   1  -1   8 412.004 23.1110  71 
  -1  -1  -8 434.731 23.7477  79 
   1  -1   8 523.982 35.8100  72 
   1  -1   8 424.607 23.3376  75 
  -1  -1  -8 466.165 23.2838  75 
   1  -1   8 439.214 23.0257  45 
  -1  -1  -8 471.972 23.0917  71 
   1  -1   8 443.239 23.4152  74 
   1  -1   8 417.798 24.0544  79 
  -1  -1  -8 431.244 22.9524  45 
   1  -1   8 473.364 23.6918  78 
  -1   1  -8 457.196 25.0432  76 
  -1   1  -8 459.770 23.2097  78 
   1   1   8 443.149 23.7244  73 
   1   1   8 440.537 23.2811  78 
   1   1   8 465.579 23.0167  81 
  -1   1  -8 439.559 23.6584  83 
   1   1   8 439.279 23.2754  51 
   2  -1   8 594.931 28.4744  45 
  -2  -1  -8 575.101 29.4069  79 
  -2  -1  -8 615.371 28.4502  45 
   2  -1   8 561.801 28.7696  74 
   2  -1   8 591.432 29.1935  78 
  -2  -1  -8 579.418 28.4293  71 
   2  -1   8 626.644 28.8066  71 
   2  -1   8 545.729 39.3743  72 
   2  -1   8 530.469 29.4589  79 
   2  -1   8 574.154 28.9428  75 
  -2  -1  -8 531.612 28.5827  75 
  -2  -1  -8 539.389 28.8910  48 
   2  -1   8 569.240 28.4625  38 
   2   1   8 531.835 29.2436  73 
   2   1   8 532.147 28.6659  78 
   2   1   8 538.933 28.4415  40 
  -2   1  -8 521.902 29.0179  83 
  -2   1  -8 566.035 30.1062  76 
  -2   1  -8 552.479 28.5638  78 
   2   1   8 544.218 28.2872  81 
  -3  -1  -8 75.1004 6.83276  79 
  -3  -1  -8 85.0564 5.83570  71 
   3  -1   8 84.8062 5.97722  38 
  -3  -1  -8 87.2782 5.75535  45 
   3  -1   8 81.5840 6.75290  34 
   3  -1   8 86.5760 7.64787  79 
  -3  -1  -8 78.3940 6.21469  75 
   3  -1   8 75.7752 17.1453  72 
   3  -1   8 78.9521 6.06666  45 
   3  -1   8 88.7577 6.86851  75 
   3  -1   8 75.7835 7.39180  78 
   3  -1   8 79.9256 6.04775  71 
   3   1   8 79.4625 6.17728  38 
  -3   1  -8 84.2966 7.00105  83 
  -3   1  -8 76.9532 6.15656  78 
   3   1   8 84.6389 6.67744  78 
   3   1   8 74.0250 7.47553  73 
  -3   1  -8 81.5481 7.34846  76 
   3   1   8 69.0689 5.74683  81 
   3   1   8 77.7728 6.10919  40 
  -4  -1  -8 6.64610 3.82900  79 
   4  -1   8 10.9780 3.18402  34 
   4  -1   8 15.0220 3.82169  71 
   4  -1   8 8.89509 4.55921  79 
  -4  -1  -8 7.42663 3.42378  78 
   4  -1   8 13.8075 3.92457  45 
   4  -1   8 6.61719 4.30301  78 
  -4  -1  -8 7.30247 2.39620  71 
   4  -1   8 4.16615 3.28444  75 
   4  -1   8 8.88438 3.38992  38 
  -4  -1  -8 13.9686 3.19423  45 
  -4  -1  -8 7.47805 2.86319  75 
   4  -1   8 11.5191 3.48009  33 
   4   1   8 14.6411 4.56863  34 
   4   1   8 6.86715 2.63258  40 
  -4   1  -8 11.2883 4.24153  83 
  -4   1  -8 13.6368 4.34599  78 
   4   1   8 7.40412 4.50747  73 
   4   1   8 11.8216 3.76871  38 
   4   1   8 8.27330 3.09748  81 
   4   1   8 10.9131 3.84844  78 
   5  -1   8 5.97296 3.09444  24 
  -5  -1  -8 6.75715 3.91595  79 
  -5  -1  -8 7.90223 2.51505  19 
   5  -1   8 2.33181 3.25617  33 
   5  -1   8 4.93348 3.04968  20 
  -5  -1  -8 3.62816 3.26979  78 
  -5  -1  -8 5.07117 2.45397  18 
   5  -1   8 2.38808 3.23391  75 
  -5  -1  -8 4.69480 2.71017  75 
   5  -1   8 5.29239 3.12442  18 
   5  -1   8 0.49173 3.01229  19 
  -5  -1  -8 4.57911 2.70348  20 
   5  -1   8 6.22875 3.79585  38 
   5  -1   8 -0.7032 4.57079  76 
   5  -1   8 1.50582 4.30659  79 
   5  -1   8 2.23131 2.74689  34 
  -5  -1  -8 7.36807 2.46221   5 
   5  -1   8 -1.0708 3.93960  78 
  -5   1  -8 7.16638 2.53349   4 
  -5   1  -8 2.04099 1.86196  17 
  -5   1  -8 3.06781 2.81029   8 
   5   1   8 2.38816 3.08500   2 
   5   1   8 8.40871 3.79519  38 
   5   1   8 4.98163 3.16323   4 
   5   1   8 0.01601 2.59575  15 
  -5   1  -8 5.40669 3.65240   6 
   5   1   8 5.90981 3.59097  78 
  -5   1  -8 3.36123 2.42159  13 
  -5   1  -8 -0.4159 2.33297   2 
  -5   1  -8 2.06782 3.05332  78 
   5   1   8 9.93647 4.33369  73 
  -5   1  -8 2.90558 2.74389   5 
   5   1   8 1.54207 2.54847  40 
  -5   1  -8 4.23154 3.95239  83 
  -6  -1  -8 0.24940 3.16633  78 
   6  -1   8 -0.1936 4.27649  76 
   6  -1   8 2.37853 4.05250  78 
   6  -1   8 -0.3565 2.68936  34 
  -6  -1  -8 1.02701 2.33534  76 
   6  -1   8 -3.1987 2.40208  40 
   6  -1   8 -3.1056 2.47027  19 
  -6  -1  -8 -0.0695 2.44758   5 
  -6  -1  -8 0.66773 2.12071  18 
  -6  -1  -8 0.55779 2.42397  20 
   6  -1   8 2.45596 3.44852  38 
   6  -1   8 2.47470 3.15994  33 
   6  -1   8 0.95461 2.87572  18 
  -6  -1  -8 3.54726 2.29394  19 
   6  -1   8 -2.4642 2.79425  20 
  -6   1  -8 7.62108 3.34262   6 
  -6   1  -8 4.71026 2.65194   8 
  -6   1  -8 4.61735 2.29677  17 
   6   1   8 3.03988 2.99333  13 
   6   1   8 0.99065 2.96325  43 
   6   1   8 1.80383 2.86211  40 
  -6   1  -8 0.11699 2.32671   4 
   6   1   8 0.41717 3.79510  38 
  -6   1  -8 2.81810 3.08996  78 
   6   1   8 1.53330 3.17808   4 
  -6   1  -8 2.12196 2.52819   2 
   6   1   8 1.78759 2.14921  15 
   6   1   8 0.11498 3.39111   2 
  -6   1  -8 -0.9791 2.61424   5 
  -6   1  -8 0.56408 4.04696  83 
  -6   1  -8 0.29287 2.18935  13 
   7  -1   8 94.1682 6.92862  38 
  -7  -1  -8 84.9191 6.65573   5 
  -7  -1  -8 81.2543 5.85776  19 
  -7  -1  -8 84.7262 6.34684  20 
   7  -1   8 88.8031 6.31375  18 
   7  -1   8 86.5512 6.23661  19 
  -7  -1  -8 81.3716 6.01272  18 
   7  -1   8 83.4256 6.83734  20 
   7   1   8 102.081 6.97173  13 
  -7   1  -8 98.6712 6.15687   4 
  -7   1  -8 78.0104 6.58848   5 
  -7   1  -8 89.6157 5.96666  13 
  -7   1  -8 93.7417 6.41703   2 
  -7   1  -8 90.6394 6.88521   6 
   7   1   8 90.7722 6.93329  38 
   7   1   8 98.2917 6.53693   4 
  -7   1  -8 97.6626 5.88192   8 
   8  -1   8 60.2019 4.27134  19 
   8  -1   8 52.9163 4.27175  18 
  -8  -1  -8 63.9039 4.48118  20 
  -8  -1  -8 62.0075 4.06332  18 
   8  -1   8 55.5439 4.83550  20 
  -8  -1  -8 64.5548 4.65615   5 
  -8  -1  -8 58.7259 3.98358  19 
  -8   1  -8 68.8189 4.35190  13 
  -8   1  -8 60.5597 4.24048   3 
   8   1   8 69.8407 5.11550   3 
  -8   1  -8 62.1813 4.07367  16 
   8   1   8 67.9100 4.74268   4 
  -8   1  -8 60.3364 4.50791   5 
   8   1   8 70.7844 4.63030  13 
  -8   1  -8 63.7738 4.39553   4 
  -8   1  -8 63.8397 4.52654   2 
   8   1   8 63.3173 4.31330  16 
  10  -2  -8 14.5893 3.31398  24 
 -10  -2   8 10.9323 2.58543  19 
 -10  -2   8 6.51091 2.14884  18 
  10  -2  -8 15.3379 3.72268  18 
  10  -2  -8 13.4237 2.81276  27 
  10  -2  -8 13.6721 4.21227  20 
 -10  -2   8 10.4462 3.20128  20 
  10  -2  -8 17.1405 4.10493  19 
  10  -2  -8 21.2941 4.73073  33 
 -10   2   8 15.2471 3.32150  30 
  10   2  -8 17.9792 3.08475  16 
  10   2  -8 17.4375 3.28038   3 
 -10   2   8 16.7585 2.87539  31 
 -10   2   8 11.4490 1.77153   3 
 -10   2   8 10.6906 1.34067   1 
 -10   2   8 14.4271 3.01337   2 
 -10   2   8 16.7554 3.59842   7 
 -10   2   8 12.9186 2.68109   4 
 -10   2   8 15.0450 1.88640  32 
 -10   2   8 13.8640 2.02042  22 
  10   2  -8 13.2467 3.59086  13 
 -10   2   8 11.9093 3.05755  15 
  10   2  -8 13.3835 3.40172  23 
  10   2  -8 20.6930 3.24751  10 
 -10   2   8 14.1705 3.44861  14 
  10   2  -8 6.63382 2.31994   4 
   9  -2  -8 18.7504 5.12800  33 
  -9  -2   8 24.6312 4.40231  19 
   9  -2  -8 12.6059 4.72716  24 
  -9  -2   8 22.7741 4.19738  18 
   9  -2  -8 27.0130 6.40784  18 
   9  -2  -8 23.4638 5.72050  20 
   9  -2  -8 27.0647 5.04503  19 
  -9  -2   8 30.6972 5.59560  20 
   9  -2  -8 10.6976 3.76105  27 
  -9   2   8 22.2206 4.85737   7 
  -9   2   8 18.8387 3.00315   1 
  -9   2   8 20.0992 2.71940  22 
  -9   2   8 20.8709 5.58104  15 
  -9   2   8 18.7031 2.08265  16 
  -9   2   8 17.9417 3.19924  32 
  -9   2   8 20.4794 4.41798  14 
   9   2  -8 24.6261 4.66426  10 
  -9   2   8 23.9989 3.33875   3 
   9   2  -8 21.5065 4.71203   3 
   9   2  -8 24.0847 5.09336   4 
  -9   2   8 19.0392 4.25241  31 
   9   2  -8 20.5382 5.06670  23 
   9   2  -8 16.5894 4.92912  13 
  -9   2   8 17.2140 4.21210  30 
   9   2  -8 20.4848 4.46045  39 
  -9   2   8 17.9378 3.91547   4 
  -9   2   8 21.1335 4.07512   2 
   9   2  -8 14.4587 3.03732  16 
   8  -2  -8 47.4015 6.63029  24 
  -8  -2   8 45.7221 5.93047  24 
   8  -2  -8 43.1688 6.28575  33 
  -8  -2   8 54.1607 6.53796  20 
  -8  -2   8 49.2527 9.89024  76 
   8  -2  -8 44.3279 5.31487  27 
   8  -2  -8 49.2346 6.36558  79 
  -8  -2   8 47.3576 5.46923  18 
  -8  -2   8 49.0378 5.58058  19 
  -8  -2   8 40.9571 6.00126  78 
   8   2  -8 40.5885 6.43727  42 
  -8   2   8 44.6842 5.39752  14 
  -8   2   8 48.6759 4.58689   3 
  -8   2   8 41.1819 7.46771  15 
   8   2  -8 51.8884 5.81844  15 
  -8   2   8 44.0589 5.75822   5 
  -8   2   8 44.3277 3.83904  22 
   8   2  -8 37.9777 6.11140  13 
  -8   2   8 51.8666 5.61871  83 
  -8   2   8 47.9451 4.22120   1 
  -8   2   8 49.7935 6.04577   7 
   8   2  -8 46.1474 6.04013   4 
   8   2  -8 39.4349 6.27214  83 
   8   2  -8 40.0406 6.26706  41 
  -8   2   8 53.5120 5.49780   2 
  -8   2   8 48.0165 5.45212  31 
  -8   2   8 47.7561 4.48555  32 
  -8   2   8 45.2443 3.96621  16 
   8   2  -8 42.4871 6.08393  23 
  -8   2   8 47.9699 4.82557  77 
  -8   2   8 53.9363 5.17294   4 
  -8   2   8 46.7709 4.55822  13 
  -8   2   8 48.1355 4.34212  28 
  -7  -2   8 148.085 9.42699  18 
  -7  -2   8 152.262 9.60880  75 
   7  -2  -8 152.439 9.22366  27 
  -7  -2   8 146.029 9.15105  27 
   7  -2  -8 157.352 10.9299  24 
  -7  -2   8 136.556 10.1384  20 
   7  -2  -8 159.568 10.4862  79 
  -7  -2   8 149.965 9.45815  19 
   7  -2  -8 166.261 9.47764  75 
  -7  -2   8 140.960 13.9537  78 
   7  -2  -8 142.362 10.1382  33 
   7   2  -8 152.633 10.2453   7 
   7   2  -8 146.147 10.2320  78 
  -7   2   8 138.507 8.76265   3 
  -7   2   8 158.076 9.82273  83 
  -7   2   8 140.500 9.87795   5 
  -7   2   8 138.945 8.63427   1 
   7   2  -8 138.274 10.3836  15 
  -7   2   8 150.768 9.27962  31 
  -7   2   8 167.032 9.27553  77 
   7   2  -8 169.291 10.6278  83 
  -7   2   8 145.063 9.09904   4 
  -7   2   8 145.135 9.54499   2 
  -7   2   8 141.298 9.71633   7 
  -7   2   8 132.918 8.23690  22 
  -7   2   8 139.168 8.76877  13 
   7   2  -8 151.979 9.45505  73 
  -7   2   8 150.913 9.54572  14 
  -7   2   8 162.517 8.86174  28 
   7   2  -8 134.418 10.1670  41 
   7   2  -8 139.526 10.2930  42 
   7   2  -8 146.419 9.71700   4 
   7   2  -8 136.002 9.96334  13 
  -7   2   8 142.667 8.40671  16 
  -6  -2   8 624.434 35.8138  74 
   6  -2  -8 692.831 37.2698  44 
   6  -2  -8 679.176 35.3244  71 
  -6  -2   8 666.977 35.5156  71 
   6  -2  -8 697.560 36.4909  48 
   6  -2  -8 735.160 36.4647  79 
  -6  -2   8 737.750 36.0235  75 
  -6  -2   8 695.223 35.6564  45 
   6  -2  -8 663.134 35.8055  33 
  -6  -2   8 659.280 57.0737  72 
   6  -2  -8 653.762 35.5818  45 
   6  -2  -8 714.903 35.6673  75 
  -6   2   8 740.806 36.0430  83 
   6   2  -8 719.267 36.1494  41 
  -6   2   8 783.579 35.6446  77 
   6   2  -8 739.898 35.3864  78 
   6   2  -8 688.611 35.7979  73 
   6   2  -8 731.329 36.2370  83 
   6   2  -8 730.846 36.7608  42 
   5  -2  -8 243.619 13.2920  45 
   5  -2  -8 228.668 14.0307  48 
   5  -2  -8 261.224 14.3852  79 
   5  -2  -8 244.489 13.2806  75 
   5  -2  -8 228.807 12.8378  71 
  -5  -2   8 246.676 13.2089  71 
  -5  -2   8 240.780 13.3058  45 
  -5  -2   8 206.174 14.3460  48 
  -5  -2   8 238.507 13.4464  74 
   5  -2  -8 266.517 15.0658  44 
  -5  -2   8 241.915 13.6592  75 
   5   2  -8 222.441 12.9831  78 
   5   2  -8 218.120 14.2558  42 
  -5   2   8 222.155 13.0228  77 
  -5   2   8 246.613 13.6582  83 
   5   2  -8 228.008 13.9361  41 
   5   2  -8 246.111 14.1827  83 
  -4  -2   8 33.7070 4.32715  75 
   4  -2  -8 39.7329 3.93934  71 
   4  -2  -8 46.1548 6.44060  44 
  -4  -2   8 39.7166 4.29166  71 
  -4  -2   8 41.5243 4.46675  45 
   4  -2  -8 34.0690 4.98614  48 
   4  -2  -8 40.3114 4.57479  75 
   4  -2  -8 35.7107 4.25609  45 
   4  -2  -8 37.7080 5.54284  79 
  -4  -2   8 41.6475 4.31076  74 
  -4  -2   8 38.4594 4.97634  48 
   4   2  -8 34.7236 5.69978  83 
  -4   2   8 39.5946 4.50977  77 
   4   2  -8 31.4387 6.94763  82 
   4   2  -8 36.4030 5.46701  42 
  -4   2   8 38.5418 4.90916  83 
   4   2  -8 28.9027 4.33949  78 
   4   2  -8 44.9665 5.38690  41 
  -3  -2   8 99.8423 7.25175  48 
   3  -2  -8 99.7676 6.64374  75 
  -3  -2   8 100.376 6.56506  45 
   3  -2  -8 102.313 6.16214  71 
  -3  -2   8 100.453 6.38461  71 
   3  -2  -8 102.519 7.51155  79 
   3  -2  -8 97.6576 8.00780  44 
   3  -2  -8 110.375 7.38691  48 
  -3  -2   8 102.650 6.87451  74 
   3  -2  -8 95.3836 6.25757  45 
  -3  -2   8 102.769 7.75776  44 
   3   2  -8 90.6525 6.38611  78 
   3   2  -8 94.0446 7.44169  42 
   3   2  -8 113.621 9.27881  82 
   3   2  -8 105.871 7.58501  83 
  -3   2   8 93.3620 6.44990  77 
  -3   2   8 91.0282 7.07011  83 
   3   2  -8 90.5662 7.24413  41 
   3   2  -8 105.353 6.89054  77 
   2  -2  -8 98.6620 7.17300  48 
   2  -2  -8 106.379 7.93832  44 
   2  -2  -8 107.001 6.51526  45 
   2  -2  -8 107.602 7.37607  79 
  -2  -2   8 102.975 7.22159  48 
   2  -2  -8 105.814 6.71106  75 
  -2  -2   8 111.438 7.20117  74 
   2  -2  -8 106.563 6.37117  71 
  -2  -2   8 102.800 6.34544  49 
  -2  -2   8 108.709 6.61047  45 
  -2  -2   8 110.658 6.59688  71 
  -2  -2   8 111.143 7.92699  44 
   2   2  -8 96.0938 7.26477  83 
  -2   2   8 111.232 6.70132  77 
  -2   2   8 107.221 7.29852  83 
   2   2  -8 100.447 9.26657  82 
   2   2  -8 102.408 6.80702  77 
   2   2  -8 89.9714 6.93658  42 
   2   2  -8 101.344 7.15595  41 
   2   2  -8 97.8509 6.63477  78 
   1  -2  -8 23.8539 3.80601  48 
   1  -2  -8 27.9184 3.19029  71 
   1  -2  -8 23.7464 3.10199  75 
  -1  -2   8 21.6095 2.84759  45 
  -1  -2   8 27.3141 2.85221  49 
  -1  -2   8 26.4059 3.90005  48 
  -1  -2   8 22.7710 3.61382  74 
   1  -2  -8 24.0125 4.31968  79 
  -1  -2   8 18.9444 4.45401  44 
   1  -2  -8 23.9092 2.89186  45 
   1  -2  -8 26.2928 4.63901  44 
   1   2  -8 21.8055 4.65681  42 
  -1   2   8 24.0036 3.54661  77 
   1   2  -8 25.4884 4.94866  41 
   1   2  -8 16.8357 3.34813  78 
  -1   2   8 17.1715 4.35883  83 
   1   2  -8 20.7896 3.63611  77 
   1   2  -8 15.9574 4.55677  83 
   0  -2  -8 306.492 15.5326  48 
   0  -2  -8 267.271 14.8122  71 
   0  -2   8 308.842 15.7411  48 
   0  -2  -8 284.561 15.9933  44 
   0  -2   8 280.619 14.9574  45 
   0  -2   8 286.969 16.1786  44 
   0  -2  -8 291.643 15.1539  75 
   0  -2  -8 292.581 15.7283  79 
   0  -2   8 275.987 16.4688  79 
   0  -2   8 311.334 14.9864  49 
   0  -2  -8 274.532 14.8065  45 
   0  -2   8 274.716 15.4506  74 
   0  -2   8 278.725 15.5221  75 
   0   2   8 262.495 15.6027  83 
   0   2   8 279.887 15.1583  77 
   0   2  -8 289.760 14.9108  78 
   0   2  -8 261.140 15.0482  77 
   0   2  -8 280.643 15.5710  83 
   1  -2   8 464.460 24.2547  75 
   1  -2   8 428.853 24.8472  79 
  -1  -2  -8 487.492 23.7370  45 
   1  -2   8 475.347 24.3381  74 
   1  -2   8 440.499 23.8227  38 
   1  -2   8 441.586 24.3447  48 
  -1  -2  -8 441.584 24.1586  48 
  -1  -2  -8 464.442 23.7217  71 
  -1  -2  -8 463.746 24.7912  44 
   1  -2   8 469.807 23.8062  45 
  -1  -2  -8 453.991 23.8918  75 
  -1  -2  -8 455.768 24.5534  79 
   1  -2   8 453.038 23.9339  71 
   1  -2   8 496.424 24.9942  44 
   1   2   8 485.952 23.8309  73 
  -1   2  -8 464.765 23.6211  78 
   1   2   8 502.797 24.7587  83 
  -1   2  -8 479.641 24.4231  83 
   1   2   8 452.671 23.9700  77 
  -1   2  -8 478.507 23.9780  77 
   2  -2   8 82.6526 6.64446  34 
  -2  -2  -8 84.7121 5.66303  71 
  -2  -2  -8 75.7374 5.49223  45 
  -2  -2  -8 83.3681 6.12334  75 
  -2  -2  -8 82.6883 7.00732  79 
   2  -2   8 84.7531 7.37067  44 
   2  -2   8 79.1374 6.22775  71 
  -2  -2  -8 81.3578 6.86039  44 
   2  -2   8 80.6665 5.76314  38 
   2  -2   8 79.8939 6.74272  74 
   2  -2   8 81.9119 8.01132  79 
   2  -2   8 88.0269 5.92491  45 
  -2  -2  -8 84.0922 6.30386  48 
   2  -2   8 74.8116 6.40845  75 
   2  -2   8 75.1243 6.43661  48 
   2   2   8 84.4387 6.14435  73 
  -2   2  -8 83.5890 6.24139  77 
   2   2   8 83.3082 6.62724  77 
   2   2   8 79.9002 7.23670  83 
  -2   2  -8 68.9826 6.69210  83 
   3  -2   8 4.62190 3.52001  74 
   3  -2   8 7.40064 3.02191  71 
   3  -2   8 4.24576 3.64599  48 
   3  -2   8 5.27978 2.56304  45 
   3  -2   8 10.3760 3.51779  33 
   3  -2   8 6.73891 3.47074  75 
   3  -2   8 2.84090 4.08049  79 
  -3  -2  -8 3.94245 1.85620  45 
   3  -2   8 10.8457 4.06171  34 
  -3  -2  -8 6.06569 2.09579  71 
  -3  -2  -8 3.38887 2.34979  44 
  -3  -2  -8 8.30662 3.79767  79 
   3  -2   8 8.11025 2.99295  38 
  -3  -2  -8 3.91399 2.89588  48 
  -3  -2  -8 4.64877 2.79556  75 
  -3   2  -8 5.05283 2.84509  77 
   3   2   8 8.16809 3.37705  43 
   3   2   8 10.6558 3.81167  77 
   3   2   8 4.05757 3.36782  73 
   3   2   8 1.61391 3.12060  40 
  -3   2  -8 7.31042 3.95606  83 
   4  -2   8 325.102 20.9052  48 
  -4  -2  -8 306.861 17.9419  75 
  -4  -2  -8 331.695 18.9555  79 
   4  -2   8 386.227 18.5946  34 
  -4  -2  -8 345.343 17.6151  45 
   4  -2   8 359.862 18.0436  33 
   4  -2   8 356.590 17.8666  45 
   4  -2   8 349.716 17.7456  38 
  -4  -2  -8 348.991 17.7538  71 
   4  -2   8 371.492 18.5533  75 
   4  -2   8 361.957 18.1400  71 
  -4  -2  -8 273.497 18.6933   5 
   4  -2   8 332.369 19.3204  79 
   4  -2   8 347.722 18.5212  74 
  -4  -2  -8 340.037 18.3146  48 
   4  -2   8 362.553 17.6122  27 
  -4  -2  -8 310.011 17.4499  27 
   4  -2   8 300.680 18.7051  24 
   4   2   8 376.225 18.5075  40 
  -4   2  -8 276.928 17.3516   4 
   4   2   8 292.991 17.9920   3 
  -4   2  -8 357.997 17.6772  17 
  -4   2  -8 261.536 17.7457   3 
  -4   2  -8 313.349 17.5576  31 
  -4   2  -8 353.223 18.1074  77 
  -4   2  -8 257.034 18.1566   8 
  -4   2  -8 296.403 17.6291   2 
   4   2   8 342.399 18.2016  38 
   4   2   8 391.055 18.2139  31 
  -4   2  -8 368.643 18.7615  83 
   4   2   8 359.016 17.9328   4 
  -4   2  -8 263.679 18.0074   7 
   4   2   8 303.287 18.0620  77 
   4   2   8 373.731 18.9185  43 
   5  -2   8 240.055 13.7245  20 
   5  -2   8 245.419 13.7001  33 
   5  -2   8 237.996 13.0604  27 
   5  -2   8 240.543 14.1588  24 
  -5  -2  -8 253.621 13.1238  19 
   5  -2   8 216.421 13.1961  19 
   5  -2   8 275.886 14.1774  75 
   5  -2   8 243.100 15.1948  79 
  -5  -2  -8 230.092 14.4552  79 
  -5  -2  -8 259.058 13.7310   5 
   5  -2   8 235.470 13.8394  34 
   5  -2   8 224.103 13.3290  38 
   5  -2   8 221.996 13.2701  18 
  -5  -2  -8 221.428 13.3598  20 
  -5  -2  -8 230.707 13.5101  18 
  -5  -2  -8 238.519 12.8684  27 
  -5  -2  -8 223.556 13.5346  75 
   5   2   8 238.862 14.2699  43 
   5   2   8 237.910 13.9038  40 
   5   2   8 233.455 13.1240   4 
   5   2   8 218.039 13.6259  38 
  -5   2  -8 236.864 12.8047   3 
  -5   2  -8 240.986 12.7235  16 
   5   2   8 232.512 14.4777  15 
   5   2   8 241.860 13.1679  13 
  -5   2  -8 231.796 13.5201  77 
  -5   2  -8 254.189 14.1664  83 
  -5   2  -8 224.065 12.7896   4 
  -5   2  -8 242.215 12.5593  17 
  -5   2  -8 233.635 13.0013  31 
  -5   2  -8 245.299 14.0559   6 
   5   2   8 252.370 13.1208   3 
   5   2   8 230.367 13.8786   7 
   5   2   8 232.018 12.8283  16 
   5   2   8 254.381 13.3686  31 
  -5   2  -8 263.185 13.1686   2 
  -5   2  -8 253.772 13.1367   7 
   5   2   8 227.207 13.5530   2 
  -5   2  -8 233.947 13.1074   8 
  -5   2  -8 240.545 12.9570  13 
  -5   2  -8 250.274 13.2637  14 
  -6  -2  -8 168.714 10.1964  18 
  -6  -2  -8 195.693 9.99319  27 
   6  -2   8 193.704 10.2375  27 
   6  -2   8 158.234 12.2634  79 
   6  -2   8 187.287 10.5047  19 
  -6  -2  -8 166.996 11.6542  79 
  -6  -2  -8 164.064 10.5024  20 
   6  -2   8 187.124 11.1190  24 
   6  -2   8 188.691 10.5352  18 
   6  -2   8 151.752 10.7046  34 
   6  -2   8 199.397 10.8600  33 
   6  -2   8 188.484 10.9173  20 
  -6  -2  -8 178.243 10.2405  19 
  -6   2  -8 189.811 10.4953  14 
  -6   2  -8 183.078 9.66318  17 
   6   2   8 180.529 11.1305  40 
  -6   2  -8 198.463 11.2077   6 
  -6   2  -8 167.581 10.9984  83 
   6   2   8 189.918 11.3060  15 
  -6   2  -8 180.931 9.91130   3 
  -6   2  -8 194.108 10.3955   2 
   6   2   8 173.211 10.4602  31 
  -6   2  -8 173.532 10.1943   8 
  -6   2  -8 175.517 9.96976   4 
   6   2   8 177.210 10.3004  13 
   6   2   8 194.295 10.4523   4 
   6   2   8 177.105 10.0058  16 
   6   2   8 170.493 10.1505   3 
  -6   2  -8 186.828 10.1866   7 
  -6   2  -8 192.707 9.91528  13 
   6   2   8 176.939 11.0831   7 
   6   2   8 165.625 10.9505  38 
   6   2   8 177.692 11.3880  43 
  -6   2  -8 175.075 10.1478  31 
   6   2   8 174.524 10.1016   1 
   7  -2   8 24.1129 3.85918  19 
   7  -2   8 20.4883 4.07587  18 
  -7  -2  -8 16.8002 3.37789  18 
  -7  -2  -8 18.0758 3.53025  19 
  -7  -2  -8 26.4921 4.08227  20 
   7  -2   8 15.4760 3.83235  33 
   7  -2   8 28.6067 4.89029  20 
  -7   2  -8 20.9934 3.34998   2 
   7   2   8 17.9293 3.69122   4 
   7   2   8 22.1048 2.96519  16 
  -7   2  -8 23.5848 3.00143   3 
  -7   2  -8 20.0415 3.53033  31 
   7   2   8 27.5653 4.75386   7 
   7   2   8 17.8397 3.05147   1 
  -7   2  -8 29.0717 2.64031  17 
   7   2   8 16.8745 3.57079  13 
   7   2   8 22.7673 3.59545   3 
  -7   2  -8 29.0923 4.43248   6 
  -7   2  -8 22.4211 3.03992   1 
  -7   2  -8 19.2698 3.19737   4 
  -7   2  -8 18.8270 2.94570  13 
  -7   2  -8 21.9344 4.12260  25 
   7   2   8 26.3965 4.10611  31 
  -7   2  -8 24.4032 3.59811   7 
  -7   2  -8 21.5696 3.50949   8 
  -7   2  -8 24.3417 2.61631  16 
   7   2   8 22.5895 4.17305  15 
   9  -3  -8 11.5801 4.19342  33 
   9  -3  -8 9.68234 3.17164  27 
  -9  -3   8 14.7202 3.26655  19 
   9  -3  -8 8.36651 4.09361  24 
   9   3  -8 19.7179 3.83629  31 
   9   3  -8 13.7280 4.34440   7 
  -9   3   8 16.1315 3.38494   7 
  -9   3   8 30.1123 6.82194  15 
   9   3  -8 16.1283 2.08156  16 
  -9   3   8 9.73073 2.65895  28 
   9   3  -8 15.6622 2.37080   1 
   9   3  -8 15.4519 3.75941  23 
   9   3  -8 8.52828 2.33435  13 
  -9   3   8 12.1860 2.31075  22 
   9   3  -8 17.3862 3.60098  15 
  -9   3   8 15.8733 2.71575  30 
  -9   3   8 10.0365 2.53160  31 
   9   3  -8 13.2054 3.23669   3 
   9   3  -8 8.88911 2.66764  32 
  -9   3   8 7.63133 2.47289  14 
   9   3  -8 16.0475 3.54264   4 
   8  -3  -8 74.8241 6.54921  33 
  -8  -3   8 80.5335 6.72066  20 
  -8  -3   8 73.6974 5.54738  27 
   8  -3  -8 73.9531 5.81667  27 
   8  -3  -8 74.9089 7.10109  24 
  -8  -3   8 70.1320 5.80420  19 
  -8  -3   8 70.8584 5.90464  18 
  -8  -3   8 59.4195 6.32558  24 
   8   3  -8 70.5827 6.23301  39 
  -8   3   8 79.6583 5.45695  30 
   8   3  -8 73.3296 6.10761   4 
   8   3  -8 65.2434 6.16038  31 
   8   3  -8 75.6777 5.76090   3 
   8   3  -8 84.6820 6.85717  15 
   8   3  -8 77.6832 6.47905   7 
   8   3  -8 78.4289 5.12555  16 
  -8   3   8 79.1789 4.78038  22 
  -8   3   8 66.2481 5.08034  28 
  -8   3   8 70.5355 6.00710   7 
   8   3  -8 70.9825 5.55573  13 
  -8   3   8 73.9272 5.01008  35 
   8   3  -8 68.3504 6.40311  23 
   8   3  -8 64.9697 7.00914  32 
  -8   3   8 67.1782 5.93780  14 
  -8   3   8 75.5297 5.34552  31 
   8   3  -8 58.6328 6.49082  36 
  -8   3   8 68.0861 6.93951  29 
   8   3  -8 74.4205 5.09893   1 
  -7  -3   8 172.422 10.4694  20 
   7  -3  -8 161.169 10.0961  79 
   7  -3  -8 167.281 10.0091  33 
  -7  -3   8 170.989 9.54184  27 
  -7  -3   8 184.949 11.5589  19 
  -7   3   8 158.367 9.07931  31 
  -7   3   8 171.434 8.95338  29 
   7   3  -8 151.024 9.30034   3 
   7   3  -8 157.287 9.51584  77 
   7   3  -8 153.646 9.60602   4 
  -7   3   8 155.174 9.38215   7 
  -7   3   8 147.799 9.00797  30 
   7   3  -8 140.302 10.0331  23 
  -7   3   8 160.206 8.67767  22 
   7   3  -8 146.348 8.94277   1 
  -7   3   8 150.762 8.83089  77 
   7   3  -8 156.175 9.35823  13 
  -7   3   8 161.237 8.10290  32 
  -7   3   8 146.612 8.82774  28 
   7   3  -8 150.300 10.0566   7 
   7   3  -8 152.995 10.0450  39 
   7   3  -8 147.817 10.9190  15 
  -7   3   8 167.845 8.27043   3 
   7   3  -8 139.218 9.82140  83 
  -7   3   8 146.863 8.03913   1 
   7   3  -8 149.977 10.2325  41 
   7   3  -8 145.453 8.92863  16 
   7   3  -8 161.334 9.76508  31 
   7   3  -8 158.395 10.8092  36 
   6  -3  -8 154.825 9.52667  27 
  -6  -3   8 145.385 9.57196  75 
   6  -3  -8 142.325 10.0861  79 
   6  -3  -8 164.269 9.24659  75 
   6  -3  -8 169.849 12.0592  44 
  -6  -3   8 149.236 9.36516  27 
  -6   3   8 141.697 9.35163   7 
   6   3  -8 154.755 8.98058  16 
  -6   3   8 160.959 8.92012  30 
   6   3  -8 155.430 9.86692  39 
  -6   3   8 152.387 8.15484   3 
   6   3  -8 151.644 8.83260   1 
   6   3  -8 146.503 9.49625  77 
  -6   3   8 146.680 8.69088  28 
  -6   3   8 143.054 8.37746  77 
   6   3  -8 151.077 9.54636  31 
   6   3  -8 158.366 9.84452   7 
   6   3  -8 152.300 9.88172  83 
  -6   3   8 146.846 8.87228  31 
  -6   3   8 153.923 8.68248  29 
   6   3  -8 135.087 9.04403  28 
  -6   3   8 146.307 7.87434   1 
   6   3  -8 161.927 10.3316  41 
   6   3  -8 148.133 9.51943   4 
  -6   3   8 149.319 8.46434  22 
   6   3  -8 148.598 10.6588  42 
   6   3  -8 149.652 9.38908  13 
   6   3  -8 150.646 9.32003   3 
  -6   3   8 150.878 8.08858  32 
   6   3  -8 154.899 10.9330  36 
   5  -3  -8 426.996 21.9721  79 
  -5  -3   8 348.629 21.8079  48 
   5  -3  -8 427.979 21.9382  48 
  -5  -3   8 405.693 21.5477  75 
  -5  -3   8 381.677 21.1319  45 
   5  -3  -8 433.957 20.8956  71 
  -5  -3   8 397.463 22.5564  44 
  -5  -3   8 443.729 21.2457  71 
   5  -3  -8 436.422 22.8229  44 
   5  -3  -8 388.258 21.0915  75 
   5   3  -8 407.405 21.1462  77 
   5   3  -8 410.371 22.5209  36 
   5   3  -8 398.501 21.8116  41 
   5   3  -8 397.192 22.4006  42 
   5   3  -8 381.142 21.5430  83 
  -5   3   8 378.341 20.5064  77 
   5   3  -8 423.507 21.5687  39 
  -4  -3   8 110.928 7.80381  75 
   4  -3  -8 123.690 7.75119  75 
  -4  -3   8 120.089 7.45249  71 
  -4  -3   8 102.492 8.34874  48 
  -4  -3   8 114.528 9.10038  44 
   4  -3  -8 127.438 7.32158  46 
   4  -3  -8 122.000 7.25959  71 
   4  -3  -8 120.807 8.59239  79 
   4  -3  -8 118.053 9.38681  44 
   4  -3  -8 120.807 8.30529  48 
  -4  -3   8 117.210 7.65245  45 
  -4   3   8 120.260 6.97626  77 
   4   3  -8 117.289 9.36016  36 
   4   3  -8 114.127 8.11174  39 
   4   3  -8 113.970 8.71404  42 
  -4   3   8 118.582 8.11881  37 
   4   3  -8 142.999 9.05604  41 
   4   3  -8 103.071 7.72403  77 
   4   3  -8 121.819 10.3287  82 
   4   3  -8 116.762 8.49346  83 
  -3  -3   8 190.764 10.4827  49 
   3  -3  -8 186.706 11.2106  48 
   3  -3  -8 185.863 10.3077  46 
   3  -3  -8 193.281 10.3976  71 
   3  -3  -8 195.692 11.7524  79 
   3  -3  -8 174.844 11.8903  44 
  -3  -3   8 181.143 10.5781  45 
  -3  -3   8 194.830 11.5016  48 
  -3  -3   8 185.190 12.0983  44 
  -3  -3   8 195.985 10.6757  71 
  -3  -3   8 189.136 11.1891  74 
   3  -3  -8 196.970 11.1944  75 
   3   3  -8 156.601 11.7597  36 
  -3   3   8 180.248 11.1120  37 
   3   3  -8 193.257 11.8820  42 
  -3   3   8 185.997 10.1214  77 
   3   3  -8 216.441 10.7366  77 
   3   3  -8 182.214 11.3320  41 
   3   3  -8 183.605 13.4366  82 
   3   3  -8 181.340 11.1116  83 
   2  -3  -8 148.338 8.35782  71 
  -2  -3   8 140.798 10.0055  44 
  -2  -3   8 141.518 8.49103  45 
   2  -3  -8 148.572 9.83033  44 
   2  -3  -8 141.898 8.22274  46 
   2  -3  -8 129.721 10.2493  75 
   2  -3  -8 157.963 9.18233  48 
  -2  -3   8 151.373 8.62757  71 
   2  -3  -8 146.615 8.32263  70 
  -2  -3   8 141.549 8.38791  49 
  -2  -3   8 139.783 8.95308  74 
  -2  -3   8 138.749 9.32592  48 
   2  -3  -8 144.509 12.0809  79 
  -2   3   8 145.100 9.20854  37 
   2   3  -8 155.277 12.6038  82 
   2   3  -8 142.922 8.63915  77 
   2   3  -8 152.247 9.86691  41 
   2   3  -8 138.781 9.18025  83 
  -2   3   8 146.446 8.08294  77 
   2   3  -8 139.713 10.1181  36 
   2   3  -8 142.256 9.74242  42 
  -1  -3   8 125.209 9.04653  44 
  -1  -3   8 120.054 7.53679  45 
   1  -3  -8 132.540 7.28582  46 
   1  -3  -8 129.651 8.46061  79 
  -1  -3   8 121.306 8.15638  74 
  -1  -3   8 130.152 8.35663  48 
   1  -3  -8 137.492 7.67167  75 
   1  -3  -8 111.945 7.54138  70 
   1  -3  -8 118.174 7.96661  48 
   1  -3  -8 135.368 8.92637  44 
  -1  -3   8 121.173 7.41090  49 
   1  -3  -8 137.750 7.47984  71 
   1   3  -8 106.652 10.8018  82 
   1   3  -8 128.330 7.77989  77 
   1   3  -8 118.820 8.69261  42 
  -1   3   8 119.987 7.23061  77 
   1   3  -8 123.048 8.13951  83 
  -1   3   8 119.091 8.05602  37 
   0  -3   8 92.6295 6.74467  48 
   0  -3  -8 83.3148 6.23868  48 
   0  -3  -8 86.8195 6.87924  79 
   0  -3   8 81.4102 5.81399  49 
   0  -3  -8 89.6546 6.03657  75 
   0  -3   8 93.6489 6.75149  74 
   0  -3   8 93.0669 6.90985  75 
   0  -3   8 91.3723 6.63500  38 
   0  -3  -8 88.0271 5.63795  46 
   0  -3   8 90.4508 8.43522  79 
   0  -3   8 94.1676 6.03881  45 
   0  -3  -8 87.4182 7.00417  44 
   0  -3   8 89.1100 7.48941  44 
   0  -3  -8 89.0438 5.83736  71 
   0   3  -8 88.5088 6.68713  83 
   0   3  -8 98.2268 6.15867  77 
   0   3   8 87.1891 5.72065  77 
   0   3   8 92.7665 6.52034  37 
   0   3  -8 99.3670 7.29414  42 
   0   3  -8 77.9493 10.1785  82 
  -1  -3  -8 191.162 11.7174  44 
   1  -3   8 195.681 12.0384  44 
  -1  -3  -8 183.631 10.2630  45 
   1  -3   8 191.156 10.9053  38 
  -1  -3  -8 184.160 10.6810  75 
   1  -3   8 184.745 11.3289  74 
  -1  -3  -8 165.599 10.8639  48 
   1  -3   8 203.235 11.4413  75 
   1  -3   8 183.026 11.3000  48 
  -1  -3  -8 201.114 11.4839  79 
  -1  -3  -8 193.302 10.4050  71 
   1  -3   8 191.744 12.4852  79 
   1  -3   8 168.431 10.4202  45 
  -1   3  -8 186.204 11.0737  83 
  -1   3  -8 204.007 10.6696  77 
   1   3   8 176.885 10.9238  37 
   1   3   8 192.542 10.4223  77 
  -1   3  -8 181.549 11.2917  42 
   2  -3   8 296.626 16.1430  45 
   2  -3   8 321.751 16.3348  38 
  -2  -3  -8 297.021 17.0317  79 
   2  -3   8 312.561 16.7969  34 
  -2  -3  -8 273.725 15.9664  71 
   2  -3   8 306.229 16.9614  33 
  -2  -3  -8 326.748 16.0515  45 
   2  -3   8 275.170 16.7567  48 
  -2  -3  -8 332.467 16.8348  48 
   2  -3   8 315.294 17.0094  74 
  -2  -3  -8 295.595 16.3584  75 
   2  -3   8 303.119 16.3815  71 
   2  -3   8 311.628 16.8744  75 
   2  -3   8 298.457 17.5432  44 
   2  -3   8 301.293 17.9028  79 
  -2  -3  -8 306.178 17.3704  44 
   2   3   8 316.824 16.1882  77 
  -2   3  -8 298.852 16.2097  77 
  -2   3  -8 302.167 16.5830  83 
  -3  -3  -8 376.844 20.7760  44 
   3  -3   8 410.260 21.4469  79 
   3  -3   8 372.351 20.3665  74 
   3  -3   8 373.337 20.9009  44 
   3  -3   8 347.264 19.3209  27 
   3  -3   8 370.660 20.1271  75 
  -3  -3  -8 356.582 19.2722  27 
   3  -3   8 400.990 20.2252  34 
  -3  -3  -8 341.342 20.3715  79 
  -3  -3  -8 372.447 19.7983  75 
   3  -3   8 404.005 19.6059  38 
   3  -3   8 379.202 19.8291  33 
   3   3   8 388.309 19.3967  30 
  -3   3  -8 361.832 19.3314  30 
  -3   3  -8 397.203 19.0557  28 
  -3   3  -8 391.915 19.0884   3 
   3   3   8 392.565 18.8522   1 
  -3   3  -8 351.861 18.8995  13 
   3   3   8 371.141 18.5386  16 
   3   3   8 367.800 19.2589  31 
  -3   3  -8 386.252 19.2953  31 
  -3   3  -8 360.161 18.9830  32 
  -3   3  -8 363.094 19.2588   7 
  -3   3  -8 363.471 19.1018   4 
  -3   3  -8 358.993 20.1823   6 
   3   3   8 364.579 19.0141   3 
   3   3   8 310.854 19.0818  29 
   3   3   8 401.581 18.9282  32 
  -3   3  -8 363.703 19.2790   2 
  -3   3  -8 353.877 19.5064  14 
   3   3   8 369.034 20.6109  43 
  -3   3  -8 393.951 19.6714   8 
  -3   3  -8 406.112 18.8466  16 
  -3   3  -8 356.866 18.9370   1 
  -3   3  -8 384.780 19.0450  17 
  -3   3  -8 358.656 19.4538  77 
   3   3   8 362.341 19.2008  28 
  -3   3  -8 381.554 19.8769  83 
   3   3   8 369.860 19.6889   7 
   3   3   8 363.584 19.5167  77 
   4  -3   8 182.863 10.8450  34 
   4  -3   8 192.996 12.3202  79 
  -4  -3  -8 183.541 11.4275  79 
  -4  -3  -8 147.905 10.4933  75 
  -4  -3  -8 159.210 11.4400  44 
   4  -3   8 172.546 10.8807  75 
   4  -3   8 182.393 10.1566  27 
  -4  -3  -8 194.279 10.1307  27 
   4  -3   8 179.713 11.5627  24 
   4  -3   8 182.021 10.7495  33 
   4   3   8 172.483 9.10203  16 
   4   3   8 167.828 10.2177  77 
  -4   3  -8 164.385 9.18104  16 
  -4   3  -8 173.746 10.3130   8 
  -4   3  -8 173.535 9.70518  28 
  -4   3  -8 175.765 9.49858   1 
  -4   3  -8 168.609 9.94196  30 
   4   3   8 176.318 9.46909  32 
  -4   3  -8 182.563 9.98224   7 
  -4   3  -8 165.716 10.1253  14 
  -4   3  -8 146.209 12.5225  83 
  -4   3  -8 184.093 10.0349   2 
   4   3   8 164.044 10.0678   4 
  -4   3  -8 179.448 11.0885   6 
   4   3   8 185.111 10.4025   2 
   4   3   8 166.888 11.0823  40 
  -4   3  -8 163.191 10.0347  77 
  -4   3  -8 174.817 9.56796   3 
  -4   3  -8 172.724 9.60435  17 
   4   3   8 176.826 9.42650   1 
   4   3   8 173.724 10.1434  30 
   4   3   8 185.678 10.0887  31 
  -4   3  -8 182.273 9.88914  31 
  -4   3  -8 169.656 9.55220  32 
   4   3   8 173.272 11.5250  43 
  -4   3  -8 190.826 9.72702   4 
   4   3   8 194.148 11.0083   7 
   4   3   8 176.580 9.93130  28 
   4   3   8 174.760 9.66088   3 
  -5  -3  -8 79.9947 7.21875  79 
   5  -3   8 95.6554 8.36453  79 
   5  -3   8 87.6012 6.32566  27 
  -5  -3  -8 94.5657 6.02049  27 
   5  -3   8 96.9503 7.67241  24 
   5  -3   8 85.4386 7.05075  33 
   5  -3   8 86.3544 6.76265  34 
  -5   3  -8 80.9958 5.39710   1 
   5   3   8 87.6517 6.22390  30 
  -5   3  -8 84.9996 6.67740  14 
  -5   3  -8 91.9662 6.02821  31 
   5   3   8 82.1390 7.54046  40 
  -5   3  -8 90.9841 5.61728  28 
  -5   3  -8 91.6176 5.77845   4 
   5   3   8 97.8797 5.75857   3 
   5   3   8 89.2652 6.18989   4 
  -5   3  -8 94.7172 5.66903  17 
  -5   3  -8 92.2824 4.96008  16 
  -5   3  -8 97.2071 5.61175   3 
   5   3   8 80.4250 6.49364  31 
   5   3   8 93.2229 5.38181   1 
  -5   3  -8 83.2804 5.91144  30 
   5   3   8 88.1636 6.14524  28 
  -5   3  -8 94.2112 6.72048   8 
   5   3   8 98.4449 7.24195   7 
  -5   3  -8 93.6534 5.54677  32 
  -5   3  -8 94.1858 7.24495   6 
   5   3   8 92.4829 5.54655  32 
   5   3   8 98.1440 8.10527  43 
  -5   3  -8 89.7413 5.97062   2 
  -5   3  -8 94.1003 6.12650   7 
  -5   3  -8 89.1396 7.03460  25 
   6  -3   8 152.554 8.88653  27 
   6  -3   8 163.648 9.82854  24 
  -6  -3  -8 164.771 8.77209  27 
   6  -3   8 164.464 9.30320  19 
   6  -3   8 159.566 9.47086  20 
   6  -3   8 152.689 9.29026  33 
  -6   3  -8 148.156 8.53398   4 
   6   3   8 164.568 8.31419  32 
   6   3   8 147.848 8.77691   4 
   6   3   8 174.055 9.32354   7 
  -6   3  -8 167.124 8.48929  17 
   6   3   8 160.358 8.15513   1 
  -6   3  -8 169.782 9.34892  25 
  -6   3  -8 155.394 8.75594  30 
  -6   3  -8 146.363 8.72573   2 
  -6   3  -8 145.560 8.79203   7 
   6   3   8 159.846 9.04301  30 
   6   3   8 148.611 10.1515  15 
  -6   3  -8 161.371 9.65482   6 
   6   3   8 160.431 8.39616   3 
  -6   3  -8 160.321 8.29914  32 
  -6   3  -8 155.516 8.89576  28 
  -6   3  -8 164.050 8.38328   3 
  -6   3  -8 161.004 9.24606  14 
  -6   3  -8 167.055 9.11192   8 
   6   3   8 144.313 8.78605  28 
   6   3   8 176.510 9.17083  31 
  -6   3  -8 150.297 8.80305  31 
  -6   3  -8 158.239 8.24194   1 
  -7  -3  -8 2.63288 1.32752  27 
   7  -3   8 7.79402 2.30832  27 
   7  -3   8 6.31914 1.83539  19 
  -7  -3  -8 8.57156 2.97232  20 
   7  -3   8 4.28950 1.92406  24 
  -7  -3  -8 9.86743 2.52327  18 
  -7  -3  -8 2.43668 1.39225  19 
   7  -3   8 7.13126 2.10545  20 
   7  -3   8 5.53542 1.83144  18 
   7   3   8 1.65320 1.83736   7 
  -7   3  -8 3.72419 1.34997   7 
   7   3   8 3.94429 1.66232  30 
  -7   3  -8 6.54698 2.45147   2 
  -7   3  -8 5.77379 2.18817  25 
  -7   3  -8 1.98149 1.31650  31 
  -7   3  -8 6.11806 1.63898  14 
  -7   3  -8 4.29023 1.99471   6 
  -7   3  -8 3.67570 1.40340  30 
  -7   3  -8 8.02757 1.84951  17 
   7   3   8 5.53571 1.73181  31 
   7   3   8 2.77523 1.73531  15 
  -7   3  -8 4.52350 1.93852   8 
  -8  -4   8 46.0660 3.78281  27 
  -8  -4   8 46.8562 4.81446  24 
   8  -4  -8 46.9179 4.09107  27 
  -8   4   8 46.1219 3.31315  28 
   8   4  -8 48.0812 4.40333  30 
  -8   4   8 50.7381 3.44843  29 
  -8   4   8 47.4446 3.42099  22 
   8   4  -8 40.5208 4.22683   7 
   8   4  -8 44.4984 4.15606  31 
   8   4  -8 47.1951 4.36324  23 
   8   4  -8 43.3570 4.84631  15 
   8   4  -8 50.6525 3.86740  28 
   7  -4  -8 40.2507 4.31627  27 
  -7  -4   8 38.4421 4.54509  27 
  -7  -4   8 47.2920 5.66652  24 
   7   4  -8 37.6096 2.48130  32 
  -7   4   8 44.1825 3.36976  28 
   7   4  -8 36.9613 4.84150   7 
   7   4  -8 39.7019 4.89325  23 
   7   4  -8 36.8140 4.60393  31 
   7   4  -8 27.8677 5.89485  15 
  -7   4   8 39.3753 3.57579  22 
   7   4  -8 46.2676 4.80120  39 
   7   4  -8 36.7644 5.48686  36 
  -7   4   8 40.1607 2.73852  30 
   7   4  -8 43.8103 4.68167  30 
   7   4  -8 35.9123 4.19256  28 
  -7   4   8 41.7671 3.62644  29 
  -6  -4   8 4.59199 2.42003  27 
   6   4  -8 4.76357 3.02080   7 
  -6   4   8 7.13560 2.13288  22 
   6   4  -8 6.91585 2.81286  31 
   6   4  -8 6.41395 2.89352  30 
  -6   4   8 8.60389 1.95993  28 
   6   4  -8 6.47228 1.79749  32 
  -6   4   8 9.81926 2.12910  30 
   6   4  -8 9.01246 2.05182   1 
   6   4  -8 8.20896 3.90323  42 
   6   4  -8 10.4750 5.45804  23 
  -6   4   8 2.77297 1.81183  29 
   6   4  -8 4.65884 2.93990  39 
   6   4  -8 7.81200 3.51468  36 
   6   4  -8 12.1729 2.78980  28 
  -5  -4   8 19.5409 4.61423  27 
   5   4  -8 23.6491 4.77181  30 
   5   4  -8 19.3201 4.94213  42 
   5   4  -8 14.9850 4.06311  28 
   5   4  -8 20.1457 5.05361  39 
  -5   4   8 15.4350 3.12686  28 
   5   4  -8 17.9808 3.45574   7 
   5   4  -8 21.1315 4.67611  31 
   5   4  -8 19.3556 3.06753  32 
   5   4  -8 20.5964 6.11630  36 
  -5   4   8 18.8624 2.53668  30 
   5   4  -8 33.5313 9.55817  41 
  -5   4   8 23.8052 3.09950  29 
  -5   4   8 22.9076 3.50726  22 
   5   4  -8 24.3876 2.55553   1 
   5   4  -8 21.6061 4.22013  29 
   5   4  -8 20.3560 3.45649  77 
  -4  -4   8 122.632 10.2226  44 
   4  -4  -8 155.333 10.5397  44 
  -4  -4   8 143.970 9.24415  27 
  -4  -4   8 148.883 9.36602  75 
  -4   4   8 152.811 8.35507  29 
   4   4  -8 149.568 10.0250  41 
   4   4  -8 153.344 9.16150  31 
   4   4  -8 150.011 8.75893  28 
   4   4  -8 158.297 9.63968  39 
   4   4  -8 143.669 8.52272  77 
   4   4  -8 150.085 8.11096  32 
  -4   4   8 157.836 8.57624  22 
   4   4  -8 149.172 8.24148   3 
   4   4  -8 157.322 10.9331  36 
   4   4  -8 138.759 10.3022  42 
  -4   4   8 158.090 8.44979  28 
  -4   4   8 151.282 8.13177  30 
   4   4  -8 151.890 7.96412   1 
   4   4  -8 158.674 8.79915  29 
   4   4  -8 146.650 9.40205   7 
   4   4  -8 149.091 9.19271  30 
   4   4  -8 163.567 12.5017  82 
  -3  -4   8 277.271 16.6188  44 
   3  -4  -8 290.567 16.3166  44 
  -3  -4   8 286.290 15.4487  75 
  -3  -4   8 229.868 16.9288  27 
   3   4  -8 272.355 14.8347  29 
   3   4  -8 293.515 17.9262  82 
   3   4  -8 280.855 16.2160  42 
  -3   4   8 270.615 14.7669  22 
   3   4  -8 298.179 15.3509   7 
   3   4  -8 292.864 14.4581   3 
   3   4  -8 293.875 14.2372   1 
  -3   4   8 276.220 15.5905  37 
  -3   4   8 285.481 14.4134  30 
   3   4  -8 278.315 16.3835  36 
  -3   4   8 273.792 14.4817  29 
   3   4  -8 280.363 14.9791  30 
   3   4  -8 287.393 14.8557  28 
   3   4  -8 299.220 14.3364  32 
   3   4  -8 255.744 14.5977  77 
   3   4  -8 302.881 15.0664  31 
  -3   4   8 281.343 14.6775  28 
   3   4  -8 290.670 15.6671  39 
  -3   4   8 290.319 14.7476  80 
   2  -4  -8 11.7528 4.21886  44 
  -2  -4   8 1.71319 2.35458  44 
   2   4  -8 -1.3743 6.54691  82 
  -2   4   8 2.38312 3.61164  37 
  -2   4   8 2.55421 2.00515  80 
   2   4  -8 5.35245 4.14806  42 
   2   4  -8 -0.2324 2.32730  31 
  -2   4   8 4.76699 3.91597  21 
   2   4  -8 1.10095 2.61831   7 
   2   4  -8 4.77114 3.46912  36 
   2   4  -8 2.64109 1.34147   1 
   2   4  -8 1.75310 1.55949  32 
   2   4  -8 5.76639 1.69413   3 
   2   4  -8 2.51706 2.12322  77 
   2   4  -8 5.37746 2.42942  29 
  -2   4   8 1.92583 1.46321  30 
  -2   4   8 1.34892 1.39775  29 
  -2   4   8 4.75262 1.84100  28 
   2   4  -8 2.15926 2.06326  28 
   2   4  -8 1.53304 2.30815  30 
   1  -4  -8 324.389 17.3388  44 
  -1  -4   8 301.881 17.6891  44 
   1  -4  -8 348.755 17.4847  48 
   1   4  -8 297.597 15.3549   1 
  -1   4   8 295.559 15.8576  28 
  -1   4   8 326.366 17.8165  21 
   1   4  -8 302.888 16.1311  31 
   1   4  -8 340.364 17.6861  42 
   1   4  -8 305.279 16.1451  30 
   1   4  -8 309.068 15.9676  28 
   1   4  -8 309.034 15.7348  77 
   1   4  -8 308.615 15.4806  32 
   1   4  -8 296.195 15.5725   3 
  -1   4   8 304.834 15.6821  30 
   1   4  -8 298.020 19.3804  82 
  -1   4   8 316.853 16.4444  80 
   1   4  -8 288.932 16.2430   7 
  -1   4   8 315.325 16.8192  37 
   1   4  -8 299.909 16.0136  29 
  -1   4   8 314.019 15.8332  29 
   0  -4   8 134.417 8.18744  38 
   0  -4   8 132.118 9.31132  44 
   0  -4   8 124.787 8.54870  74 
   0  -4  -8 127.344 8.72332  44 
   0   4  -8 134.023 7.52858  29 
   0   4  -8 137.759 9.24274  42 
   0   4   8 122.026 8.39914  37 
   0   4  -8 127.293 6.81081  32 
   0   4  -8 128.448 7.80937  31 
   0   4   8 125.881 7.21668  30 
   0   4   8 125.086 9.97964  21 
   0   4  -8 135.691 7.52077  28 
   0   4  -8 133.088 11.6683  82 
   0   4  -8 130.313 7.70791  30 
   0   4  -8 131.193 6.97994   3 
   0   4  -8 136.442 8.02581   7 
   0   4   8 122.435 7.21980  29 
   0   4  -8 125.004 6.63450   1 
   0   4   8 128.997 7.47308  28 
   0   4  -8 131.115 7.12961  77 
   1  -4   8 31.2768 5.43992  74 
   1  -4   8 49.6740 4.55789  38 
  -1  -4  -8 44.2410 5.29380  44 
   1  -4   8 49.4397 5.87774  44 
   1   4   8 51.1884 4.17067  28 
   1   4   8 51.5418 3.92688  29 
  -1   4  -8 44.5124 3.43040  77 
  -1   4  -8 51.3782 4.24334  31 
  -1   4  -8 55.5502 3.99933  29 
  -1   4  -8 45.7189 4.32819   3 
   1   4   8 49.8537 7.25879  21 
  -1   4  -8 51.2194 4.36983  30 
   1   4   8 49.0488 3.96909  30 
  -1   4  -8 49.9281 4.65892   7 
  -1   4  -8 52.3114 4.15337  28 
  -1   4  -8 51.7976 3.16072  32 
   1   4   8 58.5364 5.54244  37 
  -1   4  -8 46.1101 5.72275  42 
   2  -4   8 106.880 8.56030  79 
   2  -4   8 93.6469 6.42554  27 
   2  -4   8 70.9407 8.83416  75 
   2  -4   8 109.199 8.09532  44 
   2  -4   8 102.755 7.17350  34 
  -2  -4  -8 94.2798 7.52218  44 
  -2   4  -8 95.0348 7.03736  14 
   2   4   8 98.2151 6.13993  28 
  -2   4  -8 102.330 6.00801  29 
  -2   4  -8 98.9350 6.12542  30 
  -2   4  -8 120.132 7.74964  42 
   2   4   8 84.7668 6.32561  31 
  -2   4  -8 96.6180 6.00214  31 
   2   4   8 91.7043 8.44202  21 
  -2   4  -8 100.704 5.90600  35 
  -2   4  -8 93.8599 6.27672   7 
   2   4   8 105.502 7.06234  37 
   2   4   8 94.8193 6.02364  30 
   2   4   8 95.3764 6.01622  29 
  -2   4  -8 89.7208 4.94306  32 
  -2   4  -8 95.3048 5.88388  28 
  -2   4  -8 87.9669 5.93286  77 
   3  -4   8 11.3694 4.36883  79 
   3  -4   8 8.88312 3.38258  34 
   3  -4   8 11.9290 4.36997  33 
   3  -4   8 12.7917 3.35117  27 
  -3   4  -8 19.0477 3.10071  31 
   3   4   8 14.3082 3.15589  30 
  -3   4  -8 13.0090 3.51875   7 
  -3   4  -8 11.5606 2.84755  14 
  -3   4  -8 13.3681 3.01082  30 
   3   4   8 16.0784 5.33381  43 
   3   4   8 12.6023 3.20247  28 
  -3   4  -8 13.0557 3.24292   8 
   3   4   8 15.1769 4.32343   7 
  -3   4  -8 11.9226 2.66761  35 
  -3   4  -8 9.82810 2.72759  29 
  -3   4  -8 7.87234 3.23656  42 
   3   4   8 8.69803 2.32525  29 
   3   4   8 9.03511 2.22054  31 
   4  -4   8 136.474 9.89525  24 
   4  -4   8 137.502 8.57178  33 
   4  -4   8 145.625 8.12989  27 
  -4  -4  -8 136.987 8.00511  27 
  -4   4  -8 143.335 7.42543  35 
  -4   4  -8 139.391 7.80134  28 
   4   4   8 137.670 8.07318  28 
  -4   4  -8 138.198 7.73678  17 
   4   4   8 145.976 8.36704   7 
  -4   4  -8 117.582 8.13043  35 
  -4   4  -8 150.771 7.77526  30 
  -4   4  -8 142.643 7.68270  31 
  -4   4  -8 122.367 8.61112  25 
  -4   4  -8 135.924 7.91546   7 
   4   4   8 150.096 7.81026  30 
  -4   4  -8 135.756 8.51838   8 
  -4   4  -8 145.358 8.59247  14 
   4   4   8 145.367 7.80703  31 
  -4   4  -8 130.574 7.69074  29 
   4   4   8 135.325 7.83674  29 
   5  -4   8 102.846 6.37312  27 
   5  -4   8 112.801 6.74319  33 
  -5  -4  -8 105.189 6.10629  27 
   5  -4   8 110.851 7.39505  24 
  -5   4  -8 100.415 5.85449  17 
  -5   4  -8 97.6236 6.39211   8 
  -5   4  -8 92.1829 6.63240  25 
   5   4   8 99.9261 5.89813  30 
  -5   4  -8 97.7157 5.83134  30 
   5   4   8 115.731 6.20788  28 
  -5   4  -8 104.039 5.87007  29 
  -5   4  -8 93.5833 6.40444  14 
  -5   4  -8 92.1713 5.89166   7 
   5   4   8 101.996 6.37358   7 
  -5   4  -8 89.1607 6.69927   6 
   5   4   8 94.7513 5.90973  31 
  -5   4  -8 115.249 5.92969  28 
   5   4   8 105.143 6.05311  29 
  -5   4  -8 105.922 5.83519  31 
   6  -4   8 203.528 10.4575  27 
  -6  -4  -8 205.817 10.4714  27 
   6  -4   8 205.380 11.1190  24 
   6   4   8 202.706 10.6081   7 
  -6   4  -8 204.537 10.1863  30 
   6   4   8 198.168 10.1922  30 
   6   4   8 218.952 10.4946  28 
  -6   4  -8 186.093 10.5603  25 
  -6   4  -8 201.059 10.4262   7 
  -6   4  -8 174.108 10.8588   6 
  -6   4  -8 206.074 10.5054   8 
   6   4   8 217.141 11.4182  15 
  -6   4  -8 215.336 10.2976  17 
  -6   4  -8 204.983 10.5424  14 
  -6   4  -8 187.383 10.2503  28 
  -6  -5   8 1.32747 1.49367  27 
  -6  -5   8 3.74217 2.66316  24 
  -6   5   8 0.82118 0.98684  29 
   6   5  -8 3.06532 1.88856  17 
   6   5  -8 2.61243 1.56087  28 
   6   5  -8 0.94099 1.68225  29 
   6   5  -8 3.92233 2.84352   7 
  -6   5   8 2.79206 1.09127  11 
  -6   5   8 1.61713 1.31923  28 
  -6   5   8 1.51227 1.10130  26 
   6   5  -8 0.64501 2.32961  23 
   6   5  -8 0.84898 1.11039  30 
  -5  -5   8 11.3128 3.41916  27 
   5   5  -8 11.1164 2.79127  28 
  -5   5   8 9.22550 1.81587  11 
  -5   5   8 9.14876 1.81987  29 
   5   5  -8 7.57359 2.27363  30 
   5   5  -8 8.10095 2.11938  29 
  -5   5   8 12.8803 1.91712  26 
   5   5  -8 4.94749 2.91884  36 
   5   5  -8 12.8891 4.41547  39 
  -4  -5   8 90.4185 5.97226  27 
   4   5  -8 72.4461 6.49377  39 
  -4   5   8 84.8797 4.75227  11 
   4   5  -8 86.4399 5.44170  28 
   4   5  -8 84.8400 7.36295  36 
  -4   5   8 85.2986 4.84183  29 
   4   5  -8 85.3347 9.51586  82 
   4   5  -8 94.9598 5.57981  29 
  -4   5   8 83.9134 4.84588  26 
   4   5  -8 79.0964 4.96637  30 
  -3   5   8 24.8839 2.45661  29 
  -3   5   8 25.9225 2.24461  11 
   3   5  -8 24.4829 3.18361  28 
   3   5  -8 29.1415 2.67294  30 
  -3   5   8 20.3323 4.24028  37 
   3   5  -8 27.6033 5.51906  36 
   3   5  -8 24.1288 3.28441  29 
   3   5  -8 27.9319 4.53674  39 
   3   5  -8 5.96753 5.78356  82 
  -3   5   8 28.7604 2.38620  26 
  -2   5   8 15.3284 2.22727  29 
  -2   5   8 18.8558 5.34363  21 
  -2   5   8 20.1315 1.80503  80 
  -2   5   8 17.5608 1.97332  11 
   2   5  -8 27.6074 7.76587  39 
   2   5  -8 22.1132 6.76834  82 
   2   5  -8 13.3014 4.06890  42 
   2   5  -8 24.8219 3.05943  28 
   2   5  -8 18.7404 3.03698  29 
  -2   5   8 22.0897 2.22583  26 
  -2   5   8 14.6729 3.79833  37 
   2   5  -8 18.6519 2.43717  30 
   2   5  -8 14.5074 5.23905  36 
  -1  -5   8 2.71977 2.65830  38 
  -1   5   8 4.96028 1.43904  80 
  -1   5   8 1.63003 3.59893  21 
  -1   5   8 5.92211 1.67115  11 
   1   5  -8 2.93082 1.29248  30 
   1   5  -8 0.22499 2.84927  36 
  -1   5   8 3.06187 3.37991  37 
  -1   5   8 3.94474 1.32661  29 
   1   5  -8 2.68688 3.23119  42 
   1   5  -8 4.76211 1.74984  28 
   1   5  -8 5.09173 1.80911  29 
   1   5  -8 -0.2692 5.92240  82 
  -1   5   8 4.38481 1.26366  26 
   0   5  -8 79.0998 4.81086  28 
   0   5   8 74.5761 4.39957  11 
   0   5   8 85.2388 4.64579  29 
   0   5   8 69.7123 7.45646  21 
   0   5  -8 57.2864 8.24736  42 
   0   5  -8 79.6636 4.31580  30 
   0   5   8 65.4288 5.08041  80 
   0   5   8 78.7961 6.27522  37 
   1   5   8 27.5459 2.79324  29 
   1   5   8 25.5922 2.83739  28 
   1   5   8 28.0153 4.25800  37 
   1   5   8 29.2126 2.36146  11 
  -1   5  -8 26.8883 2.91993  29 
   1   5   8 28.4733 5.75470  21 
  -1   5  -8 24.7074 2.70888  28 
   2   5   8 32.9434 5.42546  21 
   2   5   8 25.9509 2.84830  29 
   2   5   8 21.9355 2.80074  28 
   2   5   8 27.2033 2.38479  11 
   2   5   8 25.1534 3.81681  37 
  -2   5  -8 25.1951 2.76742  29 
   3  -5   8 2.70151 1.42883  27 
   3   5   8 3.93861 1.62695  28 
  -3   5  -8 4.02079 1.38627  29 
   3   5   8 2.70739 1.40947  29 
  -3   5  -8 1.42755 1.36329  28 
   3   5   8 5.02568 1.54727  11 
  -3   5  -8 3.82953 2.28579   8 
  -4  -5  -8 21.7450 2.51427  27 
   4  -5   8 21.2172 2.75482  27 
  -4   5  -8 21.4011 3.23029   8 
   4   5   8 25.9162 2.48518  29 
   4   5   8 21.8536 2.42725  28 
   4   5   8 23.9466 2.22471  11 
  -4   5  -8 22.0018 2.13196  29 
  -4   5  -8 20.8120 2.14057  28 
   3   6  -8 11.6720 1.47947  26 
   3   6  -8 12.9313 1.48717  11 
  -3   6   8 13.2398 1.41710   9 
   3   6  -8 12.1339 1.49664  29 
   3   6  -8 10.7312 2.47086  28 
  -2   6   8 26.4418 1.95520   9 
   2   6  -8 19.9961 1.90430  29 
   2   6  -8 20.4319 1.96631  28 
   2   6  -8 27.1115 1.98071  26 
   2   6  -8 23.7177 1.80383  11 
  -1   6   8 1.92240 0.93999   9 
   1   6  -8 1.67300 0.91083  29 
  -1   6   8 -2.2942 2.36441  21 
   1   6  -8 0.71092 0.94183  26 
   1   6  -8 2.01594 0.94696  11 
   0   6  -8 4.35772 0.84864  11 
   0   6  -8 3.25612 0.86801  29 
   0   6  -8 3.41271 0.90069  26 
   0   6   8 0.75692 2.70658  21 
   0   6   8 2.83805 1.02837   9 
  -1   6  -8 31.0501 1.84021  11 
  -1   6  -8 33.2376 1.97331  26 
   1   6   8 31.2063 3.74808  21 
   1   6   8 29.6049 2.82989   9 
 -10   0   9 0.63910 2.30685   4 
 -10   0   9 1.67283 2.17494  14 
 -10   0   9 -0.6810 2.57634   2 
  10   0  -9 1.28713 2.53366  20 
  10   0  -9 -0.5623 2.28811  18 
  10   0  -9 -1.8748 2.14497  19 
 -10   0   9 -1.4635 1.90382  16 
 -10   0   9 1.25240 1.93540  13 
  -9   0   9 49.0330 5.66732   2 
   9   0  -9 43.9015 5.87092  19 
  -9   0   9 50.2592 6.57473  83 
  -9   0   9 44.6505 5.31899  14 
   9   0  -9 49.9299 5.28622  18 
  -9   0   9 41.7684 5.61390   4 
   9   0  -9 37.8872 6.09392  20 
  -9   0   9 44.8118 5.75378  13 
   8   0  -9 1.36676 3.31845  19 
   8   0  -9 5.75708 3.94337  78 
  -8   0   9 2.78318 3.64783   4 
  -8   0   9 1.59114 4.54769  83 
   8   0  -9 2.63994 3.43882  18 
   8   0  -9 0.22247 2.75281  81 
   8   0  -9 -1.3569 3.72940  41 
  -8   0   9 2.61814 3.41675  78 
  -8   0   9 1.74992 3.41476   2 
   8   0  -9 0.00550 3.64154  20 
  -8   0   9 -1.6350 3.23662  14 
   8   0  -9 -1.6508 2.52145  76 
  -8   0   9 0.75119 3.25679  13 
  -8   0   9 11.2228 3.85858  15 
   7   0  -9 -0.2550 3.85199  33 
   7   0  -9 2.48919 3.92390  41 
  -7   0   9 1.12123 3.10288  19 
   7   0  -9 0.07268 3.86382  78 
  -7   0   9 0.65569 3.11789  18 
  -7   0   9 -1.5931 1.71764  81 
   7   0  -9 2.16838 3.35084  24 
  -7   0   9 1.15489 3.56068   2 
  -7   0   9 -0.6470 3.64795   4 
  -7   0   9 1.08587 3.63252  78 
   7   0  -9 1.23754 2.82445  76 
   7   0  -9 0.85927 4.00814  20 
  -7   0   9 -0.3621 4.35935  83 
   7   0  -9 2.22017 3.63385  19 
  -7   0   9 -0.0640 2.81710  14 
  -7   0   9 2.20974 3.26888  13 
  -7   0   9 3.92727 6.12810  47 
  -7   0   9 2.67305 2.25381  15 
  -7   0   9 -0.6529 2.85240  20 
   7   0  -9 3.22275 3.69915  45 
  -7   0   9 3.93246 3.35362  74 
   7   0  -9 0.09518 3.70350  18 
   6   0  -9 72.7712 6.62221  78 
  -6   0   9 66.0434 6.06497  74 
   6   0  -9 61.6120 6.06491  75 
  -6   0   9 61.3407 7.48104  76 
   6   0  -9 54.5587 5.56835  45 
  -6   0   9 62.7258 7.12819  83 
   6   0  -9 68.9606 14.3983  72 
  -6   0   9 55.7325 6.27647  78 
   6   0  -9 50.3770 7.25130  33 
   6   0  -9 52.6794 6.55663  79 
  -6   0   9 58.3605 5.85764  81 
  -6   0   9 57.8468 5.63271  47 
   5   0  -9 162.899 9.71053  71 
   5   0  -9 172.197 10.0635  75 
  -5   0   9 160.907 10.1295  81 
  -5   0   9 147.774 10.1454  78 
   5   0  -9 154.702 10.6828  79 
   5   0  -9 172.894 19.0673  72 
  -5   0   9 154.127 12.3850  76 
   5   0  -9 167.452 10.0755  45 
  -5   0   9 157.926 10.9076  83 
   5   0  -9 168.362 10.3181  78 
  -5   0   9 171.309 10.0457  74 
  -4   0   9 50.9080 5.01247  78 
  -4   0   9 43.3676 4.98975  81 
  -4   0   9 52.3779 14.1300  72 
   4   0  -9 48.4518 5.83295  79 
  -4   0   9 54.0196 6.06546  83 
   4   0  -9 58.4797 5.65764  78 
  -4   0   9 58.5592 4.87952  74 
  -4   0   9 45.6357 8.67941  76 
   4   0  -9 55.5532 4.72385  71 
   4   0  -9 51.1811 5.23432  75 
   4   0  -9 44.1484 4.67713  45 
  -3   0   9 16.4812 3.25182  74 
  -3   0   9 14.2598 4.29711  81 
   3   0  -9 16.3182 3.62972  75 
  -3   0   9 29.1245 15.3256  72 
  -3   0   9 18.3659 5.08157  83 
   3   0  -9 21.1557 3.10617  71 
   3   0  -9 15.1257 4.28718  78 
  -3   0   9 18.9440 3.76061  78 
   3   0  -9 13.7651 3.36694  45 
  -3   0   9 16.7792 8.44709  76 
   3   0  -9 19.8166 4.57424  79 
   2   0  -9 387.312 19.7177  45 
  -2   0   9 367.924 20.2967  81 
   2   0  -9 374.783 19.7703  75 
   2   0  -9 410.606 20.7168  79 
  -2   0   9 368.094 19.8219  74 
  -2   0   9 373.794 28.4919  72 
  -2   0   9 374.955 20.9629  83 
  -2   0   9 376.535 22.8642  76 
  -2   0   9 377.586 19.9954  78 
   2   0  -9 382.810 19.5617  71 
   2   0  -9 381.042 19.8734  78 
   1   0  -9 175.007 9.93395  78 
  -1   0   9 162.274 10.6609  83 
   1   0  -9 171.909 10.4144  79 
  -1   0   9 182.533 9.98326  78 
  -1   0   9 161.067 10.5361  81 
  -1   0   9 171.894 20.1496  72 
   1   0  -9 172.766 9.70408  75 
   1   0  -9 165.689 9.48552  45 
  -1   0   9 131.653 13.5895  76 
   1   0  -9 171.544 9.40145  71 
   0   0  -9 239.414 12.5591  71 
   0   0   9 253.958 13.2287  78 
   0   0   9 231.884 13.6039  81 
   0   0  -9 231.142 13.5618  79 
   0   0  -9 247.714 12.9507  78 
   0   0  -9 219.318 12.6814  75 
   0   0  -9 239.632 12.6588  45 
   0   0   9 200.227 17.1070  76 
   0   0   9 229.815 13.9192  83 
   1   0   9 -1.6980 2.51061  38 
  -1   0  -9 -2.4924 2.83788  79 
   1   0   9 21.7855 21.2240  72 
   1   0   9 -4.8745 3.14583  76 
  -1   0  -9 1.10795 2.64312  78 
   1   0   9 0.30766 3.71336  83 
  -1   0  -9 0.11500 2.00258  71 
  -1   0  -9 -1.4789 1.67587  45 
   1   0   9 0.24856 3.23705  78 
  -1   0  -9 0.86338 2.12657  75 
   1   0   9 -1.9932 2.67550  81 
   2   0   9 109.576 8.85509  81 
  -2   0  -9 116.147 7.95161  78 
  -2   0  -9 117.288 7.11053  45 
  -2   0  -9 108.050 11.5105  76 
   2   0   9 105.615 15.3950  76 
   2   0   9 110.108 7.79643  34 
   2   0   9 103.796 8.16764  78 
   2   0   9 108.729 7.33941  38 
  -3   0  -9 104.951 11.6831  76 
   3   0   9 135.884 17.0201  76 
   3   0   9 102.571 9.10608  81 
   3   0   9 131.739 8.90346  78 
   3   0   9 103.063 8.17247  34 
   3   0   9 117.105 8.08424  38 
  -3   0  -9 117.472 8.27282  78 
   4   0   9 95.1278 7.11794  34 
   4   0   9 89.7114 6.84019  38 
  -4   0  -9 88.4858 6.82351  20 
   4   0   9 83.4643 7.70577  15 
  -4   0  -9 86.1031 6.54443  19 
  -4   0  -9 91.0301 7.31233  78 
   4   0   9 85.4830 6.80320  19 
   4   0   9 85.3387 6.74811  18 
   4   0   9 80.6678 6.96259  40 
   4   0   9 85.2795 8.04108  81 
  -4   0  -9 74.2326 7.58435   5 
   4   0   9 98.0747 7.88928  78 
  -4   0  -9 87.3036 10.0721  76 
  -4   0  -9 85.5025 6.25011  18 
  -4   0  -9 93.0697 7.89390   6 
   4   0   9 101.544 8.03754  20 
  -5   0  -9 76.5867 6.26729  78 
   5   0   9 62.9806 6.25174  34 
  -5   0  -9 62.4681 5.93525  20 
   5   0   9 73.7572 6.77659  81 
  -5   0  -9 64.6457 6.93548  76 
   5   0   9 62.2873 6.56373  20 
   5   0   9 63.5090 5.69328  19 
  -5   0  -9 69.9068 5.25664  19 
  -5   0  -9 65.6991 6.03586   5 
   5   0   9 67.3139 5.73263  18 
  -5   0  -9 59.9810 6.34870   6 
   5   0   9 70.3449 6.41792  38 
   5   0   9 80.5663 6.86532   4 
   5   0   9 64.4874 6.13993  40 
  -5   0  -9 69.9460 5.34406  18 
  -5   0  -9 73.8288 5.69355   8 
   5   0   9 62.3994 6.91059  78 
  -6   0  -9 4.67249 2.24374  18 
   6   0   9 5.14341 2.38163  19 
   6   0   9 7.47805 3.20856   4 
   6   0   9 5.65846 2.70309  20 
  -6   0  -9 6.98230 2.54374   5 
   6   0   9 5.76103 3.47990  38 
  -6   0  -9 3.97203 2.40300   8 
   6   0   9 4.91786 3.06654  13 
   6   0   9 6.60404 2.66611  40 
   6   0   9 4.15531 2.54103  18 
  -6   0  -9 5.15046 2.49797  20 
  -6   0  -9 4.11766 1.87241  19 
  -7   0  -9 94.2376 5.77436   8 
  -7   0  -9 98.5744 6.41580   5 
  -7   0  -9 86.1685 6.05833  13 
   7   0   9 102.410 6.29643   4 
  -7   0  -9 90.1822 7.01443  20 
   7   0   9 89.8958 6.46056  13 
  10  -1  -9 19.2674 4.43150  20 
  10  -1  -9 20.5350 4.36751  19 
  10  -1  -9 22.8376 3.96338  18 
 -10  -1   9 27.1718 3.93053  13 
 -10   1   9 21.0882 3.66352  14 
 -10   1   9 23.9748 3.09797   3 
 -10   1   9 20.4131 3.56179  31 
 -10   1   9 17.5288 2.90064  13 
 -10   1   9 19.0802 2.56117  16 
 -10   1   9 21.9848 3.99706   7 
  10   1  -9 22.2057 4.34087  13 
 -10   1   9 17.2668 3.60625   4 
  10   1  -9 21.2486 3.78127   4 
 -10   1   9 19.6786 2.85818   1 
 -10   1   9 24.5379 3.71041   2 
   9  -1  -9 5.42923 3.06291  24 
   9  -1  -9 3.97810 3.04642  33 
   9  -1  -9 16.8622 4.73770  18 
  -9  -1   9 15.5657 4.13735  18 
   9  -1  -9 5.56593 2.99385  19 
  -9  -1   9 6.97729 2.64260  20 
   9  -1  -9 8.13323 3.55983  20 
  -9  -1   9 16.1945 3.80028  19 
  -9   1   9 13.9348 3.28569   7 
   9   1  -9 7.59756 4.15434  18 
  -9   1   9 14.5121 3.86122  15 
   9   1  -9 12.1073 5.60316  20 
  -9   1   9 10.0471 2.39917  13 
   9   1  -9 15.2785 5.20128  83 
   9   1  -9 5.12816 3.29409   4 
  -9   1   9 12.3484 3.16136  14 
   9   1  -9 5.77678 3.15233  13 
  -9   1   9 11.9950 3.23328   4 
  -9   1   9 17.8380 4.71660   2 
  -9   1   9 13.3327 3.73173   3 
  -9   1   9 14.7558 3.01025  31 
  -9   1   9 6.76850 2.12080  16 
  -9   1   9 10.7972 4.58449  83 
   8  -1  -9 23.3169 5.56060  24 
  -8  -1   9 28.0557 5.22225  14 
   8  -1  -9 28.3102 5.95737  79 
   8  -1  -9 36.9031 5.88644  18 
  -8  -1   9 35.7302 4.92709  19 
   8  -1  -9 30.7086 6.50026  20 
   8  -1  -9 36.0118 5.90454  19 
  -8  -1   9 26.9120 5.10622  18 
  -8  -1   9 32.8747 6.61419  76 
  -8  -1   9 24.3199 5.44253  78 
   8  -1  -9 31.1302 5.99937  33 
   8  -1  -9 31.1122 4.86966  27 
  -8  -1   9 31.1794 4.99814  20 
  -8  -1   9 35.1391 5.17587  81 
  -8   1   9 35.9206 5.55561   2 
   8   1  -9 34.5577 6.42320  13 
   8   1  -9 20.4387 5.78342  42 
  -8   1   9 37.1003 5.99045   7 
  -8   1   9 30.7251 5.37617   4 
   8   1  -9 31.0008 3.57767  81 
  -8   1   9 33.1524 5.03495  14 
   8   1  -9 35.5717 6.14888  20 
  -8   1   9 34.9029 4.88915   3 
   8   1  -9 26.1273 5.13471  19 
   8   1  -9 28.2427 5.79877   4 
   8   1  -9 48.7441 6.18307  41 
  -8   1   9 33.5636 4.95165  13 
   8   1  -9 24.1731 4.78365  78 
  -8   1   9 33.0749 5.25356  31 
  -8   1   9 32.6838 4.50163  16 
  -8   1   9 31.4067 5.38342  15 
  -8   1   9 31.6398 5.92481  83 
   8   1  -9 35.1335 5.03519  18 
   8   1  -9 37.6816 6.65152  83 
  -7  -1   9 328.978 19.5449  74 
  -7  -1   9 373.776 19.9481  78 
   7  -1  -9 373.423 20.0052  33 
  -7  -1   9 345.732 19.3202  14 
  -7  -1   9 351.883 19.7853  81 
  -7  -1   9 385.950 22.7614  76 
   7  -1  -9 381.276 20.4916  79 
   7  -1  -9 349.689 19.4468  19 
   7  -1  -9 349.188 19.0986  27 
   7  -1  -9 339.545 20.0529  24 
  -7  -1   9 383.867 19.8677  20 
  -7  -1   9 358.449 19.2066  18 
   7  -1  -9 346.701 19.5566  18 
   7  -1  -9 356.160 19.4580  75 
   7  -1  -9 353.069 19.9247  20 
   7   1  -9 373.376 19.1821  81 
  -7   1   9 374.166 19.1006  13 
   7   1  -9 352.101 19.6951  76 
   7   1  -9 388.541 19.4390   4 
  -7   1   9 378.241 19.3348  31 
  -7   1   9 372.476 20.3121  15 
  -7   1   9 367.377 20.0183  74 
  -7   1   9 353.097 19.4052  14 
  -7   1   9 351.892 20.8001   3 
  -7   1   9 367.156 20.2558  83 
   7   1  -9 350.524 19.6734  20 
   7   1  -9 422.139 20.1514  41 
  -7   1   9 348.028 19.4418   7 
   7   1  -9 352.276 19.2778  18 
   7   1  -9 361.098 20.3979  42 
   7   1  -9 359.916 20.1680  83 
  -7   1   9 354.029 19.2720   4 
  -7   1   9 366.527 19.5048   2 
   7   1  -9 360.022 19.2409  19 
  -7   1   9 362.548 19.8424  16 
   6  -1  -9 118.763 9.41945  33 
   6  -1  -9 131.275 8.75459  75 
  -6  -1   9 131.372 9.62069  45 
  -6  -1   9 145.302 9.54150  78 
  -6  -1   9 138.170 9.02662  74 
   6  -1  -9 144.875 10.2577  79 
   6  -1  -9 138.539 8.44453  71 
   6  -1  -9 125.233 8.63083  45 
  -6  -1   9 141.581 13.9338  76 
   6   1  -9 124.478 10.8425  76 
  -6   1   9 142.348 10.1614  83 
   6   1  -9 138.695 10.2664  83 
  -6   1   9 118.474 8.70597  74 
   6   1  -9 121.537 9.46914  42 
   6   1  -9 134.640 8.98110  81 
   6   1  -9 126.393 9.31670  41 
   6   1  -9 135.966 8.84183  78 
  -6   1   9 141.246 9.89609  78 
  -5  -1   9 130.997 8.31108  45 
  -5  -1   9 138.471 8.64295  75 
  -5  -1   9 138.354 9.16101  78 
  -5  -1   9 147.472 23.5817  72 
  -5  -1   9 125.214 17.0641  76 
  -5  -1   9 120.637 8.32556  74 
   5  -1  -9 123.136 9.68074  79 
   5  -1  -9 131.359 8.27589  75 
   5  -1  -9 122.580 7.93092  71 
   5  -1  -9 116.222 9.10529  48 
   5  -1  -9 130.392 8.49154  45 
  -5   1   9 130.343 8.21852  78 
   5   1  -9 133.415 8.90278  41 
   5   1  -9 110.342 8.94717  42 
   5   1  -9 124.543 9.74933  83 
  -5   1   9 119.154 9.53593  83 
  -5   1   9 133.904 8.61071  74 
   5   1  -9 140.156 8.64631  78 
   5   1  -9 133.934 10.7685  76 
   5   1  -9 105.737 13.5659  72 
  -4  -1   9 1.63812 2.44918  71 
   4  -1  -9 1.55167 2.28737  71 
  -4  -1   9 6.80363 3.59747  78 
   4  -1  -9 3.75614 2.77782  75 
   4  -1  -9 3.29704 3.65406  79 
   4  -1  -9 2.90807 2.28497  45 
   4  -1  -9 0.81883 3.35641  48 
  -4  -1   9 25.1297 20.6265  72 
  -4  -1   9 7.23441 2.91140  75 
  -4  -1   9 6.66383 2.43768  45 
  -4  -1   9 0.50371 2.54854  74 
   4   1  -9 3.96443 3.17306  41 
  -4   1   9 5.56255 2.93649  78 
  -4   1   9 2.84887 3.86036  83 
   4   1  -9 4.07934 3.44524  78 
   4   1  -9 5.62253 4.39748  83 
   3  -1  -9 2.08092 3.06504  48 
  -3  -1   9 2.58225 2.15801  71 
  -3  -1   9 -0.8675 3.23551  72 
   3  -1  -9 -1.0905 3.00208  79 
   3  -1  -9 -2.0293 2.63975  44 
  -3  -1   9 -0.4553 1.68970  45 
  -3  -1   9 1.16534 2.73790  74 
   3  -1  -9 1.22403 2.05097  45 
   3  -1  -9 -0.3511 2.07541  71 
   3  -1  -9 4.21504 2.60084  75 
  -3  -1   9 -0.0483 2.97549  78 
   3   1  -9 -0.3266 3.08900  41 
  -3   1   9 3.59141 2.54627  78 
   3   1  -9 -0.8864 2.75341  78 
  -3   1   9 -0.3888 3.46896  83 
   3   1  -9 4.02509 4.02534  83 
   3   1  -9 0.07239 1.63947  72 
   3   1  -9 1.10713 2.31213  76 
  -2  -1   9 20.6026 3.62711  74 
   2  -1  -9 17.1999 5.09371  44 
   2  -1  -9 23.9138 3.34182  45 
  -2  -1   9 26.4080 3.16798  45 
  -2  -1   9 31.3582 3.34691  71 
   2  -1  -9 23.7708 4.46965  79 
   2  -1  -9 26.2228 3.46097  75 
   2  -1  -9 27.8297 3.45512  71 
   2  -1  -9 23.9783 4.26427  48 
  -2  -1   9 20.0177 4.49792  78 
   2   1  -9 24.7126 4.22358  78 
  -2   1   9 27.8089 2.70999  81 
   2   1  -9 35.4942 7.55636  76 
  -2   1   9 28.7025 3.90475  78 
  -2   1   9 22.9488 5.42178  83 
  -2   1   9 26.0108 5.77813  73 
   2   1  -9 24.3183 5.32517  83 
   2   1  -9 19.5932 4.38329  41 
   1  -1  -9 601.572 31.0200  71 
   1  -1  -9 618.678 31.0831  45 
  -1  -1   9 683.743 31.5600  74 
   1  -1  -9 611.920 31.1978  75 
  -1  -1   9 611.366 31.6201  78 
  -1  -1   9 640.431 31.1349  45 
   1  -1  -9 595.800 32.0101  44 
  -1  -1   9 531.850 42.1450  72 
   1  -1  -9 546.984 31.6245  79 
   1  -1  -9 598.477 31.6225  48 
   1   1  -9 632.155 31.2268  78 
  -1   1   9 655.110 31.8128  73 
   1   1  -9 678.693 31.6672  41 
  -1   1   9 591.148 31.9923  83 
   1   1  -9 587.393 31.6565  83 
   1   1  -9 610.021 33.0413  76 
  -1   1   9 668.280 31.3320  78 
  -1   1   9 629.229 30.5579  81 
   0  -1  -9 365.617 17.7456  71 
   0  -1  -9 310.663 18.3618  79 
   0  -1  -9 363.742 17.9513  75 
   0  -1   9 333.954 18.2888  78 
   0  -1   9 299.552 29.7156  72 
   0  -1   9 319.777 18.9714  79 
   0  -1  -9 359.959 17.7419  45 
   0  -1   9 339.225 17.6788  38 
   0  -1   9 342.479 17.6855  45 
   0  -1   9 346.511 18.2651  75 
   0  -1  -9 357.208 18.3211  48 
   0  -1   9 358.219 18.0629  74 
   0   1   9 339.055 17.2473  81 
   0   1  -9 333.460 18.5377  83 
   0   1   9 321.827 17.8139  78 
   0   1  -9 340.568 19.8173  76 
   0   1   9 339.988 18.8997  83 
   0   1   9 302.683 18.2670  73 
   0   1  -9 345.492 17.8838  78 
  -1  -1  -9 103.782 6.44859  45 
  -1  -1  -9 102.767 6.80901  75 
  -1  -1  -9 100.203 6.53302  71 
   1  -1   9 107.965 6.55345  45 
   1  -1   9 97.4836 8.64636  79 
   1  -1   9 95.2039 6.59173  38 
   1  -1   9 101.157 7.08734  74 
  -1  -1  -9 100.059 7.39882  79 
   1  -1   9 96.3291 7.44953  78 
   1  -1   9 93.3328 7.21471  75 
  -1  -1  -9 97.3142 7.01133  48 
  -1   1  -9 97.3723 8.80677  76 
   1   1   9 87.5157 6.88276  78 
  -1   1  -9 92.9212 7.25255  83 
   1   1   9 92.0750 7.91782  83 
   1   1   9 94.6611 5.99843  81 
   1   1   9 100.722 7.72603  73 
  -1   1  -9 102.139 6.90562  78 
   2  -1   9 266.668 14.8051  75 
  -2  -1  -9 255.018 13.9647  71 
  -2  -1  -9 261.042 13.9318  45 
  -2  -1  -9 257.663 15.1116  79 
   2  -1   9 235.017 15.5529  79 
   2  -1   9 255.623 14.0541  45 
   2  -1   9 263.084 14.3627  71 
   2  -1   9 290.705 15.1941  78 
  -2  -1  -9 266.684 14.2242  75 
   2  -1   9 255.274 14.0639  38 
   2  -1   9 260.524 14.5699  34 
   2   1   9 238.689 14.3649  78 
  -2   1  -9 253.204 14.8185  83 
  -2   1  -9 272.678 14.2661  78 
  -2   1  -9 247.147 15.2506  76 
   2   1   9 258.822 14.9465  73 
   2   1   9 236.862 13.2237  81 
   3  -1   9 99.6700 7.29828  71 
  -3  -1  -9 95.0116 7.01216  75 
   3  -1   9 101.926 9.29099  79 
   3  -1   9 108.993 8.09740  75 
   3  -1   9 101.524 7.51653  38 
   3  -1   9 106.663 7.93100  34 
  -3  -1  -9 90.1367 8.15983  79 
   3  -1   9 97.2041 7.54178  33 
  -3  -1  -9 95.2964 6.68118  45 
   3  -1   9 102.668 8.04231  78 
  -3  -1  -9 92.7065 6.57628  71 
   3  -1   9 111.185 7.36869  45 
  -3   1  -9 110.352 7.26261  78 
   3   1   9 101.016 7.21305  38 
   3   1   9 95.2839 8.09940  73 
   3   1   9 102.997 7.50191  40 
  -3   1  -9 113.654 8.25854  83 
   3   1   9 91.7883 7.57619  78 
   4  -1   9 106.750 8.36965  78 
  -4  -1  -9 97.2538 6.97127  20 
   4  -1   9 103.507 7.38011  38 
  -4  -1  -9 99.0047 7.74945  78 
   4  -1   9 95.2547 7.66917  24 
   4  -1   9 81.7656 6.80882  19 
   4  -1   9 69.0415 16.7704  76 
   4  -1   9 102.720 7.38244  20 
   4  -1   9 95.3161 6.91623  18 
  -4  -1  -9 90.6446 6.47291  19 
   4  -1   9 89.0831 7.51845  34 
   4  -1   9 99.4116 10.2914  75 
  -4  -1  -9 102.734 7.34960   5 
   4  -1   9 82.7184 27.9426  72 
  -4  -1  -9 89.0650 6.25574  27 
  -4  -1  -9 78.5850 7.52503  79 
  -4  -1  -9 99.2377 7.02356  75 
  -4  -1  -9 83.6661 6.43119  18 
   4  -1   9 82.3916 8.49859  79 
   4  -1   9 95.3573 7.39648  33 
   4   1   9 100.628 7.11280  38 
  -4   1  -9 93.5889 6.56895  13 
   4   1   9 99.2196 7.61592  73 
   4   1   9 87.3351 7.18816  78 
   4   1   9 91.7463 7.25304   2 
  -4   1  -9 95.2656 6.69538   2 
  -4   1  -9 89.6829 6.99185  78 
  -4   1  -9 96.7318 7.19865   5 
  -4   1  -9 89.0281 6.49795   4 
   4   1   9 101.811 7.27058  40 
  -4   1  -9 87.4136 6.51900  18 
   4   1   9 89.8578 7.32041  34 
   4   1   9 95.2227 6.80627   4 
   4   1   9 86.7752 7.67801  15 
  -4   1  -9 82.5588 5.80968  17 
  -4   1  -9 97.7603 8.36229  83 
  -4   1  -9 92.2397 6.70392   8 
  -4   1  -9 86.3232 7.35032   6 
  -5  -1  -9 98.4890 6.81671  19 
   5  -1   9 102.464 7.96025  34 
   5  -1   9 103.180 7.52490  38 
  -5  -1  -9 110.119 8.36352  79 
   5  -1   9 99.5807 7.95352  20 
  -5  -1  -9 95.3191 7.79287  78 
   5  -1   9 112.379 8.58607  78 
  -5  -1  -9 108.015 6.96863  18 
   5  -1   9 105.718 7.47201  33 
  -5  -1  -9 105.131 11.4400  76 
  -5  -1  -9 112.114 7.44181  20 
   5  -1   9 103.939 7.33996  18 
   5  -1   9 101.087 7.39503  19 
   5  -1   9 122.152 19.5747  76 
   5  -1   9 104.455 7.33116  40 
  -5  -1  -9 102.662 7.30426   5 
   5   1   9 101.556 7.90162  15 
  -5   1  -9 101.998 7.97256   6 
  -5   1  -9 100.838 6.99373  78 
  -5   1  -9 100.838 8.57050  83 
   5   1   9 85.3695 7.75972  43 
   5   1   9 98.5524 7.57680  13 
   5   1   9 99.3118 7.67601  38 
   5   1   9 107.118 7.73617  40 
  -5   1  -9 105.768 7.10792   8 
   5   1   9 109.400 7.98686   2 
   5   1   9 106.942 7.55628   4 
  -5   1  -9 98.5433 7.02819  13 
  -5   1  -9 106.538 6.89642   4 
  -5   1  -9 116.203 7.77629   5 
  -5   1  -9 102.349 7.01327  17 
   5   1   9 110.140 9.58857  78 
  -5   1  -9 114.892 7.31453   2 
   6  -1   9 74.8431 6.48786  20 
  -6  -1  -9 79.6978 6.18282  20 
   6  -1   9 58.1508 6.05652  34 
  -6  -1  -9 85.8705 5.59437   8 
  -6  -1  -9 74.9728 5.54263  18 
  -6  -1  -9 77.8703 5.75054  19 
   6  -1   9 93.5883 6.05688  19 
   6  -1   9 85.4838 6.46229  38 
   6  -1   9 81.1021 6.16077  18 
   6  -1   9 83.0549 6.37814  40 
  -6  -1  -9 84.5785 6.25636   5 
  -6   1  -9 78.7567 6.49184   6 
  -6   1  -9 74.5379 5.72918   8 
  -6   1  -9 70.3344 7.01614  83 
   6   1   9 84.6680 6.97804   2 
   6   1   9 65.4010 6.31723  38 
  -6   1  -9 80.6036 6.02412   2 
   6   1   9 82.1521 6.27613   4 
   6   1   9 84.1025 6.68635  40 
  -6   1  -9 79.7857 5.56002   4 
   6   1   9 92.6723 6.60303  13 
  -6   1  -9 73.4792 6.08838   5 
  -6   1  -9 83.4363 5.86154  13 
  -7  -1  -9 52.7994 3.97759  19 
   7  -1   9 53.1135 4.31312  19 
   7  -1   9 51.4010 5.18674  20 
  -7  -1  -9 55.1767 4.72105   5 
   7  -1   9 49.5205 4.48123  18 
  -7  -1  -9 53.2605 4.53465  20 
  -7  -1  -9 53.4386 4.05938  18 
  -7   1  -9 59.1136 4.15959   8 
  -7   1  -9 51.9151 4.42179   4 
  -7   1  -9 58.9142 4.63138  25 
  -7   1  -9 52.9439 4.70362   5 
  -7   1  -9 61.9635 4.36974  13 
   7   1   9 58.6641 4.94384  13 
   7   1   9 56.0571 4.57493  16 
  -7   1  -9 59.2185 4.71419   2 
  -7   1  -9 53.5044 4.89472   6 
   7   1   9 67.7363 4.92014   4 
  -7   1  -9 61.0391 4.20506  16 
 -10  -2   9 7.62033 2.25113  19 
 -10  -2   9 5.55368 1.82565  18 
  10  -2  -9 5.40859 2.25879  19 
  10  -2  -9 4.20088 2.20497  20 
  10  -2  -9 9.86271 3.18689  18 
 -10  -2   9 4.63549 1.73798  20 
 -10   2   9 6.66616 1.87733   7 
 -10   2   9 4.15362 1.24674  22 
 -10   2   9 3.64549 1.98036   2 
 -10   2   9 3.88737 1.76720  14 
  10   2  -9 8.53847 2.46284  16 
  10   2  -9 4.53439 1.87961   3 
  10   2  -9 2.66143 1.65096   1 
 -10   2   9 10.5758 2.40819  30 
 -10   2   9 5.64235 2.49817  15 
  10   2  -9 3.90968 1.67209  13 
  10   2  -9 8.02602 2.05996   4 
 -10   2   9 2.93171 1.49882  31 
 -10   2   9 3.82172 1.59369   4 
 -10   2   9 7.65068 1.75797   3 
  10   2  -9 14.0051 4.12179  23 
   9  -2  -9 86.7552 6.89107  20 
  -9  -2   9 67.8794 5.91101  18 
   9  -2  -9 80.7912 5.63335  27 
  -9  -2   9 92.4313 6.12882  20 
   9  -2  -9 92.3116 6.68559  19 
   9  -2  -9 79.5706 6.51211  33 
  -9  -2   9 71.6865 5.58624  19 
   9  -2  -9 69.4641 6.45106  24 
   9  -2  -9 84.7492 6.32233  18 
  -9   2   9 95.9964 5.90782  31 
  -9   2   9 78.3795 5.85896   2 
  -9   2   9 76.2924 6.04681  14 
  -9   2   9 84.4069 4.84293  22 
   9   2  -9 79.8960 6.75616  36 
  -9   2   9 85.8912 5.90842  30 
   9   2  -9 80.7037 5.85749  16 
  -9   2   9 74.5634 4.67040   1 
  -9   2   9 82.0918 6.74697  15 
  -9   2   9 85.8132 6.32666   7 
  -9   2   9 86.5404 5.03344  32 
   9   2  -9 75.2374 6.27693   4 
   9   2  -9 82.5652 6.32939   3 
  -9   2   9 83.7302 5.46619   4 
  -9   2   9 88.3934 4.95737   3 
   9   2  -9 91.3264 6.46385  13 
  -8  -2   9 8.06301 3.44040  18 
   8  -2  -9 3.65180 3.33227  33 
   8  -2  -9 6.44952 3.63015  79 
   8  -2  -9 0.79620 2.33290  27 
   8  -2  -9 8.38029 4.03328  20 
  -8  -2   9 6.14135 2.54425  19 
  -8  -2   9 3.70914 2.73882  20 
   8  -2  -9 1.03654 2.69959  24 
  -8   2   9 7.27254 2.21335  32 
   8   2  -9 8.16539 3.39243  13 
   8   2  -9 5.23299 3.91539  42 
   8   2  -9 9.30941 4.18712  83 
  -8   2   9 8.95479 2.26919   1 
   8   2  -9 5.50128 4.21152  41 
   8   2  -9 1.38523 2.95117  39 
   8   2  -9 2.95227 2.01979  15 
  -8   2   9 0.18415 3.83965  83 
  -8   2   9 2.56968 2.83489  30 
  -8   2   9 4.42128 1.54027  16 
  -8   2   9 5.21042 2.67182   4 
  -8   2   9 3.61305 3.23665  14 
  -8   2   9 0.96918 1.71506  28 
   8   2  -9 6.39770 3.89279  16 
  -8   2   9 2.54775 2.14409   3 
  -8   2   9 4.06288 1.63265  22 
  -8   2   9 2.77007 2.69147   2 
  -8   2   9 7.44303 3.09300   7 
  -8   2   9 1.76616 2.91381  15 
  -8   2   9 3.49595 2.60134  13 
   8   2  -9 3.55253 3.18576   4 
  -8   2   9 1.40238 2.69026  31 
  -7  -2   9 16.5001 4.23726  75 
  -7  -2   9 9.74177 4.19566  78 
   7  -2  -9 10.2703 3.81253  33 
   7  -2  -9 12.8226 3.90344  75 
   7  -2  -9 12.7642 4.16222  79 
  -7  -2   9 7.05919 3.24688  27 
  -7  -2   9 6.46786 3.21622  24 
  -7  -2   9 7.28577 3.92538  20 
   7  -2  -9 6.08661 2.50313  27 
  -7  -2   9 15.2516 4.82364  18 
  -7  -2   9 9.71800 3.01628  19 
  -7   2   9 12.4340 2.84844  22 
  -7   2   9 10.7947 4.00998  83 
   7   2  -9 6.67762 2.60682  15 
  -7   2   9 7.28897 2.34171  13 
  -7   2   9 12.6558 3.20192   2 
   7   2  -9 13.7418 3.78350  13 
   7   2  -9 9.37977 4.58077  42 
   7   2  -9 11.9538 4.57865   7 
   7   2  -9 6.37450 3.19105   4 
  -7   2   9 6.59514 3.07220  77 
   7   2  -9 6.61713 3.23504  39 
  -7   2   9 9.80954 3.04857  31 
  -7   2   9 6.83893 2.44472   3 
  -7   2   9 8.90304 2.17209  16 
   7   2  -9 8.60679 4.58949  83 
  -7   2   9 13.0105 3.50125   7 
   7   2  -9 12.0480 4.70113  41 
  -7   2   9 12.4693 3.41482   1 
  -7   2   9 8.18048 2.98573   4 
  -7   2   9 8.54915 3.30151  32 
  -7   2   9 15.1876 2.81397  28 
  -7   2   9 8.33063 2.92481  14 
  -6  -2   9 805.794 38.2184  20 
  -6  -2   9 779.343 38.5220  24 
   6  -2  -9 759.352 38.8798  24 
  -6  -2   9 744.326 38.2749  74 
   6  -2  -9 700.427 39.6786  44 
   6  -2  -9 764.856 37.9153  75 
  -6  -2   9 756.661 52.4868  72 
   6  -2  -9 776.884 38.1937  33 
  -6  -2   9 755.988 37.5033  27 
   6  -2  -9 804.382 38.7618  79 
  -6  -2   9 726.863 37.6193  19 
   6  -2  -9 727.623 37.5671  27 
  -6  -2   9 722.852 37.7015  18 
  -6  -2   9 774.771 38.2267  75 
   6   2  -9 753.708 37.9464  39 
  -6   2   9 698.931 37.2933  28 
  -6   2   9 705.841 37.7457  14 
   6   2  -9 800.536 38.5794  83 
  -6   2   9 711.798 38.0761  83 
  -6   2   9 747.773 37.3176  13 
  -6   2   9 789.142 37.5489   4 
   6   2  -9 739.514 38.8140  42 
  -6   2   9 826.058 37.3388   1 
  -6   2   9 735.794 37.6769   7 
   6   2  -9 700.180 37.7639   7 
   6   2  -9 733.658 37.7864  13 
   6   2  -9 750.841 38.2357  41 
  -6   2   9 796.849 37.3630   3 
   6   2  -9 776.681 37.9649  73 
  -6   2   9 756.134 37.0886  16 
   6   2  -9 726.771 37.6715   4 
  -6   2   9 754.184 37.7496   2 
   6   2  -9 700.682 38.3050  15 
  -6   2   9 674.885 37.0130  22 
  -6   2   9 753.128 37.6886  77 
  -6   2   9 713.937 37.5418  31 
   5  -2  -9 13.9261 4.16684  45 
   5  -2  -9 8.84823 3.38978  33 
   5  -2  -9 20.4758 4.45668  75 
  -5  -2   9 21.6070 3.81113  45 
  -5  -2   9 16.9128 3.86685  74 
  -5  -2   9 15.5272 3.73693  75 
   5  -2  -9 16.1547 7.65375  44 
   5  -2  -9 8.83680 3.85468  48 
   5  -2  -9 14.2460 3.05557  71 
  -5  -2   9 16.4786 3.22627  71 
   5  -2  -9 19.6796 5.30177  79 
  -5   2   9 18.7536 5.08427  83 
   5   2  -9 12.4842 5.03605  83 
   5   2  -9 14.3252 4.16952  78 
   5   2  -9 17.1764 4.67388  41 
   5   2  -9 9.91121 3.95086  42 
  -5   2   9 16.8043 3.42410  77 
  -5   2   9 15.3812 4.24339  37 
   4  -2  -9 37.5191 6.47068  33 
  -4  -2   9 63.0811 5.67550  74 
   4  -2  -9 64.0061 6.76754  79 
  -4  -2   9 62.4791 5.05865  45 
   4  -2  -9 59.5663 5.58208  75 
   4  -2  -9 62.6922 4.86249  71 
  -4  -2   9 61.2131 5.29590  71 
  -4  -2   9 60.8086 5.81202  75 
   4  -2  -9 63.8630 5.08629  45 
   4  -2  -9 59.4560 6.07975  48 
   4  -2  -9 62.0869 7.77256  44 
   4   2  -9 61.2028 9.17623  82 
  -4   2   9 58.0439 5.22563  37 
  -4   2   9 52.7525 5.80695  83 
  -4   2   9 55.1780 5.36549  77 
   4   2  -9 56.1725 6.46841  41 
   4   2  -9 64.7100 6.88269  83 
   4   2  -9 60.5907 5.40330  78 
   4   2  -9 56.2527 6.30164  42 
   3  -2  -9 144.307 8.46959  45 
  -3  -2   9 138.393 8.38763  45 
   3  -2  -9 149.226 9.77868  79 
   3  -2  -9 143.567 9.28827  48 
   3  -2  -9 138.585 8.66607  75 
  -3  -2   9 137.677 8.93981  74 
  -3  -2   9 140.380 8.56614  71 
   3  -2  -9 152.627 8.36457  71 
  -3  -2   9 133.829 9.24575  48 
   3  -2  -9 134.443 10.2868  44 
   3   2  -9 146.741 9.64652  83 
   3   2  -9 147.012 12.1136  82 
  -3   2   9 140.119 9.07195  83 
   3   2  -9 131.904 8.29263  78 
   3   2  -9 123.491 8.91246  42 
  -3   2   9 147.152 8.82605  37 
   3   2  -9 132.085 9.02453  41 
  -3   2   9 140.593 8.56007  77 
   2  -2  -9 452.524 22.4131  71 
  -2  -2   9 432.154 22.9496  74 
  -2  -2   9 433.885 22.5838  71 
   2  -2  -9 417.892 23.6929  44 
  -2  -2   9 466.492 23.3815  48 
   2  -2  -9 476.971 23.2634  48 
   2  -2  -9 449.903 22.4484  45 
   2  -2  -9 430.928 22.6083  75 
   2  -2  -9 442.855 23.3776  79 
  -2  -2   9 462.826 22.6336  45 
   2   2  -9 438.303 22.9495  41 
   2   2  -9 414.640 23.0924  83 
  -2   2   9 401.549 22.9599  83 
  -2   2   9 438.965 22.5756  77 
   2   2  -9 421.010 22.3463  78 
   2   2  -9 449.161 24.4519  82 
  -2   2   9 395.178 22.4070  37 
   1  -2  -9 72.4025 6.87793  44 
   1  -2  -9 64.6985 4.73161  45 
  -1  -2   9 64.8359 5.86339  48 
   1  -2  -9 63.2745 5.66027  48 
   1  -2  -9 63.7981 5.12357  75 
  -1  -2   9 64.5469 5.13986  45 
   1  -2  -9 68.0323 5.14627  71 
   1  -2  -9 67.3318 6.39752  79 
  -1  -2   9 74.9282 5.68206  38 
  -1  -2   9 71.9226 5.72382  74 
  -1   2   9 65.1518 6.15745  83 
  -1   2   9 70.5273 5.41619  37 
  -1   2   9 67.7709 5.44879  77 
   1   2  -9 64.9308 5.32716  78 
   1   2  -9 67.6145 6.47326  83 
   1   2  -9 76.4212 5.81309  77 
   1   2  -9 81.4856 6.76425  41 
   0  -2  -9 37.9204 4.50030  48 
   0  -2  -9 39.1612 4.01647  75 
   0  -2  -9 38.7085 5.46630  79 
   0  -2  -9 40.8308 3.59845  45 
   0  -2   9 42.5218 4.63587  74 
   0  -2  -9 40.5142 5.20159  44 
   0  -2   9 42.2302 5.53435  75 
   0  -2   9 34.9342 4.65155  48 
   0  -2  -9 48.1666 4.11661  71 
   0  -2   9 42.0012 6.49829  79 
   0  -2   9 40.2509 4.26151  38 
   0  -2   9 43.2263 4.10247  45 
   0   2  -9 42.1271 4.80609  77 
   0   2  -9 37.7286 5.69319  83 
   0   2   9 36.6051 4.71215  37 
   0   2  -9 40.2195 4.35134  78 
   0   2   9 38.4248 4.72720  77 
   0   2   9 39.5144 5.61172  83 
   1  -2   9 394.197 20.9988  45 
   1  -2   9 411.305 21.7170  74 
   1  -2   9 436.688 21.7939  75 
  -1  -2  -9 414.194 22.2360  44 
   1  -2   9 397.788 22.4771  79 
  -1  -2  -9 410.130 21.6520  48 
  -1  -2  -9 395.894 21.1321  75 
   1  -2   9 421.526 21.0986  38 
  -1  -2  -9 373.208 20.8471  45 
   1  -2   9 384.632 21.3898  34 
  -1  -2  -9 430.433 22.1111  79 
  -1  -2  -9 429.667 21.0414  71 
   1  -2   9 371.466 21.6540  48 
  -1   2  -9 422.028 22.0276  78 
   1   2   9 395.738 21.9577  83 
  -1   2  -9 389.988 21.2241  77 
  -1   2  -9 392.745 21.7068  83 
   1   2   9 423.741 21.3746  77 
   2  -2   9 112.603 8.06489  75 
   2  -2   9 106.401 8.00782  34 
  -2  -2  -9 102.998 8.37392  44 
   2  -2   9 116.763 7.28872  38 
  -2  -2  -9 112.941 6.96193  71 
   2  -2   9 116.279 7.66260  71 
   2  -2   9 109.133 8.47225  33 
   2  -2   9 106.020 7.06438  45 
  -2  -2  -9 111.822 8.45755  79 
  -2  -2  -9 115.115 7.55758  75 
   2  -2   9 105.669 9.87452  79 
   2  -2   9 119.828 8.36881  74 
   2  -2   9 109.407 8.22474  48 
  -2  -2  -9 107.503 7.01567  45 
  -2  -2  -9 98.3192 7.66490  48 
   2   2   9 100.467 8.82694  83 
   2   2   9 127.141 8.16225  77 
  -2   2  -9 115.559 7.71318  77 
  -2   2  -9 107.698 8.08277  83 
   3  -2   9 42.8646 4.68496  27 
   3  -2   9 56.0931 6.13305  20 
  -3  -2  -9 37.3068 5.16212  48 
   3  -2   9 47.5682 6.10920  75 
   3  -2   9 41.8296 7.02419  18 
   3  -2   9 44.5288 5.22916  34 
   3  -2   9 41.8364 4.93310  71 
  -3  -2  -9 43.5101 4.90184   5 
   3  -2   9 49.9683 4.88426  38 
  -3  -2  -9 47.7900 5.00297  75 
  -3  -2  -9 28.5017 4.09106  71 
   3  -2   9 46.4844 6.37805  24 
  -3  -2  -9 38.3047 5.80669  24 
   3  -2   9 40.0304 5.71834  19 
  -3  -2  -9 45.4443 4.39578  27 
  -3  -2  -9 42.2452 5.81249  79 
   3  -2   9 42.8677 5.94825  33 
   3  -2   9 46.8097 5.80279  74 
   3  -2   9 44.7665 7.55800  79 
   3  -2   9 40.3958 4.91310  45 
  -3  -2  -9 41.5444 4.31646  45 
  -3   2  -9 49.4575 4.76694   2 
  -3   2  -9 48.9411 4.92032   3 
  -3   2  -9 40.3516 4.75393  31 
   3   2   9 45.3325 4.82358  16 
   3   2   9 50.5440 9.81680  40 
   3   2   9 40.1212 9.65309  43 
   3   2   9 48.4671 5.70298   7 
  -3   2  -9 42.9141 4.80341   8 
   3   2   9 43.0601 5.35768   2 
   3   2   9 41.9646 6.84848  83 
   3   2   9 42.9216 5.18979   4 
  -3   2  -9 53.7884 5.30319  77 
   3   2   9 51.5397 5.85542  77 
  -3   2  -9 53.9543 4.95422  13 
  -3   2  -9 50.2072 6.18001  83 
  -3   2  -9 46.0183 6.16101   6 
   3   2   9 52.3471 5.02084  31 
   3   2   9 42.9095 4.44027  28 
  -3   2  -9 56.5628 5.53777  14 
  -3   2  -9 41.2186 5.01593  16 
  -3   2  -9 41.9946 4.59374   4 
  -3   2  -9 46.4165 4.00443  17 
  -3   2  -9 43.5379 5.72666   7 
   3   2   9 53.1212 4.80960   3 
   4  -2   9 5.50553 2.26019  27 
   4  -2   9 16.5696 4.81986  33 
  -4  -2  -9 9.20239 2.61421   5 
  -4  -2  -9 7.36755 2.78452  75 
  -4  -2  -9 11.3829 3.90887  79 
   4  -2   9 14.8475 3.05835  19 
   4  -2   9 23.1488 4.82780  20 
   4  -2   9 13.4218 4.78627  34 
   4  -2   9 15.2318 4.23031  18 
   4  -2   9 17.0260 4.46532  38 
   4  -2   9 4.90367 3.44190  75 
   4  -2   9 19.9875 5.27936  79 
  -4  -2  -9 11.9078 3.95800  20 
  -4  -2  -9 14.3184 3.68276  27 
   4  -2   9 16.4007 5.30345  24 
  -4   2  -9 15.5230 3.61827  31 
  -4   2  -9 16.4668 4.39491   8 
  -4   2  -9 18.5206 4.44012  77 
  -4   2  -9 14.3276 3.50199  16 
  -4   2  -9 12.9182 3.96875  14 
   4   2   9 12.1710 3.87342  77 
   4   2   9 11.8564 2.87040   3 
   4   2   9 9.20762 2.94404   4 
  -4   2  -9 18.7244 3.53016   4 
  -4   2  -9 21.5402 4.21181   7 
   4   2   9 24.6602 5.79631   7 
  -4   2  -9 15.5336 3.70429   2 
  -4   2  -9 16.0179 3.45393   3 
  -4   2  -9 12.3916 3.08117  17 
  -4   2  -9 12.7725 4.19269  83 
   4   2   9 17.4204 4.19301  31 
  -4   2  -9 14.7239 4.77188   6 
   4   2   9 14.5435 4.27753  38 
   4   2   9 15.2483 3.55634  16 
   4   2   9 15.7556 4.90877  43 
  -4   2  -9 13.4332 3.85360  13 
   4   2   9 13.2053 2.94898  13 
   4   2   9 14.4732 4.67296  40 
   4   2   9 10.9006 3.11785   2 
   4   2   9 16.4938 5.82822  15 
   5  -2   9 21.0099 4.22984  27 
  -5  -2  -9 27.4749 4.57333   5 
   5  -2   9 20.3934 6.49140  79 
   5  -2   9 21.7338 4.40363  18 
   5  -2   9 24.6085 4.35620  38 
  -5  -2  -9 21.2010 3.88482  19 
   5  -2   9 17.7832 4.73044  34 
   5  -2   9 23.8252 5.12070  20 
   5  -2   9 18.3691 4.42026  19 
  -5  -2  -9 26.3557 4.49266  20 
  -5  -2  -9 23.5414 3.94877  18 
   5  -2   9 17.4368 4.75397  33 
  -5  -2  -9 19.1480 3.33681  27 
   5  -2   9 22.4275 5.20208  24 
   5   2   9 17.5079 3.52503   1 
   5   2   9 26.1460 5.03554  38 
   5   2   9 19.6584 4.50297  31 
  -5   2  -9 19.5451 3.16175  17 
   5   2   9 26.3048 4.43207   4 
  -5   2  -9 22.8240 3.71621  13 
  -5   2  -9 21.9135 4.84265  83 
   5   2   9 16.1421 4.74999  40 
   5   2   9 22.5823 5.70388   7 
  -5   2  -9 18.6437 3.95731  31 
  -5   2  -9 19.7681 4.33182  14 
  -5   2  -9 21.9810 5.36883   6 
   5   2   9 20.9682 5.10282  43 
   5   2   9 16.1269 5.02732   2 
  -5   2  -9 18.9965 4.12528   2 
   5   2   9 24.3251 3.82613  16 
  -5   2  -9 17.3347 3.28461   3 
   5   2   9 26.2948 4.66890  13 
   5   2   9 17.2947 3.65282   3 
  -5   2  -9 22.3117 3.28271  16 
  -5   2  -9 18.4100 3.85766   7 
  -5   2  -9 22.5213 3.79036   4 
   5   2   9 19.7718 5.62246  15 
  -5   2  -9 18.1252 4.16081   8 
   6  -2   9 34.7775 4.56642  18 
   6  -2   9 29.7281 4.38644  33 
   6  -2   9 35.9943 4.40070  34 
  -6  -2  -9 36.1888 4.50277   5 
   6  -2   9 35.3371 5.05631  20 
  -6  -2  -9 38.5203 4.12669  18 
   6  -2   9 40.4512 4.43639  19 
  -6  -2  -9 38.2861 4.21561  19 
  -6  -2  -9 39.1161 4.73392  20 
   6  -2   9 21.2444 5.91216  24 
   6   2   9 38.8707 5.10527  15 
  -6   2  -9 40.0598 4.13782   8 
  -6   2  -9 38.6000 3.97460  31 
  -6   2  -9 34.0926 3.10418  17 
  -6   2  -9 38.2902 3.81950   7 
  -6   2  -9 41.6595 3.32064  16 
  -6   2  -9 35.4581 4.00592   2 
   6   2   9 39.0664 4.16514   3 
  -6   2  -9 33.2236 4.55419  14 
   6   2   9 40.6977 5.49172   7 
   6   2   9 36.3249 4.83940  38 
  -6   2  -9 41.5741 5.11617   6 
  -6   2  -9 34.1703 3.32027  13 
   6   2   9 35.5536 3.67987   1 
  -6   2  -9 43.6608 3.52488   3 
   6   2   9 30.2338 3.91101  13 
   6   2   9 37.1593 4.49298  31 
  -6   2  -9 36.6413 3.41379   1 
   6   2   9 35.4488 3.50882  16 
   6   2   9 29.6516 4.16264   4 
  -6   2  -9 34.7721 3.65993   4 
  -7  -2  -9 13.2931 2.62502  18 
   7  -2   9 21.0476 3.00252  18 
  -7  -2  -9 15.4897 2.54288  19 
   7  -2   9 13.6347 2.82330  19 
  -7  -2  -9 17.8289 3.23088  20 
   7  -2   9 15.9445 3.68357  20 
  -7   2  -9 11.3416 2.66523  31 
  -7   2  -9 22.2234 3.45537   6 
  -7   2  -9 16.0548 2.80651   7 
   7   2   9 14.7192 2.05128   1 
  -7   2  -9 13.5277 2.52432   4 
  -7   2  -9 14.3936 2.32984  13 
   7   2   9 13.6445 2.20365  32 
   7   2   9 13.2955 2.78262   4 
   7   2   9 14.7995 2.56295   3 
  -7   2  -9 16.3504 2.16850   3 
  -7   2  -9 13.6091 2.74696   8 
   7   2   9 12.5051 3.46603   7 
   7   2   9 17.7213 3.29702  31 
  -7   2  -9 15.7921 2.14859  32 
  -7   2  -9 12.5804 2.68678   2 
  -7   2  -9 15.0268 2.08945   1 
  -7   2  -9 15.5186 3.11087  25 
  -7   2  -9 12.9095 1.43412  16 
  -9  -3   9 24.9318 3.59027  20 
   9  -3  -9 21.1608 2.99707  27 
  -9  -3   9 28.5515 3.66631  18 
  -9  -3   9 24.1289 3.31914  19 
   9  -3  -9 25.8505 3.97677  24 
  -9   3   9 24.3661 2.97652   7 
   9   3  -9 25.0568 2.62954  32 
   9   3  -9 31.6073 4.06714   7 
  -9   3   9 24.3112 2.59943  28 
   9   3  -9 26.4629 3.68065  31 
  -9   3   9 21.2654 3.26137  14 
   9   3  -9 25.5534 2.86647  17 
   9   3  -9 15.3861 3.25275   4 
  -9   3   9 25.0994 2.26096  22 
   9   3  -9 24.7205 2.39281   1 
  -9   3   9 21.4539 2.50630  31 
  -9   3   9 29.6801 2.55351  30 
  -9   3   9 19.3224 5.31653  15 
   8  -3  -9 24.6973 5.24310  24 
  -8  -3   9 25.5286 4.46163  24 
  -8  -3   9 18.9703 4.45619  18 
  -8  -3   9 30.8121 4.64635  20 
   8  -3  -9 22.8395 4.89329  33 
  -8  -3   9 26.6784 4.26266  19 
   8  -3  -9 23.2516 4.01391  27 
  -8  -3   9 26.8736 3.43558  27 
   8   3  -9 14.7507 4.54049  36 
  -8   3   9 25.2595 3.22504  30 
  -8   3   9 26.9500 2.75089  35 
   8   3  -9 25.3192 3.40157   1 
   8   3  -9 29.8615 5.25995   7 
   8   3  -9 23.4701 3.14326  16 
   8   3  -9 32.3219 4.69270  15 
   8   3  -9 25.0166 4.55432  31 
   8   3  -9 22.5625 4.38226   4 
  -8   3   9 25.3217 3.39374  31 
   8   3  -9 29.3906 4.27416  39 
  -8   3   9 25.0758 2.86760  22 
  -8   3   9 25.7432 3.09760  28 
   8   3  -9 21.8628 3.55979  13 
  -8   3   9 24.0721 4.04085   7 
   8   3  -9 25.2541 3.58094  32 
   8   3  -9 27.2747 4.07373   3 
   7  -3  -9 58.7491 8.88324  24 
  -7  -3   9 39.5602 5.37884  20 
  -7  -3   9 40.4348 6.03779  24 
   7  -3  -9 45.7963 4.71142  27 
  -7  -3   9 49.0140 4.57704  27 
   7  -3  -9 32.8996 5.30269  79 
  -7  -3   9 36.5654 5.55802  18 
   7  -3  -9 46.9002 5.65023  33 
   7   3  -9 44.8299 5.38183  39 
   7   3  -9 43.8742 5.48163   4 
  -7   3   9 45.2196 4.38956  31 
   7   3  -9 51.4380 4.58366  16 
   7   3  -9 34.5024 5.93249  42 
  -7   3   9 46.8195 5.63195  35 
  -7   3   9 49.0921 5.17441   7 
   7   3  -9 45.4694 5.03702  13 
   7   3  -9 32.5266 6.00607  36 
  -7   3   9 39.5652 4.22005  29 
   7   3  -9 52.7334 4.31887   1 
  -7   3   9 43.4748 4.17681  30 
   7   3  -9 35.8023 6.09902  41 
   7   3  -9 48.2853 5.72270  31 
   7   3  -9 46.8279 6.05214  15 
   7   3  -9 49.3607 5.51827  83 
   7   3  -9 42.9103 4.94016   3 
  -7   3   9 42.6780 3.71958  22 
   7   3  -9 50.7939 6.01618   7 
  -7   3   9 42.4791 3.86841   3 
  -6  -3   9 7.30834 2.73511  27 
  -6  -3   9 16.9107 5.11362  75 
   6  -3  -9 1.76063 7.66025  44 
  -6  -3   9 6.62504 3.17069  20 
  -6  -3   9 4.18122 3.37999  24 
   6  -3  -9 6.14651 3.29299  33 
   6  -3  -9 8.14569 3.69638  79 
   6   3  -9 6.30073 3.43914  15 
   6   3  -9 8.07792 2.61984   1 
   6   3  -9 9.95357 3.30767  77 
  -6   3   9 2.26414 2.10299  29 
   6   3  -9 8.89998 3.45403  31 
   6   3  -9 8.08076 4.00563  83 
   6   3  -9 4.91812 3.23311   4 
   6   3  -9 7.19372 3.60532   7 
  -6   3   9 5.50284 1.62685  22 
   6   3  -9 8.58760 2.88406  13 
  -6   3   9 10.3920 1.73269  32 
  -6   3   9 10.0303 2.50264   3 
   6   3  -9 7.74564 2.58142  16 
  -6   3   9 8.14439 1.55718   1 
  -6   3   9 5.69691 2.74352   7 
   6   3  -9 5.39518 3.68781  36 
   6   3  -9 5.32308 4.18867  41 
  -6   3   9 6.47887 2.10494  30 
   6   3  -9 10.9588 3.48197  39 
  -6   3   9 8.89153 2.58394  77 
   6   3  -9 7.68931 2.98623   3 
   6   3  -9 10.8477 4.38759  42 
  -6   3   9 5.37430 1.95395  28 
  -6   3   9 8.57580 2.43313  31 
  -5  -3   9 522.012 26.1886  27 
  -5  -3   9 470.808 27.1642  24 
   5  -3  -9 482.546 26.8803  79 
  -5  -3   9 492.156 26.6167  75 
   5  -3  -9 573.480 26.3884  75 
   5  -3  -9 555.337 28.2627  44 
   5   3  -9 497.296 27.3659  36 
  -5   3   9 506.160 25.7526  29 
  -5   3   9 501.964 25.3927   3 
   5   3  -9 488.778 26.1202   4 
  -5   3   9 484.885 25.8530  31 
  -5   3   9 505.198 25.2974  32 
  -5   3   9 526.899 25.2106   1 
  -5   3   9 504.862 25.7641  28 
   5   3  -9 514.586 26.2905  31 
   5   3  -9 539.288 26.9798  41 
   5   3  -9 514.953 27.4055  42 
  -5   3   9 489.784 25.6318  22 
   5   3  -9 524.619 26.5091  39 
   5   3  -9 538.986 26.7315  83 
  -5   3   9 530.768 25.9074  30 
   5   3  -9 532.587 25.8693  16 
  -5   3   9 520.286 26.0517   7 
  -5   3   9 451.908 25.5188  77 
   5   3  -9 496.259 25.9217  28 
   5   3  -9 519.939 25.9427   1 
   5   3  -9 557.478 26.3733  77 
   5   3  -9 492.818 26.4433   7 
   5   3  -9 495.729 25.9900  13 
   4  -3  -9 16.4743 6.09085  44 
   4  -3  -9 13.1677 4.10324  75 
  -4  -3   9 10.0804 2.58555  45 
   4  -3  -9 10.1791 3.63610  48 
   4  -3  -9 12.9650 3.47547  71 
   4  -3  -9 17.9163 5.32506  79 
  -4  -3   9 13.5361 3.48233  74 
  -4  -3   9 13.8464 4.20948  75 
  -4  -3   9 14.9848 4.72527  27 
  -4  -3   9 13.1695 3.81751  48 
  -4  -3   9 10.6355 3.01112  71 
  -4  -3   9 34.7974 7.71867  24 
  -4  -3   9 13.5418 5.77096  44 
   4   3  -9 14.2852 4.13034   1 
   4   3  -9 12.9746 4.25851  41 
   4   3  -9 10.6350 3.60657   4 
  -4   3   9 13.1967 3.52345  29 
   4   3  -9 11.1857 3.93433   7 
   4   3  -9 14.9769 7.02271  82 
   4   3  -9 9.79579 2.64959  16 
   4   3  -9 14.5667 4.18210  77 
  -4   3   9 18.2056 5.53109   7 
  -4   3   9 9.40655 2.15926   1 
   4   3  -9 13.2590 4.64712  42 
   4   3  -9 16.6557 4.60738  83 
  -4   3   9 14.7123 4.18222  37 
  -4   3   9 11.9794 2.67394  22 
  -4   3   9 10.8097 3.42798  30 
  -4   3   9 14.2276 2.88218   3 
  -4   3   9 11.0754 2.40411  32 
   4   3  -9 9.47296 3.35183  36 
   4   3  -9 9.97517 3.67752  28 
   4   3  -9 12.5438 4.26707  31 
  -4   3   9 11.2298 3.05005  77 
   4   3  -9 10.2578 3.62496  13 
  -4   3   9 11.4914 3.27293  28 
  -4   3   9 13.1860 4.01375  31 
   3  -3  -9 436.195 22.0727  71 
  -3  -3   9 420.680 22.8724  74 
  -3  -3   9 414.681 23.0872  48 
  -3  -3   9 439.197 23.8780  44 
   3  -3  -9 440.190 22.4124  75 
   3  -3  -9 446.919 22.9583  48 
  -3  -3   9 432.718 22.3939  71 
   3  -3  -9 432.058 23.0843  79 
  -3  -3   9 444.327 22.4022  45 
   3  -3  -9 430.272 23.7072  44 
   3   3  -9 428.212 25.0409  82 
   3   3  -9 385.747 22.9942  36 
   3   3  -9 385.943 22.6941  83 
  -3   3   9 497.245 21.9125  77 
  -3   3   9 417.077 22.4413  37 
   3   3  -9 425.414 23.0519  41 
   3   3  -9 462.387 22.3164  77 
   3   3  -9 411.043 23.2881  42 
   2  -3  -9 198.545 12.6636  44 
   2  -3  -9 203.565 12.1444  79 
   2  -3  -9 191.258 11.7182  48 
   2  -3  -9 187.855 10.9240  71 
  -2  -3   9 204.830 12.1204  48 
  -2  -3   9 224.616 11.4071  71 
   2  -3  -9 204.395 11.3445  75 
  -2  -3   9 194.270 12.7518  44 
  -2  -3   9 187.263 11.8519  74 
  -2  -3   9 176.494 11.0539  45 
   2   3  -9 207.586 11.3400  77 
   2   3  -9 184.511 11.8024  83 
   2   3  -9 198.579 15.0063  82 
   2   3  -9 184.706 12.1211  42 
   2   3  -9 209.013 12.4958  41 
  -2   3   9 203.949 11.5955  37 
  -2   3   9 226.895 10.8672  77 
   1  -3  -9 74.0725 5.66116  75 
  -1  -3   9 79.1561 6.27291  74 
   1  -3  -9 80.6092 7.09202  44 
   1  -3  -9 78.3049 6.11455  48 
  -1  -3   9 75.8140 5.54519  45 
  -1  -3   9 82.3649 6.03324  38 
  -1  -3   9 73.1418 7.25816  44 
   1  -3  -9 78.4314 6.81237  79 
  -1  -3   9 76.0841 6.46375  48 
   1  -3  -9 76.9570 5.35999  71 
  -1   3   9 69.0659 6.54512  37 
   1   3  -9 53.9437 9.29189  82 
   1   3  -9 79.0179 6.02351  77 
   1   3  -9 80.8305 6.83142  42 
   1   3  -9 74.3581 6.58155  83 
  -1   3   9 77.9876 5.28069  77 
   0  -3  -9 80.2281 6.09826  48 
   0  -3  -9 74.6944 6.81559  44 
   0  -3   9 80.5350 6.54079  48 
   0  -3  -9 77.9764 5.47090  71 
   0  -3  -9 65.0589 5.45127  45 
   0  -3  -9 81.9070 6.74103  79 
   0  -3  -9 80.7317 5.86020  75 
   0  -3   9 83.3082 5.75605  45 
   0  -3   9 79.3528 7.37049  44 
   0  -3   9 93.2091 6.47954  38 
   0  -3   9 91.0129 6.58649  74 
   0   3  -9 84.6267 6.69251  83 
   0   3  -9 75.1736 5.91841  77 
   0   3   9 86.2144 5.59378  77 
   0   3   9 84.3882 6.26280  37 
   0   3  -9 63.6625 10.0632  82 
   0   3  -9 78.5275 6.73126  42 
   1  -3   9 72.6934 8.34989  79 
   1  -3   9 64.9206 6.35155  27 
   1  -3   9 59.4107 6.17915  75 
  -1  -3  -9 73.3748 6.44152  79 
  -1  -3  -9 65.1813 6.39210  44 
   1  -3   9 78.4785 6.26227  74 
   1  -3   9 68.9944 6.79526  44 
  -1  -3  -9 58.8890 5.29198  75 
   1  -3   9 75.0523 5.38282  45 
  -1  -3  -9 79.1049 5.85722  48 
   1  -3   9 71.7685 5.57104  38 
   1  -3   9 69.4426 5.76776  34 
  -1  -3  -9 53.5181 4.73705  45 
   1  -3   9 54.6400 5.91177  48 
  -1  -3  -9 75.4659 4.97317  71 
  -1   3  -9 60.6461 6.22553  16 
  -1   3  -9 52.0328 7.59034  31 
   1   3   9 63.9256 5.29739  32 
   1   3   9 72.6946 6.58185   3 
   1   3   9 73.9918 5.14377  77 
  -1   3  -9 65.1304 6.00386  83 
   1   3   9 66.7978 5.25368   1 
  -1   3  -9 72.6871 5.33940  77 
   1   3   9 42.6434 6.41701  30 
   1   3   9 56.2003 6.67757  29 
   1   3   9 56.7424 6.62776   7 
  -1   3  -9 62.1191 5.45625   1 
   1   3   9 46.6135 6.46850  28 
  -1   3  -9 69.2387 5.82113   3 
  -1   3  -9 68.5727 6.60739  30 
  -1   3  -9 66.1323 6.41637  17 
   1   3   9 54.5840 5.93146  31 
   1   3   9 75.5575 5.70779  37 
   2  -3   9 13.4648 4.08819  34 
   2  -3   9 15.3661 3.91173  38 
  -2  -3  -9 14.5108 4.38444  79 
   2  -3   9 15.1170 5.32641  24 
   2  -3   9 16.3905 5.22234  79 
   2  -3   9 15.9059 4.15684  74 
  -2  -3  -9 13.4842 3.40402  75 
   2  -3   9 13.6015 3.82087  75 
   2  -3   9 10.4235 3.66375  27 
  -2  -3  -9 13.3169 3.38277  27 
   2  -3   9 17.2842 3.96288  33 
   2   3   9 13.0608 3.51124  28 
  -2   3  -9 9.59577 2.47642   7 
  -2   3  -9 10.2999 2.58206  30 
   2   3   9 11.1444 4.43611  21 
   2   3   9 14.8060 3.56621  77 
  -2   3  -9 12.4973 3.12103  16 
  -2   3  -9 12.7080 2.74957   2 
  -2   3  -9 13.4733 2.50695   4 
  -2   3  -9 6.84836 2.64245  77 
   2   3   9 4.36912 2.14361  31 
   2   3   9 6.67382 2.99389   7 
  -2   3  -9 6.74644 2.90538  14 
  -2   3  -9 13.9884 4.52148  83 
  -2   3  -9 13.0959 3.04521  28 
  -2   3  -9 10.5743 3.09353   3 
  -2   3  -9 12.8500 3.41055  17 
  -2   3  -9 10.7613 3.14033  13 
   2   3   9 12.2960 3.81056  30 
   2   3   9 11.3522 3.33123  29 
  -2   3  -9 11.9463 2.56638  31 
  -2   3  -9 14.7503 3.24530  32 
   2   3   9 9.95156 2.51521   1 
  -2   3  -9 13.3649 3.06480   1 
   2   3   9 10.5582 2.25906   3 
   2   3   9 15.2759 2.82964  32 
   3  -3   9 90.4894 7.23988  34 
   3  -3   9 91.3222 8.88646  79 
   3  -3   9 98.6889 6.70406  38 
  -3  -3  -9 76.0212 7.90167  44 
   3  -3   9 97.7098 6.37428  27 
   3  -3   9 88.9103 7.83133  24 
  -3  -3  -9 90.7857 6.27053  27 
   3  -3   9 95.0982 7.29996  33 
  -3  -3  -9 92.4063 7.40999  79 
  -3  -3  -9 109.677 7.31911  75 
   3  -3   9 108.811 7.81444  75 
  -3   3  -9 87.0103 5.70258   3 
  -3   3  -9 96.9701 6.02563  17 
   3   3   9 89.3477 5.94822   3 
  -3   3  -9 90.3021 5.73167  13 
  -3   3  -9 94.6689 5.49175  16 
   3   3   9 94.2547 6.70892   2 
  -3   3  -9 89.0955 5.81620  28 
  -3   3  -9 84.0618 6.75215   8 
  -3   3  -9 83.8372 6.19511  30 
   3   3   9 80.0370 6.25497  77 
  -3   3  -9 94.8961 7.58673   6 
  -3   3  -9 88.7081 6.30492  77 
  -3   3  -9 94.3809 6.92160  14 
   3   3   9 101.760 7.21484   7 
   3   3   9 96.6053 6.52566  30 
  -3   3  -9 99.7431 7.00971  83 
  -3   3  -9 98.4555 5.80306   1 
  -3   3  -9 94.2638 6.37647   2 
   3   3   9 90.8571 6.35833  31 
   3   3   9 99.6230 5.60328   1 
  -3   3  -9 92.1114 6.29707   7 
   3   3   9 97.6990 5.64598  32 
  -3   3  -9 85.5664 5.86344  32 
  -3   3  -9 90.8801 6.17064  31 
   3   3   9 100.752 6.34725  28 
  -3   3  -9 95.8712 5.96159   4 
   4  -3   9 85.9451 8.23645  79 
   4  -3   9 82.2597 5.95657  27 
   4  -3   9 81.1726 6.71551  34 
  -4  -3  -9 72.4904 6.64196  79 
   4  -3   9 93.1666 6.65016  33 
   4  -3   9 73.1891 7.13251  24 
  -4  -3  -9 82.4572 5.71575  27 
   4   3   9 73.1281 8.30586  40 
   4   3   9 62.2488 6.92917  43 
   4   3   9 77.8075 5.63353  28 
   4   3   9 82.4032 6.19204   2 
   4   3   9 82.0474 4.99186  32 
   4   3   9 88.6008 5.30452   3 
  -4   3  -9 87.2389 5.74811   2 
   4   3   9 78.3591 6.81092   7 
  -4   3  -9 77.6728 5.78512   7 
  -4   3  -9 81.0257 6.28693   8 
  -4   3  -9 79.5596 5.06053   3 
   4   3   9 83.6177 5.89621  30 
  -4   3  -9 80.9010 5.16976  32 
  -4   3  -9 79.5680 5.29690   4 
   4   3   9 80.4382 4.92190   1 
  -4   3  -9 79.1075 6.30566  14 
  -4   3  -9 81.0669 5.27858  17 
   4   3   9 78.9392 6.40524   4 
  -4   3  -9 78.6537 4.63660  16 
  -4   3  -9 79.2950 5.46729  28 
  -4   3  -9 83.4034 5.68145  31 
   4   3   9 81.8202 6.12449  31 
  -4   3  -9 67.1876 5.53046  30 
  -4   3  -9 83.9354 5.06467   1 
  -4   3  -9 78.9547 6.76397   6 
   5  -3   9 120.502 7.64596  20 
  -5  -3  -9 105.763 6.61774  27 
   5  -3   9 112.559 7.28635  19 
   5  -3   9 108.969 7.44486  33 
   5  -3   9 104.443 6.77352  27 
   5  -3   9 92.1348 7.34948  34 
   5  -3   9 118.048 7.93908  24 
   5   3   9 108.538 7.07253  31 
  -5   3  -9 110.453 6.99358   8 
   5   3   9 113.979 6.11046  32 
   5   3   9 108.271 6.83238  28 
   5   3   9 120.612 7.59751   7 
  -5   3  -9 121.625 6.40250  17 
  -5   3  -9 117.543 6.16457   1 
   5   3   9 118.351 8.43244   4 
  -5   3  -9 115.209 6.81513   7 
  -5   3  -9 113.375 6.44048   4 
  -5   3  -9 101.953 7.59873   6 
   5   3   9 110.164 5.91571   1 
  -5   3  -9 108.706 6.61699   2 
  -5   3  -9 107.204 6.68543  30 
   5   3   9 107.773 6.26378   3 
  -5   3  -9 127.353 6.81266  31 
  -5   3  -9 119.282 6.22650  32 
   5   3   9 102.289 6.85484  30 
   5   3   9 101.350 8.30953  15 
  -5   3  -9 108.269 6.20414   3 
  -5   3  -9 116.472 7.24480  14 
  -5   3  -9 100.885 7.38996  25 
   6  -3   9 12.9550 2.51298  27 
  -6  -3  -9 12.6753 2.34032  27 
  -6  -3  -9 17.1252 2.83775  18 
  -6  -3  -9 17.1410 2.99122  19 
   6  -3   9 13.4138 3.27203  19 
   6  -3   9 13.6824 3.54704  20 
   6  -3   9 9.77039 2.94328  33 
   6  -3   9 16.4315 3.34404  18 
   6  -3   9 15.1799 3.47068  24 
  -6  -3  -9 20.8582 3.53459  20 
  -6   3  -9 9.45958 1.73207   3 
  -6   3  -9 14.8929 2.03997  17 
  -6   3  -9 14.2187 2.48631   4 
  -6   3  -9 12.3174 2.86616   8 
  -6   3  -9 16.0453 2.65684  30 
   6   3   9 14.5201 3.15646  31 
  -6   3  -9 13.7977 2.99362  14 
  -6   3  -9 12.9746 2.32195   2 
   6   3   9 17.9590 3.42971   7 
  -6   3  -9 15.6462 3.61434   6 
  -6   3  -9 11.4925 2.51059  31 
  -6   3  -9 13.4131 2.58010   7 
  -6   3  -9 12.2434 1.44190  32 
  -6   3  -9 10.9993 3.22606  25 
   6   3   9 9.56543 3.71338  15 
   6   3   9 4.33625 1.85675  30 
   6   3   9 14.2991 2.35627   3 
  -8  -4   9 84.2099 5.83487  20 
  -8  -4   9 56.5077 4.72777  24 
   8  -4  -9 73.1535 4.41648  27 
  -8  -4   9 55.3653 4.36018  19 
  -8  -4   9 48.9727 3.74915  27 
   8  -4  -9 66.9107 5.10557  24 
   8   4  -9 55.1782 4.28515  31 
  -8   4   9 60.2516 3.81369  28 
   8   4  -9 59.4372 4.39573   7 
  -8   4   9 65.4344 3.83830  22 
   8   4  -9 57.3865 4.00542  17 
   8   4  -9 65.4933 4.77498  15 
  -8   4   9 65.4129 3.83958  29 
   8   4  -9 62.5298 4.39479  30 
   8   4  -9 72.9800 4.80733  28 
  -7  -4   9 133.042 6.67791  27 
   7  -4  -9 113.722 6.77217  27 
  -7  -4   9 103.905 7.44177  24 
   7   4  -9 124.964 7.86885  15 
  -7   4   9 118.336 6.27475  22 
   7   4  -9 94.6601 6.48838  28 
   7   4  -9 90.9603 7.52564  36 
  -7   4   9 113.232 6.24997  29 
   7   4  -9 97.5389 6.78195  31 
  -7   4   9 107.867 6.23150  28 
   7   4  -9 103.197 7.03402   7 
   7   4  -9 101.108 6.88653  30 
  -6  -4   9 99.9329 8.10125  24 
  -6  -4   9 85.7503 6.13052  27 
   6   4  -9 98.6684 6.84627  39 
   6   4  -9 88.5217 5.04558  32 
   6   4  -9 84.4350 6.60868  30 
   6   4  -9 79.9511 5.22477   3 
  -6   4   9 97.4405 5.76962  22 
   6   4  -9 93.8914 7.84678  36 
  -6   4   9 95.5430 5.60143  29 
  -6   4   9 82.8183 5.07485  30 
   6   4  -9 100.312 10.5081  15 
   6   4  -9 96.8195 6.63258   7 
   6   4  -9 92.4575 6.50293  31 
  -6   4   9 90.6123 5.66463  28 
   6   4  -9 100.054 6.10347  28 
  -5  -4   9 8.05757 3.56962  24 
  -5  -4   9 5.36454 2.30376  27 
   5   4  -9 8.22421 1.81343  32 
  -5   4   9 3.22007 1.85969  22 
  -5   4   9 7.72386 1.86763  29 
   5   4  -9 8.16710 1.84804   3 
   5   4  -9 3.69233 3.41775  36 
   5   4  -9 9.06428 3.98539  42 
   5   4  -9 6.42725 2.48611  28 
   5   4  -9 4.22107 6.89899  82 
   5   4  -9 12.7845 4.44912  41 
   5   4  -9 7.30208 1.88127   1 
  -5   4   9 9.76475 2.95162  28 
   5   4  -9 8.76500 2.94118  31 
   5   4  -9 6.08336 3.21826  39 
   5   4  -9 14.5209 4.50043   7 
   5   4  -9 9.72317 2.84560  30 
  -5   4   9 7.29410 2.22371  30 
  -4  -4   9 85.9925 6.21745  27 
   4   4  -9 78.4140 7.70582  36 
   4   4  -9 83.2816 7.40306  42 
  -4   4   9 78.3478 5.25851  28 
  -4   4   9 77.9157 5.06821  29 
   4   4  -9 83.0504 6.07353  30 
  -4   4   9 66.2039 6.26641  37 
   4   4  -9 83.1550 5.14602   3 
   4   4  -9 85.6530 6.51965   7 
  -4   4   9 77.4189 5.60526  22 
   4   4  -9 79.8730 5.67265  28 
  -4   4   9 79.0573 4.94762  30 
   4   4  -9 90.1739 6.18197  31 
   4   4  -9 81.1919 6.20275  17 
   4   4  -9 89.3867 7.51793  41 
   4   4  -9 77.2774 5.30631  77 
   4   4  -9 87.9703 9.89974  82 
   4   4  -9 79.8355 6.64210  39 
   4   4  -9 84.3102 4.99001  32 
   4   4  -9 71.2741 5.82686  29 
   4   4  -9 84.1278 4.71530   1 
  -3  -4   9 124.912 9.71124  44 
   3  -4  -9 119.803 8.98024  44 
  -3  -4   9 106.856 7.54123  27 
   3   4  -9 110.616 6.37117  32 
   3   4  -9 110.665 7.63018   7 
   3   4  -9 126.403 11.5135  82 
   3   4  -9 108.612 8.87966  36 
   3   4  -9 113.837 7.46650  31 
   3   4  -9 116.332 7.37891  30 
  -3   4   9 120.756 6.46867  30 
   3   4  -9 121.194 7.18196  29 
  -3   4   9 112.068 6.54501  29 
  -3   4   9 110.654 8.04796  37 
   3   4  -9 109.622 7.00642  28 
   3   4  -9 111.621 8.70708  42 
  -3   4   9 107.837 6.74678  28 
   3   4  -9 113.753 6.17227   1 
   3   4  -9 109.697 6.67888  77 
   3   4  -9 121.808 6.53711   3 
   2  -4  -9 258.229 15.1811  44 
  -2  -4   9 251.735 14.0798  27 
  -2  -4   9 262.976 15.5523  44 
   2   4  -9 262.043 13.2973   3 
   2   4  -9 259.345 13.0450   1 
   2   4  -9 261.631 13.7814  29 
   2   4  -9 260.179 15.1588  42 
   2   4  -9 261.905 16.8038  82 
  -2   4   9 258.641 14.4170  37 
  -2   4   9 256.019 13.4722  29 
   2   4  -9 255.460 13.9540  30 
   2   4  -9 274.105 13.5306  77 
   2   4  -9 262.267 13.1872  32 
   2   4  -9 265.830 14.0711   7 
  -2   4   9 244.492 15.1043  21 
  -2   4   9 255.706 13.3382  30 
  -2   4   9 263.680 13.5705  28 
   2   4  -9 265.700 13.6925  28 
  -1  -4   9 56.4529 5.50349  38 
  -1  -4   9 56.7914 4.93894  27 
   1  -4  -9 51.1888 5.53053  44 
  -1  -4   9 45.6438 5.92846  44 
  -1   4   9 48.1886 5.77190  37 
  -1   4   9 48.2136 7.17819  21 
   1   4  -9 54.8118 4.37722  28 
   1   4  -9 56.4102 3.69032   3 
  -1   4   9 49.3241 3.78887  30 
   1   4  -9 50.6258 4.42986  29 
   1   4  -9 55.8168 3.93699  77 
   1   4  -9 52.8984 4.80452  31 
   1   4  -9 51.7205 3.25487   1 
   1   4  -9 56.5054 4.80610  30 
   1   4  -9 55.1285 3.50339  32 
   1   4  -9 55.3178 6.07991  42 
  -1   4   9 51.3750 3.86792  29 
   1   4  -9 45.7027 5.01354   7 
  -1   4   9 52.7238 4.19203  28 
   1   4  -9 54.3036 9.40356  82 
   0  -4   9 111.218 7.38063  38 
   0  -4  -9 100.478 7.89637  44 
   0  -4   9 102.057 8.20645  44 
   0  -4   9 104.299 6.99862  27 
   0   4  -9 108.754 6.74098  30 
   0   4  -9 105.599 6.89791   7 
   0   4  -9 109.675 6.78935  31 
   0   4  -9 106.110 5.74766  32 
   0   4  -9 103.466 6.42584  29 
   0   4  -9 109.115 5.56827   1 
   0   4   9 115.821 6.55925  28 
   0   4  -9 107.080 6.05746  77 
   0   4  -9 116.207 10.7055  82 
   0   4   9 117.282 7.64132  37 
   0   4   9 100.268 6.27842  29 
   0   4  -9 102.126 6.44296  28 
   0   4   9 117.608 9.15859  21 
   0   4  -9 100.267 7.97894  42 
   0   4  -9 107.868 5.93905   3 
   0   4   9 103.473 6.22268  30 
   1  -4   9 16.2829 3.90464  38 
   1  -4   9 4.94652 2.01738  27 
   1  -4   9 14.2813 4.16326  34 
   1  -4   9 10.3167 4.06108  33 
  -1   4  -9 15.2262 2.42904  77 
  -1   4  -9 9.99398 2.23896   7 
   1   4   9 11.3750 2.82019  30 
  -1   4  -9 16.6645 2.80601  28 
   1   4   9 8.06692 3.58111  37 
   1   4   9 11.7266 4.42972  21 
  -1   4  -9 12.0736 3.18238  30 
  -1   4  -9 9.27347 2.08841  31 
  -1   4  -9 13.8578 4.43395  14 
  -1   4  -9 10.7390 3.06378  29 
   1   4   9 10.4352 2.94130  28 
  -1   4  -9 2.74933 2.87752  42 
  -1   4  -9 11.2888 1.68569  32 
  -1   4  -9 12.8372 2.68601   3 
  -1   4  -9 14.2514 3.87002  35 
   2  -4   9 27.8064 5.28392  33 
   2  -4   9 30.6032 3.73656  27 
   2  -4   9 26.6624 4.53272  34 
  -2   4  -9 30.1962 3.40021  30 
  -2   4  -9 33.1072 3.14339  35 
   2   4   9 35.9627 5.95311  21 
   2   4   9 32.2521 3.40817  29 
  -2   4  -9 27.2787 3.19141  28 
   2   4   9 33.6078 3.62485  28 
   2   4   9 28.5487 3.54767  31 
  -2   4  -9 32.5220 3.45919  29 
   2   4   9 31.2589 3.38937  30 
  -2   4  -9 32.3287 3.42961  31 
  -2   4  -9 26.8759 4.48790  42 
  -2   4  -9 31.4211 3.86662  17 
  -2   4  -9 36.0691 3.86511   7 
  -2   4  -9 26.2318 4.60608  14 
  -3  -4  -9 25.8660 3.25093  27 
   3  -4   9 18.5140 4.09369  34 
   3  -4   9 22.2098 4.40922  33 
   3  -4   9 21.5263 5.00575  24 
   3  -4   9 22.1142 3.55033  27 
   3   4   9 24.0798 3.19075  29 
   3   4   9 21.3007 3.19731  31 
  -3   4  -9 18.1104 2.81517  17 
   3   4   9 13.1461 2.83006   7 
   3   4   9 21.1575 2.94511  30 
  -3   4  -9 14.3550 4.14726   8 
   3   4   9 20.5034 3.26905  28 
  -3   4  -9 18.4186 3.27690  28 
  -3   4  -9 22.1478 2.93413  29 
  -3   4  -9 25.0030 2.86612  31 
  -3   4  -9 19.4277 2.46300  35 
  -3   4  -9 16.1461 4.07889  14 
  -3   4  -9 19.3992 2.89029  30 
  -3   4  -9 25.4205 3.49239   7 
   4  -4   9 70.7524 5.92745  24 
   4  -4   9 65.7153 4.87984  27 
   4  -4   9 75.2377 5.46688  33 
  -4  -4  -9 71.6468 4.59726  27 
  -4   4  -9 61.2460 5.12169   8 
  -4   4  -9 66.9972 4.33045  31 
  -4   4  -9 70.0072 5.25760  14 
  -4   4  -9 70.0879 4.43389   7 
   4   4   9 75.9887 4.86735  28 
   4   4   9 66.1155 4.39350  31 
  -4   4  -9 67.7588 3.75793  35 
  -4   4  -9 65.3199 5.42691  25 
   4   4   9 63.7459 5.18785   7 
  -4   4  -9 62.9960 4.29089  17 
  -4   4  -9 67.3883 4.38760  30 
  -4   4  -9 66.0604 3.81692  35 
   4   4   9 65.6397 4.58727  29 
   4   4   9 66.7565 4.38760  30 
  -4   4  -9 75.2200 4.38196  28 
  -5  -4  -9 66.1783 3.92490  27 
   5  -4   9 61.4934 4.99277  24 
   5  -4   9 62.1412 4.12820  27 
  -5   4  -9 55.8231 3.70391   7 
   5   4   9 60.6998 3.64683  30 
   5   4   9 60.9484 4.13790   7 
   5   4   9 59.1550 3.94555  29 
   5   4   9 58.6577 5.37555  15 
  -5   4  -9 59.9267 4.31092  14 
  -5   4  -9 56.4093 3.64137  30 
   5   4   9 65.5666 3.94473  28 
  -5   4  -9 60.8475 3.76632  28 
  -5   4  -9 60.5129 3.62149  31 
  -5   4  -9 58.1148 4.10058   8 
  -5   4  -9 56.2690 4.45835  25 
  -5   4  -9 59.6866 4.78262   6 
  -5   4  -9 57.0827 3.64812  17 
  -6  -5   9 33.3914 2.95368  27 
  -6  -5   9 30.2015 4.28453  24 
  -6   5   9 25.9273 1.97985  29 
   6   5  -9 24.3662 2.36660  28 
  -6   5   9 24.8984 2.53922  28 
  -6   5   9 29.9562 1.94123  11 
   6   5  -9 31.0818 2.94691  17 
   6   5  -9 21.2328 4.91677  15 
  -6   5   9 28.3525 2.06119  26 
   6   5  -9 26.4290 2.69660  29 
  -5  -5   9 13.7863 2.89248  27 
  -5  -5   9 15.2192 4.29311  24 
  -5   5   9 13.6675 1.77571  29 
   5   5  -9 13.7998 2.75203  29 
  -5   5   9 13.9485 1.77397  26 
  -5   5   9 16.0465 1.68615  11 
  -5   5   9 13.0047 2.28473  28 
   5   5  -9 9.15639 1.68734  30 
   5   5  -9 13.3135 2.52357  28 
   5   5  -9 15.2732 3.29134  17 
  -4  -5   9 12.3016 3.17212  27 
   4   5  -9 13.5138 2.80231  28 
   4   5  -9 12.3785 4.54535  36 
   4   5  -9 8.56528 1.97896  30 
  -4   5   9 16.5328 1.91371  26 
   4   5  -9 15.6262 2.99862  29 
  -4   5   9 13.2427 1.77159  11 
  -4   5   9 10.8505 1.83559  29 
  -3  -5   9 9.47820 3.18746  27 
  -3   5   9 9.46860 1.65250  11 
  -3   5   9 8.07330 1.81694  29 
   3   5  -9 9.69998 2.94587  36 
   3   5  -9 11.1552 2.65664  29 
   3   5  -9 10.4799 2.21252  30 
   3   5  -9 9.78620 2.61553  28 
  -3   5   9 5.57640 2.90706  37 
  -3   5   9 12.0306 1.93415  26 
  -2  -5   9 8.63396 2.94652  27 
  -2  -5   9 0.26056 2.39805  38 
   2   5  -9 4.27479 1.32163  30 
  -2   5   9 5.27213 1.29535  26 
  -2   5   9 6.17806 1.85987  29 
   2   5  -9 4.49322 2.73121  36 
  -2   5   9 4.58910 1.27180  11 
   2   5  -9 9.05490 2.63961  29 
  -2   5   9 7.03098 3.25788  21 
   2   5  -9 4.38307 1.72309  28 
  -2   5   9 4.59601 2.99251  37 
  -1  -5   9 135.115 8.53904  38 
  -1  -5   9 159.278 8.83041  27 
  -1   5   9 128.946 9.45636  21 
  -1   5   9 134.853 7.82023  28 
   1   5  -9 141.724 7.62715  30 
  -1   5   9 152.799 7.69722  11 
   1   5  -9 156.254 7.98102  28 
  -1   5   9 151.541 7.77022  29 
   1   5  -9 155.336 7.97292  29 
  -1   5   9 153.870 9.06548  37 
   0  -5   9 3.49827 1.92862  34 
   0  -5   9 8.66839 2.70973  27 
   0   5   9 7.75375 1.76097  11 
   0   5   9 7.79459 2.20090  28 
   0   5   9 5.12965 3.38194  21 
   0   5   9 8.46011 2.14941  29 
   0   5  -9 6.89552 1.70258  30 
   0   5  -9 8.61985 1.67969  29 
   0   5   9 9.73519 3.08433  37 
   0   5  -9 7.28892 1.62362  28 
   1  -5   9 27.0410 3.00085  27 
   1  -5   9 26.2570 4.03651  34 
  -1   5  -9 32.7102 2.79520  29 
   1   5   9 28.9238 2.74398  29 
   1   5   9 28.3382 2.37667  11 
   1   5   9 34.0103 5.78912  21 
   1   5   9 26.8868 3.90080  37 
   1   5   9 27.6964 2.77915  28 
  -1   5  -9 27.6630 2.62291  28 
   2  -5   9 35.3059 3.06342  27 
   2   5   9 31.2250 2.80303  29 
   2   5   9 35.2374 2.71792  11 
   2   5   9 39.0342 4.66132  21 
  -2   5  -9 32.0517 2.83687  28 
   2   5   9 33.3524 2.88804  28 
  -2   5  -9 38.9968 2.90282  29 
   3  -5   9 15.5461 2.35115  27 
   3  -5   9 8.75770 2.60885  24 
  -3  -5  -9 15.0209 2.24767  27 
  -3   5  -9 12.4911 1.89364  29 
   3   5   9 13.1341 1.90738  29 
   3   5   9 13.2001 2.05919  28 
   3   5   9 16.5598 1.88072  11 
  -3   5  -9 13.4666 1.73168  28 
 -10   0  10 32.0404 3.70776   4 
  10   0 -10 26.2649 3.77732  20 
  10   0 -10 29.9297 3.43271  18 
 -10   0  10 31.2493 3.53997  13 
 -10   0  10 33.8889 3.92162   2 
 -10   0  10 31.2010 3.11919  16 
  10   0 -10 28.4031 4.26749  19 
   9   0 -10 353.646 19.2958  20 
  -9   0  10 364.556 19.0874  14 
  -9   0  10 340.411 19.2211   2 
  -9   0  10 392.431 19.2337   4 
  -9   0  10 392.594 19.0991  13 
   9   0 -10 369.231 18.9458  19 
   9   0 -10 359.036 19.0078  18 
  -8   0  10 7.85645 3.43318   2 
  -8   0  10 5.32053 4.71001  83 
  -8   0  10 8.08487 3.33805   4 
   8   0 -10 4.47601 2.60058  81 
  -8   0  10 8.42850 3.09261  13 
  -8   0  10 11.6968 3.48498  14 
   8   0 -10 7.41207 3.43825  18 
   8   0 -10 11.4646 3.52649  19 
   8   0 -10 8.98349 3.78507  20 
  -7   0  10 100.786 7.40632  14 
  -7   0  10 102.342 7.81773  78 
   7   0 -10 96.8273 8.36112  19 
  -7   0  10 102.101 7.57065   4 
  -7   0  10 120.908 7.48824  15 
   7   0 -10 101.507 7.90697  18 
  -7   0  10 125.758 9.58351  83 
  -7   0  10 102.099 8.14481  18 
  -7   0  10 112.897 8.14770  13 
   7   0 -10 110.631 11.0718  76 
   7   0 -10 93.4625 10.0120  81 
   7   0 -10 95.9941 8.74409  20 
   7   0 -10 96.4461 7.77735  78 
  -7   0  10 105.169 8.31365   2 
   6   0 -10 114.024 15.9975  72 
  -6   0  10 130.244 8.74734  15 
  -6   0  10 121.211 9.64977  83 
   6   0 -10 140.722 9.09986  78 
  -6   0  10 123.669 9.01308   4 
  -6   0  10 144.408 9.19875  19 
  -6   0  10 137.403 8.91544  18 
  -6   0  10 102.615 9.01338  13 
   6   0 -10 139.491 9.78291  18 
  -6   0  10 117.556 8.75199  78 
  -6   0  10 108.940 9.22947   2 
  -6   0  10 138.441 7.99036  81 
  -6   0  10 122.211 8.56573  14 
   6   0 -10 135.873 12.6673  76 
   6   0 -10 130.139 9.97759  20 
   6   0 -10 133.238 8.82834  45 
  -6   0  10 110.175 9.50479  20 
   6   0 -10 108.547 9.48253  19 
   6   0 -10 138.504 10.0789  24 
  -6   0  10 143.349 9.02245  74 
   5   0 -10 403.940 21.3964  75 
   5   0 -10 389.063 21.4263  45 
   5   0 -10 423.960 21.6426  78 
   5   0 -10 389.099 30.2423  72 
  -5   0  10 420.308 21.2827  81 
  -5   0  10 423.299 21.8019  74 
  -5   0  10 396.382 22.3538  83 
  -5   0  10 397.270 21.6018  78 
  -5   0  10 407.222 22.2921  76 
   5   0 -10 388.401 22.2687  79 
   4   0 -10 87.7267 6.28460  75 
   4   0 -10 81.1383 6.50040  78 
   4   0 -10 62.3264 7.63135  79 
  -4   0  10 79.7710 8.00231  83 
  -4   0  10 78.9007 9.31919  76 
  -4   0  10 79.4537 6.71313  78 
  -4   0  10 79.1796 6.18265  74 
   4   0 -10 72.3310 6.34352  45 
   4   0 -10 65.6677 5.61695  71 
  -4   0  10 84.3961 6.69541  81 
  -3   0  10 31.0976 5.92771  83 
  -3   0  10 34.0615 4.91421  78 
  -3   0  10 26.7278 4.67808  81 
  -3   0  10 37.3956 4.18300  74 
  -3   0  10 23.6939 15.6195  72 
   3   0 -10 29.9220 5.20776  79 
   3   0 -10 30.6500 4.11945  71 
  -3   0  10 42.3704 8.76283  76 
  -3   0  10 33.4182 10.4171  73 
   3   0 -10 28.4698 4.38636  45 
   3   0 -10 28.3305 5.09839  78 
   3   0 -10 26.7943 4.89390  75 
   2   0 -10 71.4216 5.35767  45 
  -2   0  10 63.8246 6.43695  81 
   2   0 -10 69.4386 6.03978  75 
   2   0 -10 60.2268 5.77730  78 
   2   0 -10 65.6495 6.49059  79 
  -2   0  10 62.5258 6.20173  78 
  -2   0  10 89.0345 10.5213  76 
   2   0 -10 72.5253 5.56966  71 
  -2   0  10 71.8624 7.85213  83 
  -2   0  10 95.3610 19.5204  72 
  -1   0  10 291.107 16.1072  81 
   1   0 -10 290.520 15.3629  71 
   1   0 -10 273.176 15.2083  45 
  -1   0  10 259.236 15.7133  78 
   1   0 -10 285.375 15.6833  78 
  -1   0  10 264.589 16.6948  83 
  -1   0  10 317.624 26.6216  72 
   1   0 -10 263.403 16.0754  79 
   1   0 -10 289.060 15.5470  75 
  -1   0  10 309.525 20.1450  76 
   0   0 -10 204.487 11.1233  45 
   0   0  10 187.930 12.0184  81 
   0   0 -10 189.467 11.2795  75 
   0   0 -10 194.735 12.2011  79 
   0   0 -10 178.129 12.5316  71 
   0   0  10 201.550 12.6266  83 
   0   0  10 207.911 16.9327  76 
   0   0 -10 174.669 11.2082  78 
   0   0  10 215.695 12.0032  78 
   1   0  10 407.371 32.1870  72 
   1   0  10 342.560 19.1348  78 
  -1   0 -10 320.556 18.2538  45 
  -1   0 -10 364.243 18.9176  78 
   1   0  10 338.355 18.4988  38 
   1   0  10 350.262 23.1123  76 
   1   0  10 357.345 19.9089  83 
  -1   0 -10 326.376 22.1748  76 
   1   0  10 335.714 19.2106  81 
   2   0  10 111.169 9.29455  83 
   2   0  10 102.200 8.48646  78 
   2   0  10 114.110 7.89284  38 
  -2   0 -10 104.544 11.4572  76 
   2   0  10 119.691 8.75630  81 
  -2   0 -10 106.745 7.96017  78 
  -3   0 -10 367.398 19.8592  20 
   3   0  10 405.341 20.5903   2 
   3   0  10 363.591 19.8947  15 
   3   0  10 394.250 20.5619  34 
   3   0  10 379.116 20.0342  38 
  -3   0 -10 386.326 20.4097   6 
   3   0  10 388.065 19.9470   4 
  -3   0 -10 397.429 23.2721  76 
   3   0  10 375.767 20.0595  40 
   3   0  10 375.022 20.5216  81 
   3   0  10 364.787 20.6017  78 
  -3   0 -10 363.730 19.9970   5 
  -3   0 -10 366.161 19.6840  18 
   3   0  10 379.532 19.5886  19 
   3   0  10 388.755 20.0868  20 
  -3   0 -10 388.478 20.4294  78 
  -3   0 -10 364.992 19.4795  19 
   3   0  10 360.200 19.6590  18 
   4   0  10 -1.2261 3.57457  38 
  -4   0 -10 -2.2795 2.24885  20 
  -4   0 -10 0.11144 2.13709  18 
  -4   0 -10 -2.5874 2.59002   5 
   4   0  10 0.96493 2.78033  18 
   4   0  10 0.19464 2.22190  19 
  -4   0 -10 1.62082 1.78096  76 
   4   0  10 2.25125 3.56311  78 
   4   0  10 -0.4697 3.14988   4 
  -4   0 -10 2.41652 3.28307  78 
   4   0  10 1.79505 2.72409  40 
  -4   0 -10 3.35145 2.98380   6 
   4   0  10 6.19380 3.62063   2 
  -4   0 -10 -0.5119 1.92136  19 
   4   0  10 0.63411 2.37818  81 
   4   0  10 0.38267 2.69633  34 
   4   0  10 -1.1233 2.75747  20 
  -5   0 -10 62.2693 5.80211   6 
  -5   0 -10 55.8363 4.45858  19 
   5   0  10 49.2896 6.33859   2 
  -5   0 -10 56.2881 4.39997  18 
   5   0  10 51.2383 5.63140  38 
   5   0  10 48.6888 5.45297  34 
  -5   0 -10 55.3875 4.95764   8 
   5   0  10 46.4307 5.25105  40 
   5   0  10 43.4653 5.18662  19 
  -5   0 -10 59.2796 5.49267   5 
   5   0  10 46.7052 5.24813  20 
   5   0  10 58.7420 5.59818   4 
  -5   0 -10 52.1080 4.98983  20 
   5   0  10 47.2695 4.91626  18 
   6   0  10 122.591 8.26655  38 
   6   0  10 102.913 6.96514   4 
  -6   0 -10 95.0172 6.03778  18 
  -6   0 -10 116.631 6.45785   8 
  -6   0 -10 96.3207 6.45302  13 
   6   0  10 98.2780 6.92426  13 
  -6   0 -10 100.244 6.88148   5 
  -6   0 -10 100.396 6.45697  20 
   7   0  10 42.4639 3.95230  13 
   7   0  10 44.1294 4.32339   4 
  -7   0 -10 47.9996 3.86254   5 
  -7   0 -10 46.6123 3.56332  13 
  -7   0 -10 45.8689 3.34911   8 
 -10  -1  10 1.56460 1.67118  13 
  10  -1 -10 0.09962 1.48992  19 
  10  -1 -10 4.64460 2.10380  20 
  10  -1 -10 2.89497 2.12090  18 
 -10   1  10 1.63643 1.18555   3 
  10   1 -10 7.49276 2.35363   4 
 -10   1  10 1.97611 1.43840  32 
 -10   1  10 0.76743 1.80584   2 
 -10   1  10 -2.1145 1.67675   4 
 -10   1  10 2.79618 1.10965   1 
 -10   1  10 2.32509 0.88994  16 
  10   1 -10 4.78591 2.10992  13 
 -10   1  10 2.52572 1.74789  14 
 -10   1  10 0.29056 1.53256  31 
 -10   1  10 2.87314 1.93370   7 
   9  -1 -10 6.13317 2.85676  19 
  -9  -1  10 4.03300 2.38704  18 
   9  -1 -10 7.04819 2.98082  18 
  -9  -1  10 6.51878 2.39671  20 
   9  -1 -10 6.56851 3.17965  20 
  -9   1  10 6.46533 2.61111  14 
  -9   1  10 5.74339 2.66717   7 
  -9   1  10 6.38583 1.90248  16 
  -9   1  10 5.37150 2.28424  31 
  -9   1  10 4.61241 2.55376   4 
  -9   1  10 10.8461 3.08297   1 
  -9   1  10 14.7967 3.28136  15 
   9   1 -10 10.5929 3.23557   4 
  -9   1  10 4.47542 2.63077   2 
  -9   1  10 5.53339 2.03011  13 
  -9   1  10 11.4815 3.37197   3 
   9   1 -10 8.23280 3.00456  13 
   8  -1 -10 41.6017 6.49618  20 
   8  -1 -10 37.8983 5.67327  33 
  -8  -1  10 41.3083 4.80894  19 
   8  -1 -10 39.9276 6.77713  79 
   8  -1 -10 36.0845 5.69388  24 
  -8  -1  10 40.9241 4.29229  81 
   8  -1 -10 25.2023 5.87940  19 
  -8  -1  10 45.3801 5.51493  20 
  -8  -1  10 49.6887 5.38914  18 
   8  -1 -10 38.9562 5.77231  18 
   8  -1 -10 46.9273 6.26870  27 
  -8   1  10 35.0684 5.47775   2 
  -8   1  10 39.7757 5.37790   4 
   8   1 -10 42.9871 6.08758  41 
   8   1 -10 38.7346 7.40916  42 
   8   1 -10 50.1762 5.23492  18 
  -8   1  10 45.3776 4.71555   3 
   8   1 -10 45.0647 5.85533   4 
   8   1 -10 43.5114 6.31735  13 
  -8   1  10 41.4338 5.08925  13 
  -8   1  10 48.1465 5.40850  14 
  -8   1  10 44.4036 5.31211  15 
   8   1 -10 45.4932 6.32385  83 
  -8   1  10 48.5684 4.41617  16 
  -8   1  10 41.5220 6.17641  83 
   8   1 -10 51.1248 5.68836  20 
  -8   1  10 42.1496 5.69164   7 
  -8   1  10 41.4204 5.22239  31 
   7  -1 -10 38.7759 6.33200  79 
  -7  -1  10 38.9163 5.19718  18 
   7  -1 -10 30.8905 6.53160  19 
   7  -1 -10 26.4185 5.15296  75 
  -7  -1  10 45.5158 7.92428  76 
   7  -1 -10 36.6377 6.53274  20 
  -7  -1  10 30.3012 5.72876  78 
   7  -1 -10 33.0510 6.51403  24 
   7  -1 -10 35.9791 5.18304  27 
  -7  -1  10 38.5084 5.48952  81 
  -7  -1  10 37.9478 5.46957  20 
  -7  -1  10 43.5396 5.46443  14 
   7  -1 -10 29.5690 6.25381  33 
  -7  -1  10 36.1477 5.39382  19 
   7  -1 -10 40.9606 6.06893  18 
  -7   1  10 39.1487 4.89073   3 
   7   1 -10 40.1156 5.13009  78 
   7   1 -10 34.9670 4.32845  81 
  -7   1  10 33.8717 5.78376   2 
   7   1 -10 38.9871 5.98086  41 
   7   1 -10 38.9445 5.46629  18 
  -7   1  10 38.7446 5.56389   7 
   7   1 -10 40.6981 5.95578  20 
  -7   1  10 36.3327 6.04925  15 
   7   1 -10 45.6648 7.50853  13 
  -7   1  10 37.3671 6.53309  83 
   7   1 -10 33.0407 5.23251  19 
  -7   1  10 41.0889 5.19499  13 
   7   1 -10 37.8617 5.77564  42 
  -7   1  10 30.9972 4.98186  31 
  -7   1  10 37.7048 5.22446   4 
   7   1 -10 29.6112 6.72504  83 
  -7   1  10 30.6261 4.68635  16 
  -7   1  10 38.2784 5.35808  14 
   7   1 -10 32.2612 5.94557   4 
  -6  -1  10 76.4904 6.72043  78 
   6  -1 -10 68.9277 7.49140  79 
  -6  -1  10 58.6374 5.35028  74 
   6  -1 -10 55.0891 7.16965  19 
  -6  -1  10 57.0453 5.95866  18 
  -6  -1  10 69.6099 10.5995  76 
  -6  -1  10 61.2175 6.34183  81 
   6  -1 -10 53.5868 6.86901  33 
  -6  -1  10 63.2155 6.38428  19 
   6  -1 -10 64.4692 7.14782  24 
   6  -1 -10 59.4346 5.89205  75 
  -6  -1  10 56.9023 5.77229  14 
   6  -1 -10 58.7553 6.07346  27 
   6  -1 -10 59.0239 6.85446  18 
   6  -1 -10 71.8944 7.35485  20 
  -6  -1  10 65.3523 6.29517  20 
  -6   1  10 64.9435 6.42333   7 
   6   1 -10 59.8805 6.06908  81 
  -6   1  10 56.2630 6.26105   2 
  -6   1  10 60.0556 7.05670  15 
  -6   1  10 50.0119 5.72543  31 
   6   1 -10 57.6109 6.94802  83 
  -6   1  10 62.6889 6.25057  14 
   6   1 -10 61.6352 6.65466  18 
   6   1 -10 54.1332 6.45583   4 
   6   1 -10 65.6736 6.34212  19 
  -6   1  10 63.0160 6.16911  13 
   6   1 -10 65.3889 6.83053  41 
   6   1 -10 66.6793 6.29351  78 
   6   1 -10 58.3817 7.21897  20 
  -6   1  10 58.1970 5.93102   4 
  -6   1  10 62.8376 7.20402  83 
   5  -1 -10 102.793 6.82415  71 
  -5  -1  10 99.2838 7.85797  78 
   5  -1 -10 100.259 8.72819  79 
  -5  -1  10 89.0802 21.6561  72 
  -5  -1  10 100.335 8.64779  45 
   5  -1 -10 97.0552 7.28720  75 
  -5  -1  10 94.5352 11.8416  76 
   5  -1 -10 108.995 8.18725  33 
  -5  -1  10 100.455 7.46046  74 
   5  -1 -10 92.7900 6.91404  45 
   5   1 -10 91.1500 7.39065  41 
   5   1 -10 104.063 7.43485  78 
  -5   1  10 99.6538 8.51969  83 
   5   1 -10 86.4704 9.07036  76 
  -5   1  10 101.290 7.99000  78 
   5   1 -10 92.8114 7.38872  81 
   5   1 -10 91.3684 8.84631  83 
  -4  -1  10 170.364 10.1927  74 
  -4  -1  10 156.440 9.41914  45 
   4  -1 -10 153.365 9.94821  75 
  -4  -1  10 156.749 10.1582  78 
   4  -1 -10 156.948 9.81099  45 
  -4  -1  10 140.726 15.3971  76 
   4  -1 -10 156.592 9.49921  71 
   4  -1 -10 141.542 10.5941  48 
   4  -1 -10 152.206 10.6344  79 
  -4  -1  10 191.165 27.0880  72 
   4   1 -10 158.329 17.4456  72 
   4   1 -10 144.521 9.91350  41 
  -4   1  10 169.840 11.0418  83 
   4   1 -10 152.113 11.8134  76 
   4   1 -10 162.580 9.92428  78 
  -4   1  10 174.873 9.71363  78 
   4   1 -10 162.052 10.8115  83 
   3  -1 -10 210.886 11.8477  45 
   3  -1 -10 180.897 12.4180  48 
   3  -1 -10 196.197 11.4631  71 
   3  -1 -10 233.635 12.2116  75 
  -3  -1  10 244.502 28.7777  72 
  -3  -1  10 242.743 12.4985  74 
   3  -1 -10 192.937 12.6444  79 
  -3  -1  10 210.216 12.0666  71 
  -3  -1  10 216.905 12.5795  78 
  -3  -1  10 206.492 11.6452  45 
  -3   1  10 186.098 12.5865  83 
   3   1 -10 194.500 12.0730  41 
   3   1 -10 228.539 12.2125  78 
   3   1 -10 203.522 14.4614  76 
  -3   1  10 202.303 11.7985  78 
   3   1 -10 185.264 16.6836  72 
   3   1 -10 213.926 12.8192  83 
  -2  -1  10 66.4878 5.58358  74 
  -2  -1  10 52.9744 4.72911  71 
   2  -1 -10 57.5330 6.46268  79 
   2  -1 -10 66.2262 5.26546  71 
   2  -1 -10 59.3841 5.77917  48 
   2  -1 -10 55.5657 5.55876  75 
  -2  -1  10 74.4115 21.8427  72 
  -2  -1  10 55.8517 4.68648  45 
   2  -1 -10 61.4055 4.83377  45 
  -2  -1  10 54.0858 5.66985  78 
   2   1 -10 55.3135 6.96969  83 
  -2   1  10 61.8995 5.41465  37 
   2   1 -10 59.8189 8.49312  76 
  -2   1  10 64.9675 7.06212  83 
  -2   1  10 50.9884 5.29411  78 
   2   1 -10 67.9682 5.89371  78 
   1  -1 -10 109.089 8.31069  79 
   1  -1 -10 106.083 7.02283  71 
  -1  -1  10 100.056 7.43542  74 
   1  -1 -10 112.400 6.89551  45 
   1  -1 -10 97.3185 7.54313  48 
  -1  -1  10 105.340 7.03560  38 
  -1  -1  10 110.285 7.75354  78 
  -1  -1  10 117.468 31.1702  72 
  -1  -1  10 103.218 6.75989  45 
   1  -1 -10 106.703 7.24094  75 
  -1   1  10 95.1547 8.26114  83 
  -1   1  10 104.759 7.00991  37 
   1   1 -10 105.330 8.06911  83 
  -1   1  10 117.599 8.61822  73 
   1   1 -10 93.6415 7.27231  78 
   1   1 -10 104.964 9.91205  76 
  -1   1  10 100.476 7.10109  78 
   0  -1 -10 169.682 10.5616  75 
   0  -1 -10 177.248 10.3288  71 
   0  -1 -10 194.392 11.7423  79 
   0  -1  10 178.257 10.5073  45 
   0  -1 -10 189.344 10.4715  45 
   0  -1  10 177.221 10.4974  38 
   0  -1  10 196.591 11.1301  74 
   0  -1  10 201.731 11.6331  78 
   0  -1  10 150.453 26.5482  72 
   0   1 -10 176.558 10.7387  78 
   0   1  10 178.645 10.7397  78 
   0   1 -10 178.789 12.6120  76 
   0   1  10 185.128 12.0607  83 
   0   1 -10 176.388 11.6569  83 
   0   1  10 202.945 11.6841  73 
   1  -1  10 50.4056 24.9698  72 
   1  -1  10 52.8932 5.03666  45 
   1  -1  10 47.3318 5.94173  75 
  -1  -1 -10 53.1179 6.39059  79 
  -1  -1 -10 61.3790 5.38869  75 
   1  -1  10 56.1032 5.31704  34 
   1  -1  10 49.1326 7.99304  79 
   1  -1  10 69.7159 7.71452  74 
   1  -1  10 51.1651 6.69160  33 
   1  -1  10 54.8386 4.81958  38 
  -1  -1 -10 55.2570 4.64559  45 
   1  -1  10 60.0984 6.05855  78 
  -1  -1 -10 55.2239 4.97435  71 
  -1   1 -10 53.0879 5.33632  78 
   1   1  10 56.5550 6.04598  73 
  -1   1 -10 48.8345 6.73943  76 
   1   1  10 56.1389 5.40510  78 
  -1   1 -10 50.9948 6.48839  83 
   1   1  10 62.6968 7.32612  83 
   2  -1  10 203.962 11.8492  45 
   2  -1  10 205.185 12.9147  78 
  -2  -1 -10 186.702 11.5139  45 
  -2  -1 -10 238.092 12.3212  75 
  -2  -1 -10 199.195 12.8357  79 
   2  -1  10 191.493 30.9502  72 
  -2  -1 -10 202.694 11.7986  71 
   2  -1  10 237.085 14.3974  79 
   2  -1  10 189.028 12.4520  75 
   2  -1  10 207.393 11.9925  38 
   2  -1  10 189.127 12.3474  33 
   2  -1  10 214.904 12.5228  34 
   2   1  10 222.466 12.2445  78 
   2   1  10 230.350 12.8696  73 
  -2   1 -10 200.510 11.9413  78 
   2   1  10 201.889 13.6510  83 
  -2   1 -10 212.856 13.0481  83 
   3  -1  10 37.1923 5.14085  38 
   3  -1  10 30.3602 4.80178  18 
   3  -1  10 34.0397 6.12539  78 
   3  -1  10 20.8467 7.50653  24 
   3  -1  10 33.1950 5.45514  34 
   3  -1  10 27.7321 4.72242  19 
  -3  -1 -10 40.5828 5.47256  78 
   3  -1  10 30.4485 5.31004  33 
  -3  -1 -10 35.9265 4.66444  75 
  -3  -1 -10 26.5972 4.49784  20 
  -3  -1 -10 36.6584 3.97818  27 
  -3  -1 -10 33.8351 4.50428   5 
   3  -1  10 31.6078 5.20025  20 
  -3  -1 -10 36.1389 5.95937  79 
  -3  -1 -10 29.4674 5.18122   6 
  -3  -1 -10 20.9674 4.23683  18 
  -3  -1 -10 36.6825 4.37375  19 
  -3   1 -10 37.7424 4.59408  78 
  -3   1 -10 29.2568 4.58509   2 
   3   1  10 32.9106 5.42983   7 
  -3   1 -10 28.7824 4.17675   4 
   3   1  10 35.2545 5.46612  15 
   3   1  10 33.0344 4.89610  40 
   3   1  10 37.3757 5.09128  73 
   3   1  10 28.4576 5.07427   2 
   3   1  10 28.9167 6.95901  83 
  -3   1 -10 32.6800 3.97184  18 
  -3   1 -10 28.4237 5.66476  83 
  -3   1 -10 32.1047 4.79100   8 
   3   1  10 34.2802 5.16439  38 
  -3   1 -10 33.3636 5.50446   6 
  -3   1 -10 30.7513 3.45087  17 
   3   1  10 32.8702 5.19329   4 
   3   1  10 25.2735 4.81620  78 
  -3   1 -10 29.8495 4.55874  13 
   4  -1  10 185.962 10.0003  19 
  -4  -1 -10 172.864 9.71529  18 
   4  -1  10 170.190 10.3410  38 
   4  -1  10 163.427 9.99355  18 
   4  -1  10 159.693 11.1211  33 
   4  -1  10 142.583 10.9200  78 
   4  -1  10 202.581 10.7570  20 
  -4  -1 -10 167.928 11.3113  79 
  -4  -1 -10 168.130 10.3592   5 
  -4  -1 -10 163.039 9.63624  19 
   4  -1  10 219.543 22.2506  76 
  -4  -1 -10 149.535 9.92262  20 
  -4  -1 -10 153.972 10.4626  78 
  -4  -1 -10 181.833 14.5689  76 
   4  -1  10 168.886 10.6362  34 
  -4   1 -10 166.152 9.65395   4 
   4   1  10 161.447 10.6071  43 
  -4   1 -10 157.404 10.2058   5 
  -4   1 -10 171.201 11.3563  83 
  -4   1 -10 168.346 9.84998   8 
   4   1  10 167.891 10.6552  15 
   4   1  10 162.139 10.2173  40 
   4   1  10 153.030 11.6434  83 
   4   1  10 167.325 10.3449  38 
   4   1  10 170.943 10.4437   2 
  -4   1 -10 171.071 9.91840  78 
  -4   1 -10 152.358 9.73570   2 
  -4   1 -10 171.947 9.82263  13 
   4   1  10 156.049 9.98435   4 
  -4   1 -10 176.323 10.7148   6 
  -5  -1 -10 7.51676 2.37498  18 
   5  -1  10 8.91769 2.95514  20 
  -5  -1 -10 7.11896 2.43778   5 
  -5  -1 -10 2.08257 1.90458  19 
   5  -1  10 9.58049 2.83848  18 
   5  -1  10 3.33503 2.26799  19 
   5  -1  10 2.47540 2.52178  40 
  -5  -1 -10 2.56551 2.28673  20 
   5  -1  10 6.24691 3.50461  38 
   5  -1  10 4.69125 2.52444  34 
   5   1  10 5.50862 2.73802  13 
  -5   1 -10 7.68455 3.52305   6 
   5   1  10 6.44491 4.34755  83 
   5   1  10 6.94232 3.03786   2 
  -5   1 -10 8.03299 2.29491  13 
  -5   1 -10 6.92399 3.80586  83 
   5   1  10 5.31448 3.57931  38 
   5   1  10 12.1650 4.26016  43 
  -5   1 -10 6.99782 2.36604   2 
   5   1  10 11.3837 3.92089  15 
  -5   1 -10 10.8189 2.77451   8 
   5   1  10 5.05403 2.86306  40 
  -5   1 -10 11.9994 3.43126   4 
   5   1  10 6.47498 2.96006   4 
  -5   1 -10 10.6195 2.49481   5 
   6  -1  10 40.6657 4.79191  20 
  -6  -1 -10 38.8310 3.75420  19 
   6  -1  10 33.7831 3.91508  19 
   6  -1  10 32.2520 4.04825  18 
  -6  -1 -10 41.3927 3.86785   8 
  -6  -1 -10 38.0247 4.22155  20 
  -6  -1 -10 38.7321 3.60589  18 
  -6  -1 -10 39.1897 4.45473   5 
   6   1  10 41.4246 4.05609  16 
  -6   1 -10 44.5993 3.90818  16 
   6   1  10 42.5106 4.43786  13 
   6   1  10 38.4231 4.62893   4 
  -6   1 -10 38.2140 4.60033   6 
  -6   1 -10 42.6153 3.86325   4 
  -6   1 -10 42.0812 4.17689   2 
  -6   1 -10 37.0117 3.81244   8 
  -6   1 -10 47.5045 3.98513  13 
  -6   1 -10 36.4601 4.39535   5 
  -7  -1 -10 33.1345 3.19135   5 
   7  -1  10 43.3141 4.23054  20 
  -7  -1 -10 37.8195 3.03399  18 
  -7  -1 -10 33.4623 3.00590  20 
  -7   1 -10 23.7608 3.49654   5 
   7   1  10 34.7886 3.40237   4 
  -7   1 -10 38.3361 3.17601   4 
   7   1  10 33.5519 3.41756   3 
   7   1  10 30.8681 3.28407  13 
  -7   1 -10 36.5820 3.44968   2 
  -7   1 -10 32.2640 2.79223  13 
   7   1  10 36.4167 2.95505  16 
   9  -2 -10 82.8008 6.04486  20 
  -9  -2  10 74.2164 5.49341  18 
   9  -2 -10 87.8166 5.80175  18 
   9  -2 -10 71.5963 4.96099  27 
   9  -2 -10 89.4266 5.98210  33 
  -9  -2  10 67.1007 4.99279  19 
   9  -2 -10 74.4074 5.69178  24 
   9  -2 -10 82.4576 6.04822  19 
  -9  -2  10 71.3847 5.47286  20 
   9   2 -10 75.2960 5.36426  13 
  -9   2  10 78.2916 5.15255  31 
  -9   2  10 75.7727 4.33450  32 
  -9   2  10 96.4644 5.57571   7 
  -9   2  10 71.5095 5.25578   2 
  -9   2  10 72.0879 5.42585  15 
  -9   2  10 81.2345 5.18074  30 
   9   2 -10 71.8543 5.42420   4 
   9   2 -10 76.2696 5.28008  16 
  -9   2  10 71.3669 4.10671   1 
  -9   2  10 72.5180 4.87184   4 
  -9   2  10 71.6039 5.33601  14 
   9   2 -10 70.7332 5.20449   3 
  -9   2  10 77.6064 4.40161   3 
  -8  -2  10 236.248 12.9630  18 
   8  -2 -10 227.085 13.4444  20 
   8  -2 -10 230.964 13.3455  19 
   8  -2 -10 220.046 13.4442  24 
  -8  -2  10 241.969 12.7189  19 
  -8  -2  10 232.246 13.0811  20 
   8  -2 -10 214.728 13.2380  33 
   8  -2 -10 229.531 12.5382  27 
  -8   2  10 239.279 12.8437   2 
   8   2 -10 241.875 13.0432  13 
  -8   2  10 215.004 12.7973  14 
  -8   2  10 246.074 12.1491  32 
  -8   2  10 219.826 12.1138   3 
   8   2 -10 189.441 14.7374  83 
  -8   2  10 234.052 12.6345  31 
   8   2 -10 222.711 12.9631  39 
  -8   2  10 213.390 11.5348  16 
  -8   2  10 265.270 12.7395  30 
  -8   2  10 239.037 12.5221   4 
  -8   2  10 246.862 12.9339   7 
   8   2 -10 244.877 13.0038   4 
  -8   2  10 255.467 13.7075  15 
   8   2 -10 251.213 12.7442  16 
  -8   2  10 228.004 11.9877   1 
  -7  -2  10 77.0550 6.34673  18 
   7  -2 -10 60.8551 5.93230  27 
   7  -2 -10 61.1168 6.72685  33 
   7  -2 -10 65.7790 6.74412  79 
  -7  -2  10 56.0261 8.66125  24 
   7  -2 -10 65.0620 6.90426  24 
  -7  -2  10 71.3456 6.22735  19 
  -7  -2  10 61.9946 6.21300  20 
  -7   2  10 68.4710 4.51821  16 
   7   2 -10 65.5379 6.17209  39 
   7   2 -10 64.4922 6.87611  41 
  -7   2  10 76.4701 6.17121   2 
  -7   2  10 64.5295 5.53171   4 
  -7   2  10 71.5176 4.79588  13 
   7   2 -10 61.2536 6.26638   4 
  -7   2  10 78.3392 6.52089  14 
  -7   2  10 68.5003 4.97038  28 
  -7   2  10 68.9695 6.52579  30 
   7   2 -10 68.9827 5.31044  17 
  -7   2  10 65.9042 4.56737   1 
  -7   2  10 63.3665 7.36901  15 
  -7   2  10 68.4815 6.25813   7 
  -7   2  10 54.7598 5.12508  32 
  -7   2  10 86.6853 6.34498  77 
   7   2 -10 49.9722 6.63990  42 
  -7   2  10 64.4786 6.34671  83 
   7   2 -10 61.3786 6.49797  13 
  -7   2  10 63.8864 4.62316   3 
   7   2 -10 74.1988 7.08590  83 
  -7   2  10 71.2554 5.80288  31 
  -6  -2  10 79.2022 6.24722  27 
  -6  -2  10 68.9867 6.73194  18 
   6  -2 -10 73.6068 7.10583  24 
   6  -2 -10 77.7267 7.31461  79 
  -6  -2  10 76.4894 6.81064  19 
   6  -2 -10 69.7227 6.06751  27 
  -6  -2  10 77.7241 7.09570  78 
   6  -2 -10 65.2010 7.02738  33 
  -6  -2  10 71.7424 6.67646  20 
   6  -2 -10 74.6835 6.00480  75 
  -6  -2  10 79.4789 6.51448  75 
  -6  -2  10 68.7813 7.63765  24 
  -6   2  10 68.8942 6.01267  31 
  -6   2  10 63.6423 6.16999   7 
  -6   2  10 64.4102 4.77548   1 
  -6   2  10 84.1971 9.51533  14 
  -6   2  10 61.5574 7.83572  30 
  -6   2  10 65.1320 5.13075  28 
  -6   2  10 64.0102 6.33972   2 
  -6   2  10 72.9095 6.54858  83 
   6   2 -10 75.1965 7.72782  83 
  -6   2  10 66.1407 5.04199   3 
   6   2 -10 63.3990 7.12079  42 
  -6   2  10 66.9160 7.61093  32 
  -6   2  10 68.0596 4.86853  16 
   6   2 -10 65.7635 6.48906   4 
  -6   2  10 77.8290 5.35315  13 
   6   2 -10 77.1713 6.71857  15 
  -6   2  10 83.9381 5.82974  77 
   6   2 -10 73.3726 5.62074  17 
   6   2 -10 68.5778 6.77661  13 
   6   2 -10 69.4137 7.08796  41 
  -6   2  10 70.5063 5.64192   4 
   6   2 -10 68.8235 7.55529   7 
  -5  -2  10 40.3641 25.2523  72 
  -5  -2  10 18.0546 4.07183  74 
   5  -2 -10 11.0138 3.69372  33 
   5  -2 -10 11.9157 4.41834  79 
  -5  -2  10 14.8968 3.83339  75 
  -5  -2  10 13.8927 6.49115  24 
   5  -2 -10 15.2744 4.58552  27 
  -5  -2  10 14.3804 3.80573  18 
   5  -2 -10 1.38103 4.27711  48 
  -5  -2  10 12.7532 3.52260  19 
   5  -2 -10 13.8966 4.34509  75 
  -5  -2  10 12.6558 3.54130  20 
  -5  -2  10 7.59168 2.55759  27 
  -5   2  10 15.1108 4.45137  37 
  -5   2  10 16.6149 3.12510  16 
  -5   2  10 10.1432 2.94414   1 
   5   2 -10 22.5396 5.71693  13 
  -5   2  10 12.0462 3.15698   7 
  -5   2  10 12.9494 3.18274   3 
   5   2 -10 15.6359 4.35368  78 
  -5   2  10 5.01316 2.02334  28 
   5   2 -10 12.7565 4.79503  41 
  -5   2  10 15.8251 3.67899  13 
  -5   2  10 15.4138 4.00727  77 
   5   2 -10 15.2570 3.93571   7 
  -5   2  10 16.8359 3.07818  31 
  -5   2  10 18.0795 4.23657   4 
   5   2 -10 9.46476 3.92046  42 
   5   2 -10 25.7520 5.36506   4 
   5   2 -10 14.5978 5.44649  15 
  -5   2  10 11.5631 3.05387   2 
   5   2 -10 19.6482 4.40817  17 
  -5   2  10 16.8174 4.27427  83 
   5   2 -10 21.5961 6.12513  83 
  -4  -2  10 276.736 15.6397  75 
  -4  -2  10 289.907 15.7062  74 
  -4  -2  10 315.626 15.4840  45 
   4  -2 -10 271.468 14.9520  71 
  -4  -2  10 248.563 15.1127  71 
   4  -2 -10 287.957 15.5178  75 
   4  -2 -10 295.388 16.5146  79 
   4  -2 -10 257.784 17.2097  44 
   4  -2 -10 297.445 15.3432  45 
  -4  -2  10 260.086 36.5809  72 
   4  -2 -10 278.594 16.0912  48 
   4   2 -10 330.562 16.5325  83 
   4   2 -10 262.423 16.6500  42 
  -4   2  10 289.729 15.9119  83 
   4   2 -10 260.628 15.0357  78 
   4   2 -10 276.796 17.3163  82 
  -4   2  10 275.483 15.2843  37 
  -4   2  10 271.780 15.2528  77 
   4   2 -10 275.838 15.9581  41 
   3  -2 -10 27.6408 4.80918  48 
   3  -2 -10 31.9950 4.44200  75 
   3  -2 -10 27.0253 3.53217  71 
   3  -2 -10 17.3437 3.85215  44 
  -3  -2  10 25.9083 4.07094  74 
   3  -2 -10 17.9308 3.95792  45 
  -3  -2  10 27.1052 4.05169  71 
   3  -2 -10 23.4770 5.77494  79 
  -3  -2  10 22.8856 3.52499  45 
   3   2 -10 25.0119 4.28255  78 
  -3   2  10 23.7075 5.13251  83 
   3   2 -10 31.4933 8.39331  82 
   3   2 -10 20.6009 5.81017  83 
   3   2 -10 22.6009 5.14959  41 
  -3   2  10 19.2495 4.20603  37 
  -3   2  10 22.8068 4.18971  77 
  -2  -2  10 326.834 17.5930  38 
  -2  -2  10 330.760 17.7284  71 
   2  -2 -10 324.302 19.0219  44 
   2  -2 -10 332.339 18.6167  79 
  -2  -2  10 354.410 18.3750  74 
   2  -2 -10 351.450 17.5432  45 
   2  -2 -10 325.228 17.8100  75 
  -2  -2  10 351.775 17.7324  45 
   2  -2 -10 301.365 18.1355  48 
   2  -2 -10 335.800 17.4645  71 
  -2   2  10 296.311 18.0949  83 
  -2   2  10 330.505 17.5951  37 
  -2   2  10 332.287 17.6956  77 
   2   2 -10 331.613 20.5334  82 
   2   2 -10 341.192 18.2484  41 
   2   2 -10 356.060 18.5651  83 
   2   2 -10 318.006 17.4138  78 
   1  -2 -10 22.5116 4.31489  48 
  -1  -2  10 25.3280 3.71372  45 
   1  -2 -10 25.5229 4.04356  75 
   1  -2 -10 27.0610 3.66308  71 
   1  -2 -10 25.7085 5.38406  79 
  -1  -2  10 29.4756 4.35744  38 
  -1  -2  10 24.4131 4.50469  74 
   1  -2 -10 10.9557 4.99588  44 
   1  -2 -10 23.2883 3.40119  45 
   1   2 -10 24.0686 4.03410  78 
   1   2 -10 20.2683 5.58571  83 
  -1   2  10 22.6841 4.25679  77 
   1   2 -10 18.9749 7.41782  82 
  -1   2  10 27.2195 5.02985  83 
  -1   2  10 24.6645 4.12723  37 
   0  -2 -10 110.182 7.25768  45 
   0  -2 -10 107.173 8.83201  44 
   0  -2  10 133.724 7.83530  45 
   0  -2 -10 117.687 7.37156  71 
   0  -2  10 129.417 8.61689  74 
   0  -2  10 129.508 7.81466  38 
   0  -2 -10 123.026 7.92586  75 
   0  -2 -10 104.388 8.02002  48 
   0  -2 -10 135.282 9.04904  79 
   0   2  10 123.259 8.77934  83 
   0   2 -10 119.840 8.79590  83 
   0   2  10 118.142 8.00422  77 
   0   2  10 117.562 7.85373  37 
   0   2 -10 113.397 11.5531  82 
   1  -2  10 87.1367 9.13437  79 
  -1  -2 -10 90.2746 5.99977  45 
   1  -2  10 81.3543 5.99648  45 
  -1  -2 -10 80.9776 6.09406  75 
   1  -2  10 79.8278 6.85158  74 
   1  -2  10 93.6604 7.49047  75 
   1  -2  10 92.9920 8.26973  33 
  -1  -2 -10 71.3360 6.52517  48 
  -1  -2 -10 86.4608 7.60074  79 
  -1  -2 -10 90.3218 5.92379  71 
   1  -2  10 81.4664 6.42873  38 
  -1  -2 -10 79.4180 7.62748  44 
   1  -2  10 82.9037 6.94154  34 
   1   2  10 88.1009 7.53902  83 
  -1   2 -10 103.757 7.84443  83 
   1   2  10 80.9677 6.74176  77 
   2  -2  10 94.9415 7.96850  24 
   2  -2  10 113.556 10.0699  79 
   2  -2  10 110.027 8.31089  75 
   2  -2  10 108.320 8.12369  33 
   2  -2  10 97.0410 7.62832  20 
   2  -2  10 112.244 7.02564  27 
  -2  -2 -10 108.494 6.71669  27 
   2  -2  10 106.986 7.63516  34 
   2  -2  10 91.2290 7.16630  18 
  -2  -2 -10 108.284 7.27662  75 
   2  -2  10 104.954 7.23448  38 
  -2  -2 -10 102.572 8.16380  24 
   2  -2  10 96.7370 7.29857  19 
  -2  -2 -10 111.203 7.52866   5 
  -2  -2 -10 111.910 8.63500  79 
   2  -2  10 101.939 7.76624  74 
  -2   2 -10 99.1339 7.27037  31 
   2   2  10 119.892 7.04871   1 
   2   2  10 104.594 7.16429   4 
  -2   2 -10 107.135 8.50983  83 
   2   2  10 102.419 7.10828  31 
  -2   2 -10 101.952 6.74807   4 
  -2   2 -10 104.593 6.78363  13 
   2   2  10 92.9715 6.78584   3 
  -2   2 -10 98.0067 6.92633   2 
  -2   2 -10 89.0896 7.09418   3 
   2   2  10 100.391 6.77878  16 
   2   2  10 107.728 7.82426  77 
  -2   2 -10 101.068 6.98233   7 
   2   2  10 103.080 6.81370  28 
  -2   2 -10 106.750 6.43083  17 
  -2   2 -10 102.975 8.32201  16 
   2   2  10 112.923 8.75318  83 
  -2   2 -10 106.908 7.82069   6 
   2   2  10 107.980 7.53357   7 
   2   2  10 114.505 7.42227   2 
   3  -2  10 82.7802 6.48966  34 
   3  -2  10 78.9486 5.78510  27 
  -3  -2 -10 72.4906 6.82201  24 
   3  -2  10 79.2893 6.01642  19 
   3  -2  10 77.5453 6.65444  33 
  -3  -2 -10 84.1028 7.33025  79 
   3  -2  10 67.9851 6.76549  75 
   3  -2  10 67.8451 5.88382  18 
  -3  -2 -10 68.1194 5.28387  27 
   3  -2  10 76.2313 6.53608  20 
   3  -2  10 76.9856 6.29402  38 
  -3  -2 -10 57.8789 5.67314  75 
   3  -2  10 73.3587 8.84744  79 
  -3  -2 -10 69.4786 6.08659   5 
  -3  -2 -10 67.9221 5.89925  20 
   3  -2  10 65.4554 6.56997  24 
   3   2  10 64.8261 6.99047  15 
   3   2  10 70.9592 5.35479  16 
  -3   2 -10 72.1244 6.99106  83 
  -3   2 -10 85.0083 5.94783  31 
  -3   2 -10 81.9275 5.76394   2 
  -3   2 -10 70.5724 5.97718   8 
  -3   2 -10 81.8041 6.95933   6 
  -3   2 -10 75.5861 5.05419  17 
  -3   2 -10 76.5789 5.51717   3 
  -3   2 -10 72.6584 5.75251   7 
  -3   2 -10 71.2609 5.54199  13 
  -3   2 -10 78.8935 5.75013  16 
   3   2  10 70.2196 5.45185   1 
   3   2  10 67.3149 7.20428  83 
  -3   2 -10 67.8117 6.20303  14 
   3   2  10 62.3110 6.12093   2 
   3   2  10 78.5449 6.55124   7 
   3   2  10 54.8250 6.26800  77 
  -3   2 -10 76.3137 5.59235   4 
   3   2  10 66.2969 6.00536   4 
   3   2  10 74.9844 5.57299   3 
   4  -2  10 25.0750 4.84290  34 
   4  -2  10 29.4072 4.83817  33 
   4  -2  10 31.3259 4.75755  38 
   4  -2  10 29.3240 4.31123  27 
  -4  -2 -10 26.5135 4.10782  19 
   4  -2  10 29.7761 4.39836  19 
  -4  -2 -10 32.0500 4.05954  18 
  -4  -2 -10 32.3975 3.69370  27 
  -4  -2 -10 20.8384 4.24747  20 
   4  -2  10 33.0684 4.47465  18 
   4  -2  10 28.4776 5.03496  24 
  -4  -2 -10 30.1756 4.73232   5 
   4  -2  10 39.0980 5.19213  20 
  -4  -2 -10 23.7984 5.13613  79 
  -4   2 -10 23.6778 3.99120  13 
  -4   2 -10 23.6871 4.48596  14 
   4   2  10 29.7118 4.48452  31 
   4   2  10 39.1548 4.50342  13 
   4   2  10 32.6474 3.90197  16 
   4   2  10 31.9574 4.92983  40 
  -4   2 -10 30.4703 3.77504  16 
   4   2  10 27.5811 3.78012   1 
  -4   2 -10 26.6475 4.45050   8 
  -4   2 -10 24.2202 4.15128   7 
   4   2  10 28.9295 4.37685   4 
  -4   2 -10 29.0988 5.32199  83 
  -4   2 -10 29.4516 4.13404   2 
   4   2  10 37.1101 5.06855   2 
  -4   2 -10 24.3764 3.25790  17 
   4   2  10 20.3284 4.22154   3 
  -4   2 -10 32.8914 3.81374   4 
  -4   2 -10 29.2645 5.39195   6 
   4   2  10 42.3760 5.60004   7 
   4   2  10 31.0577 5.45595  15 
  -4   2 -10 33.6110 4.06316  31 
   4   2  10 25.7528 5.70800  83 
  -4   2 -10 26.5222 3.64855   3 
   5  -2  10 33.2614 4.48040  19 
  -5  -2 -10 31.2500 3.45413  27 
   5  -2  10 33.1883 4.71257  33 
   5  -2  10 32.8130 4.31423  38 
  -5  -2 -10 32.0564 3.97458  18 
   5  -2  10 40.6392 4.54921  18 
   5  -2  10 36.4770 5.14150  20 
  -5  -2 -10 45.0773 3.99104  19 
  -5  -2 -10 41.1936 4.43099  20 
  -5  -2 -10 36.9276 4.42968   5 
   5  -2  10 37.4217 4.77508  34 
   5   2  10 26.1837 4.03148   4 
   5   2  10 39.7038 3.67281   1 
  -5   2 -10 38.7479 3.98709  31 
  -5   2 -10 40.8314 3.49549  16 
  -5   2 -10 34.5749 3.93994   7 
   5   2  10 43.6351 4.86207  31 
  -5   2 -10 35.2073 5.10627   6 
   5   2  10 35.1594 5.35216   7 
  -5   2 -10 37.6621 3.66492   4 
   5   2  10 35.3812 3.70853  16 
  -5   2 -10 36.1825 3.65967  13 
  -5   2 -10 35.1077 4.30224  14 
  -5   2 -10 43.3602 4.42297   1 
   5   2  10 34.4438 4.75842   2 
   5   2  10 39.1550 5.23517  15 
  -5   2 -10 38.3914 3.14809  17 
  -5   2 -10 34.0212 4.02362   2 
  -5   2 -10 37.4814 3.56595   3 
   5   2  10 30.1129 4.20030  13 
   5   2  10 43.4153 4.07527   3 
  -5   2 -10 31.1732 3.99061   8 
   5   2  10 30.9732 4.75128  38 
   6  -2  10 32.7880 3.52603  18 
  -6  -2 -10 30.4971 3.66378   5 
  -6  -2 -10 32.6838 3.63655  20 
   6  -2  10 29.3002 3.89721  20 
  -6  -2 -10 34.1895 3.28306  18 
  -6  -2 -10 35.5056 3.29018  19 
  -6  -2 -10 33.3984 3.06090   8 
   6  -2  10 33.7912 3.45318  19 
  -6   2 -10 31.2321 3.67273  25 
   6   2  10 26.8649 4.73595  13 
   6   2  10 29.5790 3.10352   3 
   6   2  10 27.7877 2.59792  32 
   6   2  10 26.0052 2.40713   1 
   6   2  10 29.3723 3.79455  31 
  -6   2 -10 35.2024 3.33888  31 
   6   2  10 29.2735 2.27468  16 
  -6   2 -10 35.8996 3.39509   8 
  -6   2 -10 26.3570 2.62287  13 
  -6   2 -10 27.2259 3.99601   6 
  -6   2 -10 30.5635 2.71701   1 
  -6   2 -10 31.2714 2.82416  32 
  -6   2 -10 26.4967 2.33692  16 
  -6   2 -10 33.0056 3.19345   7 
  -6   2 -10 25.1601 3.05657   4 
  -6   2 -10 24.3988 3.31285   2 
  -6   2 -10 29.4954 2.76828   3 
   6   2  10 29.6538 4.23246   7 
   6   2  10 24.7147 3.30311   4 
   8  -3 -10 102.907 7.11440  24 
  -8  -3  10 107.025 6.60201  18 
   8  -3 -10 94.2486 5.94641  27 
  -8  -3  10 94.7341 6.09719  19 
  -8  -3  10 97.8007 6.66401  20 
   8   3 -10 90.9893 5.75614  32 
  -8   3  10 89.5229 8.55908  15 
   8   3 -10 100.351 6.96484  13 
  -8   3  10 91.0268 5.57615  31 
  -8   3  10 97.0095 5.62419  30 
   8   3 -10 82.6191 6.64503  31 
   8   3 -10 86.5988 5.01113  16 
   8   3 -10 87.5281 5.48611   1 
  -8   3  10 90.9391 5.94541   7 
   8   3 -10 96.5995 6.16937   4 
  -8   3  10 91.1216 5.59055  28 
   8   3 -10 90.0690 5.76400  17 
   8   3 -10 98.9704 6.62023   7 
  -8   3  10 98.6412 5.47333  22 
  -7  -3  10 122.704 7.89549  19 
  -7  -3  10 113.657 8.25199  24 
  -7  -3  10 124.733 7.19816  27 
  -7  -3  10 115.495 8.06809  20 
  -7  -3  10 133.395 8.01945  18 
   7  -3 -10 122.934 7.64201  27 
   7  -3 -10 142.636 8.41795  33 
   7  -3 -10 124.219 8.80840  24 
  -7   3  10 131.234 7.04792  28 
   7   3 -10 115.132 7.95515  31 
   7   3 -10 108.553 7.05072   1 
   7   3 -10 104.032 8.43820  36 
  -7   3  10 116.586 6.77231  22 
   7   3 -10 135.057 8.31695  15 
   7   3 -10 113.858 7.55058   4 
  -7   3  10 110.990 7.48335   7 
   7   3 -10 107.259 7.14180  13 
  -7   3  10 120.126 7.11113  31 
   7   3 -10 119.388 7.33220  17 
  -7   3  10 117.764 7.10251  30 
   7   3 -10 113.487 7.71765  39 
   7   3 -10 109.448 8.15694   7 
  -7   3  10 120.883 6.84452  35 
   7   3 -10 118.517 6.87366  16 
   7   3 -10 111.370 7.61251  32 
   6  -3 -10 26.8699 4.28733  27 
  -6  -3  10 20.0749 5.19442  19 
  -6  -3  10 27.2646 4.20482  27 
   6  -3 -10 24.0712 4.84738  79 
  -6  -3  10 24.7409 5.11311  20 
  -6  -3  10 21.7514 6.36787  24 
  -6  -3  10 22.8191 5.29195  18 
   6   3 -10 23.3450 4.44436  13 
  -6   3  10 25.9172 3.45552  28 
  -6   3  10 26.6271 3.20795   3 
   6   3 -10 14.9678 5.71883  36 
   6   3 -10 26.3338 4.69435  39 
   6   3 -10 29.0446 5.45506  42 
   6   3 -10 27.6450 4.90216  83 
   6   3 -10 20.9771 5.39677  31 
  -6   3  10 23.6317 4.42624   7 
   6   3 -10 18.1117 3.65202   1 
  -6   3  10 23.9777 3.66055  30 
  -6   3  10 28.0308 3.22026  22 
  -6   3  10 21.4786 3.90426  31 
   6   3 -10 23.3540 5.30254  15 
   6   3 -10 19.6112 5.63025  41 
   6   3 -10 24.8933 3.85457  16 
  -6   3  10 21.3327 1.70650  32 
  -6   3  10 24.2154 5.16343  35 
  -6   3  10 21.8597 3.61248  29 
   6   3 -10 26.9918 4.83836   4 
   6   3 -10 22.0096 5.21709   7 
  -5  -3  10 383.032 19.9437  20 
   5  -3 -10 386.835 19.4069  27 
   5  -3 -10 350.837 20.1838  79 
  -5  -3  10 416.063 20.8108  24 
  -5  -3  10 355.178 19.2995  27 
   5   3 -10 367.177 19.7096   7 
  -5   3  10 380.090 18.9159  22 
  -5   3  10 377.602 18.5702   3 
   5   3 -10 417.362 19.6306  77 
   5   3 -10 372.803 19.3702   4 
  -5   3  10 386.315 18.2909   1 
   5   3 -10 346.653 20.5703  36 
   5   3 -10 353.652 19.0635   1 
   5   3 -10 385.391 20.6124  42 
  -5   3  10 354.396 19.1215  31 
   5   3 -10 363.854 19.8884  83 
  -5   3  10 348.303 18.7321  77 
   5   3 -10 354.262 20.3430  15 
   5   3 -10 357.515 18.9781  16 
   5   3 -10 365.505 19.1889  17 
  -5   3  10 368.584 19.2633   7 
   5   3 -10 386.196 20.4022  41 
  -5   3  10 371.525 18.4310  32 
   5   3 -10 374.978 19.3142  13 
  -5   3  10 372.105 19.0275  29 
  -5   3  10 355.092 19.0484  28 
  -5   3  10 383.795 19.1439  30 
  -5   3  10 372.651 19.4907  37 
   5   3 -10 361.310 19.6542  31 
   4  -3 -10 -2.0269 3.06111  44 
  -4  -3  10 4.86899 3.06072  75 
   4  -3 -10 0.90832 3.55025  79 
  -4  -3  10 5.86085 2.36739  27 
   4  -3 -10 4.87493 2.93462  75 
  -4  -3  10 5.09002 3.51945  24 
   4  -3 -10 13.0431 3.95733  27 
   4   3 -10 4.81813 2.91119   4 
  -4   3  10 4.13486 1.23258   1 
  -4   3  10 4.74365 2.03680  28 
   4   3 -10 5.88626 4.90457  41 
  -4   3  10 7.21395 3.79167  37 
  -4   3  10 2.89623 2.20481  31 
  -4   3  10 3.69198 1.94945  30 
   4   3 -10 2.70310 2.86735  17 
   4   3 -10 4.17481 2.34891   1 
   4   3 -10 2.62250 2.48452  13 
  -4   3  10 1.24670 2.01196  77 
  -4   3  10 3.78629 1.99523  22 
  -4   3  10 3.27163 1.94299  29 
   4   3 -10 4.37839 2.23750  16 
   4   3 -10 2.25751 3.10507  31 
  -4   3  10 3.81604 1.48771   3 
   4   3 -10 3.70368 4.15971  83 
  -4   3  10 4.16273 1.52956  32 
   4   3 -10 9.43539 6.66535  82 
   4   3 -10 7.15353 3.33525  77 
  -4   3  10 -0.0927 2.29013   7 
   4   3 -10 1.80319 2.52999  28 
   4   3 -10 4.03050 3.20376  36 
   4   3 -10 6.70418 3.63873   7 
   4   3 -10 2.99893 3.92780  42 
  -3  -3  10 50.0867 4.93636  27 
   3  -3 -10 24.2804 6.40264  44 
   3  -3 -10 44.5912 4.83418  75 
   3  -3 -10 36.1812 5.46079  27 
   3  -3 -10 32.3403 5.80097  79 
  -3  -3  10 39.3738 4.74651  74 
  -3  -3  10 52.7889 7.16337  24 
  -3   3  10 44.1647 4.54257  30 
   3   3 -10 44.6732 4.66919   3 
  -3   3  10 40.9521 3.86544  29 
  -3   3  10 48.8146 5.57204  37 
   3   3 -10 46.1950 5.89068  83 
   3   3 -10 38.8390 4.55337   1 
  -3   3  10 41.7311 4.56348  31 
   3   3 -10 38.3668 4.41973  28 
  -3   3  10 41.4280 3.32908  32 
  -3   3  10 52.5569 4.03946  77 
   3   3 -10 44.9522 5.65008  31 
   3   3 -10 48.8826 4.35729  16 
   3   3 -10 38.2006 8.46176  82 
  -3   3  10 42.3178 4.89061   7 
   3   3 -10 39.7219 5.58620  42 
   3   3 -10 54.5106 4.94027  77 
  -3   3  10 36.3609 4.06076  22 
   3   3 -10 37.5692 4.90389  13 
  -3   3  10 43.6030 3.07846   1 
  -3   3  10 46.0152 4.14607  28 
   3   3 -10 45.4047 4.88564   4 
   3   3 -10 35.9245 6.77770  41 
   3   3 -10 43.9495 5.54955   7 
   3   3 -10 47.6948 5.12105  17 
  -3   3  10 40.0083 3.41117   3 
   2  -3 -10 396.555 22.2565  44 
  -2  -3  10 418.636 22.1740  24 
   2  -3 -10 397.909 20.9882  75 
  -2  -3  10 381.538 21.4334  74 
   2  -3 -10 430.254 21.7802  79 
  -2  -3  10 403.586 20.8296  27 
  -2  -3  10 395.326 21.0700  38 
  -2   3  10 424.572 21.2677  37 
   2   3 -10 410.667 20.6336   4 
   2   3 -10 394.643 20.5112   1 
  -2   3  10 405.352 19.9716   1 
  -2   3  10 391.130 20.7000   7 
  -2   3  10 395.249 21.8852  21 
   2   3 -10 402.786 20.5185  28 
   2   3 -10 406.556 20.6238  13 
   2   3 -10 407.693 21.0054   7 
  -2   3  10 386.561 20.6616  30 
  -2   3  10 353.416 20.4173  31 
   2   3 -10 398.028 21.2040  83 
   2   3 -10 399.077 20.9325  31 
   2   3 -10 413.085 23.4245  82 
  -2   3  10 416.044 20.0359  32 
   2   3 -10 397.173 20.6718  17 
   2   3 -10 399.985 21.6451  42 
  -2   3  10 392.119 20.4881  28 
   2   3 -10 388.794 20.3541  16 
  -2   3  10 383.258 20.1136   3 
   2   3 -10 439.583 20.9275  77 
  -2   3  10 405.430 20.4445  77 
   2   3 -10 407.702 20.5673   3 
  -2   3  10 388.580 20.4235  29 
  -1  -3  10 114.565 8.69460  24 
   1  -3 -10 124.908 7.56619  75 
  -1  -3  10 120.406 7.69725  38 
   1  -3 -10 103.738 8.59043  44 
  -1  -3  10 116.438 7.56852  27 
   1  -3 -10 114.863 8.55971  79 
  -1  -3  10 154.300 12.3769  44 
   1  -3 -10 114.963 7.51385  27 
  -1  -3  10 103.825 7.74459  74 
  -1   3  10 102.517 7.26296   7 
   1   3 -10 114.300 8.24274  83 
   1   3 -10 117.326 7.63261   4 
   1   3 -10 115.156 7.72286   7 
  -1   3  10 113.549 6.44351  32 
   1   3 -10 115.457 7.26758   3 
   1   3 -10 112.236 7.75642   2 
   1   3 -10 118.875 7.01469  16 
  -1   3  10 124.926 8.16055  37 
   1   3 -10 117.462 7.72535  31 
   1   3 -10 123.098 7.64167  77 
   1   3 -10 116.192 7.33801  13 
   1   3 -10 111.956 7.06314   1 
  -1   3  10 97.5318 8.90761  21 
  -1   3  10 129.373 6.75572   3 
   1   3 -10 110.628 11.8144  82 
  -1   3  10 111.556 7.25554  30 
  -1   3  10 110.337 6.93453  29 
   1   3 -10 113.437 7.26450  17 
  -1   3  10 124.478 7.04420  77 
   1   3 -10 110.701 7.10595  28 
  -1   3  10 100.708 7.00597  31 
  -1   3  10 119.925 7.06654  28 
  -1   3  10 118.625 6.35694   1 
   0  -3  10 97.4251 6.67620  27 
   0  -3 -10 89.0765 7.69566  44 
   0  -3  10 103.848 6.92524  38 
   0  -3  10 102.146 8.04025  24 
   0  -3  10 96.2285 7.13118  74 
   0  -3 -10 105.997 7.56583  79 
   0  -3 -10 83.3906 6.41670  75 
   0  -3 -10 92.1495 6.20500  27 
   0   3  10 89.2993 6.66989  37 
   0   3 -10 87.7300 6.55941   4 
   0   3 -10 98.5108 6.74941  77 
   0   3 -10 94.3695 5.98363  16 
   0   3  10 96.1948 6.17748  28 
   0   3 -10 85.3549 6.73570   2 
   0   3 -10 104.844 6.36369   3 
   0   3  10 90.2517 6.39167   7 
   0   3  10 84.7492 5.97078  29 
   0   3 -10 94.5675 6.09610   1 
   0   3  10 88.3940 6.25815  30 
   0   3  10 90.3793 5.42304   1 
   0   3 -10 92.1949 6.20864  17 
   0   3 -10 84.5252 6.18975  13 
   0   3  10 95.4550 5.55503  32 
   0   3 -10 92.2615 6.73584   7 
   0   3  10 99.9921 6.18785  77 
   0   3  10 87.2608 8.43972  21 
   0   3 -10 96.5667 6.90263  31 
   0   3  10 94.9042 6.15453  31 
   0   3 -10 87.5017 10.1411  82 
   0   3  10 99.2949 5.80989   3 
   0   3 -10 100.384 6.06836  28 
   0   3 -10 98.5975 7.41542  83 
   1  -3  10 35.2812 5.16819  34 
   1  -3  10 34.8366 4.13995  27 
   1  -3  10 35.2678 5.62260  24 
  -1  -3 -10 25.9866 3.92822  75 
  -1  -3 -10 23.1404 5.01915  44 
   1  -3  10 37.8734 4.59131  38 
  -1  -3 -10 30.3886 3.87100  27 
  -1  -3 -10 30.3350 5.02045  79 
   1  -3  10 30.0646 6.54576  33 
  -1   3 -10 30.9028 3.76250  17 
  -1   3 -10 29.7144 3.68568  16 
  -1   3 -10 35.0455 3.65641  28 
   1   3  10 30.3002 3.60218  77 
   1   3  10 30.9276 6.53455  21 
   1   3  10 30.8696 3.94681  28 
  -1   3 -10 37.0583 5.22416  83 
  -1   3 -10 27.0226 4.06777   7 
  -1   3 -10 34.4735 4.47117   2 
  -1   3 -10 34.2015 3.78631   3 
   1   3  10 30.3601 3.69362  29 
  -1   3 -10 24.8979 4.85452  32 
  -1   3 -10 33.6763 4.11457   4 
   1   3  10 30.2415 2.96488   1 
   1   3  10 24.0338 3.87821  30 
   1   3  10 27.1830 3.79747  31 
   1   3  10 28.4038 3.44179   3 
   1   3  10 33.7451 4.75262   7 
  -1   3 -10 30.3396 3.79785  13 
  -1   3 -10 30.4899 3.48431   1 
   1   3  10 33.3598 3.15908  32 
  -1   3 -10 28.9221 4.52661  31 
  -1   3 -10 33.6268 4.08749  77 
   2  -3  10 78.3951 6.56444  34 
   2  -3  10 73.9881 5.66105  27 
  -2  -3 -10 69.8386 6.67006  79 
   2  -3  10 78.9552 6.83758  24 
  -2  -3 -10 75.9926 5.42241  27 
   2  -3  10 81.4236 8.29264  79 
  -2  -3 -10 82.9918 7.81523  24 
   2  -3  10 81.6323 6.00532  38 
   2  -3  10 80.8712 6.99914  33 
  -2   3 -10 74.9499 5.22952   3 
  -2   3 -10 75.3817 5.20739  28 
   2   3  10 77.8428 5.16297   3 
   2   3  10 72.1092 4.66650   1 
   2   3  10 87.6299 7.82324  21 
  -2   3 -10 81.8027 6.27256  14 
   2   3  10 75.4355 4.80625  32 
   2   3  10 70.5559 5.35760  28 
  -2   3 -10 67.5993 5.07326   1 
   2   3  10 73.7856 6.24615   7 
  -2   3 -10 71.0305 5.36113   4 
  -2   3 -10 69.6606 5.12659  13 
  -2   3 -10 71.8564 5.14359  32 
   2   3  10 78.3654 5.75874  30 
  -2   3 -10 72.0362 5.03683  16 
  -2   3 -10 79.9466 5.77436   2 
  -2   3 -10 86.0474 5.23808  17 
  -2   3 -10 77.3573 5.54274  77 
  -2   3 -10 72.6811 6.16037  83 
  -2   3 -10 77.6095 5.68361  31 
   2   3  10 67.1450 5.31306  31 
  -2   3 -10 86.1248 5.78460   7 
   2   3  10 66.3835 5.29389  77 
  -2   3 -10 97.9480 7.15987  30 
  -3  -3 -10 120.090 7.24689  27 
   3  -3  10 124.720 8.28310  34 
  -3  -3 -10 109.755 8.28440  79 
   3  -3  10 120.939 7.28424  27 
   3  -3  10 115.907 8.02701  33 
   3  -3  10 108.278 7.60021  38 
   3  -3  10 117.977 8.60312  24 
  -3  -3 -10 110.033 8.25465  24 
   3  -3  10 108.115 9.55733  79 
   3   3  10 108.843 7.32283  30 
  -3   3 -10 117.540 6.35503  16 
  -3   3 -10 110.662 7.05511  31 
   3   3  10 115.753 6.37156   1 
  -3   3 -10 113.544 7.18148   2 
  -3   3 -10 105.740 6.85986   4 
  -3   3 -10 118.630 6.80182   3 
   3   3  10 121.903 7.14521  28 
  -3   3 -10 111.079 8.16066   6 
  -3   3 -10 116.573 6.86225  17 
  -3   3 -10 120.057 7.07951  28 
  -3   3 -10 119.784 7.75976  14 
   3   3  10 114.273 7.37466  31 
  -3   3 -10 117.513 6.78477  32 
  -3   3 -10 116.632 6.68298   1 
   3   3  10 118.315 6.54339  32 
   3   3  10 135.781 8.25154   7 
   3   3  10 118.849 6.77160   3 
  -3   3 -10 135.237 7.40421   7 
  -3   3 -10 126.763 9.11245  83 
  -3   3 -10 126.498 7.28901  30 
   3   3  10 115.481 7.57583   2 
  -3   3 -10 114.978 7.63486   8 
   4  -3  10 2.33824 2.30091  34 
   4  -3  10 2.75927 2.38099  20 
   4  -3  10 2.32315 1.84414  27 
   4  -3  10 0.31271 2.51169  33 
  -4  -3 -10 1.59587 1.55960  27 
   4  -3  10 3.47268 2.47719  24 
   4  -3  10 0.27800 2.77283  38 
   4  -3  10 3.69434 2.10970  19 
  -4   3 -10 2.25125 1.75264   2 
  -4   3 -10 2.49281 1.73180   4 
  -4   3 -10 5.08014 2.04207   7 
  -4   3 -10 3.60285 1.53224  32 
  -4   3 -10 0.71129 3.04723  25 
  -4   3 -10 4.24904 1.85106  30 
  -4   3 -10 5.03808 1.92629  31 
  -4   3 -10 0.47395 2.35250   8 
   4   3  10 5.05374 2.35339  31 
   4   3  10 2.11238 2.77845   7 
   4   3  10 4.33754 1.40850  32 
  -4   3 -10 2.27447 2.29460  14 
  -4   3 -10 5.38194 1.48604   1 
   4   3  10 1.44834 2.40935  15 
   4   3  10 3.44611 2.28826  30 
  -4   3 -10 2.53348 2.87875   6 
   4   3  10 3.21394 2.06994  28 
  -4   3 -10 3.92486 1.54995  17 
   4   3  10 3.19055 1.21213   1 
  -4   3 -10 1.44180 1.47097   3 
   4   3  10 3.18179 1.56724   3 
   5  -3  10 54.4393 4.67002  18 
   5  -3  10 65.6989 4.59196  19 
   5  -3  10 51.3185 4.22028  27 
   5  -3  10 52.1970 4.77731  33 
   5  -3  10 56.9759 4.88232  20 
  -5  -3 -10 54.1090 3.98299  27 
   5  -3  10 55.3529 4.86077  24 
  -5  -3 -10 60.4294 4.63343  20 
  -5  -3 -10 52.2080 4.29052  19 
  -5   3 -10 53.3107 3.84416   4 
   5   3  10 61.3775 4.29204  28 
  -5   3 -10 65.7931 3.57468   3 
  -5   3 -10 67.0624 3.41806  32 
  -5   3 -10 69.1542 4.18242  31 
   5   3  10 55.0598 4.08870   3 
   5   3  10 64.4801 4.96275   7 
  -5   3 -10 57.5412 4.69297  14 
  -5   3 -10 54.1209 4.76410   6 
  -5   3 -10 51.3824 4.37925   8 
  -5   3 -10 53.7046 3.27272   1 
  -5   3 -10 55.3215 4.45655  25 
  -5   3 -10 62.2462 3.75438  17 
  -5   3 -10 62.8533 4.19177  30 
   5   3  10 61.4767 4.36201  31 
  -5   3 -10 65.1004 4.21240   7 
   5   3  10 53.9102 5.27499  15 
  -5   3 -10 57.1520 4.07461   2 
   5   3  10 61.5231 4.41186  30 
   7  -4 -10 12.1186 2.89264  27 
  -7  -4  10 12.6827 3.62515  24 
   7  -4 -10 20.7170 4.10245  24 
  -7  -4  10 9.42700 2.56436  27 
  -7  -4  10 13.6071 2.99254  19 
   7   4 -10 12.9331 2.24477  28 
  -7   4  10 15.0286 2.47783  22 
  -7   4  10 14.6863 2.16202  29 
   7   4 -10 17.0138 2.88247  17 
   7   4 -10 11.1104 2.90391  31 
   7   4 -10 18.5039 3.03267  30 
  -7   4  10 15.8137 2.13693  28 
   7   4 -10 7.89488 2.26380   7 
  -6  -4  10 1.07973 2.63532  24 
   6  -4 -10 5.30735 1.85428  27 
  -6  -4  10 1.90118 1.66682  27 
   6   4 -10 3.47525 1.60236   3 
   6   4 -10 6.55554 2.31566  30 
   6   4 -10 1.43399 2.09466  15 
  -6   4  10 5.10859 1.54955  28 
   6   4 -10 2.66048 2.16169  17 
  -6   4  10 4.15950 1.74868  22 
   6   4 -10 5.86443 2.06316  28 
   6   4 -10 3.29905 2.47162   7 
   6   4 -10 1.88053 2.26104  31 
   6   4 -10 2.40632 2.21760  36 
  -6   4  10 3.40308 1.48580  29 
  -5  -4  10 66.0925 6.62478  24 
  -5  -4  10 64.1448 5.18713  27 
   5   4 -10 62.7112 5.12092  30 
   5   4 -10 54.4699 3.95937   3 
  -5   4  10 59.5662 3.85054  30 
  -5   4  10 69.5821 4.47697  28 
  -5   4  10 68.3869 4.34318  29 
   5   4 -10 66.2914 5.66758   7 
   5   4 -10 60.8098 6.11577  36 
   5   4 -10 74.1729 9.64542  15 
  -5   4  10 65.5822 4.74254  22 
   5   4 -10 61.4819 3.75146  32 
   5   4 -10 73.5195 5.44286  31 
   5   4 -10 59.7381 5.32107  17 
   5   4 -10 65.1987 4.88214  28 
  -4  -4  10 91.6763 6.49237  27 
  -4  -4  10 91.6602 7.86213  24 
   4   4 -10 92.3354 5.23306  32 
   4   4 -10 93.0193 5.36228   3 
   4   4 -10 88.6797 4.86047   1 
  -4   4  10 92.0960 5.73211  28 
   4   4 -10 90.1579 6.56787  17 
   4   4 -10 88.9190 5.93696  28 
   4   4 -10 87.8460 6.70118   7 
  -4   4  10 99.2309 5.59302  29 
   4   4 -10 102.862 9.75621  82 
   4   4 -10 88.5848 6.34491  30 
   4   4 -10 92.3474 7.78392  36 
  -4   4  10 83.8800 6.56942  37 
  -4   4  10 94.3745 5.27842  30 
   4   4 -10 92.5914 6.49496  31 
  -3  -4  10 30.8553 6.29045  24 
  -3  -4  10 25.1204 4.19969  27 
   3   4 -10 33.3898 4.38117  31 
   3   4 -10 28.7518 4.39414   7 
   3   4 -10 24.2108 4.28481  17 
  -3   4  10 26.5503 2.87250  29 
  -3   4  10 30.0447 3.22307  28 
  -3   4  10 25.7368 4.69341  37 
   3   4 -10 22.3911 8.20676  82 
   3   4 -10 28.7002 3.77480  28 
   3   4 -10 20.0852 4.99922  42 
  -3   4  10 26.2204 2.72361  30 
   3   4 -10 21.8266 2.67700  32 
   3   4 -10 26.3633 2.85974   3 
   3   4 -10 23.8987 2.18535   1 
   3   4 -10 24.8095 4.08537  30 
  -2  -4  10 82.5123 6.01594  27 
  -2  -4  10 89.7198 6.55766  38 
   2   4 -10 74.6227 6.01094  29 
   2   4 -10 85.9269 5.78279  17 
  -2   4  10 73.5484 7.49218  21 
  -2   4  10 85.4852 5.06251  30 
   2   4 -10 85.5340 5.62003  28 
   2   4 -10 84.4694 7.07891  42 
   2   4 -10 93.6436 5.95995  30 
   2   4 -10 85.4028 4.54794   1 
   2   4 -10 92.0077 6.06385  31 
  -2   4  10 74.1666 6.60722  37 
   2   4 -10 83.4515 6.18779   7 
  -2   4  10 83.5276 5.38895  28 
   2   4 -10 81.7583 5.00652   3 
   2   4 -10 87.0196 4.85352  32 
  -2   4  10 75.9760 5.18599  29 
   2   4 -10 83.4234 9.75288  82 
  -1  -4  10 77.6939 5.66538  27 
  -1  -4  10 78.9558 6.09816  38 
   1   4 -10 85.2028 4.50198   1 
  -1   4  10 76.8780 5.06007  29 
   1   4 -10 84.3309 4.73672   3 
   1   4 -10 72.0357 9.26076  82 
   1   4 -10 81.4005 5.62180  17 
   1   4 -10 79.1592 5.30926  28 
   1   4 -10 81.4682 5.67586  31 
  -1   4  10 72.6992 4.87991  30 
   1   4 -10 85.1882 6.84851  42 
   1   4 -10 76.9255 5.28352  29 
  -1   4  10 79.3269 5.25265  28 
   1   4 -10 80.6707 4.49674  32 
  -1   4  10 73.4655 6.31748  37 
   1   4 -10 81.1847 5.81224   7 
   1   4 -10 78.0776 5.62947  30 
  -1   4  10 75.1142 7.72602  21 
   0  -4  10 112.275 6.96404  27 
   0  -4  10 106.972 10.1617  24 
   0  -4  10 99.6838 7.45860  34 
   0  -4  10 115.675 7.38179  38 
   0   4 -10 113.097 6.52249  28 
   0   4  10 118.380 6.47492  29 
   0   4 -10 112.101 5.74390  32 
   0   4 -10 105.740 5.95310   3 
   0   4 -10 106.783 7.71324  42 
   0   4 -10 108.335 7.53662  14 
   0   4 -10 110.215 6.79284  31 
   0   4  10 103.017 6.59339  28 
   0   4  10 111.261 9.10530  21 
   0   4  10 117.986 6.33073  30 
   0   4 -10 110.050 6.91356   7 
   0   4 -10 113.144 6.75599  29 
   0   4 -10 107.431 6.72457  17 
   0   4 -10 111.647 6.85826  30 
   0   4  10 108.123 7.43956  37 
  -1  -4 -10 112.935 6.62990  27 
   1  -4  10 111.366 7.56490  34 
   1  -4  10 113.559 7.90722  24 
   1  -4  10 116.585 6.78727  27 
   1  -4  10 93.3532 6.79225  38 
   1  -4  10 104.773 7.74177  33 
  -1   4 -10 127.488 6.45222   3 
  -1   4 -10 95.2478 6.53173  35 
   1   4  10 115.596 6.59538  28 
   1   4  10 100.106 7.04885  37 
  -1   4 -10 106.292 7.31444  14 
   1   4  10 114.790 8.82975  21 
   1   4  10 123.152 6.50719  29 
  -1   4 -10 123.735 6.87434   7 
  -1   4 -10 105.994 6.51241  17 
  -1   4 -10 113.525 6.42789  28 
   1   4  10 97.1512 7.49541   7 
  -1   4 -10 111.794 6.62896  30 
  -1   4 -10 97.4859 6.49380  29 
  -1   4 -10 111.891 6.58217  31 
   1   4  10 104.655 6.28043  30 
   2  -4  10 61.9833 5.23471  34 
  -2  -4 -10 56.7125 4.40641  27 
   2  -4  10 57.4686 4.62851  38 
   2  -4  10 52.3401 5.68596  24 
   2  -4  10 57.5552 5.26118  33 
   2  -4  10 64.7108 4.52577  27 
  -2   4 -10 59.3004 4.31427  30 
   2   4  10 50.0766 5.41791  31 
  -2   4 -10 58.9405 3.86640  35 
   2   4  10 51.5351 4.87284   7 
  -2   4 -10 51.9193 4.09592  17 
  -2   4 -10 57.6016 4.45091   7 
  -2   4 -10 58.6051 4.00293  28 
   2   4  10 56.7789 4.32491  28 
  -2   4 -10 49.7998 4.88975  14 
   2   4  10 60.5092 4.28432  29 
   2   4  10 56.7424 4.09635  30 
   2   4  10 56.0354 6.26136  21 
  -2   4 -10 59.5777 4.12885  31 
   3  -4  10 11.3134 3.44952  33 
   3  -4  10 9.49555 3.14805  34 
  -3  -4 -10 6.36137 1.60829  27 
   3  -4  10 8.49971 3.92867  24 
   3  -4  10 15.7802 2.89236  27 
  -3   4 -10 9.92838 1.70067  35 
   3   4  10 7.85664 2.19390  30 
  -3   4 -10 10.4433 2.53999  28 
   3   4  10 6.31514 2.23908   7 
  -3   4 -10 8.77937 1.47367  35 
   3   4  10 8.95218 1.93627  29 
   3   4  10 4.79353 1.85323  28 
  -3   4 -10 10.5678 2.22402  17 
  -3   4 -10 6.59362 2.05835  14 
  -3   4 -10 8.07122 2.31687  31 
  -3   4 -10 5.95812 1.74359   7 
  -3   4 -10 7.95455 2.41331  30 
  -4  -4 -10 2.69412 1.21115  27 
   4  -4  10 3.15857 1.45692  27 
   4  -4  10 7.28157 3.25022  24 
   4   4  10 5.43797 1.62437  28 
  -4   4 -10 2.81927 1.10270  30 
   4   4  10 3.37970 1.43798  29 
  -4   4 -10 2.33078 1.19962  17 
   4   4  10 0.55926 1.82079  15 
  -4   4 -10 0.84669 1.90494   8 
  -4   4 -10 3.51647 1.13603  31 
   4   4  10 4.01034 1.64970   7 
   4   4  10 2.38472 1.07465  30 
  -4   4 -10 3.74176 1.21016  28 
  -4   4 -10 2.11321 1.65174  14 
  -4   4 -10 4.39198 1.30265   7 
  -5  -5  10 1.82445 1.97390  24 
  -5  -5  10 0.50422 1.28906  27 
   5   5 -10 0.86847 1.38166  29 
   5   5 -10 -1.5848 1.29140  28 
   5   5 -10 2.76610 1.66082  17 
  -5   5  10 3.10971 0.88557  26 
  -5   5  10 2.64889 1.24082  28 
  -5   5  10 0.96466 0.79230  29 
  -5   5  10 1.35297 0.81190  11 
  -4  -5  10 63.6053 5.14353  24 
  -4  -5  10 59.8467 4.05847  27 
  -4   5  10 57.2193 3.25223  11 
   4   5 -10 57.0393 3.88728  29 
   4   5 -10 54.7184 3.77525  28 
  -4   5  10 60.4189 3.36431  26 
   4   5 -10 49.0886 3.34851  30 
  -4   5  10 55.3468 3.36049  28 
  -4   5  10 52.1670 3.35524  29 
   4   5 -10 53.9299 4.02287  17 
  -3  -5  10 11.1653 2.86012  27 
  -3  -5  10 14.1719 3.88616  24 
  -3   5  10 10.3531 1.80152  28 
   3   5 -10 12.4354 1.70457  30 
  -3   5  10 14.0421 1.62691  11 
  -3   5  10 12.5904 1.84775  26 
   3   5 -10 10.2905 2.33346  29 
   3   5 -10 16.5828 2.35044  28 
   3   5 -10 9.28743 1.82233  17 
  -3   5  10 11.7416 1.73972  29 
  -2  -5  10 28.8015 3.27378  27 
   2   5 -10 25.9025 2.23118  30 
   2   5 -10 28.8830 2.71836  28 
  -2   5  10 31.7415 2.37438  26 
  -2   5  10 29.1162 2.53673  28 
  -2   5  10 33.0837 2.29732  11 
  -2   5  10 24.3282 4.24570  21 
   2   5 -10 34.2394 2.95154  29 
  -2   5  10 33.7211 5.10870  37 
  -2   5  10 30.1148 2.39929  29 
  -1  -5  10 88.4071 5.29667  27 
  -1  -5  10 94.6864 6.50515  34 
   1   5 -10 80.9933 5.00414  29 
   1   5 -10 88.3719 4.99236  28 
  -1   5  10 66.2686 6.34684  37 
   1   5 -10 80.3198 4.78732  30 
  -1   5  10 96.7011 4.84608  29 
  -1   5  10 76.4436 6.60324  21 
  -1   5  10 82.6620 4.85337  28 
  -1   5  10 85.8465 4.68330  11 
   0  -5  10 133.613 7.62724  27 
   0   5 -10 142.979 7.46175  29 
   0   5  10 144.191 7.36533  28 
   0   5 -10 138.033 7.37973  28 
   0   5  10 131.826 8.77801  21 
   0   5  10 141.248 7.34333  29 
   0   5  10 141.628 7.24412  11 
   1  -5  10 39.0249 4.15248  24 
   1  -5  10 43.4183 3.22895  27 
   1   5  10 44.7123 3.00645  29 
   1   5  10 36.4988 2.91840  28 
  -1   5 -10 37.8922 2.94430  29 
   1   5  10 46.5055 5.00315  21 
  -1   5 -10 43.2634 3.31015  17 
   1   5  10 43.7627 2.76956  11 
   2  -5  10 22.3911 3.43883  24 
   2  -5  10 21.7730 2.28662  27 
   2   5  10 30.3140 4.99160  21 
   2   5  10 23.4819 2.00947  11 
   2   5  10 18.7538 2.06900  28 
  -2   5 -10 15.3743 2.46814  17 
  -2   5 -10 17.4038 2.00923  28 
  -2   5 -10 23.7207 2.00859  29 
   2   5  10 18.7851 2.00156  29 
  -9   0  11 5.08800 2.23046  13 
   9   0 -11 2.17418 2.11772  19 
   9   0 -11 1.61930 2.46544  18 
   9   0 -11 4.47048 2.60992  20 
  -9   0  11 5.58239 2.00110  16 
  -9   0  11 -0.5346 2.33042   4 
  -9   0  11 1.58759 2.69148   2 
  -8   0  11 1.12301 4.67030  83 
   8   0 -11 0.00000 2.63439  19 
  -8   0  11 1.39038 2.74032  14 
  -8   0  11 2.69997 2.54215  13 
  -8   0  11 0.23821 2.91130   2 
   8   0 -11 3.42663 3.15913  18 
   8   0 -11 2.47199 3.05144  20 
  -8   0  11 1.52407 2.87151   4 
   7   0 -11 3.51768 3.53102  20 
  -7   0  11 -3.1640 2.68000  14 
  -7   0  11 2.48910 2.78799  13 
  -7   0  11 -3.0452 4.21961  83 
   7   0 -11 -1.2533 3.52041  18 
  -7   0  11 1.52317 3.11297   4 
   7   0 -11 0.07199 4.63262  78 
  -7   0  11 1.73895 3.23012   2 
   7   0 -11 -0.6139 3.02881  19 
   7   0 -11 1.27405 2.58434  81 
   7   0 -11 -0.8704 2.20787  76 
  -6   0  11 55.3221 5.78179  18 
   6   0 -11 43.2016 8.58760  76 
  -6   0  11 55.9601 5.95735  14 
  -6   0  11 51.1694 6.18331  13 
  -6   0  11 71.1564 5.79733  15 
  -6   0  11 51.9041 5.60533  78 
  -6   0  11 45.2801 7.00051  83 
   6   0 -11 54.5310 7.02678  20 
   6   0 -11 63.7434 6.47126  18 
   6   0 -11 58.1945 6.23589  78 
  -6   0  11 46.3031 6.69293   2 
  -6   0  11 53.0473 6.03267   4 
   6   0 -11 60.0365 6.09509  19 
   5   0 -11 173.835 14.3152  76 
  -5   0  11 164.506 10.3914  15 
  -5   0  11 154.620 10.5402  13 
   5   0 -11 167.152 11.1221  20 
   5   0 -11 157.725 10.6163  18 
  -5   0  11 189.341 10.5078  78 
  -5   0  11 162.411 10.2531   4 
   5   0 -11 168.884 12.8863  24 
  -5   0  11 164.115 11.7488  83 
   5   0 -11 163.515 10.4511  78 
  -5   0  11 171.009 10.5905  74 
   5   0 -11 150.905 17.6522  72 
  -5   0  11 161.834 9.95939  18 
  -5   0  11 153.960 10.7161   2 
  -5   0  11 165.724 10.5148  20 
   5   0 -11 165.195 10.3619  19 
  -5   0  11 171.190 9.53643  81 
  -5   0  11 165.302 9.84332  19 
   4   0 -11 31.9888 5.51246  78 
   4   0 -11 33.3158 9.30339  76 
   4   0 -11 27.8912 4.34319  45 
  -4   0  11 42.6577 8.17861  76 
  -4   0  11 23.2028 5.08806  78 
  -4   0  11 28.5291 4.34406  74 
  -4   0  11 25.8629 4.39343  81 
  -4   0  11 30.1088 6.62337  83 
  -3   0  11 556.262 29.6537  78 
   3   0 -11 574.356 32.6791  79 
   3   0 -11 611.378 34.8752  76 
   3   0 -11 591.726 29.7034  78 
  -3   0  11 545.720 30.5087  83 
   3   0 -11 489.942 30.0814  75 
  -3   0  11 618.532 30.8318  76 
   3   0 -11 585.547 29.5110  45 
  -2   0  11 304.685 17.3430  83 
   2   0 -11 270.553 15.7625  45 
   2   0 -11 303.874 20.3851  76 
   2   0 -11 239.529 18.9526  79 
  -2   0  11 317.650 17.9897  73 
   2   0 -11 342.509 16.9920  75 
  -2   0  11 288.156 16.3259  78 
   2   0 -11 285.757 16.1963  78 
  -2   0  11 269.583 16.0623  81 
  -2   0  11 310.576 18.4898  76 
  -1   0  11 115.030 9.67072  83 
  -1   0  11 123.719 8.55247  78 
  -1   0  11 116.303 8.48746  81 
   1   0 -11 106.942 7.52169  45 
   1   0 -11 121.542 12.0432  76 
  -1   0  11 138.359 12.1112  73 
   1   0 -11 127.004 8.49567  78 
   0   0  11 103.872 8.19244  78 
   0   0  11 120.689 8.30810  81 
   0   0  11 107.447 11.3307  73 
   0   0 -11 114.352 8.05139  78 
   0   0 -11 104.818 7.08997  45 
   0   0  11 99.4489 9.24558  83 
   0   0 -11 115.058 11.5479  76 
   1   0  11 12.4099 3.85615  38 
   1   0  11 5.51150 3.56067  15 
  -1   0 -11 16.5502 3.88338  78 
   1   0  11 21.1592 5.04678  78 
   1   0  11 16.6206 4.95675  81 
  -1   0 -11 6.58318 4.89454   6 
   1   0  11 17.9069 5.78066  83 
  -1   0 -11 13.3763 7.93193  76 
   1   0  11 13.1265 7.75843  73 
   2   0  11 133.512 9.06446   4 
   2   0  11 147.817 9.28613   2 
  -2   0 -11 137.877 8.85164  20 
   2   0  11 159.771 9.30226  38 
   2   0  11 139.403 9.29767  20 
  -2   0 -11 145.090 9.37872  78 
   2   0  11 150.633 10.1265  15 
   2   0  11 136.724 10.7154  83 
   2   0  11 145.294 8.70444  19 
   2   0  11 133.988 10.3213  73 
  -2   0 -11 148.601 8.58744  19 
  -2   0 -11 145.244 9.51831   6 
  -2   0 -11 146.560 9.28448   5 
  -2   0 -11 139.315 8.78337  18 
   2   0  11 137.419 8.88861  18 
   2   0  11 142.346 9.38763  81 
   2   0  11 131.373 9.70815  78 
  -2   0 -11 155.529 12.5136  76 
  -3   0 -11 -3.4455 2.77028  78 
  -3   0 -11 3.71899 2.04335  19 
  -3   0 -11 1.44932 1.87295  76 
   3   0  11 -0.5163 2.20168  19 
  -3   0 -11 3.88593 3.27209   6 
  -3   0 -11 -0.2258 2.29668  20 
  -3   0 -11 -3.1367 2.46954   5 
   3   0  11 -3.4025 3.15491  78 
   3   0  11 -1.6899 2.32028  40 
   3   0  11 -0.1452 2.42120  18 
   3   0  11 2.26177 2.05816  81 
   3   0  11 3.61075 2.86085   2 
   3   0  11 -0.2351 3.21974  38 
   3   0  11 4.83682 2.75057  20 
   3   0  11 -1.9583 2.44257  34 
  -3   0 -11 1.27750 2.21735  18 
   3   0  11 -0.8161 4.53546  83 
   3   0  11 -0.5295 2.93373   4 
   4   0  11 25.0457 4.00266  18 
   4   0  11 11.0197 3.22573   4 
   4   0  11 15.7383 4.57129  38 
   4   0  11 25.1064 4.82919   2 
   4   0  11 21.0578 4.55930  20 
  -4   0 -11 18.7872 4.05386  20 
  -4   0 -11 23.8217 3.44649  18 
  -4   0 -11 21.2673 4.54251   6 
   4   0  11 16.4637 4.23692  40 
  -4   0 -11 14.4710 4.53046   5 
   4   0  11 13.6831 4.04585  34 
  -4   0 -11 23.4660 4.00806   8 
   4   0  11 17.9845 6.02525  83 
  -4   0 -11 17.6658 3.35008  19 
  -5   0 -11 2.91443 2.01147   5 
  -5   0 -11 3.65891 1.65946  18 
   5   0  11 7.89478 2.67721   4 
  -5   0 -11 3.75445 1.92840  20 
   5   0  11 3.63321 2.76328   2 
  -5   0 -11 5.02458 2.86907   6 
  -5   0 -11 2.73088 2.11473   8 
   5   0  11 2.00760 2.51557  13 
  -5   0 -11 4.02895 2.35656  19 
   5   0  11 6.25423 3.30923  38 
  -6   0 -11 5.36176 1.64042  13 
   6   0  11 4.83088 2.15488   4 
   6   0  11 5.57064 1.98505  13 
  -6   0 -11 5.40524 1.67760   5 
  -6   0 -11 3.12871 1.54709   8 
   9  -1 -11 13.1010 3.65871  19 
   9  -1 -11 14.7464 4.34848  20 
  -9  -1  11 12.8667 2.42130  13 
   9  -1 -11 12.2381 3.61999  18 
  -9   1  11 14.3773 3.41487  31 
  -9   1  11 12.1580 2.42407  13 
  -9   1  11 7.94954 2.36778   2 
  -9   1  11 12.1993 2.12171  16 
  -9   1  11 12.1840 3.10369   4 
  -9   1  11 13.0710 2.64193   3 
  -9   1  11 11.9939 2.32829   1 
   9   1 -11 6.63009 2.54926   4 
  -9   1  11 12.7852 3.60985   7 
  -9   1  11 10.9695 3.25576  14 
   9   1 -11 22.0819 4.56269  13 
  -8  -1  11 107.356 7.12037  18 
  -8  -1  11 107.185 7.64399  20 
   8  -1 -11 110.145 7.86761  19 
  -8  -1  11 107.991 6.73224  19 
   8  -1 -11 119.106 7.80171  18 
   8  -1 -11 117.361 8.24663  20 
  -8   1  11 135.039 8.02234   7 
  -8   1  11 110.591 7.44791   4 
  -8   1  11 103.586 6.84893  13 
  -8   1  11 104.873 7.51634  14 
   8   1 -11 117.169 8.16268  13 
   8   1 -11 93.1822 7.99639  18 
  -8   1  11 113.415 7.82038   2 
  -8   1  11 120.331 7.49700  31 
   8   1 -11 109.459 7.61740   4 
  -8   1  11 114.393 7.31388  15 
  -8   1  11 112.092 6.67175  16 
  -7  -1  11 98.6303 6.88951  18 
   7  -1 -11 70.4339 7.61412  79 
   7  -1 -11 91.6634 7.36613  18 
  -7  -1  11 88.3196 6.49794  19 
   7  -1 -11 96.3944 7.50251  19 
   7  -1 -11 87.8057 6.50862  27 
   7  -1 -11 85.3125 7.55257  24 
   7  -1 -11 93.1390 7.92189  20 
  -7  -1  11 93.9300 6.54502  81 
  -7  -1  11 95.3189 7.33912  20 
  -7   1  11 88.5518 6.61854  13 
  -7   1  11 95.6085 7.47114   7 
  -7   1  11 100.593 7.42501  15 
  -7   1  11 93.4498 6.96382  31 
   7   1 -11 89.8096 7.66690  20 
   7   1 -11 95.8186 7.83892  13 
   7   1 -11 91.4755 8.28911  83 
   7   1 -11 108.437 7.98169  19 
  -7   1  11 81.7087 6.07088   3 
  -7   1  11 96.1042 7.04107   4 
   7   1 -11 89.1306 7.26848   4 
  -7   1  11 97.8028 7.57791   2 
  -7   1  11 100.503 6.45059  16 
   7   1 -11 92.2923 7.30941  41 
   7   1 -11 91.6242 7.02238  18 
  -7   1  11 91.3392 7.64750  83 
  -7   1  11 83.6340 6.96414  14 
  -6  -1  11 17.3746 3.61094  18 
   6  -1 -11 9.99895 2.90493  27 
   6  -1 -11 17.8723 5.84301  79 
  -6  -1  11 13.4031 4.73630  81 
  -6  -1  11 12.9838 7.57222  76 
   6  -1 -11 9.75583 3.53843  75 
  -6  -1  11 9.11396 2.92820  19 
   6  -1 -11 11.5455 4.04464  20 
  -6  -1  11 16.2837 4.22289  78 
   6  -1 -11 12.9400 3.62622  19 
   6  -1 -11 8.26380 3.36306  24 
  -6  -1  11 10.9228 3.60345  20 
   6  -1 -11 10.4431 3.89016  18 
   6   1 -11 19.6442 4.52053  78 
   6   1 -11 13.5052 3.61378  18 
  -6   1  11 10.3841 3.22866  14 
  -6   1  11 16.9332 4.09358  16 
   6   1 -11 5.24910 3.64524  41 
  -6   1  11 9.58937 3.23174   7 
  -6   1  11 10.4516 2.58971   3 
  -6   1  11 17.9605 5.25749  15 
   6   1 -11 5.76093 3.43209   4 
   6   1 -11 9.75869 4.26451  13 
   6   1 -11 7.27252 2.19265  81 
   6   1 -11 8.69768 3.67832  20 
  -6   1  11 14.7124 3.89194  37 
  -6   1  11 12.0956 3.25912   4 
  -6   1  11 14.5212 3.32047  31 
  -6   1  11 12.9416 4.96240  83 
  -6   1  11 15.9249 3.74435   2 
   6   1 -11 14.4538 5.29605  83 
  -6   1  11 9.49577 2.59448  13 
   6   1 -11 15.5310 4.78196  19 
  -5  -1  11 4.01774 3.34761  20 
   5  -1 -11 6.49186 4.04991  18 
   5  -1 -11 5.04946 3.13243  24 
   5  -1 -11 7.58989 2.64829  27 
  -5  -1  11 5.06567 3.83776  78 
  -5  -1  11 11.3389 3.43713  18 
   5  -1 -11 4.55372 4.17854  79 
  -5  -1  11 2.98029 2.83883  81 
   5  -1 -11 0.77771 3.52403  19 
   5  -1 -11 2.63196 3.28457  75 
  -5  -1  11 14.3393 9.06165  76 
   5  -1 -11 1.61129 3.78169  20 
  -5  -1  11 8.29120 3.53625  74 
  -5  -1  11 6.44330 2.92419  19 
  -5   1  11 5.81437 2.84967  15 
  -5   1  11 2.26292 3.11808   2 
   5   1 -11 6.90508 4.87163  83 
   5   1 -11 8.72843 3.17804  19 
  -5   1  11 8.54118 2.75940  31 
  -5   1  11 4.36321 3.14973   7 
  -5   1  11 5.84643 3.37730  16 
   5   1 -11 5.27223 3.70025  78 
   5   1 -11 3.27263 3.42148  18 
  -5   1  11 9.15139 3.33230  37 
  -5   1  11 3.58950 2.51541  13 
  -5   1  11 8.34295 4.37935  83 
   5   1 -11 6.68263 4.06043  41 
   5   1 -11 3.79108 3.70889  20 
  -5   1  11 3.40974 2.99595  14 
   5   1 -11 4.10181 2.35185  81 
   5   1 -11 4.81950 3.71464   4 
  -5   1  11 5.06339 2.70110   4 
   4  -1 -11 289.159 15.9230  27 
  -4  -1  11 243.480 27.6366  72 
  -4  -1  11 239.145 14.2828  78 
  -4  -1  11 242.105 18.5063  76 
   4  -1 -11 237.133 13.8775  75 
   4  -1 -11 255.250 15.0951  79 
  -4  -1  11 232.404 14.0880  74 
   4  -1 -11 243.390 13.4545  71 
   4  -1 -11 243.921 13.6388  45 
  -4  -1  11 254.639 16.2206  18 
   4   1 -11 270.892 15.0724  83 
  -4   1  11 213.661 14.5317  13 
   4   1 -11 224.951 14.6163  76 
   4   1 -11 263.468 13.9655  78 
  -4   1  11 207.233 15.1604   2 
  -4   1  11 250.638 14.9022  83 
  -4   1  11 241.252 13.5509  37 
   3  -1 -11 134.720 8.47643  45 
  -3  -1  11 134.077 8.76492  74 
  -3  -1  11 133.741 9.27233  78 
   3  -1 -11 121.888 8.65963  75 
   3  -1 -11 136.156 8.28317  71 
  -3  -1  11 139.142 15.3058  76 
  -3  -1  11 127.942 8.19839  45 
   3  -1 -11 142.275 10.1195  79 
  -3   1  11 128.616 8.28447  37 
   3   1 -11 123.949 10.0704  83 
   3   1 -11 149.439 9.13660  78 
  -3   1  11 125.725 9.43919  83 
   2  -1 -11 97.8984 6.88500  71 
   2  -1 -11 98.4095 6.74054  45 
   2  -1 -11 111.786 8.80721  79 
  -2  -1  11 99.1542 7.33622  74 
  -2  -1  11 103.155 7.94000  78 
  -2  -1  11 110.806 7.05773  45 
   2  -1 -11 103.584 7.33263  75 
  -2  -1  11 101.096 16.4338  76 
  -2   1  11 110.144 7.25592  37 
  -2   1  11 115.810 8.86256  83 
   2   1 -11 98.6489 8.27989  83 
   2   1 -11 101.733 9.38597  76 
  -2   1  11 83.7015 6.97187  78 
   2   1 -11 97.2527 7.55738  78 
   1  -1 -11 302.205 16.1749  71 
  -1  -1  11 281.358 16.4936  74 
  -1  -1  11 293.323 16.8822  78 
   1  -1 -11 316.215 16.5192  75 
  -1  -1  11 291.744 16.1020  45 
  -1  -1  11 271.652 22.9499  76 
   1  -1 -11 276.449 16.0003  45 
   1  -1 -11 286.915 17.1240  79 
   1   1 -11 305.133 17.2676  83 
  -1   1  11 324.086 17.0759  73 
  -1   1  11 301.948 15.9904  37 
  -1   1  11 288.763 16.2004  78 
   1   1 -11 317.205 17.5828  76 
  -1   1  11 307.306 17.5575  83 
   1   1 -11 317.518 16.4447  78 
   0  -1 -11 2.01604 1.78411  45 
   0  -1 -11 3.16506 3.58079  79 
   0  -1  11 2.75863 3.62921  78 
   0  -1 -11 -1.2352 2.35038  71 
   0  -1  11 -1.4411 4.20372  33 
   0  -1  11 -1.3168 4.30224  76 
   0  -1  11 0.27743 2.22009  45 
   0  -1 -11 4.15366 2.83795  75 
   0  -1  11 1.70686 2.73178  38 
   0   1 -11 -0.1420 3.13737  78 
   0   1  11 0.20802 2.96888  78 
   0   1  11 -1.0040 4.12510  83 
   0   1 -11 2.08481 2.02077  76 
   0   1  11 7.83298 4.27031  73 
   0   1 -11 0.85866 4.22046  83 
  -1  -1 -11 223.918 12.5737  19 
  -1  -1 -11 240.766 14.0392  79 
  -1  -1 -11 217.682 13.2181  24 
   1  -1  11 251.536 12.8505  38 
   1  -1  11 228.211 21.6139  76 
   1  -1  11 231.614 13.2679  33 
   1  -1  11 260.800 12.6705  19 
  -1  -1 -11 208.428 12.1278  27 
   1  -1  11 213.797 12.8499  20 
  -1  -1 -11 220.364 12.8839  75 
  -1  -1 -11 210.856 12.4147  18 
   1  -1  11 222.167 12.5258  18 
   1  -1  11 238.858 13.7170  78 
  -1  -1 -11 233.190 12.8277  20 
   1  -1  11 221.815 13.0883  34 
  -1  -1 -11 209.295 12.6173   5 
  -1  -1 -11 228.383 13.0581   6 
  -1   1 -11 207.000 12.0456  19 
  -1   1 -11 211.841 12.4348  20 
   1   1  11 208.374 12.6546   2 
  -1   1 -11 217.818 12.5341  13 
   1   1  11 240.298 12.7864   7 
  -1   1 -11 237.060 13.6436  83 
  -1   1 -11 223.433 12.6243   2 
  -1   1 -11 220.419 13.1628   6 
   1   1  11 211.447 14.0862  83 
   1   1  11 221.829 12.6025   4 
  -1   1 -11 211.400 11.7568  17 
  -1   1 -11 227.281 12.8566  78 
  -1   1 -11 239.701 12.2941  18 
   1   1  11 231.319 13.4904  15 
  -1   1 -11 206.842 12.2362   4 
   1   1  11 237.190 13.2843  73 
   2  -1  11 23.2984 4.31819  18 
  -2  -1 -11 29.2172 5.16674  78 
  -2  -1 -11 27.5576 4.24349  18 
   2  -1  11 23.6965 4.31333  38 
  -2  -1 -11 27.9105 4.41360  75 
   2  -1  11 28.3196 5.06061  34 
   2  -1  11 28.2303 4.44560  19 
  -2  -1 -11 31.1484 5.76111  79 
  -2  -1 -11 27.4778 4.56807   6 
  -2  -1 -11 29.0722 3.47033  27 
   2  -1  11 21.6328 5.36929  78 
   2  -1  11 53.3196 16.3723  76 
  -2  -1 -11 25.9975 4.95855  24 
   2  -1  11 25.1750 5.28971  33 
  -2  -1 -11 28.7660 4.19285  19 
  -2  -1 -11 36.2938 5.11771   5 
  -2  -1 -11 27.2055 4.34701  20 
   2  -1  11 21.8826 5.01811  20 
  -2   1 -11 29.4809 5.29037   6 
  -2   1 -11 28.7955 4.40511   2 
  -2   1 -11 30.5764 4.42009   8 
  -2   1 -11 26.9030 4.95669  17 
   2   1  11 27.0951 4.73623   2 
  -2   1 -11 11.3113 4.02459  20 
   2   1  11 27.7682 4.77201   4 
   2   1  11 23.9455 5.06058  15 
   2   1  11 24.8659 6.39102  83 
  -2   1 -11 24.2324 3.66755  18 
  -2   1 -11 24.5193 5.87573  83 
  -2   1 -11 27.1518 4.38988  78 
  -2   1 -11 26.5001 4.12746   4 
  -2   1 -11 24.0487 4.16618  13 
  -3  -1 -11 55.7673 5.88573   6 
  -3  -1 -11 58.6093 4.93847  19 
   3  -1  11 62.3445 6.79135  81 
   3  -1  11 51.7215 6.36735  78 
  -3  -1 -11 51.8790 4.96525  18 
   3  -1  11 96.7007 16.8433  76 
  -3  -1 -11 56.2470 5.80878  78 
   3  -1  11 49.0857 5.78889  34 
   3  -1  11 58.3436 5.97480  20 
  -3  -1 -11 58.2477 9.71800  76 
   3  -1  11 58.5818 5.43150  19 
   3  -1  11 56.9761 5.83718  38 
  -3  -1 -11 59.4609 6.58967  79 
  -3  -1 -11 60.9293 5.74168   5 
   3  -1  11 50.8351 5.20357  18 
  -3  -1 -11 52.9724 5.39269  20 
   3   1  11 56.5983 7.26365  83 
   3   1  11 55.1173 8.39840  38 
  -3   1 -11 51.7464 5.05627   2 
  -3   1 -11 61.0321 6.04856   6 
  -3   1 -11 61.8374 5.29660   8 
  -3   1 -11 55.7812 5.17539  78 
  -3   1 -11 55.4555 5.11237  13 
   3   1  11 57.1665 5.72724   2 
   3   1  11 62.2631 6.01560  15 
  -3   1 -11 59.9189 6.81482  83 
  -3   1 -11 54.8995 5.08251   4 
   3   1  11 52.0513 5.53203   4 
   4  -1  11 57.1015 5.46417  40 
  -4  -1 -11 62.5140 4.77920  18 
   4  -1  11 60.0531 5.26557  19 
   4  -1  11 64.7285 5.96546  20 
   4  -1  11 61.9657 5.60943  38 
  -4  -1 -11 60.1063 5.38628  20 
  -4  -1 -11 60.2710 5.46956   6 
  -4  -1 -11 56.6437 4.76483  19 
   4  -1  11 67.6590 5.36287  18 
   4  -1  11 53.9539 5.63665  34 
  -4  -1 -11 56.7252 5.67093   5 
   4   1  11 71.2987 5.87115  16 
  -4   1 -11 49.4583 6.32749  83 
  -4   1 -11 57.0652 5.12148   8 
   4   1  11 59.8449 5.28741  15 
   4   1  11 62.1664 7.15290  83 
   4   1  11 60.3372 5.74327   2 
   4   1  11 52.2407 5.50126  38 
  -4   1 -11 67.1173 5.99337   6 
   4   1  11 61.8937 5.60759   4 
  -4   1 -11 59.3831 5.23695   2 
  -4   1 -11 60.4969 5.52558   5 
   4   1  11 52.4262 5.65896  40 
  -4   1 -11 56.5957 5.09460  13 
  -4   1 -11 66.8569 4.94858   4 
   5  -1  11 67.2925 6.12217  20 
   5  -1  11 74.5586 5.68536  18 
  -5  -1 -11 92.5242 5.55325   8 
  -5  -1 -11 87.2448 5.33076  19 
   5  -1  11 90.1132 7.04621  38 
  -5  -1 -11 89.0477 6.20965   5 
  -5  -1 -11 91.3073 5.49736  18 
  -5  -1 -11 80.9565 5.80580  20 
   5  -1  11 75.6072 5.48611  19 
   5  -1  11 82.5268 6.17107  34 
   5   1  11 75.3202 6.51783   2 
  -5   1 -11 92.1272 5.51756   4 
  -5   1 -11 83.7297 5.52431  13 
  -5   1 -11 74.7050 6.20814   6 
  -5   1 -11 78.0857 5.56848   8 
   5   1  11 82.9495 5.80546  13 
   5   1  11 87.3997 5.60164  16 
  -5   1 -11 77.3125 5.66258   5 
   5   1  11 76.4216 6.32658   3 
   5   1  11 91.9997 6.04649   4 
  -5   1 -11 88.9229 5.79909   2 
  -6  -1 -11 16.9518 2.32892  18 
  -6  -1 -11 24.0096 2.63176   8 
   6  -1  11 21.2064 3.52559  20 
   6  -1  11 19.9979 2.66878  18 
  -6  -1 -11 25.1233 2.90751  20 
  -6  -1 -11 23.4054 3.19637   5 
  -6  -1 -11 20.8425 2.39136  19 
  -6   1 -11 21.5569 2.50690  13 
   6   1  11 21.8268 2.93197   3 
  -6   1 -11 23.9276 2.62629  16 
  -6   1 -11 27.4344 2.81213   4 
  -6   1 -11 25.5628 2.70974   8 
  -6   1 -11 26.6945 3.53922   5 
   6   1  11 28.2896 3.30535   1 
  -6   1 -11 20.2140 2.81741   2 
   6   1  11 20.5164 2.85501  13 
   6   1  11 23.6262 2.63673  16 
  -6   1 -11 29.1620 3.48128   6 
   6   1  11 20.2608 3.08342   4 
  -9  -2  11 4.51359 1.66111  18 
   9  -2 -11 1.70432 1.95889  19 
   9  -2 -11 4.01368 2.06388  18 
   9  -2 -11 4.07457 2.23579  20 
  -9  -2  11 3.02828 1.57371  19 
  -9  -2  11 3.52309 1.84892  20 
  -9   2  11 3.29169 1.79471   2 
  -9   2  11 3.48132 1.43313  30 
   9   2 -11 4.32861 1.82249  13 
  -9   2  11 3.53217 1.76018  14 
  -9   2  11 8.25734 2.41918  31 
  -9   2  11 4.35754 1.68595   7 
   9   2 -11 5.43020 2.45963   1 
   9   2 -11 4.67769 1.76578  16 
  -9   2  11 1.40134 1.26971  15 
  -9   2  11 2.51508 1.35065   3 
   9   2 -11 4.62667 2.07300   4 
   8  -2 -11 58.4660 5.45832  19 
   8  -2 -11 59.0212 4.84817  27 
   8  -2 -11 70.0046 6.13317  20 
  -8  -2  11 60.3773 5.40916  18 
  -8  -2  11 60.7203 4.79446  19 
   8  -2 -11 70.9428 5.73244  18 
  -8  -2  11 67.5708 5.60689  20 
   8  -2 -11 60.8492 5.60674  24 
   8   2 -11 67.7820 5.58257  13 
  -8   2  11 65.5840 5.14475  31 
  -8   2  11 60.9570 4.73993   4 
  -8   2  11 60.4948 5.48687  15 
  -8   2  11 56.5797 5.11665  14 
  -8   2  11 71.6983 5.52849   7 
   8   2 -11 71.4185 5.57069   4 
   8   2 -11 73.1309 5.26608  16 
  -8   2  11 68.1475 4.16998  32 
  -8   2  11 65.8963 5.06805   2 
  -8   2  11 65.7430 4.89018  30 
  -8   2  11 63.2166 3.88434   1 
  -8   2  11 67.0409 4.14963   3 
   7  -2 -11 84.7963 6.45270  27 
   7  -2 -11 87.8034 7.62800  24 
  -7  -2  11 96.9806 7.34897  20 
  -7  -2  11 95.6996 6.61920  19 
  -7  -2  11 96.4763 6.97239  18 
   7  -2 -11 91.6527 7.48385  20 
  -7   2  11 81.9209 6.82043   7 
   7   2 -11 91.8216 7.50928  83 
  -7   2  11 95.4086 5.72177   3 
  -7   2  11 90.4101 6.23342   4 
  -7   2  11 92.6534 5.56693   1 
  -7   2  11 88.7711 6.27806  30 
  -7   2  11 101.036 5.09671  16 
   7   2 -11 89.4222 6.98489  13 
   7   2 -11 84.9947 6.52300  16 
  -7   2  11 81.5109 5.76732  32 
   7   2 -11 91.5487 7.15551   4 
  -7   2  11 101.182 6.63756   2 
  -7   2  11 106.213 7.84284  15 
  -7   2  11 91.8910 6.58273  31 
  -7   2  11 77.1123 6.45631  14 
  -6  -2  11 7.78720 2.86448  19 
  -6  -2  11 8.69019 3.10192  20 
  -6  -2  11 11.4153 3.54399  18 
   6  -2 -11 5.99249 2.56759  27 
   6  -2 -11 5.60814 2.88361  24 
  -6  -2  11 6.27601 3.42772  24 
   6  -2 -11 8.96295 3.83508  79 
  -6  -2  11 6.60746 5.19417  78 
   6   2 -11 5.72348 2.59733  17 
  -6   2  11 4.64279 1.79434  16 
   6   2 -11 2.38758 3.90511  41 
  -6   2  11 4.63795 2.68027   2 
   6   2 -11 7.73414 4.36827  83 
  -6   2  11 7.30234 3.16867  30 
   6   2 -11 6.29345 3.16086  13 
  -6   2  11 7.90025 2.94817   7 
  -6   2  11 11.2370 2.76709  31 
  -6   2  11 14.2738 5.70124  15 
   6   2 -11 3.39041 3.01771  36 
  -6   2  11 3.82294 1.89154   3 
  -6   2  11 5.28038 2.30713  32 
  -6   2  11 3.51077 2.48773   4 
  -6   2  11 12.5467 3.18667  13 
  -6   2  11 2.34500 2.04537  28 
   6   2 -11 2.26229 3.49166   4 
  -6   2  11 4.92358 3.53345  83 
   6   2 -11 9.88168 5.75215  42 
  -6   2  11 4.53367 1.74891   1 
  -6   2  11 5.44259 3.14495  37 
   5  -2 -11 49.1572 6.52112  24 
   5  -2 -11 51.0903 4.96488  75 
   5  -2 -11 47.9279 4.97962  27 
  -5  -2  11 42.5533 5.45180  75 
  -5  -2  11 37.4960 5.91852  20 
   5  -2 -11 45.0250 6.39314  79 
  -5  -2  11 46.4218 6.09476  78 
  -5  -2  11 40.8859 5.88631  24 
  -5  -2  11 45.0149 5.61989  19 
  -5  -2  11 45.2187 5.85684  18 
  -5   2  11 43.0137 4.00121   3 
   5   2 -11 42.3619 5.92837  13 
   5   2 -11 56.6797 7.11727   7 
   5   2 -11 40.3891 5.63026   4 
  -5   2  11 38.6352 5.54436   7 
   5   2 -11 46.7485 6.37632  41 
  -5   2  11 42.1601 3.81924  16 
  -5   2  11 45.1225 5.76008  83 
  -5   2  11 41.2173 4.31802  28 
  -5   2  11 39.9301 4.84629   4 
  -5   2  11 42.8480 5.10212   2 
  -5   2  11 47.1912 4.37588  13 
   5   2 -11 40.0139 6.53337  83 
   5   2 -11 35.2470 8.73510  36 
  -5   2  11 44.3388 3.88563   1 
  -5   2  11 46.2463 4.75448  37 
  -5   2  11 38.3945 4.97027  31 
  -5   2  11 31.4478 4.61032  77 
   5   2 -11 51.6933 4.77298  17 
  -5   2  11 33.9406 5.14045  32 
  -4  -2  11 62.8378 6.89177  24 
  -4  -2  11 65.4096 6.39889  18 
  -4  -2  11 56.1972 6.04332  75 
  -4  -2  11 65.8737 6.30126  74 
   4  -2 -11 64.4407 5.69473  27 
  -4  -2  11 59.1254 5.56924  27 
   4  -2 -11 72.9020 7.41339  79 
  -4  -2  11 55.8398 6.25771  19 
   4  -2 -11 74.6714 7.28162  24 
  -4  -2  11 56.2129 6.65483  20 
  -4  -2  11 102.061 32.2040  72 
   4  -2 -11 71.4911 5.98809  75 
   4   2 -11 69.9782 6.11595   4 
  -4   2  11 68.8314 5.80981   4 
  -4   2  11 59.9044 6.12793   7 
   4   2 -11 72.6925 6.68094  13 
  -4   2  11 56.9447 5.74996   2 
   4   2 -11 59.2752 6.77037   7 
   4   2 -11 60.6744 9.53086  82 
  -4   2  11 66.7583 6.49222  83 
  -4   2  11 64.9624 5.31745  13 
  -4   2  11 70.9056 6.08078  37 
   4   2 -11 71.3158 7.39946  83 
  -4   2  11 69.9574 4.86210  16 
   4   2 -11 64.0555 7.07227  41 
  -4   2  11 67.9310 5.00957   3 
   4   2 -11 69.1647 5.89735  17 
  -4   2  11 72.5414 5.85718  31 
  -4   2  11 70.1795 5.56324  77 
  -4   2  11 64.5678 4.88109   1 
  -4   2  11 67.7717 5.19495  28 
  -3  -2  11 -0.0471 3.03545  18 
  -3  -2  11 1.64604 2.88428  19 
  -3  -2  11 2.02689 2.17189  27 
   3  -2 -11 1.56398 3.63236  79 
  -3  -2  11 11.0690 3.57311  20 
   3  -2 -11 1.57846 2.31039  27 
   3  -2 -11 2.82064 2.98822  75 
   3  -2 -11 -3.6377 3.08354  44 
  -3  -2  11 2.55704 2.70899  24 
  -3  -2  11 1.00387 3.03674  74 
  -3  -2  11 40.6629 29.0082  72 
  -3   2  11 6.12583 2.60265  31 
  -3   2  11 2.56716 2.27411  28 
  -3   2  11 6.19411 2.05765  16 
  -3   2  11 5.42702 2.79948   7 
   3   2 -11 7.86997 4.44468  83 
  -3   2  11 4.80312 2.05586   1 
  -3   2  11 1.37659 3.44495  83 
   3   2 -11 8.43687 4.15557  41 
   3   2 -11 5.60299 3.55561   7 
   3   2 -11 4.01979 7.27930  82 
   3   2 -11 8.07399 3.39319   4 
  -3   2  11 4.75857 2.09380   3 
  -3   2  11 0.85609 2.45413  77 
   3   2 -11 8.85820 3.23671  13 
   3   2 -11 7.49557 2.60929  17 
  -3   2  11 3.30851 2.68820   4 
  -3   2  11 5.39154 2.61308   2 
  -3   2  11 8.00653 3.71393  37 
   2  -2 -11 16.2257 5.83032  24 
  -2  -2  11 6.32581 3.00816  24 
  -2  -2  11 6.37109 3.55931  74 
  -2  -2  11 3.06956 2.21223  27 
   2  -2 -11 6.61054 2.44699  27 
  -2  -2  11 3.16143 2.67350  19 
   2  -2 -11 7.24556 3.68444  48 
  -2  -2  11 5.04246 3.14622  18 
  -2  -2  11 5.75943 3.14351  20 
   2  -2 -11 6.93198 3.92845  79 
  -2  -2  11 5.56386 2.91949  38 
  -2  -2  11 3.20763 3.85160  45 
  -2  -2  11 0.80120 4.77051  72 
   2  -2 -11 2.61387 2.86889  75 
  -2   2  11 7.92605 2.84824   7 
  -2   2  11 6.81639 2.91354  77 
  -2   2  11 6.60487 3.74302  37 
   2   2 -11 4.24259 3.21574  13 
   2   2 -11 7.23881 4.79928  83 
   2   2 -11 5.78179 8.02716  82 
  -2   2  11 4.45335 2.41937   2 
  -2   2  11 3.11283 2.45248  28 
  -2   2  11 5.19492 2.64820   4 
   2   2 -11 8.19686 3.14946   7 
  -2   2  11 1.83118 2.64432  31 
   2   2 -11 5.74475 3.09495   4 
  -2   2  11 9.73873 3.63251  83 
   2   2 -11 8.20767 2.33683  17 
  -2   2  11 7.72581 2.11586  16 
   2   2 -11 8.82167 3.90337  78 
  -2   2  11 1.74263 2.04631   3 
  -2   2  11 7.18252 2.23891   1 
  -1  -2  11 806.336 41.1668  18 
  -1  -2  11 816.500 40.9792  27 
  -1  -2  11 739.910 40.9458  19 
   1  -2 -11 813.091 41.0472  27 
  -1  -2  11 930.260 65.0224  72 
  -1  -2  11 851.105 41.4729  20 
  -1  -2  11 818.177 41.8775  74 
  -1  -2  11 826.197 41.2260  38 
  -1  -2  11 782.458 41.7195  24 
   1  -2 -11 851.880 42.2378  24 
   1  -2 -11 762.472 42.0248  79 
   1  -2 -11 845.432 41.5235  75 
  -1   2  11 854.764 41.4499  77 
  -1   2  11 838.965 40.9185  28 
   1   2 -11 800.258 40.6854  17 
   1   2 -11 840.921 41.3574   2 
  -1   2  11 880.138 41.1837  31 
   1   2 -11 804.992 41.8887  83 
  -1   2  11 891.447 41.2932  37 
  -1   2  11 780.430 40.7045   1 
   1   2 -11 809.333 41.0396   4 
   1   2 -11 850.787 43.3427  82 
  -1   2  11 890.277 42.0627  83 
  -1   2  11 802.797 40.8093   3 
  -1   2  11 760.644 40.8812   4 
  -1   2  11 798.348 41.1243   7 
   1   2 -11 796.740 41.0505  13 
  -1   2  11 802.445 41.1219   2 
   1   2 -11 793.060 41.1247   7 
   0  -2 -11 795.744 40.7218   6 
   0  -2  11 772.532 59.2882  72 
   0  -2  11 789.602 40.3868  38 
   0  -2  11 739.368 40.8107  74 
   0  -2 -11 745.792 40.0515  27 
   0  -2  11 852.562 41.0010  24 
   0  -2 -11 853.180 40.7297  75 
   0  -2  11 766.624 40.1652  19 
   0  -2 -11 794.024 41.3602  79 
   0  -2 -11 800.379 41.2300  24 
   0  -2  11 789.481 40.5119  20 
   0  -2  11 843.609 40.1330  27 
   0  -2  11 774.802 40.2651  18 
   0  -2  11 884.916 41.0181  34 
   0   2  11 744.837 39.8433   1 
   0   2 -11 793.364 40.1539   4 
   0   2 -11 867.728 40.4172   2 
   0   2  11 786.852 40.2673   7 
   0   2  11 812.191 40.2835  31 
   0   2 -11 859.369 40.1966  13 
   0   2  11 808.421 40.1110   4 
   0   2 -11 788.656 39.8146  17 
   0   2  11 778.040 41.0083  83 
   0   2  11 827.739 39.9275  16 
   0   2  11 751.719 40.4778  77 
   0   2  11 835.433 40.3156   2 
   0   2  11 858.956 40.0441   3 
   0   2 -11 845.603 42.1870  82 
   0   2  11 770.112 40.0213  28 
   0   2 -11 770.593 40.1847   7 
   0   2 -11 805.369 41.0721  83 
   1  -2  11 321.098 17.6017  34 
  -1  -2 -11 332.715 16.9146  27 
  -1  -2 -11 351.673 18.5490  79 
   1  -2  11 341.214 17.5224  20 
   1  -2  11 337.695 17.7656  33 
  -1  -2 -11 323.027 17.3044   5 
   1  -2  11 315.924 17.1273  38 
   1  -2  11 330.465 16.8797  27 
  -1  -2 -11 327.522 17.9947  24 
  -1  -2 -11 321.780 17.5451   6 
   1  -2  11 321.142 17.1173  19 
   1  -2  11 328.151 17.8487  24 
   1  -2  11 325.346 17.1558  18 
  -1  -2 -11 279.473 17.2097  75 
   1   2  11 301.824 17.1913   7 
  -1   2 -11 326.483 16.9323  13 
   1   2  11 345.876 17.2211   2 
  -1   2 -11 254.622 18.1438   3 
  -1   2 -11 316.941 16.9034   4 
   1   2  11 304.943 16.9696   4 
   1   2  11 321.248 19.8560  15 
  -1   2 -11 319.528 16.9768   7 
   1   2  11 306.181 16.8419  28 
   1   2  11 316.602 17.4635  77 
   1   2  11 330.468 16.7096  16 
   1   2  11 312.766 17.0363  31 
  -1   2 -11 334.618 17.4530  16 
   1   2  11 348.841 16.9086   3 
  -1   2 -11 345.546 18.1986  83 
  -1   2 -11 321.043 17.1519   2 
   1   2  11 301.199 17.7698  83 
  -1   2 -11 322.772 16.5366  17 
   1   2  11 326.614 16.6932   1 
  -2  -2 -11 -1.4345 3.03354  79 
  -2  -2 -11 4.13901 2.30356   5 
   2  -2  11 0.41129 2.48459  20 
   2  -2  11 0.70497 2.86352  38 
   2  -2  11 -0.3846 2.49672  24 
   2  -2  11 2.37184 2.76144  34 
   2  -2  11 -0.4731 2.44638  18 
   2  -2  11 2.39279 2.26163  19 
  -2  -2 -11 1.92741 2.46376  24 
   2  -2  11 -1.6483 1.79323  27 
  -2  -2 -11 0.00452 2.65332   6 
   2  -2  11 -1.4176 2.92914  33 
  -2  -2 -11 -1.3438 1.62556  27 
  -2  -2 -11 1.58292 2.34276  20 
  -2   2 -11 -0.4525 1.69767  17 
   2   2  11 0.39092 2.62113   4 
   2   2  11 -0.5750 2.38203   2 
  -2   2 -11 1.36516 3.77910  83 
  -2   2 -11 -0.1370 3.45286   6 
   2   2  11 1.66108 3.57062  21 
  -2   2 -11 1.46956 2.08182   2 
  -2   2 -11 -0.1334 2.24610   3 
  -2   2 -11 0.75979 2.26754  14 
   2   2  11 -1.7469 2.85003  77 
  -2   2 -11 -0.1212 1.96548  13 
   2   2  11 1.96763 2.67152   7 
  -2   2 -11 0.69696 2.32531  16 
   2   2  11 2.08189 2.02508  16 
   2   2  11 3.17832 3.86455  83 
   2   2  11 1.41151 2.09419  31 
   2   2  11 -0.1944 1.96977   1 
   2   2  11 2.82990 2.34771  15 
  -2   2 -11 -0.9174 2.21651   7 
   2   2  11 -0.8230 1.89835   3 
  -2   2 -11 1.99047 2.60880  31 
  -2   2 -11 2.30701 2.19471   4 
   3  -2  11 5.43430 3.61962  27 
   3  -2  11 7.11850 4.63123  79 
   3  -2  11 7.37008 2.77940  33 
   3  -2  11 8.41929 3.09348  34 
   3  -2  11 10.2391 2.73478  18 
  -3  -2 -11 13.8028 3.70853  20 
  -3  -2 -11 9.82215 2.50628  18 
   3  -2  11 9.79356 4.30043  24 
  -3  -2 -11 10.6691 3.05602  27 
   3  -2  11 12.6948 3.37569  38 
  -3  -2 -11 4.16569 2.99694  79 
  -3  -2 -11 8.34343 2.28824  19 
   3  -2  11 18.5629 4.55234  20 
   3  -2  11 7.14761 2.51778  19 
  -3  -2 -11 13.8808 4.16244   5 
  -3   2 -11 9.73825 2.57901   2 
  -3   2 -11 11.5323 2.73367  14 
  -3   2 -11 10.9888 3.65879   6 
  -3   2 -11 10.2556 2.38402  31 
   3   2  11 6.87294 2.09242   1 
  -3   2 -11 9.00110 3.77837  83 
  -3   2 -11 9.36659 2.73045  17 
  -3   2 -11 6.60792 2.08271  13 
  -3   2 -11 7.60666 2.74597   8 
   3   2  11 6.43804 3.66700  83 
  -3   2 -11 12.1835 3.30123   3 
   3   2  11 5.26084 2.40638  15 
   3   2  11 8.00168 2.41585   3 
   3   2  11 11.4547 3.21520  16 
  -3   2 -11 12.1243 2.37445  16 
   3   2  11 7.32342 2.40893  13 
  -3   2 -11 11.7990 2.68788   7 
   3   2  11 8.59729 2.73042   4 
  -3   2 -11 11.7427 2.56158   4 
   3   2  11 14.6760 4.40807   7 
   3   2  11 8.14987 2.39208  31 
   3   2  11 11.7883 2.96479   2 
   4  -2  11 7.21441 2.27613  19 
   4  -2  11 10.0132 2.72709  20 
  -4  -2 -11 10.9213 2.67875  27 
  -4  -2 -11 13.0683 3.91425  20 
   4  -2  11 11.7504 2.76036  18 
  -4  -2 -11 4.83728 1.83123  19 
   4  -2  11 10.6471 3.88661  34 
  -4  -2 -11 6.79098 2.17410   5 
  -4  -2 -11 6.46674 2.07841  18 
   4  -2  11 4.37233 2.76155  38 
   4  -2  11 6.33749 2.71195  33 
   4   2  11 9.24061 4.51218  15 
   4   2  11 6.71995 2.06811  13 
  -4   2 -11 13.9565 3.33693   2 
  -4   2 -11 9.79036 2.45401  17 
   4   2  11 14.2926 3.46191   4 
   4   2  11 5.79403 1.67334  16 
  -4   2 -11 4.38924 2.21270   8 
   4   2  11 4.46430 2.65675  32 
  -4   2 -11 8.58056 3.32799   6 
  -4   2 -11 11.6241 2.53208  14 
   4   2  11 7.33227 3.18291   7 
   4   2  11 8.98874 2.70023   2 
  -4   2 -11 10.2170 2.72208  16 
  -4   2 -11 11.5565 2.80259   3 
  -4   2 -11 11.9514 3.04358   4 
  -4   2 -11 14.6636 3.35840  31 
  -4   2 -11 5.33935 2.12594   7 
   4   2  11 7.29541 2.46092  31 
  -4   2 -11 5.03206 1.76466  13 
   4   2  11 6.06495 1.86752   1 
   4   2  11 3.64509 2.08380   3 
  -5  -2 -11 31.7046 3.24208  19 
   5  -2  11 22.7656 3.58467  18 
   5  -2  11 15.9087 5.23140  33 
  -5  -2 -11 31.1562 3.65603   5 
   5  -2  11 28.4943 3.18741  19 
   5  -2  11 28.6404 4.03176  20 
  -5  -2 -11 25.2109 2.96687  18 
  -5  -2 -11 25.5869 3.39500  20 
  -5   2 -11 28.5941 3.18355   7 
  -5   2 -11 30.4809 3.13486  31 
  -5   2 -11 27.0882 3.97217   6 
   5   2  11 28.0075 3.80358  31 
  -5   2 -11 32.5099 2.97925   3 
   5   2  11 23.4215 2.09603  16 
   5   2  11 17.2602 2.88391   4 
  -5   2 -11 25.8580 3.24991   8 
   5   2  11 27.9781 3.39009  15 
   5   2  11 32.4084 4.37546   7 
  -5   2 -11 24.9963 2.58057  13 
  -5   2 -11 24.7226 2.61364   1 
  -5   2 -11 27.8499 3.25419   2 
   5   2  11 31.7061 2.68889  32 
  -5   2 -11 30.1521 2.53703  16 
  -5   2 -11 27.6115 2.90978   4 
   5   2  11 28.1871 2.58437   1 
   5   2  11 26.8251 3.06389   3 
  -8  -3  11 14.3740 3.43597  20 
   8  -3 -11 8.73452 2.60126  27 
  -8  -3  11 9.75615 2.60931  19 
   8  -3 -11 11.2228 3.70460  24 
  -8  -3  11 12.8600 3.14581  18 
   8   3 -11 11.9419 2.16946   3 
  -8   3  11 13.3694 2.01886  30 
  -8   3  11 12.2602 2.41841  28 
   8   3 -11 13.4037 1.76319   1 
  -8   3  11 9.60454 1.96431  31 
   8   3 -11 14.6482 3.33065  31 
   8   3 -11 15.1738 3.53399   7 
   8   3 -11 10.4509 2.39258  32 
   8   3 -11 11.9484 3.05316   4 
  -8   3  11 13.7278 2.14431  22 
  -8   3  11 9.38991 2.64072   7 
  -7  -3  11 19.7952 4.58380  20 
  -7  -3  11 21.8249 3.78135  19 
  -7  -3  11 24.5298 4.30652  18 
   7  -3 -11 21.9451 5.12440  24 
   7  -3 -11 16.5394 3.50154  27 
  -7  -3  11 19.3153 3.86336  24 
   7   3 -11 25.0429 3.37599  17 
  -7   3  11 22.9503 2.24475  35 
  -7   3  11 18.7315 2.81327  31 
  -7   3  11 18.2936 3.62844   7 
   7   3 -11 24.1628 4.62795  36 
   7   3 -11 18.0263 2.45217  16 
  -7   3  11 24.6946 2.85291  30 
   7   3 -11 23.7304 2.96336   1 
   7   3 -11 18.6125 3.64882   4 
  -7   3  11 24.0229 2.85825  22 
   7   3 -11 29.2649 4.59822   7 
   7   3 -11 17.4192 3.52577  32 
  -7   3  11 23.7492 2.98394  28 
   7   3 -11 21.0058 3.27443  13 
   7   3 -11 19.5002 4.41567  31 
  -6  -3  11 18.3429 3.44415  18 
  -6  -3  11 15.8081 3.58290  27 
  -6  -3  11 9.18151 2.94855  20 
   6  -3 -11 20.3059 5.24314  24 
   6  -3 -11 17.5750 3.83603  27 
  -6  -3  11 9.72225 4.51524  24 
  -6  -3  11 23.8655 4.24935  19 
   6   3 -11 15.8774 4.83779  36 
  -6   3  11 14.9879 3.23065  31 
   6   3 -11 14.2100 3.53168  13 
  -6   3  11 18.0006 3.99145   7 
  -6   3  11 15.9309 3.22580  30 
   6   3 -11 18.9596 4.67118  32 
  -6   3  11 17.0369 3.20751  28 
   6   3 -11 12.5616 2.84728   4 
   6   3 -11 14.7995 3.32891  31 
  -6   3  11 17.7894 2.89239  35 
  -6   3  11 17.0436 2.86272  22 
   6   3 -11 15.0015 3.12333  16 
   6   3 -11 21.4755 5.23830   7 
   6   3 -11 15.8720 3.33146   1 
   6   3 -11 18.9451 3.85128  17 
  -5  -3  11 49.3542 6.30598  20 
   5  -3 -11 54.9567 7.73294  79 
   5  -3 -11 68.4072 7.93825  24 
  -5  -3  11 55.3914 6.83918  24 
  -5  -3  11 62.8470 5.27203  27 
   5  -3 -11 65.3725 5.34340  27 
  -5  -3  11 64.2043 6.09114  18 
  -5  -3  11 67.0837 5.73027  19 
   5   3 -11 72.4707 4.91070   1 
   5   3 -11 65.3646 11.1404  82 
  -5   3  11 60.2093 4.28474   3 
  -5   3  11 58.6403 4.82149  30 
  -5   3  11 66.7946 4.82251  28 
  -5   3  11 61.8266 6.42806  35 
   5   3 -11 58.5437 5.40223  17 
   5   3 -11 55.9849 5.87594  31 
   5   3 -11 60.4613 6.36823   7 
   5   3 -11 60.1516 7.03795  41 
   5   3 -11 57.6366 5.26396   4 
  -5   3  11 60.9313 4.84243  31 
   5   3 -11 59.8147 4.71729  16 
  -5   3  11 58.1795 4.59288  22 
  -5   3  11 62.7362 5.36142   7 
   5   3 -11 56.6966 6.34558  36 
   5   3 -11 53.5153 4.92840   3 
   5   3 -11 43.2698 5.79500  83 
  -5   3  11 60.1603 4.64997  29 
   5   3 -11 65.8859 5.21980  13 
  -5   3  11 62.1465 5.28355  37 
   5   3 -11 51.5074 6.55173  42 
  -4  -3  11 136.316 8.76458  19 
  -4  -3  11 133.588 9.71869  24 
  -4  -3  11 125.481 8.88340  20 
  -4  -3  11 132.782 8.08387  27 
   4  -3 -11 110.588 8.95075  79 
   4  -3 -11 126.573 8.06296  27 
  -4  -3  11 104.833 7.81992  38 
  -4   3  11 134.875 7.65398  28 
  -4   3  11 128.073 6.66367  32 
   4   3 -11 123.213 8.64242   7 
   4   3 -11 123.564 7.50867  16 
  -4   3  11 130.666 6.85650   3 
   4   3 -11 131.590 8.47795  31 
  -4   3  11 130.155 7.68020  31 
   4   3 -11 122.494 8.71818  42 
   4   3 -11 133.944 8.02278  17 
  -4   3  11 124.755 7.90725   7 
   4   3 -11 131.417 7.89572  13 
   4   3 -11 117.441 10.6125  82 
   4   3 -11 123.218 7.63484   1 
  -4   3  11 121.976 7.44118  29 
   4   3 -11 130.637 7.98146   4 
  -4   3  11 121.279 8.38426  37 
  -4   3  11 135.160 7.73914  30 
   4   3 -11 139.223 9.76193  41 
   4   3 -11 131.312 7.74840   3 
   4   3 -11 114.442 8.62349  83 
  -3  -3  11 408.384 20.5956  38 
  -3  -3  11 389.094 20.2402  27 
  -3  -3  11 372.388 20.6660  20 
   3  -3 -11 398.276 20.3218  27 
  -3  -3  11 400.125 21.2121  24 
   3  -3 -11 391.779 21.1894  79 
  -3   3  11 382.082 20.1074  30 
  -3   3  11 422.338 20.0925  31 
   3   3 -11 377.271 20.0165   1 
   3   3 -11 403.501 19.8273  16 
   3   3 -11 391.225 20.2779  77 
  -3   3  11 374.711 20.4625  37 
   3   3 -11 385.586 20.4011  31 
  -3   3  11 375.344 19.9779  28 
  -3   3  11 390.043 19.5315   3 
   3   3 -11 385.810 20.7783  83 
   3   3 -11 407.912 20.5603   7 
   3   3 -11 430.554 20.1788   4 
   3   3 -11 402.163 20.0599  17 
   3   3 -11 400.633 22.9609  82 
  -3   3  11 396.187 19.3957  32 
   3   3 -11 387.230 20.0620   3 
  -3   3  11 383.326 19.9406  29 
   3   3 -11 393.246 20.1309  13 
  -3   3  11 384.789 20.1861   7 
  -3   3  11 324.856 19.6505  77 
  -3   3  11 390.338 19.2709   1 
  -2  -3  11 146.498 9.62399  20 
   2  -3 -11 149.066 8.70178  27 
  -2  -3  11 156.413 8.83344  27 
  -2  -3  11 139.907 9.97575  24 
   2  -3 -11 136.884 9.75335  79 
   2  -3 -11 156.022 11.6483  44 
  -2  -3  11 155.557 9.14689  38 
   2  -3 -11 169.926 10.1945  75 
  -2   3  11 140.692 8.34035  31 
  -2   3  11 136.472 8.26256  29 
   2   3 -11 141.609 9.34337   2 
   2   3 -11 151.251 9.03118  31 
   2   3 -11 140.653 8.58338  13 
   2   3 -11 133.183 8.39002   1 
  -2   3  11 149.075 8.21604  77 
   2   3 -11 141.173 12.6153  82 
   2   3 -11 149.468 9.54650  83 
  -2   3  11 142.861 7.89305   3 
  -2   3  11 138.132 9.04128  37 
  -2   3  11 140.623 10.0068  21 
   2   3 -11 156.331 9.28150   7 
  -2   3  11 137.044 8.38154  28 
   2   3 -11 145.749 8.53344  17 
   2   3 -11 158.825 8.70730  28 
  -2   3  11 144.030 7.67813  32 
  -2   3  11 148.143 8.54031  30 
  -2   3  11 142.175 7.55321   1 
  -2   3  11 146.744 8.73771   7 
   2   3 -11 131.982 8.71657  77 
   2   3 -11 147.965 8.27003  16 
   2   3 -11 144.655 8.56106   3 
   2   3 -11 142.629 8.93293   4 
   1  -3 -11 228.256 14.9121  44 
  -1  -3  11 214.704 12.7607  38 
   1  -3 -11 241.408 13.6801  79 
  -1  -3  11 234.912 13.7407  24 
  -1  -3  11 227.862 12.6582  27 
   1  -3 -11 230.951 12.4810  27 
  -1   3  11 238.936 12.3869  28 
   1   3 -11 215.982 12.2743  28 
  -1   3  11 233.428 12.3912  31 
  -1   3  11 222.330 11.6589   1 
  -1   3  11 232.848 12.5754   7 
  -1   3  11 225.669 12.3058  29 
  -1   3  11 242.008 11.7640  32 
   1   3 -11 228.173 12.1037  16 
   1   3 -11 215.953 12.7763   2 
  -1   3  11 227.300 12.9934  37 
   1   3 -11 240.088 12.8189  31 
   1   3 -11 244.496 12.7147  77 
   1   3 -11 226.882 12.8377   7 
   1   3 -11 232.681 15.9302  82 
   1   3 -11 221.362 12.3748   3 
  -1   3  11 226.360 12.1760  77 
   1   3 -11 241.601 13.3228  83 
   1   3 -11 222.858 12.2335  13 
  -1   3  11 240.860 12.4625  30 
   1   3 -11 234.192 12.3954  17 
  -1   3  11 225.018 14.0008  21 
  -1   3  11 227.758 11.9255   3 
   1   3 -11 227.341 12.6587   4 
   1   3 -11 234.915 12.3239   1 
   0  -3  11 26.4905 6.22914  33 
   0  -3  11 32.5509 4.32007  38 
   0  -3 -11 36.2604 3.98267  27 
   0  -3 -11 35.9917 5.27888  79 
   0  -3  11 34.0308 4.51369  34 
   0  -3  11 38.3799 5.35480  24 
   0  -3  11 32.4957 4.18371  27 
   0  -3 -11 39.4086 5.15206   6 
   0   3 -11 41.6979 3.78527  28 
   0   3  11 40.2188 4.02073  30 
   0   3  11 37.5923 3.90211  31 
   0   3 -11 34.5620 8.28362  82 
   0   3 -11 30.3858 4.33739   7 
   0   3 -11 35.1646 4.01006   3 
   0   3 -11 34.6453 5.82014  32 
   0   3 -11 35.4888 4.42212   4 
   0   3  11 40.0084 4.86047  37 
   0   3  11 35.4197 2.92350  32 
   0   3  11 36.8659 3.48242  77 
   0   3 -11 37.6916 3.88545  17 
   0   3 -11 36.0810 3.68213  16 
   0   3 -11 36.3616 3.77808   1 
   0   3 -11 27.5194 4.63593  31 
   0   3 -11 33.6046 4.93790  83 
   0   3 -11 38.3415 4.62826   2 
   0   3  11 36.5454 2.85405   1 
   0   3 -11 28.0108 4.21281  77 
   0   3  11 33.1149 3.96878  28 
   0   3 -11 33.7140 3.76141  13 
   0   3  11 35.3852 6.66193  21 
   0   3  11 33.3689 3.27364   3 
   0   3  11 35.8708 4.44347   7 
   1  -3  11 200.106 11.8485  33 
   1  -3  11 203.126 10.8380  27 
  -1  -3 -11 192.474 11.8923  79 
   1  -3  11 196.769 11.8224  24 
  -1  -3 -11 200.062 11.9734  24 
  -1  -3 -11 193.136 10.7685  27 
   1  -3  11 191.497 11.5996  34 
   1  -3  11 171.886 11.2277  20 
   1  -3  11 212.133 11.3038  38 
  -1   3 -11 192.010 10.9319   7 
  -1   3 -11 190.267 10.5445   3 
  -1   3 -11 203.925 11.4076  83 
   1   3  11 193.967 10.8236  30 
  -1   3 -11 200.954 10.4751  13 
   1   3  11 198.801 10.7461  28 
   1   3  11 181.829 11.1263   7 
  -1   3 -11 198.660 10.7427   4 
  -1   3 -11 195.866 10.3656  16 
   1   3  11 191.070 10.1367  32 
   1   3  11 196.823 10.3190   3 
  -1   3 -11 219.481 11.3855  28 
  -1   3 -11 193.196 10.5984  32 
  -1   3 -11 187.148 10.9035  31 
   1   3  11 205.902 12.3309  21 
  -1   3 -11 190.550 10.4236   1 
   1   3  11 192.585 10.7481  31 
  -1   3 -11 195.562 10.9744   2 
   1   3  11 200.413 10.0403   1 
  -1   3 -11 195.407 10.5458  17 
   2  -3  11 6.12041 2.79855  38 
   2  -3  11 5.79860 2.85154  33 
  -2  -3 -11 4.96581 2.45663  24 
   2  -3  11 5.13217 2.24004  19 
  -2  -3 -11 10.5436 2.98362  27 
   2  -3  11 3.11986 2.45090  34 
   2  -3  11 4.37843 2.47324  24 
   2  -3  11 4.99910 1.77668  27 
   2  -3  11 6.15076 2.63469  20 
   2   3  11 4.73582 3.63007  21 
  -2   3 -11 5.25698 2.61186  14 
  -2   3 -11 11.2025 2.67051  32 
   2   3  11 6.00276 1.46015  32 
   2   3  11 6.76748 2.75538   7 
  -2   3 -11 5.80651 2.03174   2 
  -2   3 -11 5.09529 1.74611  17 
  -2   3 -11 8.35748 2.13642  16 
   2   3  11 6.11925 2.06921  30 
  -2   3 -11 4.11583 2.24216  13 
   2   3  11 6.86742 2.20370  28 
  -2   3 -11 1.17763 1.81064   4 
  -2   3 -11 15.8335 5.16122  83 
  -2   3 -11 9.15491 2.23098  31 
   2   3  11 3.85082 1.98915  31 
   2   3  11 5.45922 1.69118   3 
  -2   3 -11 6.54087 2.33722   7 
  -2   3 -11 10.3712 2.62379   1 
  -2   3 -11 10.6483 2.91969   3 
   2   3  11 7.45965 1.76605   1 
   3  -3  11 115.100 7.07666  19 
   3  -3  11 103.781 6.66929  27 
   3  -3  11 121.642 7.24588  33 
   3  -3  11 111.558 7.22887  20 
   3  -3  11 98.9289 7.30948  38 
   3  -3  11 105.372 7.53968  24 
   3  -3  11 110.031 6.97427  18 
   3  -3  11 111.245 7.47545  34 
  -3  -3 -11 112.220 6.61973  27 
   3   3  11 109.135 6.69632  28 
  -3   3 -11 110.989 6.66613  31 
  -3   3 -11 105.592 6.26679   3 
  -3   3 -11 108.535 7.04024   8 
  -3   3 -11 118.200 6.28257  32 
  -3   3 -11 109.241 6.39703   4 
  -3   3 -11 116.973 6.37830  17 
   3   3  11 114.525 6.89933  30 
  -3   3 -11 117.997 6.82042  30 
   3   3  11 113.097 5.82194  32 
   3   3  11 114.412 6.02421   3 
   3   3  11 89.9170 7.84486  15 
  -3   3 -11 116.706 6.86576   7 
  -3   3 -11 111.582 6.60676   2 
  -3   3 -11 113.207 7.22121  14 
   3   3  11 115.396 6.81341  31 
  -3   3 -11 114.386 6.15271   1 
  -3   3 -11 111.270 8.66729   6 
   4  -3  11 38.7573 3.42634  27 
   4  -3  11 34.4292 3.97564  33 
   4  -3  11 37.2198 3.91785  24 
   4  -3  11 40.9433 3.87613  18 
   4  -3  11 39.5307 4.22425  20 
   4  -3  11 41.5345 3.88244  19 
  -4  -3 -11 36.8653 3.99181  19 
  -4  -3 -11 42.3825 3.32713  27 
  -4   3 -11 41.0721 2.77661  32 
   4   3  11 43.0175 3.54556  28 
  -4   3 -11 34.6023 3.79670   8 
  -4   3 -11 39.5598 2.52302   1 
  -4   3 -11 40.1223 2.79027   3 
  -4   3 -11 45.4576 3.05796  17 
  -4   3 -11 40.0748 3.13238   4 
  -4   3 -11 38.2213 3.39696   2 
  -4   3 -11 40.3018 3.39628   7 
  -4   3 -11 32.5811 3.73469  25 
  -4   3 -11 33.9527 4.21600   6 
  -4   3 -11 44.4542 3.39358  31 
  -4   3 -11 44.6976 3.43351  30 
   4   3  11 39.6086 3.64057  31 
  -4   3 -11 41.0044 3.89567  14 
   4   3  11 54.4263 3.92813  30 
   4   3  11 34.4155 4.51954   7 
   4   3  11 33.2374 4.54359  15 
  -6  -4  11 66.8912 4.85780  19 
  -6  -4  11 71.8840 5.47961  24 
   6  -4 -11 80.0339 5.92873  24 
   6  -4 -11 78.4367 4.82090  27 
  -6  -4  11 62.6592 4.37629  27 
  -6   4  11 75.7844 4.27718  29 
   6   4 -11 71.6443 4.60299  17 
   6   4 -11 67.1272 5.00712   7 
   6   4 -11 70.2437 4.49526  28 
   6   4 -11 74.2718 4.71065  30 
  -6   4  11 64.9813 4.32124  28 
   6   4 -11 54.8175 4.41791  31 
   5  -4 -11 78.5504 5.36403  27 
  -5  -4  11 68.0199 5.09835  27 
  -5  -4  11 77.8498 6.27417  24 
   5   4 -11 75.3006 5.34324  30 
  -5   4  11 77.7823 4.72441  29 
   5   4 -11 93.6622 7.08009  36 
  -5   4  11 67.8306 4.73310  28 
   5   4 -11 76.8778 5.36458  31 
   5   4 -11 65.3012 5.02713  17 
   5   4 -11 82.7169 5.05915  28 
   5   4 -11 81.9126 5.64752   7 
   4  -4 -11 22.9876 3.54545  27 
  -4  -4  11 13.2693 3.35691  27 
  -4  -4  11 15.1297 3.63534  38 
  -4  -4  11 19.5665 4.85181  24 
   4   4 -11 16.1378 3.77086   7 
   4   4 -11 22.2734 3.14027  28 
  -4   4  11 17.7081 3.78371  37 
  -4   4  11 18.7849 2.57174  29 
   4   4 -11 18.0356 2.53461   3 
   4   4 -11 22.6256 3.81404  30 
  -4   4  11 15.3440 2.80624  28 
  -4   4  11 18.7207 1.85321  30 
   4   4 -11 17.2302 3.54831  17 
  -3  -4  11 64.7590 5.74318  38 
  -3  -4  11 85.7974 5.77257  27 
   3  -4 -11 89.9464 5.68995  27 
  -3  -4  11 79.4870 6.88530  24 
   3   4 -11 97.6925 5.88134  30 
  -3   4  11 84.9395 5.23744  28 
   3   4 -11 78.3420 4.66844   3 
  -3   4  11 84.3935 4.72375  30 
   3   4 -11 89.1139 5.69472  31 
   3   4 -11 79.8062 4.38349  32 
   3   4 -11 90.5321 5.52024  28 
   3   4 -11 86.3473 6.01779   7 
  -3   4  11 89.5723 5.15702  29 
   3   4 -11 45.4987 10.8605  82 
   3   4 -11 81.4872 5.45616  17 
  -3   4  11 78.3249 6.12617  37 
  -2  -4  11 15.7072 3.38611  27 
  -2  -4  11 17.3867 4.79843  24 
  -2  -4  11 14.6115 3.42159  38 
   2  -4 -11 20.1382 3.06919  27 
   2   4 -11 14.7854 2.12612   3 
   2   4 -11 14.8414 3.16561  17 
  -2   4  11 11.2037 3.48026  37 
  -2   4  11 9.75975 3.42253  21 
   2   4 -11 20.6938 3.55275  30 
   2   4 -11 17.6526 1.62246  32 
   2   4 -11 21.7701 3.12088  28 
   2   4 -11 17.3108 3.57592  31 
   2   4 -11 19.3281 3.79038   7 
   2   4 -11 7.22998 9.55278  82 
  -2   4  11 15.8349 2.25103  30 
  -2   4  11 17.6402 2.71316  28 
  -2   4  11 17.5906 2.76013  29 
  -1  -4  11 22.4293 3.77134  38 
  -1  -4  11 18.0821 3.56707  34 
  -1  -4  11 23.4238 3.52287  27 
  -1  -4  11 20.5452 4.50216  24 
   1  -4 -11 24.4858 3.24330  27 
  -1   4  11 16.5775 2.40213  30 
   1   4 -11 17.0424 2.84762  35 
   1   4 -11 15.1705 3.06577  17 
   1   4 -11 24.1314 3.59095   7 
  -1   4  11 29.8858 4.26193  37 
  -1   4  11 18.4649 2.89221  28 
   1   4 -11 21.6085 3.42556  31 
   1   4 -11 18.9006 2.46774   3 
  -1   4  11 11.5654 3.73196  21 
   1   4 -11 20.4001 3.45255  30 
   1   4 -11 20.6174 3.11255  28 
   0  -4  11 4.38154 2.26614  24 
   0  -4  11 4.63698 2.25375  34 
   0  -4 -11 1.41149 1.43420  27 
   0  -4  11 6.91756 2.50050  38 
   0  -4  11 5.20985 3.14820  33 
   0  -4  11 3.93978 1.69733  27 
   0   4 -11 4.18700 1.68616  28 
   0   4  11 2.81255 1.75980  28 
   0   4 -11 4.56254 1.88848  30 
   0   4 -11 3.84249 1.83428   7 
   0   4 -11 2.21940 1.75310  31 
   0   4 -11 3.91360 2.36457  14 
   0   4  11 4.34495 1.35701  30 
   0   4  11 3.19373 3.50329  21 
   0   4 -11 3.92238 1.27614  35 
   0   4 -11 2.83655 1.67586  17 
   0   4  11 6.24506 3.07876  37 
   0   4  11 4.93453 1.75525  29 
   1  -4  11 25.6248 4.26215  24 
  -1  -4 -11 26.6616 3.11409  27 
   1  -4  11 29.2799 3.21162  27 
   1  -4  11 28.4746 3.92883  34 
   1  -4  11 22.7480 4.23250  33 
  -1   4 -11 22.0791 3.22283   7 
   1   4  11 29.1276 3.83929   7 
  -1   4 -11 26.3300 2.40278  35 
  -1   4 -11 23.3087 2.78742  31 
  -1   4 -11 27.1282 2.83324  28 
   1   4  11 23.8190 2.88659  28 
   1   4  11 27.5002 3.00054  29 
  -1   4 -11 27.4947 2.80293  17 
   1   4  11 22.8963 2.64366  30 
  -1   4 -11 30.0715 3.13076  30 
   1   4  11 25.9239 5.44928  21 
  -1   4 -11 24.8088 3.79035  14 
   2  -4  11 23.5067 2.83499  27 
  -2  -4 -11 25.9096 2.79365  27 
   2  -4  11 24.5364 3.60222  33 
   2  -4  11 22.4046 3.81492  24 
   2   4  11 29.1658 2.88693  29 
  -2   4 -11 24.7820 2.84845  30 
   2   4  11 22.0975 3.46647   7 
  -2   4 -11 17.8921 3.45745  14 
  -2   4 -11 22.1023 2.72908  28 
   2   4  11 22.3812 4.48105  21 
  -2   4 -11 21.3431 2.43809  17 
   2   4  11 20.1002 2.17754  30 
  -2   4 -11 20.5348 2.78005   7 
  -2   4 -11 21.4070 2.50617  31 
   2   4  11 24.3208 2.73913  28 
   3  -4  11 11.8098 3.01536  24 
  -3  -4 -11 12.9099 2.10301  27 
   3  -4  11 11.0754 2.31093  27 
  -3   4 -11 12.7745 1.87028  31 
  -3   4 -11 9.88263 1.92645  17 
  -3   4 -11 14.4952 1.95302  30 
  -3   4 -11 9.81197 2.80861  14 
   3   4  11 7.28555 3.45316  15 
   3   4  11 10.1827 1.80849  30 
   3   4  11 11.2074 2.49715   7 
   3   4  11 14.2381 2.32578  28 
  -3   4 -11 14.2637 2.15713   7 
  -3   4 -11 14.2020 1.91480  28 
   3   4  11 14.6224 2.17702  29 
  -3  -5  11 0.99278 1.06067  27 
  -3  -5  11 1.63437 1.70951  24 
  -3   5  11 2.22646 0.87245  29 
  -3   5  11 2.85302 1.35595  28 
   3   5 -11 1.05645 1.26546  17 
   3   5 -11 2.00816 1.26081  28 
  -3   5  11 2.42906 0.91995  26 
  -3   5  11 2.06323 0.83967  11 
   3   5 -11 2.23755 1.30316  29 
  -2  -5  11 3.21885 1.10023  27 
  -2  -5  11 4.04470 1.75039  24 
   2   5 -11 0.83422 1.18793  28 
  -2   5  11 2.58759 0.99844  29 
   2   5 -11 2.78215 1.16735  29 
  -2   5  11 3.02953 1.17761  28 
   2   5 -11 1.53721 1.32510  17 
  -2   5  11 3.14610 0.92401  11 
  -2   5  11 4.45097 3.56639  21 
  -1  -5  11 9.73856 2.93626  24 
  -1  -5  11 4.75299 1.19186  27 
  -1   5  11 6.82839 1.54787  29 
   1   5 -11 7.68048 1.87369  29 
   1   5 -11 10.5472 1.82258  28 
  -1   5  11 8.42629 1.32309  11 
   1   5 -11 6.39712 1.92502  17 
  -1   5  11 7.04358 1.64850  28 
  -1   5  11 7.97740 2.47320  21 
   0  -5  11 61.6418 4.79734  24 
   0  -5  11 61.9133 3.80344  27 
   0   5  11 65.2902 3.54433  29 
   0   5  11 55.4545 4.17071  28 
   0   5 -11 69.4843 3.86295  29 
   0   5 -11 60.8504 3.59132  28 
   0   5  11 59.1319 4.92377  21 
   0   5  11 60.7238 3.48048  11 
   9   0 -12 -2.2471 1.87283  20 
   9   0 -12 0.65261 1.69657  18 
  -9   0  12 0.95240 1.59606  13 
  -9   0  12 0.55001 1.41177  16 
  -9   0  12 2.73481 1.98688   2 
  -9   0  12 -3.3887 1.79253   4 
   8   0 -12 30.7796 4.09256  19 
   8   0 -12 29.6356 5.00911  20 
  -8   0  12 35.5898 6.04741  16 
  -8   0  12 34.1757 5.03658   2 
  -8   0  12 33.6520 4.25413  13 
   8   0 -12 29.0831 4.32464  18 
  -8   0  12 41.2909 4.39267   4 
   7   0 -12 22.0207 4.71536  19 
   7   0 -12 15.3125 3.59282  18 
  -7   0  12 21.5464 4.37061   4 
  -7   0  12 25.5897 5.29215   2 
  -7   0  12 28.1122 5.81710  83 
   7   0 -12 26.1755 5.52202  20 
  -6   0  12 10.1940 4.33630  83 
   6   0 -12 7.07828 3.60709  76 
   6   0 -12 24.7976 6.02419  20 
  -6   0  12 17.6406 4.75092  13 
  -6   0  12 17.4470 5.07999   2 
  -6   0  12 20.0085 3.50908   4 
   6   0 -12 26.1855 7.00975  78 
   6   0 -12 15.9168 3.86692  18 
   6   0 -12 10.0097 2.78627  81 
   6   0 -12 16.4472 4.47023  19 
   5   0 -12 0.73592 3.31815  18 
  -5   0  12 1.68054 3.02926  78 
   5   0 -12 -0.7396 2.21893  76 
   5   0 -12 0.58681 3.43243  78 
  -5   0  12 -1.1343 4.44115  83 
   5   0 -12 -0.7368 3.05560  19 
   5   0 -12 1.23527 3.35262  20 
  -5   0  12 -1.0391 2.79760   4 
  -5   0  12 11.4310 4.00830  15 
  -5   0  12 4.63987 3.26753   2 
  -5   0  12 -1.4556 2.67383  13 
  -4   0  12 455.697 22.9625  13 
  -4   0  12 446.142 22.0839  81 
  -4   0  12 443.464 22.5273  18 
   4   0 -12 442.179 26.1870  76 
  -4   0  12 476.461 24.2483  20 
  -4   0  12 448.111 23.0059  15 
  -4   0  12 437.746 22.8442   4 
   4   0 -12 512.582 42.1608  72 
  -4   0  12 433.751 23.1493   2 
  -4   0  12 420.841 23.0179  78 
   4   0 -12 420.188 23.1407  20 
   4   0 -12 405.795 22.6454  19 
  -4   0  12 412.304 24.0959  83 
   4   0 -12 429.438 22.8767  18 
   4   0 -12 398.823 23.0519  78 
   3   0 -12 0.72043 3.09125  20 
   3   0 -12 6.28620 3.21868  18 
  -3   0  12 -5.9504 2.86598  78 
  -3   0  12 3.96211 1.79044  81 
  -3   0  12 -0.3119 2.25342   4 
  -3   0  12 3.67363 2.43322   2 
  -3   0  12 1.02239 2.17359  19 
   3   0 -12 -0.6275 2.52527  19 
   3   0 -12 1.78239 2.54928  76 
  -3   0  12 9.38307 4.08196  15 
  -3   0  12 1.96079 2.74850  20 
  -3   0  12 5.97461 4.22403  83 
  -3   0  12 -0.0006 2.60370  13 
   3   0 -12 2.46805 3.72618  78 
  -3   0  12 -0.3623 2.40192  18 
  -2   0  12 208.274 12.6190  83 
   2   0 -12 175.790 10.4859  19 
   2   0 -12 165.825 10.7016  18 
  -2   0  12 168.116 10.6032  20 
   2   0 -12 183.996 11.0559  78 
  -2   0  12 177.261 10.1661  81 
  -2   0  12 180.468 10.7903   2 
  -2   0  12 191.562 10.3776  18 
  -2   0  12 169.724 10.5715  15 
   2   0 -12 162.605 11.1225  20 
  -2   0  12 167.239 12.4776  73 
  -2   0  12 198.225 11.1490  78 
  -2   0  12 175.554 10.1979  19 
   2   0 -12 204.291 14.8488  76 
  -2   0  12 160.340 10.2261   4 
  -2   0  12 180.765 10.8430  13 
   2   0 -12 180.256 11.2008   6 
   1   0 -12 137.689 8.49503  19 
  -1   0  12 140.271 8.30978  81 
  -1   0  12 123.234 9.00139  78 
   1   0 -12 128.949 12.2314  76 
  -1   0  12 157.084 8.32676  19 
  -1   0  12 121.384 8.20798  18 
   1   0 -12 133.748 9.12701   6 
   1   0 -12 131.769 8.97679  78 
  -1   0  12 133.211 8.90414   2 
  -1   0  12 137.901 8.56952   4 
   1   0 -12 120.979 8.51371  18 
  -1   0  12 136.757 10.2400  73 
   1   0 -12 139.674 9.14537  20 
  -1   0  12 125.131 8.57401  20 
  -1   0  12 151.656 10.7985  83 
  -1   0  12 133.438 8.59323  15 
   0   0  12 -4.0581 6.27016  73 
   0   0 -12 0.31326 2.22220  76 
   0   0 -12 4.01850 2.65775  20 
   0   0  12 0.47459 2.80000   2 
   0   0  12 -3.4403 3.07201  78 
   0   0  12 1.92036 2.19359  19 
   0   0 -12 1.74671 2.15328   5 
   0   0 -12 1.40251 3.25365  78 
   0   0  12 2.96101 2.49555  18 
   0   0  12 1.42535 1.94371  81 
   0   0  12 -1.7216 4.04969  83 
   0   0  12 -2.1802 2.43387  20 
   0   0 -12 -3.3420 2.42983  18 
   0   0  12 0.87083 2.76819   4 
   0   0 -12 -0.2348 3.14806   6 
   0   0  12 1.96888 1.75085  15 
   0   0 -12 -0.7380 2.37388  19 
   1   0  12 121.294 7.48204  81 
  -1   0 -12 129.285 8.48003  78 
   1   0  12 117.239 8.28487   2 
   1   0  12 119.847 7.47106  19 
  -1   0 -12 129.969 7.79867  18 
  -1   0 -12 103.315 7.92768  20 
   1   0  12 123.524 7.84087  18 
  -1   0 -12 126.803 10.8739  76 
   1   0  12 132.570 8.10225  20 
   1   0  12 100.587 8.33671  78 
   1   0  12 136.318 10.0586  83 
  -1   0 -12 116.009 8.12809   5 
   1   0  12 123.683 8.07076   4 
  -1   0 -12 123.576 7.50422  19 
  -1   0 -12 129.513 8.56161   6 
   2   0  12 48.9338 5.24336  20 
  -2   0 -12 46.2153 5.41660   5 
   2   0  12 47.2900 4.72187  18 
   2   0  12 41.7385 5.09107  38 
   2   0  12 32.5957 6.40772  83 
  -2   0 -12 41.6071 4.76259  20 
   2   0  12 43.2800 5.47711   2 
   2   0  12 52.7586 5.26784   4 
   2   0  12 50.7618 5.90865  78 
  -2   0 -12 49.6325 5.04578  78 
  -2   0 -12 38.8963 4.28519  19 
  -2   0 -12 44.1467 6.60964  76 
  -2   0 -12 42.6167 4.62272  18 
  -2   0 -12 42.6751 5.38396   6 
   3   0  12 36.4550 5.20289  18 
   3   0  12 37.2906 6.26848  83 
  -3   0 -12 43.1120 5.12595   5 
  -3   0 -12 41.0417 5.24544   6 
  -3   0 -12 38.2129 3.99208  18 
  -3   0 -12 40.1503 3.84273  19 
   3   0  12 40.8620 5.00261   4 
  -3   0 -12 44.6918 4.50393   8 
  -3   0 -12 37.7410 4.21817  20 
   3   0  12 37.4229 4.80537  38 
   3   0  12 29.9487 7.37895  20 
   3   0  12 42.6140 5.09956   2 
  -4   0 -12 47.7724 4.28345  19 
  -4   0 -12 37.5250 3.87902   8 
   4   0  12 40.6312 4.76645   2 
   4   0  12 46.5549 7.84807  38 
  -4   0 -12 44.6040 5.05116   6 
  -4   0 -12 41.9619 4.48596   5 
   4   0  12 46.9537 4.49601   4 
  -4   0 -12 38.1545 3.98581  20 
  -4   0 -12 39.4325 3.49517  18 
   5   0  12 6.33256 2.21456   4 
   5   0  12 6.41555 1.93118  13 
   5   0  12 4.89108 2.07375   2 
  -5   0 -12 2.27158 1.57694  13 
  -5   0 -12 2.25610 1.57582   5 
  -5   0 -12 4.53847 2.21589   6 
  -5   0 -12 1.16741 1.58532   8 
   9  -1 -12 13.8934 3.34563  20 
   9  -1 -12 7.84432 2.04889  18 
   9  -1 -12 7.34381 1.75155  19 
  -9  -1  12 17.3952 4.90446  13 
  -9   1  12 4.06522 1.60093   4 
  -9   1  12 7.79562 1.97808  32 
  -9   1  12 11.0008 1.96364   3 
   9   1 -12 4.84355 1.86306  13 
  -9   1  12 7.39423 1.88540  31 
  -9   1  12 8.58381 1.70181   1 
  -9   1  12 5.03566 1.67070   2 
  -8  -1  12 50.0071 4.52126  18 
  -8  -1  12 52.6296 4.86789  13 
   8  -1 -12 57.6116 5.61742  20 
   8  -1 -12 61.0508 5.01438  19 
   8  -1 -12 49.7616 5.24026  18 
  -8  -1  12 43.9111 4.64163  20 
   8   1 -12 53.9329 5.54599  13 
  -8   1  12 54.8216 4.16644   3 
  -8   1  12 47.9700 3.99482  13 
  -8   1  12 54.4178 4.72579   4 
  -8   1  12 57.6388 5.06383   7 
  -8   1  12 58.2521 5.03628   2 
   8   1 -12 54.1988 5.23249   4 
  -8   1  12 57.6755 4.00671   1 
  -8   1  12 51.9939 3.75442  16 
  -8   1  12 61.9572 4.88183  31 
   7  -1 -12 17.4020 5.43373  24 
  -7  -1  12 20.0248 3.79732  19 
  -7  -1  12 17.9561 4.74123  20 
   7  -1 -12 23.1790 5.38344  20 
  -7  -1  12 18.4441 4.02007  18 
   7  -1 -12 22.5877 5.02832  18 
   7  -1 -12 18.2074 5.01589  19 
  -7   1  12 26.7122 7.29387  83 
   7   1 -12 27.2734 5.54734  13 
   7   1 -12 26.1721 5.36101  18 
  -7   1  12 25.8906 4.10861  15 
  -7   1  12 22.6425 3.65878  16 
  -7   1  12 28.6053 4.93785   2 
  -7   1  12 27.1764 3.57837   3 
  -7   1  12 21.8219 4.30885   4 
  -7   1  12 27.4312 4.49178  31 
  -7   1  12 25.2897 3.85400  13 
   7   1 -12 24.3228 5.25453   4 
  -7   1  12 23.6478 4.80881   7 
   7   1 -12 24.3021 7.45515  20 
  -6  -1  12 0.21494 1.98597  81 
   6  -1 -12 0.22774 3.29714  18 
   6  -1 -12 1.49203 3.38407  20 
   6  -1 -12 -1.7446 2.75281  24 
  -6  -1  12 5.05005 2.51247  19 
  -6  -1  12 3.17541 3.15022  20 
   6  -1 -12 0.31306 3.11698  19 
  -6  -1  12 3.33983 2.86942  18 
   6  -1 -12 -0.9138 3.36654  79 
   6  -1 -12 0.95522 2.22758  27 
  -6   1  12 -1.6862 2.55359  31 
  -6   1  12 1.56192 2.61813   4 
  -6   1  12 2.82372 2.10404  16 
  -6   1  12 0.96283 2.83747   7 
   6   1 -12 2.78028 3.14266  20 
  -6   1  12 3.06507 3.17158   2 
  -6   1  12 3.21635 2.14455  15 
  -6   1  12 1.44832 2.10365   3 
   6   1 -12 5.47235 3.40587  13 
  -6   1  12 1.26959 3.77432  83 
   6   1 -12 2.37372 3.64241   4 
   6   1 -12 -5.6938 4.22547  83 
  -6   1  12 2.32473 2.24808  13 
   6   1 -12 3.42233 2.77995  18 
  -6   1  12 2.13099 2.76370  37 
  -5  -1  12 167.394 10.3916  81 
   5  -1 -12 162.959 10.4481  19 
  -5  -1  12 180.596 10.0769  18 
  -5  -1  12 168.083 10.0667  19 
  -5  -1  12 152.426 10.5790  78 
   5  -1 -12 169.183 11.4006  79 
   5  -1 -12 152.708 11.0004  24 
   5  -1 -12 168.315 10.5087  18 
   5  -1 -12 160.370 9.93435  27 
  -5  -1  12 172.369 12.6009  76 
  -5  -1  12 172.656 10.6680  20 
   5  -1 -12 161.268 10.9479  20 
   5   1 -12 180.216 11.5449  83 
  -5   1  12 166.858 10.4875   7 
   5   1 -12 164.059 9.33664  81 
   5   1 -12 174.102 10.1639  18 
   5   1 -12 167.566 10.3922   4 
   5   1 -12 175.659 9.90261  19 
  -5   1  12 164.976 10.3595   2 
  -5   1  12 168.637 10.1526   4 
  -5   1  12 166.090 10.8202  15 
  -5   1  12 170.106 9.94297  13 
   5   1 -12 142.003 10.0864  78 
  -5   1  12 155.994 10.1670  31 
  -5   1  12 180.839 11.3425  83 
  -5   1  12 178.841 9.80738   3 
   5   1 -12 165.928 10.9464  13 
  -5   1  12 165.963 9.65145  16 
   5   1 -12 173.179 10.6991  20 
  -5   1  12 192.978 10.1452  37 
  -4  -1  12 40.7727 5.68495  78 
  -4  -1  12 35.8419 4.97668  81 
   4  -1 -12 38.8990 5.33004  19 
   4  -1 -12 29.1231 6.30740  20 
   4  -1 -12 25.7697 6.09689  24 
  -4  -1  12 45.1130 9.38585  76 
  -4  -1  12 33.8637 5.58842  20 
  -4  -1  12 37.7875 5.03701  19 
   4  -1 -12 35.4148 4.89846  27 
   4  -1 -12 35.4532 6.36911  79 
   4  -1 -12 32.0614 5.37528  18 
  -4  -1  12 35.5917 5.05147  18 
   4  -1 -12 32.6864 5.11641  75 
   4   1 -12 34.1690 5.11802  78 
   4   1 -12 34.1435 6.63077  13 
  -4   1  12 35.0737 4.90612   2 
  -4   1  12 42.5309 4.96501  13 
   4   1 -12 41.2445 5.04546  18 
   4   1 -12 42.8322 5.96033  20 
  -4   1  12 41.5088 5.74076   7 
  -4   1  12 37.2901 6.42418  83 
  -4   1  12 49.1429 5.72269  31 
   4   1 -12 42.6226 5.66614   4 
  -4   1  12 44.3770 4.99081  37 
  -4   1  12 30.2634 4.61366  16 
  -4   1  12 37.5385 6.03672  15 
  -4   1  12 41.1831 4.59634   3 
   4   1 -12 29.3442 4.18950  81 
   4   1 -12 33.6634 6.86727  83 
  -4   1  12 43.0287 4.90729   4 
   4   1 -12 32.4698 4.75693  19 
   3  -1 -12 296.044 16.8287  79 
   3  -1 -12 291.321 15.9341  75 
  -3  -1  12 289.692 15.3939  18 
   3  -1 -12 251.370 15.3708  19 
  -3  -1  12 308.414 19.8921  76 
   3  -1 -12 269.447 15.2769  27 
   3  -1 -12 270.779 15.9623  20 
  -3  -1  12 274.700 15.1698  19 
  -3  -1  12 300.478 16.3175  78 
  -3  -1  12 270.597 16.6919  74 
  -3  -1  12 288.386 16.1597  81 
  -3  -1  12 288.709 15.9318  20 
   3  -1 -12 291.677 16.4471  24 
   3  -1 -12 261.029 15.6446  18 
  -3   1  12 297.413 15.6324   2 
   3   1 -12 297.302 16.5340  83 
   3   1 -12 269.983 15.9425  20 
   3   1 -12 288.745 15.6530  78 
   3   1 -12 298.533 15.1174  19 
  -3   1  12 266.345 16.0083  15 
  -3   1  12 277.381 15.6899   7 
  -3   1  12 297.551 15.4836  37 
  -3   1  12 280.913 15.3656   4 
   3   1 -12 295.136 16.3249  13 
   3   1 -12 262.968 15.3210   4 
  -3   1  12 307.721 16.7901  83 
   3   1 -12 290.530 15.3913  18 
  -3   1  12 287.727 15.3693  13 
   2  -1 -12 17.0024 4.44544  75 
  -2  -1  12 32.5907 5.75134  81 
  -2  -1  12 23.4530 4.81749  78 
   2  -1 -12 22.7305 6.03068  79 
  -2  -1  12 56.3816 25.9467  72 
   2  -1 -12 24.7586 4.10665  20 
  -2  -1  12 27.8054 5.43296  20 
  -2  -1  12 49.1677 11.7619  76 
  -2  -1  12 28.5245 4.67641  74 
  -2  -1  12 23.4473 4.55746  18 
   2  -1 -12 20.9306 4.67381  19 
   2  -1 -12 23.3413 5.27731  24 
   2  -1 -12 16.6181 4.61005   6 
  -2  -1  12 25.9195 4.65674  19 
   2  -1 -12 23.8786 3.84891  27 
   2  -1 -12 24.7891 5.02711  18 
  -2   1  12 23.3325 4.65393   2 
   2   1 -12 19.2713 4.27991   4 
   2   1 -12 29.8243 5.35820   4 
  -2   1  12 31.5200 6.25643  83 
  -2   1  12 31.2488 5.03283  15 
   2   1 -12 22.6529 4.15617  19 
  -2   1  12 28.6126 4.31004  37 
   2   1 -12 32.8004 5.67922  13 
   2   1 -12 19.5335 4.80600  78 
  -2   1  12 17.5715 4.21313   4 
  -2   1  12 26.8078 5.03999   7 
   2   1 -12 20.5912 6.31804  83 
   2   1 -12 26.2629 4.34597  18 
   2   1 -12 19.8715 5.17286  20 
   1  -1 -12 7.78675 3.40254   6 
  -1  -1  12 3.04335 2.78551  81 
  -1  -1  12 4.04111 2.73236  18 
  -1  -1  12 2.96848 2.40970  19 
  -1  -1  12 4.13955 2.62118  20 
   1  -1 -12 0.53118 2.92351  75 
   1  -1 -12 11.3105 4.34959  79 
  -1  -1  12 3.26495 3.37933  78 
   1  -1 -12 5.77225 2.74221  24 
   1  -1 -12 5.54408 2.06677  27 
   1  -1 -12 7.92215 2.58410  19 
   1  -1 -12 3.64183 2.97523  20 
   1  -1 -12 6.43263 2.99044  18 
   1   1 -12 8.45487 3.51554   4 
  -1   1  12 3.17834 2.57770   4 
   1   1 -12 0.28186 3.22892  78 
   1   1 -12 6.91398 3.20227   2 
   1   1 -12 6.63557 2.77768  20 
   1   1 -12 6.50405 4.50710  83 
  -1   1  12 2.09499 2.50164   2 
  -1   1  12 6.03220 2.78076   7 
   1   1 -12 1.72500 3.02866  13 
  -1   1  12 9.72602 4.55877  15 
   1   1 -12 5.13200 2.43339  19 
  -1   1  12 3.02575 4.33105  83 
   1   1 -12 5.04087 2.63921  18 
   0  -1 -12 874.241 42.1393  27 
   0  -1  12 898.018 43.4846  81 
   0  -1  12 820.135 42.1985  19 
   0  -1  12 843.035 42.2914  18 
   0  -1  12 866.736 42.6399  20 
   0  -1  12 876.859 42.4851  38 
   0  -1 -12 803.670 42.5140  20 
   0  -1 -12 819.527 43.5368  79 
   0  -1  12 980.825 48.9546  76 
   0  -1 -12 811.928 42.7423   6 
   0  -1 -12 809.546 42.7224  75 
   0  -1  12 730.622 42.9428  78 
   0  -1 -12 798.772 42.2491  19 
   0  -1 -12 872.131 43.0145  24 
   0  -1 -12 882.229 42.4194  18 
   0   1 -12 833.834 42.7676   6 
   0   1  12 879.517 42.5502   2 
   0   1  12 840.196 42.4374   7 
   0   1 -12 890.226 42.6317  78 
   0   1 -12 796.041 42.0156  18 
   0   1  12 872.146 42.3658   4 
   0   1 -12 846.328 42.1472  19 
   0   1 -12 827.291 42.2605   4 
   0   1  12 898.865 43.7429  83 
   0   1 -12 803.326 42.3591  13 
   0   1 -12 843.984 43.3126  83 
   0   1 -12 820.286 42.4606   2 
   0   1 -12 913.054 42.4171  20 
   0   1  12 803.469 42.9497  15 
  -1  -1 -12 94.5851 6.89636  20 
   1  -1  12 102.479 7.99292  81 
  -1  -1 -12 96.3949 7.44985   6 
  -1  -1 -12 100.930 7.23236  24 
  -1  -1 -12 91.3305 7.01883  27 
   1  -1  12 97.4734 6.82196  18 
   1  -1  12 91.4005 6.92511  38 
   1  -1  12 100.254 6.83140  19 
  -1  -1 -12 91.7904 7.20463  78 
   1  -1  12 126.955 15.0660  76 
   1  -1  12 92.4693 7.75663  78 
  -1  -1 -12 93.7926 7.15746   5 
  -1  -1 -12 97.1456 8.21361  79 
  -1  -1 -12 87.9632 6.47604  18 
  -1  -1 -12 101.881 6.71388  19 
   1  -1  12 96.7530 7.21846  20 
  -1   1 -12 92.6817 6.21104  18 
   1   1  12 96.9835 7.03111   2 
  -1   1 -12 85.3365 7.40077   6 
  -1   1 -12 101.320 6.65120   4 
  -1   1 -12 102.278 7.98085  83 
  -1   1 -12 86.2177 6.81856  78 
   1   1  12 93.3301 7.32393  15 
  -1   1 -12 92.1950 6.79933  13 
   1   1  12 96.6701 6.96135   4 
  -1   1 -12 100.604 6.95136   2 
   1   1  12 92.5604 7.09299   7 
   1   1  12 89.3160 8.24705  83 
   2  -1  12 36.7704 5.08374  34 
   2  -1  12 41.9943 5.64337  81 
  -2  -1 -12 48.4316 4.66025  18 
  -2  -1 -12 47.4337 5.40745   6 
   2  -1  12 43.9390 5.19793  38 
   2  -1  12 39.9767 4.52278  19 
   2  -1  12 37.6132 6.22732  78 
   2  -1  12 53.0213 5.00367  18 
  -2  -1 -12 39.7446 5.24928   5 
  -2  -1 -12 43.7254 4.50164  19 
  -2  -1 -12 49.0942 6.13489  79 
  -2  -1 -12 44.0737 4.84365  20 
   2  -1  12 45.8857 5.37690  20 
  -2   1 -12 49.9851 4.66610   4 
  -2   1 -12 38.2698 4.61528  13 
  -2   1 -12 53.5203 5.78187   6 
  -2   1 -12 43.6401 5.86738  83 
   2   1  12 49.3679 5.31225   2 
   2   1  12 45.8974 5.09402   4 
   2   1  12 44.6055 5.12132  15 
  -2   1 -12 45.0102 4.92544   2 
   2   1  12 37.6342 6.35040  83 
   2   1  12 48.1202 5.88713   7 
  -3  -1 -12 2.05870 2.09314  18 
  -3  -1 -12 4.46197 1.84643  19 
   3  -1  12 3.31682 2.35101  18 
  -3  -1 -12 0.59858 2.16919   5 
  -3  -1 -12 0.45567 2.05454  20 
   3  -1  12 3.55537 2.05375  19 
   3  -1  12 3.98046 2.58986  20 
   3  -1  12 -0.3665 2.83336  38 
  -3  -1 -12 1.43227 2.74824   6 
   3  -1  12 1.73340 2.40507  34 
   3   1  12 0.14164 2.16124  16 
   3   1  12 -0.9922 3.41181  83 
  -3   1 -12 2.37949 2.14131   2 
  -3   1 -12 1.36884 2.12476   4 
   3   1  12 2.07575 2.70858   2 
   3   1  12 2.98594 2.62381   4 
  -3   1 -12 5.18673 3.21838   6 
   3   1  12 0.82055 1.65782  15 
  -3   1 -12 1.02295 3.51353  83 
  -3   1 -12 -0.5634 2.26006   8 
  -3   1 -12 5.22073 2.05524  13 
   3   1  12 2.11452 3.11278   3 
   4  -1  12 20.2737 3.25350  19 
  -4  -1 -12 22.6424 3.60088  20 
   4  -1  12 25.3519 3.47239  18 
   4  -1  12 20.5142 3.61152  34 
  -4  -1 -12 23.5360 3.00135  19 
  -4  -1 -12 28.4250 3.32551  18 
  -4  -1 -12 25.6548 3.35654   8 
  -4  -1 -12 22.5394 4.05417   5 
   4  -1  12 26.5266 4.19197  20 
  -4  -1 -12 29.1860 3.96964   6 
   4   1  12 20.3566 4.02060  13 
  -4   1 -12 26.3916 3.44333   8 
   4   1  12 30.5119 3.38758  16 
   4   1  12 27.9776 4.48266   2 
   4   1  12 34.5380 3.97105   4 
  -4   1 -12 32.9449 3.70717   2 
  -4   1 -12 32.3910 3.45371   4 
  -4   1 -12 25.0557 4.48149   6 
  -4   1 -12 27.4165 3.50380  13 
   4   1  12 26.6863 4.04010   3 
   5  -1  12 14.9300 2.53464  18 
  -5  -1 -12 17.6124 2.41458  19 
  -5  -1 -12 15.5043 2.32946  18 
   5  -1  12 19.8239 3.04581  20 
  -5  -1 -12 18.0998 2.85884  20 
  -5  -1 -12 18.8519 2.66654   8 
  -5  -1 -12 21.5985 3.19364   5 
   5   1  12 14.5306 2.73853   4 
  -5   1 -12 13.2535 2.54628   2 
  -5   1 -12 18.5070 2.54256   4 
  -5   1 -12 16.2130 2.48881  13 
   5   1  12 19.9282 2.58415  16 
   5   1  12 15.9727 2.64384   3 
  -5   1 -12 18.8015 2.37118  16 
   5   1  12 14.1467 2.82978  13 
  -5   1 -12 15.1504 3.42963   6 
  -5   1 -12 15.9123 2.54178   8 
   5   1  12 19.1790 2.71259   1 
   8  -2 -12 19.9081 3.36032  24 
   8  -2 -12 23.3732 2.87284  27 
   8  -2 -12 24.2010 3.90977  18 
   8  -2 -12 28.7304 4.09572  20 
  -8  -2  12 24.0385 3.39952  18 
   8  -2 -12 22.3886 3.88217  19 
  -8  -2  12 20.3399 2.92299  19 
  -8  -2  12 23.0801 3.82578  20 
   8   2 -12 20.5923 3.42642  13 
  -8   2  12 20.7109 2.99433   2 
  -8   2  12 23.6202 1.77722  32 
  -8   2  12 29.2174 3.47330   7 
   8   2 -12 30.2760 3.38954  16 
  -8   2  12 25.2042 2.92875  31 
   8   2 -12 27.0151 3.59866   4 
  -8   2  12 23.7417 2.03800   3 
  -8   2  12 20.8833 3.33411  15 
  -8   2  12 22.9667 2.78041   4 
  -8   2  12 29.4786 3.06001  30 
  -7  -2  12 87.6112 5.58749  19 
  -7  -2  12 77.7546 5.64545  18 
   7  -2 -12 77.4397 5.51455  27 
   7  -2 -12 80.8375 6.35800  19 
   7  -2 -12 77.7892 6.37096  24 
   7  -2 -12 80.5166 6.66648  20 
  -7  -2  12 71.7789 6.31569  20 
   7  -2 -12 87.3532 6.25381  18 
  -7   2  12 80.6900 5.76222  31 
   7   2 -12 73.1870 5.68216  16 
  -7   2  12 75.1074 4.85914   3 
  -7   2  12 77.3472 5.55928  30 
   7   2 -12 84.4903 5.98855   4 
  -7   2  12 74.8861 5.41958   2 
  -7   2  12 81.1486 6.04938   7 
  -7   2  12 80.2223 4.85446  32 
  -7   2  12 81.0144 5.42471   4 
  -7   2  12 77.7089 6.47831  15 
  -7   2  12 84.0079 4.62200   1 
   7   2 -12 83.9157 6.21157  13 
   7   2 -12 74.6573 6.40962  36 
   6  -2 -12 71.3697 7.05719  24 
   6  -2 -12 72.1826 6.83547  19 
  -6  -2  12 75.7428 6.05186  18 
  -6  -2  12 78.2380 5.91190  19 
  -6  -2  12 76.8525 6.75044  20 
   6  -2 -12 69.7437 5.51119  27 
   6  -2 -12 70.1128 6.68037  20 
  -6   2  12 77.9546 6.83731  15 
   6   2 -12 66.9947 6.04357  16 
  -6   2  12 72.8573 4.80734  32 
  -6   2  12 78.8982 5.04104   3 
  -6   2  12 73.8802 4.61274   1 
  -6   2  12 56.0026 5.43293  37 
   6   2 -12 72.7718 6.31661  13 
  -6   2  12 69.3483 5.71444   2 
  -6   2  12 70.3725 5.57189   4 
  -6   2  12 77.4404 6.26654   7 
   6   2 -12 54.7562 6.76344  83 
   6   2 -12 71.4674 5.98124   4 
  -6   2  12 76.9310 4.19674  16 
  -6   2  12 73.4583 5.51254  31 
  -6   2  12 80.7608 5.66603  30 
   5  -2 -12 11.6935 2.66388  27 
  -5  -2  12 16.4182 3.37161  18 
  -5  -2  12 13.7316 2.93348  19 
  -5  -2  12 12.4198 3.28925  20 
   5  -2 -12 14.3518 5.78757  24 
   5  -2 -12 5.40571 3.42250  79 
   5  -2 -12 11.1892 3.78718  20 
  -5   2  12 18.6280 5.38554  30 
  -5   2  12 21.1213 5.26719  83 
   5   2 -12 17.9007 4.80217  41 
   5   2 -12 18.1874 5.19910  13 
  -5   2  12 10.0343 2.64768   2 
  -5   2  12 20.6146 5.84964  15 
  -5   2  12 14.4663 4.11783  37 
  -5   2  12 12.2719 3.07554  32 
  -5   2  12 10.6111 2.88599   7 
   5   2 -12 8.84941 4.57252  83 
  -5   2  12 11.9111 3.38566  28 
  -5   2  12 15.4122 2.67973  16 
  -5   2  12 12.5203 2.72202   1 
  -5   2  12 10.4184 2.83904   4 
  -5   2  12 9.40307 2.11007   3 
   5   2 -12 15.8412 3.33373   4 
   5   2 -12 9.81279 2.21450  17 
   5   2 -12 12.0966 4.18771  16 
  -5   2  12 12.1078 2.65618  31 
  -4  -2  12 55.6221 5.66257  24 
  -4  -2  12 50.2903 12.2382  76 
   4  -2 -12 45.7753 5.41613  27 
   4  -2 -12 58.8611 6.95090  79 
   4  -2 -12 55.7256 6.69899  24 
  -4  -2  12 58.4095 5.77679  18 
  -4  -2  12 53.3537 6.15621  20 
  -4  -2  12 66.6966 6.34008  78 
  -4  -2  12 53.6749 5.56381  19 
   4   2 -12 59.5819 4.77779  17 
  -4   2  12 53.7612 5.84405  83 
  -4   2  12 55.7700 5.51980  37 
   4   2 -12 61.2208 6.92779  83 
  -4   2  12 60.9954 4.33716   1 
  -4   2  12 53.0346 5.35109   2 
  -4   2  12 49.9392 5.21068  31 
   4   2 -12 53.8074 6.00489  13 
  -4   2  12 59.5520 6.68982  15 
  -4   2  12 58.9189 4.99696  77 
  -4   2  12 54.9256 4.22774  16 
  -4   2  12 50.2434 4.52250  32 
   4   2 -12 63.4495 6.71906  41 
  -4   2  12 58.8019 4.62734   3 
  -4   2  12 47.3812 5.02129   4 
  -4   2  12 57.0756 4.82152  28 
   4   2 -12 54.8278 5.52814   4 
  -4   2  12 51.2560 5.94677   7 
   4   2 -12 57.1036 8.64896  82 
   3  -2 -12 275.832 17.2827  75 
  -3  -2  12 270.667 16.0637  78 
   3  -2 -12 295.616 16.5051  79 
  -3  -2  12 276.557 15.6924  24 
   3  -2 -12 273.564 15.1018  27 
   3  -2 -12 284.214 16.4592  24 
  -3  -2  12 274.498 15.6140  20 
  -3  -2  12 285.037 15.2673  19 
  -3  -2  12 261.939 15.2662  18 
   3   2 -12 270.385 17.4971  82 
  -3   2  12 281.399 14.4977  16 
  -3   2  12 310.598 15.2718  31 
  -3   2  12 285.931 14.9547  28 
   3   2 -12 283.447 14.7522  17 
  -3   2  12 302.974 15.2576  77 
   3   2 -12 274.625 15.2373   4 
  -3   2  12 277.797 15.8255  83 
  -3   2  12 281.290 14.7036   1 
  -3   2  12 260.081 15.2675  37 
  -3   2  12 286.770 14.7929   3 
  -3   2  12 298.093 15.0985   4 
  -3   2  12 287.541 17.3781  15 
   3   2 -12 282.244 16.2587  83 
  -3   2  12 276.707 15.3008   7 
  -3   2  12 280.280 15.2660   2 
   3   2 -12 278.101 15.3177  13 
   3   2 -12 274.186 15.5006   7 
  -3   2  12 298.719 16.2409  32 
   2  -2 -12 44.2793 4.90573  27 
  -2  -2  12 42.1795 5.62916  78 
  -2  -2  12 50.5622 4.53829  27 
  -2  -2  12 45.5163 5.80081  20 
  -2  -2  12 43.0429 4.64169  38 
  -2  -2  12 48.6790 4.86961  19 
  -2  -2  12 46.0028 5.18101  18 
  -2  -2  12 42.7310 5.34599  24 
   2  -2 -12 65.8577 7.12159  75 
   2  -2 -12 51.4337 6.41863  79 
   2  -2 -12 50.4425 6.09427  24 
   2   2 -12 51.6481 8.67145  82 
   2   2 -12 51.7843 6.63735  83 
  -2   2  12 54.3413 4.76616  77 
  -2   2  12 52.6902 4.26041   3 
  -2   2  12 45.2233 4.08868   1 
   2   2 -12 47.9999 4.35654  17 
  -2   2  12 54.6330 4.98008   4 
  -2   2  12 41.8171 6.60562  15 
   2   2 -12 48.9885 5.50430  13 
  -2   2  12 49.0651 4.58169  31 
  -2   2  12 49.8912 5.34091  37 
  -2   2  12 49.5774 5.01469   2 
   2   2 -12 39.6917 5.51724   4 
   2   2 -12 37.3359 5.94420   7 
  -2   2  12 46.4382 4.40887  28 
  -2   2  12 52.6399 5.84342  83 
  -2   2  12 46.1748 5.16216   7 
  -1  -2  12 146.623 9.16010  18 
  -1  -2  12 149.126 9.11858  19 
   1  -2 -12 143.389 10.1205  24 
  -1  -2  12 152.624 9.63656  24 
  -1  -2  12 134.270 8.88056  38 
  -1  -2  12 161.301 8.78070  27 
   1  -2 -12 151.011 9.82374   6 
   1  -2 -12 173.358 10.6293  79 
   1  -2 -12 153.146 8.81243  27 
  -1  -2  12 160.664 11.5764  78 
  -1  -2  12 144.452 9.38366  20 
  -1  -2  12 155.785 10.0912  34 
  -1   2  12 152.652 8.67135   3 
  -1   2  12 150.569 8.52119   1 
   1   2 -12 144.925 10.3083  83 
   1   2 -12 149.972 9.35245   4 
   1   2 -12 139.406 9.31105   2 
   1   2 -12 148.188 9.16497  13 
  -1   2  12 141.218 9.88044  83 
  -1   2  12 154.404 9.02584   2 
  -1   2  12 150.679 8.77635  28 
  -1   2  12 135.113 8.78283  31 
  -1   2  12 145.609 8.82590   4 
   1   2 -12 149.031 11.9789  82 
  -1   2  12 146.211 8.75436  16 
  -1   2  12 167.095 9.22313   7 
  -1   2  12 152.049 10.0486  15 
  -1   2  12 161.460 9.31972  37 
   1   2 -12 142.732 9.28388   7 
   1   2 -12 153.958 8.49109  17 
   0  -2  12 29.0109 5.91101  33 
   0  -2 -12 30.8242 4.91177   6 
   0  -2 -12 26.5322 4.72281  24 
   0  -2 -12 23.2200 3.72118  27 
   0  -2  12 24.8321 4.36575  18 
   0  -2 -12 26.5544 4.49364  20 
   0  -2  12 23.9757 4.80333  24 
   0  -2  12 28.6101 4.61545  20 
   0  -2  12 37.4721 6.65094  78 
   0  -2  12 27.0523 4.60077  34 
   0  -2  12 26.1184 4.01538  38 
   0  -2 -12 22.5483 5.27133  79 
   0  -2  12 25.0770 3.71475  27 
   0  -2  12 32.0517 4.29897  19 
   0   2  12 29.1854 4.25088   2 
   0   2  12 28.7062 3.41627   1 
   0   2 -12 29.8912 4.22271   4 
   0   2  12 31.1277 4.34320   7 
   0   2 -12 30.9640 3.99974  13 
   0   2 -12 29.2235 4.28205  16 
   0   2 -12 25.3481 8.52009  82 
   0   2  12 26.9756 4.22605   4 
   0   2  12 27.3748 3.62478   3 
   0   2 -12 31.8225 3.43830  17 
   0   2 -12 23.3934 4.34441   2 
   0   2  12 24.3603 5.06401  83 
   0   2  12 24.5872 3.67400  16 
   0   2 -12 23.7730 4.30765   7 
   0   2 -12 23.6078 5.43853  83 
   0   2  12 28.6565 5.15306  15 
   0   2  12 27.0310 4.23385  77 
   1  -2  12 30.6830 5.32271  33 
   1  -2  12 27.6840 4.45463  34 
  -1  -2 -12 26.8550 4.12968  20 
   1  -2  12 30.1281 4.07038  38 
   1  -2  12 31.9499 4.29382  19 
  -1  -2 -12 31.8244 4.78426  24 
  -1  -2 -12 30.0169 5.36285  79 
  -1  -2 -12 32.8639 4.28429  19 
  -1  -2 -12 32.6003 4.68739   5 
  -1  -2 -12 35.2571 4.95010   6 
   1  -2  12 30.7470 4.41092  18 
   1  -2  12 33.5337 4.77714  24 
  -1  -2 -12 28.1477 3.62675  27 
   1  -2  12 29.3832 4.94207  20 
  -1   2 -12 31.7231 4.22049   7 
  -1   2 -12 29.5760 3.31069  17 
   1   2  12 35.8087 4.40768   4 
  -1   2 -12 30.4204 5.25739  83 
   1   2  12 35.0932 3.83280   3 
  -1   2 -12 33.7309 4.19639  16 
  -1   2 -12 30.3925 4.06206  13 
  -1   2 -12 32.1260 4.42192   2 
   1   2  12 33.5894 5.28450  15 
   1   2  12 29.5491 3.96260  31 
   1   2  12 31.7980 3.65694  16 
   1   2  12 33.6787 5.89889  21 
  -1   2 -12 37.4544 4.12472   3 
  -1   2 -12 31.6155 4.23444   4 
   1   2  12 28.9564 4.60183   7 
   1   2  12 42.7220 5.24341  83 
   1   2  12 37.4098 4.59105   2 
   1   2  12 29.6035 3.41922   1 
  -2  -2 -12 40.6620 4.72192   6 
   2  -2  12 42.9111 5.13179  34 
   2  -2  12 33.8978 4.94031  33 
  -2  -2 -12 35.9625 3.83298  27 
  -2  -2 -12 44.6767 4.32865  18 
   2  -2  12 44.0548 4.58749  18 
  -2  -2 -12 42.7757 4.22530  19 
   2  -2  12 37.3762 4.62306  19 
  -2  -2 -12 34.2592 4.48956  20 
   2  -2  12 44.5817 5.12213  20 
  -2  -2 -12 36.3046 4.81176   5 
   2  -2  12 35.8235 4.52962  38 
   2  -2  12 50.5043 6.37946  24 
  -2   2 -12 38.7592 4.34546   7 
   2   2  12 38.0353 3.74774   1 
   2   2  12 39.6121 4.19913   3 
  -2   2 -12 44.1750 4.37442   2 
   2   2  12 36.0047 5.13883   7 
  -2   2 -12 36.6787 4.11842   4 
   2   2  12 45.6098 4.69161   2 
   2   2  12 39.9589 4.72592  32 
   2   2  12 45.3212 3.78204  16 
  -2   2 -12 39.0290 3.82207   3 
  -2   2 -12 41.2223 5.10723  83 
   2   2  12 47.3717 5.25167  15 
  -2   2 -12 39.1564 5.15783   6 
  -2   2 -12 37.5789 4.09909  16 
  -2   2 -12 44.4129 4.11011  13 
   2   2  12 37.8145 5.41968  83 
   2   2  12 37.5481 5.70938  21 
   2   2  12 40.3736 4.39113  31 
  -2   2 -12 40.4725 3.39674  17 
  -2   2 -12 48.6567 4.74736  14 
   2   2  12 36.9276 4.35040   4 
   3  -2  12 63.8488 5.48143  33 
   3  -2  12 54.4030 5.36372  34 
   3  -2  12 69.6805 5.23248  18 
   3  -2  12 68.9855 5.73927  38 
  -3  -2 -12 67.0643 5.57733   5 
  -3  -2 -12 71.5377 4.95100  18 
   3  -2  12 72.8352 5.78684  20 
   3  -2  12 74.8538 5.10892  19 
  -3  -2 -12 72.1407 5.22089  20 
  -3  -2 -12 61.7347 4.54237  27 
  -3  -2 -12 70.7053 4.92293  19 
  -3   2 -12 67.3187 5.24047   7 
   3   2  12 65.6256 5.36587  31 
   3   2  12 60.3370 5.43587   2 
  -3   2 -12 69.7150 4.27932  17 
   3   2  12 65.3285 4.51393   1 
  -3   2 -12 63.2220 4.73067  13 
   3   2  12 71.3418 5.02693   3 
  -3   2 -12 74.4404 5.07927  31 
  -3   2 -12 66.9771 4.64175  16 
  -3   2 -12 76.5259 4.84585   4 
   3   2  12 63.9281 4.57098  32 
  -3   2 -12 73.6806 5.36689  14 
   3   2  12 70.9024 5.84234  15 
   3   2  12 63.8045 5.06012   4 
   3   2  12 74.1263 5.96522   7 
   3   2  12 62.5497 4.20657  16 
  -3   2 -12 69.5255 5.08484   2 
  -3   2 -12 70.7721 4.72063   3 
  -3   2 -12 65.9643 5.82679   6 
  -3   2 -12 61.2308 4.97581   8 
   3   2  12 65.7778 4.62161  13 
  -4  -2 -12 4.78672 1.63415   5 
  -4  -2 -12 3.46368 1.69800  20 
   4  -2  12 1.70193 1.98687  18 
  -4  -2 -12 1.93648 1.55050  18 
  -4  -2 -12 0.98088 1.40017  19 
   4  -2  12 1.29408 1.88001  20 
   4  -2  12 0.36216 1.56775  19 
   4   2  12 2.28920 1.47762   3 
   4   2  12 2.67411 1.44041  32 
  -4   2 -12 2.26947 1.19995  16 
  -4   2 -12 0.27738 1.64598   7 
  -4   2 -12 2.31732 1.55532  31 
  -4   2 -12 0.64935 1.27714  13 
  -4   2 -12 1.58819 2.04189  14 
   4   2  12 1.34534 1.33465   1 
  -4   2 -12 4.06465 1.38466   1 
  -4   2 -12 3.84167 1.61124   2 
   4   2  12 1.97346 1.99706  31 
   4   2  12 6.00257 2.77432  15 
   4   2  12 1.71581 1.81900   4 
  -4   2 -12 1.20445 1.46522   3 
   4   2  12 1.02236 2.04557   2 
  -4   2 -12 2.67921 1.90781   8 
  -4   2 -12 1.71589 2.36849   6 
   4   2  12 2.15574 2.38746   7 
  -4   2 -12 1.97166 1.48931   4 
   7  -3 -12 62.1102 5.35379  24 
   7  -3 -12 62.1149 4.36454  27 
  -7  -3  12 70.5568 4.47777  19 
  -7  -3  12 63.4669 4.97834  20 
  -7  -3  12 61.9651 4.59447  18 
   7   3 -12 58.3519 4.75155  31 
  -7   3  12 65.2503 4.01227  30 
  -7   3  12 71.7233 3.98505  31 
   7   3 -12 60.8102 3.95559  32 
   7   3 -12 63.3724 3.75118   1 
   7   3 -12 63.6876 4.09490   3 
   7   3 -12 60.1213 4.90805   7 
   7   3 -12 54.2711 4.17480  17 
  -7   3  12 58.7912 4.37753   7 
   7   3 -12 55.3051 4.37818   4 
  -7   3  12 66.8902 4.02882  28 
  -6  -3  12 -0.4898 2.43002  24 
   6  -3 -12 -0.3761 2.52565  24 
  -6  -3  12 1.32696 2.04171  19 
   6  -3 -12 -1.9166 1.76193  27 
  -6  -3  12 -1.4238 2.27876  18 
  -6  -3  12 -1.0856 2.37469  20 
  -6   3  12 1.58455 1.76234  28 
   6   3 -12 0.87588 1.78625   1 
   6   3 -12 -3.0406 2.43880  31 
   6   3 -12 0.28764 1.26855  16 
  -6   3  12 0.80807 1.92337   7 
  -6   3  12 1.19525 1.51633  30 
   6   3 -12 -0.9432 2.53862  13 
   6   3 -12 0.19319 2.18012   4 
   6   3 -12 -1.4111 1.58291  17 
   6   3 -12 -0.7684 1.72029   3 
   6   3 -12 0.60048 2.07552  32 
  -6   3  12 -0.3540 1.53186  31 
   6   3 -12 -1.1102 2.49198   7 
  -5  -3  12 11.6346 4.08742  24 
  -5  -3  12 17.7376 3.92688  19 
   5  -3 -12 15.0237 3.81185  27 
  -5  -3  12 15.9044 3.23244  20 
  -5  -3  12 13.2908 4.24225  18 
  -5  -3  12 15.5263 2.98011  27 
   5  -3 -12 15.6719 5.23296  24 
   5   3 -12 18.2294 3.31409   1 
  -5   3  12 13.8901 3.83614   7 
  -5   3  12 17.4873 3.08110  28 
  -5   3  12 18.5504 3.75089  37 
   5   3 -12 15.2501 3.23041  17 
   5   3 -12 14.8354 3.17461  31 
  -5   3  12 18.1384 3.46321  30 
   5   3 -12 18.9841 3.66239   3 
   5   3 -12 13.4366 3.79491   4 
   5   3 -12 10.9188 2.12908  13 
  -5   3  12 14.7778 2.87733  31 
   5   3 -12 15.1518 3.56525  32 
   5   3 -12 16.7732 2.83682  16 
   5   3 -12 16.7490 4.85930   7 
   4  -3 -12 90.6884 6.30986  27 
   4  -3 -12 87.8907 7.80507  24 
  -4  -3  12 85.0912 7.03591  24 
  -4  -3  12 87.0981 6.01262  27 
  -4  -3  12 90.8040 6.53796  18 
  -4  -3  12 92.8845 6.70607  20 
  -4  -3  12 87.1538 6.35800  19 
   4   3 -12 97.3873 6.04859   3 
   4   3 -12 93.6531 6.78329   7 
   4   3 -12 89.2915 5.83898  17 
   4   3 -12 105.206 9.95135  82 
   4   3 -12 66.9211 9.10060  83 
  -4   3  12 84.0918 6.31147  37 
   4   3 -12 90.3340 5.54873  16 
   4   3 -12 86.8769 5.79972   1 
   4   3 -12 94.6590 6.13309  13 
   4   3 -12 89.8682 6.57903  32 
   4   3 -12 90.9396 6.66291  31 
  -4   3  12 98.1323 5.85878  28 
  -4   3  12 89.2961 6.12562   7 
  -4   3  12 82.6886 5.89338  30 
  -4   3  12 89.8983 5.61575  31 
  -3  -3  12 40.5812 4.58412  38 
  -3  -3  12 63.5822 4.87485  19 
  -3  -3  12 50.7638 4.72683  27 
  -3  -3  12 43.2537 5.34177  20 
  -3  -3  12 52.6861 5.82864  24 
   3  -3 -12 54.1130 4.82036  27 
  -3  -3  12 55.8635 5.23403  18 
   3  -3 -12 55.8118 6.01018  24 
  -3   3  12 53.6807 4.16761  31 
   3   3 -12 55.8801 4.64259  13 
   3   3 -12 54.9272 5.60904  83 
   3   3 -12 59.9279 5.28077   4 
   3   3 -12 53.0761 4.73638   3 
   3   3 -12 59.1070 5.86935   7 
   3   3 -12 61.9412 5.64820   2 
  -3   3  12 56.1450 4.87721   7 
  -3   3  12 54.8432 4.47921  30 
  -3   3  12 56.5753 4.52657   3 
   3   3 -12 49.5272 4.36923   1 
   3   3 -12 45.2264 5.60804  32 
  -3   3  12 52.9421 4.43308  28 
   3   3 -12 54.9000 5.29375  31 
   3   3 -12 57.0884 4.26036  16 
   3   3 -12 52.4123 4.54565  17 
  -3   3  12 52.8555 5.39355  37 
   3   3 -12 58.1119 8.49424  82 
  -2  -3  12 12.1897 3.98190  19 
  -2  -3  12 18.9437 3.96012  18 
  -2  -3  12 16.4311 4.07594  20 
  -2  -3  12 11.1438 3.41912  38 
   2  -3 -12 18.8965 3.30182  27 
   2  -3 -12 23.8437 4.87889  24 
  -2  -3  12 23.6570 3.52467  27 
  -2  -3  12 19.9737 4.49535  24 
   2  -3 -12 17.7005 5.76599  79 
  -2   3  12 20.6215 1.84085  32 
   2   3 -12 17.3420 3.20088  17 
   2   3 -12 15.2016 4.08695   4 
  -2   3  12 19.5051 2.21038   3 
   2   3 -12 21.2588 4.31425   2 
   2   3 -12 20.6348 4.28414  31 
   2   3 -12 21.6652 3.34086   1 
   2   3 -12 30.2687 7.95698  82 
   2   3 -12 15.9356 3.39955  32 
   2   3 -12 20.2678 4.64176  83 
   2   3 -12 19.0537 4.31862   7 
   2   3 -12 17.9628 3.63573   3 
   2   3 -12 21.3525 3.16608  16 
   2   3 -12 21.6718 3.29456  13 
  -2   3  12 22.2610 4.44475  37 
  -2   3  12 17.0615 3.11423  31 
  -2   3  12 22.2364 3.94719   7 
  -2   3  12 20.0842 3.39429  30 
  -2   3  12 17.7071 3.00780  28 
  -2   3  12 14.6165 5.56735  21 
  -1  -3  12 10.7072 3.84021  34 
   1  -3 -12 6.00223 3.67734  79 
  -1  -3  12 5.24426 2.19930  20 
  -1  -3  12 10.6523 3.13691  27 
  -1  -3  12 11.3648 2.31509  19 
  -1  -3  12 8.46325 2.58242  18 
  -1  -3  12 12.5621 4.20100  24 
   1  -3 -12 8.76045 2.87657   6 
  -1  -3  12 10.6707 2.74913  38 
   1  -3 -12 14.5311 4.51269  24 
   1  -3 -12 10.3428 2.03679  27 
   1   3 -12 7.69112 1.86664  16 
   1   3 -12 6.31094 1.81935  13 
  -1   3  12 8.88086 2.34002   7 
   1   3 -12 6.45554 6.07444  82 
  -1   3  12 11.6324 1.79887  32 
   1   3 -12 6.17841 2.32522   7 
  -1   3  12 6.40302 3.81236  21 
   1   3 -12 13.3233 2.38714   3 
  -1   3  12 8.59609 2.23544   3 
   1   3 -12 9.90115 3.57488  83 
  -1   3  12 13.0233 3.05798  30 
   1   3 -12 10.5435 2.41899   2 
   1   3 -12 12.0140 2.19112  17 
  -1   3  12 7.23001 2.05298  28 
   1   3 -12 10.6245 2.68580  31 
  -1   3  12 13.5426 3.03895  31 
   1   3 -12 5.81315 2.33197   4 
  -1   3  12 11.2308 3.55122  37 
   1   3 -12 12.1023 2.17451   1 
   1   3 -12 11.5901 2.38083  32 
   0  -3  12 20.2699 4.06825  20 
   0  -3  12 24.2950 3.91466  18 
   0  -3 -12 19.9252 3.86968   5 
   0  -3 -12 20.4848 4.10027   6 
   0  -3 -12 19.2922 4.47618  24 
   0  -3  12 14.5592 5.07125  33 
   0  -3  12 15.1834 4.07514  24 
   0  -3  12 19.2820 3.88347  19 
   0  -3  12 19.9339 3.62307  38 
   0  -3  12 24.2944 3.25880  27 
   0  -3 -12 17.0788 3.24491  27 
   0  -3  12 17.1019 3.94228  34 
   0   3 -12 18.8473 3.09644   3 
   0   3  12 21.7134 2.11080  32 
   0   3 -12 19.6249 3.71987   2 
   0   3 -12 25.1913 2.93298   1 
   0   3 -12 19.0100 3.00362  17 
   0   3 -12 22.2945 3.91786  31 
   0   3 -12 16.8393 2.81230  13 
   0   3 -12 26.7526 6.07344  83 
   0   3 -12 21.0802 2.73311  16 
   0   3  12 22.2828 4.94239  37 
   0   3  12 24.8021 2.43020   3 
   0   3 -12 18.8404 3.23338  32 
   0   3  12 18.9473 3.76189   7 
   0   3 -12 23.8746 3.84226   7 
   0   3  12 23.9870 3.49644  30 
   0   3  12 21.0490 3.30737  28 
   0   3  12 15.4299 3.13795  31 
   0   3  12 21.6626 5.87087  21 
   0   3 -12 20.7104 3.60132   4 
  -1  -3 -12 30.4995 4.67615  24 
   1  -3  12 26.7725 4.03973  34 
  -1  -3 -12 27.4006 3.90027   5 
   1  -3  12 26.6707 3.74241  38 
   1  -3  12 21.2907 3.24144  27 
   1  -3  12 28.6239 3.80525  18 
   1  -3  12 24.1974 4.36836  24 
   1  -3  12 17.3786 4.59744  33 
  -1  -3 -12 28.8616 3.28875  27 
   1  -3  12 34.3026 4.22848  20 
   1  -3  12 28.8572 3.81784  19 
  -1   3 -12 27.8652 3.66342  31 
  -1   3 -12 29.1344 2.97121   1 
  -1   3 -12 32.8653 4.07460   7 
  -1   3 -12 26.1652 4.24033  14 
   1   3  12 23.3282 2.34914   3 
   1   3  12 28.2524 5.93644  21 
   1   3  12 20.7355 4.62510  15 
  -1   3 -12 24.6608 2.99737  17 
  -1   3 -12 19.7637 2.26122  16 
   1   3  12 22.3361 1.74682  32 
  -1   3 -12 28.6006 3.12354   3 
  -1   3 -12 21.1638 3.20790   4 
   1   3  12 24.4216 3.45272  30 
  -1   3 -12 25.4744 3.52044   2 
  -1   3 -12 26.1618 2.91936  32 
   1   3  12 27.5880 3.33314  31 
   1   3  12 24.7536 3.30999  28 
   1   3  12 25.2922 4.03228   7 
   2  -3  12 4.75891 2.00171  19 
   2  -3  12 6.74172 2.39144  34 
   2  -3  12 11.9981 3.39562  18 
   2  -3  12 5.33074 2.16310  20 
  -2  -3 -12 4.33692 1.47905  27 
   2  -3  12 3.28887 1.55398  27 
   2  -3  12 5.74517 2.28070  33 
   2  -3  12 4.60180 1.96177  24 
   2   3  12 5.39758 1.72161  31 
  -2   3 -12 9.49054 2.36118  17 
   2   3  12 8.28963 1.96812  35 
  -2   3 -12 7.99475 2.35004   4 
  -2   3 -12 4.40027 1.65221  31 
  -2   3 -12 9.62181 2.28998  14 
  -2   3 -12 9.15246 2.15588   7 
  -2   3 -12 10.6617 2.04451   1 
  -2   3 -12 4.86505 1.77418   2 
   2   3  12 7.88400 2.31214   7 
  -2   3 -12 7.54615 2.23891  32 
   2   3  12 8.35723 3.10939  21 
   2   3  12 1.87730 1.90641  15 
   2   3  12 5.74948 1.92033  30 
  -2   3 -12 8.09780 2.83017  30 
  -2   3 -12 7.52784 1.42482   3 
   2   3  12 8.69612 2.01567  28 
   3  -3  12 12.7675 2.74468  19 
   3  -3  12 4.78665 2.21895  24 
   3  -3  12 6.11517 1.82890  18 
  -3  -3 -12 4.07245 1.56450  19 
   3  -3  12 2.82054 1.80608  20 
  -3  -3 -12 4.11577 1.21891  27 
  -3   3 -12 6.64228 1.42478   4 
  -3   3 -12 6.11344 1.20930   3 
  -3   3 -12 8.67960 2.31502  30 
  -3   3 -12 6.04961 1.88290  14 
  -3   3 -12 5.95789 1.27437   1 
  -3   3 -12 10.1475 1.59952  32 
   3   3  12 6.85374 1.70581  31 
   3   3  12 4.32059 1.63986  28 
  -3   3 -12 8.97260 2.41326  31 
  -3   3 -12 4.14356 1.55885   7 
  -3   3 -12 6.59179 1.46401   2 
   3   3  12 3.24100 1.87336  15 
   3   3  12 6.45660 1.71011  30 
  -3   3 -12 5.16977 1.26097  17 
   3   3  12 4.82777 2.25772   7 
  -5  -4  12 21.9618 2.72126  19 
  -5  -4  12 16.0026 2.49860  27 
  -5  -4  12 14.3123 3.15981  24 
   5  -4 -12 18.7943 2.69727  27 
   5  -4 -12 17.5528 3.66770  24 
   5   4 -12 15.3545 2.57617  31 
   5   4 -12 12.9962 2.39100  28 
   5   4 -12 13.4811 3.10717   7 
  -5   4  12 17.7195 2.30964  28 
   5   4 -12 18.6035 2.43590  30 
   5   4 -12 17.0331 2.37377  17 
  -5   4  12 19.5020 2.09481  29 
   4  -4 -12 152.873 9.55789  24 
   4  -4 -12 155.821 8.16286  27 
  -4  -4  12 140.072 7.94022  27 
  -4  -4  12 143.453 8.57748  24 
  -4   4  12 148.582 7.73393  28 
   4   4 -12 141.469 7.86131  28 
   4   4 -12 155.172 7.90132  17 
   4   4 -12 140.559 8.17430   7 
   4   4 -12 142.764 7.99370  31 
  -4   4  12 140.518 7.74729  29 
   4   4 -12 140.279 8.05115  30 
  -3  -4  12 239.488 13.0648  24 
   3  -4 -12 224.537 12.2977  27 
  -3  -4  12 227.435 12.2948  27 
   3   4 -12 245.580 12.4045   7 
  -3   4  12 233.204 12.1489  28 
   3   4 -12 239.924 12.3230  31 
   3   4 -12 240.827 12.2139  28 
   3   4 -12 237.356 12.1684  17 
   3   4 -12 227.132 12.3603  30 
  -3   4  12 247.369 12.1862  29 
   2  -4 -12 2.58195 2.29677   6 
   2  -4 -12 -0.6252 1.38462  27 
  -2  -4  12 0.36786 1.88381  34 
  -2  -4  12 0.18976 1.80607  24 
  -2  -4  12 -0.4638 1.31944  27 
   2   4 -12 0.79597 1.57944  28 
  -2   4  12 0.58198 2.59395  21 
  -2   4  12 2.13429 2.95550  37 
   2   4 -12 0.24208 1.72661   7 
  -2   4  12 0.48148 1.44681  28 
   2   4 -12 0.02181 1.81329  30 
   2   4 -12 -0.1798 1.51073  17 
   2   4 -12 -0.3496 1.63393  31 
  -2   4  12 -0.2978 1.18578  30 
  -2   4  12 1.19046 1.37358  29 
  -1  -4  12 85.9801 6.68118  33 
   1  -4 -12 92.9668 5.55889  27 
  -1  -4  12 89.0507 5.51215  27 
  -1  -4  12 96.2094 6.34864  24 
   1  -4 -12 112.540 8.36631  24 
  -1   4  12 87.7161 4.91643  30 
   1   4 -12 86.4777 5.42562  28 
  -1   4  12 90.7610 6.68097  21 
   1   4 -12 87.0394 5.89583  14 
  -1   4  12 94.0748 5.38362  29 
  -1   4  12 108.969 7.25077  37 
   1   4 -12 97.8414 5.74842   7 
   1   4 -12 89.0431 5.53335  31 
   1   4 -12 91.5604 5.43767  17 
   1   4 -12 94.6720 5.59170  30 
  -1   4  12 85.2671 5.41462  28 
   0  -4 -12 48.3170 4.50158  24 
   0  -4  12 43.3595 3.38424  27 
   0  -4  12 47.9625 4.47790  33 
   0  -4  12 42.5050 4.23284  24 
   0  -4 -12 43.7904 3.36983  27 
   0   4 -12 41.8963 3.42847   7 
   0   4 -12 41.4464 3.16379  28 
   0   4  12 42.1517 5.00292  21 
   0   4 -12 42.8875 3.34128  30 
   0   4 -12 35.9966 3.84341  14 
   0   4  12 38.8866 2.71834  30 
   0   4 -12 44.9640 3.19949  17 
   0   4 -12 42.1085 3.30549  31 
   0   4  12 42.7809 3.29590  29 
   0   4  12 41.8752 3.26228  28 
   1  -4  12 37.4395 3.17926  27 
   1  -4  12 43.2206 3.95017  24 
  -1  -4 -12 43.9150 3.22095  27 
  -1  -4 -12 39.3704 4.13231  24 
  -1   4 -12 39.1615 3.14895  28 
  -1   4 -12 39.1826 2.96743  17 
  -1   4 -12 40.4984 3.02262  31 
  -1   4 -12 46.1322 3.18956  30 
   1   4  12 48.6174 3.22487  28 
  -1   4 -12 39.3201 3.67250  14 
  -1   4 -12 43.8435 3.33511   7 
   1   4  12 46.3404 3.33829  29 
   1   4  12 48.5983 5.03667  21 
   8   0 -13 1.89735 1.66824  18 
  -8   0  13 7.12696 1.69184  13 
  -8   0  13 5.72198 2.16115   2 
   8   0 -13 6.04740 2.13392  20 
  -8   0  13 5.41798 1.48039  16 
  -8   0  13 2.65094 1.92306   4 
   8   0 -13 4.02693 1.95863  19 
  -7   0  13 104.535 6.27893  37 
  -7   0  13 106.784 6.99097   4 
  -7   0  13 100.490 6.81165  13 
   7   0 -13 98.2283 6.61252  19 
   7   0 -13 99.7544 6.56486  18 
   7   0 -13 118.501 7.49381  20 
  -7   0  13 99.3174 8.30556  16 
  -7   0  13 118.042 7.34701   2 
   6   0 -13 3.14191 2.99679  20 
  -6   0  13 -0.6932 2.59622   2 
  -6   0  13 4.50485 2.33519  13 
  -6   0  13 5.04614 3.02139   4 
  -6   0  13 2.10106 2.48707  37 
   6   0 -13 3.02010 2.45107  19 
   6   0 -13 0.53027 2.89055  18 
  -5   0  13 16.4077 4.01596   4 
  -5   0  13 7.48007 3.99270  83 
   5   0 -13 4.58815 2.65750  19 
  -5   0  13 2.44816 2.30380   2 
  -5   0  13 8.84549 2.72345  13 
   5   0 -13 8.33266 3.19943  18 
   5   0 -13 5.95360 3.25926  20 
  -4   0  13 242.739 15.1830  83 
  -4   0  13 251.758 13.9021  13 
  -4   0  13 253.411 13.7029  37 
   4   0 -13 264.994 14.0058  18 
  -4   0  13 239.515 14.0256   2 
  -4   0  13 245.232 13.7877   4 
  -4   0  13 254.791 15.0459  78 
   4   0 -13 271.260 13.8184  19 
   4   0 -13 237.541 14.3754  20 
  -3   0  13 2.94451 2.75778  37 
   3   0 -13 0.05219 3.32144  78 
  -3   0  13 -0.4129 2.77934  78 
  -3   0  13 -1.7729 2.38357   4 
  -3   0  13 1.68434 2.64168   2 
   3   0 -13 2.32278 2.35243  19 
  -3   0  13 6.04401 4.02431  83 
   3   0 -13 -1.0957 2.35534  76 
  -3   0  13 -0.5639 2.54815  13 
   3   0 -13 -1.0113 2.80987  18 
   3   0 -13 -4.1290 3.06995  20 
  -2   0  13 97.2278 7.24866  78 
   2   0 -13 106.921 7.53985  20 
  -2   0  13 106.109 8.89458  83 
   2   0 -13 111.683 7.69348   6 
  -2   0  13 93.3443 6.82042   4 
   2   0 -13 106.564 6.95098  19 
   2   0 -13 95.5768 7.15352  18 
  -2   0  13 107.536 7.41386  18 
   2   0 -13 93.8476 9.75798  76 
  -2   0  13 91.5889 7.25264   2 
   2   0 -13 96.2634 7.44121  78 
   1   0 -13 18.9728 3.98686  78 
   1   0 -13 13.9077 4.42785   6 
  -1   0  13 14.3053 4.32970  78 
   1   0 -13 16.5798 4.53804  20 
  -1   0  13 12.2098 3.82934  18 
  -1   0  13 13.1767 3.03319   4 
   1   0 -13 12.7511 2.71992  19 
  -1   0  13 13.2811 3.06847   2 
   1   0 -13 13.4581 3.95458  18 
   1   0 -13 14.4178 4.43911   5 
  -1   0  13 13.2088 4.62745  83 
   1   0 -13 13.0030 6.72471  76 
   0   0  13 558.364 27.3748  83 
   0   0 -13 509.767 25.2994  19 
   0   0 -13 577.821 25.7628  20 
   0   0 -13 493.867 25.8391   6 
   0   0 -13 490.009 25.5552   5 
   0   0  13 488.119 25.4710   4 
   0   0  13 448.153 25.5285   2 
   0   0 -13 474.513 25.2832  18 
   0   0  13 503.921 26.0251  18 
   0   0  13 441.710 27.2109  78 
   1   0  13 85.3097 6.35264   4 
  -1   0 -13 77.9373 6.36733   5 
   1   0  13 92.4181 7.86098  83 
  -1   0 -13 85.4885 6.81881   6 
   1   0  13 76.8907 6.38234   2 
  -1   0 -13 88.9808 6.15816  20 
  -1   0 -13 87.5272 5.87045  18 
  -1   0 -13 84.2840 5.55260  19 
  -2   0 -13 175.849 9.18379   5 
  -2   0 -13 121.877 9.21286   8 
   2   0  13 146.667 9.04704   2 
  -2   0 -13 139.961 9.24643   6 
  -2   0 -13 156.269 8.72448  20 
  -2   0 -13 155.840 8.50029  18 
   2   0  13 148.551 8.96333   4 
  -2   0 -13 152.742 8.28456  19 
   3   0  13 5.14648 2.50654   4 
   3   0  13 2.01430 2.24103   2 
  -3   0 -13 5.53148 2.20743   8 
  -3   0 -13 3.06531 1.87304   5 
  -3   0 -13 7.90582 2.49725  19 
  -3   0 -13 4.86611 1.54019  18 
  -3   0 -13 7.40640 2.86554   6 
  -3   0 -13 5.25430 1.77197  20 
  -4   0 -13 88.6096 5.57937   5 
  -4   0 -13 78.6766 5.15146   8 
   4   0  13 104.673 6.01883   2 
   4   0  13 86.9698 5.63685  13 
  -4   0 -13 78.5398 5.77541   6 
   4   0  13 96.5319 5.51286   4 
  -4   0 -13 86.4173 5.42231  13 
  -8  -1  13 63.5943 4.38712  13 
   8  -1 -13 57.8774 4.28373  18 
   8  -1 -13 63.2723 4.82813  20 
   8  -1 -13 56.5884 4.15158  19 
  -8   1  13 50.3766 4.54108   7 
  -8   1  13 52.1339 3.15038  16 
  -8   1  13 54.5795 4.18850   4 
  -8   1  13 63.3906 4.27653  31 
  -8   1  13 61.9349 3.69089  32 
  -8   1  13 61.0457 3.53283   1 
   8   1 -13 48.9517 4.47446   4 
  -8   1  13 50.8663 4.15704   2 
  -8   1  13 47.7970 3.42313   3 
   8   1 -13 56.9930 4.62991  13 
  -7  -1  13 2.57936 2.11291  20 
  -7  -1  13 -1.2361 2.46875  18 
   7  -1 -13 2.39173 2.78502  20 
  -7  -1  13 1.16884 1.96372  13 
   7  -1 -13 1.89451 2.61086  18 
   7  -1 -13 -1.1564 2.37418  19 
  -7   1  13 2.45308 1.95841  31 
  -7   1  13 2.06265 1.74119   3 
  -7   1  13 0.84200 2.17819   4 
  -7   1  13 0.26852 2.03647   2 
  -7   1  13 0.79289 1.57784  13 
   7   1 -13 2.61645 2.57278  13 
  -7   1  13 3.70855 1.77425   1 
  -7   1  13 2.38285 1.44094  16 
  -7   1  13 -1.5876 2.22001   7 
   7   1 -13 3.39595 2.76167   4 
  -6  -1  13 137.355 8.07605  19 
   6  -1 -13 145.828 8.99414  18 
  -6  -1  13 139.382 8.91009  20 
   6  -1 -13 147.600 9.60779  20 
   6  -1 -13 145.686 8.76511  19 
  -6  -1  13 146.703 8.38676  18 
   6   1 -13 144.195 8.83960   4 
  -6   1  13 139.808 8.32324  13 
  -6   1  13 139.319 8.42419  37 
  -6   1  13 139.995 8.99813   7 
  -6   1  13 161.125 8.17192  16 
  -6   1  13 153.231 8.61161  15 
  -6   1  13 127.337 8.23086   3 
  -6   1  13 134.582 8.86324   2 
  -6   1  13 147.969 8.65024  31 
  -6   1  13 149.708 8.79244   4 
   6   1 -13 145.556 9.24831  13 
   5  -1 -13 64.5783 6.59036  20 
  -5  -1  13 66.7747 6.08313  20 
  -5  -1  13 64.8013 5.36021  18 
  -5  -1  13 55.9261 4.98632  19 
   5  -1 -13 58.5579 5.77529  24 
   5  -1 -13 60.2033 5.85725  18 
   5  -1 -13 67.5966 5.89560  19 
  -5   1  13 63.0631 5.53853  15 
   5   1 -13 63.2104 6.74410  83 
  -5   1  13 51.2273 5.28280  31 
  -5   1  13 65.1294 5.73664   2 
   5   1 -13 57.3492 6.12757  13 
  -5   1  13 61.2777 6.12021   7 
  -5   1  13 53.4192 5.01034  37 
  -5   1  13 57.7461 6.38655  83 
   5   1 -13 64.0642 5.16012  18 
  -5   1  13 59.1366 4.68576  16 
  -5   1  13 62.1003 5.35437  13 
   5   1 -13 61.7371 5.91765   4 
  -5   1  13 56.8428 5.51681   4 
  -5   1  13 63.6056 4.86155   3 
   5   1 -13 63.3969 5.97150  20 
  -4  -1  13 140.540 8.67614  18 
   4  -1 -13 145.007 9.37891  24 
   4  -1 -13 146.304 9.24202  18 
   4  -1 -13 139.025 9.47834  20 
   4  -1 -13 137.144 9.30789   6 
  -4  -1  13 139.157 9.17377  20 
   4  -1 -13 157.153 9.26234  27 
   4  -1 -13 116.035 9.87288  79 
   4  -1 -13 143.723 8.84145  19 
  -4  -1  13 151.960 8.55064  19 
  -4  -1  13 142.399 8.66259  81 
  -4   1  13 146.776 8.89457  31 
   4   1 -13 138.651 9.94275  83 
   4   1 -13 149.043 9.03469   4 
   4   1 -13 159.454 11.6145  82 
   4   1 -13 139.904 9.56622  13 
  -4   1  13 139.426 8.43544   3 
  -4   1  13 138.222 9.08430   7 
   4   1 -13 143.372 8.42501  18 
  -4   1  13 138.662 8.77436   4 
  -4   1  13 125.790 9.72882  83 
  -4   1  13 147.495 8.96536   2 
   4   1 -13 139.956 9.16408  20 
  -4   1  13 137.559 8.55448  13 
  -4   1  13 141.772 9.17482  15 
  -4   1  13 130.652 8.57526  37 
  -4   1  13 136.129 8.25605  16 
   3  -1 -13 11.6173 4.78195  24 
  -3  -1  13 10.8780 2.44415  19 
   3  -1 -13 14.4554 3.64623  27 
   3  -1 -13 15.5975 5.13183  20 
  -3  -1  13 19.1317 3.93205  81 
   3  -1 -13 15.9281 4.37674  19 
   3  -1 -13 6.79905 4.00794  79 
  -3  -1  13 13.7756 4.48200  20 
  -3  -1  13 24.2055 12.2038  76 
  -3  -1  13 13.0612 4.20997  18 
   3  -1 -13 17.1366 3.53545  18 
   3  -1 -13 17.0927 4.93020   6 
  -3  -1  13 10.1438 4.08392  78 
  -3   1  13 14.7629 4.20681   4 
   3   1 -13 16.9077 5.27674  19 
   3   1 -13 14.6186 4.34556  20 
   3   1 -13 13.0011 4.95603  83 
  -3   1  13 18.3457 4.09481  37 
  -3   1  13 18.3295 4.86729   7 
   3   1 -13 13.8792 3.91618  18 
  -3   1  13 15.7153 5.37774  83 
  -3   1  13 14.6896 4.36426   2 
  -3   1  13 14.8320 4.11149  31 
  -3   1  13 16.5842 3.82737   3 
  -3   1  13 16.9277 4.61224  15 
   3   1 -13 25.8139 5.19505   4 
   3   1 -13 20.8451 5.50977  13 
   3   1 -13 14.9977 5.36320  78 
  -3   1  13 16.9446 3.91316  16 
  -2  -1  13 137.900 8.83714  78 
  -2  -1  13 116.953 8.29874  20 
   2  -1 -13 118.201 8.55551  24 
  -2  -1  13 127.184 11.3143  76 
   2  -1 -13 128.688 8.61752   6 
   2  -1 -13 137.724 8.06947  19 
   2  -1 -13 130.279 8.75601  20 
   2  -1 -13 105.740 9.12599  79 
  -2  -1  13 149.453 8.15147  18 
  -2  -1  13 128.433 7.87189  19 
   2  -1 -13 116.840 8.22564  18 
  -2  -1  13 132.308 8.41154  81 
   2  -1 -13 131.303 7.95213  27 
  -2   1  13 128.488 8.47043  15 
   2   1 -13 122.322 8.49128  78 
   2   1 -13 120.153 9.51585  83 
   2   1 -13 123.941 8.53887  13 
  -2   1  13 122.483 7.77367  16 
  -2   1  13 126.131 9.36029  83 
   2   1 -13 124.773 8.47120   4 
  -2   1  13 121.684 8.24515   2 
  -2   1  13 128.135 7.88991   3 
  -2   1  13 128.366 8.37153   7 
   2   1 -13 118.268 7.74979  18 
  -2   1  13 125.203 8.04188   4 
  -2   1  13 137.581 7.99941  37 
   2   1 -13 114.303 8.02896  20 
   2   1 -13 115.765 8.67425   2 
  -1  -1  13 248.136 19.6402  76 
  -1  -1  13 265.548 14.8578  19 
  -1  -1  13 286.529 15.2744  20 
  -1  -1  13 267.676 15.0030  18 
   1  -1 -13 255.838 16.1818  79 
   1  -1 -13 268.306 15.0695  19 
  -1  -1  13 294.632 15.7349  81 
  -1  -1  13 336.102 18.4787  78 
   1  -1 -13 278.889 15.5165  24 
   1  -1 -13 265.288 15.1570  18 
   1  -1 -13 283.687 15.6245   6 
   1  -1 -13 263.695 15.4009  20 
   1   1 -13 265.838 15.2661  13 
   1   1 -13 294.133 15.2638   4 
  -1   1  13 254.734 14.9657   3 
  -1   1  13 301.081 15.2348   4 
  -1   1  13 285.252 14.8199  16 
  -1   1  13 311.262 16.6228  83 
  -1   1  13 266.501 15.2010   7 
   1   1 -13 270.831 14.7424  18 
  -1   1  13 296.560 15.3433   2 
   1   1 -13 283.983 16.2893  83 
   1   1 -13 317.644 15.4761  20 
  -1   1  13 281.658 15.5952  15 
   1   1 -13 314.900 15.6507   2 
   0  -1 -13 101.671 6.87309  20 
   0  -1 -13 108.400 6.59954  18 
   0  -1 -13 88.0724 6.58272  19 
   0  -1 -13 98.6661 6.91222   5 
   0  -1 -13 98.7559 6.88151  24 
   0  -1  13 104.978 6.45505  19 
   0  -1  13 109.314 6.58760  18 
   0  -1 -13 83.3611 7.85076  79 
   0  -1 -13 102.541 7.33199   6 
   0  -1  13 96.1002 6.93625  20 
   0  -1  13 93.9951 7.26138  81 
   0   1 -13 96.7433 7.79794  83 
   0   1  13 94.9574 6.95832   7 
   0   1  13 94.1517 6.93210  15 
   0   1 -13 90.2083 6.84408   2 
   0   1 -13 90.9076 7.19922   6 
   0   1  13 91.4596 6.75892   2 
   0   1 -13 89.7945 6.57433  13 
   0   1  13 89.1394 6.44403   3 
   0   1  13 87.1856 7.08137  16 
   0   1  13 106.479 8.19766  83 
   0   1 -13 98.0070 6.64225   4 
   0   1  13 95.0394 6.68154   4 
  -1  -1 -13 195.205 10.0689  18 
  -1  -1 -13 169.737 9.73635  19 
   1  -1  13 196.174 10.0000  18 
   1  -1  13 165.930 10.2010  38 
   1  -1  13 175.382 9.80568  19 
   1  -1  13 198.108 10.3469  20 
  -1  -1 -13 182.275 10.5510   6 
  -1  -1 -13 166.639 10.0974  20 
  -1  -1 -13 184.031 10.3139   5 
   1   1  13 176.605 11.2363  83 
  -1   1 -13 172.670 11.0547  83 
   1   1  13 175.561 10.0072  16 
  -1   1 -13 159.910 10.0181   2 
   1   1  13 176.576 10.2210   2 
  -1   1 -13 179.625 10.5808   6 
  -1   1 -13 161.383 9.83516  13 
   1   1  13 168.921 10.1306  15 
   1   1  13 168.386 10.0351   4 
   1   1  13 156.444 9.76486   3 
  -1   1 -13 173.254 9.91948   4 
   1   1  13 175.368 10.6056   7 
   2  -1  13 12.6259 3.77405  38 
   2  -1  13 11.6447 3.42031  18 
  -2  -1 -13 18.4231 3.25779  19 
  -2  -1 -13 13.4126 3.94422   5 
  -2  -1 -13 11.0673 3.47050  20 
  -2  -1 -13 11.6752 4.01477   6 
   2  -1  13 19.5450 4.02915  20 
   2  -1  13 15.3732 3.23680  19 
  -2  -1 -13 13.5863 3.24722  18 
  -2   1 -13 14.6243 4.28653   6 
   2   1  13 15.3356 4.09645   2 
  -2   1 -13 17.9353 3.49821  13 
   2   1  13 23.9049 3.69560   3 
  -2   1 -13 19.7060 3.61822   2 
   2   1  13 17.3140 3.88463   4 
   2   1  13 18.2829 3.63400  16 
  -2   1 -13 17.2708 3.58100   4 
   3  -1  13 68.2155 5.42907  20 
   3  -1  13 71.9993 4.83451  19 
  -3  -1 -13 71.7406 4.86585   8 
  -3  -1 -13 77.5226 5.63784   6 
  -3  -1 -13 71.2624 4.58813  19 
  -3  -1 -13 75.7407 4.87443  18 
  -3  -1 -13 75.8271 5.50329   5 
   3  -1  13 75.1224 5.16671  18 
  -3  -1 -13 72.7016 5.29595  20 
   3   1  13 78.1394 5.65703   2 
  -3   1 -13 74.4241 5.22157   2 
   3   1  13 79.6377 5.48379   4 
  -3   1 -13 84.3322 5.96584   6 
   3   1  13 78.0177 5.28061   3 
  -3   1 -13 71.8509 4.96144   8 
  -3   1 -13 74.2269 5.05668  13 
   3   1  13 87.6673 5.05693  16 
  -3   1 -13 87.1827 5.16268   4 
   4  -1  13 36.9752 3.91932  20 
  -4  -1 -13 44.3796 3.59112  20 
  -4  -1 -13 43.0224 3.21026  18 
  -4  -1 -13 43.4939 3.45585   8 
  -4  -1 -13 37.3356 3.02425  19 
  -4  -1 -13 46.5553 3.57774   5 
   4   1  13 42.5378 3.02557  16 
   4   1  13 41.2859 3.24853   1 
  -4   1 -13 37.7538 3.50203   2 
   4   1  13 37.5446 3.36113   3 
  -4   1 -13 48.0000 3.28555   4 
   4   1  13 37.7391 3.74333   2 
  -4   1 -13 33.5129 3.09757   8 
  -4   1 -13 36.6481 3.81477   6 
  -4   1 -13 47.5350 3.24876  13 
   4   1  13 40.7286 3.34120  13 
  -4   1 -13 41.0047 2.97946  16 
   4   1  13 48.9541 3.62043   4 
  -7  -2  13 49.7780 3.48196  19 
  -7  -2  13 40.5114 3.61428  18 
   7  -2 -13 45.7888 4.25296  18 
  -7  -2  13 39.4921 3.85703  20 
   7  -2 -13 41.3505 3.68535  27 
   7  -2 -13 43.8960 4.87197  20 
   7  -2 -13 44.8237 4.28409  19 
   7  -2 -13 45.1135 3.94248  24 
   7   2 -13 44.6696 3.69724   3 
  -7   2  13 48.6143 3.74833  30 
  -7   2  13 45.8443 3.62737  31 
  -7   2  13 44.4099 2.61905  32 
  -7   2  13 40.8959 3.87895  15 
  -7   2  13 45.0593 3.42485   4 
   7   2 -13 41.8150 4.00922  13 
  -7   2  13 46.2379 4.11659   7 
   7   2 -13 45.0511 4.06720   4 
   7   2 -13 48.5448 3.70010  16 
  -7   2  13 45.6821 3.64026   2 
  -7   2  13 47.4988 2.84933   3 
   6  -2 -13 13.5972 4.06699  18 
   6  -2 -13 15.3591 4.11726  19 
  -6  -2  13 13.6286 3.58686  18 
   6  -2 -13 11.6087 3.14772  27 
  -6  -2  13 12.5451 3.95703  20 
   6  -2 -13 15.0386 4.41478  20 
   6  -2 -13 7.26178 2.43088  24 
  -6  -2  13 18.3934 3.46890  19 
  -6   2  13 13.4467 1.99520   1 
  -6   2  13 11.2970 3.34217  30 
  -6   2  13 10.9861 4.08922  15 
  -6   2  13 14.2832 2.36483  32 
  -6   2  13 12.2149 2.37397   3 
  -6   2  13 17.5209 3.24916  31 
   6   2 -13 20.2925 3.57927   3 
  -6   2  13 14.1108 3.37084   2 
  -6   2  13 16.4943 3.22623   4 
  -6   2  13 17.2569 4.03101   7 
   6   2 -13 17.9992 3.82496  13 
   6   2 -13 20.1937 4.12706   4 
   6   2 -13 16.4413 3.52063  16 
  -6   2  13 16.5123 4.18503  37 
  -5  -2  13 52.1591 4.95431  18 
   5  -2 -13 52.2548 5.30046  19 
   5  -2 -13 58.1454 5.91042  20 
   5  -2 -13 60.9529 5.90492  18 
  -5  -2  13 48.3948 5.68570  20 
  -5  -2  13 56.3420 4.75008  19 
   5  -2 -13 46.4028 5.68352  24 
   5  -2 -13 49.5110 4.74520  27 
   5   2 -13 61.8481 5.43689   4 
  -5   2  13 57.9103 4.11589  32 
  -5   2  13 52.2687 4.93510   2 
  -5   2  13 64.2256 4.95233  31 
  -5   2  13 57.4126 4.64532   4 
   5   2 -13 59.6882 5.44494  13 
   5   2 -13 56.5359 5.16455  16 
  -5   2  13 58.1254 4.12235   3 
  -5   2  13 53.3719 5.36345  15 
  -5   2  13 55.9157 3.84509   1 
  -5   2  13 64.3793 5.54174   7 
   5   2 -13 59.8257 7.42800   3 
  -5   2  13 54.2921 4.89440  37 
  -5   2  13 57.8767 4.94445  30 
   4  -2 -13 43.5814 5.48436  20 
  -4  -2  13 40.5291 5.43698  20 
   4  -2 -13 38.8638 5.42331  24 
   4  -2 -13 47.3860 4.96678  19 
   4  -2 -13 42.2074 4.55221  27 
  -4  -2  13 40.6851 4.93577  18 
  -4  -2  13 41.1180 4.52060  19 
   4   2 -13 37.2736 4.85301  16 
  -4   2  13 41.7770 4.87315  37 
  -4   2  13 39.3478 4.62476   2 
  -4   2  13 46.7547 3.58439   1 
  -4   2  13 47.3197 5.27342  15 
   4   2 -13 47.7405 5.43115  83 
  -4   2  13 41.1028 5.03485   7 
  -4   2  13 43.1600 3.74913  32 
  -4   2  13 42.4815 4.36911   4 
   4   2 -13 44.7808 4.89178   4 
   4   2 -13 42.1668 4.92550  13 
  -4   2  13 45.5867 4.38771  31 
  -4   2  13 47.7736 3.95913   3 
  -4   2  13 49.9193 5.13709  30 
   4   2 -13 45.6821 7.94627  82 
   3  -2 -13 207.562 12.0336  19 
   3  -2 -13 206.324 12.2149   6 
   3  -2 -13 212.479 12.6551  24 
   3  -2 -13 189.709 11.3968  27 
   3  -2 -13 206.053 14.2399  79 
  -3  -2  13 200.281 11.7953  18 
   3  -2 -13 190.869 12.1557  20 
  -3  -2  13 213.673 11.5894  19 
  -3  -2  13 236.336 12.2549  20 
   3   2 -13 208.843 11.0654  17 
  -3   2  13 194.106 11.4866  31 
   3   2 -13 213.729 11.5929  16 
  -3   2  13 205.482 11.6257   2 
   3   2 -13 204.618 11.7975   4 
  -3   2  13 217.793 11.0539   1 
  -3   2  13 216.147 11.1898  32 
  -3   2  13 219.546 11.9200   7 
  -3   2  13 206.754 11.0059  16 
  -3   2  13 219.886 11.8553  37 
  -3   2  13 212.389 12.4643  15 
  -3   2  13 214.371 11.2473   3 
   3   2 -13 220.511 11.8457  13 
   3   2 -13 216.329 14.4555  82 
   3   2 -13 199.203 12.6136  83 
  -3   2  13 219.295 11.4649   4 
  -2  -2  13 47.9815 6.14368  33 
   2  -2 -13 46.3016 5.31602  20 
   2  -2 -13 39.4515 7.14969  79 
   2  -2 -13 52.7372 4.53207  27 
  -2  -2  13 50.6321 4.92953  18 
  -2  -2  13 46.9586 4.76904  19 
  -2  -2  13 51.4421 5.29414  20 
   2  -2 -13 51.7999 4.89258  19 
   2  -2 -13 50.5648 5.53471   6 
   2  -2 -13 44.4420 5.82049  24 
  -2   2  13 47.8237 5.10981  83 
  -2   2  13 51.6543 3.90858  32 
  -2   2  13 43.2458 5.51698  21 
   2   2 -13 42.5321 5.40042   4 
  -2   2  13 51.9913 5.07104   7 
  -2   2  13 51.9784 4.79427   2 
  -2   2  13 42.4590 4.35420  31 
  -2   2  13 52.3102 3.96134   1 
  -2   2  13 55.0788 4.14753  16 
   2   2 -13 50.9371 5.31472   2 
   2   2 -13 45.0794 6.25031  83 
  -2   2  13 60.1550 4.70028   4 
  -2   2  13 45.3596 4.13270   3 
   2   2 -13 51.9069 4.97069  16 
   2   2 -13 48.6869 3.78873  17 
  -2   2  13 52.9739 5.62032  15 
   2   2 -13 52.8245 8.74535  82 
   2   2 -13 49.3673 4.99322  13 
  -2   2  13 56.9207 5.15652  37 
  -1  -2  13 89.6554 7.44717  33 
  -1  -2  13 91.6123 6.45619  19 
   1  -2 -13 96.1655 7.04243   6 
   1  -2 -13 94.8754 6.72369  19 
   1  -2 -13 94.3405 7.28598  24 
  -1  -2  13 84.1442 6.26038  38 
  -1  -2  13 98.2838 6.56337  18 
   1  -2 -13 89.1885 6.57068  20 
  -1  -2  13 101.013 6.96501  20 
   1  -2 -13 97.3660 6.22923  27 
   1  -2 -13 89.6029 8.10127  18 
  -1   2  13 88.9462 6.90033  83 
   1   2 -13 104.265 10.1668  82 
  -1   2  13 98.5486 5.76341   1 
  -1   2  13 94.3370 5.69393  16 
   1   2 -13 99.6910 6.34453  16 
  -1   2  13 85.7030 6.21781  31 
  -1   2  13 107.073 6.61885   7 
   1   2 -13 99.4913 6.46666  13 
  -1   2  13 96.5339 6.81347  37 
  -1   2  13 95.3047 6.37710   2 
   1   2 -13 99.1991 6.78722   4 
  -1   2  13 104.161 6.25268   4 
   1   2 -13 97.4563 7.34535  83 
  -1   2  13 95.9934 7.23442  15 
   1   2 -13 92.3252 6.62729   2 
   1   2 -13 99.9427 6.62044   3 
   1   2 -13 92.9646 5.69708  17 
   1   2 -13 109.751 6.80415   7 
  -1   2  13 102.101 5.77883  32 
  -1   2  13 90.3520 7.67863  21 
  -1   2  13 101.776 6.03978   3 
   0  -2  13 73.5788 6.44299  33 
   0  -2 -13 81.4147 5.35482  27 
   0  -2 -13 81.8182 6.46367   6 
   0  -2  13 77.6390 5.70263  18 
   0  -2  13 80.0705 6.16348  20 
   0  -2  13 77.3714 7.21633  34 
   0  -2 -13 80.6975 5.96831  20 
   0  -2 -13 80.3110 6.07934   5 
   0  -2 -13 85.1052 5.81521  19 
   0  -2 -13 78.4638 6.28889  24 
   0  -2 -13 85.2397 5.77988  18 
   0  -2  13 68.5014 5.62090  38 
   0  -2  13 80.5232 5.89012  19 
   0   2 -13 83.7761 5.63015  13 
   0   2 -13 83.1958 6.07157   2 
   0   2 -13 75.9196 5.88415   7 
   0   2 -13 87.8031 6.96150  83 
   0   2  13 71.9448 5.06577   1 
   0   2 -13 85.5403 5.56506  16 
   0   2 -13 78.8496 5.84935   4 
   0   2  13 88.6326 6.52744  15 
   0   2  13 77.4531 5.68318   4 
   0   2  13 80.3530 5.75819  31 
   0   2  13 77.4805 5.99383   7 
   0   2  13 79.2708 5.04647  32 
   0   2  13 77.4930 5.00635  16 
   0   2 -13 84.8172 4.95895  17 
   0   2  13 84.4601 5.84617   2 
   0   2  13 91.9111 6.70220  83 
   0   2 -13 82.0083 5.71074   3 
   0   2 -13 60.3162 10.0801  82 
   0   2  13 84.8160 7.08497  21 
   0   2  13 78.3924 5.32932   3 
   1  -2  13 173.861 9.61444  19 
   1  -2  13 177.643 9.66757  18 
  -1  -2 -13 167.447 10.0529   6 
  -1  -2 -13 163.998 9.58527  18 
  -1  -2 -13 170.025 10.0938  24 
  -1  -2 -13 169.641 9.78619  20 
  -1  -2 -13 159.184 9.47167  19 
   1  -2  13 152.118 9.67126  33 
  -1  -2 -13 184.471 9.91265   5 
   1  -2  13 153.304 9.64949  38 
  -1  -2 -13 154.708 9.23869  27 
   1  -2  13 175.347 9.98353  20 
   1  -2  13 199.095 10.3959  34 
  -1   2 -13 171.315 9.91406  14 
   1   2  13 166.888 9.91576   7 
   1   2  13 176.785 9.39051   3 
  -1   2 -13 188.591 9.54600   3 
   1   2  13 167.782 9.14591   1 
  -1   2 -13 181.936 9.53242   4 
  -1   2 -13 167.832 9.32684  16 
  -1   2 -13 181.715 9.82082   2 
  -1   2 -13 187.921 9.35668  17 
   1   2  13 166.622 8.86971  16 
   1   2  13 166.436 10.4426  21 
  -1   2 -13 173.841 9.75321   7 
  -1   2 -13 172.264 9.44810  13 
   1   2  13 167.275 9.55169   4 
   1   2  13 151.125 9.61036   2 
   1   2  13 162.803 9.13337  32 
   1   2  13 179.964 10.1705  15 
   1   2  13 178.885 9.66975  31 
  -2  -2 -13 30.5878 3.36391  19 
   2  -2  13 28.0482 6.05823  34 
  -2  -2 -13 28.8498 3.99990   6 
  -2  -2 -13 32.8943 3.80321  20 
  -2  -2 -13 34.5989 4.00341  27 
  -2  -2 -13 28.9384 3.34727  18 
   2  -2  13 27.4980 3.66339  18 
   2  -2  13 29.0448 3.32117  19 
  -2  -2 -13 31.0454 3.87749   5 
   2  -2  13 37.5222 4.16503  20 
   2   2  13 36.2237 3.35401   3 
  -2   2 -13 31.6745 3.97143  14 
   2   2  13 37.3618 4.65909  21 
  -2   2 -13 31.0807 3.55362   4 
  -2   2 -13 28.4969 3.67257   2 
   2   2  13 34.9786 4.16409  15 
   2   2  13 28.6585 3.58861   4 
  -2   2 -13 39.8023 3.79458   1 
   2   2  13 29.5428 2.86936  32 
  -2   2 -13 32.6590 3.07599  16 
  -2   2 -13 24.0680 4.26048   6 
  -2   2 -13 31.9224 3.40029   3 
   2   2  13 31.9865 2.79900   1 
   2   2  13 37.8504 4.26752   7 
   2   2  13 26.7389 3.91411   2 
  -2   2 -13 27.9484 3.11465  13 
   2   2  13 34.6979 3.92591  31 
  -2   2 -13 30.7066 3.79013   7 
  -3  -2 -13 67.3316 4.64960   5 
  -3  -2 -13 62.5841 4.03068  19 
   3  -2  13 57.9980 4.22668  18 
   3  -2  13 53.4287 4.06149  19 
  -3  -2 -13 56.2136 3.85111  18 
  -3  -2 -13 59.9086 4.28195  20 
   3  -2  13 48.6948 4.25576  20 
  -3   2 -13 72.1265 4.19831   2 
   3   2  13 55.0803 3.54860  32 
   3   2  13 55.1045 4.42963   2 
  -3   2 -13 60.0343 3.48643  16 
   3   2  13 55.2008 3.72864   3 
   3   2  13 61.6842 4.40356  31 
  -3   2 -13 49.5176 4.64038   6 
  -3   2 -13 62.2496 3.93473   4 
  -3   2 -13 53.6973 3.62389  13 
   3   2  13 59.2422 4.95291   7 
   3   2  13 56.1776 3.40953   1 
   3   2  13 52.5984 4.00469   4 
  -3   2 -13 59.2447 3.88004   3 
  -3   2 -13 56.8757 3.61498   1 
  -3   2 -13 62.5323 4.19200  31 
  -3   2 -13 59.1853 4.24191  14 
   6  -3 -13 18.5399 3.65870  24 
   6  -3 -13 19.2062 2.61068  27 
  -6  -3  13 20.7892 2.95837  18 
  -6  -3  13 17.6849 3.20713  20 
  -6  -3  13 24.2007 2.80258  19 
   6   3 -13 27.4394 3.13930  31 
   6   3 -13 20.4572 2.79210   4 
   6   3 -13 19.0222 2.31572   3 
  -6   3  13 19.3300 2.26959  30 
  -6   3  13 19.1228 2.30312  28 
  -6   3  13 19.5812 2.66562   7 
   6   3 -13 19.6149 2.05475   1 
  -6   3  13 19.3081 2.01782  31 
   6   3 -13 20.5195 3.42590   7 
   6   3 -13 20.4809 2.34656  32 
  -5  -3  13 57.5315 4.37919  19 
  -5  -3  13 57.6936 4.60641  18 
  -5  -3  13 55.7939 4.85116  20 
   5  -3 -13 51.7709 5.19473  24 
   5  -3 -13 53.3708 4.13181  27 
   5   3 -13 55.6238 4.54154  31 
  -5   3  13 53.0013 3.55104  31 
   5   3 -13 53.6742 3.58581  17 
  -5   3  13 53.5107 3.85799  28 
   5   3 -13 44.7560 4.42816   4 
   5   3 -13 48.0062 3.52749   1 
  -5   3  13 51.9254 3.94851   7 
   5   3 -13 56.5560 3.81460  32 
   5   3 -13 58.7426 3.97181   3 
   5   3 -13 57.5772 4.89070   7 
  -5   3  13 56.2362 3.78356  30 
  -4  -3  13 298.102 16.0608  18 
  -4  -3  13 312.015 16.0149  19 
   4  -3 -13 321.144 16.7655  24 
  -4  -3  13 327.796 16.3082  20 
  -4  -3  13 318.147 16.3993  24 
   4  -3 -13 328.423 16.0259  27 
   4   3 -13 311.543 15.6517   1 
  -4   3  13 295.011 16.7048  15 
   4   3 -13 298.154 16.0320   2 
  -4   3  13 291.695 16.0974  37 
   4   3 -13 311.124 16.0757  31 
   4   3 -13 291.460 15.3237  16 
  -4   3  13 329.760 15.8422  28 
   4   3 -13 299.139 15.6478  17 
   4   3 -13 309.145 15.7334   3 
   4   3 -13 308.038 16.1291   7 
  -4   3  13 311.101 15.7203  31 
  -4   3  13 309.472 15.7981  30 
   4   3 -13 313.822 15.7718  32 
  -4   3  13 291.205 15.8425   7 
   4   3 -13 319.424 15.9705   4 
  -3  -3  13 111.087 6.94130  18 
  -3  -3  13 117.565 6.93946  19 
   3  -3 -13 113.842 7.56816   6 
   3  -3 -13 110.612 6.72539  27 
   3  -3 -13 112.116 7.75530  24 
  -3  -3  13 117.400 7.07486  24 
  -3  -3  13 105.883 6.52888  27 
  -3  -3  13 113.184 7.11865  20 
   3   3 -13 105.300 6.88753   4 
   3   3 -13 112.085 6.46132  17 
   3   3 -13 107.640 6.58260  32 
  -3   3  13 120.785 6.60935  30 
  -3   3  13 112.612 6.54372  28 
  -3   3  13 110.596 6.40709  31 
   3   3 -13 112.290 6.07203  16 
   3   3 -13 110.476 6.59374   3 
   3   3 -13 105.496 7.06810   2 
  -3   3  13 110.880 6.66272   7 
   3   3 -13 115.786 7.15113  31 
  -3   3  13 122.411 7.32141  37 
   3   3 -13 119.644 7.12577   7 
   3   3 -13 115.908 6.44086   1 
  -3   3  13 97.2900 7.66071  15 
   2  -3 -13 8.55165 2.48436  24 
   2  -3 -13 9.97404 2.96504  27 
  -2  -3  13 7.94173 2.53244  27 
  -2  -3  13 5.63348 3.30913  33 
  -2  -3  13 7.15547 2.09942  20 
   2  -3 -13 7.83156 2.82106   6 
  -2  -3  13 2.86103 2.02205  34 
  -2  -3  13 10.6483 3.38472  19 
  -2  -3  13 5.19464 1.99476  18 
  -2  -3  13 7.50338 3.33394  24 
   2   3 -13 8.99748 2.63239  17 
  -2   3  13 7.96795 1.97625   7 
   2   3 -13 9.89739 2.85463   3 
  -2   3  13 6.49858 2.99686  21 
  -2   3  13 8.86972 1.70581  31 
   2   3 -13 9.99960 2.20629  16 
  -2   3  13 10.6761 2.06388  28 
   2   3 -13 10.7283 3.37718   2 
  -2   3  13 10.7233 2.62801  30 
   2   3 -13 6.76585 2.07704   4 
  -2   3  13 11.0575 3.54614  37 
   2   3 -13 9.65627 2.35932   7 
   2   3 -13 9.37924 2.53177   1 
   2   3 -13 11.1714 2.50040  31 
   2   3 -13 6.63390 1.58060  13 
   2   3 -13 9.33238 2.01016  32 
  -1  -3  13 63.4067 4.45129  27 
  -1  -3  13 62.2183 5.10993  24 
   1  -3 -13 66.7755 5.55084  24 
  -1  -3  13 61.7025 5.87524  33 
   1  -3 -13 68.5657 4.62818  27 
   1  -3 -13 59.4334 4.96796   5 
  -1  -3  13 62.8510 5.03120  18 
   1  -3 -13 69.1833 5.36945   6 
  -1  -3  13 64.2569 5.11763  20 
  -1  -3  13 55.5611 4.94264  34 
  -1  -3  13 63.4409 4.93186  19 
   1   3 -13 69.9377 4.29907   1 
  -1   3  13 72.0819 4.56156  28 
   1   3 -13 66.9875 4.25007  17 
   1   3 -13 70.1241 4.46979  32 
  -1   3  13 64.7064 4.36039  31 
   1   3 -13 64.2736 4.79884   7 
   1   3 -13 62.0877 3.72201  16 
   1   3 -13 68.5802 5.12249  31 
  -1   3  13 65.1985 4.86359   7 
  -1   3  13 58.4430 5.49114  15 
  -1   3  13 74.4114 4.63883  30 
  -1   3  13 61.2277 5.03306  37 
   1   3 -13 60.8705 4.88040   2 
   1   3 -13 64.5428 4.76122   4 
   1   3 -13 73.2622 4.48079   3 
  -1   3  13 67.3007 6.14668  21 
   0  -3  13 86.1333 5.31441  18 
   0  -3  13 81.8289 5.22997  19 
   0  -3  13 72.1257 4.88339  27 
   0  -3  13 69.7933 5.50236  20 
   0  -3 -13 80.0670 5.87662  24 
   0  -3 -13 81.6478 5.37408   5 
   0  -3  13 73.4752 5.36886  24 
   0  -3  13 70.0648 7.57191  34 
   0  -3  13 71.5887 5.71208  33 
   0  -3 -13 74.2479 4.81349  27 
   0  -3 -13 82.5370 5.60641   6 
   0   3 -13 81.0702 4.67044  17 
   0   3 -13 81.9126 4.55123   1 
   0   3 -13 69.0135 4.86200   4 
   0   3  13 73.8464 4.89015  30 
   0   3 -13 63.8263 5.44514  14 
   0   3 -13 74.8223 5.11190   2 
   0   3 -13 72.9713 5.14693  31 
   0   3  13 76.2584 4.86333  28 
   0   3  13 64.1667 5.90515  15 
   0   3 -13 78.0633 4.62046  32 
   0   3 -13 74.3349 4.64762   3 
   0   3  13 79.3935 4.83861  31 
   0   3 -13 86.6068 5.35688   7 
   0   3  13 76.0665 5.25712   7 
   0   3  13 71.6632 6.46471  21 
   1  -3  13 37.5102 4.24798  33 
  -1  -3 -13 43.7003 3.33183  27 
   1  -3  13 51.1183 3.87742  19 
   1  -3  13 53.9447 3.98717  18 
   1  -3  13 49.4407 4.21606  20 
   1  -3  13 37.0310 4.96780  24 
  -1  -3 -13 43.4278 3.75301   5 
  -1   3 -13 47.7041 3.59789  31 
  -1   3 -13 48.4191 3.09147  32 
   1   3  13 40.0661 4.39239  15 
  -1   3 -13 48.4181 3.10602   3 
  -1   3 -13 41.1250 3.90304  14 
  -1   3 -13 50.5345 4.01261   7 
   1   3  13 40.4562 3.43582  31 
  -1   3 -13 49.6116 2.89802   1 
  -1   3 -13 40.4130 3.56809   2 
   1   3  13 41.4087 3.92454   7 
  -1   3 -13 46.9450 3.10527  17 
   1   3  13 43.0399 4.69082  21 
   1   3  13 52.9518 3.53316  28 
   1   3  13 45.7648 3.49996  30 
  -1   3 -13 40.3684 3.35356   4 
   2  -3  13 123.885 6.50105  20 
   2  -3  13 117.647 6.19489  19 
  -2  -3 -13 103.647 5.87254  27 
   2  -3  13 108.490 6.19496  18 
  -2  -3 -13 133.739 6.66375  19 
   2   3  13 91.4262 6.28206   7 
  -2   3 -13 108.432 6.00733   2 
  -2   3 -13 119.307 6.39767  30 
  -2   3 -13 104.601 5.51190  32 
  -2   3 -13 101.028 5.80421  17 
  -2   3 -13 103.735 5.98049  31 
  -2   3 -13 95.1119 5.58149   3 
   2   3  13 121.439 7.50106  21 
   2   3  13 106.021 6.62579  15 
   2   3  13 105.823 6.04933  30 
   2   3  13 107.745 6.00576  31 
  -2   3 -13 102.210 6.33470  14 
  -2   3 -13 109.908 6.20007   7 
   3  -4 -13 39.4058 3.79177   6 
  -3  -4  13 31.0765 4.79681  24 
   3   4 -13 28.4624 2.47988  17 
   3   4 -13 23.5218 2.51215  31 
  -3   4  13 33.0809 2.72694  29 
  -3   4  13 30.8806 2.44183  28 
   3   4 -13 26.7079 2.84471   7 
   2  -4 -13 87.6945 4.64134  27 
   2  -4 -13 78.0863 5.69379  24 
  -2  -4  13 75.9027 4.98473  24 
  -2  -4  13 65.7338 4.46596  27 
   2   4 -13 80.1289 4.57742  30 
   2   4 -13 83.7315 4.49019  17 
   2   4 -13 70.4419 4.49660  31 
   2   4 -13 71.3026 4.56093   7 
  -2   4  13 78.7432 4.45131  29 
  -2   4  13 82.1729 4.50518  28 
  -7   0  14 29.0213 2.76069  16 
  -7   0  14 35.8490 3.69090   2 
   7   0 -14 23.2369 2.94160  18 
  -7   0  14 34.6267 3.54316  13 
   7   0 -14 25.7835 3.55779  20 
  -7   0  14 25.3642 3.32316   4 
  -6   0  14 27.1521 3.79616  37 
  -6   0  14 24.8917 3.17288  16 
  -6   0  14 24.7777 3.89050   4 
  -6   0  14 27.5033 4.21627   2 
   6   0 -14 18.4796 3.50337  18 
  -6   0  14 26.7974 3.83484  13 
   6   0 -14 26.4336 3.13990  19 
   6   0 -14 19.7726 4.11260  20 
  -5   0  14 0.62023 2.34342   2 
   5   0 -14 3.56992 1.98889  19 
   5   0 -14 -1.8476 2.12889  18 
  -5   0  14 -3.1049 2.41983   4 
  -5   0  14 -0.9294 2.19482  37 
  -5   0  14 -2.4968 2.08394  13 
   5   0 -14 -2.3701 2.58177  20 
   4   0 -14 16.6043 4.76016  20 
   4   0 -14 15.2036 3.74597  18 
   4   0 -14 21.1027 3.61371  19 
  -4   0  14 18.1456 3.52828  37 
  -4   0  14 16.5527 3.87869  13 
  -4   0  14 22.4527 4.41628   2 
  -4   0  14 15.5211 2.85654   4 
  -3   0  14 19.8687 3.52209  37 
  -3   0  14 13.3030 5.09390  83 
  -3   0  14 13.9617 2.88313   2 
   3   0 -14 15.8572 3.86129  19 
   3   0 -14 19.2446 4.45145  20 
   3   0 -14 16.8550 3.95501  18 
  -3   0  14 22.4574 4.03100   4 
   2   0 -14 33.4325 4.67158   6 
   2   0 -14 42.4829 4.89411  20 
  -2   0  14 60.1357 6.59997  83 
   2   0 -14 45.3595 4.45947  19 
   2   0 -14 43.5644 4.40277  18 
  -2   0  14 51.4386 4.95259   2 
  -2   0  14 41.4571 4.48006   4 
   1   0 -14 15.4686 3.57060  18 
   1   0 -14 14.0447 3.58357  19 
  -1   0  14 28.1544 6.73430  83 
  -1   0  14 17.3911 3.85983   4 
   1   0 -14 11.4981 3.76982   6 
  -1   0  14 16.8621 3.91280   2 
   1   0 -14 13.8557 3.83464   5 
   1   0 -14 20.1181 3.91892  20 
   0   0 -14 212.016 11.9652  20 
   0   0 -14 219.049 11.5806  19 
   0   0 -14 216.560 12.3466   6 
   0   0  14 239.375 12.2262   2 
   0   0  14 240.818 12.1256   4 
   0   0 -14 211.321 11.7508  18 
   0   0 -14 210.227 12.0038   5 
  -1   0 -14 17.4851 3.64942   5 
  -1   0 -14 22.6142 2.87708  18 
  -1   0 -14 16.6918 3.66503   6 
  -1   0 -14 17.4954 2.57273  19 
   1   0  14 23.9778 4.00895   2 
  -1   0 -14 16.1635 3.41026  20 
   1   0  14 22.3079 3.87754   4 
  -2   0 -14 274.254 15.0596   5 
  -2   0 -14 300.732 14.7437  18 
  -2   0 -14 281.977 14.9802  20 
   2   0  14 263.702 15.0683   4 
   2   0  14 297.179 15.2798   2 
  -2   0 -14 336.728 15.5951   6 
  -7  -1  14 4.74448 1.93076  13 
   7  -1 -14 1.28941 2.02227  20 
   7  -1 -14 2.79217 1.50412  19 
   7  -1 -14 1.15260 1.66244  18 
  -7   1  14 2.64648 1.43088  32 
  -7   1  14 0.78152 1.08075   1 
   7   1 -14 2.21927 1.92974  13 
  -7   1  14 -0.9563 1.58471   4 
  -7   1  14 2.72004 1.27750   3 
  -7   1  14 4.24461 2.44093  31 
  -7   1  14 1.70889 1.54884   2 
  -7   1  14 3.41733 1.93723   7 
   7   1 -14 1.01117 2.29455   4 
   6  -1 -14 15.0642 4.01261  20 
  -6  -1  14 15.6487 3.55879  13 
   6  -1 -14 18.1789 3.49002  19 
   6  -1 -14 16.0948 3.64877  18 
  -6   1  14 13.8428 2.23140  16 
  -6   1  14 15.1397 3.48577  31 
  -6   1  14 15.7998 3.78697   7 
   6   1 -14 12.0619 3.53726   4 
   6   1 -14 13.0193 3.93010  13 
  -6   1  14 14.3900 3.28995   2 
  -6   1  14 13.6351 3.32492   4 
  -6   1  14 13.3973 2.29069   1 
  -6   1  14 14.3233 2.69898   3 
   5  -1 -14 49.9112 4.70194  19 
   5  -1 -14 52.3583 5.41526  20 
  -5  -1  14 47.1560 5.29611  13 
  -5  -1  14 41.4341 4.38426  20 
  -5  -1  14 43.7287 3.93866  18 
   5  -1 -14 46.9731 4.71684  18 
  -5   1  14 51.0235 4.59480   4 
  -5   1  14 47.2302 4.42747  31 
  -5   1  14 52.9568 5.00375   7 
  -5   1  14 47.7045 4.61239   2 
   5   1 -14 51.1815 5.39861  13 
  -5   1  14 44.6699 3.73848   1 
  -5   1  14 56.4216 5.42830  15 
  -5   1  14 44.1567 4.35318  37 
   5   1 -14 48.3706 4.76625   4 
  -5   1  14 49.4473 3.81103  16 
  -5   1  14 47.6395 3.97241   3 
  -4  -1  14 16.0944 3.68154  20 
   4  -1 -14 17.6635 4.19126  18 
   4  -1 -14 19.9660 5.14661  20 
  -4  -1  14 14.0262 3.28754  18 
   4  -1 -14 20.7482 5.05921   6 
   4  -1 -14 18.7316 3.76561  19 
  -4  -1  14 14.5350 3.09162  19 
  -4   1  14 23.2994 3.12708  16 
  -4   1  14 13.6075 4.01738   2 
   4   1 -14 17.8296 4.63283  13 
  -4   1  14 21.1272 4.35682   7 
   4   1 -14 16.9686 3.33259   4 
  -4   1  14 18.9233 3.47375   3 
  -4   1  14 24.2282 3.29284  15 
  -4   1  14 18.0965 3.80827  31 
  -4   1  14 18.2150 3.91648   4 
  -4   1  14 19.4167 3.69363  37 
   3  -1 -14 172.384 9.87642  18 
   3  -1 -14 180.892 9.79317  19 
  -3  -1  14 174.267 9.87098  20 
  -3  -1  14 180.700 9.54747  18 
   3  -1 -14 147.707 10.0059   6 
  -3  -1  14 163.089 9.34794  19 
   3  -1 -14 181.679 10.2306  20 
   3   1 -14 170.791 10.1972  13 
  -3   1  14 175.469 9.78213  15 
  -3   1  14 166.944 9.47080   3 
  -3   1  14 164.265 9.30028  16 
  -3   1  14 196.698 9.87171  37 
   3   1 -14 172.640 10.0789   2 
  -3   1  14 148.767 9.75070   7 
  -3   1  14 160.561 9.96917   2 
  -3   1  14 168.702 9.78141   4 
   3   1 -14 173.786 10.0107   4 
  -2  -1  14 243.204 13.1913  19 
   2  -1 -14 239.681 13.8343  20 
  -2  -1  14 240.786 13.3209  18 
   2  -1 -14 253.574 13.6452  19 
   2  -1 -14 251.015 14.0234   6 
  -2  -1  14 218.297 13.4806  20 
   2  -1 -14 257.021 13.5843  18 
   2   1 -14 278.472 13.9590   2 
  -2   1  14 265.750 14.5546  37 
  -2   1  14 238.252 13.3330   3 
  -2   1  14 267.689 13.7645   2 
  -2   1  14 251.599 13.7093   7 
   2   1 -14 249.744 13.7420  13 
  -2   1  14 272.275 13.6386   4 
  -2   1  14 217.694 14.2005  31 
   2   1 -14 264.951 13.6877   4 
  -2   1  14 270.133 13.6808  15 
  -2   1  14 272.685 16.4461  83 
  -1  -1  14 28.6573 4.02419  20 
  -1  -1  14 28.0687 3.58856  19 
   1  -1 -14 29.6850 4.46937   6 
   1  -1 -14 41.7765 4.40260  20 
   1  -1 -14 33.2177 4.33292   5 
   1  -1 -14 28.9057 4.13484  19 
  -1  -1  14 32.2991 3.89017  18 
   1  -1 -14 36.2678 4.05132  18 
  -1   1  14 30.4455 4.19353   2 
   1   1 -14 39.3226 4.26435   4 
  -1   1  14 33.0758 4.20871   7 
  -1   1  14 28.9738 4.11794   4 
  -1   1  14 32.8457 3.82675   3 
   1   1 -14 35.3229 4.48967   2 
  -1   1  14 33.7342 3.81950  15 
  -1   1  14 34.1327 4.52544  16 
   1   1 -14 35.9307 4.39657  13 
   0  -1 -14 13.1083 3.02380  19 
   0  -1  14 11.8555 3.35059  20 
   0  -1 -14 10.4409 3.80728   6 
   0  -1 -14 16.6527 3.26842  18 
   0  -1 -14 4.98654 2.00125  20 
   0  -1  14 6.06758 1.79251  19 
   0  -1  14 7.13426 2.03370  18 
   0  -1 -14 6.14446 2.07514   5 
   0   1  14 10.6978 2.08025   3 
   0   1 -14 14.6625 2.57987   2 
   0   1  14 13.5246 3.71133   7 
   0   1  14 14.1855 3.49478  16 
   0   1 -14 14.3512 3.47565   4 
   0   1  14 6.99415 2.31918   4 
   0   1 -14 11.5493 2.23948  13 
   0   1 -14 13.1543 4.01607   6 
   0   1  14 15.0046 3.60344   2 
   1  -1  14 142.914 7.92599  20 
   1  -1  14 132.347 7.71432  19 
  -1  -1 -14 129.360 7.91829   5 
  -1  -1 -14 137.812 7.78540  18 
  -1  -1 -14 141.747 8.35399   6 
  -1  -1 -14 136.031 7.98837  20 
   1  -1  14 121.538 7.59906  18 
  -1  -1 -14 138.795 7.63732  19 
  -1   1 -14 134.581 7.77372   4 
  -1   1 -14 144.487 7.94577   2 
   1   1  14 132.680 7.98455   2 
   1   1  14 133.513 7.55772  16 
   1   1  14 137.031 7.89938   4 
  -1   1 -14 132.526 8.15534   6 
   1   1  14 143.060 7.80945   3 
  -1   1 -14 140.609 7.81059  13 
  -2  -1 -14 33.1994 3.50520   5 
   2  -1  14 32.9237 3.06846  18 
  -2  -1 -14 32.3547 2.81307  19 
  -2  -1 -14 31.9649 2.92856  18 
  -2  -1 -14 35.7970 3.37063  20 
   2  -1  14 24.9974 3.48390  20 
  -2  -1 -14 43.7233 3.96720   6 
  -2   1 -14 37.5850 3.44911   2 
  -2   1 -14 39.2326 3.59464  16 
  -2   1 -14 33.2351 3.14682   4 
   2   1  14 37.8596 3.74254   2 
  -2   1 -14 34.8952 3.34424  13 
   2   1  14 33.7504 4.09147  21 
   2   1  14 34.3818 2.98142  16 
   2   1  14 37.7659 3.41005   3 
   2   1  14 35.7781 3.50088   4 
  -2   1 -14 30.3865 3.85355   6 
   2   1  14 31.5077 2.96278   1 
   6  -2 -14 19.6286 3.13361  18 
  -6  -2  14 14.7200 2.40361  18 
   6  -2 -14 19.7369 3.65678  20 
   6  -2 -14 20.4687 3.15065  19 
  -6  -2  14 12.5387 2.19721  19 
  -6  -2  14 12.7081 2.72112  20 
   6   2 -14 11.7327 2.70732  13 
  -6   2  14 17.6971 2.93928   7 
  -6   2  14 16.7672 2.09447   3 
   6   2 -14 21.0478 3.25935   4 
   6   2 -14 19.9050 2.96670   3 
  -6   2  14 16.5191 2.51342  15 
   6   2 -14 18.3222 3.03115   1 
   6   2 -14 18.5677 2.53041  16 
  -6   2  14 16.8895 2.54089  30 
  -6   2  14 18.4833 2.40216   4 
  -6   2  14 14.3814 3.12043   2 
  -6   2  14 20.3892 2.47645  31 
   5  -2 -14 144.874 8.77538  20 
  -5  -2  14 145.361 8.12137  18 
   5  -2 -14 149.187 8.63666   6 
  -5  -2  14 147.394 8.03941  19 
   5  -2 -14 145.332 7.99516  27 
   5  -2 -14 150.532 8.31848  19 
  -5  -2  14 160.531 8.51307  20 
   5  -2 -14 139.093 8.35256  18 
   5  -2 -14 133.355 8.38039  24 
   5   2 -14 147.976 8.31604  13 
  -5   2  14 138.645 7.53775  32 
  -5   2  14 161.093 8.66991  15 
  -5   2  14 155.167 7.42211   1 
  -5   2  14 132.851 8.21797  30 
  -5   2  14 140.009 7.65864   3 
  -5   2  14 155.282 8.48100   7 
   5   2 -14 152.745 8.28408   3 
   5   2 -14 155.181 8.47748   4 
  -5   2  14 147.279 8.12578   2 
  -5   2  14 141.047 8.11139  31 
   5   2 -14 157.242 8.13624  16 
  -5   2  14 141.714 7.95772   4 
   4  -2 -14 192.079 11.3157   6 
  -4  -2  14 194.353 11.0945  20 
   4  -2 -14 214.728 11.3350  20 
   4  -2 -14 210.043 11.1189  18 
  -4  -2  14 191.973 10.8105  18 
   4  -2 -14 198.069 10.9775  19 
   4  -2 -14 197.552 11.2795  24 
   4  -2 -14 189.242 10.6919  27 
  -4  -2  14 204.876 10.7774  19 
   4   2 -14 200.620 10.8178  16 
  -4   2  14 203.227 10.6864   4 
  -4   2  14 218.726 10.2970   1 
  -4   2  14 206.231 11.3642  15 
  -4   2  14 215.735 11.0887   7 
  -4   2  14 207.525 10.4757   3 
   4   2 -14 200.800 10.8753   3 
   4   2 -14 212.486 11.1261   4 
  -4   2  14 214.850 10.8401  31 
  -4   2  14 214.596 11.0310  30 
   4   2 -14 209.716 11.3438   2 
  -4   2  14 196.193 10.8174   2 
  -4   2  14 171.556 11.2028  37 
  -4   2  14 193.058 10.3115  32 
   4   2 -14 201.600 10.8408  13 
  -3  -2  14 21.0942 3.40592  19 
   3  -2 -14 25.4807 3.95415  20 
  -3  -2  14 22.3440 3.75984  20 
   3  -2 -14 15.9655 3.78795  24 
   3  -2 -14 27.8466 3.79749  18 
   3  -2 -14 20.7499 2.90932  27 
   3  -2 -14 26.9342 3.77437  19 
  -3  -2  14 23.5093 3.43631  18 
   3  -2 -14 21.3395 3.91478   6 
   3   2 -14 19.3119 3.58767   3 
  -3   2  14 24.0051 3.26810  31 
  -3   2  14 24.7023 3.84417   7 
   3   2 -14 20.9854 4.27998   2 
   3   2 -14 24.8474 3.62708  13 
   3   2 -14 32.8917 3.78482  16 
  -3   2  14 25.2700 2.36188   1 
  -3   2  14 21.1969 3.28590   2 
  -3   2  14 24.0829 3.40038  30 
  -3   2  14 18.7608 3.21253   4 
  -3   2  14 24.7662 2.67103   3 
  -3   2  14 22.1841 2.37722  32 
  -3   2  14 23.0463 3.84137  37 
   3   2 -14 25.4262 4.15050   4 
  -3   2  14 22.2273 3.49079  15 
  -2  -2  14 54.4916 4.27295  19 
   2  -2 -14 58.7524 4.96549  24 
   2  -2 -14 56.8269 4.00711  27 
  -2  -2  14 53.2455 4.55849  20 
   2  -2 -14 63.1003 4.95888  20 
   2  -2 -14 51.2216 4.89006   6 
   2  -2 -14 50.2018 4.55674  18 
   2  -2 -14 50.4888 4.81528  19 
  -2  -2  14 56.5023 4.50930  18 
  -2   2  14 57.0270 3.60163  32 
  -2   2  14 62.4004 4.36210  31 
  -2   2  14 56.1829 3.87459   3 
  -2   2  14 65.3394 4.67131   7 
   2   2 -14 57.1740 4.87942   2 
  -2   2  14 56.2695 4.73423  15 
  -2   2  14 54.3614 4.61363  30 
  -2   2  14 47.8532 4.27405   2 
   2   2 -14 54.0933 4.61002   4 
   2   2 -14 57.1278 4.44555  13 
  -2   2  14 56.3315 3.57886   1 
  -2   2  14 47.7265 4.28126   4 
  -2   2  14 45.7493 4.59577  37 
  -2   2  14 46.4863 5.24148  21 
   2   2 -14 52.9218 4.48060  16 
   2   2 -14 55.6890 4.49346   3 
   1  -2 -14 35.8354 3.77499  19 
   1  -2 -14 29.0152 3.83275  24 
  -1  -2  14 31.3961 3.78015  20 
   1  -2 -14 40.5301 4.18079  20 
   1  -2 -14 30.7533 3.14764  27 
   1  -2 -14 33.7316 4.00558   5 
   1  -2 -14 39.9292 4.45892   6 
  -1  -2  14 36.0518 3.68749  18 
  -1  -2  14 32.0163 3.46131  19 
   1  -2 -14 37.3094 3.76514  18 
  -1   2  14 33.2064 3.52026   4 
   1   2 -14 35.6265 3.55045   3 
  -1   2  14 37.5268 3.68004  31 
  -1   2  14 39.1614 4.15388  15 
  -1   2  14 36.6364 2.78064  32 
  -1   2  14 27.0789 4.52135  21 
  -1   2  14 35.2401 2.77344   1 
  -1   2  14 37.0219 4.06040   7 
  -1   2  14 34.5123 3.09449   3 
   1   2 -14 34.9676 3.50923  13 
   1   2 -14 36.4680 3.54093  16 
  -1   2  14 32.7971 3.62870   2 
   1   2 -14 32.7806 3.85624   4 
   1   2 -14 36.0583 4.12126   2 
   0  -2 -14 17.8197 2.82498  19 
   0  -2 -14 11.3374 3.14879  20 
   0  -2  14 9.40603 3.15875  20 
   0  -2 -14 11.7287 3.39497  27 
   0  -2 -14 15.3926 3.03988  18 
   0  -2  14 14.9529 3.01701  19 
   0  -2 -14 17.4107 3.49852   5 
   0  -2 -14 14.2992 3.51509   6 
   0  -2  14 13.4081 2.94664  18 
   0   2  14 14.6600 2.81116  31 
   0   2 -14 17.8548 3.10706  16 
   0   2  14 10.8335 2.39797   3 
   0   2  14 11.3391 2.75737   4 
   0   2  14 18.0871 2.08330   1 
   0   2 -14 13.9480 3.06117   4 
   0   2 -14 14.0589 3.25410   2 
   0   2 -14 13.2769 3.00132   3 
   0   2 -14 16.7347 2.83762  13 
   0   2  14 13.0895 4.10402  21 
   0   2  14 14.4624 2.88315   2 
   0   2  14 17.4971 3.36564  15 
   0   2  14 18.7279 2.16284  32 
   0   2  14 13.4815 3.46407   7 
  -1  -2 -14 55.4713 4.27451  20 
  -1  -2 -14 53.5828 4.22698   6 
  -1  -2 -14 48.7237 4.08301   5 
   1  -2  14 49.0377 3.81310  18 
  -1  -2 -14 44.5806 3.62206  18 
  -1  -2 -14 60.9986 3.90500  19 
   1  -2  14 46.1395 3.66128  19 
   1  -2  14 50.6211 4.09531  20 
  -1   2 -14 49.6596 3.85679   2 
   1   2  14 58.7790 4.08848  15 
   1   2  14 47.1518 3.45453   3 
  -1   2 -14 52.2083 3.61299   1 
  -1   2 -14 59.0739 3.91975   4 
   1   2  14 55.4434 4.72785  21 
   1   2  14 44.9443 3.71661   4 
   1   2  14 45.7055 3.94143   2 
  -1   2 -14 49.9367 4.21371  14 
   1   2  14 55.4653 3.91459  31 
   1   2  14 65.8942 5.18685  30 
  -1   2 -14 49.3564 3.67620   3 
   1   2  14 52.0470 3.26324  32 
  -1   2 -14 50.4878 3.55744  13 
   1   2  14 46.0817 3.07295   1 
   1   2  14 59.1258 4.45238   7 
  -1   2 -14 53.3021 3.53953  16 
   4  -3 -14 38.8334 3.65892   6 
   4  -3 -14 50.7904 4.27416  24 
  -4  -3  14 53.8902 3.46799  19 
   4  -3 -14 51.7341 3.50151  27 
  -4  -3  14 52.2323 3.53031  18 
  -4  -3  14 52.2503 3.86553  20 
   4   3 -14 43.6165 3.04873   3 
   4   3 -14 43.3825 3.86350   7 
   4   3 -14 52.4587 3.08220  32 
  -4   3  14 48.4049 3.64578  28 
   4   3 -14 42.8277 3.66868  31 
  -4   3  14 43.8446 3.93493  15 
   4   3 -14 45.2853 3.47682   4 
  -4   3  14 49.9156 3.13701  30 
  -4   3  14 49.1626 3.13776  31 
  -4   3  14 49.8694 3.40174   7 
   4   3 -14 40.9099 3.48066   2 
   4   3 -14 46.5962 2.86026   1 
  -3  -3  14 51.2253 3.67890  18 
   3  -3 -14 52.3424 3.65491   5 
   3  -3 -14 50.4146 4.15066   6 
  -3  -3  14 42.3899 3.59561  19 
   3  -3 -14 47.6507 3.45620  27 
  -3  -3  14 46.2475 3.82949  20 
   3  -3 -14 46.0439 4.20252  24 
  -3   3  14 47.8582 3.53545   7 
   3   3 -14 41.9022 3.23493  17 
   3   3 -14 46.5807 3.46308   4 
   3   3 -14 46.9427 3.13301  32 
  -3   3  14 46.0756 3.13059  31 
  -3   3  14 40.8465 3.89731  15 
   3   3 -14 53.1931 3.86380   7 
   3   3 -14 42.1478 3.85776  31 
   3   3 -14 46.2015 3.77406   2 
  -3   3  14 51.2042 3.30351  30 
  -3   3  14 42.3221 3.27704  28 
   3   3 -14 43.6767 3.14101   3 
   3   3 -14 46.2010 2.92833   1 
   2  -3 -14 9.18008 2.84138  24 
   2  -3 -14 9.91716 2.58359   5 
   2  -3 -14 8.30478 2.00810  27 
  -2  -3  14 10.9306 2.51349  20 
   2  -3 -14 11.0828 2.89307   6 
  -2  -3  14 15.5453 2.52510  19 
  -2  -3  14 9.10371 2.41768  18 
  -2   3  14 7.77803 1.83685  31 
  -2   3  14 5.54835 1.49495  15 
  -2   3  14 8.02201 1.70330   7 
   2   3 -14 6.96997 1.70803   2 
   2   3 -14 11.4673 1.83986  32 
  -2   3  14 10.2788 2.02786  30 
  -2   3  14 9.35613 3.24117  21 
   2   3 -14 9.60289 2.72563  31 
   2   3 -14 8.67751 1.64135   1 
   2   3 -14 11.5441 1.92791  17 
   2   3 -14 6.57512 1.60156   4 
  -2   3  14 9.16090 2.13091  28 
   2   3 -14 7.26634 1.70426   7 
   2   3 -14 10.4318 1.97882   3 
   1  -3 -14 30.2132 3.30247  24 
  -1  -3  14 31.4074 3.04514  18 
   1  -3 -14 37.3695 3.37175   6 
  -1  -3  14 36.7949 3.01990  19 
   1  -3 -14 30.1599 2.58928  27 
  -1  -3  14 28.6051 3.11334  20 
   1  -3 -14 33.5220 3.12376   5 
  -1   3  14 31.8814 2.74689  30 
   1   3 -14 31.3606 2.45087   3 
  -1   3  14 24.9549 3.64003  21 
   1   3 -14 38.0929 3.24998   7 
  -1   3  14 26.2442 3.35133  15 
   1   3 -14 29.8309 2.16366   1 
   1   3 -14 31.1464 2.75452   4 
  -1   3  14 29.8444 2.54411  31 
  -1   3  14 32.0441 3.13195   7 
   1   3 -14 31.9648 3.08491  31 
   1   3 -14 28.3466 2.82628   2 
   1   3 -14 32.4573 2.32464  32 
   1   3 -14 30.3818 2.52608  17 
  -1   3  14 31.8674 2.64951  28 
   1   3 -14 26.7247 3.10762  14 
  -5   0  15 124.782 7.29474   2 
  -5   0  15 129.455 6.94872  16 
   5   0 -15 116.206 7.24496  20 
   5   0 -15 123.971 6.86623  18 
  -5   0  15 132.924 7.26157   4 
  -4   0  15 24.3751 2.96462  16 
   4   0 -15 17.9280 2.79756  18 
  -4   0  15 16.8693 3.13613   4 
   4   0 -15 15.5128 3.11632  20 
   4   0 -15 13.7926 2.69877  19 
  -4   0  15 20.8334 3.54680   2 
  -3   0  15 47.2041 4.27672   2 
  -3   0  15 41.9384 3.96819  16 
   3   0 -15 40.3351 4.13693  20 
   3   0 -15 40.7005 3.64808  18 
  -3   0  15 40.6904 3.92500   4 
   3   0 -15 38.2847 3.48841  19 
   2   0 -15 3.86987 1.81857  20 
   2   0 -15 4.09718 1.38279  19 
  -2   0  15 5.90424 1.98356   4 
   2   0 -15 6.92807 1.74945  18 
  -2   0  15 5.95992 1.95821   2 
  -1   0  15 105.293 6.50711   2 
   1   0 -15 103.676 6.10384  18 
   1   0 -15 112.385 6.45264  19 
  -1   0  15 115.241 7.55450  16 
   1   0 -15 95.6543 6.85277   6 
   1   0 -15 118.399 6.53154  20 
  -1   0  15 94.1993 6.36979   4 
   0   0  15 26.0772 3.31823   2 
   0   0 -15 17.3335 3.38681   6 
   0   0  15 18.4780 3.10043  16 
   0   0 -15 17.1994 2.25274  18 
   0   0  15 20.4159 3.16638   4 
   0   0 -15 16.4817 2.64725  20 
   1   0  15 185.531 10.1421   4 
   1   0  15 215.134 10.5502  16 
  -1   0 -15 172.017 10.0721   6 
   5  -1 -15 140.427 7.60302  18 
   5  -1 -15 141.507 7.92247  20 
   5  -1 -15 132.117 7.51858  19 
  -5   1  15 128.520 7.27595  32 
  -5   1  15 132.883 7.34435   3 
  -5   1  15 124.029 7.20054   1 
  -5   1  15 147.200 7.64684   4 
   5   1 -15 134.311 7.76584  13 
  -5   1  15 147.799 7.85765   2 
  -5   1  15 130.944 7.81542  31 
  -5   1  15 167.159 8.15325   7 
   4  -1 -15 134.326 7.76474  20 
   4  -1 -15 126.437 7.41699  19 
   4  -1 -15 143.502 7.61897  18 
  -4   1  15 127.811 7.13898  16 
   4   1 -15 142.154 7.76414  13 
  -4   1  15 123.704 7.42481   4 
  -4   1  15 148.999 7.65819  32 
  -4   1  15 117.715 7.41796  31 
  -4   1  15 124.224 7.10885   1 
  -4   1  15 130.437 7.59785   2 
   4   1 -15 132.909 7.81806   2 
   4   1 -15 134.255 7.75607   4 
  -4   1  15 138.778 7.28049   3 
  -4   1  15 136.687 7.60751   7 
   3  -1 -15 83.6814 5.36028  18 
  -3  -1  15 70.0556 4.96195  20 
   3  -1 -15 87.3365 5.41620   5 
   3  -1 -15 81.5703 5.08991  19 
   3  -1 -15 86.7331 5.48913  20 
   3  -1 -15 66.2713 5.37414   6 
  -3   1  15 73.7945 5.16357   4 
  -3   1  15 70.0705 4.86144  16 
   3   1 -15 82.8328 5.53979  13 
  -3   1  15 83.5528 5.20612   7 
  -3   1  15 89.1654 4.91270   3 
   3   1 -15 75.9955 5.39970   2 
  -3   1  15 73.8089 5.15494  31 
   3   1 -15 88.9202 5.51977   4 
  -3   1  15 76.9716 4.71949   1 
  -3   1  15 79.3830 5.19431   2 
   2  -1 -15 12.9477 3.16593  20 
  -2  -1  15 13.1381 2.82993  18 
   2  -1 -15 9.49389 2.75570  19 
   2  -1 -15 10.3427 3.19402   6 
   2  -1 -15 11.8620 2.79467  18 
  -2  -1  15 10.6332 2.56906  20 
   2  -1 -15 10.3724 2.91219   5 
  -2   1  15 12.1031 2.30176   1 
   2   1 -15 11.4336 3.02800  13 
  -2   1  15 9.67041 2.47948   3 
  -2   1  15 10.9505 2.15268   4 
  -2   1  15 10.7961 3.10537   7 
  -2   1  15 11.0386 2.63727  16 
  -2   1  15 9.54272 3.54022  21 
  -2   1  15 9.38882 2.78218  31 
   2   1 -15 10.3500 2.19561   4 
   2   1 -15 13.4740 3.46004   2 
  -2   1  15 9.56986 2.95005   2 
  -1  -1  15 79.6309 5.35191  20 
   1  -1 -15 80.6394 5.53426   5 
   1  -1 -15 87.7135 5.24610  19 
   1  -1 -15 92.8202 5.90353   6 
   1  -1 -15 74.1373 5.40996  20 
   1   1 -15 83.8772 5.67357   2 
  -1   1  15 88.5825 5.59167   4 
  -1   1  15 86.5453 6.00562   7 
   1   1 -15 97.0152 5.66818  13 
  -1   1  15 86.5563 6.15855  21 
   1   1 -15 85.9643 5.45531   4 
  -1   1  15 91.3768 5.13167  16 
  -1   1  15 95.6098 5.22046   1 
  -1   1  15 98.1048 5.66210   2 
  -1   1  15 81.2594 5.21163   3 
  -1   1  15 88.1751 5.58051  31 
   0  -1  15 29.5068 4.40588  20 
   0  -1 -15 18.8876 2.84063  20 
   0  -1 -15 19.3860 2.67423   5 
   0  -1 -15 23.1265 2.45694  19 
   0  -1 -15 20.3151 2.53872  18 
   0  -1 -15 18.0732 3.12439   6 
   0   1 -15 27.1639 3.35700  16 
   0   1 -15 20.7781 2.78855  13 
   0   1 -15 25.5048 2.94683   4 
   0   1  15 24.1466 2.98069   2 
   0   1  15 19.9434 2.31813   3 
   0   1  15 18.0435 2.77516   4 
   0   1  15 22.7897 3.48593  21 
   0   1 -15 25.0449 2.82069   2 
   0   1  15 20.5334 2.38054  16 
   0   1  15 23.0387 2.36523   1 
   0   1  15 29.9671 3.22921  31 
   3  -2 -15 160.422 8.82147  20 
  -3  -2  15 178.208 8.90534  20 
  -3  -2  15 133.429 8.60711  19 
   3  -2 -15 165.143 8.74290  18 
   3  -2 -15 149.374 8.66611   5 
   3  -2 -15 161.885 8.66553  19 
   3  -2 -15 176.978 9.13054   6 
  -3  -2  15 168.303 8.65142  18 
  -3   2  15 167.506 8.62432  31 
  -3   2  15 136.570 8.31581   3 
   3   2 -15 189.101 8.82390   1 
   3   2 -15 172.814 8.62239  13 
   3   2 -15 161.061 8.40101  16 
   3   2 -15 169.025 8.86548   2 
   3   2 -15 164.393 8.68893   3 
  -3   2  15 164.993 8.92944   2 
  -3   2  15 149.091 8.88382  15 
  -3   2  15 167.299 8.79696   4 
  -3   2  15 169.950 8.76091   7 
   3   2 -15 178.221 8.80441   4 
  -3   2  15 135.023 8.85870  30 
   2  -2 -15 43.1997 3.90891   6 
   2  -2 -15 55.0118 3.90842   5 
   2  -2 -15 45.2533 3.94739  20 
  -2  -2  15 49.9937 3.60352  18 
  -2  -2  15 53.2884 3.63129  19 
  -2  -2  15 41.7149 3.73736  20 
   2  -2 -15 56.0389 3.87577  19 
   2  -2 -15 55.1618 3.90643  18 
   2   2 -15 54.7079 3.50499  16 
  -2   2  15 47.9340 4.09027   2 
  -2   2  15 55.1596 4.09267  15 
  -2   2  15 62.8172 5.74086  21 
  -2   2  15 54.7758 4.00600  30 
   2   2 -15 47.8457 3.74891   4 
   2   2 -15 48.7708 3.46922  13 
  -2   2  15 56.7530 3.83662  31 
   2   2 -15 51.1100 3.92446   2 
   2   2 -15 57.3752 3.63935   3 
  -2   2  15 54.1166 3.16697   3 
  -2   2  15 72.7143 4.62986   4 
  -2   2  15 56.1529 3.91384   7 
   2   2 -15 50.3265 3.58808   1 
  -1  -2  15 157.304 8.57825  18 
  -1  -2  15 159.526 8.54101  19 
   1  -2 -15 182.674 9.14438  20 
   1  -2 -15 170.282 8.98013   6 
   1  -2 -15 161.666 8.77516  18 
   1  -2 -15 166.083 8.58509  19 
  -1  -2  15 145.224 8.75802  20 
   1  -2 -15 167.341 8.83915   5 
   1   2 -15 163.472 8.60018   4 
  -1   2  15 142.352 8.85895   7 
  -1   2  15 185.504 9.95686  21 
  -1   2  15 164.199 8.64441  31 
   1   2 -15 162.750 8.34943  16 
   1   2 -15 159.299 9.30153   1 
   1   2 -15 155.014 8.71238   2 
   1   2 -15 173.397 8.69226   3 
   0   0   0    0.00    0.00   0 
  
 _exptl_absorpt_process_details 'SADABS 2014/5' 
 _exptl_absorpt_correction_type   multi-scan 
 _exptl_absorpt_correction_T_max  0.9287 
 _exptl_absorpt_correction_T_min  0.8037 
 _exptl_special_details 
) 
 The following wavelength and cell were deduced by SADABS from the 
 direction cosines etc. They are given here for emergency use only: 
 CELL 1.54183    9.607    5.941   13.081   89.996  102.388   89.993 
) 
  
;
_shelx_hkl_checksum              74931
loop_
_space_group_symop_operation_xyz
'x, y, z'
'-x, y+1/2, -z'
loop_
_atom_site_label
_atom_site_type_symbol
_atom_site_fract_x
_atom_site_fract_y
_atom_site_fract_z
_atom_site_U_iso_or_equiv
_atom_site_adp_type
_atom_site_occupancy
_atom_site_site_symmetry_order
_atom_site_calc_flag
_atom_site_refinement_flags_posn
_atom_site_refinement_flags_adp
_atom_site_refinement_flags_occupancy
_atom_site_disorder_assembly
_atom_site_disorder_group
C1 C -0.23412(19) 0.6147(3) 0.68328(13) 0.0228(4) Uani 1 1 d . . . . .
H1 H -0.2517 0.7785 0.6680 0.027 Uiso 1 1 calc R U . . .
C2 C -0.36953(18) 0.4982(3) 0.69831(13) 0.0233(4) Uani 1 1 d . . . . .
C3 C -0.44965(19) 0.5426(4) 0.77253(13) 0.0268(4) Uani 1 1 d . . . . .
H3 H -0.4275 0.6665 0.8191 0.032 Uiso 1 1 calc R U . . .
C4 C -0.56391(19) 0.3996(4) 0.77668(14) 0.0306(5) Uani 1 1 d . . . . .
H4 H -0.6208 0.4281 0.8264 0.037 Uiso 1 1 calc R U . . .
C5 C -0.5958(2) 0.2179(4) 0.71006(15) 0.0319(5) Uani 1 1 d . . . . .
H5 H -0.6733 0.1224 0.7152 0.038 Uiso 1 1 calc R U . . .
C6 C -0.5156(2) 0.1725(4) 0.63527(14) 0.0292(4) Uani 1 1 d . . . . .
H6 H -0.5378 0.0479 0.5891 0.035 Uiso 1 1 calc R U . . .
C7 C -0.40245(18) 0.3143(4) 0.63020(13) 0.0242(4) Uani 1 1 d . . . . .
C8 C -0.30166(18) 0.3138(3) 0.56124(13) 0.0234(4) Uani 1 1 d . . . . .
C9 C -0.2665(2) 0.2247(3) 0.47370(13) 0.0258(4) Uani 1 1 d . . . . .
H9 H -0.3104 0.0974 0.4361 0.031 Uiso 1 1 calc R U . . .
C10 C -0.12692(19) 0.5098(4) 0.51982(13) 0.0257(4) Uani 1 1 d . . . . .
H10 H -0.0556 0.6214 0.5215 0.031 Uiso 1 1 calc R U . . .
C11 C -0.11054(19) 0.5811(3) 0.77911(13) 0.0214(4) Uani 1 1 d . . . . .
H11 H -0.1330 0.6678 0.8391 0.026 Uiso 1 1 calc R U . . .
C12 C 0.03288(19) 0.6647(3) 0.76013(13) 0.0217(4) Uani 1 1 d . . . . .
H12 H 0.0620 0.5641 0.7071 0.026 Uiso 1 1 calc R U . . .
C13 C 0.14123(18) 0.6415(3) 0.86160(13) 0.0230(4) Uani 1 1 d . . . . .
C14 C 0.2575(2) 0.7671(4) 0.90906(15) 0.0290(4) Uani 1 1 d . . . . .
H14 H 0.2912 0.9032 0.8848 0.035 Uiso 1 1 calc R U . . .
C15 C 0.3152(2) 0.6496(4) 1.00098(15) 0.0328(5) Uani 1 1 d . . . . .
H15 H 0.3980 0.6964 1.0500 0.039 Uiso 1 1 calc R U . . .
C16 C 0.01794(19) 0.3032(3) 0.91540(14) 0.0252(4) Uani 1 1 d . . . . .
H16A H -0.0305 0.3253 0.9742 0.030 Uiso 1 1 calc R U . . .
H16B H 0.0560 0.1477 0.9196 0.030 Uiso 1 1 calc R U . . .
C17 C -0.08947(19) 0.3342(3) 0.81176(13) 0.0247(4) Uani 1 1 d . . . . .
H17A H -0.0562 0.2496 0.7563 0.030 Uiso 1 1 calc R U . . .
H17B H -0.1822 0.2699 0.8183 0.030 Uiso 1 1 calc R U . . .
N1 N -0.15716(16) 0.3486(3) 0.44859(11) 0.0268(4) Uani 1 1 d . . . . .
N2 N -0.21120(15) 0.4935(3) 0.58952(11) 0.0225(3) Uani 1 1 d . . . . .
N3 N 0.24155(17) 0.4656(3) 1.01215(12) 0.0305(4) Uani 1 1 d . . . . .
N4 N 0.13546(16) 0.4634(3) 0.92468(11) 0.0243(3) Uani 1 1 d . . . . .
O1 O 0.02704(15) 0.8871(2) 0.72238(10) 0.0270(3) Uani 1 1 d . . . . .
H1A H 0.0709 0.8953 0.6734 0.040 Uiso 1 1 calc R U . . .
loop_
_atom_site_aniso_label
_atom_site_aniso_U_11
_atom_site_aniso_U_22
_atom_site_aniso_U_33
_atom_site_aniso_U_23
_atom_site_aniso_U_13
_atom_site_aniso_U_12
C1 0.0281(9) 0.0237(11) 0.0169(8) -0.0021(7) 0.0053(6) 0.0020(8)
C2 0.0238(8) 0.0260(11) 0.0195(8) 0.0019(7) 0.0032(6) 0.0048(8)
C3 0.0278(9) 0.0315(12) 0.0206(9) 0.0007(8) 0.0039(7) 0.0073(8)
C4 0.0245(9) 0.0444(13) 0.0233(9) 0.0064(8) 0.0058(7) 0.0067(8)
C5 0.0255(9) 0.0434(14) 0.0255(9) 0.0065(9) 0.0028(7) -0.0021(9)
C6 0.0290(10) 0.0338(12) 0.0229(9) -0.0006(8) 0.0015(7) -0.0028(8)
C7 0.0242(8) 0.0285(11) 0.0183(8) 0.0014(7) 0.0012(6) 0.0037(8)
C8 0.0245(8) 0.0245(10) 0.0198(8) -0.0005(7) 0.0014(6) 0.0006(7)
C9 0.0276(9) 0.0289(12) 0.0200(8) -0.0039(8) 0.0029(7) 0.0000(8)
C10 0.0259(9) 0.0328(12) 0.0190(8) -0.0008(8) 0.0060(7) 0.0009(8)
C11 0.0276(9) 0.0220(10) 0.0149(7) -0.0018(7) 0.0051(6) -0.0003(7)
C12 0.0279(9) 0.0202(10) 0.0181(8) -0.0018(7) 0.0077(7) 0.0011(7)
C13 0.0266(9) 0.0242(11) 0.0201(8) -0.0031(7) 0.0096(7) 0.0021(8)
C14 0.0295(9) 0.0328(12) 0.0260(9) -0.0059(8) 0.0087(7) -0.0047(8)
C15 0.0283(9) 0.0429(14) 0.0257(9) -0.0082(9) 0.0025(7) -0.0035(9)
C16 0.0317(9) 0.0230(10) 0.0213(8) 0.0020(7) 0.0064(7) -0.0007(8)
C17 0.0284(9) 0.0241(10) 0.0208(8) -0.0019(7) 0.0034(7) -0.0007(8)
N1 0.0276(7) 0.0334(10) 0.0193(7) -0.0034(7) 0.0049(6) 0.0015(7)
N2 0.0256(7) 0.0263(9) 0.0160(6) -0.0018(6) 0.0050(5) 0.0003(7)
N3 0.0302(8) 0.0398(11) 0.0194(7) -0.0030(7) 0.0004(6) 0.0025(8)
N4 0.0264(7) 0.0275(9) 0.0185(7) -0.0003(6) 0.0034(6) 0.0023(7)
O1 0.0362(7) 0.0218(7) 0.0258(6) 0.0025(5) 0.0128(5) 0.0004(5)
loop_
_atom_type_symbol
_atom_type_description
_atom_type_scat_dispersion_real
_atom_type_scat_dispersion_imag
_atom_type_scat_source
C C 0.0181 0.0091 'International Tables Vol C Tables 4.2.6.8 and 6.1.1.4'
H H 0.0000 0.0000 'International Tables Vol C Tables 4.2.6.8 and 6.1.1.4'
N N 0.0311 0.0180 'International Tables Vol C Tables 4.2.6.8 and 6.1.1.4'
O O 0.0492 0.0322 'International Tables Vol C Tables 4.2.6.8 and 6.1.1.4'
loop_
_geom_angle_atom_site_label_1
_geom_angle_atom_site_label_2
_geom_angle_atom_site_label_3
_geom_angle
_geom_angle_site_symmetry_1
_geom_angle_site_symmetry_3
_geom_angle_publ_flag
N2 C1 C2 99.75(14) . . ?
N2 C1 C11 112.67(14) . . ?
C2 C1 C11 111.47(14) . . ?
N2 C1 H1 110.8 . . ?
C2 C1 H1 110.8 . . ?
C11 C1 H1 110.8 . . ?
C3 C2 C7 120.62(17) . . ?
C3 C2 C1 128.42(17) . . ?
C7 C2 C1 110.76(15) . . ?
C2 C3 C4 118.02(18) . . ?
C2 C3 H3 121.0 . . ?
C4 C3 H3 121.0 . . ?
C5 C4 C3 121.34(18) . . ?
C5 C4 H4 119.3 . . ?
C3 C4 H4 119.3 . . ?
C4 C5 C6 120.9(2) . . ?
C4 C5 H5 119.6 . . ?
C6 C5 H5 119.6 . . ?
C7 C6 C5 118.2(2) . . ?
C7 C6 H6 120.9 . . ?
C5 C6 H6 120.9 . . ?
C6 C7 C2 120.96(17) . . ?
C6 C7 C8 131.24(18) . . ?
C2 C7 C8 107.79(16) . . ?
C9 C8 N2 105.65(16) . . ?
C9 C8 C7 146.59(19) . . ?
N2 C8 C7 107.28(16) . . ?
C8 C9 N1 109.31(17) . . ?
C8 C9 H9 125.3 . . ?
N1 C9 H9 125.3 . . ?
N1 C10 N2 110.59(17) . . ?
N1 C10 H10 124.7 . . ?
N2 C10 H10 124.7 . . ?
C17 C11 C12 106.62(15) . . ?
C17 C11 C1 112.56(15) . . ?
C12 C11 C1 112.83(14) . . ?
C17 C11 H11 108.2 . . ?
C12 C11 H11 108.2 . . ?
C1 C11 H11 108.2 . . ?
O1 C12 C13 111.29(15) . . ?
O1 C12 C11 113.02(15) . . ?
C13 C12 C11 107.62(13) . . ?
O1 C12 H12 108.3 . . ?
C13 C12 H12 108.3 . . ?
C11 C12 H12 108.3 . . ?
N4 C13 C14 106.53(16) . . ?
N4 C13 C12 119.92(16) . . ?
C14 C13 C12 133.53(18) . . ?
C13 C14 C15 104.59(19) . . ?
C13 C14 H14 127.7 . . ?
C15 C14 H14 127.7 . . ?
N3 C15 C14 112.52(18) . . ?
N3 C15 H15 123.7 . . ?
C14 C15 H15 123.7 . . ?
N4 C16 C17 110.97(15) . . ?
N4 C16 H16A 109.4 . . ?
C17 C16 H16A 109.4 . . ?
N4 C16 H16B 109.4 . . ?
C17 C16 H16B 109.4 . . ?
H16A C16 H16B 108.0 . . ?
C11 C17 C16 112.78(16) . . ?
C11 C17 H17A 109.0 . . ?
C16 C17 H17A 109.0 . . ?
C11 C17 H17B 109.0 . . ?
C16 C17 H17B 109.0 . . ?
H17A C17 H17B 107.8 . . ?
C10 N1 C9 106.35(15) . . ?
C10 N2 C8 108.08(15) . . ?
C10 N2 C1 138.16(17) . . ?
C8 N2 C1 113.74(14) . . ?
C15 N3 N4 103.69(16) . . ?
C13 N4 N3 112.67(16) . . ?
C13 N4 C16 126.26(15) . . ?
N3 N4 C16 120.18(15) . . ?
C12 O1 H1A 109.5 . . ?
loop_
_geom_bond_atom_site_label_1
_geom_bond_atom_site_label_2
_geom_bond_distance
_geom_bond_site_symmetry_2
_geom_bond_publ_flag
C1 N2 1.479(2) . ?
C1 C2 1.523(2) . ?
C1 C11 1.544(2) . ?
C1 H1 1.0000 . ?
C2 C3 1.388(2) . ?
C2 C7 1.402(3) . ?
C3 C4 1.398(3) . ?
C3 H3 0.9500 . ?
C4 C5 1.380(3) . ?
C4 H4 0.9500 . ?
C5 C6 1.395(3) . ?
C5 H5 0.9500 . ?
C6 C7 1.387(3) . ?
C6 H6 0.9500 . ?
C7 C8 1.458(2) . ?
C8 C9 1.368(2) . ?
C8 N2 1.376(2) . ?
C9 N1 1.378(3) . ?
C9 H9 0.9500 . ?
C10 N1 1.324(3) . ?
C10 N2 1.346(2) . ?
C10 H10 0.9500 . ?
C11 C17 1.528(3) . ?
C11 C12 1.534(2) . ?
C11 H11 1.0000 . ?
C12 O1 1.407(2) . ?
C12 C13 1.507(2) . ?
C12 H12 1.0000 . ?
C13 N4 1.350(3) . ?
C13 C14 1.376(3) . ?
C14 C15 1.398(3) . ?
C14 H14 0.9500 . ?
C15 N3 1.327(3) . ?
C15 H15 0.9500 . ?
C16 N4 1.461(2) . ?
C16 C17 1.529(2) . ?
C16 H16A 0.9900 . ?
C16 H16B 0.9900 . ?
C17 H17A 0.9900 . ?
C17 H17B 0.9900 . ?
N3 N4 1.360(2) . ?
O1 H1A 0.8400 . ?
loop_
_geom_torsion_atom_site_label_1
_geom_torsion_atom_site_label_2
_geom_torsion_atom_site_label_3
_geom_torsion_atom_site_label_4
_geom_torsion
_geom_torsion_site_symmetry_1
_geom_torsion_site_symmetry_2
_geom_torsion_site_symmetry_3
_geom_torsion_site_symmetry_4
_geom_torsion_publ_flag
N2 C1 C2 C3 -177.33(18) . . . . ?
C11 C1 C2 C3 63.5(2) . . . . ?
N2 C1 C2 C7 7.95(18) . . . . ?
C11 C1 C2 C7 -111.24(17) . . . . ?
C7 C2 C3 C4 -0.3(3) . . . . ?
C1 C2 C3 C4 -174.60(17) . . . . ?
C2 C3 C4 C5 0.7(3) . . . . ?
C3 C4 C5 C6 -0.8(3) . . . . ?
C4 C5 C6 C7 0.4(3) . . . . ?
C5 C6 C7 C2 0.0(3) . . . . ?
C5 C6 C7 C8 -179.05(19) . . . . ?
C3 C2 C7 C6 0.0(3) . . . . ?
C1 C2 C7 C6 175.18(16) . . . . ?
C3 C2 C7 C8 179.24(16) . . . . ?
C1 C2 C7 C8 -5.6(2) . . . . ?
C6 C7 C8 C9 9.6(4) . . . . ?
C2 C7 C8 C9 -169.6(3) . . . . ?
C6 C7 C8 N2 179.58(19) . . . . ?
C2 C7 C8 N2 0.4(2) . . . . ?
N2 C8 C9 N1 -0.4(2) . . . . ?
C7 C8 C9 N1 169.7(3) . . . . ?
N2 C1 C11 C17 -60.70(19) . . . . ?
C2 C1 C11 C17 50.5(2) . . . . ?
N2 C1 C11 C12 60.0(2) . . . . ?
C2 C1 C11 C12 171.21(15) . . . . ?
C17 C11 C12 O1 175.91(13) . . . . ?
C1 C11 C12 O1 51.85(19) . . . . ?
C17 C11 C12 C13 -60.81(18) . . . . ?
C1 C11 C12 C13 175.13(15) . . . . ?
O1 C12 C13 N4 161.36(15) . . . . ?
C11 C12 C13 N4 37.0(2) . . . . ?
O1 C12 C13 C14 -20.5(3) . . . . ?
C11 C12 C13 C14 -144.8(2) . . . . ?
N4 C13 C14 C15 0.0(2) . . . . ?
C12 C13 C14 C15 -178.33(19) . . . . ?
C13 C14 C15 N3 -0.5(2) . . . . ?
C12 C11 C17 C16 64.01(18) . . . . ?
C1 C11 C17 C16 -171.77(14) . . . . ?
N4 C16 C17 C11 -37.2(2) . . . . ?
N2 C10 N1 C9 0.4(2) . . . . ?
C8 C9 N1 C10 0.0(2) . . . . ?
N1 C10 N2 C8 -0.6(2) . . . . ?
N1 C10 N2 C1 -179.00(19) . . . . ?
C9 C8 N2 C10 0.61(19) . . . . ?
C7 C8 N2 C10 -173.69(15) . . . . ?
C9 C8 N2 C1 179.42(15) . . . . ?
C7 C8 N2 C1 5.1(2) . . . . ?
C2 C1 N2 C10 170.4(2) . . . . ?
C11 C1 N2 C10 -71.3(3) . . . . ?
C2 C1 N2 C8 -7.91(19) . . . . ?
C11 C1 N2 C8 110.40(17) . . . . ?
C14 C15 N3 N4 0.8(2) . . . . ?
C14 C13 N4 N3 0.5(2) . . . . ?
C12 C13 N4 N3 179.13(15) . . . . ?
C14 C13 N4 C16 169.60(16) . . . . ?
C12 C13 N4 C16 -11.8(3) . . . . ?
C15 N3 N4 C13 -0.8(2) . . . . ?
C15 N3 N4 C16 -170.65(16) . . . . ?
C17 C16 N4 C13 10.7(2) . . . . ?
C17 C16 N4 N3 179.04(16) . . . . ?
