#------------------------------------------------------------------------------
#$Date: 2020-10-04 06:14:16 +0300 (Sun, 04 Oct 2020) $
#$Revision: 257077 $
#$URL: file:///home/coder/svn-repositories/cod/cif/4/51/75/4517509.cif $
#------------------------------------------------------------------------------
#
# This file is available in the Crystallography Open Database (COD),
# http://www.crystallography.net/
#
# All data on this site have been placed in the public domain by the
# contributors.
#
data_4517509
loop_
_publ_author_name
'Song, Ning'
'Chen, Shao-Peng'
'Fan, Xiao-Wei'
'Tan, Yu-Hui'
'Wei, Wen-Juan'
'Tang, Yun-Zhi'
_publ_section_title
;
 Regulating Reversible Phase Transition Behaviors by Poly-H/F Substitution
 in Hybrid Perovskite-Like 2[CH2FCH2NH3]&#x00B7;[CdCl4]
;
_journal_issue                   12
_journal_name_full               'ACS Omega'
_journal_page_first              6773
_journal_page_last               6780
_journal_paper_doi               10.1021/acsomega.0c00113
_journal_volume                  5
_journal_year                    2020
_chemical_formula_moiety         '0.5(Cd2 Cl8), 2(C2 H7 F N)'
_chemical_formula_sum            'C4 H14 Cd Cl4 F2 N2'
_chemical_formula_weight         382.37
_space_group_crystal_system      monoclinic
_space_group_IT_number           14
_space_group_name_Hall           '-P 2ybc'
_space_group_name_H-M_alt        'P 1 21/c 1'
_atom_sites_solution_hydrogens   geom
_atom_sites_solution_primary     iterative
_audit_creation_date             2019-11-06
_audit_creation_method
;
Olex2 1.2
(compiled 2018.05.29 svn.r3508 for OlexSys, GUI svn.r5506)
;
_cell_angle_alpha                90
_cell_angle_beta                 104.162(7)
_cell_angle_gamma                90
_cell_formula_units_Z            2
_cell_length_a                   11.2047(8)
_cell_length_b                   7.6515(5)
_cell_length_c                   7.3050(5)
_cell_measurement_reflns_used    3067
_cell_measurement_temperature    269.98(10)
_cell_measurement_theta_max      31.0760
_cell_measurement_theta_min      1.9040
_cell_volume                     607.24(7)
_computing_cell_refinement       'CrysAlisPro 1.171.40.39a (Rigaku OD, 2019)'
_computing_data_collection       'CrysAlisPro 1.171.40.39a (Rigaku OD, 2019)'
_computing_data_reduction        'CrysAlisPro 1.171.40.39a (Rigaku OD, 2019)'
_computing_molecular_graphics    'Olex2 (Dolomanov et al., 2009)'
_computing_publication_material  'Olex2 (Dolomanov et al., 2009)'
_computing_structure_refinement  'ShelXL (Sheldrick, 2015)'
_computing_structure_solution    'olex2.solve (Bourhis et al., 2015)'
_diffrn_ambient_temperature      270
_diffrn_detector_area_resol_mean 10.0000
_diffrn_detector_type            HyPix
_diffrn_measured_fraction_theta_full 0.999
_diffrn_measured_fraction_theta_max 0.999
_diffrn_measurement_details
;
List of Runs (angles in degrees, time in seconds):

  # Type    Start    End  Width  t~exp~   \w     \q     \k     \f   Frames
--------------------------------------------------------------------------
  1  \w     34.00  69.00   0.50    0.35    --    7.32  28.00 -52.00   70
  2  \w      7.00  45.00   0.50    0.35    --    7.32  37.00-180.00   76
  3  \w    -13.00  13.00   0.50    0.35    --    7.32 -99.00  90.00   52
  4  \w    -67.00  21.00   0.50    0.35    --    7.32 -28.00 145.00  176
  5  \w     -4.00  78.00   0.50    0.35    --    7.32  37.00 120.00  164
;
_diffrn_measurement_device       'four-circle diffractometer'
_diffrn_measurement_device_type  'XtaLAB Synergy R, HyPix'
_diffrn_measurement_method       '\w scans'
_diffrn_radiation_type           MoK\a
_diffrn_radiation_wavelength     0.71073
_diffrn_reflns_av_R_equivalents  0.0610
_diffrn_reflns_av_unetI/netI     0.0446
_diffrn_reflns_Laue_measured_fraction_full 0.999
_diffrn_reflns_Laue_measured_fraction_max 0.999
_diffrn_reflns_limit_h_max       13
_diffrn_reflns_limit_h_min       -13
_diffrn_reflns_limit_k_max       8
_diffrn_reflns_limit_k_min       -9
_diffrn_reflns_limit_l_max       8
_diffrn_reflns_limit_l_min       -7
_diffrn_reflns_number            4396
_diffrn_reflns_point_group_measured_fraction_full 0.999
_diffrn_reflns_point_group_measured_fraction_max 0.999
_diffrn_reflns_theta_full        24.979
_diffrn_reflns_theta_max         24.979
_diffrn_reflns_theta_min         1.874
_exptl_absorpt_coefficient_mu    2.664
_exptl_absorpt_correction_T_max  1.00000
_exptl_absorpt_correction_T_min  0.82660
_exptl_absorpt_correction_type   multi-scan
_exptl_absorpt_process_details
;
CrysAlisPro 1.171.40.39a (Rigaku Oxford Diffraction, 2019)
Empirical absorption correction using spherical harmonics,
 implemented in SCALE3 ABSPACK scaling algorithm.
;
_exptl_crystal_colour            'clear light colourless'
_exptl_crystal_colour_lustre     clear
_exptl_crystal_colour_modifier   light
_exptl_crystal_colour_primary    colourless
_exptl_crystal_density_diffrn    2.091
_exptl_crystal_description       plate
_exptl_crystal_F_000             372
_exptl_crystal_size_max          0.03
_exptl_crystal_size_mid          0.02
_exptl_crystal_size_min          0.01
_refine_diff_density_max         4.302
_refine_diff_density_min         -1.140
_refine_diff_density_rms         0.452
_refine_ls_extinction_method     none
_refine_ls_goodness_of_fit_ref   1.142
_refine_ls_hydrogen_treatment    constr
_refine_ls_matrix_type           full
_refine_ls_number_parameters     62
_refine_ls_number_reflns         1070
_refine_ls_number_restraints     0
_refine_ls_restrained_S_all      1.142
_refine_ls_R_factor_all          0.0683
_refine_ls_R_factor_gt           0.0656
_refine_ls_shift/su_max          0.000
_refine_ls_shift/su_mean         0.000
_refine_ls_structure_factor_coef Fsqd
_refine_ls_weighting_details
'w=1/[\s^2^(Fo^2^)+(0.1427P)^2^] where P=(Fo^2^+2Fc^2^)/3'
_refine_ls_weighting_scheme      calc
_refine_ls_wR_factor_gt          0.1833
_refine_ls_wR_factor_ref         0.1861
_reflns_Friedel_coverage         0.000
_reflns_number_gt                982
_reflns_number_total             1070
_reflns_threshold_expression     'I > 2\s(I)'
_cod_data_source_file            ao0c00113_si_003.cif
_cod_data_source_block           270
_cod_depositor_comments
;Adding full bibliography for 4517507--4517511.cif.

 Adding full bibliography for 4517507--4517511.cif.
;
_cod_database_code               4517509
_shelx_shelxl_version_number     2014/7
_shelx_space_group_comment
;
The symmetry employed for this shelxl refinement is uniquely defined
by the following loop, which should always be used as a source of
symmetry information in preference to the above space-group names.
They are only intended as comments.
;
_shelx_estimated_absorpt_t_max   0.974
_shelx_estimated_absorpt_t_min   0.924
_olex2_refinement_description
;
1. Fixed Uiso
 At 1.2 times of:
  All C(H,H) groups, All N(H,H,H) groups
2.a Secondary CH2 refined with riding coordinates:
 C1(H1d,H1e), C2(H2a,H2b)
2.b Idealised Me refined as rotating group:
 N1(H1a,H1b,H1c)
;
_shelx_res_file
;
    270.res created by SHELXL-2014/7

TITL 270_a.res in P2(1)/c
REM Old TITL 270 in P2(1)/c
REM SHELXT solution in P2(1)/c
REM R1 0.104, Rweak 0.002, Alpha 0.024, Orientation as input
REM Formula found by SHELXT: C2 N4 O2 Cd Cl4
CELL 0.71073 11.2047 7.6515 7.305 90 104.162 90
ZERR 2 0.0008 0.0005 0.0005 0 0.007 0
LATT 1
SYMM -X,0.5+Y,0.5-Z
SFAC C H Cd Cl F N
UNIT 8 28 2 8 4 4

L.S. 10
PLAN  20
SIZE 0.03 0.02 0.01
TEMP -3.15
BOND $H
LIST 6
fmap 2
acta
OMIT 0 50
OMIT -2 2 5
REM <olex2.extras>
REM <HklSrc "%.\\270.hkl">
REM </olex2.extras>

WGHT    0.142700
FVAR       0.36038
CD1   3    0.500000    0.500000    0.500000    10.50000    0.02749    0.01961 =
         0.02022   -0.00027    0.00673   -0.00192
CL1   4    0.527564    0.267796    0.777739    11.00000    0.05126    0.03134 =
         0.03050    0.01145    0.01232    0.00062
CL2   4    0.730687    0.546022    0.577222    11.00000    0.02664    0.03413 =
         0.05417   -0.00268    0.00645   -0.00202
F1    5    0.956134    0.839223    0.602117    11.00000    0.05140    0.04425 =
         0.09230   -0.00818    0.02498    0.00072
N1    6    0.707151    0.971656    0.586969    11.00000    0.03246    0.03682 =
         0.05766   -0.00013    0.00883    0.00272
AFIX 137
H1A   2    0.654338    1.014356    0.485457    11.00000   -1.20000
H1B   2    0.675104    0.980922    0.686647    11.00000   -1.20000
H1C   2    0.721914    0.859708    0.567770    11.00000   -1.20000
AFIX   0
C1    1    0.821607    1.069596    0.621314    11.00000    0.04210    0.03592 =
         0.06401    0.00209    0.00951   -0.00103
AFIX  23
H1D   2    0.814532    1.171718    0.696631    11.00000   -1.20000
H1E   2    0.833775    1.110161    0.501385    11.00000   -1.20000
AFIX   0
C2    1    0.929585    0.969201    0.718022    11.00000    0.03923    0.06050 =
         0.04582   -0.00550   -0.00418    0.00056
AFIX  23
H2A   2    0.999746    1.046857    0.755662    11.00000   -1.20000
H2B   2    0.914491    0.916845    0.831188    11.00000   -1.20000
AFIX   0
HKLF 4

REM  270_a.res in P2(1)/c
REM R1 =  0.0656 for     982 Fo > 4sig(Fo)  and  0.0683 for all    1070 data
REM     62 parameters refined using      0 restraints

END

WGHT      0.1427      0.0000

REM Highest difference peak  4.302,  deepest hole -1.140,  1-sigma level  0.452
Q1    1   0.3856  0.5024  0.4369  11.00000  0.05    4.30
Q2    1   0.8392  0.4983  0.6784  11.00000  0.05    3.27
Q3    1   0.8084  0.4975  0.6624  11.00000  0.05    3.27
Q4    1   0.8632  0.9946  0.6708  11.00000  0.05    1.66
Q5    1   0.9102  0.9964  0.6907  11.00000  0.05    1.59
Q6    1   0.7967  0.7427  0.4001  11.00000  0.05    1.22
Q7    1   0.7859  1.2534  0.4071  11.00000  0.05    1.14
Q8    1   0.3625  0.2645  0.6868  11.00000  0.05    1.10
Q9    1   0.4227  0.2613  0.7190  11.00000  0.05    1.07
Q10   1   0.6459  1.0005  0.5589  11.00000  0.05    0.92
Q11   1   0.6443  0.2531  0.8313  11.00000  0.05    0.89
Q12   1   0.8967  0.7473  0.4413  11.00000  0.05    0.86
Q13   1   0.9641  0.7460  0.4593  11.00000  0.05    0.85
Q14   1   0.9310  1.2477  0.4817  11.00000  0.05    0.78
Q15   1   0.5632  0.2487  0.7751  11.00000  0.05    0.68
Q16   1   0.7111  0.6796  0.4277  11.00000  0.05    0.62
Q17   1   0.6003  0.3995  0.4494  11.00000  0.05    0.59
Q18   1   1.0719  0.8351  0.6256  11.00000  0.05    0.55
Q19   1   0.8763  1.3239  0.5542  11.00000  0.05    0.54
Q20   1   0.9325  0.8413  0.8419  11.00000  0.05    0.53
;
_shelx_res_checksum              81438
_shelx_hkl_file
;
  -1   0   0  299.96   11.39
   1   0   0  193.02   11.31
   2   0   0  944.93   42.63
  -2   0   0  923.73   42.46
  -2   0   0  907.84   42.62
   2   0   0  932.61   42.49
   3   0   0  829.18   38.41
  -3   0   0  826.16   38.64
   3   0   0  830.32   38.57
  -3   0   0  819.56   38.39
  -4   0   0 3312.17  147.63
   4   0   0 3216.05  147.80
  -4   0   0 3218.87  147.93
   5   0   0 1789.74   81.06
  -5   0   0 1778.19   81.27
   5   0   0 1859.33   80.75
  -5   0   0 1563.53   81.09
  -6   0   0  276.43   13.82
   6   0   0  303.03   15.35
   6   0   0  318.37   15.08
   7   0   0  195.14   10.47
  -7   0   0  170.90    9.10
   7   0   0  161.83   10.33
   8   0   0  234.13   13.70
  -8   0   0  214.87   11.89
  -8   0   0  224.85   13.21
   8   0   0  230.05   13.11
  -9   0   0  718.23   35.31
  -9   0   0  777.92   37.22
   9   0   0  738.41   37.45
   9   0   0  753.16   36.89
  10   0   0   74.06    6.15
  10   0   0   68.17    6.39
 -10   0   0   57.32    4.66
 -10   0   0   71.79    6.23
  11   0   0    6.92    2.07
  12   0   0   51.80    5.52
  13   0   0  123.62    9.55
  14   0   0   36.41    4.90
  15   0   0    1.10    1.80
   0  -1   0   -0.07    0.34
  -1   1   0   19.12    1.46
   1  -1   0   17.68    1.42
  -1   1   0   15.53    1.49
   1  -1   0   18.66    1.58
   1  -1   0   18.04    1.25
  -1  -1   0   17.53    1.25
  -2   1   0   48.36    3.38
  -2   1   0   61.29    3.57
  -2  -1   0   52.63    3.34
   2  -1   0   52.92    3.31
  -2  -1   0   52.67    2.87
   2  -1   0   55.77    3.46
  -3  -1   0   43.27    2.77
  -3   1   0   40.27    3.16
   3  -1   0   43.35    3.23
   3   1   0   48.97    2.81
  -3   1   0   43.87    3.28
   3  -1   0   50.84    3.47
  -3  -1   0   43.14    3.29
   4  -1   0  574.64   26.81
  -4  -1   0  548.18   26.82
   4   1   0  563.03   25.99
   4  -1   0  536.06   26.67
  -4   1   0  548.37   26.63
  -4  -1   0  545.73   26.39
  -4   1   0  538.66   26.41
  -5  -1   0    3.18    1.18
   5  -1   0    1.44    0.92
   5   1   0    5.42    1.01
   5  -1   0    2.68    1.13
  -5  -1   0    3.32    1.25
  -5   1   0    1.37    0.91
  -5   1   0    1.16    1.34
  -6   1   0   75.78    5.84
   6  -1   0  102.48    6.83
   6   1   0   89.19    5.94
   6  -1   0   93.24    6.60
  -6  -1   0   82.18    6.16
   6  -1   0   94.30    6.72
   7   1   0   62.05    4.60
  -7   1   0   55.46    4.45
  -7  -1   0   65.53    5.09
   7  -1   0   65.37    5.33
   7  -1   0   65.73    5.34
   8  -1   0  124.28    8.79
  -8  -1   0  113.33    6.84
   8  -1   0  131.08    9.01
  -8   1   0  145.53    9.07
  -8   1   0  124.59    8.05
  -8  -1   0  135.62    8.80
   8   1   0  140.69    8.33
   9  -1   0   17.83    3.18
  -9  -1   0   15.37    3.00
   9   1   0   11.96    2.37
   9  -1   0   12.02    2.65
  -9   1   0   18.18    3.31
  -9  -1   0   12.82    1.75
  -9   1   0   16.33    2.51
 -10  -1   0   13.42    1.71
  10   1   0   15.37    2.58
 -10  -1   0   11.65    2.62
 -10   1   0   10.34    2.85
  10  -1   0   15.74    3.09
  10  -1   0   16.80    3.07
 -10   1   0   12.13    2.32
  11   1   0   13.15    2.55
  11  -1   0   10.59    2.59
  12   1   0   18.07    3.10
  12  -1   0    9.75    3.02
  13   1   0    6.70    2.40
  13  -1   0    1.65    2.45
  14  -1   0    0.58    2.04
  15  -1   0    1.79    2.33
   0  -2   0 3245.32  147.01
   1  -2   0  119.43    7.18
   1   2   0  130.93    6.10
   1  -2   0  118.21    6.04
   1  -2   0  132.22    6.89
  -2   2   0  128.87    7.84
   2  -2   0  140.23    7.63
   2  -2   0  120.03    7.75
   2  -2   0  120.60    6.97
  -3   2   0   32.26    3.09
   3  -2   0   33.04    2.92
  -3   2   0   32.75    2.68
   3  -2   0   38.62    2.80
   3   2   0   38.14    2.78
  -3  -2   0   32.34    2.12
  -4  -2   0  523.24   24.47
   4  -2   0  551.34   25.84
  -4   2   0  493.11   25.74
   4  -2   0  515.83   25.34
   4   2   0  526.24   25.30
  -5  -2   0  586.32   27.26
   5   2   0  583.23   28.28
  -5   2   0  501.58   28.90
   5  -2   0  581.52   28.36
   5  -2   0  634.49   28.99
  -5   2   0  565.32   28.51
   6  -2   0   49.89    4.70
   6   2   0   59.25    4.72
   6  -2   0   60.64    4.85
  -6   2   0   54.33    4.68
  -6  -2   0   59.78    4.57
  -7   2   0   40.55    4.10
  -7   2   0   40.31    4.24
  -7  -2   0   44.85    4.06
   7  -2   0   42.18    4.39
   7  -2   0   40.33    4.15
   7   2   0   36.48    3.94
  -8   2   0  235.39   13.78
   8  -2   0  227.17   13.88
   8  -2   0  240.56   13.73
   8  -2   0  239.95   14.07
  -8  -2   0  226.72   13.11
  -8   2   0  192.77   12.83
   8   2   0  226.45   13.50
   9  -2   0  456.52   23.73
  -9   2   0  410.93   22.37
   9  -2   0  424.89   23.52
  -9  -2   0  419.69   22.60
   9   2   0  419.53   22.93
   9  -2   0  424.78   23.10
  -9   2   0  430.80   23.31
 -10   2   0  166.71   10.50
  10  -2   0  157.87   10.39
  10   2   0  135.48    9.54
  10  -2   0  142.86   10.10
 -10  -2   0  158.53    9.77
  10  -2   0  156.08   10.08
  11  -2   0   24.11    4.06
  12  -2   0  133.32   10.45
  13  -2   0  143.08   11.22
  14  -2   0   79.32    8.02
   0  -3   0   -0.16    0.65
   0  -3   0    0.23    0.92
  -1   3   0  215.15   10.36
   1  -3   0  227.88   11.63
  -1  -3   0  223.30   10.38
  -1  -3   0  214.15   11.84
   1  -3   0  216.04   12.16
   2  -3   0   97.71    6.69
   2   3   0   93.29    5.15
   2  -3   0  103.46    6.23
   2  -3   0   98.00    5.23
   3  -3   0    5.14    1.40
   3  -3   0    4.00    0.92
   3   3   0    5.05    0.97
  -3   3   0    4.56    1.44
   4  -3   0   32.75    2.94
  -4  -3   0   36.42    2.32
  -4   3   0   27.02    3.31
   4  -3   0   37.30    3.51
   4   3   0   31.91    2.88
   5  -3   0  328.91   16.98
   5  -3   0  318.95   17.49
  -5   3   0  304.05   17.66
   5   3   0  323.10   16.88
  -5  -3   0  335.48   15.77
   6  -3   0  193.72   11.67
   6   3   0  201.70   11.02
   6  -3   0  203.38   11.16
  -6  -3   0  177.49    9.63
   7   3   0    1.59    1.27
  -7  -3   0    0.58    1.23
   7  -3   0   -0.33    0.99
   7  -3   0   -0.40    1.31
  -7   3   0   -0.38    1.60
   8  -3   0   -0.37    1.33
  -8  -3   0    0.66    1.49
   8   3   0   -0.36    1.22
   8  -3   0   -2.19    1.61
  -8   3   0   -0.40    1.41
   9   3   0   43.84    4.80
  -9   3   0   46.68    5.26
  -9  -3   0   46.06    4.70
   9  -3   0   39.92    4.71
   9  -3   0   43.77    5.23
  10   3   0   67.41    6.30
  10  -3   0   72.19    6.94
 -10  -3   0   62.87    5.94
  10  -3   0   58.78    6.16
  10  -3   0   74.66    7.07
  11  -3   0    3.52    2.16
  11  -3   0    7.58    2.88
  12  -3   0    0.63    1.99
  12  -3   0   -1.26    2.59
  13  -3   0    0.65    2.04
  14  -3   0    8.08    3.33
   0  -4   0 2873.29  133.52
   0  -4   0 2933.21  132.59
   1  -4   0 1340.97   63.38
  -1  -4   0 1300.72   62.97
   1  -4   0 1373.37   62.53
   2  -4   0  503.76   26.14
  -2  -4   0  495.70   25.38
  -2   4   0  522.98   25.37
   2  -4   0  504.21   25.21
   3  -4   0  677.10   32.63
  -3  -4   0  738.35   32.67
  -3   4   0  673.78   32.74
  -4   4   0  859.70   41.10
   4  -4   0  828.93   40.91
   5  -4   0  704.70   35.39
  -5   4   0  822.52   37.03
   5  -4   0  701.42   36.34
   5   4   0  735.78   35.35
  -5  -4   0  746.86   34.19
  -6   4   0  244.41   14.02
  -6  -4   0  226.66   11.46
   6  -4   0  233.43   13.86
   6   4   0  218.47   12.63
   6  -4   0  233.82   12.96
   7  -4   0  153.47   10.92
   7   4   0  164.36   10.05
   7  -4   0  159.62   10.11
  -7   4   0  172.24   11.15
  -8  -4   0  217.51   12.64
   8  -4   0  224.71   13.96
   8   4   0  217.82   12.81
  -8  -4   0  205.17   11.05
  -9  -4   0  168.00   10.48
   9  -4   0  185.75   11.91
  -9  -4   0  149.42    8.18
  10  -4   0   91.23    8.25
 -10  -4   0   84.33    7.06
  11  -4   0   17.68    3.83
  11  -4   0   20.84    4.15
  12  -4   0   48.36    6.43
  12  -4   0   54.98    6.67
  13  -4   0   38.49    5.94
   0  -5   0    0.38    1.48
   0  -5   0    0.27    0.84
   1  -5   0   69.32    5.32
  -1  -5   0   66.84    5.07
  -1  -5   0   60.22    5.54
   1  -5   0   64.91    5.96
  -2   5   0    7.33    0.83
  -2  -5   0    6.24    0.76
   2  -5   0    9.21    2.01
  -2  -5   0    5.27    1.93
  -2  -5   0    6.27    0.72
   2  -5   0    7.64    2.33
  -2   5   0    7.75    0.82
  -3  -5   0  222.09   13.08
   3  -5   0  224.14   12.97
  -3  -5   0  219.04   11.53
  -3   5   0  225.68   13.07
  -3   5   0  223.26   11.51
   3  -5   0  217.47   13.89
  -4   5   0  125.12    8.52
  -4  -5   0  113.57    7.91
   4  -5   0  118.86    8.33
   5  -5   0    2.64    1.64
  -5   5   0    1.20    1.41
  -5  -5   0    0.72    0.58
  -5  -5   0   -0.30    1.35
  -6  -5   0   11.86    1.37
  -6   5   0   13.03    2.75
  -6  -5   0   11.10    2.23
   6  -5   0   14.24    2.86
  -7   5   0  149.45   10.43
   7  -5   0  136.53   10.07
  -7  -5   0  137.17    8.53
   8  -5   0   73.56    7.17
  -8   5   0   86.83    7.52
  -8  -5   0   82.03    5.59
  -9  -5   0    8.69    1.58
   9  -5   0    8.27    2.83
   9  -5   0    8.89    2.88
  -9  -5   0    8.24    2.33
 -10  -5   0    0.81    1.76
  10  -5   0    5.73    2.63
  10  -5   0    1.17    1.99
  11  -5   0    4.49    3.10
  12  -5   0   24.63    5.07
  12  -5   0   28.42    5.08
   0  -6   0  234.94   14.53
   0  -6   0  228.59   13.29
  -1  -6   0   45.33    5.03
   1  -6   0   42.22    5.18
   1  -6   0   52.38    4.63
  -1  -6   0   44.58    4.26
  -2  -6   0  165.85   11.35
   2  -6   0  181.35   12.12
   2  -6   0  174.90   10.85
  -3   6   0   33.96    2.38
  -3  -6   0   32.42    2.19
   3  -6   0   40.69    5.01
  -3  -6   0   38.68    4.43
  -3  -6   0   33.54    2.30
   3  -6   0   30.24    3.78
  -3   6   0   34.68    2.34
  -4  -6   0  121.59    8.36
   4  -6   0  109.42    8.09
  -4  -6   0  107.49    6.57
  -4   6   0   97.24    6.38
   5  -6   0  112.21    9.24
  -5   6   0  106.47    8.22
  -5  -6   0  202.98    9.74
  -5  -6   0  240.49   11.17
  -5   6   0  111.57    9.44
  -6   6   0   98.20    8.15
  -6  -6   0   94.44    5.17
   7  -6   0  116.69    9.21
  -7  -6   0  116.28    7.97
   8  -6   0   68.29    6.98
  -8  -6   0   70.31    5.56
   9  -6   0   81.62    7.89
  -9  -6   0   84.19    6.78
   9  -6   0   71.67    7.70
  10  -6   0   64.12    7.14
  10  -6   0   62.20    7.14
  11  -6   0   85.49    8.84
  11  -6   0  100.90    9.52
 -13  -6   0   23.46    5.56
 -13   6   0   22.25    5.16
   0  -7   0   -0.36    1.37
   0  -7   0   -1.09    2.47
  -1  -7   0   78.55    6.29
   1  -7   0   70.76    7.44
  -1  -7   0   81.68    7.60
   1  -7   0   83.00    6.57
  -2  -7   0    6.61    2.77
   2  -7   0    4.50    2.62
   2  -7   0    4.30    1.78
  -2  -7   0    3.93    1.60
  -3  -7   0    5.84    2.66
   3  -7   0    5.52    2.68
   3  -7   0    5.77    2.12
  -4   7   0    9.32    1.23
  -4  -7   0   11.59    2.94
  -4  -7   0    8.14    1.14
   4  -7   0   11.02    2.63
  -4  -7   0    7.90    1.05
  -4   7   0    8.52    1.19
  -5   7   0   71.05    5.08
   5  -7   0   72.40    6.67
  -5  -7   0   81.59    6.91
  -5  -7   0   71.84    5.08
  -6   7   0   20.41    2.90
  -6  -7   0   25.26    3.24
  -6  -7   0   31.88    4.11
  -6  -7   0   21.09    1.65
   6  -7   0   24.19    3.88
  -7  -7   0   -1.98    1.45
   7  -7   0    0.53    1.67
  -7  -7   0    0.77    1.80
  -7   7   0    0.37    1.32
  -8  -7   0    6.30    2.35
   8  -7   0    6.31    2.55
   8  -7   0    3.50    2.36
  -8   7   0    7.16    2.30
   9  -7   0    8.05    2.88
   9  -7   0    2.02    2.32
  -9  -7   0    6.14    2.44
  -9   7   0    8.24    2.59
 -10  -7   0   17.11    4.07
 -10   7   0   15.65    3.73
  10  -7   0   18.13    4.10
  10  -7   0   27.18    4.86
 -11   7   0    0.64    2.44
 -12   7   0    3.53    2.68
   0  -8   0  166.45   10.93
  -1  -8   0  228.96   13.84
   1  -8   0  224.13   13.91
   2  -8   0  307.83   17.64
  -2  -8   0  296.74   18.68
  -2  -8   0  299.87   17.18
   3  -8   0  180.31   11.89
  -3  -8   0  183.81   11.48
  -3  -8   0  158.79   12.33
  -4  -8   0   84.47    7.13
  -4  -8   0  100.88    8.59
   4  -8   0   92.64    7.82
   5  -8   0   98.98    8.17
  -5  -8   0   90.28    8.34
  -6   8   0  114.85    7.04
  -6   8   0  125.67    7.02
   6  -8   0  105.81    9.12
  -7   8   0   98.66    7.06
   7  -8   0  106.54    9.04
   8  -8   0   50.38    6.25
   8  -8   0   48.17    6.35
  -8   8   0   41.98    4.68
   9  -8   0   22.61    4.52
   0  -9   0   -0.44    1.75
  -1  -9   0    8.56    2.43
   1  -9   0   10.44    2.71
  -2  -9   0   -1.74    2.17
   2  -9   0   -1.86    1.76
  -3  -9   0   11.53    2.63
   3  -9   0   10.30    2.67
   4  -9   0   11.32    3.16
  -4  -9   0   10.30    2.55
  -5  -9   0    0.44    1.49
   5  -9   0   -0.52    1.79
   6  -9   0    1.68    2.18
   7  -9   0    5.35    2.65
   7  -9   0    5.29    2.59
   0 -10   0    7.01    2.52
  -1 -10   0   35.78    4.69
   1 -10   0   37.42    4.77
   2 -10   0   81.48    7.38
  -2 -10   0   74.66    6.77
   3 -10   0   48.53    5.79
   4 -10   0   11.61    3.20
   5 -10   0   12.72    3.40
   5 -10   0   13.54    3.33
  14   0  -1   -1.10    2.15
  13   0  -1   -1.54    2.28
  12   0  -1    0.95    1.68
  11   0  -1   -0.44    1.31
  10   0  -1    0.46    1.43
 -10   0   1   -0.42    1.66
  10   0  -1    0.40    1.31
  -9   0   1    0.39    1.58
   9   0  -1    1.09    1.42
   8   0  -1    0.65    1.11
   8   0  -1   -0.78    1.33
  -8   0   1    0.68    1.58
   7   0  -1   -0.36    1.13
  -7   0   1   -0.29    1.08
   7   0  -1   -0.29    0.91
  -6   0   1   -0.76    0.90
   6   0  -1    0.29    1.03
   6   0  -1    0.25    0.81
  -5   0   1   -0.21    0.73
   5   0  -1    1.20    0.75
  -5   0   1   -0.84    0.98
   4   0  -1    0.14    0.41
  -4   0   1   -0.84    0.78
  -4   0   1   -0.17    0.70
  -3   0   1    0.13    0.58
  -2   0   1    0.47    0.42
   2   0  -1   -0.14    0.61
  -2   0   1   -0.14    0.52
  -1   0   1   -0.20    0.41
   1   0  -1   -0.10    0.44
   0   0  -1   -0.09    0.42
   0   0   1    0.09    0.37
  -1   0  -1    5.25    0.74
  -2   0  -1    0.22    0.63
  -3   0  -1   -1.34    0.75
  -3   0  -1   -0.36    0.67
  -4   0  -1   -1.15    0.90
  -4   0  -1    0.19    0.75
   5   0   1   -0.24    0.91
  -5   0  -1    0.23    0.89
  -5   0  -1    0.29    0.88
  -6   0  -1    0.77    0.89
   6   0   1   -0.28    0.97
  -6   0  -1    2.15    1.20
   7   0   1   -0.29    1.13
  -7   0  -1    0.82    1.23
   7   0   1    0.66    1.24
  -7   0  -1   -0.31    1.22
   8   0   1    0.33    1.43
  -8   0  -1   -0.92    1.63
   8   0   1    2.25    1.46
  -8   0  -1    3.95    1.98
  -9   0  -1   -0.51    2.06
  -9   0  -1   -0.40    1.80
   9   0   1    0.37    1.25
 -10   0  -1   -1.36    1.82
 -10   0  -1    0.30    1.24
  10   0   1    0.41    1.40
 -11   0  -1    0.31    1.39
  11   0   1    1.71    1.46
  12   0   1   -2.73    2.19
 -12   0  -1    0.31    1.45
  13   0   1    0.98    1.85
  14   0   1    0.50    1.58
  15   0   1   -1.04    1.91
  15  -1  -1   10.51    3.19
  14  -1  -1   86.55    8.23
  13  -1  -1  179.79   12.75
  12  -1  -1   63.63    6.52
  11  -1  -1   29.43    4.39
  11   1  -1   37.85    4.34
  10   1  -1  124.75    8.48
  10  -1  -1  113.32    8.75
 -10   1   1  111.02    8.54
  10  -1  -1  113.02    8.68
 -10  -1   1  114.58    8.67
  -9  -1   1  480.35   24.39
   9  -1  -1  456.50   24.57
  -9   1   1  442.55   24.36
   9   1  -1  473.90   23.98
   9  -1  -1  445.02   24.58
   8   1  -1  531.54   27.37
  -8  -1   1  549.40   27.88
  -8   1   1  572.07   28.09
   8  -1  -1  556.37   28.37
   8  -1  -1  531.98   28.05
   7  -1  -1   57.79    4.95
   7   1  -1   45.01    3.94
  -7   1   1   23.50    4.15
  -7  -1   1   50.63    3.99
  -7  -1   1   32.45    4.13
  -6   1   1  194.76   14.14
   6   1  -1  282.27   13.64
   6  -1  -1  280.67   14.31
   6  -1  -1  270.00   14.11
  -6  -1   1  187.78   13.89
  -6  -1   1  274.42   13.51
   5  -1  -1  884.30   41.63
  -5  -1   1  895.02   41.08
   5  -1  -1  855.05   40.79
   5  -1  -1  864.41   41.65
  -4  -1   1 1528.23   69.71
   4  -1  -1 1468.29   69.67
   4  -1  -1 1540.55   70.19
   4  -1  -1 1572.13   70.43
  -3  -1   1  208.33   10.51
   3  -1  -1  208.56   10.92
   3  -1  -1  211.18   10.77
  -3   1   1  205.09   10.86
   2  -1  -1  758.49   35.13
  -2   1   1  776.44   35.36
  -2  -1   1  749.98   35.54
   2  -1  -1  733.52   35.57
   2  -1  -1  779.72   35.35
   1  -1  -1 1087.16   52.36
   1  -1  -1 1124.79   52.61
   1  -1  -1 1111.52   52.07
   0  -1   1 1259.21   45.51
   0  -1  -1  803.15   45.16
  -1  -1  -1 1558.42   71.32
   1  -1   1 1634.35   72.19
  -1   1  -1 1597.76   72.16
   2  -1   1   46.30    3.37
  -2   1  -1   49.27    3.48
  -2  -1  -1   48.63    2.93
  -3  -1  -1 1172.58   53.69
  -3  -1  -1 1140.43   54.23
  -3   1  -1 1190.57   54.31
  -4   1  -1  771.89   36.35
  -4  -1  -1  776.73   35.85
  -4  -1  -1  724.46   36.34
  -5  -1  -1  539.26   25.36
  -5  -1  -1  521.90   24.41
   5   1   1  517.21   23.84
   6   1   1   16.95    1.97
  -6  -1  -1   18.43    2.82
  -6  -1  -1   12.21    2.03
  -7  -1  -1  297.50   15.71
  -7   1  -1  284.09   16.03
  -7  -1  -1  290.57   16.71
   7   1   1  272.01   14.98
   8  -1   1  511.28   26.92
  -8   1  -1  488.29   26.18
   8   1   1  535.01   26.11
  -8   1  -1  556.79   27.38
  -8  -1  -1  538.58   27.94
  -8  -1  -1  514.14   26.59
   8  -1   1  506.47   27.08
   9  -1   1  135.04    9.64
   9   1   1  137.11    8.78
   9  -1   1  135.47    9.79
  -9  -1  -1  144.86    9.49
  -9  -1  -1  144.60   10.48
  -9   1  -1  121.32    8.89
  -9   1  -1  142.47    9.86
  10  -1   1   57.95    5.88
 -10   1  -1   48.61    4.93
  10  -1   1   51.94    5.46
  10   1   1   49.55    4.66
 -10   1  -1   47.19    5.52
 -10  -1  -1   49.42    5.24
 -11   1  -1   24.36    3.51
  11   1   1   23.13    3.27
  11  -1   1   19.24    3.48
 -11  -1  -1   22.43    2.84
  12   1   1  155.82    9.96
 -12   1  -1  141.58    9.74
  12  -1   1  146.35   10.73
 -12  -1  -1  131.09    8.45
  13  -1   1  105.81    9.08
  13   1   1  106.29    8.17
  14   1   1   18.62    3.36
  14  -1   1   19.14    3.90
  15  -1   1    4.69    2.55
  14  -2  -1    5.69    3.00
  12  -2  -1   15.76    3.52
  11  -2  -1    1.58    1.41
  10  -2  -1   10.59    2.45
 -10   2   1   13.22    3.10
 -10  -2   1   16.25    2.96
  10   2  -1   13.94    2.88
  10  -2  -1    9.81    2.69
   9   2  -1   -2.46    1.90
  -9  -2   1   -0.37    1.53
   9  -2  -1   -0.46    1.50
   9  -2  -1   -3.59    2.12
   9  -2  -1    1.26    1.44
  -8  -2   1   10.43    1.98
  -8  -2   1   11.65    2.31
   8  -2  -1   10.82    2.60
   8   2  -1   13.81    2.60
   8  -2  -1   11.86    2.48
  -7  -2   1   -0.23    0.84
   7   2  -1    0.35    0.98
   7  -2  -1    0.71    1.11
   7  -2  -1    0.36    1.26
   6  -2  -1   30.46    3.31
  -6  -2   1   34.05    3.01
   6  -2  -1   31.28    3.63
   6  -2  -1   37.16    3.70
   6  -2  -1   29.82    3.49
   6   2  -1   41.72    3.85
   5   2  -1    3.56    1.09
   5  -2  -1    3.65    1.18
   5  -2  -1    3.34    1.34
  -5  -2   1    3.23    0.95
   5  -2  -1    3.72    1.31
   5  -2  -1    5.34    1.44
   4  -2  -1   57.34    4.32
   4  -2  -1   50.58    4.06
   4  -2  -1   53.76    4.30
  -3  -2   1  173.73    9.77
  -3   2   1  172.74    9.75
   3  -2  -1  170.15    9.72
   3  -2  -1  186.07    9.60
   2   2  -1  244.30   12.04
  -2   2   1  234.75   12.21
  -2   2   1  242.45   12.06
  -2  -2   1  239.72   12.21
   2  -2  -1  250.14   12.46
   2  -2  -1  240.78   12.07
   1  -2  -1   41.33    2.94
  -1   2   1   44.90    2.79
  -1  -2   1   54.28    3.02
   1  -2  -1   41.97    2.74
   1  -2  -1   38.35    2.77
   1   2  -1   40.76    2.82
  -1   2   1   51.10    3.01
   0  -2   1   26.76    2.02
   0   2   1   27.12    2.05
   0   2  -1   32.28    2.30
   0  -2  -1   27.41    1.80
   0  -2  -1   27.36    1.93
  -1  -2  -1   88.22    5.16
  -1   2  -1   85.90    5.71
  -1   2  -1   94.66    5.26
  -2   2  -1  136.74    8.19
  -2   2  -1  143.11    7.62
   2  -2   1  150.26    8.24
  -2  -2  -1  139.81    7.67
  -3  -2  -1   47.48    3.23
   3  -2   1   49.75    3.99
  -3   2  -1   42.36    3.50
  -3  -2  -1   49.48    3.71
  -4   2  -1   20.59    2.52
  -4  -2  -1   19.74    2.43
  -4   2  -1   19.06    2.28
  -4   2  -1   10.60    2.43
   4  -2   1   19.87    2.47
   4   2   1   20.21    1.44
  -4  -2  -1   19.62    2.04
  -5  -2  -1   10.61    2.11
   5   2   1   10.35    1.19
  -5  -2  -1    9.34    1.68
   5  -2   1   12.71    2.20
  -5   2  -1   13.26    2.27
  -5   2  -1   10.49    2.17
  -6  -2  -1   20.91    2.94
  -6   2  -1   14.06    3.02
   6   2   1   18.33    1.81
  -6  -2  -1   17.15    2.39
  -6   2  -1   17.58    2.76
  -6   2  -1   14.08    2.48
  -7   2  -1   48.92    4.94
  -7   2  -1   51.29    4.93
   7   2   1   53.03    3.78
  -7  -2  -1   47.28    5.00
  -7   2  -1   53.76    5.12
  -7  -2  -1   52.70    4.58
  -8  -2  -1    0.47    1.76
   8   2   1    1.04    1.10
  -8   2  -1    0.89    1.58
  -8  -2  -1    1.67    1.41
  -8   2  -1    1.93    1.63
  -8   2  -1    0.42    1.88
   9   2   1    1.92    1.12
  -9   2  -1    1.86    2.02
   9  -2   1    1.39    1.53
  -9  -2  -1    1.46    1.63
  -9   2  -1   -0.40    1.65
  10   2   1   18.87    2.64
 -10   2  -1   16.40    3.12
  10  -2   1   20.77    3.63
 -10  -2  -1   11.76    2.84
  11  -2   1   13.09    3.19
  11  -2   1   14.69    3.42
  11   2   1   11.62    2.29
 -11   2  -1   11.39    2.78
 -12   2  -1    0.44    1.89
  12  -2   1    4.64    2.39
  13  -2   1    1.84    2.32
  14  -2   1    1.87    1.96
  14  -3  -1   51.46    6.71
  13  -3  -1  103.80    9.39
  12  -3  -1   32.95    4.88
  11  -3  -1   42.13    5.52
  10  -3  -1   33.88    4.56
 -10  -3   1   39.95    4.50
  10   3  -1   34.89    4.44
  10  -3  -1   27.84    4.14
   9  -3  -1  336.47   19.36
  -9  -3   1  332.01   18.33
   9  -3  -1  320.38   18.65
   9   3  -1  332.57   18.59
  -8   3   1  150.01    9.89
   8   3  -1  132.92    9.25
   8  -3  -1  145.72   10.16
  -8  -3   1  134.42    8.35
   8  -3  -1  144.69    9.94
   8  -3  -1  133.16    9.31
  -7  -3   1  136.71    8.34
  -7   3   1  149.92    9.67
   7  -3  -1  127.51    9.68
   7   3  -1  155.88    9.52
   7  -3  -1  148.54    9.49
   7  -3  -1  148.09    9.78
   6  -3  -1  100.55    6.95
   6   3  -1   97.64    6.65
  -6  -3   1   89.92    5.54
  -6   3   1   90.10    6.64
   6  -3  -1   92.11    6.54
   6  -3  -1   85.99    6.84
   5  -3  -1  498.03   24.86
  -5   3   1  484.50   24.64
   5  -3  -1  471.79   25.00
   5  -3  -1  505.93   24.49
  -5  -3   1  487.83   23.48
   5   3  -1  484.59   24.30
   5  -3  -1  480.22   24.98
   4   3  -1  664.19   31.33
   4  -3  -1  651.78   31.36
  -4   3   1  690.47   31.95
  -4  -3   1  641.36   32.09
  -4   3   1  677.52   32.18
   4  -3  -1  639.63   32.36
  -4  -3   1  619.84   30.75
   4  -3  -1  655.67   32.26
   4  -3  -1  691.50   31.98
  -3   3   1  248.63   12.82
  -3  -3   1  246.40   12.72
  -3   3   1  239.50   12.67
   3  -3  -1  226.62   12.59
  -3  -3   1  245.04   12.54
  -2  -3   1  887.59   31.47
   2  -3  -1  558.46   31.05
  -2   3   1  582.35   31.12
  -2  -3   1 1029.29   32.47
  -2   3   1  521.57   30.74
  -1   3   1  566.88   27.66
   1   3  -1  603.47   28.36
  -1   3   1  559.01   28.24
   1  -3  -1  480.90   26.85
   1   3  -1  530.27   26.71
   1  -3  -1  487.39   26.62
   0   3  -1 1330.89   57.27
   0  -3   1 1280.85   58.59
   0  -3  -1 1243.27   57.46
   0  -3  -1 1190.50   57.20
  -1  -3  -1  319.13   16.38
   1  -3   1  385.91   17.89
  -1   3  -1  364.71   18.11
  -1   3  -1  344.97   16.52
   2  -3   1  683.28   31.24
  -2  -3  -1  624.59   30.03
  -2   3  -1  637.40   29.96
  -2   3  -1  618.48   31.47
  -3   3  -1  482.10   27.65
   3  -3   1  541.20   27.53
  -3   3  -1  499.86   26.48
  -4   3  -1  873.22   44.19
  -4   3  -1  975.07   43.52
  -4  -3  -1 1000.98   43.74
   4  -3   1  970.85   44.11
   5  -3   1  314.30   16.65
  -5  -3  -1  302.80   15.38
  -5  -3  -1  333.50   16.65
  -5   3  -1  316.15   16.39
  -5   3  -1  293.76   16.82
  -6   3  -1  192.97   13.38
  -6   3  -1  227.14   13.33
  -6  -3  -1  245.54   12.62
  -6   3  -1  241.20   13.83
   6  -3   1  223.41   13.61
  -6  -3  -1  222.86   13.38
  -7  -3  -1  250.99   13.79
   7  -3   1  260.39   15.17
  -7   3  -1  231.27   14.77
  -7   3  -1  259.27   15.17
  -7   3  -1  255.54   14.81
  -7  -3  -1  240.34   14.78
  -8   3  -1  357.33   21.27
  -8  -3  -1  398.61   20.64
  -8  -3  -1  384.14   21.75
  -8   3  -1  398.57   21.68
   8  -3   1  391.71   21.91
  -8   3  -1  401.09   21.85
  -9   3  -1  184.32   12.46
  -9   3  -1  155.36   11.72
  -9  -3  -1  198.77   11.67
   9  -3   1  184.46   12.42
 -10  -3  -1   47.23    5.13
 -10   3  -1   53.18    5.76
  11  -3   1   57.78    6.36
 -11   3  -1   43.25    5.50
 -12   3  -1   97.51    8.39
  12  -3   1  106.96    9.44
  13  -3   1   83.88    8.65
  13  -3   1   78.58    8.37
 -13  -4   1   -0.95    3.37
  13  -4  -1    2.74    2.34
 -13   4   1    3.55    3.03
  12  -4  -1   20.97    4.49
  11  -4  -1   -1.18    2.31
 -10  -4   1   33.45    4.23
  10  -4  -1   32.32    4.31
  10  -4  -1   25.79    4.41
  10   4  -1   30.75    4.16
   9  -4  -1   -2.17    1.78
  -9  -4   1   -0.24    0.95
   9  -4  -1    1.99    2.11
  -9   4   1   -0.47    1.62
   9  -4  -1   -2.08    2.19
   8  -4  -1   76.25    6.72
   8  -4  -1   70.24    6.08
  -8   4   1   72.09    6.60
   8  -4  -1   79.92    7.03
  -8  -4   1   74.55    5.20
   8   4  -1   72.85    6.06
   7  -4  -1    1.21    1.80
   7  -4  -1    3.19    1.88
   7  -4  -1    1.28    1.10
  -7  -4   1    1.74    0.94
   7   4  -1    3.35    1.36
  -7   4   1    3.12    1.57
   6  -4  -1    1.12    1.12
  -6  -4   1    2.05    1.40
  -6   4   1    1.76    1.56
   6   4  -1    0.80    1.07
   6  -4  -1    1.84    1.52
   6  -4  -1    0.41    1.81
   6  -4  -1    1.64    1.35
  -6  -4   1    1.92    0.88
  -5  -4   1   20.98    2.39
   5  -4  -1   24.46    2.73
  -5  -4   1   25.09    3.08
   5   4  -1   22.95    2.49
  -5   4   1   19.58    2.69
  -5   4   1   19.13    2.77
   5  -4  -1   23.13    3.00
   5  -4  -1   25.58    3.34
   5  -4  -1   19.44    3.44
  -4  -4   1  128.00    8.04
  -4   4   1  133.22    8.29
   4   4  -1  150.96    8.14
   4  -4  -1  135.35    8.04
  -4  -4   1  138.09    8.39
  -4   4   1  144.04    8.74
   4  -4  -1  130.59    8.48
   3  -4  -1   89.53    5.30
   3   4  -1   92.02    5.25
   3  -4  -1   88.69    6.00
  -3   4   1   83.63    5.49
  -3  -4   1   86.60    5.52
  -3   4   1   89.15    6.10
  -3  -4   1   86.06    6.00
   2  -4  -1   14.84    1.44
   2   4  -1   18.66    1.53
  -2   4   1   15.56    1.55
   2  -4  -1   15.11    2.06
  -2  -4   1   23.00    2.75
   2  -4  -1   17.11    2.79
  -2  -4   1   15.56    1.55
  -2   4   1   15.07    2.04
  -1   4   1   54.54    3.08
  -1  -4   1   58.13    4.65
   1  -4  -1   64.36    4.49
  -1  -4   1   49.15    2.97
   0  -4   1  134.81    8.44
   0  -4  -1  125.14    6.53
   0  -4  -1  136.25    7.49
   0   4  -1  134.62    6.56
  -1   4  -1  161.22    7.96
  -1  -4  -1  144.58    7.96
   1  -4   1  163.25    9.76
  -1   4  -1  168.56    8.18
  -1  -4  -1  164.36    8.03
  -2   4  -1    0.36    1.54
  -2  -4  -1    4.57    1.09
  -2   4  -1    1.16    0.81
  -2   4  -1    1.78    0.67
   2  -4   1    1.48    1.05
   3  -4   1    7.39    1.87
  -3  -4  -1    8.96    1.55
  -3   4  -1    4.28    1.90
  -3   4  -1    5.95    1.34
   4  -4   1   13.10    2.48
  -4  -4  -1   14.22    2.11
  -4   4  -1   17.00    2.14
  -4   4  -1   10.79    2.65
  -5   4  -1   39.88    3.95
  -5  -4  -1   53.09    4.42
  -5   4  -1   46.33    5.16
   5  -4   1   53.33    5.00
  -6   4  -1    3.27    2.03
   6  -4   1    0.81    1.21
  -6  -4  -1    2.10    1.05
  -6  -4  -1    1.71    1.35
  -6   4  -1    1.62    0.97
  -7   4  -1   21.13    3.79
  -7  -4  -1   16.00    2.61
   7  -4   1   24.49    3.62
   8  -4   1   21.44    3.80
  -8   4  -1   15.89    3.39
  -8   4  -1   19.04    3.64
  -8  -4  -1   18.26    2.87
  -9   4  -1   26.76    4.34
   9  -4   1   24.59    4.14
  -9  -4  -1   21.37    3.14
 -10   4  -1    5.51    2.71
  10  -4   1    3.00    1.97
 -10  -4  -1    4.43    1.91
  10  -4   1   -0.58    2.05
  11  -4   1   20.47    4.42
  11  -4   1   28.22    4.63
  12  -4   1   17.53    4.04
  12  -4   1   23.73    4.63
 -13  -5   1   66.78    8.85
 -13   5   1   65.00    8.33
  12  -5  -1   72.54    8.00
 -12  -5   1   74.46    8.76
 -12   5   1   71.94    8.42
 -11  -5   1   75.05    8.58
  11  -5  -1   91.01    8.55
 -11   5   1   69.44    8.01
  11  -5  -1   63.13    7.49
  10   5  -1  106.18    8.48
  10  -5  -1  113.68    9.83
  10  -5  -1  117.34    8.85
 -10   5   1  107.53    9.81
  10  -5  -1  123.07    9.80
 -10  -5   1  125.72   10.73
   9  -5  -1  160.86   11.96
   9   5  -1  154.09   10.40
  -9  -5   1  157.00    9.17
  -9  -5   1  157.56   12.04
  -9   5   1  163.57   11.92
   9  -5  -1  185.80   12.04
   9  -5  -1  151.14   10.50
  -8   5   1  216.66   14.35
   8   5  -1  224.03   13.11
   8  -5  -1  215.78   13.19
   8  -5  -1  241.85   15.04
  -8   5   1  242.68   14.53
  -8  -5   1  211.84   14.49
  -8  -5   1  221.00   12.01
   8  -5  -1  233.96   14.47
   7  -5  -1  231.51   13.00
  -7   5   1  221.27   13.81
   7  -5  -1  201.18   13.63
   7  -5  -1  225.17   14.32
  -7  -5   1  226.66   14.09
  -7   5   1  238.72   14.08
  -7  -5   1  210.84   11.73
   7   5  -1  236.19   12.88
   6  -5  -1  295.61   16.39
   6  -5  -1  268.28   15.01
  -6  -5   1  282.98   16.07
  -6  -5   1  265.85   14.24
   6   5  -1  277.63   14.91
  -6   5   1  288.40   16.28
   6  -5  -1  287.85   16.76
  -6   5   1  286.35   16.03
   6  -5  -1  290.79   17.06
   5  -5  -1  223.57   13.13
  -5  -5   1  236.06   12.73
  -5   5   1  209.53   12.47
   5   5  -1  243.39   12.45
  -5  -5   1  219.56   12.64
   5  -5  -1  207.16   11.90
  -5   5   1  220.59   13.23
   5  -5  -1  214.38   14.06
   4  -5  -1  410.12   20.74
  -4  -5   1  454.26   22.15
  -4   5   1  447.45   22.45
  -4   5   1  396.08   21.19
   4  -5  -1  399.20   21.88
   4   5  -1  457.51   20.81
  -4  -5   1  427.44   21.40
  -3   5   1  394.62   19.68
  -3  -5   1  392.44   19.91
  -3  -5   1  352.81   18.08
  -3   5   1  339.85   18.05
   3  -5  -1  393.07   20.99
   3  -5  -1  356.53   17.81
   3  -5  -1  380.95   19.47
   3   5  -1  407.56   17.94
   2  -5  -1  267.74   12.90
   2  -5  -1  298.80   14.81
  -2  -5   1  277.39   13.04
  -2  -5   1  281.95   15.56
  -2   5   1  254.27   12.98
   2   5  -1  279.77   12.90
   2  -5  -1  306.73   16.52
   1  -5  -1  336.13   18.48
  -1  -5   1  343.16   19.34
   0  -5   1  352.09   18.19
   0  -5  -1  416.07   19.24
   1  -5   1  269.78   14.46
  -1   5  -1  243.00   11.70
  -1  -5  -1  242.57   11.68
  -1  -5  -1  269.83   13.24
  -2   5  -1  172.61    8.64
   2  -5   1  185.38   10.74
  -3   5  -1  292.02   13.72
  -3   5  -1  238.58   15.58
  -3  -5  -1  237.74   13.24
   3  -5   1  286.63   15.45
  -4   5  -1  105.68    7.67
   4  -5   1   80.31    7.03
  -4   5  -1   93.53    7.95
  -5   5  -1  123.98    9.14
   5  -5   1  127.31    9.16
  -5   5  -1  116.21    9.44
  -6   5  -1  106.54    8.24
   6  -5   1   95.91    7.75
   7  -5   1   81.36    7.30
  -7   5  -1   91.66    8.13
  -7  -5  -1   81.97    6.16
  -8  -5  -1   65.57    5.69
  -8   5  -1   68.72    7.19
  -9  -5  -1   51.10    4.91
   9  -5   1   49.91    6.01
  10  -5   1   34.73    5.14
 -10  -5  -1   38.09    4.43
  11  -5   1   35.27    5.39
  11  -5   1   32.27    5.34
 -13   6   1    1.59    2.39
 -13  -6   1    3.48    3.30
 -12  -6   1   25.11    5.19
 -12   6   1   21.73    4.82
  11  -6  -1    2.13    2.42
 -11   6   1   -0.69    2.83
  11  -6  -1    3.19    2.64
 -11  -6   1   -2.24    3.46
  10  -6  -1   16.94    3.80
  10  -6  -1   14.59    3.76
 -10  -6   1   13.41    3.75
 -10   6   1    9.90    3.26
   9  -6  -1    0.62    2.04
  -9  -6   1   -3.50    2.71
  -9   6   1    0.55    2.19
   9  -6  -1    0.54    2.06
   8  -6  -1   22.82    4.32
  -8   6   1   24.36    3.78
  -8  -6   1   26.35    2.60
   8   6  -1   23.51    3.15
   8  -6  -1   27.60    4.22
  -8  -6   1   17.52    3.58
   7  -6  -1    1.07    1.90
   7   6  -1   -0.27    1.45
  -7  -6   1    1.26    1.01
  -7   6   1   -0.47    1.61
  -7  -6   1    0.41    1.57
  -7   6   1   -0.39    1.74
   7  -6  -1    3.39    2.15
   7  -6  -1   -0.58    1.47
  -6  -6   1   24.85    3.26
   6  -6  -1   22.15    3.53
   6  -6  -1   28.92    4.53
   6   6  -1   23.66    2.72
   6  -6  -1   22.20    2.73
  -6   6   1   26.55    3.78
   6  -6  -1   19.68    3.57
  -6   6   1   20.18    2.97
   5   6  -1   54.10    3.87
  -5  -6   1   64.15    4.78
  -5   6   1   46.62    4.26
  -5   6   1   56.74    5.45
   5  -6  -1   51.96    5.15
  -4   6   1    0.36    1.37
  -4   6   1    0.53    0.98
   4  -6  -1    2.05    1.68
  -4  -6   1    2.48    1.84
  -4  -6   1   -1.75    1.07
  -3  -6   1    0.73    0.61
   3  -6  -1   -0.32    1.22
  -3   6   1    0.63    0.64
  -3  -6   1    2.26    1.99
   2  -6  -1   63.03    5.12
  -2  -6   1   66.46    5.97
   2  -6  -1   62.16    6.38
   1  -6  -1  117.41    7.44
  -1  -6   1  107.79    8.02
   1  -6  -1  104.62    8.63
   0  -6  -1   15.72    3.01
   0  -6   1   44.73    4.49
   1  -6   1    3.86    1.80
  -1  -6  -1    3.62    2.06
  -1  -6  -1    2.72    1.25
  -2  -6  -1   40.45    2.49
  -2  -6  -1   51.05    4.02
   2  -6   1   51.32    4.99
  -2  -6  -1   45.74    5.08
  -2   6  -1   45.91    2.61
  -3   6  -1   71.74    4.33
  -3  -6  -1   58.10    3.99
   3  -6   1   74.51    6.29
  -3  -6  -1   51.42    5.53
  -4  -6  -1    1.16    1.04
  -4   6  -1    2.13    1.23
   4  -6   1    3.55    2.06
  -5   6  -1    8.66    2.76
   5  -6   1    7.57    2.56
  -6   6  -1    0.52    2.10
   6  -6   1    0.98    1.68
   7  -6   1   38.38    4.87
  -8  -6  -1    1.69    1.60
   8  -6   1    5.12    2.41
  -8  -6  -1    1.96    1.55
   9  -6   1   15.20    3.71
  -9  -6  -1   15.06    2.74
  10  -6   1    3.28    2.78
 -12   7   1   27.81    5.13
  11  -7  -1   27.50    4.88
 -11   7   1   21.15    4.18
  10  -7  -1   34.21    5.44
 -10  -7   1   32.41    4.89
 -10   7   1   24.00    4.32
   9  -7  -1   11.20    3.32
  -9  -7   1    8.28    2.67
  -9   7   1    7.71    2.73
   9  -7  -1    9.15    3.14
  -8   7   1   38.23    4.52
   8  -7  -1   43.61    5.77
  -8  -7   1   40.12    4.79
   8  -7  -1   35.77    5.10
   7  -7  -1   83.39    7.94
  -7   7   1   89.00    6.78
  -7  -7   1   79.36    6.59
   7  -7  -1   83.43    7.74
  -6   7   1  101.96    8.16
  -6   7   1   79.73    6.33
   6  -7  -1   79.22    7.75
   6  -7  -1   81.48    7.56
   5  -7  -1   19.21    3.35
   5  -7  -1   22.38    3.72
  -5   7   1   17.03    2.26
  -4   7   1   74.95    4.23
  -4  -7   1   76.92    4.14
   4  -7  -1   82.42    6.51
   3  -7  -1  226.45   13.44
   3  -7  -1  225.26   15.22
   2  -7  -1  149.92   11.54
  -2  -7   1  159.60   10.59
   2  -7  -1  158.96   10.04
  -1  -7   1  168.71   11.98
   1  -7  -1  181.14   11.59
   0  -7  -1  138.33    9.48
   0  -7   1  154.18   10.63
  -1  -7  -1  245.90   15.55
  -1  -7  -1  229.75   13.40
   1  -7   1  251.05   14.75
  -2  -7  -1  288.16   17.48
   2  -7   1  293.52   16.92
  -2  -7  -1  279.55   15.50
  -3  -7  -1  271.76   15.23
   3  -7   1  302.25   17.06
  -3  -7  -1  280.85   13.72
  -3  -7  -1  273.23   17.02
  -4   7  -1   81.19    5.11
  -4  -7  -1   77.54    4.93
  -4   7  -1   80.36    5.21
  -4  -7  -1   79.96    5.22
   4  -7   1   83.38    7.31
  -4  -7  -1   84.99    7.54
   5  -7   1  202.76   12.70
  -5  -7  -1  201.88   12.48
  -5   7  -1  173.12   10.05
  -5  -7  -1  158.99    9.66
   6  -7   1  238.56   15.70
  -6  -7  -1  248.53   13.75
  -6  -7  -1  282.98   15.76
  -6   7  -1  240.46   13.94
   7  -7   1  139.71   10.85
  -7  -7  -1  149.69   10.35
   8  -7   1   54.97    6.58
   9  -7   1   75.82    8.06
   9  -8  -1    1.19    2.12
  -9   8   1    1.66    1.84
   9  -8  -1    2.76    2.36
  -8   8   1    8.40    2.47
   8  -8  -1   19.36    3.82
   8  -8  -1   18.22    4.03
   7  -8  -1   11.03    3.06
  -7   8   1    9.49    1.99
   6  -8  -1   -0.57    1.78
  -6   8   1   -0.17    0.94
   6  -8  -1   -0.49    1.73
   5  -8  -1    3.67    1.86
   5  -8  -1    4.06    1.92
   4  -8  -1   17.81    3.19
   4  -8  -1   13.91    3.16
   3  -8  -1   47.70    5.00
  -3  -8   1   52.55    5.53
   3  -8  -1   47.87    5.24
   2  -8  -1    1.12    1.46
  -2  -8   1    2.74    1.78
   1  -8  -1   18.46    2.95
  -1  -8   1   17.51    3.30
   0  -8   1   15.81    3.33
   0  -8  -1    9.04    2.25
   1  -8   1   47.30    5.32
  -1  -8  -1   51.50    4.70
  -1  -8  -1   42.83    3.93
  -2  -8  -1    4.56    1.77
  -2  -8  -1    1.78    1.05
   2  -8   1    5.36    2.31
  -3  -8  -1   -0.13    0.69
   3  -8   1   -0.50    1.78
  -3  -8  -1    0.32    1.19
  -4  -8  -1    9.25    2.12
  -4  -8  -1    7.16    2.84
   4  -8   1   11.77    3.02
   5  -8   1    6.73    2.73
  -5  -8  -1    7.96    2.90
  -5   8  -1    5.82    1.29
  -5   8  -1    7.43    1.33
  -6   8  -1    0.98    1.09
   6  -8   1    0.56    1.92
   7  -8   1   15.57    3.67
  -7   8  -1   10.50    2.46
   8  -8   1    0.64    2.41
  -8   8  -1    0.41    1.49
   8  -9  -1   43.01    5.77
   7  -9  -1  148.47   11.99
   7  -9  -1  158.69   11.79
   6  -9  -1  105.86    9.31
   6  -9  -1  104.26    8.83
   5  -9  -1   44.67    5.26
   5  -9  -1   43.85    5.66
  -5  -9   1   43.62    5.23
  -4  -9   1   53.12    5.99
   4  -9  -1   54.61    5.92
   4  -9  -1   60.24    5.89
   3  -9  -1  160.99   11.09
   3  -9  -1  152.56   10.61
  -3  -9   1  155.95   11.14
   2  -9  -1  134.81    9.21
   2  -9  -1  116.68    8.89
  -2  -9   1  125.67    9.69
   1  -9  -1   56.52    5.56
  -1  -9   1   61.54    6.27
   1  -9  -1   50.45    5.50
   0  -9  -1   49.53    5.13
   0  -9   1   54.28    6.12
   0  -9  -1   57.74    5.29
  -1  -9  -1   46.23    4.22
   1  -9   1   47.67    5.67
  -1  -9  -1   47.31    4.78
   2  -9   1  119.44    9.71
  -2  -9  -1  128.92    8.66
   3  -9   1   22.91    4.14
  -3  -9  -1   28.69    3.53
   4  -9   1   10.22    3.07
   5  -9   1   14.72    3.75
   6  -9   1   65.00    7.20
   6 -10  -1    0.61    2.02
   6 -10  -1    0.54    2.00
   5 -10  -1    3.44    2.31
  -5 -10   1    6.35    2.51
   5 -10  -1    5.01    2.73
   4 -10  -1   -0.53    1.74
   4 -10  -1    0.47    2.09
  -4 -10   1   -0.53    2.06
   3 -10  -1    7.88    2.39
   3 -10  -1    5.36    2.13
  -3 -10   1    4.72    2.45
  -2 -10   1    6.28    2.64
  -1 -10   1    7.89    2.61
   0 -10   1   10.10    3.01
   1 -10   1    7.13    2.61
   2 -10   1    4.98    2.57
   3 -10   1    4.65    2.70
   4 -10   1    4.22    2.36
 -14   0   2  169.09   15.20
 -13   0   2  147.05   13.49
  12   0  -2   21.11    3.74
 -12   0   2   21.76    4.90
  11   0  -2   55.10    5.76
 -11   0   2   49.36    6.98
 -10   0   2  315.09   18.70
  10   0  -2  328.63   19.00
  10   0  -2  371.75   20.15
   9   0  -2  372.77   20.49
  -9   0   2  381.80   22.63
   9   0  -2  382.70   20.92
  -9   0   2  361.42   20.19
  -8   0   2   13.91    2.32
   8   0  -2   13.73    2.53
  -8   0   2   12.58    2.40
   8   0  -2    7.36    2.03
  -8   0   2   13.08    3.09
  -7   0   2   54.29    5.51
   7   0  -2   56.21    4.68
  -7   0   2   47.70    4.26
  -6   0   2  167.84   10.80
   6   0  -2  149.00    7.92
  -6   0   2  156.56    9.35
  -5   0   2  865.07   41.81
  -5   0   2  913.98   43.26
  -4   0   2   40.93    3.92
  -4   0   2   41.96    3.33
  -3   0   2   39.01    3.58
   3   0  -2   43.39    3.66
  -3   0   2   39.52    3.07
  -2   0   2   80.04    5.51
   2   0  -2   97.03    6.05
  -1   0   2 3751.09  168.41
   1   0  -2 3682.79  168.41
   0   0  -2  423.79   20.44
   0   0   2  400.26   20.19
   1   0   2  167.48    8.53
  -1   0  -2  156.44    9.13
  -2   0  -2   16.32    1.79
   2   0   2   13.18    1.71
  -3   0  -2  401.12   19.49
   3   0   2  387.56   19.30
  -4   0  -2 1156.64   54.48
  -4   0  -2 1166.61   53.92
   4   0   2 1134.29   53.80
  -5   0  -2   67.27    5.15
   5   0   2   66.60    5.13
  -5   0  -2   72.36    5.71
  -6   0  -2   92.33    7.40
   6   0   2  103.03    7.15
   7   0   2   73.38    6.04
  -7   0  -2   80.47    6.25
  -7   0  -2   79.16    6.72
  -8   0  -2  692.57   35.16
  -8   0  -2  773.92   37.27
   8   0   2  664.59   35.02
   9   0   2  247.74   14.96
   9   0   2  244.75   14.59
  -9   0  -2  267.37   16.40
  -9   0  -2  244.23   15.02
  10   0   2   29.72    3.80
 -10   0  -2   24.50    3.93
 -10   0  -2   34.73    5.00
 -11   0  -2   60.89    7.30
  11   0   2   82.01    6.82
  12   0   2  170.08   11.22
 -12   0  -2  147.60   10.56
  13   0   2  123.43    9.46
  14   0   2   16.93    3.29
  15  -1  -2    9.89    3.33
  14  -1  -2    4.95    2.69
 -14  -1   2    5.10    3.49
 -13  -1   2   -3.79    4.01
  13  -1  -2   -0.58    1.81
  12  -1  -2   15.01    3.09
 -12  -1   2    7.02    3.56
  11  -1  -2   17.31    3.38
 -11  -1   2   12.82    3.78
 -10  -1   2   63.27    5.97
  10  -1  -2   75.00    6.86
  10  -1  -2   55.91    5.85
 -10  -1   2   64.47    7.58
  -9  -1   2    7.85    2.22
  -9  -1   2    8.57    2.22
   9  -1  -2   10.96    2.42
   9  -1  -2   10.36    2.58
  -9  -1   2   12.97    3.28
  -8  -1   2   15.07    2.68
  -8  -1   2   20.98    2.83
   8  -1  -2   17.98    2.83
  -8  -1   2   18.82    3.55
   7  -1  -2   60.11    4.34
  -7  -1   2   52.13    5.77
  -7  -1   2   65.78    5.02
  -6  -1   2  119.90    7.63
  -6   1   2  126.45    8.11
  -6  -1   2  134.07    9.33
   6  -1  -2  120.21    7.19
  -5  -1   2   39.03    3.24
  -5  -1   2   28.63    3.55
   5  -1  -2   37.82    3.46
  -5   1   2   35.88    3.42
  -4   1   2   17.21    2.14
   4  -1  -2   15.29    2.01
  -4  -1   2   21.66    2.66
  -3  -1   2   73.83    5.47
   3  -1  -2   83.25    5.64
   3  -1  -2   87.36    5.27
  -3   1   2   74.64    4.75
   2  -1  -2    4.78    1.27
  -2  -1   2    0.99    0.73
   1  -1  -2   47.62    3.49
  -1  -1   2   40.70    3.28
   0  -1   2  236.72   12.22
   0  -1  -2  233.49   12.23
  -1  -1  -2   44.16    3.61
  -1  -1  -2   49.72    2.75
   1   1   2   47.45    2.70
  -2  -1  -2  165.61    8.37
  -2   1  -2  174.90    9.32
   2   1   2  159.80    8.33
   3   1   2    0.53    0.64
  -3  -1  -2    0.42    0.62
  -3   1  -2    0.23    0.91
   4   1   2  194.61   10.29
   4  -1   2  185.65   10.79
  -4  -1  -2  180.00   10.96
  -4  -1  -2  195.51   10.37
  -4   1  -2  195.36   11.05
   5  -1   2  190.77   11.21
  -5  -1  -2  202.87   11.73
  -5   1  -2  189.25   11.29
  -5  -1  -2  191.16   10.70
   5   1   2  183.86   10.57
  -6   1  -2   40.48    4.20
  -6  -1  -2   41.89    3.91
   6   1   2   45.58    3.92
   6  -1   2   41.00    4.27
  -6  -1  -2   36.88    4.13
  -7   1  -2   29.24    3.80
   7   1   2   28.01    3.04
   7  -1   2   25.83    3.51
  -7  -1  -2   30.89    3.55
  -7  -1  -2   28.82    3.86
  -8  -1  -2   21.70    3.61
  -8  -1  -2   21.43    3.10
   8   1   2   17.81    2.67
  -8   1  -2   22.97    3.58
   8  -1   2   18.56    3.23
   9   1   2   60.72    5.03
   9  -1   2   58.28    5.80
  -9   1  -2   49.69    5.51
  -9  -1  -2   58.06    6.36
  -9  -1  -2   52.29    5.39
  10  -1   2    6.09    2.51
  10   1   2    8.50    2.03
 -10   1  -2    3.61    1.88
  10  -1   2    7.44    2.17
 -10  -1  -2    7.97    2.61
 -10  -1  -2    5.74    2.31
 -11   1  -2    5.79    2.39
  11   1   2    4.67    1.84
  11  -1   2    4.00    1.96
  11  -1   2    1.10    1.95
 -11  -1  -2    0.67    2.10
  12  -1   2   -1.58    2.23
  12   1   2   -0.38    1.89
 -12   1  -2    0.46    1.98
  13   1   2    3.21    1.82
  13  -1   2    1.11    2.10
  14  -1   2    1.68    2.05
  14   1   2    2.08    1.72
 -14   2   2   65.77    8.82
  14  -2  -2   64.00    7.35
 -14  -2   2   70.27    9.47
 -13   2   2   83.23    9.58
  13  -2  -2   79.05    7.83
 -13  -2   2   72.09    9.25
 -12   2   2   12.64    3.95
 -12  -2   2   15.72    4.18
  12  -2  -2   13.13    3.07
  11  -2  -2   52.47    5.80
 -11  -2   2   40.68    6.42
 -11   2   2   33.14    5.78
 -10  -2   2  347.41   22.22
  10  -2  -2  357.64   20.72
  10  -2  -2  379.22   20.94
 -10  -2   2  335.37   19.27
 -10   2   2  362.95   22.36
 -10  -2   2  357.39   20.04
  10   2  -2  388.86   21.10
  -9  -2   2  327.32   17.89
   9  -2  -2  350.47   19.26
  -9  -2   2  345.59   20.75
  -9   2   2  326.52   20.31
  -9   2   2  306.55   18.32
  -9  -2   2  329.22   18.46
   9   2  -2  353.13   19.20
   8  -2  -2  246.28   14.02
  -8   2   2  238.86   14.58
  -8  -2   2  251.91   14.31
  -8  -2   2  267.14   16.52
  -8   2   2  257.33   16.27
   8  -2  -2  283.34   15.33
   8   2  -2  265.57   15.09
  -7  -2   2  158.96   11.09
   7   2  -2  166.57   10.03
   7  -2  -2  150.58    9.82
  -7   2   2  152.54   10.89
  -7  -2   2  158.00    9.28
  -7   2   2  149.12    9.57
   7  -2  -2  156.81   10.16
   7  -2  -2  143.41    9.20
   6  -2  -2 1059.31   51.97
   6  -2  -2 1082.35   51.37
  -6   2   2 1082.01   52.89
  -6  -2   2 1083.93   52.91
  -6  -2   2 1068.03   50.95
  -6   2   2 1141.24   51.56
   5   2  -2 1352.40   62.26
  -5  -2   2 1392.73   65.21
  -5   2   2 1388.29   65.15
  -5   2   2 1407.38   64.12
   5  -2  -2 1425.29   64.72
   4  -2  -2 1285.67   57.54
   4   2  -2 1177.22   55.93
  -4  -2   2 1240.25   57.94
  -4   2   2 1222.13   57.87
  -4   2   2 1244.09   56.87
   4  -2  -2 1244.78   57.01
  -3  -2   2  451.22   23.23
   3  -2  -2  463.40   23.41
  -3   2   2  455.32   23.32
   3   2  -2  474.50   23.46
  -3   2   2  475.07   22.45
   3  -2  -2  485.81   23.16
   2  -2  -2  993.79   46.11
  -2   2   2  890.63   46.28
   2   2  -2 1153.70   47.23
   2  -2  -2  946.63   46.42
  -2   2   2  935.65   45.42
  -2   2   2  965.63   46.09
  -2  -2   2 1224.17   46.98
  -1   2   2 7365.27  373.58
   1   2  -2 9875.41  373.98
   1  -2  -2 8205.34  373.28
   1  -2  -2 7058.29  373.51
  -1  -2   2 9999.00  374.00
  -1   2   2 8285.63  372.52
  -1   2   2 8109.59  373.29
   0   2   2 2030.67   89.81
   0   2  -2 2042.51   90.84
   0   2   2 1943.24   90.56
   0  -2  -2 1851.63   90.53
   0  -2   2 2017.81   90.62
  -1   2  -2  671.05   33.30
   1  -2   2  748.65   33.88
   1   2   2  718.76   32.10
  -1  -2  -2  649.93   33.24
  -2   2  -2  359.89   18.69
  -2  -2  -2  375.00   17.22
  -3   2  -2 1113.93   64.95
  -3  -2  -2 1467.49   62.82
  -4  -2  -2 1103.14   49.83
  -4   2  -2 1106.70   49.71
  -4  -2  -2 1098.10   48.50
  -5  -2  -2  371.18   19.60
  -5   2  -2  378.52   19.51
   5   2   2  380.20   17.53
  -5  -2  -2  366.06   18.27
  -6   2  -2   83.48    6.61
  -6   2  -2   80.58    6.50
  -6  -2  -2   83.01    6.64
  -6  -2  -2   70.80    5.40
   6   2   2   82.06    4.92
   7   2   2  158.96    8.65
   7  -2   2  151.90   10.37
  -7  -2  -2  166.12   11.04
  -7   2  -2  161.55   10.75
  -7   2  -2  151.57   10.45
  -7  -2  -2  138.54    9.24
  -8   2  -2  388.87   21.52
   8  -2   2  360.92   20.58
  -8  -2  -2  353.88   19.44
  -8   2  -2  391.97   20.92
  -8  -2  -2  378.14   21.55
   8   2   2  352.15   18.36
  -9   2  -2  146.30   10.86
  -9   2  -2  138.18   10.07
   9  -2   2  151.35   10.60
  -9  -2  -2  133.42   10.73
  -9  -2  -2  140.98    9.61
   9   2   2  143.07    8.50
  -9   2  -2  139.70   10.45
  10   2   2    5.45    1.49
 -10   2  -2    5.34    2.33
 -10   2  -2    2.44    2.28
  10  -2   2    6.54    2.59
 -10  -2  -2    5.56    2.20
 -10  -2  -2    7.55    2.33
 -11   2  -2   16.05    3.52
  11  -2   2   18.83    3.65
 -11  -2  -2   16.75    4.00
  11  -2   2   22.28    4.20
 -11   2  -2   16.76    3.90
  11   2   2   20.82    2.79
 -12   2  -2   59.05    6.27
  12   2   2   61.88    5.24
  12  -2   2   54.32    6.79
  12  -2   2   73.25    7.25
  13   2   2   46.81    4.70
  13  -2   2   55.73    6.50
  14  -2   2    3.81    2.70
 -14  -3   2    1.03    4.00
 -14   3   2   -0.97    4.01
  14  -3  -2    1.36    2.74
  13  -3  -2   30.55    5.15
 -13   3   2   24.18    5.67
 -13  -3   2   18.88    4.93
  12  -3  -2   21.03    4.00
 -12  -3   2   13.87    4.17
 -12   3   2   15.64    4.67
 -11   3   2    1.51    2.25
 -11  -3   2    0.79    2.25
 -10  -3   2    1.33    1.26
  10   3  -2    0.46    1.75
  10  -3  -2    2.86    2.12
 -10  -3   2    2.11    1.79
 -10  -3   2    1.43    2.03
 -10   3   2    0.68    2.04
 -10   3   2    3.72    2.11
  -9  -3   2   48.87    4.65
   9  -3  -2   53.17    5.69
  -9  -3   2   51.30    6.25
  -9   3   2   59.38    6.55
  -9   3   2   56.95    5.56
   9  -3  -2   50.43    5.56
   9   3  -2   68.70    6.19
   8  -3  -2  175.19   10.70
  -8   3   2  152.23   10.39
   8  -3  -2  162.74   10.67
   8  -3  -2  143.66   10.48
  -8  -3   2  189.24   12.43
  -8   3   2  157.09   11.63
  -8  -3   2  161.34    9.70
   8   3  -2  162.70   10.58
   8  -3  -2  165.24   11.13
  -7   3   2    9.00    2.18
   7  -3  -2   10.17    2.38
   7  -3  -2    7.25    2.23
  -7   3   2   11.79    2.64
  -7  -3   2   12.27    2.74
   7  -3  -2    8.81    1.91
  -7  -3   2    6.58    1.63
   7   3  -2   10.55    2.13
   7  -3  -2    9.71    2.19
   6  -3  -2   19.37    3.01
  -6   3   2   22.30    2.82
  -6  -3   2   17.22    2.96
   6  -3  -2   14.41    2.73
  -6  -3   2   22.35    2.53
   6  -3  -2   18.80    2.80
  -6   3   2   25.34    3.32
  -5   3   2   87.62    5.82
  -5  -3   2   80.66    6.23
  -5   3   2   69.43    5.88
   5  -3  -2   73.54    5.53
   5  -3  -2   66.63    5.74
   5  -3  -2   78.27    6.03
   4  -3  -2  212.88   11.77
   4  -3  -2  204.69   11.13
  -4  -3   2  197.12   11.68
  -4   3   2  189.50   11.61
  -4   3   2  204.62   11.09
   4   3  -2  197.62   10.56
   3  -3  -2    1.88    1.05
   3   3  -2    1.55    1.01
  -3   3   2    1.50    0.79
  -3  -3   2    1.38    1.07
  -3   3   2    3.19    1.28
   3  -3  -2    2.52    0.92
   2  -3  -2   98.94    6.23
   2   3  -2  105.38    6.57
  -2  -3   2  108.30    6.40
   2  -3  -2  107.35    5.82
   2  -3  -2   89.93    6.14
   2   3  -2   95.41    6.21
  -2   3   2  106.14    5.80
  -2   3   2   97.65    6.29
   1  -3  -2   44.13    3.22
  -1  -3   2   44.54    3.38
  -1   3   2   47.09    3.48
   1   3  -2   41.72    3.71
   1   3  -2   43.38    3.38
   1  -3  -2   39.52    3.29
   1  -3  -2   45.45    2.78
  -1   3   2   44.98    2.80
   0   3   2   13.67    1.77
   0   3  -2   15.73    1.97
   0  -3  -2   15.00    1.06
   0  -3  -2   14.66    1.44
   0  -3  -2   13.65    1.81
   0  -3   2   16.34    1.85
  -1  -3  -2    1.54    0.88
  -1   3  -2    2.80    1.02
   1  -3   2    1.94    1.15
  -2  -3  -2   98.01    6.44
  -2  -3  -2  104.44    5.30
   2  -3   2  106.22    7.18
  -2   3  -2  104.38    6.63
  -3  -3  -2  438.11   21.20
   3  -3   2  436.69   22.03
  -3   3  -2  407.30   20.97
  -3  -3  -2  434.65   19.88
  -4  -3  -2    7.78    1.30
  -4   3  -2    4.25    2.20
   4  -3   2    4.12    1.72
  -4  -3  -2    7.44    1.70
  -4   3  -2    8.63    1.60
  -5  -3  -2    1.95    1.03
  -5   3  -2    1.25    1.11
  -5   3  -2    3.50    1.61
  -5  -3  -2    2.32    1.34
  -5   3  -2    2.33    1.69
  -6   3  -2   79.07    6.89
  -6  -3  -2   75.80    5.39
  -6   3  -2   79.94    6.76
  -6   3  -2   72.37    6.21
  -6  -3  -2   78.28    6.48
  -7   3  -2  137.94   10.65
  -7  -3  -2  157.05   11.14
  -7  -3  -2  162.53    9.53
  -7   3  -2  174.62   11.24
  -7   3  -2  144.38   10.70
  -8   3  -2   24.63    4.20
  -8  -3  -2   34.13    3.74
  -8  -3  -2   35.12    4.65
  -8   3  -2   34.23    4.55
  -8   3  -2   32.72    4.51
  -9   3  -2    1.06    1.73
  -9  -3  -2    0.34    1.42
  -9  -3  -2    1.12    1.41
  -9   3  -2    2.12    1.81
 -10   3  -2    5.92    2.40
 -10   3  -2    2.90    2.27
 -10  -3  -2    4.92    2.67
 -10  -3  -2    4.60    1.93
  10  -3   2    3.96    2.22
 -11   3  -2   21.14    3.98
  11  -3   2   14.46    3.46
  11  -3   2   18.07    3.95
  12  -3   2   15.21    3.91
  12  -3   2   16.60    3.97
 -12   3  -2   11.98    3.47
  13  -3   2   -0.67    2.18
 -14  -4   2   51.46    7.98
 -14   4   2   64.13    8.55
 -13  -4   2   71.76    8.98
 -13   4   2   68.00    8.64
  13  -4  -2   78.42    8.28
 -12  -4   2   45.97    6.93
 -12   4   2   52.83    7.10
 -11  -4   2   60.20    7.51
 -11   4   2   56.48    7.20
 -11  -4   2   54.72    4.99
 -10  -4   2  147.42   12.18
 -10   4   2  152.13   12.30
  10  -4  -2  152.70   11.24
  10  -4  -2  154.08   11.58
 -10  -4   2  152.35    9.71
  10   4  -2  165.22   10.93
  10  -4  -2  157.62   10.95
   9  -4  -2  127.71    8.97
  -9  -4   2  111.90    9.73
  -9   4   2  113.39    9.64
  -9   4   2  120.31    8.87
   9  -4  -2   92.50    8.62
   9  -4  -2  114.27    8.87
  -9  -4   2  118.76    7.71
   9   4  -2  111.04    8.44
  -8  -4   2  112.33    7.42
   8   4  -2  127.87    8.69
   8  -4  -2  124.44    8.79
  -8  -4   2   94.17    8.81
  -8   4   2  103.85    8.92
   8  -4  -2  111.18    8.56
   8  -4  -2  135.33    9.54
  -8   4   2  112.30    8.41
   8  -4  -2  115.80    8.72
   7  -4  -2   27.11    3.52
   7  -4  -2   18.27    3.15
   7  -4  -2   19.81    3.54
  -7  -4   2   22.09    2.57
  -7   4   2   15.74    2.76
  -7  -4   2   20.03    3.35
  -7   4   2   20.00    3.29
   7   4  -2   17.77    2.81
   7  -4  -2   16.12    2.68
  -6   4   2  238.55   13.12
  -6  -4   2  200.55   13.20
  -6   4   2  214.62   13.34
   6   4  -2  232.33   12.68
   6  -4  -2  217.91   12.66
   6  -4  -2  216.40   13.62
   6  -4  -2  216.94   13.56
   6  -4  -2  232.77   13.17
  -5  -4   2  164.96   10.11
   5  -4  -2  156.06    9.67
  -5   4   2  147.44    9.83
  -5   4   2  159.65    9.72
   5  -4  -2  159.78   10.35
   5  -4  -2  163.96   10.62
   4  -4  -2  103.65    6.90
   4  -4  -2  110.54    7.54
  -4   4   2  101.08    6.98
  -4  -4   2  111.97    7.19
  -4   4   2  107.61    6.97
   3  -4  -2   18.27    2.57
   3  -4  -2   18.68    2.28
  -3   4   2   13.83    2.04
  -3   4   2   15.12    2.10
  -2  -4   2  121.52    5.84
  -2   4   2   55.01    4.74
   2  -4  -2   69.23    5.35
   2   4  -2  175.31    6.81
   2  -4  -2   63.85    5.01
   2  -4  -2   59.71    4.68
   2   4  -2  208.39    8.42
  -2   4   2   70.87    4.87
  -1  -4   2  557.98   27.92
  -1   4   2  546.68   28.00
   1   4  -2  630.29   28.34
   1  -4  -2  564.29   28.14
   1   4  -2  648.35   29.84
   1  -4  -2  603.07   28.40
   1  -4  -2  621.08   27.77
   0  -4  -2  132.35    6.67
   0   4  -2  119.52    7.17
   0  -4  -2  116.80    7.13
   0  -4  -2  135.27    7.03
   0  -4   2  130.38    8.51
  -1   4  -2   75.86    5.18
  -1  -4  -2   75.24    5.15
  -1  -4  -2   86.32    4.57
  -1  -4  -2   83.43    4.49
   1  -4   2   88.43    6.47
  -2   4  -2   14.99    2.12
  -2  -4  -2   15.78    2.06
  -2   4  -2   13.28    2.71
   2  -4   2   21.98    2.87
  -3   4  -2  271.81   14.07
  -3   4  -2  252.46   15.37
  -3  -4  -2  258.06   13.78
  -3   4  -2  249.97   13.52
   3  -4   2  256.30   14.92
  -3  -4  -2  245.40   13.71
  -4   4  -2  259.26   17.18
   4  -4   2  278.89   18.28
  -4   4  -2  230.10   18.27
  -4  -4  -2  485.82   17.26
  -4   4  -2  287.38   18.47
  -4  -4  -2  487.15   19.02
  -5  -4  -2  162.64    8.70
  -5   4  -2  138.32   10.60
   5  -4   2  142.81   10.25
  -5  -4  -2  160.56    9.97
  -5   4  -2  147.62    9.59
  -5   4  -2  152.09   10.55
   6  -4   2   60.27    5.94
  -6   4  -2   59.19    6.28
  -6   4  -2   64.05    5.77
  -6  -4  -2   61.14    4.64
  -6  -4  -2   60.01    5.82
  -6   4  -2   64.76    6.21
  -7   4  -2  138.29   10.90
  -7  -4  -2  143.91   10.42
  -7   4  -2  171.35   10.80
  -7   4  -2  149.28   10.91
  -7  -4  -2  152.89    9.24
   7  -4   2  145.68   10.63
  -8   4  -2  186.33   13.15
  -8  -4  -2  181.22   11.24
  -8   4  -2  185.77   12.58
  -8  -4  -2  218.15   13.40
   8  -4   2  198.14   13.21
  -9   4  -2  113.96    9.97
  -9  -4  -2  124.66    8.64
  -9   4  -2  146.44   10.24
  -9  -4  -2  130.15   10.18
 -10   4  -2   57.66    6.71
 -10  -4  -2   58.09    5.45
 -11   4  -2   58.85    6.94
  12  -4   2   69.41    7.74
 -12   4  -2   65.97    7.45
 -13   5   2   -0.82    3.36
 -13  -5   2   -0.88    3.62
 -12  -5   2   -0.81    3.44
 -12   5   2   -1.51    2.86
  12  -5  -2    2.05    2.33
  11  -5  -2   44.74    6.20
 -11  -5   2   35.64    5.96
 -11   5   2   45.56    6.30
  11  -5  -2   40.22    5.65
  10   5  -2   22.24    3.76
  10  -5  -2   20.72    4.00
 -10  -5   2   28.55    3.31
  10  -5  -2   26.81    4.48
  10  -5  -2   26.14    3.98
 -10  -5   2   13.29    3.76
 -10   5   2   21.78    4.33
   9  -5  -2    1.01    2.19
  -9  -5   2    2.18    1.39
   9  -5  -2    5.75    2.31
   9  -5  -2    0.81    1.80
  -9  -5   2    2.37    2.02
   9   5  -2    2.32    1.75
  -9   5   2    0.55    1.97
  -8  -5   2    8.71    1.87
   8  -5  -2   11.73    3.20
   8  -5  -2   16.35    3.33
   8  -5  -2    8.12    2.67
   8  -5  -2    6.67    1.97
   8   5  -2   11.68    2.39
  -8   5   2   10.35    2.72
  -8  -5   2    9.41    2.61
  -8   5   2   11.63    2.83
   7   5  -2   44.72    4.27
   7  -5  -2   36.30    4.94
  -7  -5   2   38.85    4.61
  -7   5   2   38.69    4.44
  -7  -5   2   42.87    3.72
   7  -5  -2   34.41    4.28
   7  -5  -2   29.66    4.38
  -7   5   2   36.87    4.35
   7  -5  -2   32.50    3.97
   6  -5  -2  171.07   12.09
   6  -5  -2  184.10   10.91
  -6   5   2  187.74   11.41
  -6  -5   2  177.86   11.45
  -6   5   2  169.84   11.35
   6  -5  -2  191.17   12.15
   6   5  -2  199.89   10.92
   6  -5  -2  171.72   11.20
   5  -5  -2    0.47    2.10
   5  -5  -2    2.39    1.69
   5  -5  -2    2.89    1.17
  -5   5   2    1.20    1.27
  -5  -5   2    1.54    1.37
   5   5  -2    1.15    0.95
   5  -5  -2    2.24    1.46
  -5   5   2    3.18    1.62
   4  -5  -2   19.20    2.56
  -4   5   2   16.05    2.25
   4  -5  -2   11.33    2.39
  -4   5   2   17.38    2.53
  -4  -5   2   17.97    2.28
  -3  -5   2    3.55    1.26
   3  -5  -2    6.49    1.64
  -3   5   2    6.11    1.51
   3  -5  -2    4.42    1.41
  -3   5   2    3.84    1.27
  -2  -5   2  164.86    9.00
  -2   5   2  166.02    9.09
   2  -5  -2  170.12    9.41
   2  -5  -2  183.96   10.15
   2   5  -2  167.86   10.60
   1   5  -2    0.77    1.50
   1  -5  -2    3.53    1.15
   1   5  -2    3.42    0.97
   1  -5  -2    1.99    0.86
   1  -5  -2    4.03    1.11
   0  -5  -2   38.73    3.17
   0   5  -2   52.08    5.11
   0  -5   2   51.63    4.85
   0  -5  -2   43.51    3.22
   0  -5  -2   49.98    3.47
   0   5  -2   45.01    3.28
  -1  -5  -2  127.74    7.96
  -1  -5  -2  154.69    7.62
   1  -5   2  147.09    9.82
  -1  -5  -2  144.28    7.77
  -1   5  -2  149.73    8.23
  -2  -5  -2    4.84    1.19
   2  -5   2    3.17    1.55
  -2  -5  -2    2.10    1.17
  -2   5  -2    4.43    1.35
  -2   5  -2    3.22    1.04
  -2  -5  -2    3.57    0.90
  -3  -5  -2   24.42    2.62
  -3   5  -2   17.12    3.36
  -3   5  -2   19.90    2.58
  -3  -5  -2   20.68    2.40
   3  -5   2   18.64    3.19
  -3   5  -2   17.16    2.20
  -4   5  -2   75.19    5.84
  -4  -5  -2   71.52    5.57
  -4   5  -2   74.85    7.19
  -4   5  -2   76.28    5.56
   4  -5   2   73.47    6.63
  -4  -5  -2   84.71    5.96
  -5   5  -2  167.44   12.08
  -5  -5  -2  160.45    9.31
  -5   5  -2  180.08   10.66
   5  -5   2  166.51   11.58
  -5  -5  -2  180.11   10.90
  -6   5  -2   12.06    3.38
  -6  -5  -2   11.21    1.84
   6  -5   2    9.95    2.74
  -6  -5  -2    8.22    2.21
  -6   5  -2    9.34    2.25
  -7   5  -2   10.25    3.32
  -7  -5  -2   10.11    2.58
  -7  -5  -2   11.94    2.10
  -7   5  -2   12.44    2.57
   7  -5   2   10.77    2.88
  -8  -5  -2   10.33    2.15
  -8   5  -2   11.67    2.52
   8  -5   2   11.80    3.00
  -8  -5  -2   13.77    2.91
  -8   5  -2    5.02    2.70
  -9   5  -2   41.42    6.02
  -9  -5  -2   48.61    4.71
   9  -5   2   46.87    6.00
  10  -5   2   13.69    3.47
 -10   5  -2    7.98    3.37
 -11   5  -2    1.35    2.86
  11  -5   2    2.03    2.72
 -13  -6   2   15.96    4.25
 -13   6   2   10.80    3.62
 -12   6   2   41.41    6.15
 -12  -6   2   43.41    6.51
 -11   6   2   66.77    7.35
  11  -6  -2   66.72    7.11
 -11  -6   2   57.98    7.30
  11  -6  -2   54.62    6.90
 -10   6   2   45.51    5.86
  10   6  -2   48.30    5.08
  10  -6  -2   48.63    5.25
  10  -6  -2   38.19    5.68
 -10  -6   2   46.36    6.09
   9  -6  -2  106.45    7.94
  -9  -6   2   92.97    8.64
  -9   6   2   95.10    8.39
   9  -6  -2  109.15    8.78
   9  -6  -2   88.59    8.72
   9   6  -2  108.48    7.74
  -9  -6   2  100.62    6.78
   8   6  -2  114.58    7.92
  -8   6   2  129.90    9.34
   8  -6  -2  134.75   10.14
  -8  -6   2   93.82    8.56
  -8   6   2  110.30    8.81
  -8  -6   2  108.72    7.32
   8  -6  -2  121.79    8.20
   8  -6  -2  120.26    9.14
  -7  -6   2  185.77   12.64
   7  -6  -2  196.59   13.57
   7  -6  -2  191.19   12.82
  -7   6   2  227.75   13.46
  -7   6   2  201.41   12.79
   7  -6  -2  224.76   14.58
   7   6  -2  208.70   11.90
   7  -6  -2  219.76   12.17
   6  -6  -2  180.51   11.07
  -6  -6   2  183.36   11.64
  -6   6   2  183.62   11.60
   6  -6  -2  203.38   13.67
   6  -6  -2  189.91   12.15
  -6   6   2  204.51   12.42
   6  -6  -2  185.64   12.70
   6   6  -2  233.89   11.47
   5  -6  -2  376.64   21.66
  -5  -6   2  383.57   19.27
  -5   6   2  311.21   18.77
   5  -6  -2  370.70   20.67
   5  -6  -2  371.72   20.01
  -5   6   2  374.85   20.03
   5  -6  -2  333.50   18.59
  -4  -6   2  265.79   13.30
   4  -6  -2  235.35   13.85
  -4   6   2  204.38   12.88
   4  -6  -2  237.21   12.93
  -4   6   2  240.00   14.02
   4  -6  -2  231.90   14.45
  -3  -6   2  463.56   22.55
  -3   6   2  467.11   22.67
   3  -6  -2  450.22   24.24
   3  -6  -2  458.50   23.65
   3  -6  -2  442.11   22.32
   3   6  -2  528.41   22.50
   3  -6  -2  453.06   25.86
   2  -6  -2  408.44   21.44
   2  -6  -2  444.78   22.21
   2  -6  -2  450.99   24.13
   1  -6  -2  779.94   36.56
  -1  -6   2  741.43   38.54
   1  -6  -2  770.36   36.94
   0  -6  -2  375.95   18.46
   0   6  -2  387.83   18.42
   0   6  -2  400.80   18.70
   0  -6  -2  387.16   18.72
   0  -6  -2  414.62   19.60
   0  -6  -2  411.24   19.73
   0   6  -2  448.00   22.64
   0  -6   2  407.73   21.87
  -1   6  -2  377.97   18.74
  -1  -6  -2  364.21   18.65
  -1  -6  -2  402.82   19.21
  -1  -6  -2  415.65   18.89
   1  -6   2  408.50   21.81
  -1  -6  -2  390.66   18.60
  -1   6  -2  384.42   18.46
  -1   6  -2  384.35   22.07
  -2   6  -2  356.43   18.02
  -2  -6  -2  398.97   18.16
   2  -6   2  349.98   20.27
  -2  -6  -2  368.79   17.94
  -2   6  -2  379.77   17.86
  -2  -6  -2  315.49   17.74
   3  -6   2  184.15   12.58
  -3   6  -2  223.58   11.34
  -3  -6  -2  182.09   10.79
  -3  -6  -2  203.75   10.93
  -3   6  -2  211.91   10.83
  -3  -6  -2  183.04   10.44
  -3   6  -2  178.45   13.30
  -4  -6  -2  271.44   15.63
  -4  -6  -2  309.51   16.03
  -4   6  -2  305.05   15.74
   4  -6   2  310.52   17.97
  -4   6  -2  310.79   16.16
  -4   6  -2  297.00   18.63
  -5   6  -2  136.15    9.06
  -5  -6  -2  143.20    9.22
   5  -6   2  126.28   10.10
  -5   6  -2  121.61    8.45
  -5  -6  -2  163.42    9.41
  -5  -6  -2  142.08    8.10
  -5   6  -2  131.82   10.96
  -6   6  -2  170.40   11.18
  -6  -6  -2  182.72   11.05
  -6   6  -2  160.58   10.59
  -6  -6  -2  198.31   10.19
   6  -6   2  171.06   12.36
  -6   6  -2  149.00   12.53
  -7   6  -2   74.68    8.11
  -7  -6  -2   83.31    5.78
   7  -6   2   76.35    7.42
   8  -6   2   78.70    7.65
  -8   6  -2   66.89    7.75
  -9   6  -2   34.33    5.62
   9  -6   2   37.53    5.61
  10  -6   2   50.02    6.69
 -12   7   2    7.31    3.22
  11  -7  -2    0.63    2.22
 -11   7   2   -0.61    2.30
  10  -7  -2    2.04    2.40
 -10   7   2    1.65    2.21
 -10  -7   2   -1.17    2.22
  10  -7  -2    1.18    2.31
   9  -7  -2   31.10    4.98
   9   7  -2   27.65    3.34
  -9   7   2   22.33    3.90
  -9  -7   2   16.42    3.46
   9  -7  -2   22.87    4.09
   8  -7  -2   34.29    5.22
   8   7  -2   33.08    3.60
  -8   7   2   34.69    4.33
  -8  -7   2   32.44    4.25
   8  -7  -2   38.55    4.89
   7  -7  -2    1.69    1.92
   7   7  -2    1.48    1.04
   7  -7  -2    1.06    1.12
  -7   7   2    0.69    1.43
  -7  -7   2    2.49    1.58
   7  -7  -2    0.46    1.62
  -7   7   2    1.85    1.95
   6  -7  -2    2.19    1.22
   6  -7  -2    5.15    1.96
  -6   7   2    3.74    1.40
   6  -7  -2    6.76    2.30
   6   7  -2    4.08    1.29
  -6  -7   2    3.26    1.55
  -6   7   2    6.46    2.20
   5  -7  -2   12.83    2.67
   5  -7  -2   16.89    3.23
  -5  -7   2   13.22    2.00
  -5   7   2   11.83    2.02
   5   7  -2   16.78    1.88
   5  -7  -2   11.44    1.71
  -5   7   2   13.78    2.71
  -4   7   2   62.52    4.02
  -4  -7   2   56.58    3.81
   4  -7  -2   65.34    5.99
   4   7  -2   58.64    3.61
   4  -7  -2   56.52    3.63
   4  -7  -2   65.44    5.47
   3  -7  -2    4.16    1.72
   3  -7  -2    2.69    1.42
   2  -7  -2   22.44    3.05
   2  -7  -2   18.92    2.63
  -2  -7   2   18.89    3.36
   1  -7  -2   31.85    4.90
  -1  -7   2   30.37    4.29
   1  -7  -2   31.94    3.22
   1  -7  -2   38.21    3.61
   0  -7  -2   35.12    4.92
   0  -7  -2   30.80    3.08
   0  -7  -2   29.93    3.03
   0  -7   2   37.78    4.57
  -1  -7  -2    0.65    0.81
  -1  -7  -2    1.47    1.02
  -2  -7  -2   20.95    1.64
  -2  -7  -2   19.68    2.33
  -2   7  -2   16.72    1.66
  -2  -7  -2   16.59    1.64
  -3   7  -2   82.96    5.39
  -3  -7  -2   85.67    5.35
  -3  -7  -2   77.76    5.50
   3  -7   2   98.99    7.98
  -4   7  -2   -0.76    1.38
  -4  -7  -2   -0.23    1.09
   4  -7   2    0.53    1.74
  -4  -7  -2    0.88    0.98
   5  -7   2    2.25    2.06
  -5  -7  -2    3.22    1.40
  -5   7  -2    2.07    1.46
  -6   7  -2   12.71    2.58
   6  -7   2   11.77    3.29
  -7   7  -2   47.46    5.04
   7  -7   2   32.24    5.12
  -8   7  -2   14.04    3.14
   8  -7   2   19.12    4.06
  10  -8  -2   21.73    4.23
   9  -8  -2   21.52    4.15
   9  -8  -2   27.50    4.67
  -9   8   2   16.41    3.28
  -8   8   2   54.37    5.36
   8  -8  -2   74.49    6.94
   8  -8  -2   72.94    7.62
  -7   8   2   58.42    4.90
   7  -8  -2   56.01    6.55
   7  -8  -2   63.02    6.31
  -6   8   2   48.00    3.69
   6  -8  -2   45.74    5.25
   6  -8  -2   53.25    5.96
  -5   8   2   16.76    1.46
   5  -8  -2   17.94    3.34
   5  -8  -2   17.52    3.30
   4  -8  -2   34.28    4.12
   4  -8  -2   40.00    4.74
  -3  -8   2   89.82    8.05
   3  -8  -2   97.56    7.03
   3  -8  -2   92.00    7.44
   2  -8  -2   83.59    6.50
  -2  -8   2   83.04    7.51
   2  -8  -2   75.64    5.95
   1  -8  -2   15.23    2.48
   1  -8  -2   16.25    2.66
   0  -8  -2   31.68    3.16
   0  -8  -2   24.71    3.04
   0  -8   2   31.03    4.54
  -1  -8  -2  117.97    7.13
   1  -8   2   97.47    8.60
  -1  -8  -2  103.95    6.41
  -2  -8  -2   63.83    4.87
   2  -8   2   66.63    6.80
  -2  -8  -2   67.65    3.88
  -3  -8  -2   30.53    3.10
   3  -8   2   33.94    5.02
  -4   8  -2   25.58    2.36
  -4  -8  -2   22.37    2.72
   4  -8   2   28.92    4.52
   5  -8   2   77.24    7.74
   6  -8   2   72.09    7.56
   7  -8   2   59.98    7.08
   9  -9  -2    0.58    2.26
   8  -9  -2    0.54    2.33
   7  -9  -2    5.58    2.57
   7  -9  -2    3.98    2.54
   6  -9  -2    8.13    2.71
   6  -9  -2    4.68    2.40
   5  -9  -2   -0.44    1.73
   5  -9  -2    0.53    1.67
   4  -9  -2    0.97    1.78
   4  -9  -2    2.77    1.91
  -4  -9   2    1.71    2.09
   3  -9  -2    0.44    1.49
  -3  -9   2   -0.56    1.84
   3  -9  -2   -0.36    1.48
   2  -9  -2   13.37    2.70
   2  -9  -2    9.57    2.25
  -2  -9   2   10.12    3.00
  -1  -9   2    5.13    2.42
   1  -9  -2    3.82    1.58
   1  -9  -2    5.71    1.88
   0  -9   2   13.55    3.26
   1  -9   2    2.29    2.37
   2  -9   2    2.33    2.14
   3  -9   2    3.59    2.27
   4  -9   2    3.77    2.46
   5  -9   2    7.07    2.87
   6 -10  -2   45.63    5.85
  -6 -10   2   50.42    6.35
   5 -10  -2   26.11    4.13
  -5 -10   2   20.14    4.09
  -4 -10   2   56.98    6.61
  -3 -10   2  113.80    9.77
  -2 -10   2   94.59    8.89
  -1 -10   2   53.31    6.35
   0 -10   2   54.65    6.45
   1 -10   2  136.51   10.95
   2 -10   2   91.07    8.75
 -14   0   3   -1.98    4.20
 -13   0   3   -1.85    3.83
 -12   0   3   -0.86    2.57
 -11   0   3   -1.57    2.68
  10   0  -3    0.48    1.69
 -10   0   3   -1.68    1.78
 -10   0   3    0.71    1.90
  -9   0   3   -0.39    1.52
  -9   0   3    0.63    1.80
  -8   0   3   -0.35    1.05
   8   0  -3    0.26    0.83
  -8   0   3    0.57    1.42
  -7   0   3    2.03    1.86
  -7   0   3    0.94    1.03
  -6   0   3    0.55    0.83
  -6   0   3    0.89    1.20
  -5   0   3   -0.40    1.12
   5   0  -3   -0.76    1.34
  -5   0   3   -0.49   26.54
  -4   0   3   -0.34    1.29
   4   0  -3    0.65    1.06
  -4   0   3   -0.22    0.87
   3   0  -3    0.30    1.02
  -3   0   3    0.29    0.86
  -2   0   3   -0.28    0.97
   2   0  -3   -0.53    1.01
  -1   0   3    0.56    1.11
   1   0  -3   -0.27    1.07
   0   0  -3    0.27    0.94
   0   0   3   -0.26    0.89
   1   0   3    0.16    0.68
  -1   0  -3   -0.28    1.10
  -2   0  -3    0.30    1.09
   2   0   3   -0.18    0.75
  -2   0  -3    0.54    0.73
  -3   0  -3    0.67    1.45
   3   0   3    1.24    1.01
  -3   0  -3    0.22    0.99
   4   0   3    0.23    0.88
  -4   0  -3    0.26    0.91
  -5   0  -3    1.15    1.18
   5   0   3   -0.28    1.12
  -5   0  -3   -0.74    1.05
  -6   0  -3    0.43    1.21
   6   0   3   -0.63    1.23
  -6   0  -3   -0.33    1.25
  -7   0  -3    2.84    1.48
   7   0   3   -0.35    1.49
  -7   0  -3    0.37    1.80
   8   0   3    0.39    1.54
  -8   0  -3    0.54    1.76
  -8   0  -3    3.65    2.17
  -9   0  -3   -2.52    2.23
   9   0   3   -0.44    1.99
  -9   0  -3   -0.45    1.52
 -10   0  -3   -1.37    2.24
  10   0   3    0.42    1.48
  10   0   3   -0.96    1.76
  11   0   3    0.44    1.68
 -11   0  -3   -1.42    2.42
  12   0   3   -0.47    1.71
 -12   0  -3    1.51    3.03
  13   0   3    0.47    1.74
 -14  -1   3   95.85   10.88
 -13  -1   3   74.67    9.15
 -12  -1   3   29.29    5.62
 -11  -1   3   30.77    5.50
  11  -1  -3   39.76    5.01
 -11  -1   3   32.29    4.26
 -10  -1   3  249.50   17.76
  10  -1  -3  283.09   16.76
  10  -1  -3  275.25   16.60
 -10   1   3  253.39   15.89
 -10  -1   3  281.17   16.01
 -10  -1   3  284.69   16.26
   9  -1  -3  356.03   18.09
  -9  -1   3  352.87   21.57
  -9  -1   3  343.49   19.49
  -9   1   3  357.06   19.62
  -9  -1   3  353.17   19.44
  -9   1   3  378.57   20.07
   8  -1  -3  126.57    7.68
  -8   1   3  135.39    8.74
  -8   1   3  139.04    9.15
  -8  -1   3  118.19    9.90
  -8  -1   3  118.45    8.38
  -7  -1   3   49.30    5.47
   7  -1  -3   51.99    4.98
  -7   1   3   48.74    4.48
  -7  -1   3   51.22    4.53
  -7   1   3   52.35    4.79
  -6  -1   3  529.40   28.00
  -6  -1   3  508.90   26.18
  -6   1   3  547.71   26.76
  -6   1   3  524.73   26.19
  -5  -1   3  770.70   39.54
  -5   1   3  776.50   38.26
  -5  -1   3  813.15   38.25
   5  -1  -3  804.06   39.57
  -5   1   3  803.65   37.94
  -4  -1   3  376.00   20.05
   4  -1  -3  368.07   19.76
   3  -1  -3  256.72   14.13
  -3  -1   3  246.55   13.98
  -2  -1   3 1047.17   50.40
   2  -1  -3 1055.25   50.30
  -1  -1   3 1111.31   52.96
   1  -1  -3 1112.67   52.74
   0  -1  -3  870.51   45.21
   0   1   3  944.98   43.69
  -1  -1  -3  235.53   14.05
   1   1   3  244.77   12.34
   2   1   3  681.43   28.12
  -2  -1  -3  660.93   28.22
  -3  -1  -3  686.25   36.41
   3  -1   3  756.27   35.95
  -3  -1  -3  752.92   35.10
  -3   1  -3  767.09   36.13
   3   1   3  744.42   34.95
   4   1   3  559.80   28.09
   4  -1   3  612.98   29.24
  -4  -1  -3  578.72   28.28
  -4   1  -3  607.10   29.38
   5   1   3  112.19    7.05
  -5  -1  -3  115.09    7.19
  -5  -1  -3  103.01    7.86
   5  -1   3  110.59    7.57
  -5   1  -3  108.92    7.74
  -6  -1  -3  124.13    8.05
  -6  -1  -3  132.51    9.25
  -6   1  -3  116.10    8.46
   6  -1   3  113.86    8.24
   6   1   3  125.70    7.96
  -7  -1  -3  432.75   24.07
   7   1   3  447.79   22.75
   7  -1   3  430.14   23.38
  -7   1  -3  475.55   23.86
  -7  -1  -3  410.59   22.65
   8  -1   3  197.76   12.64
  -8   1  -3  192.82   12.82
  -8  -1  -3  217.98   12.59
  -8  -1  -3  186.20   13.25
   9  -1   3   91.80    7.91
  -9  -1  -3   97.14    7.82
  -9   1  -3   97.17    8.14
   9   1   3   94.76    6.98
  -9  -1  -3  100.79    9.08
  10   1   3   18.38    2.91
  10  -1   3   16.63    3.49
 -10  -1  -3   15.89    3.19
 -10  -1  -3   17.75    4.01
  11  -1   3   87.03    8.03
 -11  -1  -3   77.05    8.62
  11   1   3   89.07    6.95
  11  -1   3   84.78    7.66
 -12   1  -3   90.45    8.32
 -12  -1  -3  101.82   10.02
  12   1   3   92.13    7.40
  12  -1   3  105.61    8.77
  13  -1   3   37.67    5.08
  13   1   3   33.39    4.14
  14  -1   3    1.12    2.05
 -14  -2   3   -2.97    3.87
 -14   2   3   -4.78    4.34
  14  -2  -3    5.47    2.75
 -13  -2   3    2.78    3.16
 -13   2   3    0.89    3.06
  13  -2  -3    7.67    2.78
 -12  -2   3    0.85    2.29
 -12   2   3    5.79    3.03
  12  -2  -3    4.77    2.65
 -11  -2   3   23.54    3.65
 -11   2   3   16.67    4.01
 -11  -2   3   14.03    3.85
 -10  -2   3    1.53    1.44
 -10   2   3    2.11    1.70
 -10  -2   3    1.70    1.66
  10   2  -3   -0.47    1.79
  10  -2  -3    0.48    1.76
 -10  -2   3    0.71    2.22
 -10   2   3    0.68    1.83
  -9  -2   3    1.39    1.32
   9  -2  -3    5.09    1.78
   9  -2  -3    3.91    1.98
  -9   2   3    6.19    2.17
  -9  -2   3    4.46    2.34
  -9   2   3    2.47    2.11
   9   2  -3    0.86    1.73
   8  -2  -3   27.90    3.36
  -8  -2   3   25.73    3.17
  -8   2   3   27.48    3.53
  -8  -2   3   21.75    3.85
  -8   2   3   25.63    4.08
   8  -2  -3   25.52    3.65
  -7   2   3    0.36    1.41
  -7   2   3   -0.31    1.19
  -7  -2   3    3.05    1.74
  -7   2   3    0.50    1.33
   7  -2  -3    0.77    1.03
  -7  -2   3    0.86    1.12
  -6  -2   3    0.45    1.42
  -6   2   3   -0.44    1.26
  -6   2   3    0.80    1.12
  -6  -2   3    0.27    0.78
   6  -2  -3    0.34    1.03
  -5  -2   3    4.66    1.70
  -5   2   3    5.36    1.86
   5  -2  -3    5.21    1.60
  -5   2   3    3.99    1.34
  -4  -2   3   62.57    5.30
  -4   2   3   57.34    5.17
   4   2  -3   63.40    5.32
   4  -2  -3   63.03    5.31
   4  -2  -3   64.68    5.01
  -4   2   3   61.35    4.30
  -3   2   3   25.47    2.27
  -3  -2   3   26.13    3.05
  -3   2   3   27.05    3.12
   3   2  -3   32.90    3.31
   3  -2  -3   32.20    3.34
  -3   2   3   26.54    2.70
  -2   2   3   66.65    3.97
  -2  -2   3   70.50    5.34
  -2   2   3   56.12    5.04
   2   2  -3   59.31    5.11
   2  -2  -3   69.96    5.20
  -2   2   3   74.45    4.79
  -1   2   3   57.24    4.90
  -1  -2   3   58.82    4.71
   1   2  -3   61.47    4.78
   1  -2  -3   53.07    4.40
  -1   2   3   56.41    3.83
  -1   2   3   41.66    2.70
   0  -2   3   23.60    2.84
   0   2   3   24.78    2.89
   0   2  -3   23.79    2.78
   0  -2  -3   24.51    2.76
   0   2   3   28.46    2.26
  -1   2  -3   22.46    2.85
  -1  -2  -3   19.82    2.67
  -2   2  -3   45.49    4.16
  -2  -2  -3   46.10    4.25
  -2  -2  -3   41.42    2.60
  -3   2  -3   13.66    2.48
  -3  -2  -3   13.84    2.53
  -3  -2  -3   14.63    1.52
   3  -2   3   11.26    2.24
  -3   2  -3   15.50    2.48
  -4   2  -3    0.35    1.19
   4  -2   3   -0.68    1.24
  -4  -2  -3    0.17    0.71
  -5   2  -3   10.17    2.28
   5  -2   3   16.67    2.70
  -5  -2  -3   15.44    2.02
  -5  -2  -3   11.30    2.38
  -5   2  -3   10.72    2.52
  -6  -2  -3   18.33    3.03
  -6   2  -3   11.37    2.45
   6  -2   3   13.43    2.62
  -6  -2  -3    9.06    1.89
  -6   2  -3   12.95    2.56
   7   2   3    6.81    1.56
   7  -2   3   12.12    2.72
  -7  -2  -3    7.94    1.93
  -7  -2  -3   10.09    2.44
  -7   2  -3   10.19    2.43
  -7   2  -3   11.04    2.82
   8  -2   3   -0.49    1.79
   8   2   3    1.09    0.90
  -8  -2  -3    0.55    1.96
  -8   2  -3   -0.53    1.82
  -8  -2  -3    1.34    1.68
  -8   2  -3   -0.50    1.69
   9   2   3    4.80    1.39
  -9  -2  -3    5.38    2.71
  -9   2  -3    3.89    2.54
   9  -2   3    4.63    2.13
  -9  -2  -3    3.02    1.72
 -10  -2  -3    0.68    2.12
 -10   2  -3    0.65    2.05
  10   2   3    1.78    1.25
 -10   2  -3    3.13    2.47
  10  -2   3    0.55    2.03
 -10  -2  -3    2.52    1.82
  11   2   3   12.83    2.29
 -11   2  -3   18.74    4.07
  11  -2   3   13.68    3.53
 -11  -2  -3   14.27    3.93
 -11   2  -3   12.38    4.01
 -12   2  -3   -0.58    2.28
  12  -2   3   -2.37    2.81
 -12  -2  -3   -6.85    3.95
  12  -2   3   -0.63    2.48
  12   2   3   -0.28    1.39
  13  -2   3    0.61    2.02
 -14  -3   3  115.61   11.86
 -14   3   3  101.45   11.14
  14  -3  -3  115.40   10.33
 -13  -3   3   71.20    8.92
 -13   3   3   75.31    8.98
  13  -3  -3   68.29    7.63
 -12  -3   3   50.75    5.37
 -12  -3   3   55.65    7.56
 -12   3   3   52.88    7.26
 -11   3   3   53.80    6.87
 -11  -3   3   55.19    5.37
 -11  -3   3   51.75    6.97
  10  -3  -3  233.75   13.79
 -10  -3   3  225.58   16.08
 -10   3   3  235.99   16.07
 -10   3   3  233.66   14.28
  10   3  -3  231.34   14.57
  10  -3  -3  217.95   14.89
  10  -3  -3  238.26   14.83
 -10  -3   3  233.42   13.78
   9  -3  -3  313.10   17.58
  -9  -3   3  312.38   19.64
  -9   3   3  303.37   19.36
   9  -3  -3  331.50   18.75
   9   3  -3  338.19   18.24
   9  -3  -3  314.54   18.07
  -9   3   3  311.83   17.63
  -9  -3   3  289.82   16.95
   8  -3  -3  132.23    8.83
  -8   3   3  121.91    8.41
  -8  -3   3  113.80    9.58
  -8   3   3  128.80    9.89
  -8  -3   3  109.32    7.89
   8  -3  -3  132.61    9.36
  -7  -3   3  195.33   13.04
  -7   3   3  196.74   13.03
  -7  -3   3  200.68   11.59
   7  -3  -3  197.50   12.44
   7  -3  -3  187.73   11.91
  -7   3   3  202.58   11.71
   6   3  -3  188.27   10.01
   6  -3  -3  197.34   12.06
  -6  -3   3  192.84   12.47
  -6   3   3  200.82   12.61
  -6   3   3  197.86   11.21
   5   3  -3  801.49   37.48
  -5   3   3  803.75   37.92
  -5  -3   3  784.47   39.32
  -5   3   3  764.22   39.25
   5  -3  -3  800.85   38.98
  -4  -3   3  146.41    9.51
  -4   3   3  140.08    9.40
   4   3  -3  147.43    9.53
   4  -3  -3  140.29    9.48
   4  -3  -3  148.34    9.25
  -4   3   3  149.40    8.47
  -4   3   3  174.66    9.54
  -3  -3   3  413.01   21.66
  -3   3   3  396.23   21.65
   3   3  -3  433.18   21.76
   3  -3  -3  407.30   21.55
   3  -3  -3  406.14   21.22
  -3   3   3  438.49   21.27
  -3   3   3  429.60   20.28
  -2  -3   3  717.74   28.83
  -2   3   3  427.68   27.92
  -2   3   3  593.51   25.92
   2   3  -3  765.42   28.97
   2  -3  -3  502.74   27.75
  -2   3   3  371.22   27.33
  -1  -3   3  912.31   34.39
  -1   3   3  598.60   33.20
   1   3  -3  881.17   34.13
   1  -3  -3  573.47   32.81
  -1   3   3  636.28   32.43
   0  -3   3  314.60   17.12
   0   3   3  322.98   17.21
   0   3  -3  344.66   17.34
   0  -3  -3  310.36   17.08
   0   3   3  328.09   16.04
   0  -3   3  346.19   17.89
  -1   3  -3  157.18    9.35
  -1  -3  -3  144.74    9.07
   1   3   3  140.64    7.48
  -2   3  -3  255.37   14.29
  -2  -3  -3  237.31   13.99
   2   3   3  258.84   12.11
  -3   3  -3  230.93   13.41
  -3  -3  -3  259.41   13.64
   3   3   3  218.26   10.64
  -3  -3  -3  254.02   11.32
  -4   3  -3  332.06   20.16
  -4  -3  -3  402.65   20.78
  -4   3  -3  289.84   19.46
  -4  -3  -3  442.20   20.86
  -4  -3  -3  434.57   18.57
  -4   3  -3  358.41   20.64
  -5  -3  -3   42.68    4.57
  -5   3  -3   41.90    4.33
  -5   3  -3   37.16    4.55
  -5  -3  -3   43.28    3.39
  -6  -3  -3  105.75    8.16
  -6   3  -3   95.10    7.76
   6   3   3  101.72    5.25
   6  -3   3  110.23    8.23
  -6  -3  -3  109.15    6.78
  -6   3  -3  121.95    8.80
   7   3   3  126.25    6.81
   7  -3   3  151.78   10.27
  -7  -3  -3  137.91    8.50
  -7   3  -3  159.30   10.65
  -7  -3  -3  143.29   10.23
  -7   3  -3  139.51    9.93
  -8   3  -3  134.98   10.36
  -8   3  -3  126.43   10.00
   8  -3   3  138.02   10.23
   8   3   3  129.52    7.01
  -8  -3  -3  138.61    8.87
  -8  -3  -3  157.52   11.09
  -9  -3  -3   30.58    5.13
  -9   3  -3   44.89    5.70
   9   3   3   37.18    2.85
   9  -3   3   41.41    5.28
  -9  -3  -3   43.08    4.58
  -9   3  -3   48.76    6.00
 -10   3  -3   28.65    4.77
  10  -3   3   26.60    4.50
 -10  -3  -3   27.59    3.85
 -10  -3  -3   26.56    4.78
 -10   3  -3   27.17    4.83
 -11   3  -3   53.11    6.67
 -11   3  -3   60.66    7.17
 -11  -3  -3   71.05    7.78
  11  -3   3   50.90    6.55
 -12   3  -3   59.08    7.22
  12  -3   3   68.51    7.56
 -14  -4   3   -0.97    4.01
 -14   4   3   -4.55    4.04
 -13  -4   3   21.72    5.32
 -13   4   3   26.33    5.61
 -12  -4   3    1.60    1.56
  12  -4  -3    0.65    2.14
 -12  -4   3    2.51    2.63
  11  -4  -3    9.83    3.12
 -11  -4   3   15.12    2.66
 -11   4   3   10.86    3.40
 -11  -4   3   10.75    3.67
  10  -4  -3   18.37    3.74
 -10  -4   3   23.68    4.55
  10   4  -3   16.72    3.30
  10  -4  -3   19.89    3.62
 -10  -4   3   19.59    3.08
  10  -4  -3   17.06    3.45
 -10   4   3   16.48    3.84
   9  -4  -3   35.24    4.74
   9  -4  -3   21.88    3.80
  -9  -4   3   27.61    4.66
  -9  -4   3   31.30    3.58
  -9   4   3   22.67    4.15
  -9   4   3   27.36    3.90
   9   4  -3   29.51    3.91
   9  -4  -3   29.53    4.10
   8  -4  -3    0.99    1.68
   8  -4  -3   -0.44    1.96
  -8  -4   3    1.69    1.92
   8   4  -3    0.38    1.19
   8  -4  -3   -0.39    1.61
  -8   4   3    1.08    1.53
  -8   4   3    0.38    1.57
  -8  -4   3   -1.54    1.45
   7  -4  -3    6.29    2.27
   7  -4  -3    6.90    2.36
  -7  -4   3    7.96    2.51
  -7   4   3    8.63    2.46
  -7   4   3    2.72    1.75
  -6  -4   3   81.50    7.17
  -6   4   3   93.29    7.48
  -6   4   3  102.74    6.98
   6  -4  -3  102.89    7.64
   5  -4  -3    2.87    1.36
  -5  -4   3    2.18    1.58
   5   4  -3    3.73    1.36
  -5   4   3    4.63    1.76
   5  -4  -3    3.15    1.37
  -5   4   3    1.00    1.22
   4  -4  -3   19.06    2.56
   4   4  -3   14.46    2.27
  -4  -4   3   15.79    2.48
  -4   4   3   19.28    2.30
  -4   4   3   14.91    2.37
   4  -4  -3   15.01    2.10
   3   4  -3   29.04    3.30
   3  -4  -3   29.37    3.03
  -3  -4   3   21.36    2.77
  -3   4   3   20.38    2.71
  -3   4   3   29.29    2.51
   3   4  -3   21.75    2.87
   3  -4  -3   20.23    2.79
   3  -4  -3   28.09    2.52
  -2  -4   3  115.93    8.16
  -2   4   3  127.83    8.30
   2   4  -3  143.91    8.98
   2   4  -3  136.98    8.40
   2  -4  -3  122.75    8.12
   2  -4  -3  123.27    8.10
  -2   4   3  143.01    7.15
  -1  -4   3   95.76    6.70
  -1   4   3   94.00    6.75
   1   4  -3  118.70    7.77
   1   4  -3  106.89    6.99
   1  -4  -3   98.43    6.83
   0   4  -3   72.15    5.47
   0  -4  -3   77.78    5.51
   0  -4   3   75.97    6.28
  -1   4  -3   32.82    3.42
  -1  -4  -3   32.55    3.29
   1  -4   3   28.31    3.71
  -2   4  -3   28.85    3.41
  -2  -4  -3   26.93    3.28
   2  -4   3   26.77    3.55
  -3   4  -3   17.55    2.73
  -3  -4  -3   14.78    2.37
  -3  -4  -3   13.70    1.11
   3  -4   3   14.30    2.81
  -4   4  -3   12.28    3.01
  -4   4  -3   10.61    2.61
  -4  -4  -3    8.84    2.28
  -4  -4  -3   11.05    2.16
  -4   4  -3   11.20    2.13
  -4  -4  -3   12.87    1.41
  -5   4  -3    5.14    2.45
  -5  -4  -3    6.21    1.96
  -5   4  -3    7.58    2.27
  -5  -4  -3    5.88    2.05
  -5   4  -3    5.80    1.70
  -5  -4  -3    6.50    1.30
  -5   4  -3    7.19    2.38
  -6  -4  -3    6.11    1.92
  -6   4  -3    7.74    2.69
  -6   4  -3    6.50    2.06
  -6  -4  -3    7.91    1.58
  -6   4  -3    7.27    2.66
  -7   4  -3    8.87    3.14
  -7  -4  -3    5.58    2.18
  -7   4  -3    8.44    2.38
  -7  -4  -3    9.92    1.96
  -8  -4  -3    0.59    2.02
  -8   4  -3    3.35    2.25
  -8   4  -3    7.47    3.18
  -8  -4  -3    6.33    1.85
   9  -4   3   27.24    4.68
  -9   4  -3   33.05    5.28
  -9  -4  -3   27.09    3.43
  -9  -4  -3   22.72    4.37
  -9   4  -3   32.01    4.73
 -10   4  -3   -1.96    2.84
 -10   4  -3    0.61    2.16
  10  -4   3    0.64    2.26
 -10  -4  -3   -1.31    2.91
 -11   4  -3    1.96    2.56
 -11   4  -3    6.69    2.98
 -11  -4  -3    2.81    3.26
  11  -4   3    8.60    3.32
 -12   4  -3    4.12    3.05
 -13  -5   3   33.46    6.30
 -13   5   3   23.72    5.28
  12  -5  -3   28.17    4.87
 -12  -5   3   21.92    4.99
 -12   5   3   25.81    5.15
  11  -5  -3   34.53    5.13
 -11  -5   3   23.89    4.94
 -11   5   3   36.32    5.55
 -10  -5   3   58.54    7.03
 -10   5   3   63.32    7.04
  10  -5  -3   62.58    6.81
 -10  -5   3   47.70    4.93
  10   5  -3   62.73    6.16
  10  -5  -3   60.79    6.21
   9  -5  -3   78.07    7.48
   9  -5  -3   68.87    7.29
  -9  -5   3   66.88    7.29
  -9   5   3   77.29    7.54
  -9  -5   3   78.83    6.13
  -9   5   3   87.72    7.18
   9   5  -3   87.09    7.13
   9  -5  -3   73.13    6.80
   8  -5  -3   93.94    8.25
  -8  -5   3   88.68    8.09
  -8   5   3  100.07    8.34
  -8  -5   3   92.65    6.86
   8  -5  -3   91.24    7.49
   8   5  -3   94.36    7.33
   8  -5  -3   99.57    7.54
   8  -5  -3   89.11    7.98
  -8   5   3  102.40    7.71
   7  -5  -3  103.97    8.70
  -7  -5   3   86.62    7.82
  -7   5   3  100.89    8.14
  -7   5   3  111.23    7.84
   7   5  -3  105.40    7.44
   7  -5  -3  110.73    7.69
   7  -5  -3  104.45    7.78
   7  -5  -3  100.71    8.26
  -6  -5   3  114.35    8.16
  -6   5   3  110.76    8.09
   6  -5  -3  102.74    7.60
   6  -5  -3   96.39    7.99
   6  -5  -3  107.95    8.76
  -6   5   3  116.03    7.73
  -5   5   3  192.40   10.92
  -5  -5   3  181.23   11.21
  -5   5   3  158.92   10.88
   5  -5  -3  194.51   10.94
   5  -5  -3  188.96   11.67
  -4  -5   3  305.82   16.24
  -4   5   3  279.49   15.99
   4  -5  -3  270.37   16.12
   4  -5  -3  284.94   15.42
  -4   5   3  302.23   15.59
   4   5  -3  326.89   16.64
   3   5  -3  532.39   18.08
  -3  -5   3  403.55   15.58
  -3   5   3  208.22   14.02
   3   5  -3  453.89   16.35
   3  -5  -3  235.01   14.53
   3  -5  -3  225.60   13.65
   3  -5  -3  222.56   14.38
  -3   5   3  233.80   13.76
  -2  -5   3  413.63   20.02
  -2   5   3  322.42   19.91
   2  -5  -3  386.65   20.01
   2  -5  -3  382.87   19.84
   2  -5  -3  310.00   18.85
  -1   5   3  380.49   19.27
   1   5  -3  394.84   19.31
   1  -5  -3  381.27   19.32
   1  -5  -3  395.37   18.99
   1  -5  -3  318.80   17.54
  -1  -5   3  398.63   19.05
   0   5  -3  393.35   20.16
   0  -5   3  396.11   20.02
   0   5  -3  342.70   17.80
   0  -5  -3  331.78   17.66
   0  -5  -3  337.74   15.81
  -1   5  -3  312.72   16.27
  -1  -5  -3  280.82   15.95
   1  -5   3  323.77   17.84
  -2   5  -3  379.54   19.14
   2  -5   3  401.19   20.78
  -3   5  -3  283.73   14.28
  -3  -5  -3  258.79   13.73
  -3   5  -3  276.04   16.08
  -3  -5  -3  218.62   11.02
  -3  -5  -3  278.76   13.71
  -3   5  -3  261.58   13.35
  -3  -5  -3  226.65   10.99
   3  -5   3  295.53   15.54
  -4   5  -3  229.12   13.50
  -4  -5  -3  219.53   13.14
  -4   5  -3  229.96   15.16
  -4  -5  -3  245.62   13.41
  -4   5  -3  237.40   13.09
   4  -5   3  226.00   14.34
  -4  -5  -3  214.71   10.95
  -5   5  -3  252.09   15.56
  -5  -5  -3  270.09   15.53
  -5   5  -3  247.91   17.00
  -5  -5  -3  263.17   13.33
   5  -5   3  266.33   16.56
  -5   5  -3  259.48   15.18
  -6   5  -3  187.99   12.31
  -6  -5  -3  190.45   12.14
  -6   5  -3  150.53   12.72
  -6  -5  -3  187.14   10.04
   6  -5   3  179.47   12.71
  -6  -5  -3  206.90   12.65
  -6   5  -3  179.56   11.78
  -7   5  -3  173.30   11.57
  -7  -5  -3  142.90   10.65
  -7   5  -3  156.08   12.07
   7  -5   3  148.15   11.25
  -7  -5  -3  143.81    8.79
  -7  -5  -3  166.95   11.50
  -7   5  -3  157.39   11.03
  -8   5  -3   88.34    8.99
  -8  -5  -3  102.58    8.79
  -8   5  -3  105.65    8.59
  -9   5  -3   72.66    8.25
  -9   5  -3   69.43    7.17
  -9  -5  -3   92.35    8.23
 -10   5  -3   53.27    6.92
 -10   5  -3   44.55    5.70
 -10  -5  -3   37.09    5.56
 -11   5  -3   50.44    6.98
 -13  -6   3   13.56    4.50
 -13   6   3   12.48    3.88
 -12  -6   3    5.48    3.23
 -12   6   3   -1.45    2.48
  11  -6  -3    1.37    2.34
 -11  -6   3    6.43    2.79
 -11   6   3    6.67    3.10
  10  -6  -3    4.46    2.56
  10  -6  -3    0.44    1.67
 -10  -6   3   -0.65    2.21
 -10   6   3    3.04    2.23
   9  -6  -3   36.03    5.09
   9  -6  -3   31.38    4.11
  -9  -6   3   30.23    4.63
   9  -6  -3   35.42    4.83
  -9   6   3   27.33    4.49
   9   6  -3   33.29    4.23
  -9  -6   3   33.75    3.73
   8  -6  -3   19.68    3.68
   8   6  -3   23.03    3.43
   8  -6  -3   23.76    3.56
  -8   6   3   22.69    3.66
  -8  -6   3   17.54    3.55
  -8   6   3   23.49    3.78
   8  -6  -3   19.64    3.51
  -8  -6   3   21.94    3.05
   7  -6  -3    4.03    2.19
  -7  -6   3    2.96    1.75
  -7   6   3    4.11    2.03
   7  -6  -3    4.01    1.91
  -7   6   3    4.31    1.71
   7   6  -3    4.17    1.64
   7  -6  -3    2.35    1.50
   6  -6  -3    0.92    1.63
   6  -6  -3    1.71    2.28
  -6   6   3    0.35    1.21
   6  -6  -3    2.04    1.20
  -6  -6   3    0.37    1.43
  -6   6   3    1.43    1.43
   6   6  -3   -0.28    1.15
   6  -6  -3    0.71    1.38
   5  -6  -3   24.44    3.59
   5  -6  -3   21.09    4.11
   5  -6  -3   26.00    3.18
  -5  -6   3   20.41    2.98
  -5   6   3   26.01    3.23
  -5   6   3   26.88    3.29
  -4  -6   3  101.57    6.78
  -4   6   3   90.50    6.65
   4  -6  -3  102.70    6.84
  -4   6   3  106.48    6.95
   4  -6  -3  102.43    7.57
   3  -6  -3   16.91    2.58
   3   6  -3   16.71    3.01
  -3  -6   3    9.83    1.81
   3  -6  -3   11.57    1.91
  -3   6   3   14.16    2.14
   2  -6  -3    0.82    1.16
   2   6  -3    4.58    2.12
  -2  -6   3    0.78    0.93
  -2   6   3    0.21    1.13
   2  -6  -3    1.04    1.03
   1   6  -3    7.85    2.59
   1  -6  -3    4.25    1.03
   1   6  -3    3.24    1.08
   1  -6  -3    5.24    1.35
   1  -6  -3    5.32    1.39
  -1  -6   3    8.16    2.50
   0   6  -3  100.65    8.41
   0   6  -3   89.72    6.16
   0  -6  -3   84.82    6.10
   0  -6  -3  102.23    5.26
   0  -6   3  105.41    8.34
  -1   6  -3    3.29    2.50
  -1   6  -3    4.38    1.34
  -1  -6  -3    5.93    1.47
  -1  -6  -3    4.64    0.68
   1  -6   3    4.44    2.25
  -2   6  -3    4.08    1.23
  -2  -6  -3    2.43    1.41
  -2   6  -3    5.08    1.72
  -2  -6  -3    4.03    1.28
   2  -6   3    2.49    1.50
  -3  -6  -3    0.27    0.94
  -3   6  -3    1.75    1.06
  -3   6  -3   -0.92    1.48
  -3  -6  -3    1.14    1.32
  -3  -6  -3    0.06    0.49
  -3  -6  -3    0.23    0.41
   3  -6   3   -1.02    1.88
  -4   6  -3    9.42    3.33
  -4  -6  -3    9.10    2.20
  -4   6  -3   10.96    2.45
  -4  -6  -3   10.09    2.21
  -4   6  -3    9.98    1.98
  -4  -6  -3    8.37    1.12
   4  -6   3    6.46    2.47
  -4  -6  -3    7.86    1.10
  -5   6  -3    9.21    3.37
  -5  -6  -3    6.07    1.98
  -5   6  -3    7.89    2.09
  -5   6  -3    5.84    2.35
  -5  -6  -3    7.04    2.08
  -5  -6  -3    6.03    1.13
   5  -6   3    7.38    2.59
  -6  -6  -3   21.39    3.33
  -6   6  -3   21.91    3.30
  -6   6  -3   18.58    4.10
  -6   6  -3   15.73    3.28
  -6  -6  -3   13.96    2.87
   6  -6   3   19.99    3.94
  -7   6  -3    8.16    2.30
  -7   6  -3   15.05    3.92
  -7   6  -3   11.29    3.04
  -7  -6  -3    8.47    2.50
   7  -6   3    6.56    2.74
  -7  -6  -3   12.80    2.94
  -8   6  -3    1.48    2.71
  -8   6  -3    0.47    1.61
  -8  -6  -3   -2.08    2.15
   8  -6   3   -1.89    2.23
  -9   6  -3    2.27    2.68
   9  -6   3    5.35    2.69
 -10   6  -3    5.40    3.27
 -12   7   3   58.40    7.26
 -11   7   3   56.99    6.80
 -10  -7   3   45.81    5.92
 -10   7   3   47.17    5.99
  10  -7  -3   52.45    6.53
   9   7  -3   51.83    4.94
  -9  -7   3   45.48    5.61
  -9   7   3   57.28    6.04
   9  -7  -3   65.49    6.95
   9  -7  -3   57.41    6.22
  -8  -7   3  137.41    9.78
  -8   7   3  140.44   10.07
   8  -7  -3  142.54   10.28
   8  -7  -3  141.74   10.97
   8   7  -3  150.41    9.34
  -7  -7   3  138.83    9.61
  -7   7   3  128.05    9.42
   7  -7  -3  147.96   10.16
   7  -7  -3  143.38   10.72
  -7   7   3  163.66   10.48
   7   7  -3  146.91    9.07
  -6  -7   3   93.95    6.81
  -6   7   3   83.14    6.57
   6  -7  -3   83.46    6.90
   6  -7  -3   83.97    7.57
   6   7  -3  109.56    6.67
  -6   7   3   86.38    7.04
   6  -7  -3   79.23    6.13
  -5  -7   3   74.41    5.30
  -5   7   3   63.44    5.04
  -5   7   3   61.64    5.58
   5  -7  -3   68.02    5.71
   5  -7  -3   62.35    6.12
   5  -7  -3   61.64    4.90
  -4  -7   3  196.62   10.62
  -4   7   3  184.26   10.64
   4   7  -3  217.57   10.51
   4  -7  -3  199.07   11.36
   4  -7  -3  172.02   10.26
   4  -7  -3  202.36   12.32
   3  -7  -3  125.45    8.46
   3  -7  -3  119.24    7.60
  -2  -7   3  101.44    8.79
   2  -7  -3  111.94    7.46
   2  -7  -3   97.62    6.51
   1  -7  -3  108.50    6.45
  -1  -7   3   95.79    8.24
   0  -7  -3   56.25    3.79
   0   7  -3   57.09    3.69
   0   7  -3   61.82    4.13
   0  -7  -3   56.46    4.08
   0  -7  -3   65.98    4.39
   0  -7  -3   53.69    3.71
   0  -7   3   74.83    6.90
   0   7  -3   67.22    6.83
  -1   7  -3   89.93    5.99
  -1  -7  -3   93.92    6.03
  -1  -7  -3   95.83    5.19
   1  -7   3  106.25    8.73
  -1  -7  -3   99.39    5.84
  -1   7  -3   99.94    8.96
  -1   7  -3   94.44    5.61
  -2   7  -3   75.88    5.45
  -2  -7  -3   74.30    5.42
  -2  -7  -3   80.57    4.29
   2  -7   3   91.98    7.85
  -2  -7  -3   82.79    5.47
  -2   7  -3   82.11    5.27
  -2   7  -3   71.35    7.76
  -3  -7  -3   20.69    2.66
  -3   7  -3   21.78    2.61
  -3  -7  -3   16.66    1.39
  -3   7  -3   20.15    2.77
  -3  -7  -3   16.23    2.49
  -3  -7  -3   15.33    1.39
   3  -7   3   24.32    4.01
  -4   7  -3   15.35    3.90
  -4   7  -3   17.46    2.75
  -4  -7  -3   12.56    2.44
   4  -7   3   16.90    3.62
  -4  -7  -3   11.59    1.34
  -4  -7  -3   11.95    2.20
  -4   7  -3   16.22    2.45
  -5   7  -3   79.99    6.74
  -5   7  -3   81.51    6.09
  -5  -7  -3   71.25    6.08
   5  -7   3   92.72    8.30
  -5   7  -3   65.94    7.96
  -6   7  -3   48.21    5.19
  -6   7  -3   53.30    7.11
  -6  -7  -3   46.17    5.00
  -6   7  -3   50.15    4.89
   6  -7   3   45.06    5.92
  -7   7  -3   15.46    4.49
  -7   7  -3   25.48    3.89
   7  -7   3   20.39    4.33
  -8   7  -3   18.27    4.82
  10  -8  -3    5.02    2.85
   9  -8  -3    1.92    2.10
   9  -8  -3    0.52    2.14
   8  -8  -3    0.60    1.88
  -8   8   3    0.37    1.84
   8  -8  -3    1.92    1.64
   7  -8  -3   13.35    3.36
  -7   8   3    8.34    2.07
   7  -8  -3   10.88    2.77
   6  -8  -3   20.96    3.83
   6  -8  -3   21.71    3.40
  -6   8   3   19.29    2.63
   5  -8  -3    6.97    2.21
   5   8  -3    3.68    0.98
  -5   8   3    2.61    1.14
   5  -8  -3    5.58    1.87
   4  -8  -3    0.42    1.47
   4   8  -3    0.83    0.49
   4  -8  -3    0.61    1.22
   3  -8  -3    7.05    2.00
   3  -8  -3   10.68    1.98
  -3  -8   3    9.33    2.95
   2  -8  -3   35.29    3.74
   2  -8  -3   31.41    3.25
  -2  -8   3   33.21    5.03
   1  -8  -3   13.89    2.11
  -1  -8   3   20.40    4.32
   0  -8  -3    2.27    0.97
   0  -8   3    2.96    2.31
   1  -8   3    2.34    2.08
  -2   8  -3   16.36    1.74
   2  -8   3   22.06    4.02
  -3   8  -3   -0.19    1.57
   3  -8   3   -0.61    2.00
   4  -8   3    0.62    2.20
   5  -8   3    0.65    2.55
   6  -8   3    4.75    2.95
   7  -9  -3   54.47    6.31
   6  -9  -3   12.65    3.17
   5  -9  -3   21.68    3.75
   4  -9  -3   78.23    6.89
  -4  -9   3   68.83    7.56
  -3  -9   3  128.22   10.56
   3  -9  -3  121.66    8.80
  -2  -9   3   82.54    8.39
  -1  -9   3   83.43    8.47
   0  -9   3   91.08    8.71
   1  -9   3  171.95   12.85
   2  -9   3  123.57   10.56
   3  -9   3   46.40    6.23
  -3 -10   3    6.59    2.88
  -2 -10   3   14.62    3.83
 -14   0   4  114.72   12.12
 -13   0   4   17.70    4.73
 -12   0   4   32.02    5.91
 -11   0   4  178.10   14.11
  10   0  -4  371.85   18.72
 -10   0   4  397.39   24.04
 -10   0   4  416.10   21.85
 -10   0   4  419.60   21.67
  -9   0   4  230.80   15.85
  -9   0   4  235.39   13.69
  -9   0   4  235.67   13.98
   9   0  -4  215.32   11.64
  -8   0   4  151.31    9.87
  -8   0   4  164.18   11.95
  -8   0   4  149.54   10.06
  -7   0   4  533.83   28.97
  -7   0   4  525.30   27.08
  -6   0   4  912.36   47.65
   6   0  -4  989.52   47.89
  -6   0   4  967.56   46.10
  -5   0   4 1235.98   59.75
   5   0  -4 1222.02   59.72
  -5   0   4 1248.16   58.45
  -4   0   4  285.11   16.99
   4   0  -4  310.81   17.16
  -3   0   4  644.19   37.58
   3   0  -4  917.60   38.77
  -2   0   4 2637.58  126.13
   2   0  -4 2847.78  126.45
  -1   0   4 1920.48   92.21
   1   0  -4 2038.04   92.37
   0   0   4  404.59   22.08
   0   0  -4  402.44   21.88
   0   0   4  432.25   20.72
  -1   0  -4  517.26   27.39
   1   0   4  522.36   25.71
  -2   0  -4  689.33   39.22
   2   0   4  856.35   37.93
  -3   0  -4  806.82   42.79
   3   0   4  906.37   41.42
  -4   0  -4  316.15   18.63
  -4   0  -4  328.78   17.37
   4   0   4  324.65   17.03
  -5   0  -4   70.72    6.63
  -5   0  -4   60.88    5.40
   5   0   4   67.00    5.30
  -6   0  -4   40.92    5.27
  -6   0  -4   42.17    4.86
   6   0   4   42.97    4.37
  -6   0  -4   44.73    4.56
  -7   0  -4  221.19   14.46
   7   0   4  216.21   13.11
  -7   0  -4  219.47   13.40
  -8   0  -4  169.81   12.36
   8   0   4  159.58   11.02
  -8   0  -4  180.88   11.64
  -9   0  -4    4.48    2.43
   9   0   4    2.70    2.01
  -9   0  -4    5.25    2.27
 -10   0  -4    8.86    3.21
  10   0   4    4.37    2.12
 -11   0  -4   33.53    5.90
  11   0   4   31.56    4.36
  12   0   4   52.55    5.66
 -14  -1   4   -1.00    4.25
 -13  -1   4   18.75    4.93
 -12  -1   4    6.10    2.87
 -11  -1   4   18.48    4.38
 -10  -1   4    8.63    2.52
  10  -1  -4    9.05    1.86
 -10   1   4   10.18    2.51
 -10   1   4   10.35    2.58
 -10  -1   4    9.61    3.52
  -9  -1   4   72.93    6.02
  -9  -1   4   54.82    6.97
  -9   1   4   69.47    5.85
  -9   1   4   80.20    6.51
   9  -1  -4   64.37    4.91
   9   1  -4   56.58    3.42
  -8  -1   4    3.23    1.50
  -8   1   4    6.31    1.99
  -8   1   4    7.10    1.99
  -8  -1   4    9.84    3.04
  -7   1   4   10.76    2.36
  -7  -1   4   14.72    3.14
  -7   1   4   11.21    2.26
  -7  -1   4   10.82    2.17
  -6   1   4    1.28    1.21
  -6  -1   4   -0.49    1.62
  -6   1   4   -0.26    1.17
  -6  -1   4   -1.24    1.61
   6  -1  -4    1.42    1.34
  -5  -1   4   52.08    5.23
   5  -1  -4   50.58    5.16
  -4  -1   4    0.40    1.08
   4  -1  -4    0.39    0.98
  -3   1   4   23.15    2.71
  -3  -1   4   16.45    3.11
   3  -1  -4   16.98    3.03
  -2  -1   4   53.89    4.90
   2  -1  -4   47.73    4.67
  -1  -1   4   33.09    3.68
   1  -1  -4   27.91    3.61
   0  -1   4    4.88    1.73
   0  -1  -4    4.41    1.62
   0   1   4    6.19    1.11
   0  -1   4    4.28    1.35
  -1  -1  -4   93.79    7.25
   1   1   4   91.53    5.48
   1  -1   4  100.64    6.57
   2   1   4  111.07    6.28
   2  -1   4  113.30    7.24
  -3  -1  -4  109.36    8.13
   3   1   4  100.89    6.30
   3  -1   4  111.25    7.36
  -4  -1  -4    4.90    2.19
   4   1   4   12.82    1.87
   4  -1   4    7.65    1.95
  -4  -1  -4    7.71    1.63
  -4   1  -4   11.09    2.26
  -5  -1  -4   59.41    6.14
   5  -1   4   57.41    5.16
  -5  -1  -4   61.34    4.91
  -5   1  -4   62.01    5.52
   5   1   4   59.89    4.66
  -6  -1  -4   52.45    5.80
  -6  -1  -4   36.76    4.69
   6   1   4   46.14    4.18
   6  -1   4   40.24    4.55
  -6  -1  -4   43.22    4.29
  -6   1  -4   47.92    5.07
  -7  -1  -4   37.78    5.01
   7   1   4   38.31    4.09
  -7  -1  -4   39.09    4.19
  -7   1  -4   45.70    5.05
   7  -1   4   31.62    4.28
  -8  -1  -4    4.63    1.98
   8   1   4    2.55    1.73
   8  -1   4    2.73    1.93
  -8  -1  -4    3.11    1.92
  -8   1  -4    8.17    2.45
  -9  -1  -4    4.53    2.46
   9  -1   4    3.89    1.85
  -9  -1  -4    4.28    2.11
  10   1   4    0.36    1.65
  10  -1   4    0.53    1.93
 -11  -1  -4   -0.78    3.76
  11   1   4    1.48    1.64
  11  -1   4    1.13    2.33
  12  -1   4    0.54    1.76
  12  -1   4   -1.19    2.46
  13  -1   4    2.20    1.95
 -14   2   4   77.68    9.73
 -14  -2   4   81.39   10.11
 -13  -2   4   46.03    7.35
 -13   2   4   29.99    6.30
 -12  -2   4   14.77    4.46
 -12   2   4   10.10    3.78
  11  -2  -4  119.28    8.21
 -11  -2   4  150.00   12.18
 -11   2   4  119.36   11.13
  10  -2  -4  138.01    9.07
 -10  -2   4  128.96   11.56
 -10   2   4  132.65   11.53
 -10   2   4  161.61   10.34
 -10  -2   4  142.19    9.80
  -9  -2   4   74.64    7.75
  -9   2   4   73.44    7.61
  -9   2   4   68.38    6.12
  -9  -2   4   69.50    6.03
  -9   2   4   77.48    6.70
   9  -2  -4   67.93    5.67
  -8   2   4    4.15    1.86
  -8  -2   4    6.15    2.55
  -8   2   4    3.60    1.81
  -8   2   4    4.79    1.93
  -8  -2   4    7.33    1.97
  -7  -2   4   83.92    7.42
  -7   2   4   74.12    7.03
  -7  -2   4   65.18    5.65
  -7   2   4   75.59    5.75
  -6  -2   4  234.96   14.66
  -6   2   4  210.27   14.24
   6   2  -4  260.01   14.90
   6  -2  -4  218.59   14.32
  -6   2   4  229.79   12.74
  -5  -2   4  115.74    8.70
  -5   2   4  105.25    8.47
   5   2  -4  134.53    9.28
   5  -2  -4  123.41    9.04
  -5   2   4  132.12    7.67
  -5   2   4  122.96    8.15
  -4   2   4   13.34    2.08
  -4  -2   4   14.77    2.79
  -4   2   4    8.16    2.28
  -4   2   4   10.91    1.64
   4   2  -4   14.54    2.65
   4  -2  -4    9.01    2.25
  -3  -2   4   32.89    4.31
   3   2  -4   37.57    5.14
   3  -2  -4   32.40    5.27
  -3   2   4   62.07    3.42
  -3   2   4   72.78    4.65
  -3   2   4   10.80    3.02
  -2  -2   4  811.78   38.78
  -2   2   4  783.48   38.72
   2   2  -4  763.42   38.33
   2  -2  -4  706.81   38.01
  -2   2   4  815.95   37.12
  -1  -2   4  239.85   13.96
  -1   2   4  238.56   13.99
   1   2  -4  249.59   14.19
   1  -2  -4  227.15   13.84
  -1   2   4  246.81   12.79
   0  -2   4   75.75    6.16
   0   2   4   84.65    6.39
   0   2  -4   77.25    6.16
   0  -2  -4   63.31    5.79
   0  -2   4   82.11    6.14
   0   2   4   77.07    4.03
  -1   2  -4    1.56    2.13
  -1  -2  -4    3.80    1.94
   1   2   4    1.34    0.48
   1  -2   4    1.92    1.97
  -2   2  -4  223.94   13.38
  -2  -2  -4  229.24   13.35
   2   2   4  209.65   10.49
   2  -2   4  216.13   12.73
  -3   2  -4  430.34   25.96
  -3  -2  -4  490.20   26.33
   3  -2   4  453.97   25.59
  -4   2  -4  191.17   12.73
  -4  -2  -4  204.24   12.85
   4   2   4  186.70   10.38
   4  -2   4  196.65   12.15
  -4  -2  -4  216.48   10.94
  -5   2  -4   71.34    7.00
  -5  -2  -4   70.88    6.95
   5  -2   4   73.75    6.52
  -5  -2  -4   85.83    5.64
  -6   2  -4   64.85    6.70
  -6  -2  -4   68.12    6.76
  -6  -2  -4   63.18    6.27
  -6   2  -4   68.14    6.38
   6  -2   4   65.47    5.95
  -6  -2  -4   68.37    5.18
  -6   2  -4   67.45    6.42
  -7  -2  -4  318.13   19.30
  -7   2  -4  302.83   18.97
  -7   2  -4  354.07   19.35
   7  -2   4  320.36   18.62
  -7  -2  -4  322.21   17.40
   8  -2   4  232.52   14.40
  -8  -2  -4  222.03   13.02
   8   2   4  214.02   12.03
  -8  -2  -4  219.42   15.02
  -8   2  -4  209.21   14.48
   9  -2   4   74.11    7.06
  -9  -2  -4   66.57    6.03
   9   2   4   57.55    4.80
  -9  -2  -4   62.53    7.16
  -9   2  -4   68.69    7.31
 -10  -2  -4   47.12    6.86
 -10   2  -4   53.12    7.02
  10   2   4   41.51    3.89
  10  -2   4   31.96    4.92
 -11   2  -4   70.90    7.95
  11  -2   4   96.44    8.71
 -11   2  -4   92.93    9.36
 -11  -2  -4   86.15    9.44
 -12   2  -4   75.55    8.52
  12  -2   4  100.63    8.80
 -14  -3   4   -6.00    4.55
 -14   3   4   -4.76    4.24
 -13  -3   4   -3.74    3.76
 -13   3   4   -3.57    3.69
 -12  -3   4    7.83    3.63
 -12   3   4   17.47    4.82
  11  -3  -4   27.82    3.90
 -11   3   4   28.41    5.44
  11  -3  -4   31.95    4.89
 -11  -3   4   24.85    5.19
 -10  -3   4   13.01    2.67
  10  -3  -4   17.43    3.11
 -10  -3   4   14.05    3.76
 -10   3   4    9.95    3.36
 -10   3   4   19.09    3.35
  10  -3  -4   13.73    3.18
  -9  -3   4    1.49    1.45
   9  -3  -4    1.96    1.66
  -9  -3   4    1.34    2.01
  -9   3   4    0.65    1.74
  -9   3   4    1.52    1.69
   9  -3  -4    2.63    2.00
  -8  -3   4   13.12    3.16
  -8   3   4    4.05    2.22
  -8   3   4    7.53    2.13
   8  -3  -4    8.25    2.28
  -8  -3   4    8.81    2.19
   7   3  -4   85.87    5.61
  -7  -3   4  102.65    8.36
  -7   3   4   84.82    7.96
   7  -3  -4   97.98    7.70
  -7   3   4   95.94    6.77
  -7   3   4  102.75    7.57
  -6   3   4   12.51    2.40
  -6  -3   4    7.56    2.37
  -6   3   4   10.65    2.44
  -6   3   4    9.65    1.96
  -5   3   4   23.86    3.10
  -5   3   4   25.09    3.49
  -5   3   4   23.44    2.57
  -5  -3   4   18.97    3.26
   5   3  -4   19.95    3.36
   5  -3  -4   20.46    3.34
  -4   3   4    8.65    1.86
  -4  -3   4    7.81    2.09
  -4   3   4    8.58    2.08
  -4   3   4    6.00    1.34
   4   3  -4    7.81    2.09
   4  -3  -4   12.45    2.44
  -3   3   4   22.68    2.01
  -3  -3   4   19.27    3.19
  -3   3   4   19.69    3.22
  -3   3   4   22.36    2.76
   3   3  -4   23.16    3.29
   3  -3  -4   22.19    3.13
  -2   3   4    1.83    0.90
  -2  -3   4    2.17    1.57
  -2   3   4    2.55    1.54
   2   3  -4    3.89    1.50
   2  -3  -4    0.35    1.40
  -2   3   4    0.82    0.53
  -1  -3   4   44.82    4.38
  -1   3   4   43.21    4.43
   1   3  -4   51.82    4.77
   1  -3  -4   33.31    4.01
  -1   3   4   49.11    3.61
   0  -3   4  134.87    9.02
   0   3   4  136.87    9.22
   0   3  -4  137.09    9.23
   0  -3  -4  129.20    9.02
   0   3   4  141.70    7.74
  -1   3  -4   44.75    4.51
  -1  -3  -4   38.64    4.22
   1   3   4   41.50    3.05
  -2   3  -4    0.41    1.66
  -2  -3  -4    3.54    1.90
   2   3   4    3.26    0.79
   2  -3   4    3.88    1.60
   3  -3   4   50.48    4.96
  -3   3  -4   45.83    5.02
  -3  -3  -4   41.57    4.61
  -4   3  -4  175.05   11.34
  -4  -3  -4  164.40   11.06
  -4  -3  -4  159.95    8.47
   4  -3   4  161.45   10.90
  -5   3  -4   45.73    5.35
  -5  -3  -4   36.26    4.92
  -5  -3  -4   54.41    5.35
  -5   3  -4   51.01    5.15
   5  -3   4   53.31    5.46
  -5  -3  -4   53.84    3.79
  -6   3  -4   -0.47    1.47
   6   3   4    0.68    0.63
  -6   3  -4   -1.61    2.22
  -6  -3  -4    0.51    2.16
   6  -3   4    0.47    1.61
  -6  -3  -4    1.31    1.15
  -6  -3  -4   -0.49    1.68
  -6   3  -4   -0.51    1.85
   7   3   4    2.66    0.79
  -7  -3  -4    0.54    2.04
  -7   3  -4    0.51    1.61
   7  -3   4    3.95    2.20
  -7  -3  -4    2.37    1.41
   8   3   4   28.78    2.33
  -8  -3  -4   30.96    3.59
  -8  -3  -4   35.70    5.17
  -8   3  -4   40.77    5.27
   8  -3   4   34.97    4.79
  -9  -3  -4   12.97    3.63
  -9   3  -4   13.43    3.56
   9  -3   4   11.38    3.29
   9   3   4    9.83    1.33
 -10  -3  -4    0.75    2.46
 -10   3  -4    1.43    2.13
 -10   3  -4    1.31    2.56
  10  -3   4    1.84    2.47
 -11   3  -4    4.13    3.06
  11  -3   4   -0.64    2.42
 -11  -3  -4   -0.76    3.21
 -11   3  -4   -1.45    3.36
 -12   3  -4    1.40    2.89
 -13  -4   4   34.31    6.25
 -13   4   4   39.30    6.72
  13  -4  -4   39.72    5.92
 -12  -4   4   28.41    5.63
 -12   4   4   28.46    5.60
  12  -4  -4   31.86    5.19
  11  -4  -4  111.05    8.91
 -11  -4   4   97.41   10.12
 -11   4   4   99.14    9.95
  11  -4  -4  127.11   10.15
  10  -4  -4  154.00   10.74
 -10  -4   4  143.06   12.12
 -10   4   4  147.27   11.92
  10  -4  -4  140.54   11.06
 -10  -4   4  141.99    9.87
   9  -4  -4  180.49   12.13
  -9  -4   4  181.69   13.33
  -9   4   4  159.13   12.67
   9  -4  -4  194.61   12.91
  -9  -4   4  183.01   11.32
  -9   4   4  173.69   11.54
  -8  -4   4  153.33   11.46
  -8   4   4  135.52   11.02
  -8  -4   4  146.09    9.86
   8  -4  -4  155.93   10.99
  -8   4   4  158.69   10.08
   8  -4  -4  152.08   10.65
  -7  -4   4  295.72   17.46
  -7   4   4  264.62   17.08
   7  -4  -4  295.03   17.05
  -7   4   4  281.71   15.74
   7   4  -4  283.85   14.64
   6   4  -4  535.46   25.50
  -6  -4   4  481.56   26.91
  -6   4   4  454.90   26.75
   6  -4  -4  535.06   27.18
  -6   4   4  531.33   25.76
   5   4  -4  428.39   22.09
  -5  -4   4  416.39   23.20
  -5   4   4  403.68   23.11
   5  -4  -4  443.18   23.04
   5   4  -4  450.97   23.50
   5  -4  -4  414.68   23.28
  -5   4   4  443.60   21.64
  -4  -4   4  437.27   23.55
  -4   4   4  432.58   23.58
   4   4  -4  454.67   23.80
   4  -4  -4  431.39   23.65
  -4   4   4  459.84   21.87
  -3  -4   4  483.98   21.75
  -3   4   4  345.86   20.61
   3   4  -4  492.81   21.72
   3  -4  -4  335.54   20.32
  -3   4   4  360.45   18.76
  -2  -4   4 2239.23   79.84
  -2   4   4 1491.73   78.59
   2   4  -4 2159.61   79.87
   2  -4  -4 1502.13   78.55
  -2   4   4 1606.32   76.09
  -2   4   4 1687.47   77.98
  -1  -4   4  679.44   29.92
  -1   4   4  533.63   29.32
   1   4  -4  695.03   30.12
   1  -4  -4  483.00   28.89
  -1   4   4  588.73   28.32
   0   4  -4  524.81   25.35
   0  -4  -4  460.68   24.84
   0   4   4  474.37   23.31
  -1   4  -4  227.89   13.13
  -1  -4  -4  207.65   12.73
  -2   4  -4  369.59   19.57
  -2  -4  -4  323.37   18.99
  -3   4  -4  414.97   22.02
  -3  -4  -4  379.75   21.52
  -4   4  -4  173.31   11.60
  -4  -4  -4  173.30   11.51
  -5   4  -4  109.86    9.07
  -5  -4  -4  124.50    9.23
  -5  -4  -4  139.48    9.40
  -5   4  -4  100.01    8.29
   5  -4   4   93.28    8.71
  -5  -4  -4  133.50    6.64
  -6   4  -4   63.84    6.80
  -6  -4  -4   56.02    6.17
  -6  -4  -4   63.77    6.32
  -6   4  -4   61.12    6.03
   6  -4   4   63.07    6.52
  -6  -4  -4   63.68    4.41
  -7   4  -4  115.58    9.78
   7  -4   4  112.28    9.24
  -7  -4  -4  115.43    7.15
  -7  -4  -4  114.12    9.31
  -7   4  -4  114.88    9.12
  -8   4  -4   48.47    6.51
   8  -4   4   66.26    6.85
  -8  -4  -4   57.27    6.61
  -8   4  -4   50.34    5.99
  -9  -4  -4   24.19    5.02
  -9   4  -4   26.41    4.88
  -9   4  -4   22.54    4.75
   9  -4   4   24.38    4.52
 -10  -4  -4   10.01    3.73
 -10   4  -4    9.36    3.26
 -10   4  -4    7.30    3.34
  10  -4   4   11.97    3.70
 -11   4  -4   27.08    5.32
 -13  -5   4   14.33    4.59
 -13   5   4    6.69    3.65
 -12  -5   4   -0.83    2.74
 -12   5   4    1.56    2.56
  12  -5  -4    1.39    1.98
 -11   5   4   -0.71    2.23
  11  -5  -4   -1.31    2.15
 -10  -5   4   15.48    2.80
 -10  -5   4   11.65    3.71
 -10   5   4   12.99    3.58
  10  -5  -4   10.98    3.11
  -9   5   4   51.45    6.12
  -9  -5   4   46.78    4.83
   9  -5  -4   48.79    5.87
   9   5  -4   45.14    5.08
  -9   5   4   49.63    5.23
   9  -5  -4   39.19    5.06
  -9  -5   4   51.44    6.19
   8  -5  -4   30.13    4.60
  -8  -5   4   24.92    4.20
  -8   5   4   19.69    3.76
  -8   5   4   31.88    3.94
   8  -5  -4   27.75    4.26
   7  -5  -4   18.88    3.74
  -7  -5   4   27.33    3.90
  -7   5   4   15.72    3.24
  -7   5   4   25.63    3.29
   7  -5  -4   20.59    3.50
   6   5  -4    9.16    2.10
  -6  -5   4    4.55    2.09
  -6   5   4    9.76    2.71
  -6   5   4    8.12    1.95
   6  -5  -4    8.28    2.25
   5   5  -4   39.55    4.17
  -5  -5   4   34.58    4.31
  -5   5   4   31.20    4.23
   5  -5  -4   37.41    4.30
  -5   5   4   44.77    3.81
   4   5  -4   26.93    3.62
   4  -5  -4   33.31    3.73
  -4  -5   4   27.99    3.67
  -4   5   4   24.50    3.47
  -4   5   4   32.07    2.89
   4   5  -4   27.19    3.72
   4  -5  -4   27.20    3.72
  -3  -5   4   32.49    3.90
  -3   5   4   40.79    4.31
   3   5  -4   40.70    4.59
   3   5  -4   45.22    4.43
   3  -5  -4   36.05    4.12
  -3   5   4   41.10    3.02
  -2  -5   4   65.61    5.37
  -2   5   4   56.64    5.21
   2   5  -4   71.70    6.32
   2   5  -4   71.13    5.69
   2  -5  -4   60.37    5.41
   1   5  -4    7.52    2.60
  -1  -5   4    2.16    1.50
  -1   5   4    3.86    1.86
   1   5  -4    2.71    1.64
   1  -5  -4    1.32    1.50
  -1  -5   4    4.75    2.01
   0   5  -4    0.49    1.75
   0   5  -4    0.33    1.50
   0  -5  -4    4.74    2.01
   0  -5   4    0.48    1.52
  -1   5  -4    5.18    2.21
  -1   5  -4    7.12    2.12
  -1  -5  -4    6.39    1.90
   1  -5   4    8.33    2.51
  -2   5  -4  206.71   12.22
  -2  -5  -4  172.69   11.54
   2  -5   4  206.57   13.17
  -3   5  -4   11.62    3.15
  -3   5  -4   11.11    2.80
  -3  -5  -4    9.97    2.59
  -4   5  -4    0.62    2.10
  -4  -5  -4   -0.43    1.90
  -4  -5  -4    0.78    1.17
  -4   5  -4   -0.36    1.37
  -5   5  -4    6.52    2.83
  -5   5  -4    0.48    2.49
  -5  -5  -4    2.21    2.10
  -5  -5  -4    4.00    2.06
  -5   5  -4    4.10    1.83
  -6   5  -4   80.32    7.54
  -6  -5  -4   80.57    7.46
  -6   5  -4   82.29    8.50
  -6  -5  -4   79.97    7.17
  -6   5  -4   68.49    6.68
  -7   5  -4   34.42    5.59
  -7   5  -4   26.10    4.06
  -7  -5  -4   32.86    4.86
  -8  -5  -4    1.32    2.72
  -8   5  -4    0.74    2.63
  -8   5  -4    1.20    1.88
   8  -5   4   -0.62    2.12
  -9  -5  -4   -1.97    2.32
  -9   5  -4    0.61    2.14
  -9   5  -4    1.51    2.67
   9  -5   4   -0.66    2.07
 -10   5  -4    4.57    3.23
 -10  -5  -4    4.81    2.84
 -10   5  -4    0.63    2.16
 -13  -6   4   20.75    4.89
 -13   6   4   26.13    5.15
 -12  -6   4   55.10    7.36
 -12   6   4   55.81    7.07
 -11  -6   4   22.21    4.55
 -11   6   4   31.64    5.27
  11  -6  -4   27.65    4.76
 -10  -6   4   31.70    5.38
 -10   6   4   37.52    5.58
  10  -6  -4   41.05    5.62
  -9  -6   4   38.74    4.47
   9  -6  -4   44.84    5.74
   9   6  -4   55.39    5.47
   9  -6  -4   46.45    5.42
  -9   6   4   45.37    5.66
  -9  -6   4   39.77    5.48
   8   6  -4   45.10    4.76
   8  -6  -4   57.33    6.02
   8  -6  -4   52.00    5.23
  -8  -6   4   36.33    4.93
  -8   6   4   37.46    5.08
  -8   6   4   43.88    4.81
  -7  -6   4   54.31    5.92
  -7   6   4   58.39    5.94
   7  -6  -4   56.15    6.02
  -7   6   4   62.50    5.47
  -6  -6   4   51.66    5.27
  -6   6   4   45.00    5.06
   6  -6  -4   58.00    5.68
  -6   6   4   48.18    4.60
  -5  -6   4   39.11    4.49
  -5   6   4   39.41    4.50
   5  -6  -4   47.14    4.89
  -5   6   4   44.37    4.00
   5   6  -4   51.94    5.09
  -4  -6   4   62.75    5.00
  -4   6   4   33.15    4.07
   4  -6  -4   34.39    4.11
  -4   6   4   34.52    3.39
   4   6  -4   72.98    6.02
  -3  -6   4  117.07    7.47
  -3   6   4   79.08    6.83
   3  -6  -4   95.67    7.26
   3   6  -4  131.69    8.12
   3  -6  -4   87.27    7.22
  -2  -6   4   57.18    4.83
  -2   6   4   58.49    4.91
   2   6  -4   67.70    6.42
   2   6  -4   67.70    5.48
   2  -6  -4   47.62    4.85
   1   6  -4   78.15    7.09
   1   6  -4   57.88    5.21
   1  -6  -4   53.62    5.17
  -1  -6   4   70.31    6.79
   0   6  -4   57.64    6.41
   0   6  -4   60.45    5.20
   0  -6  -4   49.98    4.83
   0  -6   4   68.69    6.60
  -1   6  -4   81.33    7.96
  -1   6  -4   84.47    6.41
  -1  -6  -4   74.57    6.12
   1  -6   4   86.52    7.81
  -2   6  -4   46.47    4.89
  -2  -6  -4   45.50    4.71
   2  -6   4   56.10    6.08
  -3   6  -4   85.23    6.91
  -3  -6  -4   68.43    6.28
  -3  -6  -4   89.79    6.61
  -3   6  -4   82.11    6.29
   3  -6   4   97.20    8.23
  -4   6  -4   75.52    8.21
  -4   6  -4   69.46    6.80
  -4  -6  -4   69.99    6.55
  -4  -6  -4   77.39    6.33
  -4   6  -4   67.59    5.83
   4  -6   4   68.77    7.14
  -5   6  -4   68.94    7.90
  -5   6  -4   72.51    6.75
  -5  -6  -4   49.33    5.86
   5  -6   4   79.93    7.59
  -5  -6  -4   59.12    5.90
  -5   6  -4   69.18    6.02
  -6   6  -4   83.30    7.80
  -6  -6  -4   79.28    7.49
  -6  -6  -4   96.83    7.92
  -6   6  -4   80.45    7.04
  -7   6  -4   50.85    7.41
  -7   6  -4   65.58    6.91
  -8   6  -4   52.98    7.21
  -8   6  -4   58.62    6.29
  -8  -6  -4   49.08    6.15
  -9  -6  -4   46.30    6.10
  -9   6  -4   37.65    5.45
 -10  -6  -4   48.00    6.45
 -10   6  -4   45.49    6.01
 -12   7   4    1.97    2.63
 -11   7   4    7.74    3.05
 -10   7   4    1.06    2.18
  10  -7  -4    5.88    3.03
  -9  -7   4    2.11    2.28
  -9   7   4    0.50    2.38
   9  -7  -4    0.61    2.32
   8   7  -4    0.36    1.97
  -8  -7   4    2.92    2.06
  -8   7   4    3.80    2.11
  -8   7   4    3.33    1.97
   8  -7  -4    0.57    2.29
  -7  -7   4   18.56    3.43
  -7   7   4   20.63    3.56
   7   7  -4   17.89    3.03
  -7   7   4   24.71    3.42
   7  -7  -4   15.73    3.33
  -6  -7   4    6.65    2.14
  -6   7   4    5.94    2.01
   6  -7  -4    8.58    2.72
  -6   7   4    4.00    1.94
  -5  -7   4    7.24    2.01
  -5   7   4    3.71    1.73
   5  -7  -4    4.75    1.97
  -4  -7   4    3.63    1.55
  -4   7   4    2.62    1.64
   4  -7  -4    5.79    1.91
   3   7  -4   14.14    3.18
  -3   7   4    9.88    2.14
   3  -7  -4   15.38    2.71
   2   7  -4   13.51    3.20
   2   7  -4   12.65    2.25
   2  -7  -4   12.45    2.40
  -2  -7   4   10.05    2.96
   1   7  -4   16.15    3.62
   1   7  -4   12.74    2.22
   1  -7  -4   12.30    2.28
  -1  -7   4    9.38    2.83
   0   7  -4   29.73    4.78
   0   7  -4   26.90    3.25
   0  -7  -4   28.10    3.34
   0  -7   4   36.07    4.86
  -1   7  -4    1.99    2.51
  -1  -7  -4   -0.25    1.06
  -1   7  -4    0.30    1.22
  -1  -7  -4    0.29    1.34
  -1   7  -4    0.68    1.05
   1  -7   4   -0.60    1.89
  -2   7  -4    5.54    3.08
  -2  -7  -4    2.28    1.33
  -2   7  -4    0.96    1.26
  -2  -7  -4    5.11    1.76
  -2   7  -4    4.38    1.41
   2  -7   4    3.01    2.14
  -3   7  -4    1.43    1.37
  -3   7  -4    8.72    2.31
   3  -7   4    7.38    2.92
  -3  -7  -4    6.30    1.99
  -4   7  -4   38.99    6.28
  -4   7  -4   42.30    4.71
  -4  -7  -4   43.86    4.64
  -4   7  -4   37.11    4.15
   4  -7   4   37.94    5.39
  -5   7  -4   11.66    4.06
  -5  -7  -4   13.85    3.18
  -5   7  -4   11.15    2.66
  -5   7  -4   11.32    2.96
   5  -7   4    9.87    3.39
  -6   7  -4    0.42    1.91
  -6   7  -4    2.41    2.95
   6  -7   4   -0.67    2.21
  -7   7  -4   -0.90    1.89
  -8   7  -4   10.63    2.79
   9  -8  -4   52.75    6.51
  -8   8   4   68.95    6.34
   8  -8  -4   83.26    7.94
  -7   8   4   90.53    7.14
   7  -8  -4   80.01    7.77
  -6   8   4   63.32    5.41
   6  -8  -4   62.17    6.36
  -5   8   4   69.37    5.22
   5  -8  -4   65.95    6.42
   4  -8  -4  166.99   11.22
   4   8  -4  175.07    9.47
   3  -8  -4  197.89   12.06
  -3  -8   4  193.23   14.09
  -2  -8   4  190.01   13.84
   1   8  -4   72.72    4.80
  -1  -8   4   81.82    8.26
   0   8  -4  153.07    8.70
   0   8  -4  183.14    9.46
   0  -8   4  166.96   12.68
   0   8  -4  153.82   12.62
   1  -8   4  183.57   12.75
  -1   8  -4  149.02    8.56
  -1   8  -4  156.73   12.58
   2  -8   4   78.74    8.15
  -2   8  -4   84.58    5.72
  -2   8  -4   95.81    9.45
   3  -8   4   60.76    6.97
  -3   8  -4   50.03    4.47
  -3   8  -4   65.31    7.86
  -4   8  -4   66.47    5.48
   4  -8   4   69.11    7.66
   7  -9  -4    0.55    1.73
   6  -9  -4    0.51    1.73
   5  -9  -4    8.26    2.51
  -5  -9   4    4.14    2.55
  -4  -9   4    6.96    2.96
  -3  -9   4    1.37    2.33
  -2  -9   4    1.37    2.43
  -1  -9   4    4.80    2.52
   0  -9   4    5.44    2.74
   1  -9   4    2.74    2.52
 -13   0   5   -0.97    3.42
  11   0  -5   -0.63    0.92
 -11   0   5   -1.68    3.28
 -10   0   5   -0.75    2.26
  -9   0   5   -0.43    1.77
  -9   0   5    0.71    2.31
  -9   0   5   -0.78    1.52
  -8   0   5   -0.40    1.59
  -8   0   5   -0.65    1.74
  -7   0   5   -0.37    1.44
  -7   0   5   -1.15    1.73
   7   0  -5   -0.57    2.09
  -6   0   5   -0.54    1.45
   6   0  -5   -1.05    1.41
  -6   0   5   -0.69    1.27
  -5   0   5    1.57    1.57
  -4   0   5   -0.49    1.53
   4   0  -5    1.89    1.73
  -3   0   5    0.46    1.52
   3   0  -5   -0.90    1.59
  -2   0   5    0.46    1.51
   2   0  -5    1.20    1.31
  -1   0   5    0.86    1.47
   1   0  -5   -0.45    1.40
   0   0   5    0.89    1.73
   0   0  -5    0.44    2.13
   0   0   5    0.49    0.97
  -1   0  -5   -0.43    1.69
   1   0   5    0.24    0.92
  -2   0  -5   -1.00    1.89
   2   0   5    0.25    0.96
  -3   0  -5   -0.51    1.94
   3   0   5    0.27    1.09
  -4   0  -5   -2.08    2.09
   4   0   5    0.57    1.05
  -5   0  -5    0.56    2.32
   5   0   5   -0.32    1.24
   6   0   5   -0.73    1.63
  -6   0  -5   -1.07    1.96
  -6   0  -5    0.77    1.58
  -7   0  -5   -1.76    1.76
   7   0   5    0.39    1.46
  -7   0  -5   -0.42    1.75
  -8   0  -5   -0.64    2.27
   8   0   5    0.85    1.51
  -8   0  -5   -1.37    1.78
   9   0   5   -0.46    1.73
  -9   0  -5   -0.68    2.24
 -10   0  -5   -2.26    2.76
  10   0   5   -1.46    2.35
  11   0   5   -0.91    1.73
 -13  -1   5   38.81    6.85
 -12  -1   5   15.41    4.51
  11  -1  -5  130.11    8.21
 -11  -1   5  136.62   12.17
 -10  -1   5  221.10   16.24
 -10   1   5  228.92   14.01
  -9  -1   5  155.78   12.21
  -9   1   5  148.32    9.82
  -9  -1   5  135.17    9.82
  -9   1   5  146.50   10.34
  -8   1   5   37.83    4.23
  -8  -1   5   35.88    4.32
  -8   1   5   47.01    4.87
  -8  -1   5   37.65    5.54
  -7  -1   5  168.07   12.23
   7  -1  -5  176.30   12.48
  -7  -1   5  174.50   10.87
  -7   1   5  159.61   10.25
  -6  -1   5  481.09   26.46
   6  -1  -5  471.00   26.29
  -5  -1   5  212.25   13.93
   5  -1  -5  198.80   13.50
  -5   1   5  219.19   12.54
  -4  -1   5  162.58   12.02
   4  -1  -5  189.62   12.35
  -4   1   5  191.86   11.07
  -3  -1   5  426.20   24.17
   3  -1  -5  459.21   24.47
  -2  -1   5  485.59   26.05
   2  -1  -5  468.88   25.53
  -1  -1   5  324.59   19.36
   1  -1  -5  368.33   19.86
   0  -1   5  226.31   13.52
   0  -1  -5  168.38   11.99
   0   1   5  169.69   10.02
   0  -1   5  235.05   12.12
  -1  -1  -5  107.66    9.37
   1   1   5  116.11    7.74
  -2  -1  -5  279.70   17.26
   2   1   5  274.28   14.61
   2  -1   5  301.16   15.92
  -3  -1  -5  387.12   22.00
   3   1   5  403.98   19.32
   3  -1   5  353.43   20.12
  -4  -1  -5   88.68    7.85
   4  -1   5   91.85    6.87
   4   1   5   87.75    6.02
  -5  -1  -5   53.37    6.03
   5   1   5   48.21    4.21
   5  -1   5   47.17    4.69
   6   1   5  140.93    9.40
  -6  -1  -5  152.43   11.25
   6  -1   5  159.95   10.40
  -6  -1  -5  165.48    9.99
  -6   1  -5  149.53   10.46
  -7  -1  -5  128.80   10.70
   7   1   5  137.14    9.19
   7  -1   5  155.58   10.32
  -7  -1  -5  137.79    9.48
  -7   1  -5  148.58   10.46
  -8  -1  -5   68.77    7.59
   8   1   5   82.80    6.44
   8  -1   5   69.99    6.74
  -8  -1  -5   75.95    6.67
   9  -1   5   14.84    3.36
  -9  -1  -5    9.69    3.32
 -10  -1  -5   39.73    6.19
  10  -1   5   36.81    4.96
  10   1   5   35.31    4.17
  11  -1   5   49.40    6.10
  12  -1   5   43.75    5.48
 -13  -2   5    2.91    3.04
 -13   2   5   -0.94    3.33
  12  -2  -5    3.19    1.82
 -12   2   5    2.64    2.77
 -12  -2   5    0.91    2.98
  11  -2  -5    6.42    2.04
 -11  -2   5    4.13    3.04
 -11   2   5    8.03    3.24
  10  -2  -5    2.05    1.77
 -10  -2   5    0.76    2.61
 -10   2   5    0.74    2.43
 -10   2   5    1.69    1.65
  -9  -2   5   -0.41    1.23
  -9  -2   5    0.71    1.89
  -9   2   5    0.69    2.78
  -9   2   5    0.38    1.44
  -8  -2   5    0.64    2.41
  -8   2   5   -0.63    2.60
  -8   2   5    0.33    1.42
  -8  -2   5    0.78    1.39
  -7   2   5   27.42    3.83
  -7  -2   5   32.32    3.96
  -7   2   5   31.82    3.58
  -7  -2   5   35.60    5.02
  -7   2   5   28.01    4.39
  -6   2   5    1.10    1.29
  -6  -2   5    1.62    1.84
  -6   2   5    0.53    1.74
  -6   2   5    0.79    1.42
   6   2  -5   -1.07    1.82
   6  -2  -5    0.53    1.51
  -5   2   5    0.33    1.13
  -5  -2   5    1.58    1.73
  -5   2   5   -0.52    1.64
  -5   2   5   -0.23    1.08
   5   2  -5    1.47    1.54
   5  -2  -5   -0.49    1.38
  -4   2   5    5.50    1.63
  -4  -2   5    8.93    2.60
  -4   2   5    6.09    2.36
  -4   2   5    3.23    1.14
   4   2  -5    4.75    1.97
   4  -2  -5    6.09    2.04
  -3  -2   5   33.66    4.54
  -3   2   5   46.79    5.13
   3   2  -5   44.82    4.93
   3  -2  -5   38.46    4.69
  -3   2   5   47.98    4.09
  -2  -2   5   40.35    4.74
  -2   2   5   39.66    4.78
   2   2  -5   31.88    4.47
   2  -2  -5   35.87    4.53
  -2   2   5   44.17    3.78
  -1  -2   5    4.74    1.79
  -1   2   5    2.18    1.61
   1   2  -5    5.32    2.15
   1  -2  -5    4.74    2.09
  -1   2   5    4.23    0.87
   0  -2   5   -0.44    1.54
   0   2   5    1.32    1.77
   0   2  -5    0.46    1.56
   0  -2  -5   -0.45    1.64
   0   2   5    1.22    0.63
   0  -2   5    0.73    1.35
  -1   2  -5    5.11    2.02
  -1  -2  -5    4.06    2.27
   1   2   5    4.96    0.86
   1  -2   5    2.57    1.57
  -2   2  -5    5.67    2.24
  -2  -2  -5    3.50    2.17
   2   2   5    3.21    0.90
   2  -2   5    3.37    1.63
  -3   2  -5    2.61    2.04
  -3  -2  -5    2.02    1.79
   3   2   5    2.60    0.93
   3  -2   5    1.94    1.69
  -4   2  -5    5.89    2.33
  -4  -2  -5    4.14    2.30
   4   2   5    3.57    1.08
   4  -2   5    2.88    1.79
  -5   2  -5   -0.58    2.44
  -5  -2  -5    0.55    2.23
   5   2   5   -0.20    1.04
   5  -2   5    0.44    1.37
   6  -2   5    3.56    1.98
  -6  -2  -5    1.09    1.86
  -6   2  -5    4.22    2.24
  -6  -2  -5    3.27    1.39
  -7   2  -5    0.58    1.73
   7  -2   5    1.93    1.83
  -7  -2  -5   -3.60    2.05
  -8  -2  -5    6.42    2.72
  -8   2  -5    2.50    2.05
   8  -2   5    1.59    1.89
   9   2   5    2.60    1.35
  -9  -2  -5    1.40    2.20
  -9   2  -5    2.71    2.40
   9  -2   5    0.56    1.90
 -10  -2  -5    3.88    2.85
 -10   2  -5   -0.75    3.19
  10  -2   5    2.87    2.17
 -13  -3   5   19.86    5.56
 -13   3   5   12.88    4.82
  12  -3  -5   27.97    3.97
 -12  -3   5   27.01    5.73
 -12   3   5   27.01    5.38
  11  -3  -5   66.76    6.27
 -11  -3   5   66.05    8.11
 -11   3   5   61.93    7.80
 -10  -3   5  194.07   14.30
 -10   3   5  177.67   13.80
  10  -3  -5  168.18   11.53
   9   3  -5   66.82    4.12
  -9  -3   5   77.38    8.07
  -9   3   5   72.25    7.78
  -9  -3   5   74.06    6.38
  -9   3   5   76.37    6.27
  -8  -3   5   70.06    7.44
  -8   3   5   65.13    7.12
  -8  -3   5   87.03    6.82
  -8   3   5   78.54    6.16
  -8   3   5   71.51    6.72
  -7  -3   5  104.95    8.73
  -7   3   5   97.66    8.55
  -7   3   5  107.11    7.20
  -7   3   5   84.88    7.47
  -6  -3   5  343.13   19.72
  -6   3   5  303.49   19.24
   6   3  -5  327.42   19.39
   6  -3  -5  342.11   19.65
  -6   3   5  324.37   17.15
  -6   3   5  318.65   18.14
  -5  -3   5  244.37   15.16
  -5   3   5  226.45   14.88
   5   3  -5  219.74   14.48
   5  -3  -5  213.44   14.42
  -5   3   5  244.84   12.71
  -5   3   5  243.11   13.84
  -4  -3   5  183.01   12.16
  -4   3   5  164.18   11.86
   4   3  -5  179.35   12.13
   4  -3  -5  169.24   11.96
  -4   3   5  183.38    9.89
  -4   3   5  209.65   11.41
  -3  -3   5  483.45   26.11
  -3   3   5  417.71   25.52
   3   3  -5  482.21   25.94
   3  -3  -5  445.96   25.75
  -3   3   5  500.57   22.79
  -3   3   5  473.12   24.37
  -2  -3   5  496.27   24.95
  -2   3   5  415.94   24.69
   2   3  -5  468.40   24.99
   2  -3  -5  429.39   24.31
  -2   3   5  445.78   21.10
  -2   3   5  487.57   22.99
  -1  -3   5  574.35   26.74
  -1   3   5  438.61   25.84
   1   3  -5  578.36   26.88
   1  -3  -5  436.75   25.70
  -1   3   5  484.51   24.36
   0   3  -5  261.16   14.05
   0  -3  -5  177.29   12.64
   0   3   5  163.93   10.70
   0  -3   5  280.46   14.26
   0  -3   5  262.40   13.79
   0   3   5  194.10   12.82
  -1   3  -5  284.40   16.51
  -1  -3  -5  236.16   15.78
   1   3   5  286.96   14.23
   1  -3   5  287.88   16.41
  -2   3  -5  219.77   14.16
  -2  -3  -5  210.27   13.87
   2   3   5  222.45   11.62
   2  -3   5  238.41   14.09
   3  -3   5  349.34   20.13
  -3   3  -5  368.45   21.10
  -3  -3  -5  361.64   20.83
  -4   3  -5  129.91   10.68
   4  -3   5  126.79    9.95
  -5   3  -5   92.64    8.61
  -5  -3  -5  108.98    9.24
   5  -3   5  109.12    8.59
  -6  -3  -5  141.19   10.56
  -6   3  -5  143.82   10.41
   6  -3   5  134.76   10.16
  -6  -3  -5  127.09    7.84
  -7  -3  -5  117.13    9.80
  -7   3  -5   99.23    9.10
   7  -3   5  124.90    9.34
   7   3   5  108.40    6.17
  -8  -3  -5   66.96    7.55
  -8   3  -5   72.43    7.49
   8  -3   5   76.10    7.40
   8   3   5   73.56    4.41
  -9  -3  -5   21.81    4.52
  -9   3  -5   29.53    4.89
   9  -3   5   16.12    3.74
  10  -3   5   39.14    5.69
 -13  -4   5    2.76    3.26
 -13   4   5    6.96    3.87
 -12  -4   5   -0.87    3.38
 -12   4   5    0.82    2.80
  11  -4  -5    5.27    2.36
 -11  -4   5    1.61    2.86
 -11   4   5    2.31    2.73
  10  -4  -5   12.66    3.16
 -10  -4   5    8.87    3.66
 -10   4   5    9.23    3.33
  -9  -4   5   20.63    4.33
  -9   4   5   28.81    4.72
  -9   4   5   27.49    3.61
   8   4  -5    1.89    1.15
  -8  -4   5    1.78    2.02
  -8   4   5    3.98    2.22
  -8   4   5    4.01    1.82
   7   4  -5    0.55    1.25
  -7  -4   5   -1.15    2.04
  -7   4   5   -1.68    1.84
  -7   4   5    1.47    1.45
  -6  -4   5   -0.55    1.80
  -6   4   5    1.08    1.98
  -6   4   5   -0.25    1.02
   6  -4  -5   -0.53    1.66
  -5  -4   5   77.66    7.01
  -5   4   5   69.09    6.75
   5   4  -5   68.35    6.74
   5  -4  -5   82.61    7.27
  -5   4   5   77.03    5.28
  -5   4   5   82.47    6.47
  -4   4   5   20.01    2.94
  -4  -4   5   19.76    3.38
  -4   4   5   15.72    3.19
   4   4  -5   17.60    3.23
   4  -4  -5   16.01    3.22
  -4   4   5   16.73    1.97
  -3   4   5    4.60    1.67
  -3  -4   5    2.24    1.80
  -3   4   5    0.91    1.55
   3   4  -5    0.45    1.87
   3  -4  -5   -0.89    1.79
  -3   4   5    3.55    0.91
  -2   4   5    2.71    1.29
  -2  -4   5    6.29    2.07
  -2   4   5    5.54    2.10
   2   4  -5    2.20    2.17
   2  -4  -5    2.13    1.72
  -1  -4   5   59.62    5.53
  -1   4   5   61.92    5.70
   1   4  -5   49.13    5.41
   1  -4  -5   53.88    5.43
  -1   4   5   54.99    4.42
   0   4   5    6.92    1.49
   0   4  -5   11.29    2.80
   0  -4  -5   12.09    2.71
   1   4   5    5.27    1.18
  -1   4  -5    4.22    2.52
  -1  -4  -5    5.39    2.34
   1  -4   5    5.82    2.40
   2   4   5    3.17    0.85
  -2   4  -5    1.94    2.06
  -2  -4  -5    2.28    1.88
   2  -4   5    2.94    1.86
   3   4   5   -0.09    0.53
  -3   4  -5   -1.09    2.25
  -3  -4  -5   -2.05    2.23
   3  -4   5   -2.50    1.83
  -4   4  -5    8.39    3.02
  -4  -4  -5    9.46    2.80
   4  -4   5   11.00    2.96
  -5  -4  -5    7.52    2.39
  -5   4  -5    5.20    2.96
  -5  -4  -5    7.10    2.60
  -5   4  -5    6.63    2.35
   5  -4   5    6.58    2.71
  -6  -4  -5    7.71    2.75
  -6   4  -5    9.86    2.98
   6  -4   5   14.28    3.41
  -7  -4  -5    6.55    2.72
  -7   4  -5   10.65    3.02
   7  -4   5    6.31    2.68
  -8  -4  -5    4.53    2.94
  -8   4  -5    4.85    2.44
   8  -4   5    1.83    2.16
  -9   4  -5    0.75    2.84
  -9  -4  -5   -1.44    2.46
  -9   4  -5   -0.67    2.55
   9  -4   5    1.30    2.45
 -13  -5   5   34.06    6.33
 -13   5   5   39.48    6.57
 -12  -5   5   35.04    6.10
 -12   5   5   41.75    6.47
 -11  -5   5   65.73    8.00
 -11   5   5   68.73    7.94
 -10  -5   5   74.92    8.10
 -10   5   5   76.63    8.14
  -9  -5   5   87.05    8.72
  -9   5   5   96.13    8.71
  -9   5   5  105.72    7.82
  -8  -5   5   85.68    8.24
  -8   5   5   81.10    7.94
  -8   5   5   92.76    6.96
   7   5  -5   86.61    6.36
  -7  -5   5   79.12    7.64
  -7   5   5   84.30    7.78
  -7   5   5   79.60    6.20
   6   5  -5  114.77    8.08
  -6  -5   5  108.00    8.85
  -6   5   5  104.70    8.77
  -6   5   5  109.44    7.22
   5   5  -5  131.48    9.34
  -5  -5   5  133.08    9.77
  -5   5   5  125.81    9.70
   5   5  -5  136.64   10.01
   5  -5  -5  117.43    9.59
  -5   5   5  138.43    7.91
  -4  -5   5  109.77    8.62
  -4   5   5  115.93    8.82
   4   5  -5  120.62    8.77
   4   5  -5  117.44    8.92
   4  -5  -5  112.53    8.67
  -4   5   5  108.48    6.44
  -3  -5   5  188.75   11.40
  -3   5   5  107.05   10.35
   3   5  -5  250.27   12.63
   3   5  -5  190.29   11.83
   3  -5  -5  131.92   10.54
  -2  -5   5  189.33   11.02
  -2   5   5  119.94   10.10
   2   5  -5  190.56   11.58
   2  -5  -5  131.03   10.12
   1   5  -5  101.89    7.61
   1  -5  -5   76.06    6.84
   0   5  -5   71.94    6.39
   0  -5  -5   63.74    5.93
  -1   5  -5   69.95    6.73
  -1  -5  -5   76.59    6.69
  -2   5  -5   56.95    5.93
  -2  -5  -5   56.91    5.79
  -3   5  -5   38.63    5.14
  -3  -5  -5   39.85    4.99
  -4   5  -5   46.76    6.09
  -4  -5  -5   49.88    6.01
  -4  -5  -5   57.05    5.70
  -4   5  -5   52.25    5.37
   4  -5   5   57.51    6.33
  -5  -5  -5   45.53    5.27
  -5   5  -5   40.79    4.92
  -5   5  -5   33.75    5.52
   5  -5   5   50.45    6.12
  -6  -5  -5   55.27    5.97
  -6   5  -5   37.62    5.19
  -6   5  -5   40.79    6.10
   6  -5   5   36.49    5.37
  -7   5  -5   32.12    5.65
   7  -5   5   39.39    5.52
  -7   5  -5   40.53    5.28
  -7  -5  -5   45.99    5.77
  -8   5  -5   37.66    6.47
  -8  -5  -5   30.08    5.11
  -8   5  -5   40.67    5.46
   8  -5   5   40.24    5.67
  -9  -5  -5   30.11    5.42
  -9   5  -5   24.16    4.90
 -12  -6   5    3.09    2.74
 -12   6   5    2.15    2.63
 -11  -6   5   11.67    3.76
 -11   6   5    9.56    3.75
 -10  -6   5   -0.67    2.37
 -10   6   5   -0.63    2.68
  10  -6  -5    0.67    2.19
  -9  -6   5    0.63    2.59
  -9   6   5    0.60    2.49
   9  -6  -5    4.98    2.57
  -9   6   5    1.60    1.57
  -8  -6   5    2.36    2.68
  -8   6   5    1.14    2.48
  -8   6   5    1.45    1.54
  -7  -6   5   35.06    4.73
  -7   6   5   25.16    4.22
  -7   6   5   25.16    3.29
   6   6  -5   15.99    2.93
  -6  -6   5   15.91    3.19
  -6   6   5   13.89    3.04
  -6   6   5   12.25    2.19
   5   6  -5    3.15    2.13
  -5  -6   5   -1.84    1.95
  -5   6   5   -0.47    1.65
  -5   6   5    0.21    0.88
   4   6  -5    1.45    1.83
  -4  -6   5    2.03    1.76
  -4   6   5    0.42    1.53
   4   6  -5    1.32    1.50
   4  -6  -5    2.21    1.92
  -3  -6   5   43.63    4.96
  -3   6   5   39.15    4.86
   3   6  -5   48.91    5.66
   3   6  -5   45.54    5.15
   3  -6  -5   39.40    4.86
   2   6  -5   50.14    5.75
   2   6  -5   33.91    4.60
   2  -6  -5   34.77    4.60
  -2  -6   5   48.17    5.75
  -2   6   5   30.28    4.39
   1   6  -5    1.80    2.20
   1   6  -5    1.24    1.87
   1  -6  -5    0.41    1.76
  -1  -6   5    4.18    2.33
   0   6  -5    0.63    2.15
   0   6  -5    1.25    1.62
   0  -6  -5    0.80    1.25
   0  -6   5   -0.60    1.69
  -1   6  -5    9.91    3.39
  -1   6  -5    8.96    2.45
  -1  -6  -5    7.25    2.22
   1  -6   5    6.07    2.72
  -2   6  -5    0.69    2.27
  -2   6  -5    4.25    2.06
  -2  -6  -5    5.30    2.26
  -3   6  -5   -0.38    1.60
  -3  -6  -5    2.04    1.73
  -3  -6  -5   -1.81    2.50
  -4   6  -5    6.78    3.21
  -4  -6  -5    6.72    2.50
  -4   6  -5    6.99    2.23
  -4   6  -5   11.99    3.22
  -4  -6  -5   10.08    2.97
  -5   6  -5   -0.78    2.97
  -5   6  -5    0.45    1.35
  -6   6  -5   -4.87    3.52
  -6   6  -5   -0.49    1.79
   6  -6   5    0.67    2.19
  -7  -6  -5   13.09    3.47
  -7   6  -5   -1.08    2.46
  -8  -6  -5   17.06    4.26
  -8   6  -5    6.26    2.81
 -11   7   5   13.46    3.79
 -10   7   5   18.31    4.00
  -9   7   5   46.75    5.80
   9  -7  -5   48.77    6.19
  -8  -7   5   64.99    6.63
  -8   7   5   59.72    6.54
   8  -7  -5   66.32    7.11
  -7  -7   5   38.28    4.74
  -7   7   5   36.32    4.87
  -6  -7   5   37.72    4.98
  -6   7   5   39.88    4.98
  -6   7   5   50.05    4.32
  -5  -7   5  140.20    9.23
   5   7  -5  159.96   10.40
  -4  -7   5  210.99   12.13
   4   7  -5  251.79   14.24
   3   7  -5  229.00   14.82
  -3  -7   5  239.53   16.85
   2   7  -5  187.67   12.78
  -2  -7   5  212.12   15.22
   1   7  -5  120.53    9.04
  -1  -7   5  134.54   10.91
   0   7  -5  180.05   13.74
   0   7  -5  178.35   11.66
   0  -7   5  201.24   13.88
  -1   7  -5  187.88   13.97
  -1   7  -5  171.40   11.58
   1  -7   5  195.78   13.76
  -2   7  -5  116.78   10.75
  -2   7  -5  117.12    8.88
  -2  -7  -5  117.48    8.43
  -2   7  -5  123.56    8.30
   2  -7   5  127.61   10.54
  -3   7  -5   63.48    6.50
  -3  -7  -5   74.20    6.34
  -3   7  -5   69.00    5.94
   3  -7   5   77.04    8.05
  -4  -7  -5  117.55    8.77
  -4   7  -5  103.66    8.22
   4  -7   5  132.89   10.77
  -5  -7  -5   89.27    7.90
  -5   7  -5  100.32    7.91
  -6   7  -5   45.52    5.40
  -7   7  -5   41.52    5.40
  -8   7  -5   35.45    5.03
   8  -8  -5   13.85    3.79
  -6   8   5    9.26    2.42
  -5   8   5   14.74    2.77
  -4  -8   5   17.49    3.99
   3   8  -5    2.46    2.26
  -3  -8   5    0.71    2.51
   2   8  -5    1.99    2.27
  -2  -8   5    1.39    2.27
   1   8  -5    9.81    3.46
  -1  -8   5    4.85    2.80
   0   8  -5    5.15    3.05
   0  -8   5    7.78    3.08
  -1   8  -5   -0.51    1.42
  -1   8  -5   -2.31    2.92
   1  -8   5   -2.07    2.17
  -2   8  -5    0.85    1.07
  -2   8  -5    1.60    2.52
   2  -8   5    1.40    2.56
 -13   0   6    7.85    3.95
 -12   0   6   46.14    7.39
 -11   0   6   66.92    8.42
 -10   0   6   62.27    7.89
  -9   0   6    1.50    2.46
  -8   0   6   38.68    5.74
  -7   0   6   54.97    6.76
   7   0  -6   60.75    6.96
  -6   0   6  134.87   11.10
   6   0  -6  146.10   11.08
  -5   0   6   18.54    3.75
   5   0  -6   22.69    3.98
  -4   0   6   43.34    6.10
   4   0  -6   68.13    7.30
  -3   0   6  196.97   13.82
   3   0  -6  210.28   13.76
  -2   0   6  194.20   12.94
   2   0  -6  182.17   12.42
  -1   0   6  120.29    9.56
   1   0  -6  122.37    9.67
  -1   0   6  126.24    8.08
   0   0   6    4.27    2.48
   0   0  -6    5.53    2.73
   0   0   6    4.54    1.60
  -1   0  -6  119.56    9.52
   1   0   6  116.42    7.75
  -2   0  -6  243.53   16.97
   2   0   6  304.28   15.50
  -3   0  -6  238.65   15.97
   3   0   6  232.09   13.35
   4   0   6   80.99    6.15
   5   0   6   63.99    5.51
   6   0   6  179.00   11.44
  -7   0  -6  207.37   14.47
   7   0   6  195.40   12.48
  -8   0  -6   63.36    7.65
   8   0   6   73.75    6.58
   9   0   6   31.64    4.48
  10   0   6   51.55    5.73
 -13  -1   6    4.92    3.37
 -12  -1   6    6.48    3.62
 -11  -1   6    9.48    3.76
 -10  -1   6    0.79    2.79
  -9  -1   6   -0.69    2.71
  -9   1   6    2.35    1.82
  -8  -1   6    6.99    2.83
  -8   1   6    9.93    2.24
  -7  -1   6    0.67    1.92
  -7  -1   6    4.17    1.81
   7  -1  -6    1.92    2.19
  -6  -1   6    1.29    2.28
   6  -1  -6   -0.58    1.65
  -6   1   6   -0.38    1.26
  -5  -1   6   15.52    3.40
   5  -1  -6   12.41    3.12
  -5   1   6   11.59    2.35
  -4  -1   6    3.31    2.03
   4  -1  -6    2.20    2.03
  -4   1   6    4.54    1.90
  -3  -1   6   34.41    4.76
   3  -1  -6   22.75    4.10
  -2  -1   6   10.93    2.76
   2  -1  -6   17.61    3.62
  -1  -1   6   71.91    6.72
   1  -1  -6   69.08    6.83
  -1   1   6   69.54    4.90
  -1  -1   6   58.09    5.35
   0  -1   6   44.13    5.35
   0  -1  -6   42.23    5.42
   0   1   6   45.62    3.68
   0  -1   6   45.71    4.52
   1   1   6   24.41    2.56
   1  -1   6   24.19    3.26
  -2  -1  -6   26.67    4.30
   2   1   6   24.03    2.66
   2  -1   6   30.31    3.58
  -3  -1  -6   56.01    6.43
   3   1   6   41.67    3.70
   3  -1   6   48.25    4.71
   4  -1   6   39.74    4.46
   4   1   6   39.07    3.74
   5   1   6    6.99    1.83
   5  -1   6    9.06    2.26
   6   1   6    5.86    1.79
   6  -1   6    5.52    2.10
  -7  -1  -6    7.78    2.97
   7   1   6    9.14    2.19
   7  -1   6   11.23    2.83
  -8  -1  -6    2.83    2.84
   8   1   6    1.46    1.55
   8  -1   6    6.80    2.39
   9  -1   6    1.52    1.92
  10  -1   6   -0.54    2.22
 -13  -2   6   32.33    6.36
 -13   2   6   26.69    5.71
 -12  -2   6   74.49    9.30
 -12   2   6   71.57    9.00
 -11  -2   6  148.78   13.19
 -11   2   6  174.00   13.80
  11  -2  -6  150.81   10.26
 -10  -2   6  159.13   13.30
 -10   2   6  167.00   13.27
  -9  -2   6  112.35   10.10
  -9   2   6  110.75   10.14
  -9   2   6  111.49    8.14
  -8  -2   6  179.57   13.78
  -8   2   6  169.56   13.38
  -8   2   6  198.98   11.66
  -7  -2   6  387.42   23.47
  -7   2   6  362.21   23.04
   7   2  -6  424.33   23.66
   7  -2  -6  380.34   22.99
  -7   2   6  386.95   20.33
  -7   2   6  387.79   21.38
  -6  -2   6  434.14   25.85
  -6   2   6  449.52   26.01
   6   2  -6  464.94   25.74
   6  -2  -6  468.34   25.76
  -6   2   6  436.48   22.76
  -6   2   6  458.65   23.99
  -5  -2   6  298.19   18.90
  -5   2   6  283.21   18.71
   5   2  -6  332.29   19.41
   5  -2  -6  303.75   19.01
  -5   2   6  323.95   16.48
  -5   2   6  333.38   17.77
  -4  -2   6  297.62   20.57
  -4   2   6  253.76   19.10
   4   2  -6  317.71   19.68
   4  -2  -6  308.30   19.88
  -3  -2   6  916.37   47.25
  -3   2   6  905.79   47.30
   3   2  -6  954.88   47.26
   3  -2  -6  935.28   47.09
  -3   2   6  954.80   45.16
  -2  -2   6  595.62   32.01
  -2   2   6  549.47   31.80
   2   2  -6  595.53   31.97
   2  -2  -6  599.12   31.91
  -2   2   6  652.76   30.28
  -1  -2   6  378.75   20.49
  -1   2   6  310.76   19.61
   1   2  -6  334.71   19.81
   1  -2  -6  299.27   19.21
  -1   2   6  332.85   16.48
  -1  -2   6  377.53   19.35
   0   2  -6  219.73   13.12
   0  -2  -6  141.45   11.18
   0   2   6  135.61    8.17
   0  -2   6  246.15   12.05
   0  -2   6  220.77   12.69
   0   2   6  139.80   11.09
  -1  -2  -6  153.66   12.26
   1   2   6  164.74    9.40
  -2   2  -6  319.11   19.33
  -2  -2  -6  295.48   18.92
   2   2   6  310.26   15.45
   2  -2   6  349.48   18.37
  -3   2  -6  170.00   12.87
  -3  -2  -6  179.76   12.99
   3   2   6  167.06    8.98
   3  -2   6  163.65   11.10
   4   2   6  150.03    7.12
   4  -2   6   67.34    7.54
   5   2   6   13.65    2.08
   5  -2   6   15.44    3.16
  -6  -2  -6   74.68    7.62
  -6   2  -6   75.71    7.67
   6  -2   6   79.55    7.12
  -7  -2  -6   64.65    7.34
  -7   2  -6   62.88    7.12
   7  -2   6   70.41    6.82
  -8  -2  -6   19.82    4.27
  -8   2  -6   17.20    4.00
   8  -2   6   19.89    3.90
   9  -2   6    0.57    2.21
 -12  -3   6    1.79    3.18
 -12   3   6   -0.86    3.05
  11  -3  -6    0.88    1.92
 -11  -3   6    1.65    3.13
 -11   3   6    1.59    2.50
  10   3  -6   17.43    1.84
 -10  -3   6   13.21    4.06
 -10   3   6   17.75    4.42
  -9  -3   6   21.39    4.56
  -9   3   6   20.79    4.49
  -9   3   6   19.50    3.19
  -8  -3   6    2.81    2.31
  -8   3   6    0.69    2.06
  -8   3   6    2.39    1.62
  -7   3   6    0.44    1.40
  -7  -3   6    2.70    2.30
  -7   3   6   -0.66    2.17
  -7   3   6   -0.60    1.27
   7   3  -6   -0.63    2.15
   7  -3  -6   -0.63    1.77
  -6   3   6    7.10    2.19
  -6  -3   6    8.61    2.98
  -6   3   6    6.68    2.77
  -6   3   6    4.89    1.53
   6   3  -6    9.47    2.87
   6  -3  -6    6.44    2.73
  -5   3   6    9.14    2.25
  -5  -3   6    7.02    2.62
  -5   3   6    6.92    2.70
  -5   3   6    7.93    1.58
   5   3  -6    3.96    2.23
   5  -3  -6   10.58    3.00
  -4   3   6   20.02    2.90
  -4   3   6   17.50    2.11
  -4  -3   6   13.47    3.51
  -4   3   6   15.77    3.91
   4   3  -6   21.67    4.12
   4  -3  -6   19.07    3.66
  -3  -3   6   57.84    6.31
  -3   3   6   49.34    5.87
   3   3  -6   60.32    6.28
   3  -3  -6   55.75    6.09
  -3   3   6   57.89    3.71
  -3   3   6   58.33    4.98
  -2   3   6   19.02    2.64
  -2  -3   6    7.24    2.81
  -2   3   6   23.47    3.82
  -2   3   6   16.46    1.39
   2   3  -6   13.01    3.19
   2  -3  -6   11.62    3.10
  -2   3   6   14.06    1.41
  -1  -3   6    2.57    2.12
  -1   3   6    1.57    1.92
   1   3  -6    3.60    2.28
   1  -3  -6    0.50    2.05
  -1   3   6    0.53    1.23
  -1  -3   6    1.42    1.55
   0   3  -6    8.87    2.94
   0  -3  -6    6.92    2.50
   0   3   6    7.81    1.66
   0  -3   6    8.92    2.50
  -1   3  -6   98.27    8.49
   1   3   6   87.84    6.02
   1  -3   6  106.58    8.10
  -2   3  -6   47.99    6.00
  -2  -3  -6   49.60    5.92
   2  -3   6   60.54    5.86
   3  -3   6    5.38    2.28
   4  -3   6    1.99    1.94
   5  -3   6   32.94    4.74
  -6  -3  -6   27.35    4.62
  -6   3  -6   28.64    4.66
   6  -3   6   26.16    4.31
  -7  -3  -6    3.30    2.80
   7  -3   6   -0.55    1.94
  -7   3  -6    0.63    1.80
  -8  -3  -6   -4.89    3.24
  -8   3  -6   -2.02    3.12
   8  -3   6    0.59    2.49
   9  -3   6    0.64    2.49
 -12  -4   6   27.87    5.81
 -12   4   6   33.15    5.82
 -11  -4   6   54.79    7.04
 -11   4   6   38.22    5.88
 -10  -4   6   36.83    5.96
 -10   4   6   39.05    6.08
   9   4  -6   19.89    2.55
  -9  -4   6   20.52    4.64
  -9   4   6   21.96    4.44
  -9   4   6   20.73    3.27
   8   4  -6   21.16    3.02
  -8  -4   6   23.20    4.61
  -8   4   6   28.03    4.76
  -8   4   6   18.10    2.83
  -7  -4   6   56.85    6.79
  -7   4   6   49.27    6.30
  -7   4   6   58.80    4.82
  -6   4   6   46.61    5.68
   6  -4  -6   50.30    6.05
  -6  -4   6   32.30    5.06
  -6   4   6   42.67    3.79
  -6   4   6   53.45    5.33
   6   4  -6   41.76    5.63
  -5   4   6   29.76    3.79
  -5  -4   6   15.70    3.72
  -5   4   6   21.93    3.95
  -5   4   6   30.06    2.70
   5   4  -6   18.31    3.86
   5  -4  -6   20.19    3.80
  -4  -4   6   20.07    4.18
  -4   4   6   16.14    3.71
  -4   4   6   29.62    2.76
  -4   4   6   36.26    4.32
   4   4  -6   14.71    3.61
   4  -4  -6   13.86    4.25
  -3  -4   6  103.63    8.40
  -3   4   6  102.86    8.49
   3   4  -6  103.32    8.76
   3  -4  -6  108.13    8.73
  -3   4   6   95.03    4.88
  -3   4   6  103.32    7.25
  -2  -4   6  106.91    8.15
  -2   4   6   80.31    7.47
   2   4  -6  106.62    8.60
   2  -4  -6   64.75    6.96
  -2   4   6   76.53    6.07
  -1  -4   6   79.50    6.93
  -1   4   6   50.85    6.00
   1   4  -6   69.10    6.77
   1  -4  -6   56.26    6.10
  -1   4   6   56.99    4.82
  -1  -4   6   72.40    6.84
   0   4   6   34.64    3.40
   0   4  -6   39.65    5.27
   0  -4  -6   34.70    4.93
   0  -4   6   49.61    5.65
  -1   4  -6   57.38    6.37
  -1  -4  -6   48.37    5.83
   1   4   6   44.19    3.79
   1  -4   6   60.02    6.09
  -2   4  -6  133.08   10.50
  -2  -4  -6  114.59    9.81
   2   4   6  133.13    7.44
   2  -4   6  129.02   10.11
   3   4   6   80.74    4.91
   3  -4   6   86.36    7.85
   4  -4   6   81.98    7.35
   4   4   6   63.29    3.79
  -5  -4  -6   67.10    7.04
  -5   4  -6   44.51    5.73
   5  -4   6   63.67    6.79
  -6  -4  -6  113.74    9.65
  -6   4  -6   85.57    8.38
   6  -4   6  107.77    9.16
  -7  -4  -6   96.27    9.09
  -7   4  -6   83.85    8.45
   7  -4   6   86.57    8.23
  -8   4  -6   47.06    6.39
  -8  -4  -6   60.06    7.13
 -12  -5   6    7.42    3.83
 -12   5   6    5.45    3.14
 -11  -5   6    3.96    3.27
 -11   5   6    6.02    3.64
 -10  -5   6   -3.05    3.47
 -10   5   6   -2.92    3.39
  -9  -5   6    0.73    2.48
  -9   5   6   -1.40    2.30
  -9   5   6    0.75    1.70
   8   5  -6   15.12    2.67
  -8  -5   6   13.59    3.91
  -8   5   6    7.92    3.36
  -8   5   6   15.63    2.65
   7   5  -6   14.57    2.88
  -7  -5   6   11.92    3.28
  -7   5   6    7.05    3.04
  -7   5   6   10.73    2.09
   6   5  -6    5.98    2.26
  -6  -5   6    2.19    1.88
  -6   5   6    4.86    2.24
  -6   5   6    4.81    1.47
   6   5  -6   10.51    3.03
   6  -5  -6    5.22    2.40
   5   5  -6    6.19    2.32
  -5  -5   6   10.80    3.11
  -5   5   6    7.92    2.70
   5   5  -6   11.14    2.81
   5  -5  -6    7.69    2.57
  -5   5   6    8.43    1.45
  -4  -5   6    0.52    1.96
  -4   5   6   -1.04    2.51
   4   5  -6   -0.53    2.36
   4  -5  -6    1.56    1.91
  -4   5   6    1.21    0.72
  -3  -5   6    8.82    2.79
  -3   5   6    2.48    2.16
   3   5  -6    6.33    2.60
   3  -5  -6    3.07    2.18
  -2  -5   6    7.78    2.60
  -2   5   6   11.94    2.93
   2   5  -6    8.79    2.84
   2  -5  -6    9.46    2.78
   1   5  -6   30.02    4.58
   1  -5  -6   31.76    4.56
  -1  -5   6   34.47    5.01
   0   5  -6   30.92    4.41
   0  -5  -6   28.12    4.20
   0  -5   6   33.60    4.86
  -1   5  -6    1.10    2.16
  -1  -5  -6    2.07    1.96
   1  -5   6    0.60    1.61
  -2   5  -6    4.10    2.36
  -2  -5  -6    3.29    2.27
   2  -5   6    5.93    2.39
   3  -5   6   35.54    5.16
   4  -5   6   39.94    5.71
  -5   5  -6   -0.52    1.92
   5  -5   6   -4.48    2.50
  -6   5  -6    1.14    1.88
   6  -5   6    0.66    2.32
  -7  -5  -6   16.60    4.03
  -7   5  -6    5.38    2.56
 -11  -6   6   33.65    5.99
 -11   6   6   43.81    6.40
 -10   6   6   84.48    8.66
 -10  -6   6   57.90    7.55
  -9  -6   6   65.16    7.67
  -9   6   6   71.35    7.76
  -8  -6   6  108.88    9.40
  -8   6   6  105.19    9.38
   7   6  -6  107.50    8.51
  -7  -6   6  116.17    9.68
  -7   6   6  109.27    9.30
  -7   6   6  124.25    7.79
   6   6  -6  152.05   10.29
  -6  -6   6  138.50   10.63
  -6   6   6  121.57   10.29
  -6   6   6  129.58    7.97
  -5  -6   6  136.69   10.54
  -5   6   6  118.26   10.05
   5   6  -6  163.29   11.10
   5   6  -6  131.34   10.70
   5  -6  -6  135.79   10.78
  -5   6   6  144.16    7.63
  -4  -6   6  224.19   14.33
  -4   6   6  195.84   13.86
   4   6  -6  220.45   14.89
  -3  -6   6  480.51   23.97
  -3   6   6  330.06   22.70
   3   6  -6  622.73   26.56
   3   6  -6  515.42   24.76
   3  -6  -6  335.81   22.93
   2   6  -6  211.87   14.21
   2  -6  -6  148.98   12.93
   1   6  -6  173.44   12.21
   1  -6  -6  157.19   11.81
   0   6  -6  110.70   10.25
   0   6  -6  128.22    9.86
   0  -6  -6  119.47    9.50
  -1   6  -6   94.55    9.47
  -1   6  -6  101.31    8.62
  -1  -6  -6   96.60    8.16
  -2   6  -6   68.43    8.28
  -2  -6  -6   77.59    7.53
   2  -6   6   89.63    8.44
   3  -6   6   84.26    8.44
  -4   6  -6   49.83    7.13
  -4  -6  -6   49.78    5.68
  -4   6  -6   46.30    5.34
   4  -6   6   45.39    6.14
  -5  -6  -6   37.74    5.14
  -5   6  -6   42.18    5.21
  -6  -6  -6   39.60    5.41
  -6   6  -6   32.38    4.78
  -7  -6  -6   24.61    4.61
  -7   6  -6   19.19    4.01
 -11   7   6   -0.69    2.62
 -10   7   6   10.01    3.48
  -9   7   6   11.23    3.25
  -8   7   6    0.57    2.23
  -7  -7   6    0.55    1.94
  -7   7   6   -1.09    2.36
   6   7  -6    1.49    1.94
  -6  -7   6    1.97    2.34
  -6   7   6    1.48    2.61
   5   7  -6   11.00    3.15
  -5  -7   6   10.44    2.62
  -5   7   6    8.81    2.60
   4   7  -6    4.16    2.64
  -4  -7   6    1.31    1.94
  -4   7   6    3.15    2.00
   4   7  -6   -0.98    1.85
   3   7  -6   11.93    3.30
   3   7  -6   12.33    2.82
  -3  -7   6   12.78    3.54
   2   7  -6    5.37    2.98
   2   7  -6    0.47    1.83
  -2  -7   6   -0.70    1.99
   1   7  -6    2.13    2.52
   1   7  -6    0.48    1.75
  -1  -7   6    4.21    2.74
   0   7  -6    3.01    2.47
   0   7  -6   -0.47    1.80
   0  -7   6    2.12    2.41
  -1   7  -6   23.57    4.88
  -2   7  -6    9.80    3.73
  -3   7  -6   -0.42    1.97
  -5   7  -6   15.16    3.12
  -6   7  -6   10.87    2.94
   4   8  -6   55.00    6.85
   3   8  -6   33.81    5.49
   2   8  -6   35.94    5.84
   1   8  -6   21.98    4.91
   0   8  -6   34.02    5.81
 -12   0   7   -0.90    2.81
 -11   0   7   -4.45    3.95
 -10   0   7   -0.85    2.54
  -9   0   7   -4.97    2.73
  -8   0   7   -1.60    3.30
  -7   0   7    0.74    2.32
  -6   0   7   -1.39    2.18
  -5   0   7    0.69    2.26
  -4   0   7   -1.35    2.47
   4   0  -7   -1.28    2.26
  -3   0   7    0.64    2.00
   3   0  -7   -0.62    1.85
  -2   0   7   -1.24    2.19
   2   0  -7   -0.60    1.89
  -1   0   7   -0.62    1.86
  -1   0   7    0.33    1.15
   0   0   7    0.65    1.30
   1   0   7   -0.31    1.53
   2   0   7    1.57    1.45
   3   0   7   -0.66    1.43
   4   0   7   -0.33    1.38
   5   0   7    1.07    1.66
   6   0   7    1.16    1.51
  -7   0  -7   -1.41    2.31
   7   0   7   -0.40    1.59
   8   0   7    0.43    1.77
 -12  -1   7   33.29    6.08
 -11  -1   7   86.57    9.96
 -10  -1   7   73.01    8.91
  -9  -1   7   44.98    6.90
  -8   1   7   41.85    4.51
  -8  -1   7   47.22    6.97
  -7  -1   7  217.21   15.80
  -6  -1   7  141.50   11.75
  -5  -1   7   98.64    9.92
  -5   1   7  138.75    9.20
  -4  -1   7  234.05   16.34
   4  -1  -7  231.50   16.20
  -4   1   7  239.03   14.26
  -3  -1   7  233.65   16.00
   3  -1  -7  244.03   16.24
  -2  -1   7  251.51   16.33
   2  -1  -7  227.50   15.88
  -2   1   7  248.40   13.54
  -1  -1   7  153.63   11.64
  -1   1   7  139.44    8.77
  -1  -1   7  155.31   10.16
   0   1   7  103.36    6.79
   0  -1   7  105.53    7.88
   1   1   7   95.26    6.43
   1  -1   7  110.86    7.85
   2   1   7  218.54   12.65
   2  -1   7  263.60   14.38
   3   1   7  214.14    9.52
   3  -1   7   87.57    8.67
   4   1   7   96.91    6.05
   4  -1   7   44.65    5.43
   5   1   7   51.75    4.69
   5  -1   7   59.24    5.61
   6   1   7   71.66    5.89
   6  -1   7   80.42    6.93
   7   1   7   61.96    5.44
   7  -1   7   60.56    6.37
   8  -1   7   19.53    3.60
   9  -1   7   10.86    3.06
 -12  -2   7   -1.83    3.47
 -12   2   7    0.89    2.81
 -11  -2   7   -1.78    3.76
 -11   2   7   -1.74    3.77
 -10  -2   7    0.87    2.59
 -10   2   7   -0.85    3.59
  -9  -2   7    0.84    2.62
  -9   2   7    1.64    3.01
  -9   2   7    2.61    1.80
  -8  -2   7   -2.39    3.01
  -8   2   7    1.57    2.78
  -8   2   7   -0.70    1.65
  -7  -2   7    1.45    1.94
  -7   2   7    1.43    2.14
  -7   2   7   -0.31    1.44
  -6  -2   7    5.62    2.75
  -6   2   7    8.30    2.94
  -6   2   7    5.26    1.55
  -5   2   7    7.22    2.03
  -5  -2   7    2.14    2.62
  -5   2   7    4.25    2.43
  -5   2   7    6.56    1.68
  -4  -2   7    5.95    3.13
  -4   2   7    1.32    2.17
  -4   2   7    5.26    1.92
  -3  -2   7    4.91    2.48
  -3   2   7    6.14    2.62
   3   2  -7    6.24    2.72
   3  -2  -7    6.10    2.60
  -3   2   7    8.57    2.13
  -2  -2   7    2.42    2.23
  -2   2   7    4.26    2.58
   2   2  -7    3.61    2.42
   2  -2  -7    3.54    2.80
  -2   2   7    4.14    1.68
  -2   2   7    5.03    1.32
  -1  -2   7    0.61    2.09
  -1   2   7    4.33    2.48
  -1   2   7    0.64    0.77
  -1  -2   7    1.39    1.86
   0   2   7   -0.14    0.86
   0  -2   7    1.82    1.72
   1   2   7    3.15    0.93
   1  -2   7    2.25    1.91
   2   2   7    0.14    0.73
   2  -2   7   -0.45    1.60
   3   2   7   -0.30    0.86
   3  -2   7    0.46    1.86
   4   2   7   -0.17    0.92
   4  -2   7   -0.48    1.75
   5  -2   7    4.38    2.36
   6  -2   7    5.89    2.32
  -6  -2  -7    2.01    2.29
  -6   2  -7   -0.66    1.86
   7  -2   7    0.53    1.99
   8  -2   7    2.82    2.27
 -11  -3   7   68.94    8.85
 -11   3   7   67.52    8.67
 -10  -3   7   77.29    9.09
 -10   3   7   80.01    9.35
  -9   3   7   36.51    4.30
  -9  -3   7   36.65    6.30
  -9   3   7   30.01    5.70
  -8   3   7   55.99    7.07
  -8   3   7   41.70    4.50
  -8  -3   7   51.03    6.83
  -7  -3   7   86.72    8.76
  -7   3   7   83.87    8.62
  -7   3   7   87.99    6.42
  -6  -3   7   95.12    9.18
  -6   3   7   91.33    8.93
  -6   3   7  114.93    7.07
  -5   3   7   64.82    7.42
  -5   3   7   55.14    4.36
  -5  -3   7   49.70    6.67
  -5   3   7   60.81    5.68
  -4  -3   7  131.49   10.46
  -4   3   7  104.45    9.97
  -4   3   7  115.59    6.68
  -4   3   7  106.29    8.24
  -3  -3   7  119.04    9.98
  -3   3   7  116.87   10.22
  -3   3   7  115.03    6.39
  -3   3   7  117.88    8.24
  -2  -3   7  112.97    9.43
  -2   3   7  114.95    9.51
  -2   3   7   99.95    7.37
  -2   3   7  105.56    5.29
  -2   3   7  100.43    5.31
  -2  -3   7  120.77    9.17
  -1   3   7   67.47    7.49
  -1   3   7   69.15    5.82
   0   3   7   42.49    4.31
   0  -3   7   96.61    7.36
   1   3   7   51.41    4.57
   1  -3   7   76.90    7.08
   2   3   7   85.96    6.08
   2  -3   7   91.71    7.99
   3  -3   7   53.90    5.99
   4  -3   7   32.38    4.66
   5  -3   7   50.47    6.02
  -6  -3  -7   45.03    6.20
  -6   3  -7   37.66    5.59
   6  -3   7   45.60    5.71
   7  -3   7   46.69    5.97
 -11  -4   7    0.90    3.06
 -11   4   7   -0.86    3.82
 -10  -4   7   -0.86    2.94
 -10   4   7   -0.83    3.24
   9   4  -7   -0.31    1.68
  -9  -4   7   -3.22    4.76
  -9   4   7   -3.14    4.46
  -9   4   7   -1.37    2.15
  -8  -4   7    4.38    3.20
  -8   4   7    9.97    3.33
  -8   4   7   11.11    2.17
  -7  -4   7   12.12    3.67
  -7   4   7   10.49    3.22
  -7   4   7   12.45    2.11
  -6  -4   7   -0.72    2.54
  -6   4   7    0.71    2.61
  -6   4   7    0.21    1.01
  -5  -4   7    4.64    2.66
  -5   4   7    1.97    2.41
  -5   4   7    1.34    0.97
  -4   4   7   20.65    3.14
  -4  -4   7   13.50    3.75
  -4   4   7   15.31    3.92
  -4   4   7   17.40    1.69
  -3   4   7   20.80    3.02
  -3  -4   7   17.20    3.78
  -2   4   7    0.98    1.03
  -2  -4   7   -0.59    2.31
  -2   4   7   -0.60    2.34
  -2  -4   7    1.76    1.75
  -1   4   7    5.31    1.60
  -1  -4   7    4.64    2.27
   0   4   7    0.53    0.97
   0  -4   7   -0.58    2.12
   1   4   7    1.41    0.97
   1  -4   7    1.15    1.73
   2   4   7    1.01    0.96
   2  -4   7   -0.58    1.98
   3  -4   7    8.17    2.89
   4  -4   7    4.13    2.44
   5  -4   7   -0.61    2.16
  -6   4  -7   -3.80    3.00
   6  -4   7   -0.62    2.26
 -11  -5   7   26.39    5.79
 -11   5   7   31.06    5.93
 -10  -5   7   50.16    7.01
 -10   5   7   37.10    6.14
  -9  -5   7   56.64    7.26
  -9   5   7   51.86    7.07
   8   5  -7   48.53    5.13
  -8  -5   7   42.50    6.25
  -8   5   7   44.85    6.38
  -7  -5   7   70.80    8.11
  -7   5   7   79.90    8.45
   7   5  -7   73.92    6.81
  -6  -5   7   97.28    9.13
  -6   5   7   92.51    9.07
  -6   5   7   89.72    5.81
  -5  -5   7  125.28   10.17
  -5   5   7  125.24   10.25
  -5   5   7  111.06    6.16
  -4  -5   7  195.93   13.92
  -4   5   7  175.14   14.04
  -4   5   7  197.96   12.46
  -3  -5   7  195.90   14.23
  -3   5   7  203.24   14.54
  -3   5   7  212.60   12.66
  -2   5   7  147.58    9.94
  -2   5   7  150.57   11.79
  -1  -5   7  177.35   12.24
  -1   5   7  123.65    8.48
   0  -5   7  144.88   11.30
   0   5   7  132.34    8.29
   1  -5   7  110.27    9.71
   2  -5   7   84.36    8.27
   3  -5   7   73.11    7.73
   4  -5   7   70.95    7.65
  -5  -5  -7   44.02    5.87
  -5   5  -7   42.81    5.80
 -10  -6   7   14.71    4.22
 -10   6   7   11.29    3.82
  -9  -6   7    7.96    3.39
  -9   6   7   14.74    3.96
   8   6  -7    0.41    1.73
  -8  -6   7    1.46    2.49
  -8   6   7    1.39    2.46
   7   6  -7    0.47    2.08
  -7  -6   7    0.67    2.75
  -7   6   7   -0.66    2.78
   6   6  -7   14.49    3.46
  -6  -6   7   12.84    3.47
  -6   6   7   12.28    3.54
   5   6  -7   15.12    3.64
  -5  -6   7   16.30    3.60
  -5   6   7   15.76    3.69
   4   6  -7    6.13    2.91
  -4  -6   7    1.69    2.50
  -4   6   7    1.14    2.22
   3   6  -7    3.21    2.36
  -3  -6   7    0.55    2.02
  -3   6   7    0.56    2.05
  -3  -6   7    0.71    2.33
   2   6  -7    3.97    2.73
  -2  -6   7    1.41    2.11
   1   6  -7    7.52    3.26
  -1  -6   7   11.87    3.52
   0  -6   7   -0.70    1.99
   1  -6   7    6.17    2.92
  -2   6  -7   -1.55    2.53
   2  -6   7    0.69    2.44
  -4  -6  -7    1.14    2.09
  -4   6  -7    1.07    1.76
  -5   6  -7    6.85    2.91
  -5  -6  -7    1.83    2.45
  -9   7   7   49.70    6.76
  -8   7   7   29.50    5.11
   7   7  -7   15.28    3.48
  -7   7   7   18.69    4.20
   6   7  -7   22.87    4.36
  -6   7   7   24.99    4.34
   5   7  -7   55.84    6.64
  -5   7   7   28.02    4.66
   4   7  -7   69.81    7.38
  -4   7   7   30.54    5.37
   3   7  -7   75.92    8.34
   2   7  -7   38.05    6.23
   1   7  -7   22.68    4.90
  -3   7  -7   21.08    3.72
  -4   7  -7   24.06    4.02
   5   8  -7   -0.63    2.32
   4   8  -7    7.55    3.20
 -10   0   8   86.49   10.20
  -9   0   8   91.59   10.08
  -8   0   8  161.76   13.58
  -7   0   8  204.89   15.82
  -6   0   8  247.18   17.96
  -5   0   8  195.80   15.26
  -4   0   8  352.98   22.27
  -3   0   8  276.60   18.59
  -2   0   8  221.49   15.94
  -2   0   8  227.39   13.58
  -1   0   8   71.50    8.02
  -1   0   8   71.61    6.09
   0   0   8   70.44    5.81
   1   0   8  114.62    8.08
   2   0   8  110.61    8.04
   3   0   8  106.82    7.65
   4   0   8   11.06    2.70
   5   0   8   21.54    3.42
   6   0   8   34.21    4.17
 -10  -1   8    1.90    4.23
  -8  -1   8   -0.81    2.54
  -7  -1   8   -1.63    2.79
  -6  -1   8   -0.83    2.72
  -5  -1   8    5.41    3.36
  -4  -1   8   24.65    4.88
  -3  -1   8   11.39    3.79
  -2  -1   8   14.25    4.11
  -2   1   8   13.83    2.39
  -2  -1   8   21.44    3.51
  -1  -1   8    7.14    3.40
  -1   1   8    8.10    1.82
  -1  -1   8    6.43    2.17
   0   1   8   26.90    3.13
   0  -1   8   37.58    4.33
   1   1   8   20.82    2.68
   1  -1   8   24.26    3.68
   2   1   8   17.48    2.39
   2  -1   8   11.53    2.70
   3   1   8    4.26    1.54
   3  -1   8    7.98    2.59
   4   1   8   13.00    2.29
   4  -1   8    6.69    2.35
   5  -1   8    7.78    2.38
   6  -1   8    1.82    1.98
   7  -1   8   -0.47    1.95
 -10  -2   8    7.50    3.78
 -10   2   8   11.03    4.37
  -9  -2   8    9.54    3.87
  -9   2   8   10.22    3.72
  -8  -2   8   18.27    4.72
  -8   2   8   14.73    4.18
  -8   2   8   21.05    3.22
  -7   2   8   38.33    3.98
  -7  -2   8   25.92    5.27
  -7   2   8   34.14    5.80
  -6  -2   8   19.59    4.87
  -6   2   8   21.84    5.29
  -6   2   8   23.95    2.98
  -5  -2   8   16.02    5.23
  -5   2   8   26.65    5.37
  -5   2   8   19.43    2.63
  -4  -2   8   38.59    5.98
  -4   2   8   45.49    6.34
  -3  -2   8   63.21    7.47
  -3   2   8   61.76    7.47
  -3   2   8   67.32    4.99
  -2  -2   8   78.36    8.19
  -2   2   8   63.66    7.52
  -2   2   8   56.47    5.57
  -2   2   8   63.86    4.57
  -2  -2   8   67.25    6.62
  -1   2   8   23.64    2.46
  -1  -2   8   30.99    4.30
   0   2   8   33.00    2.80
   0  -2   8   53.67    5.62
   1   2   8   92.08    5.51
   1  -2   8  126.65    8.90
   2   2   8   93.08    5.48
   2  -2   8  115.98    8.77
   3  -2   8   84.52    7.70
   4  -2   8   33.00    4.70
   5  -2   8   53.60    5.97
   6  -2   8   72.89    7.11
   7  -2   8   55.53    6.31
 -10  -3   8   -5.45    5.01
 -10   3   8   -3.53    4.58
  -9  -3   8   -0.84    3.72
  -9   3   8    0.82    3.63
  -8  -3   8    4.17    2.95
  -8   3   8    0.82    2.56
  -8   3   8    0.66    1.43
  -7  -3   8    5.11    3.51
  -7   3   8    4.19    3.17
  -7   3   8   -0.57    1.43
  -6  -3   8   12.65    3.98
  -6   3   8   11.77    3.73
  -6   3   8    7.32    1.77
  -5  -3   8   -0.75    2.83
  -5   3   8    2.96    2.90
  -5   3   8    5.25    1.41
  -4  -3   8    0.71    2.53
  -4   3   8    2.13    2.77
  -4   3   8    3.14    1.07
  -3  -3   8    5.61    3.06
  -3   3   8    6.31    2.98
  -3   3   8    8.11    1.18
  -3   3   8    6.24    1.09
  -3  -3   8    6.31    2.57
  -2   3   8   19.93    3.07
  -2  -3   8   22.28    4.52
  -2   3   8   20.98    4.45
  -2  -3   8   24.89    4.35
  -1   3   8   29.49    3.64
  -1  -3   8   38.98    5.19
   0  -3   8    6.78    2.69
   0   3   8    6.70    1.91
   1   3   8    2.10    1.40
   1  -3   8    3.84    2.27
   2  -3   8   15.40    3.56
   3  -3   8   19.26    3.96
   4  -3   8    2.82    2.33
   5  -3   8   -0.57    1.95
  -9  -4   8   67.76    8.73
  -9   4   8   83.85    9.23
  -8  -4   8   94.57   10.08
  -8   4   8  100.09   10.20
  -7  -4   8  123.51   11.80
  -7   4   8  139.60   12.10
  -6  -4   8  102.55   10.38
  -6   4   8  114.37   10.74
  -5  -4   8  129.03   11.45
  -5   4   8  134.92   11.70
  -4  -4   8  255.82   17.49
  -4   4   8  262.79   17.64
  -3  -4   8  169.94   13.56
  -3   4   8  176.70   13.76
  -3  -4   8  190.56   13.72
  -2   4   8  129.58    9.21
  -2   4   8  136.43   11.52
  -1   4   8   78.19    6.47
  -1  -4   8  118.11    9.59
   0  -4   8  110.08    9.70
   1  -4   8   80.71    8.16
   2  -4   8   62.98    7.06
   3  -4   8   32.74    5.14
   4  -4   8   19.64    4.20
  -9  -5   8   -0.81    2.88
  -9   5   8    2.36    2.88
   8   5  -8    0.46    1.96
  -8  -5   8    0.82    2.91
  -8   5   8    0.80    2.74
  -7  -5   8    0.77    2.71
  -7   5   8    0.75    3.02
  -6  -5   8   -0.72    3.03
  -6   5   8    0.71    3.27
  -5  -5   8    2.07    3.13
  -5   5   8    2.06    2.91
  -4  -5   8   16.87    4.07
  -4   5   8    8.78    3.30
  -3  -5   8   -0.66    3.13
  -3   5   8    6.67    2.82
  -3  -5   8    9.17    3.20
  -2  -5   8    0.69    2.16
  -1  -5   8   -0.68    2.42
   0  -5   8   17.76    4.01
   1  -5   8   19.43    4.25
  -8  -6   8   15.04    4.43
  -8   6   8   11.77    4.10
   7   6  -8   14.25    3.48
  -7  -6   8    8.42    3.49
  -7   6   8   10.34    3.49
   6   6  -8   13.83    3.54
  -6  -6   8   13.54    4.03
  -6   6   8    6.03    2.87
  -5  -6   8   12.43    3.97
  -5   6   8    9.15    3.62
   4   6  -8   53.91    6.67
  -4  -6   8   45.29    6.31
  -4   6   8   42.97    5.98
   6   7  -8   -0.61    2.43
  -6   7   8    1.86    2.75
   5   7  -8   -0.67    2.27
  -5   7   8    0.60    2.29
   4   7  -8   -1.45    2.99
  -8   0   9    2.93    3.58
  -7   0   9   -0.92    3.26
  -6   0   9   -0.87    2.61
  -5   0   9    2.45    2.89
  -4   0   9   -2.43    3.07
  -3   0   9    0.81    2.41
  -3   0   9   -0.42    1.52
  -2   0   9   -0.80    2.14
  -2   0   9   -0.39    1.33
  -1   0   9    0.37    1.35
   0   0   9   -1.77    2.01
   1   0   9   -0.35    1.64
   2   0   9    0.34    1.69
  -7  -1   9   72.34    9.29
  -6  -1   9   53.07    8.08
  -5  -1   9   49.00    7.62
  -4  -1   9   56.25    8.07
  -4   1   9   65.44    5.73
  -3  -1   9   71.72    9.20
  -3   1   9   88.37    6.70
  -3  -1   9   91.91    7.82
  -2   1   9   59.12    4.94
  -2  -1   9   54.42    5.69
  -1   1   9   38.25    3.92
  -1  -1   9   50.60    5.32
   0   1   9   27.24    3.14
   0  -1   9   29.87    4.10
   1  -1   9   80.72    7.19
   2  -1   9  121.23    9.25
   3  -1   9   42.01    5.06
  -7  -2   9    0.90    2.71
  -7   2   9    1.79    2.94
  -6  -2   9    0.86    2.82
  -6   2   9   -0.85    3.01
  -5  -2   9    0.81    2.86
  -5   2   9    1.61    2.40
  -4  -2   9   -0.79    2.26
  -4   2   9    0.79    2.71
  -4   2   9    1.10    1.30
  -3  -2   9   -0.80    2.62
  -3   2   9   -2.40    2.51
  -3   2   9    0.69    1.13
  -3  -2   9   -0.56    2.05
  -2  -2   9   -0.80    2.38
  -2   2   9    1.59    2.50
  -2  -2   9   -0.54    1.85
  -1  -2   9    4.25    2.31
   0  -2   9    2.04    1.87
   1  -2   9    1.52    1.92
   2  -2   9    1.00    2.06
   3  -2   9   -0.50    2.29
   4  -2   9   -0.50    1.95
  -7  -3   9   74.96    9.13
  -7   3   9   58.97    8.17
  -6   3   9   72.39    8.91
  -6  -3   9   62.50    8.52
  -5  -3   9  102.38   11.08
  -5   3   9   99.22   10.61
  -4  -3   9   93.92   10.47
  -4   3   9  101.40   10.57
  -4  -3   9  114.74    9.76
  -3  -3   9   84.18    9.53
  -3   3   9   76.21    9.32
  -3  -3   9  106.62    9.22
  -2  -3   9   84.61    8.37
  -1  -3   9   66.64    7.22
   0  -3   9   57.94    6.61
   1  -3   9  105.24    9.23
   2  -3   9   57.52    6.59
   3  -3   9   33.13    5.11
  -6  -4   9    1.59    2.72
  -6   4   9    5.49    3.24
  -5  -4   9    3.13    3.05
  -5   4   9    5.42    3.11
  -4  -4   9    3.12    2.76
  -4   4   9   -1.55    2.94
  -4  -4   9   -1.39    2.37
  -3  -4   9    3.08    2.91
  -3   4   9   -0.77    2.52
  -3  -4   9    0.69    2.16
  -2  -4   9    0.67    2.28
  -1  -4   9   -1.33    2.36
   0  -4   9    6.42    2.73
  -4  -5   9   18.72    5.00
  -4   5   9   23.89    5.37
   6   6  -9    0.66    2.57
  -5   0  10   21.56    3.68
  -4   0  10   40.42    4.77
  -3   0  10   47.87    5.19
  -5  -1  10    5.40    2.57
  -4  -1  10    4.78    2.31
  -3  -1  10   11.97    3.11
  -2  -1  10   13.94    3.11
  -1  -1  10    7.80    2.40
  -5  -2  10  119.34   10.15
  -4  -2  10   91.05    8.79
  -3  -2  10   73.58    7.45
  -2  -2  10   38.10    5.29
  -1  -2  10   23.42    4.04
   0  -2  10   32.74    4.74
  -2  -3  10    0.63    2.15
   0   0   0    0.00    0.00


TITL 270 in P2(1)/c
REM P2(1)/c (#14 in standard setting)
CELL 0.71073  11.204712   7.651510   7.305008  90.0000 104.1616  90.0000
ZERR    3.00   0.000792   0.000474   0.000539   0.0000   0.0072   0.0000
LATT  1
SYMM -x, y+1/2,-z+1/2
SFAC C H N O
UNIT 33.00 30.00 3.00 3.00
TREF
HKLF 4
END
_computing_structure_solution     'SHELXT 2014/5 (Sheldrick, 2014)'
;
_shelx_hkl_checksum              88314
_olex2_submission_special_instructions 'No special instructions were received'
_oxdiff_exptl_absorpt_empirical_details
;
Empirical correction (ABSPACK) includes:
- Absorption correction using spherical harmonics
- Frame scaling
;
loop_
_space_group_symop_operation_xyz
'x, y, z'
'-x, y+1/2, -z+1/2'
'-x, -y, -z'
'x, -y-1/2, z-1/2'
loop_
_atom_site_label
_atom_site_type_symbol
_atom_site_fract_x
_atom_site_fract_y
_atom_site_fract_z
_atom_site_U_iso_or_equiv
_atom_site_adp_type
_atom_site_occupancy
_atom_site_site_symmetry_order
_atom_site_calc_flag
_atom_site_refinement_flags_posn
_atom_site_refinement_flags_adp
_atom_site_refinement_flags_occupancy
_atom_site_disorder_assembly
_atom_site_disorder_group
Cd1 Cd 0.5000 0.5000 0.5000 0.0223(4) Uani 1 2 d S T P . .
Cl1 Cl 0.5276(2) 0.2678(2) 0.7777(3) 0.0373(5) Uani 1 1 d . . . . .
Cl2 Cl 0.73069(16) 0.5460(3) 0.5772(3) 0.0389(5) Uani 1 1 d . . . . .
F1 F 0.9561(4) 0.8392(6) 0.6021(8) 0.0614(15) Uani 1 1 d . . . . .
N1 N 0.7072(8) 0.9717(9) 0.5870(15) 0.0427(19) Uani 1 1 d . . . . .
H1A H 0.6543 1.0144 0.4855 0.051 Uiso 1 1 calc GR . . . .
H1B H 0.6751 0.9809 0.6866 0.051 Uiso 1 1 calc GR . . . .
H1C H 0.7219 0.8597 0.5678 0.051 Uiso 1 1 calc GR . . . .
C1 C 0.8216(7) 1.0696(11) 0.6213(13) 0.0479(19) Uani 1 1 d . . . . .
H1D H 0.8145 1.1717 0.6966 0.058 Uiso 1 1 calc R . . . .
H1E H 0.8338 1.1102 0.5014 0.058 Uiso 1 1 calc R . . . .
C2 C 0.9296(10) 0.9692(13) 0.7180(17) 0.051(2) Uani 1 1 d . . . . .
H2A H 0.9997 1.0469 0.7557 0.061 Uiso 1 1 calc R . . . .
H2B H 0.9145 0.9168 0.8312 0.061 Uiso 1 1 calc R . . . .
loop_
_atom_site_aniso_label
_atom_site_aniso_U_11
_atom_site_aniso_U_22
_atom_site_aniso_U_33
_atom_site_aniso_U_23
_atom_site_aniso_U_13
_atom_site_aniso_U_12
Cd1 0.0275(6) 0.0196(6) 0.0202(6) -0.00027(17) 0.0067(4) -0.00192(18)
Cl1 0.0513(11) 0.0313(10) 0.0305(9) 0.0115(6) 0.0123(8) 0.0006(7)
Cl2 0.0266(10) 0.0341(10) 0.0542(12) -0.0027(10) 0.0065(8) -0.0020(8)
F1 0.051(3) 0.044(3) 0.092(4) -0.008(2) 0.025(3) 0.001(2)
N1 0.032(4) 0.037(3) 0.058(5) 0.000(4) 0.009(3) 0.003(3)
C1 0.042(4) 0.036(5) 0.064(5) 0.002(4) 0.010(4) -0.001(4)
C2 0.039(5) 0.061(5) 0.046(6) -0.005(4) -0.004(4) 0.001(4)
loop_
_atom_type_symbol
_atom_type_description
_atom_type_scat_dispersion_real
_atom_type_scat_dispersion_imag
_atom_type_scat_source
C C 0.0033 0.0016 'International Tables Vol C Tables 4.2.6.8 and 6.1.1.4'
H H 0.0000 0.0000 'International Tables Vol C Tables 4.2.6.8 and 6.1.1.4'
Cd Cd -0.8075 1.2024 'International Tables Vol C Tables 4.2.6.8 and 6.1.1.4'
Cl Cl 0.1484 0.1585 'International Tables Vol C Tables 4.2.6.8 and 6.1.1.4'
F F 0.0171 0.0103 'International Tables Vol C Tables 4.2.6.8 and 6.1.1.4'
N N 0.0061 0.0033 'International Tables Vol C Tables 4.2.6.8 and 6.1.1.4'
loop_
_geom_angle_atom_site_label_1
_geom_angle_atom_site_label_2
_geom_angle_atom_site_label_3
_geom_angle
_geom_angle_site_symmetry_1
_geom_angle_site_symmetry_3
_geom_angle_publ_flag
Cl1 Cd1 Cl1 180.0 . 3_666 ?
Cl1 Cd1 Cl1 93.311(12) 3_666 4_565 ?
Cl1 Cd1 Cl1 180.0 2_656 4_565 ?
Cl1 Cd1 Cl1 86.689(12) . 4_565 ?
Cl1 Cd1 Cl1 93.311(12) . 2_656 ?
Cl1 Cd1 Cl1 86.689(12) 3_666 2_656 ?
Cl2 Cd1 Cl1 91.22(6) 3_666 4_565 ?
Cl2 Cd1 Cl1 88.78(6) 3_666 2_656 ?
Cl2 Cd1 Cl1 88.78(6) . 4_565 ?
Cl2 Cd1 Cl1 89.93(7) . 3_666 ?
Cl2 Cd1 Cl1 91.22(6) . 2_656 ?
Cl2 Cd1 Cl1 90.07(7) 3_666 3_666 ?
Cl2 Cd1 Cl1 89.93(7) 3_666 . ?
Cl2 Cd1 Cl1 90.07(7) . . ?
Cl2 Cd1 Cl2 180.00(10) . 3_666 ?
Cd1 Cl1 Cd1 164.82(10) . 2_646 ?
H1A N1 H1B 109.5 . . ?
H1A N1 H1C 109.5 . . ?
H1B N1 H1C 109.5 . . ?
C1 N1 H1A 109.5 . . ?
C1 N1 H1B 109.5 . . ?
C1 N1 H1C 109.5 . . ?
N1 C1 H1D 108.8 . . ?
N1 C1 H1E 108.8 . . ?
N1 C1 C2 113.8(8) . . ?
H1D C1 H1E 107.7 . . ?
C2 C1 H1D 108.8 . . ?
C2 C1 H1E 108.8 . . ?
F1 C2 C1 111.0(9) . . ?
F1 C2 H2A 109.4 . . ?
F1 C2 H2B 109.4 . . ?
C1 C2 H2A 109.4 . . ?
C1 C2 H2B 109.4 . . ?
H2A C2 H2B 108.0 . . ?
loop_
_geom_bond_atom_site_label_1
_geom_bond_atom_site_label_2
_geom_bond_distance
_geom_bond_site_symmetry_2
_geom_bond_publ_flag
Cd1 Cl1 2.6574(15) . ?
Cd1 Cl1 2.6787(15) 2_656 ?
Cd1 Cl1 2.6574(15) 3_666 ?
Cd1 Cl1 2.6787(15) 4_565 ?
Cd1 Cl2 2.5318(17) . ?
Cd1 Cl2 2.5318(17) 3_666 ?
Cl1 Cd1 2.6787(15) 2_646 ?
F1 C2 1.385(12) . ?
N1 H1A 0.8900 . ?
N1 H1B 0.8900 . ?
N1 H1C 0.8900 . ?
N1 C1 1.453(12) . ?
C1 H1D 0.9700 . ?
C1 H1E 0.9700 . ?
C1 C2 1.461(13) . ?
C2 H2A 0.9700 . ?
C2 H2B 0.9700 . ?
