#------------------------------------------------------------------------------
#$Date: 2020-06-11 14:28:24 +0300 (Thu, 11 Jun 2020) $
#$Revision: 253094 $
#$URL: file:///home/coder/svn-repositories/cod/cif/4/51/77/4517760.cif $
#------------------------------------------------------------------------------
#
# This file is available in the Crystallography Open Database (COD),
# http://www.crystallography.net/
#
# All data on this site have been placed in the public domain by the
# contributors.
#
data_4517760
loop_
_publ_author_name
'Lubomir Smrcok'
'Armel Le Bail'
'Miroslav Boca'
'Aydar Rakhmatullin'
_publ_section_title
;
 Polymorphism of K2ZrF6
;
_journal_name_full               'Crystal Growth & Design'
_journal_page_first              3867
_journal_page_last               3881
_journal_paper_doi               10.1021/acs.cgd.0c00166
_journal_volume                  20
_journal_year                    2020
_chemical_formula_moiety         'F6 Zr, 2(K)'
_chemical_formula_sum            'F6 K2 Zr'
_chemical_formula_weight         283.42
_chemical_name_common
;
K2ZrF6
;
_space_group_IT_number           129
_space_group_name_Hall           '-P 4a 2a'
_space_group_name_H-M_alt        'P 4/n m m :2'
_symmetry_cell_setting           tetragonal
_symmetry_space_group_name_Hall  '-P 4a 2a'
_symmetry_space_group_name_H-M   'P 4/n m m :2'
_cell_angle_alpha                90.00000
_cell_angle_beta                 90.00000
_cell_angle_gamma                90.00000
_cell_formula_units_Z            2
_cell_length_a                   6.33605(2)
_cell_length_b                   6.33605(2)
_cell_length_c                   9.29458(5)
_cell_measurement_temperature    473
_cell_volume                     373.136(3)
_computing_molecular_graphics    DIAMOND
_computing_structure_refinement  FULLPROF
_computing_structure_solution    ESPOIR
_diffrn_ambient_temperature      473
_diffrn_measurement_device_type  synchrotron
_diffrn_radiation_probe          x-ray
_diffrn_radiation_type           synchrotron
_diffrn_radiation_wavelength     0.826946
_exptl_absorpt_coefficient_mu    3.943
_exptl_crystal_density_diffrn    2.523
_exptl_crystal_density_method    'Not Measured'
_exptl_crystal_F_000             264
_pd_char_colour                  white
_pd_instr_location               ' ?'
_pd_meas_2theta_range_inc        0.002000
_pd_meas_2theta_range_max        70.00000
_pd_meas_2theta_range_min        4.00000
_pd_meas_number_of_points        33001
_pd_proc_2theta_range_inc        0.002000
_pd_proc_2theta_range_max        59.0008
_pd_proc_2theta_range_min        4.0008
_pd_proc_ls_pref_orient_corr     ' ?'
_pd_proc_ls_prof_R_factor        7.7327
_pd_proc_ls_prof_wR_expected     4.5952
_pd_proc_ls_prof_wR_factor       10.5395
_pd_proc_wavelength              0.826946
_refine_ls_goodness_of_fit_all   2.293
_refine_ls_number_parameters     69
_refine_ls_number_reflns         232
_refine_ls_number_restraints     0
_refine_ls_R_I_factor            5.1020
_refine_ls_shift/su_max          0.03
_iucr_refine_instructions_details
;
Fullprof .pcr file, modified to fit inside 80 columns
followed by the .dat file and the DFT optimization


COMM    K2ZrF6  form-V  200C after cooling from 495C
! Current global Chi2 (Bragg contrib.) =      5.878    
! Files => DAT-file: form-v.dat,  PCR-file: form-v
!Job Npr Nph Nba Nex Nsc Nor Dum Iwg Ilo Ias Res Ste Nre Cry Uni Cor Opt Aut
   0   5   3  33  12   0   1   1   0   0   1   0   0   0   0   0   0   0   0
!
!Ipr Ppl Ioc Mat Pcr Ls1 Ls2 Ls3 NLI Prf Ins Rpa Sym Hkl Fou Sho Ana
   0   0   1   0   2   0   4   0   0  -3   0  -1   0  -2   2   1   1
!
! Lambda1  Lambda2    Ratio    Bkpos    Wdt    Cthm     muR   AsyLim   Rpolarz  2nd-muR -> Patt# 1
 0.826946 0.826946  1.00000   40.000 16.0000  0.0000  0.0000   30.00    0.0000  0.0000
!
!NCY  Eps  R_at  R_an  R_pr  R_gl     Thmin       Step       Thmax    PSD    Sent0
 20  0.01  0.20  0.20  0.20  0.20      4.0000   0.002000    70.0000   0.000   0.000
!
!2Theta/TOF/E(Kev)   Background  for Pattern#  1
         4.0200       291.9957        431.00
         4.5238       246.5407        441.00
         6.0714       236.3022        451.00
         7.6191       245.6167        461.00
         8.2738       252.1449        471.00
         9.4643       257.5300        481.00
        10.0000       379.3087        491.00
        10.6548       273.1718        501.00
        10.9000       455.6518        691.00
        11.4881       419.1344        511.00
        12.5000       404.9554        521.00
        13.2738       357.9142        531.00
        13.7500       317.7639        541.00
        15.7143       252.4729        551.00
        17.7381       238.3009        561.00
        19.7024       253.4666        571.00
        22.0833       280.6175        581.00
        24.6429       295.2523        591.00
        26.9643       321.6568        601.00
        28.6905       264.5078        611.00
        30.5952       312.7612        621.00
        32.6786       304.9505        631.00
        34.6429       303.3702        641.00
        36.0714       264.3434        651.00
        38.7500       296.5627        661.00
        41.1310       278.0938        671.00
        42.7381       232.3837        681.00
        46.0119       220.0146        331.00
        48.6905       225.3302        421.00
        51.5476       217.2912        411.00
        54.2857       222.2226        361.00
        57.9167       211.2806        351.00
        61.2500       181.2528          0.00
! 
! Excluded regions (LowT  HighT) for Pattern#  1
        0.00        4.00
       16.00       16.12
       16.61       16.80
       18.06       18.14
       18.26       18.34
       26.19       26.36
       26.53       26.56
       28.12       28.27
       28.73       28.91
       31.13       31.24
       32.35       32.49
       59.00      180.00
! 
!
      69    !Number of refined parameters
!
!  Zero    Code    SyCos    Code   SySin    Code  Lambda     Code MORE ->Patt# 1
 -0.00077  291.0  0.00000    0.0  0.00000    0.0 0.000000    0.00   0
!-------------------------------------------------------------------------------
!  Data for PHASE number:   1  ==> Current R_Bragg for Pattern#  1:     5.10
!-------------------------------------------------------------------------------
 phase 1:
!
!Nat Dis Ang Pr1 Pr2 Pr3 Jbt Irf Isy Str Furth       ATZ    Nvk Npr More
   6   0   0 0.0 0.0 1.0   0   1   0   0   0        566.813   0   5   1
!
!Jvi Jdi Hel Sol Mom Ter  Brind   RMua    RMub    RMuc   Jtyp  Nsp_Ref Ph_Shift N_Domains
   0   3   0   0   0   0  1.0000  0.0000  0.0000  0.0000    0      0      0      0
!
! Max_dst(dist) (angles)  Bond-Valence Calc.
      4.0000      3.5000        1  
P 4/N M M                <--Space group symbol
!Atom   Typ       X        Y        Z     Biso       Occ     In Fin N_t Spc /Codes
!    beta11   beta22   beta33   beta12   beta13   beta23  /Codes
ZR     Zr      0.25000  0.25000  0.77156  0.00000   0.12500   0   0   2    0  
                  0.00     0.00    91.00     0.00      0.00
      0.01853  0.01853  0.00948  0.00000  0.00000   0.00000
       101.00   101.00   111.00     0.00     0.00      0.00
K1     K       0.25000  0.25000  0.29231  0.00000   0.12500   0   0   2    0  
                  0.00     0.00   121.00     0.00      0.00
      0.02520  0.02520  0.01056  0.00000  0.00000   0.00000
       131.00   131.00   141.00     0.00     0.00      0.00
K2     K       0.75000  0.25000  0.00000  0.00000   0.12500   0   0   2    0  
                  0.00     0.00     0.00     0.00      0.00
      0.03182  0.03182  0.01475  0.00000  0.00000   0.00000
       151.00   151.00   161.00     0.00     0.00      0.00
F1     F       0.47283  0.47283  0.78941  0.00000   0.50000   0   0   2    0  
                171.00   171.00   181.00     0.00      0.00
      0.03946  0.03946  0.03790 -0.01019 -0.00070  -0.00070
       191.00   191.00   201.00   211.00   221.00    221.00
F2     F       0.25000  0.25000  0.55774  0.00000   0.12500   0   0   2    0  
                  0.00     0.00   231.00     0.00      0.00
      0.08606  0.08606  0.01695  0.00000  0.00000   0.00000
       241.00   241.00   251.00     0.00     0.00      0.00
F3     F       0.25000  0.25000  0.99285  0.00000   0.12500   0   0   2    0  
                  0.00     0.00   261.00     0.00      0.00
      0.04394  0.04394  0.02565  0.00000  0.00000   0.00000
       271.00   271.00   281.00     0.00     0.00      0.00
!-------> Profile Parameters for Pattern #  1
!  Scale        Shape1      Bov      Str1      Str2      Str3   Strain-Model
 0.58297E-03   0.76052   0.00000   0.00000   0.00000   0.00000       0
    11.00000    21.000     0.000     0.000     0.000     0.000
!       U         V          W           X          Y        GauSiz   LorSiz Size-Model
   0.006000   0.006415   0.000008   0.000000   0.000000   0.000000   0.000000    0
      0.000     31.000     41.000      0.000      0.000      0.000      0.000
!     a          b         c        alpha      beta       gamma      #Cell Info
   6.336050   6.336050   9.294576  90.000000  90.000000  90.000000   
   51.00000   51.00000   61.00000    0.00000    0.00000    0.00000
!  Pref1    Pref2      Asy1     Asy2     Asy3     Asy4  
  1.00000  0.00000  0.03943  0.00707  0.00000  0.00000
     0.00     0.00    71.00    81.00     0.00     0.00
!-------------------------------------------------------------------------------
!  Data for PHASE number:   2  ==> Current R_Bragg for Pattern#  1:     0.09
!-------------------------------------------------------------------------------
 phase 2:
!
!Nat Dis Ang Pr1 Pr2 Pr3 Jbt Irf Isy Str Furth       ATZ    Nvk Npr More
   0   0   0 0.0 0.0 1.0   2   2   0   0   0          0.000   0   5   0
!
F M -3 M                 <--Space group symbol
!-------> Profile Parameters for Pattern #  1
!  Scale        Shape1      Bov      Str1      Str2      Str3   Strain-Model
 0.27363E-03   0.44701   0.00000   0.00000   0.00000   0.00000       0
     0.00000   301.000     0.000     0.000     0.000     0.000
!       U         V          W           X          Y        GauSiz   LorSiz Size-Model
   0.006000   0.001397   0.001194   0.000000   0.000000   0.000000   0.000000    0
      0.000      0.000    311.000      0.000      0.000      0.000      0.000
!     a          b         c        alpha      beta       gamma      #Cell Info
   9.061697   9.061697   9.061697  90.000000  90.000000  90.000000   
  321.00000  321.00000  321.00000    0.00000    0.00000    0.00000
!  Pref1    Pref2      Asy1     Asy2     Asy3     Asy4  
  1.00000  0.00000  0.00000  0.00000  0.00000  0.00000
     0.00     0.00     0.00     0.00     0.00     0.00
!-------------------------------------------------------------------------------
!  Data for PHASE number:   3  ==> Current R_Bragg for Pattern#  1:     5.08
!-------------------------------------------------------------------------------
 phase 3:  hk0 of phase 1
!
!Nat Dis Ang Pr1 Pr2 Pr3 Jbt Irf Isy Str Furth       ATZ    Nvk Npr More
   6   0   0 0.0 0.0 1.0   0   1   0   0   0        566.813   0   5   1
!
!Jvi Jdi Hel Sol Mom Ter  Brind   RMua    RMub    RMuc   Jtyp  Nsp_Ref Ph_Shift N_Domains
   0   3   0   0   0   0  1.0000  0.0000  0.0000  0.0000    0      0      0      0
!
! Max_dst(dist) (angles)  Bond-Valence Calc.
      4.0000      3.5000        1  
P 4/N M M                <--Space group symbol
!Atom   Typ       X        Y        Z     Biso       Occ     In Fin N_t Spc /Codes
!    beta11   beta22   beta33   beta12   beta13   beta23  /Codes
ZR     Zr      0.25000  0.25000  0.77156  0.00000   0.12500   0   0   2    0  
                  0.00     0.00    91.00     0.00      0.00
      0.01853  0.01853  0.00948  0.00000  0.00000   0.00000
       101.00   101.00   111.00     0.00     0.00      0.00
K1     K       0.25000  0.25000  0.29231  0.00000   0.12500   0   0   2    0  
                  0.00     0.00   121.00     0.00      0.00
      0.02520  0.02520  0.01056  0.00000  0.00000   0.00000
       131.00   131.00   141.00     0.00     0.00      0.00
K2     K       0.75000  0.25000  0.00000  0.00000   0.12500   0   0   2    0  
                  0.00     0.00     0.00     0.00      0.00
      0.03182  0.03182  0.01475  0.00000  0.00000   0.00000
       151.00   151.00   161.00     0.00     0.00      0.00
F1     F       0.47283  0.47283  0.78941  0.00000   0.50000   0   0   2    0  
                171.00   171.00   181.00     0.00      0.00
      0.03946  0.03946  0.03790 -0.01019 -0.00070  -0.00070
       191.00   191.00   201.00   211.00   221.00    221.00
F2     F       0.25000  0.25000  0.55774  0.00000   0.12500   0   0   2    0  
                  0.00     0.00   231.00     0.00      0.00
      0.08606  0.08606  0.01695  0.00000  0.00000   0.00000
       241.00   241.00   251.00     0.00     0.00      0.00
F3     F       0.25000  0.25000  0.99285  0.00000   0.12500   0   0   2    0  
                  0.00     0.00   261.00     0.00      0.00
      0.04394  0.04394  0.02565  0.00000  0.00000   0.00000
       271.00   271.00   281.00     0.00     0.00      0.00
!-------> Profile Parameters for Pattern #  1
!  Scale        Shape1      Bov      Str1      Str2      Str3   Strain-Model
 0.58297E-03   0.72233   0.00000   0.00000   0.00000   0.00000       0
    11.00000   371.000     0.000     0.000     0.000     0.000
!       U         V          W           X          Y        GauSiz   LorSiz Size-Model
   0.004000   0.006816  -0.000365   0.000000   0.000000   0.000000   0.000000    0
      0.000    341.000    381.000      0.000      0.000      0.000      0.000
!     a          b         c        alpha      beta       gamma      #Cell Info
   6.336050   6.336050   9.294576  90.000000  90.000000  90.000000   
   51.00000   51.00000   61.00000    0.00000    0.00000    0.00000
!  Pref1    Pref2      Asy1     Asy2     Asy3     Asy4  
  1.00000  0.00000  0.00055 -0.01222  0.00000  0.00000
     0.00     0.00   391.00   401.00     0.00     0.00
!  2Th1/TOF1    2Th2/TOF2  Pattern # 1
       4.000      59.000       1




   4.000   0.002   70.000                119.998                                               
   261.    291.    285.    289.    284.    305.    291.    297.
   277.    265.    291.    285.    287.    292.    274.    294.
   283.    277.    269.    295.    290.    251.    268.    260.
   295.    295.    288.    267.    279.    292.    267.    286.
   287.    284.    274.    277.    267.    296.    260.    278.
   298.    281.    258.    304.    273.    281.    248.    262.
   300.    277.    290.    280.    274.    301.    280.    274.
   276.    266.    283.    296.    267.    280.    290.    275.
   281.    290.    279.    264.    280.    297.    284.    290.
   290.    288.    295.    289.    296.    290.    248.    264.
   269.    255.    258.    289.    278.    266.    270.    251.
   271.    277.    272.    303.    299.    287.    286.    279.
   272.    293.    273.    279.    276.    272.    293.    285.
   273.    284.    299.    270.    286.    296.    248.    280.
   281.    288.    274.    245.    294.    283.    294.    296.
   291.    271.    265.    279.    267.    270.    293.    273.
   288.    299.    300.    268.    274.    261.    281.    260.
   267.    277.    281.    260.    273.    288.    270.    283.
   257.    283.    271.    279.    276.    285.    293.    276.
   278.    281.    281.    275.    253.    280.    252.    278.
   272.    294.    259.    269.    279.    305.    294.    310.
   272.    265.    303.    280.    292.    272.    266.    258.
   272.    296.    252.    267.    253.    270.    278.    259.
   240.    281.    263.    269.    269.    242.    269.    289.
   302.    259.    298.    291.    282.    264.    240.    252.
   265.    288.    272.    260.    283.    251.    253.    262.
   270.    274.    269.    258.    269.    263.    265.    260.
   283.    261.    256.    286.    287.    261.    249.    275.
   287.    265.    264.    272.    255.    256.    272.    273.
   286.    298.    285.    257.    273.    271.    289.    276.
   294.    271.    277.    269.    267.    262.    264.    251.
   257.    251.    279.    260.    240.    253.    313.    265.
   280.    266.    233.    279.    295.    266.    255.    261.
   269.    289.    269.    265.    259.    265.    269.    284.
   244.    284.    273.    247.    262.    271.    248.    244.
   265.    269.    262.    279.    282.    275.    266.    274.
   301.    255.    261.    272.    253.    292.    264.    256.
   229.    245.    284.    269.    270.    264.    288.    266.
   240.    266.    250.    240.    258.    249.    260.    257.
   265.    256.    264.    253.    302.    297.    240.    256.
   262.    262.    286.    250.    284.    279.    245.    271.
   271.    272.    277.    256.    240.    256.    268.    261.
   285.    267.    258.    275.    298.    290.    251.    259.
   264.    262.    258.    260.    262.    252.    277.    263.
   256.    254.    232.    259.    256.    282.    244.    256.
   280.    273.    254.    256.    249.    282.    249.    261.
   267.    264.    244.    287.    268.    282.    281.    261.
   277.    270.    229.    275.    256.    285.    260.    259.
   257.    258.    278.    264.    259.    273.    270.    264.
   273.    275.    291.    295.    288.    267.    235.    290.
   288.    249.    247.    267.    248.    283.    277.    234.
   270.    265.    273.    278.    281.    284.    258.    262.
   264.    253.    263.    289.    263.    249.    268.    253.
   270.    252.    280.    273.    277.    265.    269.    258.
   287.    270.    259.    279.    275.    299.    298.    263.
   298.    284.    291.    305.    287.    281.    291.    278.
   262.    281.    290.    282.    296.    241.    235.    271.
   266.    282.    274.    269.    281.    267.    277.    273.
   302.    303.    267.    284.    309.    290.    299.    296.
   290.    299.    327.    308.    280.    303.    304.    322.
   279.    339.    301.    292.    324.    326.    320.    313.
   306.    324.    342.    303.    348.    336.    318.    319.
   349.    337.    336.    360.    347.    346.    319.    351.
   331.    372.    381.    382.    396.    405.    420.    402.
   446.    493.    475.    466.    520.    556.    576.    608.
   601.    646.    745.    758.    819.    951.   1058.   1193.
  1344.   1507.   1781.   2099.   2659.   3242.   4006.   5143.
  6327.   7643.   9412.  11430.  13163.  15017.  17562.  20040.
 22645.  25226.  27542.  29606.  30899.  30903.  28877.  24982.
 18640.  11433.   6644.   4230.   3146.   2567.   2058.   1904.
  1636.   1485.   1364.   1243.   1095.   1068.    952.    962.
   864.    793.    734.    704.    708.    611.    656.    602.
   567.    540.    558.    509.    478.    471.    467.    436.
   472.    423.    395.    367.    415.    404.    402.    373.
   388.    350.    363.    355.    331.    313.    328.    320.
   348.    333.    297.    316.    308.    330.    313.    296.
   315.    299.    323.    296.    282.    311.    292.    335.
   297.    309.    279.    282.    308.    274.    295.    282.
   294.    296.    271.    294.    288.    287.    296.    293.
   275.    275.    276.    309.    258.    250.    281.    287.
   265.    291.    290.    299.    282.    299.    243.    265.
   285.    273.    282.    268.    289.    280.    243.    274.
   292.    245.    271.    268.    260.    264.    257.    223.
   268.    253.    246.    284.    250.    269.    282.    297.
   286.    273.    276.    248.    270.    270.    257.    261.
   256.    272.    283.    275.    248.    294.    266.    270.
   276.    249.    256.    262.    262.    268.    259.    250.
   269.    264.    283.    269.    270.    267.    269.    280.
   260.    261.    258.    263.    281.    280.    251.    255.
   257.    284.    270.    267.    270.    261.    281.    253.
   253.    251.    244.    254.    242.    230.    258.    273.
   284.    246.    260.    274.    239.    255.    255.    246.
   265.    244.    250.    264.    236.    276.    260.    262.
   262.    246.    253.    254.    259.    238.    284.    260.
   248.    271.    262.    258.    231.    257.    266.    252.
   266.    246.    242.    252.    247.    254.    251.    242.
   236.    226.    258.    252.    255.    277.    263.    259.
   281.    249.    235.    246.    257.    258.    275.    254.
   284.    254.    265.    242.    242.    219.    256.    236.
   239.    257.    242.    258.    242.    244.    273.    229.
   240.    251.    246.    248.    261.    239.    252.    224.
   248.    230.    256.    243.    248.    251.    241.    241.
   232.    244.    258.    250.    230.    234.    257.    248.
   258.    249.    259.    262.    257.    263.    252.    242.
   226.    247.    222.    255.    262.    258.    246.    241.
   235.    232.    263.    261.    227.    229.    244.    227.
   262.    248.    241.    247.    236.    247.    272.    268.
   240.    232.    241.    251.    249.    233.    243.    247.
   246.    256.    247.    256.    255.    254.    232.    249.
   233.    263.    247.    248.    250.    251.    248.    239.
   264.    284.    266.    241.    218.    218.    258.    249.
   261.    239.    250.    261.    251.    249.    252.    242.
   238.    262.    252.    261.    244.    240.    234.    242.
   238.    228.    247.    250.    248.    244.    251.    269.
   248.    233.    245.    248.    224.    269.    252.    236.
   252.    260.    236.    235.    215.    235.    246.    241.
   241.    218.    255.    253.    260.    256.    238.    241.
   239.    245.    238.    253.    254.    241.    237.    266.
   227.    248.    269.    239.    242.    257.    243.    240.
   254.    261.    241.    227.    234.    244.    252.    260.
   250.    218.    228.    233.    240.    245.    235.    232.
   222.    241.    260.    264.    241.    257.    254.    250.
   251.    259.    250.    230.    232.    230.    217.    230.
   218.    206.    251.    245.    265.    245.    229.    242.
   238.    240.    236.    215.    244.    264.    217.    238.
   233.    235.    241.    235.    246.    207.    219.    252.
   275.    267.    247.    223.    280.    220.    243.    247.
   253.    236.    228.    232.    239.    231.    219.    233.
   241.    243.    228.    259.    256.    273.    242.    256.
   267.    241.    239.    234.    236.    250.    243.    233.
   229.    225.    238.    221.    246.    245.    256.    257.
   261.    252.    204.    232.    237.    228.    254.    252.
   242.    259.    245.    262.    235.    247.    236.    225.
   245.    253.    243.    252.    224.    222.    249.    236.
   245.    234.    241.    242.    232.    233.    251.    244.
   256.    253.    280.    248.    227.    224.    247.    261.
   255.    246.    249.    229.    224.    253.    275.    235.
   247.    261.    233.    235.    230.    257.    260.    242.
   235.    251.    260.    244.    232.    242.    235.    227.
   236.    237.    238.    245.    237.    225.    207.    259.
   192.    224.    236.    236.    239.    245.    207.    245.
   234.    240.    263.    274.    242.    243.    225.    261.
   263.    230.    278.    226.    241.    259.    243.    223.
   242.    246.    272.    222.    248.    244.    255.    232.
   248.    256.    264.    257.    260.    236.    242.    251.
   254.    248.    232.    254.    245.    236.    240.    236.
   247.    228.    249.    247.    249.    239.    224.    242.
   236.    251.    240.    243.    238.    219.    247.    231.
   238.    250.    244.    242.    251.    242.    244.    253.
   263.    273.    243.    241.    234.    238.    239.    223.
   269.    256.    253.    234.    231.    247.    227.    232.
   239.    240.    231.    229.    229.    267.    273.    250.
   258.    252.    242.    233.    232.    233.    249.    228.
   233.    240.    237.    240.    268.    244.    231.    258.
   244.    238.    273.    262.    250.    219.    257.    281.
   221.    243.    254.    243.    270.    251.    245.    253.
   230.    247.    247.    249.    252.    251.    253.    245.
   247.    222.    253.    219.    223.    238.    235.    229.
   252.    247.    254.    251.    225.    235.    254.    231.
   234.    253.    242.    207.    249.    255.    271.    236.
   214.    240.    240.    239.    221.    250.    216.    235.
   254.    247.    231.    238.    253.    224.    225.    254.
   228.    246.    228.    239.    230.    245.    263.    235.
   214.    242.    230.    241.    256.    237.    211.    239.
   234.    221.    246.    228.    234.    240.    259.    235.
   247.    238.    195.    222.    219.    223.    229.    249.
   241.    240.    224.    258.    241.    269.    274.    250.
   249.    247.    240.    236.    219.    238.    246.    245.
   242.    232.    241.    243.    248.    268.    249.    221.
   218.    226.    248.    232.    251.    239.    253.    231.
   242.    256.    243.    235.    235.    247.    247.    258.
   230.    231.    208.    258.    246.    239.    221.    262.
   229.    264.    233.    206.    253.    242.    253.    236.
   242.    233.    214.    224.    262.    245.    234.    213.
   245.    221.    242.    254.    263.    221.    227.    235.
   207.    221.    261.    244.    237.    225.    225.    266.
   225.    237.    227.    258.    234.    257.    222.    241.
   242.    222.    211.    249.    247.    233.    247.    221.
   238.    265.    235.    244.    245.    234.    231.    247.
   232.    250.    225.    247.    234.    226.    218.    267.
   273.    242.    275.    254.    237.    244.    252.    238.
   237.    234.    246.    261.    245.    243.    244.    237.
   251.    213.    231.    246.    220.    227.    257.    223.
   238.    226.    241.    245.    220.    252.    261.    233.
   264.    233.    210.    243.    251.    243.    208.    220.
   237.    261.    246.    242.    230.    234.    250.    246.
   240.    230.    229.    225.    241.    247.    244.    219.
   221.    207.    251.    243.    259.    242.    232.    246.
   228.    251.    251.    220.    233.    269.    215.    241.
   234.    257.    232.    235.    251.    249.    226.    220.
   230.    237.    240.    223.    225.    245.    239.    224.
   236.    220.    245.    238.    225.    218.    261.    223.
   234.    216.    219.    237.    241.    214.    262.    225.
   247.    246.    252.    242.    221.    225.    255.    226.
   227.    237.    244.    252.    238.    226.    258.    238.
   265.    241.    232.    234.    244.    248.    251.    252.
   229.    257.    226.    245.    238.    242.    220.    239.
   249.    250.    230.    223.    254.    255.    241.    219.
   244.    247.    242.    241.    248.    232.    240.    231.
   237.    240.    237.    265.    250.    249.    243.    220.
   249.    235.    225.    242.    271.    261.    247.    225.
   255.    223.    241.    251.    259.    262.    239.    250.
   247.    245.    246.    228.    230.    243.    231.    255.
   235.    235.    258.    233.    271.    272.    234.    228.
   242.    226.    245.    225.    208.    260.    239.    262.
   240.    223.    258.    245.    265.    220.    230.    238.
   236.    241.    243.    241.    250.    234.    240.    235.
   239.    241.    255.    250.    220.    283.    254.    261.
   240.    231.    255.    238.    230.    214.    230.    261.
   232.    249.    218.    222.    256.    260.    230.    257.
   266.    230.    229.    232.    255.    239.    261.    242.
   258.    250.    266.    241.    241.    220.    250.    229.
   246.    250.    269.    257.    254.    266.    233.    265.
   221.    240.    243.    224.    273.    267.    243.    218.
   256.    246.    244.    226.    242.    216.    244.    248.
   249.    236.    254.    234.    239.    247.    240.    256.
   238.    240.    242.    278.    249.    233.    238.    269.
   239.    214.    251.    229.    239.    248.    246.    256.
   257.    228.    228.    246.    265.    276.    247.    239.
   224.    233.    238.    238.    268.    258.    254.    252.
   241.    255.    267.    285.    240.    243.    236.    246.
   267.    222.    250.    245.    254.    246.    246.    257.
   244.    220.    267.    252.    244.    252.    236.    247.
   233.    258.    246.    248.    234.    256.    260.    247.
   235.    238.    255.    259.    259.    230.    247.    238.
   253.    232.    242.    251.    263.    246.    222.    251.
   243.    238.    241.    256.    244.    240.    240.    253.
   271.    235.    248.    256.    239.    237.    234.    227.
   248.    248.    239.    237.    254.    218.    266.    265.
   221.    242.    273.    248.    239.    250.    236.    245.
   253.    253.    249.    247.    263.    240.    234.    252.
   242.    260.    249.    230.    232.    235.    247.    244.
   242.    266.    250.    281.    251.    255.    267.    223.
   265.    239.    224.    248.    268.    261.    252.    252.
   249.    224.    232.    248.    256.    251.    246.    250.
   232.    244.    247.    255.    254.    262.    244.    255.
   232.    266.    235.    239.    267.    273.    253.    271.
   256.    251.    247.    255.    249.    244.    233.    201.
   257.    250.    260.    251.    257.    242.    237.    241.
   262.    252.    266.    248.    249.    238.    248.    262.
   230.    267.    264.    246.    260.    247.    276.    263.
   266.    274.    253.    254.    230.    244.    270.    265.
   259.    274.    252.    246.    239.    259.    251.    240.
   252.    255.    236.    265.    253.    240.    245.    238.
   258.    252.    272.    255.    274.    262.    251.    269.
   263.    299.    271.    238.    256.    249.    272.    247.
   237.    243.    252.    254.    244.    278.    253.    234.
   267.    259.    264.    248.    242.    279.    253.    241.
   246.    273.    279.    242.    274.    227.    262.    259.
   253.    242.    242.    255.    247.    228.    265.    231.
   261.    266.    272.    272.    276.    241.    264.    282.
   255.    243.    248.    261.    238.    253.    258.    276.
   275.    270.    294.    274.    239.    261.    242.    235.
   242.    256.    272.    263.    264.    244.    277.    268.
   275.    255.    248.    251.    254.    269.    252.    236.
   245.    236.    271.    251.    268.    260.    247.    264.
   290.    270.    257.    280.    291.    274.    264.    246.
   248.    259.    279.    251.    259.    264.    291.    252.
   278.    248.    284.    284.    279.    248.    278.    266.
   268.    264.    271.    264.    256.    249.    259.    262.
   261.    252.    266.    272.    262.    278.    281.    267.
   262.    268.    276.    285.    265.    256.    252.    272.
   271.    261.    265.    273.    245.    277.    251.    296.
   282.    258.    270.    248.    248.    282.    259.    295.
   264.    239.    250.    255.    273.    248.    251.    258.
   256.    261.    245.    257.    250.    293.    273.    260.
   266.    264.    248.    263.    251.    265.    251.    274.
   256.    278.    281.    288.    246.    267.    245.    265.
   249.    287.    275.    251.    291.    263.    279.    247.
   281.    269.    279.    251.    275.    267.    267.    278.
   285.    247.    289.    266.    257.    254.    267.    261.
   246.    287.    268.    263.    284.    262.    276.    245.
   255.    256.    250.    241.    299.    269.    258.    257.
   285.    257.    264.    263.    252.    288.    294.    302.
   266.    266.    268.    259.    256.    302.    269.    256.
   285.    281.    272.    259.    279.    262.    282.    286.
   277.    288.    289.    267.    267.    285.    272.    299.
   260.    266.    276.    278.    265.    262.    298.    292.
   274.    275.    265.    267.    283.    291.    272.    287.
   256.    283.    288.    246.    277.    277.    284.    279.
   301.    301.    285.    276.    290.    272.    265.    285.
   274.    261.    294.    286.    271.    286.    249.    263.
   279.    252.    250.    297.    282.    260.    299.    302.
   282.    287.    306.    256.    258.    262.    263.    274.
   258.    261.    279.    289.    289.    270.    270.    297.
   289.    270.    288.    256.    302.    272.    268.    272.
   293.    281.    306.    272.    287.    273.    279.    287.
   284.    271.    298.    285.    274.    282.    281.    254.
   291.    255.    274.    269.    295.    311.    289.    284.
   265.    280.    275.    286.    296.    284.    295.    269.
   264.    284.    260.    313.    297.    272.    300.    302.
   298.    264.    287.    296.    285.    308.    304.    305.
   291.    280.    305.    310.    301.    297.    292.    270.
   276.    284.    304.    291.    318.    275.    273.    302.
   303.    272.    298.    284.    297.    292.    296.    292.
   295.    292.    315.    304.    306.    290.    274.    310.
   273.    278.    304.    315.    283.    265.    290.    298.
   309.    299.    291.    348.    310.    292.    300.    297.
   278.    313.    308.    295.    305.    292.    260.    272.
   279.    303.    290.    321.    285.    305.    272.    280.
   305.    280.    284.    309.    309.    294.    305.    319.
   287.    290.    308.    295.    337.    295.    287.    266.
   298.    307.    311.    300.    321.    296.    304.    320.
   311.    294.    318.    356.    291.    297.    291.    287.
   323.    303.    319.    310.    342.    296.    323.    315.
   329.    312.    308.    301.    317.    313.    330.    321.
   342.    306.    326.    327.    326.    357.    343.    337.
   332.    323.    327.    350.    363.    327.    327.    333.
   312.    344.    333.    347.    356.    353.    369.    342.
   329.    364.    387.    364.    348.    355.    410.    395.
   378.    406.    368.    414.    453.    472.    454.    488.
   511.    508.    508.    549.    544.    605.    631.    637.
   661.    661.    742.    774.    829.    902.    943.   1038.
  1051.   1226.   1375.   1406.   1591.   1813.   1988.   2267.
  2491.   2872.   3303.   3962.   4735.   5382.   6551.   8020.
  9853.  12472.  15391.  18704.  22802.  27090.  31090.  34814.
 37646.  38328.  37828.  34666.  30148.  25116.  20813.  17583.
 14187.  11797.   9822.   8141.   7086.   5870.   5147.   4421.
  3781.   3303.   2988.   2642.   2398.   2098.   1852.   1656.
  1534.   1391.   1263.   1163.   1043.   1000.    940.    882.
   808.    747.    714.    653.    639.    610.    610.    551.
   518.    554.    526.    487.    462.    436.    441.    461.
   408.    431.    386.    431.    415.    395.    378.    384.
   400.    418.    361.    376.    362.    391.    372.    338.
   352.    378.    386.    353.    354.    356.    328.    327.
   353.    347.    347.    351.    354.    362.    320.    376.
   365.    345.    329.    354.    359.    362.    348.    335.
   334.    388.    394.    334.    359.    388.    317.    337.
   375.    349.    379.    355.    328.    347.    345.    332.
   378.    395.    351.    343.    343.    343.    358.    372.
   371.    351.    358.    365.    369.    326.    340.    340.
   364.    349.    350.    352.    352.    334.    356.    353.
   337.    359.    375.    355.    378.    352.    405.    379.
   387.    336.    364.    360.    335.    389.    367.    329.
   338.    365.    346.    349.    380.    357.    348.    338.
   358.    318.    355.    362.    387.    345.    351.    354.
   353.    322.    352.    375.    319.    313.    319.    337.
   356.    349.    350.    352.    324.    346.    338.    301.
   360.    339.    321.    339.    340.    355.    349.    340.
   368.    352.    347.    351.    354.    374.    360.    351.
   352.    349.    336.    340.    343.    335.    322.    361.
   375.    306.    357.    347.    335.    312.    348.    326.
   335.    316.    342.    324.    315.    339.    333.    330.
   332.    314.    326.    328.    357.    314.    313.    331.
   337.    359.    338.    344.    333.    343.    346.    321.
   352.    344.    338.    356.    346.    342.    346.    357.
   366.    366.    347.    350.    325.    346.    353.    316.
   361.    324.    356.    362.    338.    353.    345.    356.
   338.    339.    344.    361.    337.    325.    314.    356.
   346.    352.    346.    352.    354.    358.    327.    315.
   376.    334.    329.    347.    360.    351.    328.    379.
   333.    325.    339.    336.    344.    349.    334.    357.
   344.    356.    372.    367.    370.    368.    382.    328.
   309.    362.    320.    337.    355.    355.    365.    354.
   366.    354.    360.    332.    334.    321.    333.    358.
   345.    318.    350.    348.    377.    371.    326.    329.
   330.    348.    375.    352.    340.    367.    362.    369.
   363.    340.    351.    363.    370.    372.    346.    325.
   347.    386.    343.    343.    371.    362.    344.    349.
   329.    354.    352.    352.    378.    351.    349.    341.
   338.    347.    327.    363.    349.    359.    367.    394.
   368.    364.    369.    337.    384.    361.    359.    369.
   361.    360.    352.    364.    356.    359.    364.    381.
   384.    345.    342.    336.    338.    323.    355.    357.
   372.    354.    347.    342.    399.    358.    365.    358.
   353.    357.    368.    384.    383.    356.    365.    365.
   380.    353.    338.    351.    342.    369.    379.    390.
   358.    373.    372.    345.    342.    346.    348.    373.
   359.    364.    350.    361.    358.    379.    359.    373.
   364.    380.    362.    360.    345.    371.    375.    358.
   377.    356.    363.    397.    396.    390.    385.    390.
   380.    358.    372.    369.    386.    398.    368.    385.
   387.    397.    347.    356.    395.    379.    350.    383.
   394.    401.    387.    397.    381.    392.    401.    368.
   393.    421.    417.    380.    408.    399.    401.    398.
   405.    404.    378.    374.    376.    378.    350.    401.
   350.    380.    380.    394.    403.    384.    395.    396.
   405.    358.    404.    397.    381.    378.    403.    373.
   390.    407.    392.    395.    428.    415.    383.    374.
   406.    423.    397.    439.    375.    424.    420.    416.
   397.    457.    401.    415.    448.    416.    438.    422.
   431.    403.    448.    460.    472.    480.    454.    486.
   453.    481.    510.    485.    488.    511.    479.    573.
   522.    584.    592.    562.    587.    585.    642.    651.
   651.    723.    758.    776.    781.    837.    974.    966.
  1068.   1069.   1217.   1260.   1416.   1553.   1813.   1977.
  2238.   2541.   2842.   3218.   3690.   4331.   5132.   5971.
  6880.   8067.   9475.  10642.  11978.  13240.  14312.  15012.
 15090.  14499.  13296.  11607.   9353.   7196.   5289.   3872.
  3093.   2474.   2211.   1881.   1686.   1563.   1451.   1338.
  1218.   1102.   1120.    976.    994.    949.    872.    822.
   830.    802.    747.    760.    697.    678.    630.    653.
   650.    615.    569.    614.    593.    566.    569.    583.
   554.    538.    512.    512.    506.    530.    511.    535.
   534.    510.    501.    498.    491.    487.    491.    463.
   502.    486.    464.    475.    470.    475.    461.    508.
   497.    496.    487.    481.    455.    462.    483.    476.
   467.    504.    506.    452.    490.    490.    453.    474.
   499.    490.    457.    459.    500.    478.    480.    480.
   487.    500.    490.    515.    460.    494.    499.    483.
   477.    467.    494.    527.    522.    510.    506.    510.
   521.    525.    513.    545.    554.    575.    567.    562.
   593.    605.    654.    656.    736.    748.    769.    771.
   886.    981.   1115.   1147.   1291.   1436.   1552.   1732.
  1810.   2013.   2049.   2078.   2227.   2198.   2004.   1957.
  1722.   1546.   1462.   1267.   1132.   1019.    952.    935.
   881.    832.    794.    766.    729.    737.    751.    666.
   737.    728.    746.    703.    714.    736.    761.    758.
   786.    866.    894.    908.    972.   1008.   1039.   1075.
  1144.   1227.   1287.   1390.   1487.   1722.   1873.   2205.
  2457.   2740.   3104.   3860.   4886.   6023.   8053.  10897.
 14667.  19911.  26131.  34465.  42660.  50946.  54780.  52064.
 44880.  35131.  28093.  21511.  17332.  13843.  11119.   9179.
  7491.   6427.   5347.   4685.   4050.   3578.   3130.   2770.
  2431.   2153.   1946.   1835.   1581.   1530.   1386.   1281.
  1204.   1108.   1022.    935.    929.    854.    860.    801.
   756.    737.    736.    625.    680.    626.    627.    574.
   606.    595.    558.    567.    546.    553.    565.    525.
   523.    525.    507.    494.    493.    472.    541.    525.
   495.    504.    510.    464.    480.    547.    492.    473.
   472.    513.    474.    498.    449.    447.    461.    499.
   458.    494.    473.    472.    494.    460.    448.    492.
   460.    485.    478.    463.    487.    472.    472.    450.
   441.    468.    480.    448.    454.    457.    483.    469.
   443.    435.    429.    473.    438.    446.    497.    432.
   474.    439.    457.    439.    430.    466.    467.    437.
   463.    489.    418.    443.    452.    448.    457.    443.
   474.    462.    442.    419.    451.    420.    450.    453.
   475.    454.    452.    423.    460.    499.    412.    439.
   479.    439.    435.    456.    457.    424.    471.    440.
   412.    446.    434.    461.    429.    475.    468.    424.
   463.    419.    457.    468.    415.    443.    406.    419.
   449.    441.    435.    462.    418.    492.    437.    446.
   452.    456.    466.    505.    440.    444.    425.    416.
   442.    482.    448.    469.    446.    433.    455.    441.
   449.    476.    454.    444.    411.    448.    445.    413.
   412.    459.    462.    469.    440.    430.    424.    419.
   432.    424.    406.    428.    441.    478.    433.    434.
   402.    422.    439.    450.    429.    454.    459.    421.
   443.    416.    416.    470.    468.    438.    469.    420.
   435.    442.    445.    441.    458.    461.    448.    445.
   477.    451.    454.    449.    433.    433.    419.    442.
   432.    437.    436.    460.    459.    454.    438.    458.
   427.    466.    426.    464.    435.    417.    473.    435.
   442.    471.    458.    447.    428.    414.    462.    416.
   456.    430.    443.    425.    450.    426.    409.    456.
   464.    421.    439.    464.    454.    431.    422.    429.
   428.    442.    416.    430.    438.    430.    431.    420.
   431.    414.    445.    429.    443.    401.    462.    418.
   470.    468.    453.    443.    415.    422.    424.    503.
   451.    453.    439.    433.    427.    452.    438.    427.
   432.    471.    454.    443.    434.    456.    412.    406.
   464.    448.    447.    427.    464.    443.    471.    455.
   436.    462.    482.    453.    445.    431.    437.    467.
   467.    436.    428.    462.    446.    470.    426.    429.
   424.    441.    461.    474.    440.    431.    433.    466.
   468.    439.    454.    467.    455.    427.    422.    418.
   430.    408.    433.    406.    447.    445.    430.    449.
   459.    422.    436.    438.    425.    435.    447.    452.
   484.    427.    425.    454.    427.    410.    427.    429.
   450.    433.    422.    449.    441.    411.    444.    432.
   453.    428.    428.    427.    441.    460.    461.    397.
   415.    449.    435.    442.    469.    436.    435.    446.
   448.    409.    424.    441.    450.    436.    427.    458.
   433.    460.    441.    436.    412.    424.    421.    418.
   434.    448.    454.    445.    419.    439.    448.    408.
   450.    441.    461.    442.    435.    446.    430.    440.
   451.    457.    453.    410.    409.    441.    447.    440.
   445.    455.    423.    441.    426.    439.    433.    441.
   433.    447.    469.    410.    429.    459.    443.    420.
   437.    441.    441.    447.    432.    428.    424.    430.
   435.    417.    455.    428.    447.    440.    451.    421.
   460.    433.    419.    449.    438.    470.    456.    435.
   447.    424.    423.    472.    493.    424.    424.    482.
   461.    461.    427.    451.    440.    470.    431.    441.
   476.    444.    432.    442.    429.    472.    457.    480.
   453.    442.    450.    462.    451.    443.    457.    451.
   459.    474.    439.    444.    400.    420.    416.    456.
   436.    449.    463.    470.    457.    475.    435.    470.
   468.    464.    463.    457.    465.    481.    480.    500.
   486.    505.    481.    492.    520.    499.    533.    516.
   552.    529.    531.    544.    562.    494.    566.    581.
   622.    627.    614.    657.    651.    649.    723.    749.
   830.    857.    915.    991.   1080.   1195.   1430.   1724.
  1961.   2437.   2949.   3466.   4194.   4733.   5368.   5638.
  5452.   5080.   4628.   3960.   3306.   2797.   2327.   2049.
  1790.   1599.   1440.   1265.   1122.   1081.   1024.    956.
   920.    856.    781.    812.    748.    667.    693.    682.
   629.    641.    611.    584.    583.    582.    549.    585.
   576.    517.    523.    566.    543.    523.    520.    501.
   513.    477.    494.    506.    439.    464.    492.    490.
   465.    437.    466.    476.    442.    493.    452.    451.
   460.    458.    429.    465.    460.    440.    490.    468.
   452.    435.    440.    433.    468.    487.    462.    435.
   419.    423.    455.    428.    461.    436.    429.    423.
   419.    398.    406.    415.    446.    421.    473.    445.
   444.    425.    445.    428.    456.    438.    431.    428.
   439.    424.    414.    425.    437.    462.    445.    418.
   422.    443.    439.    390.    419.    415.    455.    456.
   459.    442.    428.    461.    419.    423.    421.    429.
   435.    430.    464.    409.    393.    411.    434.    408.
   440.    403.    419.    413.    402.    413.    443.    458.
   415.    405.    418.    400.    415.    433.    425.    409.
   394.    440.    432.    442.    451.    407.    411.    435.
   446.    456.    422.    420.    426.    421.    423.    403.
   430.    425.    433.    407.    432.    427.    431.    416.
   444.    392.    452.    415.    421.    432.    412.    423.
   453.    419.    433.    399.    432.    422.    377.    407.
   410.    426.    440.    412.    438.    413.    428.    435.
   389.    431.    417.    418.    434.    466.    423.    434.
   410.    407.    437.    412.    446.    463.    386.    418.
   406.    417.    389.    399.    424.    436.    426.    426.
   428.    429.    439.    448.    394.    412.    401.    410.
   442.    396.    398.    414.    432.    436.    421.    452.
   433.    428.    453.    456.    407.    415.    433.    411.
   409.    420.    420.    408.    414.    419.    432.    436.
   400.    412.    398.    428.    407.    416.    425.    406.
   385.    440.    436.    423.    405.    408.    417.    402.
   400.    381.    429.    425.    402.    419.    421.    422.
   405.    392.    417.    428.    388.    437.    416.    433.
   413.    390.    363.    387.    417.    426.    405.    396.
   427.    411.    406.    418.    432.    396.    420.    385.
   392.    400.    404.    418.    402.    401.    391.    425.
   432.    393.    396.    458.    387.    406.    435.    390.
   422.    419.    390.    447.    403.    368.    386.    405.
   383.    391.    403.    400.    395.    443.    442.    428.
   403.    395.    418.    395.    441.    406.    409.    408.
   392.    409.    414.    437.    394.    425.    433.    400.
   398.    406.    420.    387.    413.    392.    427.    400.
   384.    392.    397.    380.    393.    402.    390.    428.
   437.    403.    406.    449.    407.    390.    420.    361.
   392.    432.    416.    413.    395.    439.    413.    411.
   398.    417.    382.    410.    428.    388.    402.    395.
   396.    384.    395.    424.    478.    435.    415.    430.
   392.    412.    424.    437.    434.    407.    425.    396.
   423.    448.    445.    439.    432.    464.    434.    452.
   446.    438.    475.    461.    464.    496.    465.    473.
   494.    451.    493.    513.    493.    508.    542.    543.
   537.    554.    550.    581.    624.    636.    674.    649.
   712.    709.    776.    760.    817.    886.    959.   1016.
  1058.   1246.   1375.   1496.   1688.   1944.   2209.   2484.
  2795.   3119.   3559.   3932.   4152.   4465.   4601.   4434.
  4253.   3900.   3469.   2927.   2487.   2159.   1799.   1530.
  1341.   1164.   1088.    993.    929.    851.    751.    749.
   724.    685.    672.    642.    651.    590.    557.    572.
   572.    536.    555.    508.    493.    490.    475.    449.
   435.    459.    446.    472.    468.    441.    434.    432.
   431.    452.    413.    462.    394.    413.    423.    420.
   415.    441.    414.    431.    404.    409.    415.    446.
   402.    386.    394.    407.    425.    455.    469.    429.
   421.    430.    436.    437.    428.    421.    441.    431.
   442.    446.    477.    462.    455.    461.    502.    516.
   499.    457.    446.    493.    445.    435.    438.    431.
   440.    427.    432.    404.    384.    412.    395.    401.
   395.    431.    408.    386.    404.    399.    397.    403.
   419.    392.    396.    421.    376.    393.    399.    400.
   409.    381.    389.    361.    396.    397.    380.    385.
   404.    392.    375.    373.    371.    406.    373.    393.
   387.    364.    386.    366.    368.    375.    367.    356.
   371.    339.    393.    370.    392.    386.    367.    365.
   371.    360.    364.    379.    387.    370.    409.    389.
   408.    371.    384.    396.    365.    341.    359.    352.
   394.    400.    400.    343.    391.    399.    387.    388.
   363.    374.    357.    376.    376.    378.    383.    369.
   381.    386.    392.    413.    444.    402.    430.    443.
   434.    442.    456.    435.    430.    396.    393.    392.
   409.    378.    403.    388.    397.    407.    374.    407.
   366.    393.    369.    382.    371.    353.    360.    354.
   365.    387.    393.    362.    370.    353.    371.    372.
   357.    372.    388.    371.    373.    365.    359.    338.
   360.    386.    360.    370.    346.    364.    360.    367.
   399.    329.    353.    345.    366.    367.    378.    362.
   348.    341.    360.    370.    362.    374.    392.    365.
   374.    370.    364.    368.    333.    330.    374.    350.
   381.    344.    376.    369.    342.    383.    356.    344.
   352.    342.    381.    345.    313.    360.    343.    373.
   370.    378.    393.    362.    327.    371.    370.    352.
   332.    374.    329.    362.    357.    364.    376.    370.
   371.    361.    381.    375.    364.    360.    375.    362.
   362.    353.    340.    366.    358.    338.    341.    346.
   341.    352.    354.    316.    350.    352.    347.    351.
   342.    362.    336.    324.    342.    351.    344.    369.
   342.    366.    363.    347.    368.    342.    348.    362.
   291.    326.    333.    349.    341.    359.    354.    393.
   358.    350.    370.    355.    332.    352.    325.    336.
   348.    330.    338.    342.    367.    351.    372.    341.
   347.    386.    361.    347.    364.    325.    352.    330.
   366.    346.    324.    349.    382.    343.    332.    332.
   361.    351.    330.    297.    323.    339.    362.    315.
   342.    322.    342.    326.    320.    320.    317.    341.
   339.    339.    325.    341.    332.    347.    337.    339.
   335.    323.    325.    337.    371.    367.    328.    376.
   344.    344.    336.    335.    328.    317.    366.    362.
   317.    331.    353.    378.    344.    343.    334.    335.
   328.    315.    321.    335.    321.    359.    336.    301.
   338.    325.    337.    333.    329.    338.    346.    338.
   319.    313.    354.    350.    352.    323.    366.    338.
   309.    343.    327.    343.    355.    313.    330.    310.
   326.    326.    320.    326.    347.    328.    297.    352.
   348.    301.    351.    326.    356.    336.    326.    348.
   326.    327.    305.    301.    340.    346.    346.    335.
   342.    366.    351.    363.    303.    342.    347.    332.
   314.    335.    327.    337.    354.    335.    328.    316.
   300.    360.    348.    324.    330.    345.    381.    364.
   308.    344.    344.    356.    336.    326.    339.    353.
   351.    316.    353.    337.    337.    373.    355.    327.
   339.    312.    323.    337.    310.    325.    320.    313.
   348.    321.    302.    317.    296.    315.    313.    345.
   343.    342.    330.    318.    306.    317.    329.    316.
   332.    346.    323.    334.    324.    306.    330.    336.
   304.    325.    312.    340.    337.    319.    309.    332.
   312.    337.    349.    336.    339.    324.    319.    310.
   324.    354.    344.    328.    320.    319.    304.    305.
   321.    337.    332.    315.    330.    341.    300.    292.
   300.    322.    335.    338.    347.    334.    315.    310.
   314.    291.    328.    318.    299.    307.    292.    327.
   316.    308.    303.    297.    325.    322.    329.    322.
   353.    314.    332.    339.    320.    322.    351.    299.
   305.    313.    300.    320.    323.    312.    298.    303.
   304.    313.    320.    304.    331.    342.    333.    364.
   335.    348.    305.    315.    350.    341.    319.    331.
   305.    295.    360.    306.    330.    329.    306.    351.
   309.    330.    330.    321.    320.    325.    339.    310.
   285.    315.    327.    327.    314.    332.    314.    334.
   343.    296.    320.    323.    320.    319.    315.    286.
   307.    325.    321.    334.    321.    328.    303.    310.
   298.    341.    309.    323.    339.    345.    323.    315.
   308.    343.    302.    306.    307.    316.    324.    324.
   268.    332.    319.    316.    308.    306.    306.    327.
   335.    317.    325.    304.    315.    299.    300.    328.
   319.    307.    321.    348.    307.    318.    342.    304.
   313.    316.    327.    292.    325.    288.    334.    318.
   313.    308.    314.    295.    329.    305.    320.    319.
   341.    310.    340.    298.    327.    317.    346.    318.
   325.    315.    329.    310.    338.    342.    302.    309.
   317.    313.    326.    311.    318.    297.    326.    319.
   323.    304.    325.    306.    307.    318.    316.    298.
   310.    311.    316.    326.    340.    331.    301.    316.
   338.    320.    314.    324.    313.    348.    310.    307.
   324.    336.    339.    314.    310.    336.    339.    336.
   320.    335.    315.    327.    329.    331.    317.    315.
   346.    345.    323.    338.    302.    289.    319.    319.
   322.    331.    314.    337.    323.    329.    309.    316.
   336.    333.    297.    327.    322.    346.    319.    302.
   322.    336.    307.    305.    331.    323.    319.    319.
   333.    328.    346.    273.    309.    321.    290.    291.
   316.    308.    323.    317.    320.    281.    311.    305.
   325.    324.    317.    313.    304.    316.    302.    327.
   324.    336.    310.    309.    336.    330.    323.    310.
   301.    321.    319.    323.    309.    318.    305.    326.
   306.    314.    324.    333.    305.    295.    323.    322.
   329.    336.    323.    341.    327.    328.    334.    317.
   312.    330.    326.    336.    324.    326.    324.    312.
   327.    334.    325.    322.    359.    318.    294.    305.
   332.    349.    315.    348.    310.    337.    302.    314.
   307.    337.    361.    329.    331.    331.    302.    317.
   337.    343.    360.    359.    331.    343.    353.    363.
   328.    348.    335.    311.    349.    342.    364.    329.
   358.    381.    366.    360.    335.    377.    347.    348.
   368.    323.    357.    353.    346.    347.    349.    358.
   369.    399.    378.    379.    392.    400.    388.    373.
   386.    420.    415.    389.    396.    425.    385.    401.
   402.    423.    421.    431.    439.    452.    453.    446.
   447.    515.    465.    520.    507.    520.    530.    521.
   535.    553.    621.    629.    647.    654.    647.    697.
   719.    778.    769.    761.    776.    827.    905.    945.
  1017.   1013.   1049.   1164.   1243.   1316.   1258.   1457.
  1502.   1615.   1682.   1921.   1924.   2140.   2298.   2441.
  2638.   3060.   3210.   3554.   4068.   4371.   4977.   5618.
  6190.   7154.   8264.   9533.  11003.  12621.  14596.  16970.
 19031.  21282.  23542.  25308.  26266.  26499.  25203.  23716.
 20823.  18180.  15506.  13388.  11480.   9739.   8492.   7104.
  6337.   5631.   4940.   4311.   4114.   3650.   3480.   3170.
  2946.   2797.   2535.   2410.   2356.   2279.   2182.   2126.
  2083.   2080.   2014.   1971.   2065.   2010.   2093.   2193.
  2248.   2289.   2504.   2624.   2883.   3063.   3281.   3569.
  3855.   4237.   4588.   4834.   4962.   5431.   5416.   5490.
  5532.   5340.   5078.   4834.   4428.   4088.   3684.   3276.
  3050.   2571.   2375.   2134.   1929.   1736.   1602.   1472.
  1359.   1252.   1108.   1001.    967.    928.    821.    810.
   787.    755.    702.    707.    676.    665.    596.    674.
   580.    624.    568.    585.    641.    595.    624.    605.
   596.    597.    572.    653.    641.    613.    628.    645.
   698.    700.    699.    715.    728.    782.    787.    823.
   839.    950.    950.    989.   1024.   1079.   1207.   1296.
  1373.   1506.   1599.   1762.   1914.   2168.   2521.   3022.
  3450.   4146.   5082.   6107.   7554.   9302.  10928.  12950.
 14460.  15441.  15842.  15318.  13612.  12270.  10721.   9326.
  8193.   7131.   6114.   5535.   4825.   4077.   3645.   3455.
  3036.   2736.   2441.   2275.   2085.   1931.   1752.   1582.
  1453.   1434.   1293.   1156.   1167.   1072.    974.    913.
   923.    876.    789.    748.    771.    705.    680.    646.
   632.    623.    576.    547.    540.    542.    497.    521.
   504.    454.    463.    434.    464.    417.    436.    420.
   382.    428.    422.    388.    390.    381.    412.    388.
   380.    376.    372.    381.    354.    369.    333.    353.
   338.    347.    355.    362.    348.    342.    343.    336.
   313.    359.    299.    362.    334.    331.    339.    316.
   336.    358.    323.    295.    324.    306.    304.    341.
   337.    318.    268.    318.    293.    317.    303.    335.
   324.    311.    309.    296.    327.    300.    308.    324.
   280.    302.    308.    286.    286.    299.    300.    319.
   323.    327.    295.    296.    291.    311.    291.    325.
   307.    319.    314.    291.    299.    286.    301.    307.
   309.    301.    292.    316.    301.    305.    288.    289.
   269.    312.    270.    314.    315.    272.    315.    302.
   282.    272.    278.    294.    299.    296.    300.    292.
   272.    283.    294.    285.    272.    282.    295.    283.
   290.    273.    286.    266.    298.    270.    268.    305.
   303.    298.    313.    295.    265.    296.    317.    287.
   289.    237.    290.    289.    299.    272.    273.    303.
   273.    296.    297.    293.    271.    287.    318.    265.
   222.    264.    291.    289.    286.    292.    250.    264.
   287.    275.    265.    278.    288.    256.    262.    272.
   244.    267.    271.    253.    275.    255.    255.    262.
   265.    269.    282.    277.    276.    288.    273.    257.
   293.    274.    301.    309.    279.    291.    269.    277.
   266.    279.    269.    286.    278.    262.    288.    283.
   274.    256.    270.    275.    281.    272.    267.    284.
   288.    272.    277.    248.    291.    275.    258.    283.
   267.    269.    286.    290.    264.    296.    283.    257.
   298.    297.    263.    277.    288.    266.    290.    277.
   266.    248.    269.    271.    280.    264.    262.    265.
   269.    277.    262.    258.    267.    263.    245.    266.
   277.    259.    271.    267.    294.    304.    278.    273.
   246.    262.    278.    251.    264.    264.    256.    276.
   249.    264.    285.    276.    243.    261.    267.    252.
   250.    275.    275.    260.    310.    272.    272.    266.
   262.    239.    260.    276.    260.    279.    271.    247.
   268.    269.    248.    257.    251.    262.    262.    272.
   289.    271.    249.    278.    255.    305.    264.    259.
   264.    261.    267.    281.    247.    264.    273.    281.
   259.    274.    279.    249.    281.    256.    264.    268.
   278.    282.    264.    261.    257.    271.    265.    281.
   273.    277.    260.    303.    261.    270.    261.    265.
   237.    287.    264.    257.    276.    306.    280.    265.
   301.    265.    267.    290.    269.    282.    290.    309.
   301.    302.    302.    306.    335.    352.    339.    333.
   328.    334.    332.    355.    359.    364.    364.    397.
   403.    471.    491.    535.    582.    643.    701.    754.
   822.    925.    947.    934.    982.   1020.   1005.    932.
   836.    781.    716.    709.    622.    576.    522.    485.
   466.    461.    406.    421.    369.    382.    382.    358.
   330.    309.    334.    313.    328.    310.    312.    306.
   309.    290.    279.    297.    276.    305.    301.    274.
   273.    277.    276.    292.    295.    293.    264.    270.
   262.    283.    248.    276.    272.    273.    275.    285.
   281.    262.    254.    250.    237.    258.    254.    281.
   261.    253.    257.    273.    285.    248.    275.    262.
   283.    262.    245.    288.    257.    282.    256.    263.
   261.    291.    277.    286.    285.    280.    283.    277.
   289.    290.    303.    276.    345.    317.    358.    356.
   401.    450.    485.    540.    616.    713.    850.   1031.
  1225.   1431.   1687.   1865.   1802.   1687.   1421.   1215.
  1027.    849.    723.    645.    578.    509.    442.    396.
   372.    375.    326.    306.    311.    307.    335.    282.
   279.    286.    281.    290.    272.    277.    284.    248.
   288.    257.    266.    260.    266.    238.    260.    275.
   258.    212.    246.    269.    275.    256.    270.    244.
   252.    233.    253.    243.    267.    256.    271.    247.
   242.    246.    252.    277.    230.    228.    235.    263.
   263.    239.    253.    269.    279.    262.    268.    229.
   269.    245.    252.    246.    254.    256.    265.    265.
   258.    262.    261.    241.    240.    255.    236.    258.
   253.    253.    242.    233.    226.    253.    236.    259.
   232.    259.    214.    238.    263.    247.    237.    225.
   258.    251.    224.    249.    270.    247.    230.    242.
   244.    268.    246.    238.    247.    237.    228.    232.
   236.    230.    250.    255.    249.    260.    245.    265.
   237.    244.    275.    233.    249.    254.    262.    233.
   239.    269.    265.    262.    247.    222.    253.    244.
   254.    227.    257.    248.    233.    266.    246.    259.
   277.    242.    243.    259.    249.    233.    250.    253.
   236.    252.    244.    240.    253.    250.    241.    237.
   236.    240.    233.    241.    265.    236.    226.    253.
   237.    260.    262.    241.    243.    257.    223.    244.
   239.    243.    241.    222.    249.    253.    244.    246.
   258.    228.    234.    265.    239.    221.    233.    248.
   251.    234.    225.    243.    233.    235.    225.    247.
   245.    244.    238.    247.    244.    248.    232.    270.
   240.    239.    239.    224.    236.    230.    243.    224.
   236.    251.    255.    231.    252.    229.    238.    254.
   260.    227.    252.    252.    244.    260.    261.    277.
   240.    262.    255.    263.    242.    238.    251.    231.
   232.    286.    259.    263.    294.    274.    235.    232.
   266.    239.    235.    244.    254.    226.    255.    251.
   241.    258.    250.    240.    248.    251.    266.    250.
   251.    238.    260.    266.    239.    232.    268.    259.
   248.    249.    261.    236.    261.    243.    236.    306.
   280.    247.    234.    259.    252.    255.    254.    264.
   269.    244.    254.    282.    271.    254.    264.    262.
   268.    262.    279.    275.    261.    310.    268.    312.
   285.    289.    283.    322.    291.    329.    312.    342.
   347.    366.    371.    393.    397.    395.    473.    471.
   529.    552.    559.    647.    700.    691.    685.    697.
   613.    569.    531.    467.    448.    484.    430.    399.
   381.    356.    384.    342.    320.    332.    318.    313.
   298.    313.    300.    261.    269.    283.    296.    280.
   270.    287.    282.    288.    269.    269.    263.    262.
   250.    271.    263.    274.    268.    255.    255.    262.
   240.    251.    262.    260.    252.    256.    271.    240.
   255.    258.    254.    260.    247.    263.    242.    236.
   247.    262.    258.    228.    246.    266.    255.    221.
   224.    259.    256.    281.    257.    218.    227.    238.
   274.    253.    244.    264.    259.    235.    241.    254.
   263.    242.    262.    272.    240.    227.    235.    234.
   259.    258.    264.    250.    241.    281.    260.    257.
   260.    237.    251.    263.    256.    235.    237.    247.
   269.    251.    261.    260.    236.    251.    262.    227.
   253.    233.    261.    252.    255.    238.    252.    241.
   253.    245.    259.    277.    240.    260.    254.    276.
   259.    252.    262.    234.    274.    266.    236.    258.
   274.    299.    273.    273.    275.    285.    310.    284.
   308.    311.    308.    302.    305.    303.    292.    302.
   329.    317.    339.    367.    370.    360.    386.    411.
   382.    417.    444.    423.    475.    504.    536.    578.
   574.    613.    654.    687.    789.    798.    911.    980.
  1050.   1117.   1232.   1327.   1374.   1506.   1511.   1584.
  1573.   1605.   1461.   1422.   1267.   1175.   1103.    931.
   816.    717.    664.    574.    521.    506.    419.    425.
   415.    395.    398.    392.    365.    360.    347.    326.
   325.    319.    317.    320.    287.    298.    293.    303.
   256.    305.    285.    310.    301.    274.    282.    290.
   273.    286.    272.    279.    253.    272.    287.    288.
   275.    291.    284.    282.    278.    293.    269.    266.
   263.    255.    251.    246.    281.    257.    275.    267.
   242.    237.    276.    269.    252.    265.    263.    253.
   256.    265.    271.    255.    262.    268.    264.    242.
   263.    253.    243.    254.    257.    288.    274.    261.
   243.    219.    249.    240.    249.    262.    275.    242.
   260.    257.    264.    270.    257.    255.    263.    254.
   238.    251.    242.    259.    248.    237.    245.    242.
   243.    238.    238.    240.    273.    262.    243.    262.
   236.    257.    257.    270.    272.    261.    256.    225.
   260.    247.    242.    258.    273.    263.    285.    259.
   285.    276.    273.    295.    322.    282.    309.    323.
   349.    322.    290.    335.    361.    344.    364.    390.
   397.    347.    410.    406.    441.    402.    461.    454.
   477.    457.    464.    470.    443.    448.    433.    423.
   401.    389.    374.    369.    348.    344.    332.    335.
   337.    308.    285.    297.    319.    329.    286.    304.
   325.    298.    323.    306.    290.    290.    313.    316.
   289.    312.    285.    297.    340.    310.    332.    349.
   339.    364.    311.    380.    364.    350.    393.    398.
   424.    425.    429.    485.    532.    525.    608.    648.
   623.    706.    861.    940.   1025.   1203.   1459.   1684.
  1960.   2219.   2499.   2891.   2906.   3038.   2977.   2886.
  2632.   2333.   2135.   1976.   1704.   1540.   1343.   1185.
  1185.   1011.    955.    824.    818.    728.    724.    665.
   645.    591.    567.    532.    531.    479.    512.    459.
   409.    415.    428.    405.    359.    386.    342.    357.
   367.    344.    348.    326.    320.    324.    334.    299.
   292.    291.    294.    300.    288.    302.    298.    265.
   275.    298.    301.    296.    263.    257.    275.    273.
   249.    282.    250.    268.    262.    267.    266.    271.
   251.    250.    257.    271.    253.    251.    270.    232.
   265.    235.    253.    252.    252.    252.    267.    252.
   271.    263.    274.    241.    262.    263.    254.    250.
   256.    267.    245.    255.    249.    235.    278.    236.
   246.    252.    258.    255.    257.    252.    247.    244.
   256.    249.    270.    263.    232.    256.    244.    253.
   253.    266.    241.    217.    249.    254.    247.    242.
   246.    247.    229.    262.    248.    255.    244.    243.
   258.    248.    260.    260.    233.    235.    243.    255.
   252.    243.    237.    252.    256.    260.    251.    234.
   247.    260.    269.    273.    250.    250.    268.    243.
   219.    259.    244.    264.    248.    238.    239.    227.
   250.    249.    219.    244.    232.    249.    255.    222.
   237.    250.    270.    239.    245.    249.    258.    247.
   264.    269.    239.    217.    253.    245.    213.    238.
   232.    227.    228.    256.    243.    243.    238.    254.
   250.    247.    256.    253.    239.    252.    254.    275.
   235.    262.    243.    245.    260.    244.    250.    225.
   252.    248.    240.    269.    233.    242.    265.    256.
   265.    264.    281.    272.    248.    238.    247.    261.
   245.    238.    255.    280.    247.    266.    231.    256.
   247.    206.    248.    247.    283.    244.    256.    285.
   267.    256.    239.    273.    260.    254.    267.    265.
   267.    210.    241.    272.    269.    269.    260.    287.
   279.    274.    299.    295.    299.    287.    315.    302.
   297.    313.    320.    304.    310.    318.    329.    346.
   351.    382.    385.    379.    372.    361.    347.    326.
   310.    326.    304.    285.    263.    281.    273.    254.
   249.    293.    276.    286.    251.    245.    256.    257.
   253.    259.    266.    257.    239.    227.    254.    273.
   250.    268.    261.    248.    248.    254.    274.    249.
   275.    254.    248.    284.    274.    288.    273.    288.
   258.    253.    265.    256.    235.    251.    257.    266.
   268.    264.    262.    249.    227.    264.    248.    259.
   276.    232.    261.    295.    251.    292.    264.    267.
   267.    293.    280.    292.    272.    282.    304.    303.
   327.    337.    287.    279.    316.    310.    317.    272.
   314.    290.    263.    298.    299.    285.    266.    290.
   318.    288.    291.    294.    303.    330.    337.    372.
   403.    424.    410.    392.    339.    340.    298.    280.
   261.    291.    299.    285.    261.    264.    264.    249.
   247.    240.    266.    245.    253.    257.    254.    252.
   246.    242.    237.    249.    291.    264.    244.    240.
   242.    235.    245.    247.    276.    237.    276.    270.
   260.    249.    250.    266.    236.    264.    261.    249.
   239.    270.    250.    231.    219.    233.    228.    244.
   271.    231.    265.    240.    251.    229.    243.    260.
   226.    249.    256.    257.    243.    274.    252.    256.
   227.    235.    249.    258.    263.    248.    270.    256.
   239.    234.    256.    238.    231.    249.    266.    261.
   253.    266.    250.    231.    266.    249.    244.    256.
   245.    272.    263.    249.    275.    231.    289.    279.
   262.    247.    261.    245.    253.    264.    266.    266.
   272.    258.    240.    272.    266.    243.    281.    276.
   252.    262.    255.    264.    262.    262.    272.    267.
   249.    272.    254.    259.    257.    283.    288.    274.
   273.    278.    280.    261.    265.    273.    283.    299.
   278.    270.    275.    284.    277.    279.    288.    297.
   298.    293.    290.    324.    286.    318.    345.    336.
   341.    343.    319.    347.    366.    381.    374.    399.
   381.    432.    432.    415.    457.    448.    507.    557.
   556.    575.    620.    671.    685.    725.    798.    780.
   826.    858.    919.    939.    938.    962.    972.    986.
   853.    730.    653.    655.    565.    511.    488.    484.
   432.    452.    424.    413.    452.    409.    423.    380.
   381.    357.    362.    347.    313.    308.    304.    317.
   303.    306.    292.    270.    293.    261.    270.    280.
   279.    306.    298.    262.    250.    262.    303.    249.
   250.    242.    242.    262.    270.    265.    253.    260.
   235.    265.    260.    270.    245.    255.    269.    275.
   268.    245.    247.    268.    267.    251.    232.    255.
   238.    252.    263.    269.    241.    255.    243.    246.
   283.    238.    251.    242.    237.    257.    261.    268.
   249.    263.    248.    247.    241.    237.    252.    262.
   249.    240.    261.    263.    236.    245.    249.    253.
   274.    277.    253.    246.    250.    248.    242.    247.
   271.    246.    237.    246.    262.    240.    260.    242.
   237.    227.    236.    243.    240.    256.    229.    239.
   235.    278.    232.    262.    218.    267.    254.    255.
   250.    244.    239.    248.    229.    257.    247.    215.
   261.    230.    257.    249.    241.    249.    233.    239.
   270.    258.    233.    251.    250.    245.    241.    268.
   240.    239.    253.    240.    240.    229.    261.    248.
   260.    256.    264.    278.    222.    240.    272.    254.
   243.    229.    279.    266.    267.    247.    250.    261.
   243.    241.    277.    268.    248.    241.    255.    231.
   240.    260.    263.    268.    251.    252.    228.    211.
   238.    267.    270.    245.    251.    256.    249.    253.
   251.    249.    222.    227.    254.    227.    234.    231.
   258.    251.    247.    239.    242.    238.    246.    250.
   225.    256.    233.    231.    251.    253.    246.    264.
   248.    236.    243.    223.    236.    250.    251.    228.
   267.    259.    231.    233.    280.    248.    269.    241.
   230.    245.    268.    242.    270.    246.    257.    245.
   245.    246.    256.    248.    247.    249.    271.    269.
   267.    246.    236.    263.    259.    247.    277.    244.
   234.    238.    240.    232.    228.    270.    243.    250.
   232.    220.    230.    244.    251.    270.    247.    228.
   265.    251.    271.    261.    227.    251.    236.    260.
   256.    264.    240.    258.    238.    250.    252.    278.
   252.    243.    258.    266.    254.    247.    232.    261.
   232.    239.    234.    247.    247.    253.    258.    226.
   242.    257.    265.    219.    238.    240.    271.    245.
   257.    263.    246.    240.    254.    257.    263.    259.
   262.    257.    258.    249.    247.    252.    248.    304.
   231.    222.    226.    266.    242.    231.    230.    263.
   262.    263.    271.    249.    249.    233.    255.    260.
   254.    255.    244.    265.    263.    238.    251.    257.
   228.    266.    235.    233.    235.    241.    242.    247.
   246.    250.    230.    257.    253.    247.    240.    261.
   253.    269.    254.    226.    255.    261.    261.    292.
   267.    248.    252.    238.    258.    247.    258.    233.
   243.    240.    275.    253.    254.    258.    248.    241.
   251.    247.    269.    238.    259.    240.    244.    244.
   246.    255.    277.    285.    258.    252.    256.    254.
   246.    251.    262.    269.    266.    229.    261.    252.
   250.    247.    269.    282.    255.    259.    271.    233.
   235.    270.    276.    272.    259.    275.    270.    259.
   267.    259.    272.    270.    269.    275.    284.    275.
   264.    294.    281.    293.    294.    288.    249.    299.
   298.    276.    287.    283.    268.    307.    305.    295.
   311.    295.    326.    286.    328.    331.    350.    349.
   343.    359.    369.    336.    353.    406.    401.    396.
   423.    524.    485.    521.    560.    625.    671.    700.
   736.    877.    936.   1004.   1053.   1166.   1244.   1244.
  1234.   1204.   1191.   1079.   1031.    890.    864.    768.
   743.    681.    634.    582.    561.    513.    527.    457.
   437.    422.    412.    382.    384.    368.    381.    343.
   349.    363.    350.    347.    357.    317.    317.    300.
   288.    311.    309.    294.    310.    325.    287.    292.
   278.    307.    288.    273.    283.    302.    286.    254.
   261.    282.    267.    299.    260.    263.    294.    264.
   256.    286.    254.    255.    273.    273.    271.    247.
   272.    272.    294.    231.    267.    253.    237.    269.
   284.    268.    263.    241.    251.    241.    263.    288.
   257.    258.    258.    237.    243.    233.    279.    283.
   252.    277.    249.    269.    278.    241.    257.    262.
   210.    247.    249.    246.    270.    247.    279.    248.
   261.    249.    279.    272.    252.    255.    237.    269.
   269.    234.    278.    275.    279.    240.    281.    247.
   275.    269.    243.    254.    251.    257.    242.    277.
   253.    260.    265.    295.    251.    267.    248.    249.
   236.    272.    258.    265.    249.    242.    243.    261.
   263.    268.    275.    254.    265.    269.    258.    265.
   271.    254.    264.    259.    240.    223.    290.    265.
   272.    255.    260.    247.    268.    261.    267.    263.
   236.    240.    260.    259.    252.    260.    229.    243.
   253.    292.    264.    260.    280.    268.    261.    255.
   254.    229.    250.    266.    265.    248.    264.    267.
   274.    252.    271.    239.    260.    248.    236.    292.
   262.    227.    242.    253.    305.    274.    253.    269.
   276.    262.    246.    272.    243.    256.    260.    257.
   253.    248.    243.    268.    243.    263.    251.    250.
   227.    249.    251.    279.    268.    273.    271.    257.
   264.    268.    280.    256.    245.    260.    267.    267.
   265.    261.    271.    266.    260.    260.    253.    257.
   269.    272.    272.    249.    261.    289.    268.    234.
   257.    259.    283.    271.    271.    277.    243.    231.
   253.    265.    241.    246.    250.    261.    299.    257.
   238.    245.    271.    281.    281.    273.    249.    277.
   287.    270.    281.    286.    267.    270.    277.    259.
   264.    250.    268.    284.    281.    274.    279.    271.
   284.    244.    277.    267.    278.    280.    270.    288.
   282.    276.    278.    294.    280.    284.    298.    284.
   306.    280.    289.    293.    265.    267.    301.    280.
   276.    296.    287.    287.    281.    275.    306.    305.
   256.    273.    297.    264.    300.    268.    290.    314.
   289.    283.    288.    296.    307.    286.    286.    302.
   308.    332.    329.    274.    338.    324.    348.    340.
   347.    353.    350.    323.    340.    353.    378.    375.
   391.    425.    417.    396.    393.    410.    428.    432.
   419.    431.    476.    477.    515.    513.    470.    503.
   542.    568.    565.    591.    606.    635.    705.    712.
   707.    742.    812.    865.    957.    963.   1016.   1076.
  1193.   1295.   1417.   1401.   1578.   1631.   1795.   1846.
  2071.   2132.   2252.   2345.   2503.   2668.   2763.   2897.
  3085.   3106.   3111.   3165.   3045.   2976.   2919.   2614.
  2408.   2131.   1970.   1615.   1465.   1189.   1087.    972.
   902.    782.    800.    761.    672.    651.    646.    591.
   569.    531.    505.    510.    459.    527.    458.    457.
   456.    411.    422.    409.    392.    393.    387.    378.
   372.    332.    380.    374.    349.    379.    358.    348.
   343.    331.    334.    317.    341.    332.    325.    316.
   303.    319.    302.    298.    322.    330.    308.    297.
   322.    320.    294.    323.    316.    306.    296.    314.
   283.    299.    313.    278.    319.    291.    277.    289.
   288.    289.    275.    268.    291.    289.    297.    307.
   295.    318.    285.    296.    301.    292.    284.    306.
   284.    299.    304.    284.    280.    282.    296.    288.
   315.    311.    276.    274.    309.    295.    281.    292.
   278.    292.    278.    264.    292.    314.    285.    294.
   274.    303.    282.    290.    291.    295.    280.    284.
   290.    262.    272.    285.    297.    292.    282.    298.
   272.    277.    286.    283.    296.    274.    306.    307.
   274.    295.    298.    301.    287.    282.    309.    294.
   287.    269.    277.    307.    300.    311.    312.    292.
   291.    322.    289.    304.    270.    310.    314.    266.
   283.    289.    332.    285.    316.    296.    304.    300.
   293.    307.    274.    302.    309.    317.    327.    306.
   275.    304.    301.    291.    293.    298.    287.    329.
   286.    302.    299.    286.    291.    306.    285.    295.
   297.    317.    284.    303.    315.    293.    330.    318.
   297.    311.    311.    344.    324.    318.    301.    326.
   354.    362.    310.    320.    344.    322.    368.    348.
   370.    369.    354.    377.    395.    423.    402.    403.
   396.    409.    461.    449.    444.    426.    437.    500.
   525.    546.    553.    587.    567.    573.    625.    701.
   721.    741.    805.    850.    868.    978.    967.   1016.
  1038.   1163.   1284.   1327.   1389.   1464.   1556.   1619.
  1598.   1687.   1701.   1768.   1755.   1767.   1895.   1868.
  1754.   1669.   1640.   1536.   1426.   1424.   1284.   1237.
  1122.   1052.    991.    900.    906.    829.    771.    741.
   675.    677.    627.    563.    591.    577.    540.    520.
   501.    485.    511.    468.    469.    448.    446.    455.
   453.    441.    424.    412.    408.    441.    437.    418.
   383.    371.    393.    424.    381.    410.    376.    389.
   388.    370.    391.    388.    406.    370.    399.    413.
   390.    425.    405.    426.    417.    421.    450.    436.
   436.    441.    444.    461.    432.    439.    458.    497.
   487.    472.    511.    452.    548.    517.    510.    579.
   562.    591.    633.    640.    645.    711.    731.    779.
   839.    881.    921.    959.   1061.   1077.   1156.   1287.
  1383.   1565.   1648.   1949.   2049.   2334.   2778.   3295.
  3703.   4594.   5615.   6950.   8729.  10892.  13329.  15881.
 18127.  19076.  19383.  18360.  16882.  15299.  13566.  12190.
 10727.   9349.   8302.   7518.   6536.   5851.   5117.   4675.
  4182.   3704.   3405.   3130.   2800.   2588.   2323.   2161.
  2056.   1904.   1737.   1618.   1495.   1429.   1343.   1290.
  1217.   1212.   1084.    994.    952.    903.    857.    854.
   794.    792.    760.    745.    681.    648.    648.    642.
   625.    563.    578.    584.    547.    552.    553.    551.
   499.    505.    529.    511.    491.    486.    483.    431.
   458.    468.    450.    446.    467.    440.    468.    472.
   477.    447.    463.    423.    446.    430.    437.    462.
   481.    440.    472.    467.    448.    464.    499.    457.
   492.    506.    499.    506.    571.    500.    550.    563.
   546.    553.    607.    623.    593.    662.    663.    682.
   722.    716.    794.    817.    905.    983.   1023.   1066.
  1133.   1239.   1294.   1496.   1537.   1648.   1818.   1976.
  2042.   2195.   2331.   2334.   2360.   2338.   2361.   2286.
  2135.   2092.   2031.   1841.   1661.   1447.   1504.   1353.
  1282.   1174.   1100.   1028.    950.    858.    855.    759.
   708.    723.    689.    646.    624.    626.    575.    567.
   538.    550.    520.    492.    475.    538.    467.    475.
   530.    469.    455.    419.    448.    427.    415.    425.
   407.    433.    410.    419.    380.    400.    402.    382.
   382.    387.    385.    370.    371.    379.    363.    367.
   379.    406.    370.    366.    362.    358.    375.    376.
   402.    363.    370.    351.    355.    376.    366.    377.
   348.    357.    406.    406.    414.    401.    381.    369.
   385.    392.    350.    343.    368.    365.    402.    418.
   370.    387.    417.    410.    409.    388.    415.    418.
   382.    341.    369.    359.    377.    367.    423.    405.
   387.    397.    395.    395.    399.    439.    420.    438.
   439.    423.    432.    417.    470.    465.    483.    472.
   472.    534.    503.    522.    510.    503.    542.    547.
   588.    568.    575.    608.    635.    668.    702.    763.
   750.    798.    792.    832.    921.    928.   1019.   1097.
  1090.   1205.   1207.   1362.   1368.   1447.   1645.   1724.
  1761.   1874.   2054.   2173.   2279.   2575.   2792.   2940.
  3054.   3290.   3527.   3706.   3847.   4006.   3966.   4037.
  3991.   3905.   3752.   3598.   3332.   3132.   2826.   2664.
  2584.   2424.   2340.   2375.   2341.   2332.   2256.   2137.
  1970.   1834.   1733.   1625.   1494.   1390.   1279.   1185.
  1059.   1014.    977.    868.    866.    820.    707.    710.
   695.    651.    599.    595.    578.    588.    563.    514.
   497.    480.    510.    502.    484.    471.    470.    445.
   400.    416.    408.    384.    422.    384.    411.    401.
   401.    342.    374.    383.    341.    328.    331.    331.
   343.    349.    344.    354.    345.    341.    349.    344.
   367.    347.    320.    310.    296.    325.    319.    327.
   312.    312.    304.    304.    322.    304.    299.    313.
   313.    275.    291.    314.    295.    301.    316.    337.
   289.    328.    292.    300.    298.    310.    293.    314.
   298.    294.    299.    296.    320.    307.    334.    326.
   311.    304.    311.    290.    305.    287.    288.    288.
   295.    298.    305.    312.    323.    275.    246.    278.
   269.    294.    303.    290.    287.    301.    313.    289.
   289.    304.    301.    292.    292.    299.    274.    317.
   281.    294.    280.    288.    251.    287.    292.    271.
   310.    282.    290.    289.    250.    287.    281.    284.
   283.    288.    277.    274.    293.    292.    251.    292.
   283.    279.    256.    282.    281.    301.    259.    303.
   271.    296.    295.    274.    272.    270.    288.    268.
   273.    295.    272.    274.    292.    255.    290.    287.
   299.    276.    291.    306.    264.    260.    261.    266.
   249.    285.    281.    273.    248.    288.    274.    289.
   291.    276.    265.    290.    271.    286.    295.    276.
   302.    295.    270.    284.    271.    292.    287.    267.
   298.    283.    268.    297.    279.    263.    260.    276.
   282.    262.    242.    299.    296.    286.    270.    256.
   253.    264.    308.    264.    280.    262.    266.    281.
   290.    278.    261.    280.    282.    291.    283.    282.
   263.    264.    311.    285.    265.    266.    252.    271.
   285.    272.    281.    278.    284.    298.    298.    313.
   274.    278.    248.    269.    289.    265.    244.    261.
   287.    257.    249.    257.    264.    294.    277.    259.
   266.    284.    262.    279.    274.    279.    252.    274.
   282.    263.    283.    294.    274.    272.    280.    283.
   295.    309.    265.    266.    295.    244.    274.    279.
   285.    270.    276.    285.    270.    302.    304.    276.
   285.    267.    278.    263.    289.    275.    254.    268.
   241.    266.    261.    307.    266.    261.    265.    253.
   279.    243.    252.    279.    277.    288.    271.    292.
   275.    249.    267.    274.    262.    288.    277.    290.
   297.    289.    305.    286.    300.    261.    255.    258.
   265.    291.    276.    297.    280.    297.    299.    270.
   254.    279.    296.    279.    295.    286.    270.    274.
   307.    287.    297.    288.    289.    303.    275.    318.
   305.    298.    280.    301.    324.    281.    300.    260.
   302.    291.    295.    250.    270.    294.    287.    314.
   277.    291.    274.    279.    262.    282.    304.    284.
   285.    290.    302.    289.    279.    260.    257.    281.
   293.    279.    279.    293.    280.    257.    252.    282.
   261.    244.    304.    298.    284.    284.    272.    280.
   291.    294.    314.    304.    285.    321.    293.    279.
   306.    304.    293.    295.    296.    304.    324.    326.
   323.    331.    317.    332.    306.    321.    360.    351.
   387.    371.    391.    365.    400.    408.    395.    429.
   466.    464.    486.    486.    487.    533.    600.    631.
   617.    666.    671.    705.    687.    688.    694.    675.
   682.    648.    635.    556.    523.    553.    483.    472.
   457.    451.    423.    433.    417.    420.    427.    379.
   417.    368.    372.    335.    366.    366.    358.    331.
   337.    320.    325.    346.    319.    327.    317.    353.
   341.    320.    310.    285.    313.    352.    331.    281.
   313.    311.    318.    334.    346.    329.    334.    353.
   329.    331.    326.    354.    301.    330.    351.    365.
   364.    363.    350.    362.    347.    383.    348.    351.
   365.    369.    349.    352.    353.    360.    333.    344.
   331.    338.    331.    331.    352.    343.    345.    327.
   307.    325.    323.    326.    349.    331.    324.    338.
   340.    307.    310.    305.    340.    326.    323.    338.
   363.    305.    321.    309.    303.    341.    343.    357.
   360.    344.    369.    367.    354.    359.    365.    357.
   361.    394.    373.    406.    417.    393.    402.    396.
   401.    435.    413.    437.    448.    493.    475.    448.
   501.    509.    544.    536.    587.    565.    634.    602.
   694.    720.    676.    735.    842.    831.    898.    965.
   977.   1089.   1131.   1189.   1260.   1375.   1482.   1501.
  1564.   1706.   1780.   1739.   1745.   1713.   1741.   1671.
  1552.   1456.   1356.   1293.   1125.   1063.   1038.    977.
   882.    850.    775.    792.    758.    658.    670.    601.
   610.    582.    568.    541.    495.    513.    476.    484.
   459.    463.    406.    419.    418.    454.    380.    388.
   423.    387.    360.    371.    379.    379.    370.    365.
   396.    364.    362.    373.    372.    389.    335.    319.
   358.    327.    310.    312.    313.    316.    304.    324.
   329.    313.    325.    282.    318.    326.    318.    291.
   314.    302.    312.    287.    324.    297.    309.    306.
   315.    310.    303.    335.    293.    312.    317.    289.
   316.    299.    309.    309.    304.    301.    282.    305.
   298.    285.    316.    297.    291.    298.    289.    283.
   319.    282.    295.    282.    294.    297.    297.    310.
   306.    325.    278.    289.    281.    306.    302.    317.
   294.    280.    299.    293.    288.    301.    277.    271.
   296.    294.    288.    279.    293.    291.    284.    256.
   262.    321.    266.    285.    290.    307.    327.    295.
   305.    313.    303.    318.    321.    273.    269.    300.
   290.    301.    325.    313.    326.    333.    300.    271.
   305.    306.    295.    291.    306.    306.    295.    316.
   305.    303.    311.    351.    328.    318.    317.    356.
   328.    312.    342.    325.    380.    356.    354.    341.
   365.    354.    379.    390.    384.    378.    407.    412.
   409.    391.    424.    439.    471.    456.    444.    469.
   456.    506.    510.    518.    522.    557.    549.    530.
   619.    640.    602.    623.    632.    637.    659.    705.
   703.    700.    672.    658.    684.    714.    722.    640.
   661.    642.    677.    652.    632.    602.    628.    598.
   647.    607.    635.    628.    608.    625.    677.    672.
   707.    724.    746.    789.    861.    919.    955.    981.
  1075.   1195.   1254.   1405.   1466.   1658.   1868.   2058.
  2274.   2451.   2691.   2911.   3049.   3093.   3147.   3063.
  3005.   2957.   2669.   2480.   2275.   2142.   1913.   1719.
  1662.   1530.   1405.   1303.   1203.   1139.   1068.   1004.
   950.    955.    828.    784.    780.    692.    726.    692.
   673.    647.    651.    624.    619.    609.    558.    525.
   549.    513.    555.    514.    512.    561.    526.    518.
   510.    496.    506.    508.    476.    521.    499.    514.
   518.    528.    516.    507.    542.    532.    530.    559.
   551.    570.    584.    610.    602.    644.    675.    674.
   722.    755.    809.    889.    934.   1021.   1122.   1177.
  1334.   1515.   1654.   1956.   2264.   2551.   2939.   3266.
  3587.   3831.   3876.   3758.   3661.   3511.   3314.   3161.
  2767.   2593.   2386.   2194.   2026.   1934.   1669.   1640.
  1483.   1387.   1303.   1201.   1150.   1062.   1005.    916.
   851.    892.    808.    746.    748.    730.    734.    656.
   642.    657.    616.    592.    559.    583.    507.    495.
   529.    486.    435.    500.    428.    476.    420.    442.
   441.    432.    416.    414.    399.    393.    397.    417.
   407.    416.    384.    380.    396.    408.    375.    416.
   403.    388.    396.    383.    341.    386.    355.    367.
   367.    364.    327.    324.    342.    335.    331.    327.
   341.    356.    322.    324.    328.    296.    339.    282.
   309.    298.    334.    301.    290.    300.    321.    328.
   323.    297.    302.    328.    323.    326.    318.    286.
   280.    304.    300.    282.    303.    295.    303.    313.
   288.    279.    304.    319.    302.    281.    293.    280.
   304.    281.    276.    276.    299.    293.    295.    287.
   293.    316.    284.    298.    304.    287.    291.    322.
   295.    301.    298.    278.    285.    274.    291.    296.
   286.    285.    272.    295.    292.    286.    308.    303.
   282.    279.    275.    323.    294.    291.    310.    286.
   297.    302.    286.    289.    281.    311.    302.    297.
   305.    307.    301.    293.    280.    309.    288.    274.
   292.    258.    289.    271.    271.    305.    318.    298.
   286.    313.    309.    299.    312.    287.    289.    280.
   289.    279.    281.    296.    279.    298.    270.    291.
   296.    305.    311.    303.    273.    266.    274.    274.
   276.    291.    303.    283.    277.    264.    270.    281.
   299.    286.    272.    296.    263.    295.    290.    303.
   286.    289.    268.    292.    302.    290.    309.    298.
   290.    280.    295.    288.    294.    305.    296.    297.
   313.    320.    267.    283.    312.    306.    315.    310.
   295.    320.    301.    298.    323.    325.    276.    318.
   334.    319.    310.    309.    314.    335.    338.    341.
   349.    365.    361.    374.    378.    387.    427.    442.
   454.    514.    556.    598.    645.    652.    688.    745.
   710.    706.    718.    670.    681.    611.    621.    559.
   566.    540.    506.    489.    477.    476.    463.    423.
   402.    403.    405.    373.    367.    376.    359.    354.
   390.    334.    324.    336.    348.    335.    334.    324.
   322.    332.    316.    338.    287.    316.    323.    313.
   326.    316.    311.    295.    319.    290.    294.    299.
   305.    303.    303.    280.    274.    284.    292.    296.
   320.    282.    301.    302.    301.    303.    279.    306.
   289.    288.    288.    268.    284.    300.    305.    267.
   301.    304.    313.    294.    272.    267.    291.    279.
   288.    276.    281.    274.    297.    283.    281.    268.
   266.    273.    254.    323.    297.    324.    273.    308.
   304.    310.    303.    289.    272.    251.    302.    274.
   256.    272.    264.    280.    310.    293.    282.    301.
   296.    289.    303.    292.    283.    285.    287.    285.
   294.    293.    284.    327.    271.    283.    300.    276.
   321.    277.    257.    313.    288.    276.    283.    301.
   286.    281.    276.    259.    259.    263.    248.    261.
   276.    282.    270.    261.    268.    288.    278.    322.
   284.    288.    293.    280.    293.    268.    329.    281.
   290.    263.    289.    295.    295.    315.    292.    302.
   291.    284.    271.    330.    298.    257.    291.    284.
   317.    279.    306.    325.    298.    302.    291.    296.
   295.    268.    284.    289.    273.    304.    263.    285.
   281.    283.    292.    287.    276.    289.    282.    269.
   308.    303.    307.    306.    282.    288.    281.    299.
   270.    280.    324.    285.    300.    313.    318.    326.
   334.    315.    296.    334.    327.    317.    328.    345.
   349.    385.    355.    367.    377.    378.    371.    398.
   369.    379.    361.    356.    393.    360.    377.    387.
   336.    350.    345.    305.    324.    298.    306.    325.
   317.    329.    339.    341.    265.    317.    325.    303.
   298.    319.    291.    286.    310.    292.    325.    300.
   327.    288.    287.    287.    291.    272.    291.    300.
   303.    316.    329.    300.    291.    294.    280.    293.
   310.    285.    294.    287.    318.    278.    289.    293.
   299.    302.    314.    308.    309.    299.    301.    286.
   284.    272.    302.    263.    279.    320.    329.    311.
   282.    281.    293.    260.    278.    277.    311.    305.
   311.    304.    291.    291.    308.    301.    285.    287.
   303.    306.    286.    312.    310.    282.    310.    298.
   298.    313.    299.    302.    308.    311.    289.    272.
   306.    306.    303.    306.    292.    306.    297.    281.
   302.    307.    286.    270.    267.    277.    251.    293.
   315.    304.    306.    271.    283.    310.    304.    302.
   292.    294.    249.    259.    275.    275.    281.    296.
   294.    291.    281.    290.    288.    314.    314.    320.
   288.    294.    298.    271.    290.    284.    308.    312.
   303.    293.    285.    277.    325.    310.    304.    323.
   280.    291.    289.    305.    318.    303.    319.    281.
   312.    317.    280.    311.    281.    281.    281.    292.
   295.    277.    299.    298.    311.    300.    312.    300.
   296.    301.    292.    293.    293.    285.    294.    306.
   299.    301.    301.    304.    291.    327.    302.    325.
   287.    316.    300.    296.    318.    326.    326.    322.
   310.    321.    323.    293.    310.    314.    319.    327.
   318.    285.    289.    299.    300.    317.    340.    352.
   305.    301.    333.    295.    331.    327.    277.    341.
   319.    304.    316.    298.    344.    301.    329.    327.
   314.    333.    322.    337.    332.    329.    345.    327.
   323.    362.    347.    311.    340.    353.    359.    347.
   352.    345.    369.    356.    341.    352.    366.    377.
   357.    365.    365.    357.    369.    392.    389.    357.
   394.    391.    414.    377.    417.    400.    425.    443.
   437.    434.    413.    417.    446.    427.    447.    462.
   466.    504.    475.    512.    514.    518.    529.    521.
   570.    550.    613.    628.    611.    645.    663.    675.
   703.    727.    752.    728.    820.    891.    894.    951.
  1028.   1055.   1132.   1186.   1272.   1315.   1464.   1537.
  1696.   1760.   1888.   2006.   2131.   2180.   2419.   2500.
  2645.   2753.   2781.   2753.   2823.   2777.   2712.   2685.
  2578.   2494.   2299.   2116.   1952.   1813.   1628.   1534.
  1390.   1350.   1229.   1164.   1028.    953.    898.    896.
   816.    828.    781.    736.    722.    726.    666.    631.
   619.    588.    626.    551.    566.    547.    545.    523.
   526.    484.    476.    506.    487.    444.    494.    443.
   489.    479.    469.    466.    456.    471.    425.    442.
   430.    452.    433.    448.    455.    452.    477.    448.
   435.    451.    462.    458.    461.    481.    452.    445.
   492.    487.    471.    467.    435.    451.    452.    468.
   469.    499.    521.    539.    574.    547.    531.    568.
   605.    623.    605.    620.    608.    673.    643.    704.
   700.    731.    724.    756.    811.    781.    820.    893.
   889.    857.    892.    907.    925.    932.    896.    896.
   897.    881.    827.    810.    766.    701.    649.    641.
   564.    580.    582.    574.    574.    578.    550.    517.
   512.    543.    562.    510.    554.    550.    557.    527.
   542.    566.    553.    587.    577.    620.    592.    651.
   679.    663.    712.    714.    751.    741.    759.    842.
   883.    942.    944.   1005.   1057.   1115.   1176.   1168.
  1240.   1273.   1324.   1413.   1451.   1519.   1693.   1653.
  1645.   1721.   1811.   1778.   1813.   1894.   1792.   1780.
  1826.   1771.   1676.   1642.   1644.   1545.   1537.   1422.
  1347.   1354.   1237.   1168.   1206.   1151.   1137.   1053.
  1051.    985.    971.    943.    899.    946.    865.    919.
   847.    915.    828.    906.    901.    889.    899.    883.
   877.    906.    963.    988.    984.   1066.   1063.   1094.
  1119.   1172.   1341.   1323.   1392.   1450.   1591.   1736.
  1839.   1918.   2115.   2318.   2545.   2790.   3080.   3390.
  3769.   4144.   4423.   4937.   5403.   5533.   5869.   6062.
  6248.   5978.   5903.   5752.   5424.   5274.   4987.   4672.
  4398.   4035.   3724.   3370.   3180.   2983.   2806.   2590.
  2444.   2306.   2118.   1893.   1847.   1745.   1625.   1540.
  1477.   1394.   1297.   1289.   1196.   1217.   1144.   1067.
  1035.    993.    940.    911.    877.    834.    853.    811.
   801.    759.    711.    730.    752.    654.    610.    634.
   604.    634.    584.    573.    567.    520.    520.    500.
   489.    455.    511.    506.    510.    465.    478.    473.
   461.    473.    460.    419.    408.    434.    433.    405.
   431.    393.    406.    421.    380.    365.    374.    408.
   416.    378.    406.    384.    365.    362.    376.    366.
   379.    396.    373.    379.    378.    356.    353.    381.
   345.    352.    407.    318.    361.    351.    384.    371.
   346.    356.    360.    343.    363.    356.    330.    372.
   366.    373.    352.    335.    357.    328.    304.    361.
   337.    347.    375.    391.    348.    373.    358.    372.
   378.    388.    378.    381.    371.    366.    386.    408.
   433.    434.    433.    482.    481.    514.    519.    557.
   650.    678.    685.    744.    733.    815.    830.    900.
   936.    967.    865.    829.    769.    693.    616.    616.
   593.    574.    525.    501.    461.    446.    419.    441.
   407.    379.    378.    346.    386.    367.    399.    331.
   337.    355.    357.    348.    361.    318.    321.    333.
   305.    321.    358.    365.    355.    315.    338.    308.
   307.    355.    317.    330.    331.    304.    326.    337.
   336.    305.    327.    312.    329.    314.    314.    328.
   324.    338.    333.    327.    336.    314.    298.    315.
   331.    325.    331.    336.    308.    327.    328.    322.
   301.    304.    321.    324.    331.    353.    355.    349.
   369.    366.    343.    349.    366.    346.    367.    357.
   359.    409.    363.    372.    407.    347.    376.    388.
   377.    369.    396.    426.    412.    429.    460.    407.
   452.    432.    462.    422.    437.    434.    446.    434.
   404.    447.    430.    451.    400.    418.    458.    444.
   449.    490.    507.    465.    461.    510.    482.    479.
   527.    529.    587.    629.    685.    725.    820.    924.
   905.    970.    870.    867.    787.    739.    787.    783.
   806.    808.    827.    861.    830.    926.    950.   1003.
  1104.   1095.   1183.   1233.   1238.   1301.   1455.   1488.
  1604.   1694.   1753.   1865.   1914.   2026.   2007.   2011.
  2056.   1993.   1986.   1978.   1909.   1745.   1690.   1578.
  1539.   1409.   1352.   1231.   1170.   1046.   1025.    917.
   861.    867.    806.    739.    711.    746.    674.    633.
   597.    615.    514.    584.    525.    511.    497.    538.
   473.    498.    466.    448.    428.    470.    469.    430.
   472.    474.    439.    433.    429.    446.    422.    440.
   437.    441.    425.    444.    421.    442.    456.    424.
   461.    450.    452.    481.    466.    443.    471.    466.
   444.    490.    491.    490.    497.    492.    554.    504.
   543.    510.    535.    565.    592.    638.    618.    618.
   657.    706.    710.    725.    735.    800.    771.    870.
   827.    925.    944.    958.    977.   1031.   1106.   1063.
  1107.   1098.   1127.   1107.   1146.   1194.   1175.   1164.
  1163.   1119.   1062.   1041.    921.    900.    838.    770.
   736.    719.    646.    568.    559.    528.    452.    494.
   447.    476.    457.    427.    428.    413.    400.    413.
   401.    382.    335.    356.    331.    359.    379.    369.
   360.    338.    376.    320.    347.    332.    322.    351.
   370.    342.    339.    332.    309.    323.    341.    330.
   299.    320.    300.    304.    309.    309.    291.    296.
   286.    318.    288.    287.    311.    309.    312.    284.
   297.    313.    307.    329.    323.    322.    314.    287.
   299.    286.    286.    321.    301.    300.    316.    285.
   276.    333.    316.    311.    280.    268.    301.    273.
   283.    279.    303.    295.    294.    270.    319.    292.
   305.    296.    273.    293.    284.    300.    278.    272.
   279.    271.    255.    306.    291.    293.    291.    282.
   304.    297.    308.    297.    314.    301.    317.    290.
   312.    294.    289.    284.    297.    301.    304.    278.
   291.    287.    282.    285.    288.    281.    251.    286.
   282.    296.    274.    284.    296.    277.    264.    287.
   289.    292.    273.    295.    291.    275.    299.    274.
   297.    270.    289.    270.    276.    261.    322.    290.
   268.    265.    265.    282.    293.    276.    298.    276.
   272.    272.    265.    273.    272.    289.    290.    280.
   304.    292.    253.    271.    272.    289.    302.    278.
   290.    278.    274.    269.    282.    261.    268.    276.
   278.    303.    285.    294.    272.    268.    282.    286.
   283.    292.    313.    266.    298.    290.    294.    291.
   279.    296.    312.    279.    271.    263.    327.    297.
   283.    283.    271.    278.    269.    284.    285.    268.
   290.    294.    290.    275.    310.    311.    292.    280.
   312.    269.    284.    300.    288.    279.    274.    286.
   305.    327.    288.    305.    287.    277.    280.    291.
   303.    322.    307.    323.    291.    313.    282.    259.
   292.    312.    312.    282.    293.    355.    309.    315.
   321.    332.    335.    327.    323.    325.    352.    326.
   319.    326.    345.    316.    359.    395.    368.    395.
   375.    379.    415.    434.    415.    438.    467.    458.
   501.    468.    563.    518.    527.    546.    553.    573.
   566.    585.    618.    593.    576.    637.    600.    618.
   656.    593.    579.    583.    625.    631.    585.    559.
   569.    615.    594.    567.    542.    530.    500.    478.
   463.    457.    458.    411.    399.    446.    396.    415.
   384.    404.    368.    378.    369.    388.    358.    356.
   352.    370.    355.    354.    324.    284.    315.    327.
   323.    327.    327.    318.    339.    320.    318.    315.
   316.    313.    328.    313.    317.    320.    300.    298.
   301.    281.    273.    307.    322.    293.    291.    275.
   324.    302.    318.    298.    308.    285.    338.    316.
   292.    306.    279.    303.    356.    299.    298.    326.
   297.    316.    318.    334.    318.    321.    340.    332.
   321.    320.    335.    345.    305.    341.    328.    329.
   334.    346.    364.    345.    343.    353.    348.    366.
   384.    375.    332.    362.    370.    420.    451.    425.
   460.    404.    464.    478.    493.    491.    493.    549.
   580.    602.    612.    690.    736.    783.    820.    883.
   960.   1084.   1213.   1422.   1462.   1715.   1921.   2167.
  2316.   2430.   2716.   2717.   2601.   2560.   2554.   2313.
  2244.   2034.   1939.   1786.   1713.   1534.   1429.   1301.
  1251.   1157.   1130.   1033.    975.    948.    837.    808.
   829.    753.    731.    673.    680.    634.    625.    621.
   579.    568.    541.    510.    489.    483.    484.    469.
   483.    442.    470.    405.    415.    407.    397.    410.
   398.    368.    383.    341.    354.    382.    369.    363.
   329.    339.    329.    348.    339.    351.    352.    319.
   337.    300.    326.    304.    333.    349.    327.    327.
   305.    330.    308.    284.    304.    308.    314.    339.
   290.    312.    288.    300.    283.    269.    328.    284.
   290.    290.    320.    301.    305.    280.    299.    286.
   290.    283.    291.    314.    270.    248.    295.    269.
   306.    280.    283.    248.    309.    267.    277.    269.
   296.    301.    307.    269.    282.    271.    283.    259.
   290.    302.    292.    285.    267.    272.    256.    275.
   260.    307.    261.    250.    250.    301.    282.    288.
   267.    266.    298.    274.    264.    281.    282.    285.
   280.    284.    270.    298.    293.    283.    290.    281.
   257.    290.    246.    280.    269.    284.    274.    267.
   285.    278.    269.    271.    265.    285.    271.    268.
   265.    266.    265.    291.    292.    276.    289.    291.
   237.    240.    283.    270.    264.    280.    272.    244.
   287.    264.    293.    277.    271.    285.    271.    263.
   304.    289.    268.    281.    269.    250.    299.    284.
   247.    277.    284.    276.    300.    282.    279.    305.
   294.    279.    268.    281.    309.    281.    275.    305.
   267.    287.    285.    289.    290.    284.    272.    269.
   298.    268.    288.    284.    293.    273.    293.    279.
   276.    320.    291.    286.    299.    308.    292.    316.
   294.    316.    332.    332.    340.    320.    332.    309.
   325.    352.    338.    330.    326.    322.    361.    319.
   314.    333.    298.    296.    282.    303.    297.    281.
   282.    315.    323.    302.    288.    274.    293.    277.
   261.    264.    277.    257.    286.    271.    241.    297.
   279.    270.    297.    294.    299.    273.    248.    271.
   309.    270.    257.    277.    272.    263.    255.    266.
   262.    282.    264.    238.    284.    264.    294.    276.
   272.    275.    275.    287.    288.    285.    271.    286.
   278.    268.    281.    298.    307.    267.    306.    282.
   257.    278.    269.    247.    268.    275.    303.    294.
   316.    269.    276.    317.    262.    304.    281.    270.
   266.    302.    284.    305.    299.    315.    288.    293.
   315.    291.    285.    299.    318.    319.    315.    305.
   289.    292.    325.    348.    376.    341.    314.    333.
   363.    367.    339.    352.    391.    405.    425.    436.
   417.    484.    473.    493.    492.    537.    539.    497.
   498.    499.    510.    516.    514.    501.    458.    484.
   473.    433.    417.    429.    378.    383.    355.    357.
   338.    334.    329.    318.    321.    332.    319.    306.
   301.    338.    326.    319.    306.    334.    308.    275.
   299.    295.    315.    291.    294.    283.    263.    290.
   303.    297.    294.    275.    268.    269.    273.    276.
   261.    274.    260.    326.    292.    259.    273.    293.
   261.    289.    294.    270.    261.    284.    292.    281.
   256.    280.    292.    290.    299.    300.    267.    275.
   273.    257.    255.    272.    277.    272.    263.    271.
   254.    269.    237.    271.    267.    273.    250.    266.
   247.    303.    274.    257.    287.    266.    253.    266.
   267.    249.    278.    279.    254.    257.    237.    275.
   298.    236.    277.    274.    261.    282.    214.    250.
   267.    272.    278.    264.    265.    256.    271.    271.
   261.    282.    297.    276.    259.    276.    290.    266.
   278.    261.    280.    264.    292.    250.    249.    249.
   274.    291.    257.    270.    259.    287.    308.    274.
   275.    269.    277.    277.    284.    288.    289.    262.
   257.    284.    254.    276.    291.    290.    282.    281.
   262.    283.    275.    287.    286.    271.    292.    278.
   291.    283.    304.    290.    279.    303.    336.    282.
   276.    315.    329.    287.    313.    328.    325.    323.
   327.    339.    315.    339.    371.    330.    332.    316.
   328.    337.    301.    327.    310.    329.    302.    364.
   321.    290.    297.    319.    320.    281.    298.    276.
   315.    282.    280.    280.    314.    285.    273.    302.
   271.    301.    298.    307.    288.    277.    276.    292.
   273.    276.    276.    273.    279.    281.    265.    272.
   279.    268.    307.    298.    284.    309.    293.    279.
   285.    299.    307.    299.    310.    271.    305.    330.
   340.    317.    312.    318.    289.    312.    301.    297.
   306.    283.    274.    279.    297.    275.    307.    304.
   275.    310.    258.    287.    274.    295.    302.    291.
   277.    278.    280.    267.    299.    275.    281.    300.
   327.    272.    291.    275.    251.    296.    279.    264.
   283.    314.    282.    290.    306.    287.    307.    289.
   284.    279.    300.    310.    327.    288.    283.    267.
   307.    309.    283.    327.    313.    299.    307.    298.
   339.    321.    344.    320.    330.    292.    359.    345.
   366.    358.    372.    398.    416.    451.    435.    410.
   441.    484.    432.    492.    525.    561.    545.    617.
   719.    684.    721.    783.    771.    800.    859.    794.
   803.    785.    812.    707.    625.    677.    647.    607.
   600.    550.    542.    507.    516.    494.    469.    440.
   468.    398.    421.    425.    395.    398.    378.    378.
   367.    402.    331.    346.    346.    336.    339.    320.
   345.    312.    340.    351.    337.    328.    311.    323.
   328.    305.    313.    290.    307.    319.    302.    312.
   297.    297.    308.    313.    292.    281.    295.    286.
   317.    308.    298.    262.    300.    287.    281.    289.
   276.    294.    281.    287.    290.    294.    283.    292.
   293.    302.    261.    291.    323.    268.    263.    283.
   298.    300.    272.    304.    269.    298.    267.    283.
   276.    276.    286.    270.    267.    262.    285.    284.
   315.    303.    282.    290.    254.    284.    270.    296.
   283.    280.    294.    291.    297.    292.    287.    289.
   260.    294.    262.    300.    282.    291.    304.    290.
   314.    271.    297.    263.    281.    261.    315.    294.
   294.    280.    284.    278.    284.    271.    276.    291.
   290.    287.    260.    300.    276.    281.    280.    299.
   266.    288.    270.    304.    292.    301.    313.    289.
   311.    280.    300.    301.    287.    294.    295.    294.
   293.    306.    299.    273.    287.    300.    337.    279.
   303.    291.    312.    310.    290.    296.    311.    293.
   299.    312.    313.    302.    290.    308.    281.    293.
   284.    307.    300.    318.    339.    293.    271.    286.
   301.    279.    294.    325.    279.    341.    309.    324.
   336.    316.    347.    318.    329.    342.    345.    323.
   317.    308.    325.    321.    326.    349.    304.    322.
   324.    346.    353.    343.    365.    355.    378.    353.
   351.    356.    358.    364.    373.    384.    358.    377.
   386.    379.    406.    424.    424.    388.    421.    410.
   436.    428.    437.    422.    460.    477.    503.    496.
   482.    490.    483.    495.    536.    567.    612.    598.
   599.    594.    647.    682.    682.    749.    762.    736.
   833.    817.    887.    934.   1054.   1057.   1102.   1210.
  1238.   1282.   1371.   1420.   1577.   1615.   1726.   1852.
  1944.   2041.   2117.   2131.   2182.   2319.   2291.   2292.
  2259.   2272.   2152.   2070.   2004.   1889.   1797.   1661.
  1570.   1534.   1449.   1297.   1231.   1202.   1087.   1070.
   939.    908.    886.    877.    829.    787.    709.    674.
   678.    698.    696.    623.    610.    598.    581.    542.
   525.    535.    518.    507.    500.    520.    499.    476.
   475.    482.    458.    507.    456.    476.    449.    452.
   426.    474.    446.    467.    435.    420.    474.    482.
   437.    430.    436.    412.    442.    438.    441.    442.
   474.    457.    447.    468.    494.    468.    508.    474.
   492.    500.    497.    511.    514.    493.    550.    623.
   583.    604.    615.    615.    622.    651.    681.    721.
   713.    699.    724.    757.    772.    731.    784.    786.
   772.    784.    766.    741.    812.    757.    783.    787.
   780.    744.    735.    756.    709.    727.    699.    677.
   656.    648.    574.    572.    564.    583.    556.    542.
   495.    525.    497.    505.    475.    444.    420.    462.
   404.    428.    432.    390.    418.    397.    424.    369.
   378.    407.    356.    369.    372.    343.    366.    369.
   319.    340.    337.    323.    306.    324.    330.    327.
   312.    336.    318.    317.    306.    340.    299.    342.
   315.    303.    301.    339.    318.    302.    320.    302.
   284.    295.    300.    306.    308.    304.    303.    319.
   306.    313.    305.    323.    328.    343.    330.    297.
   330.    298.    311.    334.    306.    300.    314.    354.
   344.    304.    333.    335.    328.    325.    307.    342.
   321.    329.    334.    333.    347.    350.    329.    320.
   294.    351.    340.    329.    319.    317.    328.    297.
   308.    297.    308.    322.    298.    356.    364.    350.
   329.    370.    396.    398.    362.    381.    366.    351.
   369.    389.    373.    381.    405.    367.    384.    409.
   404.    416.    469.    450.    458.    496.    495.    516.
   535.    531.    558.    588.    648.    617.    672.    747.
   726.    808.    835.    944.   1018.   1056.   1241.   1328.
  1440.   1648.   1768.   1920.   2049.   2152.   2214.   2326.
  2275.   2150.   2165.   1990.   1808.   1862.   1684.   1625.
  1519.   1334.   1336.   1259.   1181.   1129.   1066.    997.
   959.    935.    866.    833.    798.    741.    725.    723.
   714.    657.    637.    625.    627.    565.    538.    562.
   514.    541.    495.    515.    481.    509.    494.    438.
   476.    449.    414.    451.    457.    384.    397.    407.
   399.    379.    384.    397.    387.    397.    362.    359.
   357.    360.    376.    310.    376.    354.    356.    322.
   336.    340.    376.    326.    338.    300.    310.    351.
   319.    332.    334.    318.    336.    323.    314.    319.
   289.    325.    301.    283.    309.    311.    294.    318.
   298.    307.    308.    317.    321.    294.    303.    302.
   300.    334.    296.    283.    281.    319.    296.    294.
   341.    292.    298.    292.    278.    304.    276.    303.
   304.    295.    304.    306.    313.    316.    288.    315.
   291.    297.    298.    305.    299.    293.    316.    306.
   319.    305.    286.    308.    293.    317.    304.    307.
   299.    296.    312.    318.    300.    305.    290.    299.
   302.    282.    289.    318.    309.    279.    309.    275.
   304.    316.    320.    329.    321.    308.    289.    303.
   310.    325.    312.    314.    304.    300.    310.    332.
   310.    331.    317.    318.    348.    318.    320.    320.
   344.    350.    330.    336.    329.    325.    344.    324.
   339.    384.    369.    402.    375.    421.    395.    385.
   409.    430.    469.    444.    461.    437.    501.    489.
   483.    541.    529.    583.    603.    590.    636.    643.
   610.    670.    633.    663.    698.    685.    667.    661.
   754.    725.    754.    785.    745.    746.    759.    755.
   781.    799.    776.    696.    682.    617.    643.    647.
   573.    577.    530.    559.    490.    535.    475.    490.
   452.    456.    489.    454.    435.    419.    406.    414.
   424.    419.    410.    377.    453.    395.    410.    434.
   433.    438.    392.    414.    401.    441.    418.    397.
   415.    429.    411.    440.    439.    480.    503.    520.
   509.    467.    522.    535.    540.    525.    578.    600.
   629.    572.    619.    643.    695.    704.    747.    748.
   775.    822.    811.    895.    841.    894.    938.    937.
   935.    942.    955.    998.   1049.    967.    961.    941.
   995.    973.    909.    861.    831.    757.    723.    700.
   622.    622.    592.    573.    565.    532.    538.    527.
   524.    465.    455.    398.    415.    427.    412.    384.
   403.    379.    372.    417.    369.    356.    352.    386.
   379.    380.    363.    367.    362.    350.    373.    388.
   345.    344.    357.    339.    335.    363.    336.    337.
   328.    320.    319.    315.    338.    347.    340.    349.
   319.    357.    301.    322.    326.    358.    388.    336.
   347.    314.    336.    338.    334.    367.    354.    352.
   358.    383.    358.    353.    357.    354.    384.    328.
   338.    315.    357.    348.    354.    332.    341.    346.
   335.    327.    339.    324.    341.    319.    322.    314.
   317.    314.    317.    300.    298.    326.    333.    316.
   308.    306.    300.    378.    327.    277.    283.    322.
   326.    318.    328.    340.    318.    320.    352.    322.
   343.    318.    355.    335.    283.    331.    331.    322.
   331.    341.    342.    342.    326.    348.    346.    337.
   322.    338.    313.    325.    370.    346.    358.    395.
   377.    375.    384.    404.    436.    441.    479.    533.
   613.    638.    704.    692.    685.    617.    633.    603.
   498.    478.    466.    452.    448.    387.    380.    366.
   384.    339.    362.    333.    349.    322.    319.    350.
   332.    344.    350.    340.    339.    352.    285.    306.
   336.    323.    341.    342.    321.    320.    320.    326.
   354.    331.    340.    332.    328.    343.    340.    371.
   333.    360.    367.    368.    358.    364.    395.    366.
   387.    389.    390.    397.    423.    399.    409.    449.
   408.    410.    441.    439.    463.    450.    464.    460.
   462.    501.    475.    482.    480.    536.    527.    511.
   515.    508.    534.    515.    543.    512.    513.    514.
   585.    565.    539.    557.    582.    563.    582.    602.
   620.    625.    621.    681.    693.    713.    696.    752.
   742.    846.    862.    806.    806.    825.    805.    883.
   770.    771.    730.    762.    744.    672.    670.    624.
   624.    610.    557.    543.    567.    499.    499.    477.
   455.    475.    439.    445.    458.    433.    411.    414.
   418.    390.    402.    422.    436.    403.    403.    398.
   413.    375.    397.    371.    368.    367.    369.    368.
   368.    374.    356.    359.    353.    394.    354.    359.
   384.    373.    383.    386.    361.    370.    381.    336.
   368.    358.    368.    366.    392.    367.    364.    338.
   377.    350.    348.    370.    362.    371.    378.    390.
   363.    398.    399.    391.    414.    427.    408.    437.
   435.    443.    405.    414.    429.    417.    445.    492.
   470.    483.    484.    482.    480.    520.    614.    567.
   571.    658.    643.    619.    698.    736.    737.    746.
   741.    826.    861.    905.    926.    938.   1003.   1002.
  1035.   1090.   1150.   1211.   1209.   1142.   1216.   1274.
  1305.   1288.   1316.   1287.   1272.   1278.   1257.   1229.
  1187.   1166.   1088.   1032.   1057.    974.    955.    904.
   820.    808.    787.    819.    777.    742.    666.    686.
   610.    652.    623.    640.    624.    560.    588.    597.
   577.    559.    543.    577.    520.    530.    546.    514.
   508.    472.    476.    505.    482.    527.    497.    492.
   515.    505.    477.    489.    471.    494.    467.    483.
   460.    462.    455.    517.    468.    485.    479.    517.
   496.    505.    497.    513.    515.    487.    522.    546.
   511.    491.    488.    477.    496.    510.    509.    527.
   510.    538.    538.    498.    487.    492.    472.    449.
   521.    511.    513.    454.    461.    482.    447.    519.
   484.    472.    508.    533.    523.    520.    544.    536.
   546.    540.    557.    548.    543.    574.    585.    555.
   624.    609.    656.    618.    657.    640.    693.    699.
   696.    737.    751.    737.    760.    816.    784.    850.
   858.    857.    882.    874.    903.    860.    882.    856.
   918.    871.    840.    841.    800.    753.    771.    708.
   688.    658.    603.    626.    587.    568.    499.    506.
   523.    519.    521.    513.    480.    485.    475.    470.
   459.    470.    438.    450.    485.    519.    486.    509.
   489.    489.    496.    535.    529.    547.    601.    614.
   611.    630.    644.    667.    710.    736.    761.    796.
   813.    845.    884.    891.    878.    875.    935.    868.
   856.    805.    820.    772.    802.    787.    771.    721.
   670.    709.    669.    644.    597.    600.    604.    597.
   538.    577.    542.    526.    533.    499.    494.    466.
   472.    454.    412.    465.    428.    434.    437.    417.
   399.    431.    417.    412.    410.    410.    419.    427.
   413.    427.    407.    437.    416.    438.    458.    460.
   494.    541.    500.    518.    540.    603.    625.    725.
   835.    924.    882.    920.    902.    938.    910.    861.
   850.    769.    762.    694.    683.    668.    645.    621.
   610.    577.    530.    535.    507.    462.    463.    507.
   452.    464.    423.    421.    390.    414.    369.    373.
   357.    385.    340.    348.    370.    403.    363.    356.
   368.    357.    339.    327.    350.    342.    317.    323.
   344.    340.    304.    353.    299.    333.    330.    337.
   322.    302.    293.    344.    335.    319.    290.    344.
   345.    302.    301.    313.    294.    330.    284.    298.
   297.    294.    292.    295.    312.    310.    301.    327.
   288.    281.    293.    314.    297.    296.    295.    284.
   278.    291.    326.    306.    267.    293.    302.    279.
   298.    293.    298.    282.    270.    286.    281.    305.
   306.    300.    291.    311.    306.    296.    294.    294.
   295.    318.    312.    298.    305.    294.    283.    319.
   297.    298.    330.    300.    324.    289.    311.    305.
   288.    272.    312.    293.    306.    311.    289.    312.
   322.    344.    312.    336.    317.    300.    324.    302.
   341.    351.    331.    363.    362.    353.    395.    376.
   409.    389.    382.    408.    404.    414.    370.    421.
   416.    383.    392.    374.    364.    327.    318.    328.
   335.    334.    315.    317.    315.    329.    325.    306.
   344.    307.    306.    285.    311.    295.    295.    292.
   273.    302.    273.    320.    326.    304.    293.    283.
   295.    284.    300.    320.    299.    305.    286.    281.
   292.    307.    316.    305.    284.    287.    313.    306.
   325.    318.    331.    326.    308.    328.    295.    336.
   358.    335.    360.    311.    305.    335.    284.    330.
   304.    307.    319.    300.    282.    283.    296.    255.
   313.    338.    300.    290.    312.    285.    310.    289.
   330.    324.    308.    317.    283.    311.    320.    320.
   296.    296.    310.    281.    310.    295.    327.    316.
   283.    302.    310.    315.    298.    279.    297.    265.
   304.    304.    318.    314.    297.    309.    308.    308.
   306.    305.    329.    308.    313.    321.    313.    315.
   334.    330.    315.    330.    345.    322.    332.    321.
   337.    326.    311.    325.    330.    355.    316.    330.
   329.    355.    349.    366.    349.    360.    360.    362.
   348.    373.    385.    381.    386.    356.    416.    419.
   414.    403.    422.    456.    428.    440.    462.    447.
   521.    459.    466.    479.    509.    549.    569.    546.
   552.    592.    636.    602.    652.    672.    641.    674.
   707.    703.    745.    743.    708.    731.    735.    703.
   717.    735.    724.    698.    668.    651.    654.    591.
   557.    546.    509.    492.    509.    488.    456.    424.
   425.    403.    402.    420.    388.    379.    379.    358.
   402.    351.    349.    385.    383.    379.    382.    362.
   392.    400.    410.    400.    383.    388.    375.    397.
   413.    443.    445.    416.    467.    483.    488.    466.
   506.    485.    495.    473.    485.    482.    484.    482.
   488.    447.    430.    422.    420.    441.    390.    403.
   439.    374.    387.    350.    386.    373.    343.    369.
   354.    353.    334.    358.    364.    331.    319.    322.
   340.    318.    299.    336.    352.    334.    319.    331.
   314.    314.    346.    306.    314.    299.    300.    320.
   303.    281.    293.    284.    323.    322.    310.    306.
   287.    283.    315.    312.    312.    286.    302.    274.
   327.    302.    300.    323.    308.    328.    321.    300.
   289.    293.    320.    290.    304.    286.    303.    326.
   278.    327.    290.    288.    300.    300.    299.    291.
   313.    278.    313.    288.    325.    284.    290.    291.
   302.    312.    289.    299.    295.    300.    286.    293.
   293.    311.    302.    312.    325.    298.    289.    309.
   320.    318.    302.    308.    282.    323.    298.    320.
   307.    316.    280.    282.    313.    299.    307.    296.
   313.    283.    291.    320.    288.    250.    281.    284.
   323.    319.    265.    278.    286.    271.    293.    300.
   286.    317.    315.    317.    300.    288.    311.    291.
   285.    274.    286.    317.    292.    290.    267.    308.
   287.    299.    327.    292.    294.    307.    279.    291.
   296.    265.    312.    292.    289.    299.    291.    291.
   287.    302.    284.    277.    305.    305.    300.    294.
   303.    294.    281.    304.    296.    289.    294.    284.
   281.    302.    317.    316.    301.    288.    301.    303.
   298.    304.    283.    281.    322.    289.    292.    281.
   296.    283.    299.    304.    298.    300.    298.    280.
   278.    321.    286.    298.    273.    301.    302.    301.
   289.    317.    299.    308.    306.    268.    302.    291.
   297.    299.    328.    307.    283.    293.    336.    313.
   291.    283.    323.    339.    311.    336.    300.    294.
   290.    317.    314.    322.    323.    322.    365.    313.
   335.    339.    317.    323.    322.    333.    338.    352.
   338.    325.    339.    361.    358.    323.    341.    315.
   348.    364.    373.    373.    378.    365.    389.    364.
   389.    366.    402.    398.    405.    377.    409.    413.
   408.    427.    436.    426.    439.    447.    467.    485.
   451.    498.    493.    506.    537.    530.    521.    564.
   518.    584.    587.    584.    592.    670.    620.    607.
   669.    675.    666.    653.    687.    659.    711.    715.
   712.    748.    702.    709.    741.    722.    706.    752.
   747.    761.    780.    731.    722.    769.    742.    728.
   757.    775.    825.    826.    869.    766.    847.    787.
   824.    792.    767.    759.    791.    745.    699.    738.
   680.    680.    614.    573.    534.    575.    559.    537.
   529.    512.    482.    479.    469.    451.    457.    443.
   430.    437.    429.    415.    397.    404.    414.    402.
   423.    397.    392.    383.    375.    414.    408.    396.
   403.    394.    396.    374.    373.    414.    407.    397.
   394.    393.    380.    374.    389.    387.    392.    380.
   368.    370.    360.    395.    404.    349.    419.    403.
   394.    391.    386.    389.    411.    411.    373.    381.
   394.    399.    444.    470.    416.    440.    459.    449.
   467.    489.    509.    530.    560.    536.    617.    629.
   613.    670.    690.    758.    803.    844.    873.    992.
  1062.   1145.   1123.   1256.   1259.   1302.   1304.   1326.
  1242.   1241.   1101.   1091.   1076.   1020.   1008.    929.
   927.    847.    852.    833.    835.    784.    688.    736.
   688.    689.    661.    646.    606.    579.    579.    600.
   556.    544.    545.    566.    543.    527.    529.    574.
   526.    520.    589.    533.    510.    539.    567.    575.
   547.    551.    625.    616.    668.    675.    718.    762.
   803.    750.    901.    948.    921.   1035.   1095.   1235.
  1272.   1236.   1386.   1399.   1308.   1355.   1320.   1268.
  1210.   1202.   1054.   1122.   1051.    975.    983.    884.
   882.    859.    807.    752.    733.    671.    658.    612.
   607.    620.    608.    570.    571.    555.    540.    555.
   549.    489.    515.    521.    468.    489.    484.    456.
   428.    449.    448.    437.    406.    391.    413.    356.
   373.    329.    354.    381.    372.    390.    393.    349.
   332.    386.    345.    364.    384.    357.    389.    342.
   351.    374.    338.    350.    361.    341.    341.    324.
   339.    303.    368.    318.    344.    339.    337.    329.
   355.    327.    327.    354.    308.    301.    318.    292.
   300.    309.    312.    326.    318.    329.    327.    321.
   317.    323.    294.    323.    327.    326.    313.    312.
   297.    352.    301.    351.    310.    284.    305.    303.
   320.    320.    347.    284.    341.    330.    320.    341.
   328.    302.    322.    330.    361.    291.    345.    337.
   310.    350.    336.    322.    333.    349.    306.    331.
   366.    346.    334.    376.    335.    349.    336.    356.
   377.    339.    344.    343.    366.    369.    344.    377.
   350.    372.    370.    350.    435.    406.    404.    418.
   396.    416.    433.    417.    412.    455.    482.    434.
   455.    495.    482.    459.    514.    515.    502.    537.
   552.    577.    568.    615.    659.    665.    670.    737.
   679.    786.    803.    848.    837.    851.    895.    906.
   931.    900.    943.    988.    950.    952.    950.    949.
   927.    912.    864.    856.    863.    886.    825.    783.
   710.    726.    682.    685.    649.    651.    608.    564.
   580.    551.    533.    526.    487.    478.    498.    519.
   465.    466.    455.    434.    434.    454.    407.    405.
   414.    408.    410.    421.    399.    430.    396.    408.
   429.    404.    385.    393.    365.    394.    363.    397.
   400.    372.    401.    414.    379.    395.    399.    403.
   406.    430.    432.    432.    431.    451.    435.    450.
   451.    433.    421.    460.    469.    443.    488.    485.
   497.    511.    513.    499.    470.    468.    457.    468.
   448.    449.    480.    425.    410.    418.    400.    387.
   389.    400.    389.    365.    379.    370.    347.    329.
   331.    391.    380.    330.    340.    340.    330.    362.
   356.    339.    348.    356.    347.    338.    340.    363.
   345.    315.    312.    314.    296.    314.    336.    335.
   352.    343.    327.    326.    371.    320.    319.    343.
   358.    302.    320.    324.    319.    302.    292.    317.
   326.    291.    296.    304.    306.    305.    300.    318.
   302.    316.    315.    299.    304.    297.    293.    315.
   310.    300.    311.    308.    268.    300.    296.    290.
   270.    281.    296.    265.    291.    281.    286.    271.
   283.    297.    296.    301.    290.    283.    280.    284.
   287.    260.    298.    289.    262.    289.    275.    284.
   307.    317.    306.    278.    295.    283.    259.    282.
   299.    279.    282.    283.    281.    299.    266.    278.
   289.    286.    285.    276.    273.    296.    278.    277.
   267.    282.    289.    301.    305.    281.    275.    306.
   310.    289.    312.    290.    288.    291.    312.    332.
   327.    307.    300.    294.    307.    317.    308.    300.
   301.    297.    338.    306.    300.    314.    291.    306.
   323.    307.    328.    300.    309.    305.    333.    288.
   322.    342.    325.    337.    368.    345.    354.    333.
   338.    330.    327.    314.    323.    325.    305.    323.
   352.    331.    305.    312.    314.    309.    308.    330.
   328.    326.    343.    316.    314.    333.    332.    321.
   324.    314.    304.    287.    316.    296.    312.    348.
   365.    338.    355.    347.    363.    338.    375.    381.
   386.    395.    399.    374.    387.    385.    420.    440.
   466.    455.    466.    484.    486.    500.    539.    526.
   552.    518.    552.    508.    575.    541.    581.    600.
   510.    538.    485.    485.    498.    465.    418.    442.
   450.    451.    414.    438.    387.    402.    431.    341.
   368.    367.    377.    339.    332.    350.    369.    309.
   305.    365.    332.    321.    332.    318.    321.    329.
   315.    327.    311.    294.    313.    329.    352.    323.
   323.    298.    298.    281.    309.    295.    299.    322.
   289.    274.    246.    309.    299.    311.    294.    302.
   313.    285.    303.    268.    274.    270.    285.    287.
   309.    283.    289.    272.    280.    271.    321.    307.
   264.    286.    291.    289.    300.    276.    288.    311.
   300.    296.    315.    317.    291.    288.    302.    289.
   264.    295.    294.    292.    267.    289.    281.    296.
   265.    289.    286.    300.    315.    308.    311.    275.
   292.    293.    284.    288.    286.    286.    295.    319.
   284.    304.    276.    293.    288.    285.    317.    303.
   315.    312.    334.    311.    305.    315.    300.    292.
   296.    322.    283.    307.    329.    344.    320.    314.
   322.    297.    343.    316.    328.    314.    332.    296.
   327.    328.    331.    328.    327.    297.    323.    339.
   292.    298.    326.    328.    313.    332.    319.    354.
   332.    295.    308.    310.    328.    294.    330.    309.
   321.    356.    332.    324.    351.    330.    359.    341.
   364.    368.    341.    391.    341.    328.    364.    383.
   389.    354.    392.    382.    405.    393.    434.    420.
   408.    400.    424.    443.    406.    408.    452.    470.
   421.    442.    481.    477.    521.    489.    519.    526.
   523.    614.    562.    604.    564.    629.    634.    654.
   701.    649.    678.    681.    758.    777.    787.    805.
   835.    887.    905.    834.    823.    818.    897.    833.
   805.    864.    825.    796.    794.    767.    739.    739.
   728.    686.    651.    627.    611.    549.    498.    541.
   534.    496.    536.    474.    456.    487.    442.    439.
   450.    421.    415.    433.    433.    430.    410.    410.
   463.    452.    468.    443.    455.    449.    481.    505.
   480.    481.    536.    550.    524.    539.    510.    508.
   556.    531.    569.    484.    500.    503.    517.    498.
   465.    467.    468.    477.    483.    430.    425.    409.
   388.    379.    441.    396.    380.    394.    377.    342.
   331.    380.    325.    331.    350.    344.    360.    302.
   325.    331.    288.    346.    323.    298.    311.    309.
   305.    292.    296.    284.    318.    305.    303.    298.
   290.    306.    313.    310.    286.    287.    304.    291.
   313.    322.    289.    296.    320.    270.    283.    299.
   295.    287.    307.    287.    308.    310.    316.    278.
   313.    266.    273.    294.    291.    289.    281.    289.
   264.    280.    305.    284.    303.    285.    287.    279.
   283.    294.    283.    296.    299.    282.    284.    278.
   274.    298.    282.    277.    286.    272.    249.    284.
   291.    272.    289.    261.    269.    288.    267.    287.
   271.    296.    279.    271.    235.    309.    277.    299.
   305.    260.    289.    307.    287.    320.    330.    316.
   315.    315.    339.    307.    301.    333.    314.    317.
   318.    355.    325.    327.    321.    350.    332.    328.
   331.    318.    319.    306.    277.    294.    322.    286.
   265.    295.    308.    301.    286.    313.    273.    262.
   270.    269.    257.    282.    301.    270.    263.    254.
   286.    267.    283.    264.    264.    290.    279.    252.
   251.    263.    260.    254.    282.    275.    258.    253.
   258.    265.    249.    270.    266.    264.    255.    247.
   271.    264.    245.    274.    238.    260.    269.    234.
   248.    261.    278.    280.    280.    272.    297.    242.
   288.    306.    227.    252.    295.    251.    258.    276.
   270.    254.    259.    254.    259.    245.    272.    274.
   268.    277.    254.    281.    288.    274.    264.    252.
   291.    271.    255.    242.    261.    254.    277.    245.
   261.    270.    237.    279.    257.    225.    267.    252.
   251.    249.    265.    253.    263.    266.    261.    273.
   256.    250.    287.    278.    243.    235.    256.    245.
   268.    277.    244.    251.    280.    268.    266.    277.
   274.    267.    255.    286.    224.    236.    271.    281.
   275.    251.    259.    253.    249.    280.    257.    254.
   249.    277.    267.    270.    259.    222.    248.    258.
   273.    275.    289.    264.    256.    253.    277.    239.
   264.    264.    272.    275.    289.    271.    243.    249.
   261.    267.    294.    245.    257.    252.    241.    269.
   277.    255.    243.    264.    260.    237.    255.    274.
   244.    287.    242.    302.    248.    252.    239.    235.
   269.    269.    246.    288.    281.    268.    262.    269.
   274.    255.    263.    263.    263.    278.    274.    267.
   267.    266.    247.    248.    261.    254.    249.    242.
   251.    251.    287.    262.    271.    271.    265.    277.
   276.    239.    268.    263.    253.    287.    264.    282.
   274.    263.    271.    246.    251.    251.    281.    258.
   295.    284.    300.    287.    302.    267.    274.    270.
   292.    297.    275.    262.    281.    293.    279.    269.
   253.    275.    284.    265.    262.    269.    284.    285.
   267.    271.    257.    276.    243.    276.    298.    293.
   266.    262.    298.    257.    296.    277.    265.    266.
   272.    270.    309.    271.    298.    286.    309.    273.
   256.    274.    292.    286.    272.    272.    255.    277.
   273.    276.    258.    271.    274.    262.    273.    264.
   254.    278.    231.    244.    234.    265.    257.    273.
   249.    252.    260.    263.    283.    268.    261.    257.
   255.    284.    266.    269.    234.    261.    268.    221.
   237.    289.    271.    272.    293.    259.    285.    275.
   271.    273.    273.    279.    268.    263.    261.    291.
   265.    272.    267.    259.    254.    234.    248.    244.
   283.    263.    271.    259.    271.    258.    238.    275.
   252.    282.    255.    273.    272.    247.    269.    284.
   235.    264.    283.    254.    272.    255.    246.    283.
   265.    270.    250.    256.    290.    266.    237.    257.
   274.    254.    245.    262.    257.    265.    277.    268.
   255.    267.    275.    272.    263.    301.    264.    253.
   250.    247.    265.    277.    287.    248.    243.    271.
   279.    254.    263.    282.    257.    261.    280.    271.
   275.    276.    303.    279.    290.    291.    270.    264.
   285.    268.    317.    285.    277.    261.    282.    298.
   311.    262.    299.    284.    292.    299.    285.    297.
   287.    304.    274.    286.    265.    315.    317.    297.
   308.    315.    283.    291.    353.    284.    306.    326.
   304.    292.    327.    293.    305.    303.    314.    357.
   331.    314.    338.    365.    361.    336.    336.    370.
   354.    383.    339.    388.    357.    356.    352.    375.
   392.    410.    356.    414.    391.    432.    458.    488.
   472.    507.    505.    508.    527.    556.    571.    608.
   618.    673.    686.    667.    668.    725.    762.    751.
   802.    791.    787.    779.    817.    814.    844.    793.
   801.    800.    809.    753.    741.    681.    720.    689.
   681.    628.    679.    597.    561.    590.    579.    595.
   564.    564.    538.    507.    501.    483.    499.    490.
   447.    451.    431.    449.    427.    424.    410.    419.
   404.    401.    395.    366.    380.    385.    392.    383.
   374.    368.    346.    359.    355.    343.    368.    357.
   352.    337.    333.    334.    328.    343.    331.    322.
   330.    330.    346.    323.    330.    311.    324.    302.
   327.    300.    305.    309.    281.    290.    279.    292.
   312.    327.    325.    313.    288.    318.    325.    300.
   280.    301.    284.    304.    301.    277.    308.    298.
   282.    301.    312.    306.    279.    300.    308.    301.
   322.    301.    309.    253.    299.    286.    295.    295.
   317.    302.    306.    275.    302.    310.    266.    330.
   322.    334.    310.    294.    317.    305.    308.    324.
   311.    322.    298.    321.    348.    323.    337.    328.
   344.    322.    362.    348.    387.    367.    386.    339.
   359.    341.    348.    343.    333.    344.    334.    321.
   313.    329.    312.    327.    317.    300.    300.    284.
   285.    278.    255.    293.    322.    264.    292.    274.
   321.    284.    254.    282.    277.    265.    296.    257.
   265.    277.    284.    278.    289.    278.    264.    281.
   283.    285.    262.    263.    268.    283.    292.    291.
   294.    246.    251.    282.    270.    266.    289.    271.
   247.    265.    258.    301.    264.    289.    283.    275.
   271.    286.    267.    290.    280.    263.    275.    267.
   255.    258.    310.    263.    247.    268.    251.    262.
   261.    261.    271.    291.    275.    283.    265.    275.
   271.    291.    281.    283.    284.    269.    264.    264.
   275.    275.    281.    250.    275.    286.    267.    261.
   283.    288.    256.    260.    268.    302.    277.    272.
   249.    274.    295.    277.    255.    271.    271.    283.
   259.    306.    306.    277.    274.    262.    310.    285.
   266.    284.    267.    276.    283.    285.    288.    312.
   290.    285.    279.    299.    291.    277.    302.    279.
   283.    289.    308.    312.    279.    321.    312.    296.
   320.    334.    330.    342.    339.    309.    322.    365.
   327.    348.    355.    351.    337.    362.    341.    342.
   355.    330.    350.    333.    341.    327.    325.    332.
   320.    345.    342.    288.    277.    282.    331.    295.
   323.    330.    324.    317.    303.    309.    299.    313.
   293.    286.    307.    305.    304.    304.    302.    280.
   304.    289.    278.    283.    318.    308.    317.    306.
   294.    299.    304.    312.    311.    293.    301.    312.
   327.    338.    303.    320.    326.    324.    305.    306.
   323.    347.    341.    348.    329.    328.    337.    350.
   373.    346.    381.    390.    364.    378.    407.    357.
   411.    409.    390.    427.    408.    413.    449.    453.
   458.    478.    455.    469.    492.    512.    553.    536.
   557.    590.    581.    588.    615.    583.    627.    616.
   602.    613.    618.    597.    615.    613.    602.    542.
   561.    555.    537.    510.    537.    489.    484.    486.
   477.    462.    454.    436.    418.    433.    425.    401.
   406.    397.    380.    376.    406.    411.    393.    386.
   411.    386.    407.    376.    350.    379.    346.    351.
   370.    365.    397.    383.    366.    356.    382.    361.
   358.    366.    374.    394.    410.    376.    373.    389.
   367.    453.    428.    432.    403.    492.    426.    435.
   467.    468.    474.    469.    482.    469.    514.    565.
   514.    493.    502.    487.    534.    513.    511.    535.
   511.    497.    445.    460.    468.    450.    427.    463.
   443.    392.    396.    406.    386.    407.    423.    410.
   392.    405.    351.    364.    368.    339.    379.    352.
   365.    350.    383.    328.    387.    367.    350.    343.
   372.    342.    353.    361.    352.    356.    343.    351.
   375.    374.    384.    414.    382.    437.    438.    418.
   481.    460.    478.    431.    434.    443.    408.    421.
   397.    388.    384.    371.    402.    363.    354.    377.
   385.    376.    365.    345.    336.    340.    328.    343.
   326.    358.    340.    346.    322.    338.    324.    354.
   324.    354.    311.    323.    304.    321.    316.    310.
   295.    330.    287.    310.    325.    322.    317.    295.
   330.    332.    320.    333.    323.    322.    335.    324.
   351.    306.    297.    333.    292.    319.    323.    334.
   346.    330.    343.    338.    323.    361.    335.    315.
   324.    333.    343.    331.    329.    347.    323.    342.
   332.    337.    314.    321.    342.    316.    309.    298.
   314.    324.    317.    335.    308.    317.    318.    317.
   314.    323.    293.    292.    304.    298.    320.    298.
   318.    295.    321.    314.    288.    291.    291.    286.
   303.    297.    308.    315.    316.    318.    269.    302.
   301.    284.    295.    307.    326.    314.    315.    298.
   312.    305.    309.    297.    316.    290.    279.    299.
   325.    299.    298.    309.    279.    269.    295.    316.
   323.    288.    318.    320.    299.    306.    281.    288.
   279.    319.    317.    302.    275.    294.    302.    307.
   288.    267.    304.    302.    271.    300.    316.    281.
   273.    293.    279.    276.    283.    278.    299.    314.
   289.    301.    293.    291.    321.    248.    308.    303.
   285.    277.    267.    304.    299.    304.    319.    272.
   293.    307.    291.    292.    268.    267.    280.    308.
   310.    324.    297.    303.    311.    309.    282.    289.
   307.    280.    299.    304.    304.    303.    266.    304.
   311.    328.    332.    289.    295.    321.    279.    329.
   299.    295.    322.    285.    313.    305.    305.    327.
   312.    328.    316.    302.    339.    317.    331.    344.
   333.    338.    330.    355.    348.    366.    362.    354.
   367.    405.    395.    383.    383.    367.    424.    446.
   408.    421.    446.    452.    458.    443.    476.    496.
   502.    537.    522.    535.    585.    563.    580.    611.
   628.    664.    656.    572.    593.    598.    613.    589.
   550.    562.    554.    542.    535.    556.    506.    544.
   483.    495.    458.    445.    477.    448.    422.    443.
   431.    439.    429.    385.    358.    395.    421.    386.
   385.    394.    344.    379.    335.    358.    341.    344.
   362.    345.    353.    333.    336.    356.    376.    352.
   353.    357.    325.    331.    356.    354.    326.    330.
   297.    311.    334.    297.    349.    340.    325.    319.
   322.    323.    331.    330.    291.    330.    310.    322.
   327.    339.    354.    340.    320.    320.    344.    319.
   341.    324.    345.    322.    341.    381.    337.    315.
   341.    366.    349.    370.    353.    365.    358.    398.
   360.    386.    397.    364.    381.    403.    395.    415.
   382.    391.    392.    421.    455.    428.    443.    439.
   447.    457.    413.    459.    416.    397.    433.    452.
   431.    388.    429.    395.    386.    354.    402.    375.
   368.    365.    362.    347.    319.    328.    334.    346.
   358.    365.    333.    330.    344.    344.    333.    329.
   311.    324.    303.    330.    303.    301.    329.    329.
   302.    330.    314.    327.    322.    331.    327.    317.
   340.    292.    298.    338.    299.    328.    325.    298.
   337.    314.    307.    305.    313.    328.    300.    314.
   315.    294.    313.    338.    318.    313.    327.    323.
   323.    315.    331.    346.    329.    347.    335.    323.
   331.    336.    386.    361.    379.    362.    399.    402.
   392.    390.    403.    413.    424.    414.    465.    480.
   489.    513.    551.    525.    563.    522.    586.    568.
   529.    555.    526.    522.    535.    510.    510.    463.
   439.    438.    444.    446.    413.    433.    425.    428.
   430.    377.    390.    377.    366.    372.    370.    375.
   372.    370.    360.    368.    319.    304.    339.    320.
   335.    350.    348.    320.    346.    319.    331.    334.
   323.    324.    321.    322.    309.    336.    297.    335.
   315.    326.    313.    289.    313.    306.    297.    267.
   295.    303.    309.    300.    298.    319.    330.    315.
   290.    285.    302.    319.    277.    265.    294.    290.
   293.    268.    289.    310.    308.    300.    294.    293.
   302.    281.    315.    294.    303.    274.    324.    291.
   296.    290.    262.    287.    290.    288.    312.    269.
   271.    309.    282.    269.    318.    318.    290.    301.
   291.    284.    321.    290.    284.    292.    303.    319.
   295.    281.    296.    277.    300.    304.    285.    281.
   269.    276.    300.    296.    303.    306.    321.    300.
   308.    357.    293.    282.    287.    309.    292.    277.
   287.    274.    293.    295.    290.    288.    262.    290.
   266.    287.    296.    268.    254.    310.    307.    305.
   281.    287.    280.    297.    285.    297.    293.    299.
   285.    280.    297.    285.    316.    293.    330.    287.
   320.    312.    326.    329.    304.    299.    275.    306.
   302.    338.    304.    275.    290.    303.    322.    313.
   335.    324.    308.    307.    314.    321.    301.    317.
   327.    289.    309.    306.    319.    304.    300.    280.
   316.    319.    310.    289.    299.    305.    290.    289.
   265.    312.    338.    323.    315.    312.    295.    322.
   318.    295.    293.    315.    325.    314.    299.    301.
   315.    337.    338.    309.    327.    314.    332.    318.
   316.    290.    319.    321.    334.    332.    329.    343.
   342.    332.    328.    324.    338.    343.    336.    350.
   356.    357.    327.    411.    332.    378.    329.    315.
   369.    386.    370.    388.    379.    399.    403.    428.
   402.    400.    442.    454.    414.    434.    467.    466.
   451.    491.    476.    501.    482.    482.    520.    477.
   526.    513.    495.    537.    526.    503.    527.    521.
   505.    547.    544.    504.    476.    518.    520.    467.
   480.    470.    445.    424.    449.    422.    426.    396.
   475.    405.    401.    401.    405.    388.    394.    401.
   362.    400.    376.    389.    383.    385.    391.    373.
   379.    437.    420.    410.    431.    410.    436.    411.
   419.    419.    441.    427.    425.    428.    396.    378.
   402.    364.    405.    415.    402.    338.    378.    334.
   353.    380.    361.    361.    331.    340.    331.    336.
   344.    307.    337.    327.    320.    343.    340.    319.
   313.    362.    324.    317.    336.    317.    314.    296.
   329.    336.    331.    302.    317.    319.    320.    311.
   311.    312.    304.    318.    310.    325.    319.    313.
   298.    296.    313.    316.    308.    315.    308.    324.
   301.    297.    304.    307.    330.    300.    291.    322.
   323.    334.    325.    320.    295.    314.    293.    298.
   298.    303.    290.    309.    297.    289.    293.    293.
   260.    291.    307.    286.    310.    308.    320.    306.
   295.    300.    280.    294.    314.    320.    305.    299.
   317.    317.    304.    314.    305.    303.    293.    293.
   282.    298.    297.    327.    343.    300.    333.    291.
   318.    334.    302.    326.    298.    303.    304.    292.
   326.    335.    328.    306.    326.    296.    316.    330.
   312.    319.    307.    301.    321.    348.    345.    329.
   342.    334.    375.    347.    353.    323.    359.    374.
   371.    351.    356.    370.    364.    373.    343.    369.
   398.    391.    395.    374.    375.    396.    410.    400.
   418.    397.    438.    406.    435.    404.    454.    398.
   422.    454.    427.    460.    469.    444.    486.    533.
   466.    466.    513.    542.    518.    536.    545.    512.
   537.    585.    590.    575.    617.    620.    666.    632.
   633.    659.    695.    730.    730.    755.    747.    790.
   822.    812.    781.    798.    829.    866.    863.    877.
   904.    942.    916.    949.    973.    974.    997.    981.
   979.    979.    979.    924.    939.    907.    872.    850.
   863.    852.    783.    807.    764.    722.    683.    688.
   622.    621.    647.    580.    576.    570.    541.    550.
   535.    512.    501.    543.    496.    491.    477.    511.
   503.    481.    465.    456.    455.    448.    445.    428.
   452.    451.    428.    400.    433.    436.    436.    441.
   415.    411.    411.    452.    417.    422.    434.    410.
   438.    419.    432.    436.    418.    445.    435.    414.
   425.    431.    415.    454.    461.    461.    442.    421.
   418.    439.    422.    425.    433.    419.    408.    413.
   425.    424.    399.    377.    406.    370.    416.    406.
   413.    387.    374.    413.    393.    429.    375.    347.
   379.    426.    352.    383.    420.    397.    399.    430.
   409.    376.    398.    379.    409.    429.    390.    431.
   448.    426.    392.    431.    445.    450.    451.    460.
   452.    427.    439.    457.    514.    468.    485.    502.
   500.    483.    464.    514.    529.    531.    528.    520.
   576.    566.    559.    549.    569.    627.    618.    659.
   626.    682.    718.    719.    736.    771.    779.    828.
   811.    789.    843.    861.    889.    875.    909.    935.
   858.    898.    859.    882.    842.    843.    776.    770.
   685.    737.    714.    682.    664.    653.    672.    632.
   585.    569.    551.    567.    554.    543.    527.    495.
   454.    476.    458.    468.    427.    436.    417.    446.
   453.    408.    428.    386.    387.    421.    408.    383.
   387.    417.    412.    400.    400.    362.    368.    371.
   362.    348.    353.    319.    341.    368.    340.    330.
   351.    345.    348.    307.    355.    331.    313.    320.
   321.    319.    322.    308.    308.    314.    309.    311.
   328.    348.    319.    308.    319.    321.    303.    277.
   286.    309.    300.    304.    278.    297.    311.    332.
   328.    326.    309.    286.    282.    318.    293.    302.
   296.    292.    280.    305.    305.    284.    286.    268.
   264.    283.    301.    320.    274.    330.    306.    276.
   274.    286.    285.    297.    299.    271.    291.    292.
   312.    311.    279.    280.    268.    268.    294.    301.
   292.    286.    288.    290.    290.    277.    285.    288.
   280.    275.    277.    301.    307.    298.    290.    268.
   282.    286.    295.    276.    269.    272.    294.    285.
   251.    313.    262.    269.    271.    270.    275.    293.
   254.    274.    264.    275.    288.    280.    279.    277.
   307.    290.    268.    258.    270.    279.    264.    272.
   278.    269.    285.    277.    271.    251.    300.    271.
   285.    283.    286.    274.    275.    262.    287.    275.
   278.    246.    286.    276.    258.    265.    254.    274.
   276.    285.    273.    291.    244.    250.    268.    262.
   280.    295.    259.    285.    267.    310.    287.    276.
   257.    264.    294.    279.    265.    276.    289.    280.
   304.    264.    281.    259.    265.    293.    300.    290.
   266.    285.    290.    286.    274.    264.    292.    266.
   285.    282.    273.    288.    277.    308.    290.    304.
   293.    280.    283.    314.    298.    306.    303.    326.
   294.    297.    311.    325.    307.    328.    313.    325.
   329.    336.    341.    362.    366.    365.    344.    358.
   329.    352.    336.    385.    394.    370.    397.    402.
   384.    399.    389.    435.    414.    411.    412.    449.
   409.    389.    390.    362.    375.    400.    399.    403.
   365.    353.    377.    370.    347.    323.    335.    339.
   343.    319.    386.    334.    312.    320.    310.    287.
   357.    304.    282.    299.    316.    318.    300.    283.
   324.    310.    327.    301.    321.    341.    298.    331.
   303.    294.    296.    292.    307.    301.    321.    293.
   291.    298.    309.    278.    301.    324.    307.    294.
   316.    297.    320.    306.    346.    298.    301.    299.
   301.    328.    319.    312.    334.    323.    342.    325.
   300.    354.    348.    365.    382.    381.    399.    417.
   401.    422.    411.    411.    401.    394.    369.    372.
   360.    345.    340.    342.    328.    320.    335.    340.
   328.    297.    302.    327.    289.    293.    311.    301.
   289.    339.    299.    314.    319.    320.    307.    326.
   282.    293.    270.    271.    303.    283.    283.    268.
   257.    292.    284.    274.    267.    264.    281.    268.
   279.    304.    275.    283.    298.    282.    269.    278.
   290.    294.    285.    269.    269.    270.    271.    242.
   279.    253.    273.    252.    265.    267.    257.    271.
   269.    239.    255.    292.    279.    283.    236.    289.
   282.    257.    282.    261.    287.    309.    266.    258.
   265.    254.    266.    286.    295.    307.    310.    280.
   289.    283.    293.    320.    271.    317.    277.    301.
   293.    315.    292.    294.    296.    309.    333.    332.
   362.    330.    354.    377.    373.    333.    326.    365.
   369.    348.    349.    374.    368.    404.    378.    379.
   368.    393.    367.    402.    373.    356.    375.    392.
   375.    367.    328.    329.    343.    353.    346.    340.
   322.    329.    322.    316.    308.    331.    321.    308.
   282.    285.    302.    292.    278.    283.    287.    293.
   283.    296.    277.    325.    305.    299.    321.    269.
   296.    295.    288.    292.    289.    277.    270.    288.
   322.    319.    311.    293.    330.    330.    345.    329.
   331.    347.    358.    331.    313.    324.    302.    308.
   315.    298.    305.    298.    289.    302.    305.    296.
   309.    321.    299.    282.    299.    278.    284.    281.
   279.    302.    272.    294.    287.    285.    291.    278.
   302.    301.    276.    281.    308.    289.    312.    292.
   296.    318.    296.    307.    309.    295.    303.    309.
   295.    310.    291.    304.    273.    289.    295.    282.
   296.    291.    295.    288.    288.    299.    281.    313.
   276.    278.    308.    256.    287.    267.    292.    284.
   271.    297.    289.    283.    304.    274.    265.    321.
   272.    279.    282.    275.    304.    278.    280.    292.
   286.    279.    280.    309.    311.    304.    288.    290.
   300.    306.    310.    304.    294.    309.    321.    325.
   316.    321.    338.    365.    328.    346.    318.    316.
   321.    334.    327.    336.    307.    337.    316.    369.
   377.    358.    384.    386.    387.    398.    399.    417.
   423.    423.    468.    447.    443.    477.    481.    451.
   451.    482.    483.    498.    517.    516.    507.    531.
   528.    481.    482.    510.    507.    520.    516.    553.
   476.    470.    464.    456.    444.    473.    422.    428.
   440.    445.    403.    415.    385.    364.    375.    369.
   373.    354.    341.    319.    325.    334.    340.    317.
   328.    309.    311.    324.    343.    303.    283.    307.
   281.    287.    280.    290.    283.    292.    275.    266.
   288.    274.    292.    273.    294.    278.    281.    257.
   288.    271.    249.    305.    285.    289.    257.    254.
   274.    271.    297.    269.    285.    283.    287.    277.
   278.    278.    268.    246.    295.    296.    257.    263.
   275.    274.    297.    295.    301.    317.    311.    301.
   269.    268.    273.    303.    276.    270.    262.    275.
   266.    251.    248.    263.    284.    288.    285.    261.
   265.    247.    264.    277.    288.    241.    267.    285.
   247.    277.    242.    264.    263.    267.    259.    245.
   247.    252.    260.    238.    266.    255.    259.    247.
   272.    239.    249.    246.    258.    276.    260.    273.
   251.    273.    299.    251.    246.    256.    237.    262.
   270.    266.    264.    230.    267.    294.    281.    259.
   293.    261.    233.    287.    302.    305.    291.    261.
   296.    264.    300.    307.    302.    290.    269.    272.
   282.    291.    291.    290.    258.    287.    255.    266.
   282.    276.    295.    280.    258.    279.    262.    277.
   262.    266.    272.    266.    265.    252.    246.    242.
   243.    251.    257.    248.    254.    240.    257.    257.
   245.    265.    251.    255.    236.    241.    230.    267.
   258.    264.    258.    244.    259.    258.    251.    242.
   255.    240.    270.    234.    254.    244.    256.    240.
   264.    247.    262.    259.    261.    280.    240.    264.
   238.    249.    250.    243.    256.    221.    257.    259.
   225.    262.    230.    226.    221.    213.    232.    228.
   232.    243.    246.    229.    245.    227.    233.    235.
   250.    232.    235.    241.    229.    223.    241.    224.
   245.    248.    252.    248.    229.    246.    256.    225.
   236.    239.    247.    246.    251.    231.    251.    260.
   256.    240.    224.    248.    264.    224.    248.    227.
   214.    223.    223.    220.    252.    251.    264.    264.
   239.    274.    249.    272.    261.    257.    253.    265.
   239.    246.    237.    239.    248.    252.    259.    253.
   239.    251.    224.    249.    262.    266.    281.    292.
   261.    248.    230.    263.    270.    256.    240.    259.
   267.    246.    279.    266.    245.    294.    293.    246.
   251.    278.    279.    263.    287.    313.    294.    266.
   315.    348.    337.    291.    313.    336.    312.    359.
   320.    347.    349.    326.    325.    351.    339.    319.
   389.    345.    373.    372.    371.    365.    364.    363.
   374.    344.    360.    383.    379.    366.    331.    350.
   343.    390.    326.    354.    391.    348.    336.    338.
   372.    357.    337.    327.    299.    278.    283.    293.
   307.    318.    265.    272.    278.    285.    266.    299.
   297.    283.    275.    291.    273.    288.    259.    278.
   290.    272.    286.    273.    263.    246.    263.    266.
   264.    228.    239.    241.    269.    280.    257.    243.
   254.    273.    264.    233.    232.    243.    249.    246.
   242.    248.    217.    265.    242.    261.    271.    274.
   246.    270.    264.    269.    265.    308.    258.    296.
   251.    271.    265.    255.    274.    238.    283.    277.
   210.    250.    233.    233.    233.    214.    227.    236.
   229.    231.    219.    242.    242.    244.    213.    259.
   228.    232.    232.    231.    232.    236.    237.    219.
   217.    237.    222.    218.    207.    217.    242.    244.
   238.    219.    241.    243.    242.    249.    233.    225.
   226.    243.    238.    220.    248.    247.    226.    227.
   227.    223.    209.    254.    210.    227.    225.    222.
   224.    230.    264.    228.    239.    226.    232.    242.
   231.    225.    233.    229.    251.    234.    234.    244.
   230.    250.    225.    228.    241.    229.    230.    251.
   248.    198.    240.    230.    219.    231.    208.    230.
   247.    235.    232.    225.    230.    253.    242.    256.
   225.    245.    235.    247.    231.    216.    253.    235.
   261.    266.    241.    248.    237.    253.    238.    257.
   256.    250.    261.    248.    245.    222.    260.    230.
   242.    238.    240.    256.    240.    246.    246.    234.
   252.    240.    239.    235.    240.    236.    246.    238.
   255.    237.    260.    243.    234.    270.    230.    236.
   244.    244.    233.    253.    255.    250.    232.    231.
   219.    233.    235.    243.    228.    227.    234.    224.
   244.    244.    228.    245.    253.    227.    229.    237.
   224.    231.    215.    250.    239.    232.    263.    240.
   257.    239.    256.    234.    251.    249.    237.    258.
   251.    230.    238.    235.    239.    234.    236.    254.
   218.    221.    245.    236.    269.    276.    264.    263.
   232.    240.    261.    244.    227.    240.    243.    261.
   233.    261.    257.    248.    259.    265.    263.    273.
   256.    251.    248.    276.    283.    267.    266.    250.
   273.    273.    304.    264.    282.    262.    240.    320.
   274.    265.    266.    285.    260.    264.    256.    232.
   249.    242.    281.    271.    246.    244.    239.    247.
   255.    255.    238.    260.    259.    263.    234.    252.
   277.    236.    270.    275.    271.    241.    247.    250.
   261.    245.    238.    227.    273.    243.    262.    277.
   249.    257.    259.    230.    248.    264.    257.    237.
   265.    248.    261.    238.    250.    247.    268.    261.
   263.    240.    259.    253.    250.    250.    263.    284.
   272.    245.    271.    245.    252.    244.    259.    259.
   219.    264.    246.    269.    277.    249.    234.    221.
   246.    234.    227.    242.    250.    229.    245.    225.
   221.    248.    222.    283.    239.    232.    276.    239.
   255.    251.    240.    240.    266.    260.    256.    225.
   263.    266.    232.    257.    259.    265.    277.    269.
   267.    283.    318.    324.    319.    368.    335.    358.
   404.    413.    406.    409.    450.    431.    477.    496.
   484.    454.    486.    460.    461.    498.    430.    443.
   402.    442.    383.    416.    376.    367.    371.    353.
   334.    338.    313.    319.    321.    322.    300.    315.
   289.    289.    310.    286.    287.    300.    279.    276.
   262.    297.    274.    264.    273.    259.    251.    222.
   271.    271.    252.    240.    260.    245.    242.    264.
   251.    229.    220.    256.    266.    239.    247.    244.
   243.    226.    234.    231.    231.    233.    248.    253.
   221.    230.    218.    250.    242.    233.    202.    235.
   245.    234.    237.    264.    256.    242.    243.    240.
   217.    238.    247.    244.    230.    244.    258.    255.
   243.    266.    237.    228.    251.    246.    257.    240.
   241.    243.    240.    265.    236.    270.    267.    258.
   241.    256.    257.    260.    257.    241.    239.    241.
   304.    264.    235.    240.    262.    298.    251.    261.
   258.    251.    270.    266.    264.    266.    261.    263.
   318.    299.    280.    283.    288.    265.    290.    307.
   293.    324.    317.    306.    315.    342.    326.    325.
   358.    316.    362.    366.    358.    361.    386.    377.
   420.    402.    417.    380.    435.    424.    409.    433.
   436.    437.    416.    428.    423.    396.    381.    411.
   365.    355.    375.    349.    349.    351.    344.    344.
   311.    318.    316.    320.    315.    304.    283.    295.
   289.    277.    295.    278.    268.    287.    294.    282.
   305.    267.    300.    272.    279.    264.    267.    254.
   279.    255.    264.    265.    255.    266.    271.    271.
   293.    261.    255.    248.    251.    249.    248.    256.
   261.    255.    272.    268.    246.    245.    236.    252.
   284.    245.    235.    272.    262.    262.    257.    252.
   244.    245.    242.    253.    261.    255.    264.    282.
   295.    275.    249.    258.    261.    273.    256.    264.
   259.    258.    281.    269.    281.    307.    267.    280.
   268.    284.    244.    267.    254.    275.    293.    283.
   249.    285.    272.    293.    280.    285.    284.    291.
   291.    284.    296.    305.    289.    283.    303.    280.
   286.    284.    285.    312.    309.    272.    301.    276.
   294.    294.    247.    296.    270.    255.    263.    250.
   282.    248.    262.    272.    273.    275.    250.    238.
   257.    261.    265.    261.    250.    271.    267.    236.
   238.    256.    239.    252.    249.    248.    240.    248.
   246.    248.    242.    234.    245.    250.    256.    245.
   237.    223.    243.    215.    248.    239.    229.    225.
   230.    227.    242.    259.    197.    225.    237.    244.
   235.    266.    215.    236.    230.    229.    219.    226.
   227.    228.    238.    249.    232.    243.    228.    223.
   224.    230.    216.    223.    229.    214.    209.    230.
   223.    255.    249.    231.    219.    242.    229.    236.
   231.    213.    213.    261.    242.    213.    223.    210.
   263.    243.    223.    227.    237.    206.    251.    228.
   238.    241.    235.    250.    239.    257.    234.    237.
   234.    234.    252.    249.    266.    234.    219.    256.
   267.    243.    270.    299.    256.    265.    276.    277.
   271.    285.    263.    298.    241.    300.    281.    300.
   279.    282.    270.    294.    260.    292.    304.    312.
   279.    274.    290.    267.    255.    272.    260.    278.
   280.    260.    266.    252.    250.    268.    255.    264.
   264.    292.    267.    276.    269.    274.    254.    266.
   261.    248.    263.    276.    251.    274.    253.    246.
   260.    245.    245.    257.    253.    258.    295.    262.
   238.    263.    258.    253.    255.    271.    238.    271.
   244.    246.    244.    246.    238.    246.    256.    238.
   288.    252.    271.    286.    294.    284.    272.    269.
   284.    324.    299.    279.    301.    274.    302.    306.
   295.    355.    318.    334.    320.    340.    307.    315.
   294.    321.    294.    307.    313.    289.    275.    298.
   302.    311.    289.    294.    308.    313.    290.    285.
   279.    265.    288.    255.    274.    295.    260.    251.
   269.    289.    279.    253.    256.    296.    248.    260.
   263.    259.    277.    266.    263.    270.    239.    260.
   276.    252.    258.    276.    253.    282.    243.    262.
   248.    287.    266.    275.    261.    285.    277.    229.
   240.    299.    268.    268.    280.    260.    276.    299.
   278.    302.    293.    299.    290.    317.    301.    304.
   297.    298.    297.    305.    308.    315.    322.    324.
   312.    313.    341.    367.    341.    355.    369.    356.
   377.    399.    366.    374.    355.    413.    427.    398.
   429.    405.    402.    426.    375.    414.    405.    401.
   395.    417.    435.    394.    418.    406.    439.    359.
   401.    381.    388.    387.    385.    380.    371.    377.
   377.    329.    301.    333.    350.    336.    351.    331.
   311.    337.    292.    342.    353.    359.    343.    303.
   309.    331.    325.    350.    356.    326.    341.    360.
   352.    328.    337.    337.    368.    342.    332.    332.
   347.    322.    319.    327.    281.    296.    313.    304.
   300.    254.    308.    303.    321.    290.    281.    312.
   281.    292.    285.    288.    281.    293.    295.    324.
   275.    276.    306.    290.    315.    306.    333.    335.
   356.    346.    329.    347.    363.    382.    377.    375.
   360.    337.    354.    361.    343.    334.    329.    334.
   327.    340.    297.    300.    285.    298.    294.    290.
   279.    291.    292.    259.    288.    247.    294.    258.
   258.    250.    240.    276.    279.    249.    255.    241.
   256.    264.    223.    236.    250.    256.    237.    237.
   226.    252.    208.    241.    228.    260.    221.    229.
   219.    240.    267.    221.    231.    232.    233.    241.
   258.    242.    235.    234.    227.    236.    212.    235.
   228.    218.    233.    239.    217.    241.    224.    248.
   236.    233.    228.    246.    207.    235.    223.    230.
   238.    231.    213.    216.    222.    221.    232.    248.
   242.    214.    241.    225.    232.    219.    207.    209.
   238.    219.    235.    227.    206.    229.    234.    224.
   222.    212.    221.    207.    220.    221.    245.    221.
   226.    232.    231.    231.    217.    222.    217.    222.
   235.    214.    221.    227.    229.    226.    234.    214.
   235.    193.    232.    242.    234.    236.    229.    221.
   239.    228.    233.    230.    217.    227.    209.    228.
   251.    221.    247.    234.    252.    229.    216.    239.
   237.    228.    245.    232.    240.    227.    240.    248.
   247.    244.    248.    267.    260.    241.    242.    238.
   238.    231.    251.    243.    251.    248.    251.    229.
   228.    259.    246.    241.    228.    223.    232.    236.
   262.    221.    235.    252.    227.    249.    241.    267.
   228.    242.    257.    243.    250.    250.    247.    241.
   232.    248.    224.    254.    253.    204.    236.    256.
   267.    253.    255.    269.    242.    232.    260.    281.
   258.    288.    285.    281.    276.    263.    267.    287.
   263.    270.    271.    276.    283.    284.    311.    306.
   323.    304.    322.    333.    344.    321.    340.    338.
   352.    343.    360.    367.    391.    394.    369.    359.
   410.    381.    392.    405.    386.    417.    405.    395.
   421.    418.    417.    420.    402.    463.    387.    408.
   454.    415.    473.    405.    424.    428.    416.    419.
   389.    360.    356.    352.    332.    335.    324.    328.
   331.    308.    320.    296.    299.    304.    287.    288.
   301.    287.    281.    253.    290.    275.    269.    264.
   273.    249.    256.    286.    254.    258.    236.    244.
   245.    249.    221.    232.    268.    241.    244.    215.
   239.    234.    229.    255.    239.    224.    234.    230.
   228.    238.    250.    230.    212.    226.    248.    229.
   239.    212.    219.    235.    221.    231.    224.    232.
   203.    234.    265.    237.    225.    236.    258.    239.
   201.    232.    241.    226.    229.    252.    226.    243.
   223.    214.    228.    230.    243.    226.    231.    270.
   235.    222.    220.    225.    236.    237.    217.    239.
   251.    236.    247.    227.    221.    220.    231.    227.
   261.    277.    216.    252.    225.    253.    242.    235.
   257.    220.    252.    238.    233.    231.    252.    224.
   261.    248.    258.    242.    235.    281.    288.    258.
   265.    269.    265.    264.    275.    313.    288.    271.
   273.    266.    253.    258.    294.    301.    240.    278.
   302.    270.    285.    258.    277.    260.    279.    271.
   282.    279.    261.    274.    251.    257.    322.    285.
   249.    269.    280.    285.    270.    241.    272.    255.
   258.    264.    259.    259.    249.    262.    235.    260.
   247.    234.    218.    229.    262.    234.    240.    268.
   232.    227.    238.    233.    231.    234.    237.    233.
   261.    205.    227.    221.    242.    213.    250.    237.
   219.    203.    233.    231.    223.    229.    229.    236.
   250.    232.    210.    226.    249.    222.    222.    233.
   221.    232.    234.    233.    224.    231.    215.    242.
   238.    245.    228.    215.    240.    206.    218.    231.
   248.    213.    227.    219.    217.    228.    226.    233.
   213.    231.    202.    222.    206.    202.    247.    218.
   246.    235.    201.    234.    215.    220.    230.    215.
   253.    234.    251.    243.    223.    222.    205.    224.
   226.    224.    218.    225.    215.    222.    208.    248.
   223.    238.    224.    220.    198.    217.    208.    231.
   221.    211.    240.    203.    217.    236.    225.    224.
   233.    226.    232.    229.    228.    233.    234.    214.
   221.    241.    217.    234.    242.    220.    249.    222.
   232.    261.    234.    229.    247.    245.    243.    222.
   243.    262.    261.    259.    250.    256.    253.    285.
   250.    253.    255.    263.    293.    270.    257.    255.
   250.    256.    268.    290.    281.    292.    289.    295.
   301.    305.    290.    316.    334.    307.    322.    312.
   329.    342.    346.    364.    325.    350.    388.    401.
   392.    388.    395.    429.    421.    461.    425.    454.
   479.    484.    512.    509.    506.    514.    490.    520.
   526.    498.    497.    466.    463.    477.    450.    436.
   436.    419.    433.    407.    369.    394.    397.    371.
   386.    350.    380.    366.    331.    345.    328.    357.
   349.    346.    356.    324.    366.    382.    335.    346.
   318.    363.    349.    324.    317.    328.    332.    340.
   354.    340.    343.    329.    359.    348.    342.    343.
   334.    323.    313.    326.    314.    323.    336.    317.
   305.    299.    286.    289.    277.    283.    325.    274.
   266.    255.    271.    302.    301.    278.    249.    259.
   279.    262.    249.    255.    271.    254.    237.    261.
   261.    240.    268.    252.    246.    252.    255.    290.
   251.    253.    285.    259.    257.    299.    259.    281.
   283.    286.    272.    259.    285.    273.    252.    267.
   244.    266.    242.    265.    255.    268.    225.    242.
   240.    259.    255.    247.    236.    225.    240.    231.
   256.    245.    240.    220.    231.    226.    214.    231.
   228.    222.    219.    251.    213.    244.    220.    217.
   217.    258.    220.    267.    245.    235.    220.    232.
   213.    228.    209.    238.    230.    244.    209.    221.
   228.    235.    249.    245.    242.    222.    204.    237.
   245.    220.    253.    254.    247.    212.    228.    235.
   289.    258.    234.    220.    243.    236.    260.    251.
   253.    227.    252.    254.    255.    264.    240.    261.
   281.    286.    273.    301.    279.    324.    283.    262.
   288.    289.    300.    275.    279.    283.    285.    286.
   279.    275.    268.    260.    263.    259.    254.    251.
   277.    258.    264.    267.    273.    259.    264.    233.
   254.    243.    249.    252.    274.    254.    277.    253.
   273.    246.    277.    283.    265.    283.    264.    271.
   269.    278.    292.    248.    267.    270.    284.    275.
   271.    283.    285.    281.    299.    295.    304.    285.
   321.    308.    313.    326.    328.    315.    297.    311.
   310.    326.    325.    321.    317.    295.    311.    308.
   308.    313.    304.    297.    285.    302.    299.    328.
   339.    283.    279.    309.    282.    291.    288.    283.
   282.    280.    279.    274.    277.    297.    264.    307.
   277.    270.    282.    282.    283.    274.    271.    271.
   261.    282.    273.    272.    244.    249.    255.    234.
   242.    273.    232.    237.    262.    258.    259.    245.
   240.    235.    231.    212.    236.    265.    245.    231.
   264.    251.    255.    237.    228.    262.    224.    252.
   240.    238.    252.    242.    268.    270.    268.    262.
   252.    292.    267.    289.    282.    259.    275.    308.
   333.    335.    342.    334.    316.    272.    324.    303.
   301.    271.    266.    238.    279.    240.    256.    283.
   241.    241.    245.    253.    236.    215.    213.    237.
   223.    227.    229.    210.    192.    197.    202.    210.
   238.    211.    205.    191.    229.    268.    222.    220.
   211.    194.    228.    230.    210.    255.    221.    205.
   208.    221.    200.    228.    202.    231.    239.    192.
   210.    212.    228.    214.    206.    214.    197.    194.
   203.    190.    213.    227.    217.    226.    207.    193.
   241.    219.    200.    201.    222.    223.    199.    224.
   228.    224.    248.    206.    197.    223.    207.    217.
   212.    217.    218.    219.    221.    210.    226.    228.
   231.    215.    249.    212.    223.    193.    215.    221.
   221.    210.    198.    225.    234.    218.    219.    224.
   236.    220.    223.    224.    207.    216.    235.    221.
   214.    213.    222.    188.    232.    220.    212.    212.
   228.    220.    204.    227.    243.    213.    219.    218.
   210.    216.    233.    225.    230.    218.    208.    216.
   232.    215.    223.    245.    229.    217.    215.    237.
   216.    220.    201.    244.    222.    211.    221.    237.
   261.    253.    220.    213.    220.    211.    218.    216.
   251.    214.    226.    247.    259.    237.    249.    244.
   256.    231.    260.    250.    257.    235.    234.    242.
   236.    260.    276.    241.    254.    245.    227.    273.
   259.    244.    247.    265.    244.    261.    257.    245.
   253.    238.    242.    234.    266.    231.    250.    243.
   218.    237.    257.    213.    227.    243.    210.    236.
   223.    247.    232.    249.    226.    237.    244.    235.
   234.    214.    260.    237.    229.    250.    224.    234.
   248.    233.    217.    232.    241.    245.    236.    229.
   246.    235.    229.    255.    228.    247.    252.    223.
   237.    248.    245.    243.    253.    252.    248.    251.
   259.    260.    257.    265.    261.    265.    247.    255.
   242.    246.    252.    253.    239.    242.    251.    216.
   224.    210.    245.    245.    208.    251.    239.    258.
   257.    235.    248.    238.    240.    230.    234.    239.
   259.    242.    234.    218.    234.    249.    223.    224.
   273.    216.    242.    244.    246.    239.    233.    236.
   239.    262.    268.    272.    242.    288.    221.    247.
   247.    261.    273.    275.    265.    244.    288.    266.
   258.    255.    259.    247.    253.    279.    243.    222.
   240.    227.    259.    236.    256.    240.    254.    229.
   243.    236.    237.    231.    241.    271.    233.    253.
   230.    249.    240.    205.    247.    225.    202.    235.
   238.    226.    198.    204.    229.    241.    227.    214.
   205.    226.    201.    208.    204.    191.    233.    217.
   224.    210.    227.    207.    230.    209.    204.    217.
   225.    217.    226.    223.    215.    203.    214.    188.
   197.    221.    227.    215.    244.    192.    229.    227.
   235.    223.    212.    198.    198.    211.    195.    205.
   214.    222.    231.    204.    197.    236.    214.    227.
   229.    209.    212.    221.    241.    206.    239.    210.
   232.    199.    222.    215.    227.    213.    208.    216.
   215.    246.    242.    232.    239.    254.    235.    212.
   215.    231.    216.    199.    190.    223.    213.    222.
   188.    213.    224.    203.    192.    223.    204.    208.
   198.    235.    240.    239.    209.    217.    200.    186.
   218.    196.    230.    212.    223.    212.    222.    225.
   202.    223.    221.    225.    187.    233.    224.    219.
   214.    217.    232.    212.    242.    208.    206.    220.
   215.    214.    206.    216.    228.    235.    223.    214.
   219.    216.    223.    208.    220.    214.    223.    237.
   225.    207.    199.    218.    220.    192.    212.    205.
   209.    195.    212.    215.    215.    209.    222.    237.
   229.    231.    208.    219.    209.    213.    227.    200.
   228.    220.    231.    219.    223.    213.    210.    213.
   187.    225.    216.    218.    249.    204.    233.    214.
   227.    238.    234.    225.    217.    227.    259.    217.
   229.    237.    231.    225.    231.    223.    208.    198.
   196.    252.    214.    222.    212.    237.    233.    221.
   214.    206.    201.    198.    220.    228.    227.    237.
   219.    242.    214.    242.    222.    219.    227.    226.
   212.    236.    249.    228.    238.    249.    230.    257.
   233.    271.    259.    231.    242.    275.    229.    241.
   245.    240.    230.    259.    253.    262.    244.    253.
   261.    236.    273.    240.    274.    274.    261.    272.
   262.    279.    283.    256.    298.    286.    289.    271.
   264.    262.    269.    265.    284.    273.    269.    274.
   291.    287.    292.    269.    272.    269.    281.    270.
   265.    272.    246.    257.    244.    267.    244.    243.
   267.    258.    264.    261.    262.    234.    269.    262.
   274.    258.    241.    263.    245.    242.    257.    235.
   252.    235.    252.    238.    224.    232.    247.    248.
   259.    253.    236.    260.    226.    237.    239.    232.
   235.    257.    222.    237.    242.    243.    242.    217.
   246.    242.    251.    240.    208.    218.    216.    220.
   214.    235.    214.    237.    232.    217.    228.    226.
   222.    223.    253.    216.    217.    228.    233.    245.
   236.    230.    246.    246.    221.    250.    266.    202.
   240.    231.    221.    238.    260.    220.    235.    254.
   256.    246.    224.    247.    252.    279.    257.    232.
   238.    268.    239.    221.    259.    253.    251.    253.
   261.    229.    259.    248.    225.    268.    248.    225.
   250.    245.    262.    263.    251.    260.    237.    247.
   259.    258.    246.    234.    269.    259.    257.    247.
   249.    250.    263.    250.    286.    248.    251.    229.
   243.    267.    263.    218.    234.    238.    245.    228.
   247.    225.    256.    254.    236.    217.    217.    252.
   245.    224.    236.    246.    245.    224.    228.    224.
   229.    235.    255.    241.    227.    238.    239.    255.
   233.    247.    248.    207.    229.    249.    231.    269.
   241.    218.    232.    242.    233.    241.    233.    245.
   235.    234.    240.    238.    224.    237.    250.    235.
   257.    256.    265.    257.    255.    256.    281.    272.
   291.    300.    260.    308.    287.    267.    292.    322.
   325.    295.    317.    288.    304.    320.    294.    284.
   322.    299.    269.    269.    273.    304.    271.    267.
   277.    243.    262.    268.    265.    284.    269.    280.
   262.    286.    260.    280.    265.    226.    245.    242.
   213.    256.    248.    238.    248.    247.    248.    261.
   234.    232.    229.    233.    204.    282.    261.    263.
   229.    216.    239.    238.    238.    262.    239.    248.
   256.    250.    212.    244.    269.    263.    230.    249.
   253.    247.    259.    233.    222.    265.    239.    254.
   283.    240.    248.    248.    270.    232.    244.    237.
   234.    222.    231.    248.    249.    246.    266.    257.
   269.    247.    260.    236.    248.    239.    203.    267.
   246.    271.    251.    240.    250.    248.    239.    238.
   265.    261.    246.    279.    259.    239.    224.    238.
   250.    259.    280.    232.    252.    251.    290.    258.
   255.    249.    255.    268.    263.    254.    248.    248.
   255.    242.    251.    235.    253.    262.    219.    238.
   247.    280.    232.    241.    234.    252.    221.    229.
   262.    223.    254.    258.    249.    245.    253.    228.
   245.    247.    248.    247.    232.    256.    269.    219.
   238.    277.    258.    271.    260.    273.    285.    272.
   280.    292.    305.    322.    313.    307.    318.    304.
   312.    349.    328.    339.    374.    378.    331.    355.
   364.    355.    381.    373.    385.    391.    355.    358.
   403.    315.    338.    368.    344.    319.    348.    333.
   320.    319.    322.    315.    297.    312.    294.    322.
   276.    290.    265.    311.    282.    299.    301.    249.
   287.    284.    249.    244.    285.    271.    268.    257.
   261.    263.    246.    257.    262.    261.    242.    240.
   226.    234.    242.    222.    216.    231.    221.    221.
   238.    244.    262.    237.    224.    234.    222.    250.
   257.    230.    241.    230.    235.    239.    259.    237.
   227.    249.    242.    240.    237.    227.    241.    266.
   253.    262.    266.    254.    271.    261.    250.    259.
   252.    280.    245.    235.    227.    256.    256.    241.
   231.    243.    257.    227.    215.    211.    235.    231.
   224.    249.    237.    243.    263.    215.    224.    239.
   248.    250.    240.    243.    234.    247.    225.    205.
   225.    229.    227.    240.    239.    238.    249.    247.
   267.    243.    247.    234.    234.    259.    227.    242.
   279.    250.    268.    260.    268.    236.    241.    218.
   274.    229.    255.    236.    259.    260.    242.    245.
   239.    235.    243.    220.    247.    256.    270.    244.
   263.    242.    233.    253.    228.    213.    252.    277.
   251.    253.    244.    246.    250.    244.    238.    243.
   262.    243.    259.    267.    269.    257.    244.    268.
   245.    264.    286.    251.    281.    248.    275.    280.
   297.    282.    293.    264.    307.    263.    279.    290.
   276.    274.    270.    285.    296.    297.    299.    300.
   294.    281.    269.    287.    280.    267.    259.    261.
   276.    254.    241.    267.    267.    261.    272.    282.
   262.    245.    251.    248.    272.    239.    242.    259.
   269.    234.    260.    238.    274.    224.    259.    252.
   244.    267.    239.    256.    232.    234.    218.    222.
   275.    259.    224.    258.    254.    248.    239.    231.
   262.    247.    245.    246.    261.    234.    267.    230.
   232.    254.    259.    241.    265.    269.    246.    247.
   243.    225.    232.    230.    229.    239.    230.    225.
   250.    233.    236.    247.    209.    242.    241.    248.
   228.    243.    224.    236.    216.    222.    265.    235.
   252.    264.    250.    242.    225.    234.    238.    229.
   226.    219.    209.    213.    222.    223.    223.    222.
   245.    215.    233.    263.    214.    247.    243.    230.
   222.    228.    252.    244.    262.    232.    245.    244.
   218.    239.    235.    244.    232.    244.    245.    269.
   254.    240.    232.    253.    252.    253.    254.    239.
   242.    216.    249.    244.    247.    240.    266.    262.
   246.    243.    246.    252.    244.    256.    257.    263.
   287.    236.    237.    270.    252.    255.    269.    257.
   270.    252.    260.    267.    244.    259.    234.    262.
   241.    266.    306.    270.    262.    255.    295.    264.
   280.    282.    263.    280.    298.    273.    285.    277.
   268.    251.    280.    293.    294.    266.    286.    292.
   280.    273.    261.    296.    296.    258.    256.    266.
   253.    237.    275.    244.    255.    254.    272.    248.
   263.    279.    258.    241.    269.    255.    257.    239.
   262.    276.    249.    264.    255.    258.    250.    253.
   283.    255.    266.    245.    279.    255.    252.    264.
   276.    250.    242.    271.    244.    235.    257.    268.
   296.    289.    270.    290.    285.    304.    295.    313.
   289.    305.    301.    337.    347.    305.    330.    352.
   346.    367.    357.    359.    344.    359.    354.    381.
   383.    360.    355.    344.    330.    341.    349.    321.
   361.    344.    347.    334.    337.    336.    356.    342.
   324.    312.    298.    313.    313.    313.    343.    329.
   315.    301.    295.    330.    288.    302.    313.    288.
   276.    278.    290.    311.    320.    288.    330.    297.
   285.    290.    321.    323.    303.    301.    279.    282.
   314.    307.    326.    302.    315.    309.    297.    330.
   338.    339.    315.    336.    322.    307.    324.    313.
   340.    359.    337.    360.    346.    361.    378.    338.
   392.    335.    346.    399.    383.    368.    365.    384.
   419.    432.    411.    433.    453.    426.    449.    416.
   406.    398.    423.    383.    367.    364.    350.    373.
   392.    363.    379.    372.    334.    334.    375.    322.
   367.    322.    353.    341.    352.    345.    325.    321.
   298.    307.    311.    353.    346.    352.    361.    356.
   333.    331.    330.    359.    335.    367.    376.    348.
   324.    329.    306.    313.    348.    331.    338.    324.
   353.    291.    317.    295.    267.    295.    329.    299.
   281.    277.    267.    295.    282.    293.    266.    254.
   279.    291.    267.    294.    243.    268.    252.    278.
   247.    265.    267.    250.    246.    249.    244.    251.
   270.    259.    269.    244.    239.    236.    238.    231.
   260.    253.    231.    234.    237.    248.    236.    266.
   226.    215.    224.    242.    262.    222.    264.    252.
   235.    245.    241.    222.    220.    227.    245.    224.
   224.    230.    226.    241.    243.    242.    249.    226.
   229.    242.    217.    242.    240.    235.    231.    223.
   221.    228.    237.    227.    242.    215.    221.    216.
   229.    247.    226.    228.    219.    245.    224.    224.
   234.    215.    209.    192.    238.    217.    230.    240.
   218.    206.    232.    216.    221.    223.    225.    191.
   225.    234.    232.    199.    236.    232.    230.    246.
   241.    224.    231.    212.    216.    214.    196.    213.
   206.    214.    238.    219.    231.    222.    222.    235.
   226.    221.    221.    215.    212.    255.    243.    221.
   242.    250.    218.    213.    224.    257.    238.    209.
   218.    236.    226.    228.    216.    230.    226.    216.
   222.    239.    225.    232.    236.    235.    223.    226.
   246.    244.    226.    230.    227.    247.    243.    234.
   239.    215.    243.    210.    225.    224.    210.    205.
   241.    208.    228.    218.    255.    235.    253.    222.
   223.    234.    226.    243.    243.    221.    222.    246.
   215.    243.    237.    230.    222.    259.    260.    239.
   234.    253.    243.    276.    263.    257.    230.    257.
   280.    239.    244.    257.    245.    244.    263.    255.
   272.    284.    253.    246.    268.    278.    260.    267.
   264.    274.    278.    281.    295.    276.    272.    257.
   275.    275.    268.    291.    292.    272.    310.    296.
   317.    313.    320.    308.    323.    322.    310.    341.
   324.    332.    305.    348.    352.    354.    329.    315.
   343.    346.    337.    337.    342.    357.    357.    336.
   330.    362.    384.    363.    351.    389.    344.    349.
   341.    361.    363.    359.    386.    323.    352.    325.
   349.    342.    324.    355.    336.    314.    345.    318.
   306.    324.    314.    273.    323.    285.    326.    350.
   305.    267.    327.    281.    306.    307.    262.    284.
   289.    283.    286.    276.    313.    271.    304.    297.
   272.    263.    262.    273.    289.    254.    282.    285.
   257.    280.    243.    261.    246.    271.    270.    260.
   253.    237.    239.    261.    256.    272.    253.    261.
   247.    270.    223.    258.    254.    242.    253.    252.
   262.    253.    219.    244.    216.    217.    250.    265.
   248.    249.    241.    247.    263.    278.    278.    261.
   230.    244.    211.    229.    264.    228.    264.    218.
   222.    247.    221.    233.    230.    242.    231.    271.
   243.    254.    263.    239.    229.    232.    230.    245.
   251.    242.    242.    238.    230.    218.    214.    231.
   255.    244.    238.    222.    212.    234.    242.    202.
   226.    220.    255.    217.    230.    229.    214.    213.
   220.    204.    233.    231.    223.    236.    255.    203.
   249.    210.    234.    213.    230.    253.    221.    228.
   217.    230.    218.    221.    224.    242.    236.    236.
   219.    208.    215.    210.    209.    225.    218.    193.
   214.    202.    227.    231.    244.    224.    233.    229.
   233.    212.    242.    233.    238.    246.    261.    229.
   237.    213.    235.    223.    231.    239.    243.    227.
   246.    273.    260.    233.    276.    253.    256.    251.
   250.    234.    228.    265.    233.    255.    262.    253.
   261.    252.    263.    271.    252.    255.    235.    279.
   266.    278.    254.    269.    238.    240.    260.    250.
   237.    251.    270.    261.    257.    239.    239.    237.
   254.    219.    225.    251.    194.    260.    231.    240.
   226.    240.    244.    235.    251.    235.    243.    249.
   251.    219.    245.    237.    249.    261.    240.    209.
   216.    250.    222.    234.    239.    229.    227.    210.
   218.    253.    238.    230.    222.    225.    245.    241.
   223.    233.    242.    239.    232.    247.    216.    216.
   232.    230.    227.    245.    236.    215.    211.    229.
   248.    246.    202.    205.    245.    201.    243.    231.
   212.    227.    225.    211.    240.    207.    213.    206.
   200.    208.    249.    223.    234.    210.    222.    205.
   209.    224.    196.    208.    215.    229.    211.    220.
   219.    203.    212.    210.    230.    225.    217.    221.
   213.    224.    220.    203.    213.    249.    196.    227.
   209.    234.    207.    221.    219.    217.    199.    195.
   208.    185.    208.    210.    222.    235.    206.    181.
   197.    211.    213.    192.    214.    215.    210.    201.
   193.    232.    211.    221.    218.    228.    203.    216.
   231.    248.    197.    189.    202.    220.    206.    239.
   217.    211.    226.    218.    217.    208.    211.    206.
   203.    215.    223.    208.    179.    216.    212.    231.
   204.    218.    189.    221.    218.    229.    217.    221.
   220.    208.    192.    220.    201.    219.    187.    205.
   192.    219.    219.    250.    203.    226.    208.    220.
   215.    204.    189.    211.    234.    224.    198.    210.
   217.    216.    195.    211.    230.    210.    219.    198.
   217.    203.    238.    205.    212.    225.    214.    242.
   224.    206.    224.    209.    201.    213.    202.    228.
   225.    204.    210.    208.    213.    204.    203.    223.
   206.    214.    205.    215.    210.    244.    233.    195.
   209.    238.    197.    197.    205.    205.    221.    218.
   243.    211.    221.    201.    229.    233.    213.    195.
   185.    206.    210.    243.    198.    217.    213.    204.
   201.    200.    226.    223.    215.    232.    228.    233.
   225.    239.    209.    209.    255.    223.    213.    226.
   243.    246.    233.    250.    265.    242.    239.    240.
   245.    231.    230.    259.    239.    285.    246.    239.
   238.    227.    245.    260.    250.    267.    246.    267.
   247.    230.    251.    249.    282.    254.    258.    250.
   270.    256.    236.    241.    251.    260.    244.    235.
   245.    237.    220.    229.    235.    230.    232.    243.
   229.    226.    250.    226.    235.    215.    217.    218.
   226.    236.    252.    249.    229.    225.    228.    233.
   209.    208.    195.    206.    223.    210.    237.    194.
   234.    212.    210.    231.    232.    226.    217.    221.
   221.    223.    233.    228.    217.    222.    209.    242.
   228.    252.    245.    234.    216.    235.    216.    207.
   220.    245.    229.    215.    194.    234.    237.    224.
   217.    211.    226.    236.    217.    203.    200.    211.
   206.    199.    226.    241.    238.    243.    229.    195.
   226.    206.    208.    219.    209.    204.    195.    220.
   229.    219.    224.    222.    220.    215.    200.    194.
   205.    202.    201.    217.    214.    192.    196.    215.
   227.    195.    237.    228.    204.    213.    212.    224.
   200.    210.    205.    192.    214.    206.    202.    217.
   210.    232.    225.    223.    206.    238.    220.    184.
   191.    211.    220.    202.    212.    208.    220.    217.
   219.    218.    199.    211.    215.    217.    212.    213.
   184.    202.    221.    203.    191.    206.    231.    217.
   212.    220.    238.    208.    222.    208.    215.    213.
   207.    195.    234.    203.    214.    233.    212.    218.
   232.    218.    210.    227.    225.    216.    230.    215.
   216.    226.    225.    212.    216.    217.    223.    208.
   227.    215.    199.    211.    218.    235.    216.    221.
   217.    220.    231.    216.    247.    226.    228.    217.
   235.    239.    215.    268.    254.    263.    257.    271.
   267.    261.    257.    241.    252.    246.    213.    260.
   266.    261.    252.    271.    244.    250.    251.    227.
   274.    245.    231.    242.    228.    227.    243.    237.
   234.    244.    259.    231.    225.    229.    250.    249.
   245.    234.    217.    227.    213.    230.    243.    215.
   243.    244.    230.    223.    244.    237.    222.    259.
   267.    233.    237.    220.    248.    250.    212.    218.
   205.    229.    259.    228.    240.    229.    223.    232.
   227.    258.    242.    241.    237.    227.    280.    250.
   227.    244.    271.    260.    258.    237.    252.    244.
   238.    257.    269.    264.    279.    252.    290.    272.
   269.    270.    280.    276.    280.    269.    296.    283.
   260.    260.    263.    268.    261.    255.    240.    265.
   261.    254.    263.    257.    255.    250.    287.    279.
   243.    261.    259.    257.    242.    275.    256.    245.
   260.    228.    226.    265.    266.    249.    250.    254.
   237.    228.    225.    254.    260.    265.    247.    283.
   274.    253.    248.    280.    261.    297.    249.    275.
   280.    267.    272.    252.    264.    298.    280.    292.
   259.    272.    285.    302.    285.    296.    296.    294.
   287.    310.    271.    292.    279.    303.    294.    281.
   302.    265.    288.    273.    306.    299.    282.    253.
   275.    264.    277.    291.    282.    276.    265.    260.
   291.    271.    284.    261.    276.    252.    273.    278.
   254.    256.    244.    264.    223.    235.    235.    275.
   267.    236.    249.    249.    225.    225.    225.    235.
   223.    240.    279.    231.    221.    228.    227.    227.
   222.    243.    224.    239.    256.    217.    234.    240.
   204.    216.    213.    209.    248.    243.    226.    215.
   191.    220.    227.    233.    227.    234.    225.    192.
   229.    220.    211.    205.    204.    231.    244.    222.
   224.    255.    215.    225.    213.    234.    204.    217.
   222.    231.    217.    202.    208.    234.    236.    218.
   223.    228.    239.    226.    194.    206.    197.    209.
   233.    213.    227.    215.    217.    209.    229.    202.
   215.    218.    230.    203.    193.    233.    215.    205.
   201.    216.    229.    221.    211.    207.    216.    243.
   223.    202.    231.    199.    196.    242.    228.    221.
   209.    217.    212.    219.    215.    215.    221.    216.
   196.    215.    203.    239.    226.    222.    220.    209.
   188.    214.    220.    234.    207.    212.    242.    207.
   209.    216.    227.    180.    207.    225.    228.    199.
   192.    223.    241.    219.    222.    216.    214.    229.
   202.    201.    208.    208.    209.    220.    222.    203.
   213.    205.    197.    232.    203.    231.    231.    195.
   241.    244.    230.    243.    203.    221.    216.    223.
   219.    214.    225.    203.    223.    214.    244.    219.
   227.    228.    205.    213.    242.    244.    229.    199.
   217.    232.    223.    237.    204.    235.    211.    224.
   240.    223.    208.    209.    226.    213.    216.    234.
   218.    209.    234.    216.    236.    225.    225.    188.
   215.    207.    230.    216.    239.    211.    238.    217.
   222.    243.    230.    232.    240.    219.    220.    244.
   241.    220.    223.    225.    253.    236.    242.    215.
   250.    237.    241.    238.    245.    250.    247.    253.
   236.    201.    232.    235.    249.    259.    223.    243.
   247.    239.    264.    228.    249.    236.    251.    229.
   245.    252.    257.    261.    260.    258.    246.    256.
   258.    275.    253.    273.    248.    242.    282.    273.
   266.    278.    295.    267.    272.    281.    254.    284.
   289.    287.    281.    283.    280.    286.    292.    308.
   276.    284.    280.    276.    287.    299.    289.    271.
   289.    273.    300.    262.    274.    258.    288.    291.
   266.    265.    279.    280.    298.    271.    272.    267.
   268.    244.    293.    283.    245.    286.    269.    261.
   248.    267.    273.    268.    257.    256.    246.    255.
   236.    245.    239.    263.    234.    233.    258.    236.
   243.    273.    234.    240.    250.    272.    229.    233.
   239.    266.    232.    255.    230.    230.    228.    240.
   232.    243.    249.    223.    204.    233.    230.    239.
   245.    232.    239.    267.    229.    237.    236.    232.
   233.    245.    241.    186.    223.    255.    239.    251.
   242.    250.    240.    216.    232.    215.    217.    243.
   247.    226.    250.    229.    236.    248.    231.    233.
   212.    222.    261.    225.    233.    233.    246.    206.
   222.    230.    224.    226.    232.    229.    227.    232.
   214.    230.    214.    214.    224.    249.    228.    249.
   218.    221.    246.    246.    250.    229.    227.    233.
   230.    269.    246.    231.    219.    232.    231.    229.
   239.    215.    247.    243.    258.    211.    229.    228.
   233.    232.    216.    233.    223.    237.    240.    231.
   232.    252.    224.    238.    243.    224.    243.    250.
   244.    248.    215.    244.    248.    235.    264.    240.
   238.    265.    234.    263.    237.    261.    271.    262.
   257.    265.    273.    292.    275.    273.    278.    303.
   277.    317.    304.    312.    288.    279.    302.    314.
   304.    332.    321.    320.    299.    299.    331.    325.
   333.    321.    340.    299.    315.    327.    312.    298.
   319.    324.    299.    325.    310.    331.    343.    302.
   330.    309.    315.    312.    279.    298.    289.    308.
   289.    286.    286.    299.    309.    274.    267.    278.
   294.    275.    299.    255.    252.    260.    301.    254.
   286.    256.    238.    246.    260.    263.    252.    263.
   253.    269.    250.    244.    238.    236.    259.    268.
   253.    266.    261.    252.    269.    243.    236.    269.
   234.    242.    246.    247.    254.    264.    234.    240.
   248.    248.    247.    254.    252.    250.    264.    247.
   261.    235.    259.    247.    234.    257.    274.    255.
   249.    250.    271.    218.    233.    265.    270.    245.
   250.    235.    239.    254.    248.    242.    245.    210.
   246.    281.    250.    242.    253.    219.    239.    257.
   264.    253.    245.    249.    223.    238.    244.    219.
   221.    220.    221.    243.    229.    231.    218.    242.
   213.    226.    222.    203.    222.    229.    237.    276.
   220.    223.    202.    245.    243.    210.    232.    232.
   212.    211.    224.    216.    223.    212.    219.    233.
   206.    233.    253.    234.    208.    210.    198.    224.
   223.    235.    232.    223.    203.    219.    210.    212.
   219.    233.    211.    219.    238.    195.    196.    203.
   219.    240.    238.    236.    226.    221.    209.    221.
   206.    214.    214.    209.    188.    228.    205.    209.
   215.    227.    214.    218.    221.    218.    230.    229.
   189.    217.    215.    206.    232.    212.    207.    225.
   218.    210.    207.    211.    212.    228.    210.    198.
   213.    217.    203.    226.    220.    230.    216.    224.
   238.    248.    224.    229.    220.    230.    211.    219.
   233.    241.    230.    233.    219.    244.    233.    219.
   230.    231.    229.    221.    246.    215.    228.    216.
   214.    255.    235.    229.    227.    226.    241.    221.
   223.    234.    246.    233.    209.    243.    232.    255.
   215.    200.    235.    248.    243.    259.    239.    220.
   243.    209.    219.    240.    236.    246.    239.    249.
   228.    245.    242.    240.    258.    262.    265.    225.
   259.    256.    251.    252.    277.    298.    265.    249.
   268.    294.    287.    290.    285.    284.    275.    275.
   261.    289.    250.    252.    250.    281.    257.    264.
   262.    257.    257.    241.    241.    254.    253.    261.
   245.    277.    246.    256.    274.    268.    261.    265.
   264.    264.    248.    248.    276.    248.    235.    238.
   246.    259.    251.    237.    247.    224.    261.    237.
   242.    241.    266.    271.    254.    236.    258.    239.
   265.    259.    261.    249.    229.    253.    277.    232.
   238.    250.    239.    202.    274.    269.    252.    221.
   232.    256.    256.    261.    251.    267.    248.    230.
   236.    229.    223.    251.    231.    234.    237.    244.
   241.    242.    210.    215.    226.    264.    241.    252.
   239.    252.    249.    243.    241.    227.    244.    228.
   241.    256.    225.    252.    258.    243.    232.    233.
   233.    245.    240.    248.    264.    256.    216.    251.
   244.    245.    234.    233.    220.    206.    242.    251.
   251.    263.    235.    262.    238.    250.    239.    220.
   236.    232.    227.    228.    227.    234.    243.    204.
   221.    238.    226.    213.    253.    227.    199.    242.
   208.    224.    229.    204.    218.    203.    224.    227.
   195.    231.    232.    220.    211.    210.    196.    236.
   232.    215.    233.    219.    217.    222.    219.    198.
   254.    222.    214.    234.    225.    204.    213.    224.
   209.    220.    192.    228.    198.    214.    220.    236.
   196.    209.    212.    210.    239.    246.    221.    245.
   206.    236.    225.    212.    217.    201.    226.    220.
   235.    234.    229.    233.    236.    253.    223.    234.
   229.    227.    243.    250.    236.    221.    221.    236.
   226.    232.    238.    236.    244.    234.    260.    237.
   233.    261.    227.    247.    241.    218.    222.    220.
   252.    229.    222.    221.    245.    234.    228.    212.
   210.    212.    254.    229.    217.    228.    205.    198.
   239.    228.    251.    240.    222.    238.    232.    225.
   216.    221.    226.    208.    211.    219.    220.    216.
   223.    225.    216.    218.    212.    221.    226.    223.
   214.    219.    226.    208.    216.    220.    208.    221.
   208.    216.    201.    223.    213.    218.    220.    214.
   210.    225.    215.    244.    198.    247.    208.    220.
   235.    227.    203.    245.    220.    224.    226.    210.
   232.    207.    225.    224.    227.    216.    212.    222.
   219.    242.    227.    227.    202.    247.    226.    220.
   216.    190.    237.    233.    225.    218.    218.    212.
   240.    221.    237.    231.    259.    233.    220.    213.
   213.    224.    227.    225.    207.    216.    234.    222.
   228.    216.    202.    231.    224.    222.    218.    214.
   213.    209.    226.    217.    227.    221.    239.    243.
   238.    211.    217.    221.    223.    206.    208.    214.
   236.    230.    188.    242.    208.    219.    237.    216.
   227.    203.    206.    217.    215.    208.    230.    237.
   225.    224.    230.    223.    233.    225.    235.    224.
   219.    221.    238.    223.    205.    217.    246.    251.
   236.    230.    207.    222.    233.    238.    219.    219.
   225.    219.    219.    227.    228.    255.    213.    221.
   207.    235.    231.    234.    234.    210.    218.    220.
   240.    197.    235.    228.    225.    225.    227.    225.
   210.    221.    231.    244.    221.    226.    245.    217.
   213.    210.    217.    229.    217.    221.    235.    233.
   249.    278.    236.    234.    227.    245.    299.    281.
   235.    275.    253.    264.    234.    265.    277.    274.
   265.    260.    257.    233.    256.    248.    259.    269.
   263.    221.    260.    233.    264.    262.    247.    236.
   244.    222.    240.    243.    247.    235.    253.    228.
   242.    249.    221.    219.    230.    262.    233.    240.
   227.    223.    224.    224.    233.    233.    238.    220.
   230.    242.    212.    228.    226.    225.    194.    221.
   244.    252.    213.    223.    242.    218.    225.    235.
   207.    191.    206.    210.    208.    202.    225.    221.
   202.    233.    226.    240.    208.    221.    208.    233.
   211.    235.    240.    214.    202.    225.    216.    210.
   192.    240.    224.    206.    211.    226.    198.    215.
   205.    202.    207.    212.    209.    204.    229.    221.
   199.    248.    215.    217.    216.    215.    223.    213.
   217.    195.    207.    215.    213.    209.    226.    195.
   189.    198.    218.    218.    235.    233.    218.    187.
   210.    182.    232.    231.    228.    201.    218.    199.
   218.    226.    211.    202.    205.    233.    232.    217.
   218.    229.    223.    230.    236.    249.    224.    223.
   207.    226.    215.    229.    219.    200.    239.    233.
   209.    217.    234.    205.    223.    227.    240.    247.
   208.    209.    216.    197.    224.    217.    222.    210.
   250.    220.    229.    216.    223.    224.    234.    244.
   212.    228.    244.    236.    246.    217.    213.    226.
   243.    253.    227.    245.    250.    284.    248.    242.
   249.    283.    243.    254.    236.    238.    233.    250.
   237.    264.    262.    263.    273.    239.    258.    234.
   257.    250.    236.    236.    261.    264.    262.    270.
   266.    277.    239.    252.    260.    242.    245.    274.
   292.    261.    251.    286.    266.    285.    261.    263.
   254.    219.    271.    254.    256.    238.    263.    237.
   275.    239.    251.    263.    282.    260.    260.    294.
   274.    271.    274.    236.    266.    273.    267.    281.
   288.    269.    271.    267.    265.    279.    265.    231.
   218.    271.    265.    275.    274.    265.    278.    252.
   257.    259.    256.    255.    275.    249.    254.    247.
   267.    266.    258.    247.    278.    261.    253.    212.
   230.    250.    232.    269.    270.    258.    241.    266.
   261.    220.    235.    217.    218.    225.    233.    238.
   223.    237.    251.    227.    232.    232.    243.    251.
   239.    229.    210.    242.    209.    230.    231.    233.
   250.    244.    244.    263.    252.    248.    246.    228.
   224.    220.    230.    203.    238.    232.    241.    231.
   249.    227.    235.    237.    239.    225.    232.    236.
   220.    231.    223.    262.    227.    230.    233.    215.
   223.    223.    235.    229.    222.    203.    206.    251.
   229.    235.    204.    204.    222.    220.    225.    213.
   225.    251.    206.    216.    195.    213.    242.    238.
   243.    225.    221.    245.    253.    240.    243.    237.
   237.    237.    231.    234.    226.    212.    235.    216.
   215.    231.    237.    254.    230.    242.    255.    239.
   257.    257.    262.    250.    242.    195.    257.    232.
   242.    271.    250.    269.    249.    256.    264.    250.
   262.    240.    273.    273.    247.    244.    244.    290.
   263.    275.    248.    245.    257.    275.    264.    253.
   283.    256.    273.    284.    266.    286.    274.    277.
   312.    267.    311.    294.    284.    299.    265.    293.
   259.    269.    293.    261.    296.    291.    259.    251.
   285.    282.    302.    275.    274.    278.    258.    273.
   240.    267.    279.    258.    251.    276.    258.    253.
   271.    264.    279.    291.    266.    248.    259.    243.
   271.    255.    279.    262.    250.    240.    252.    250.
   259.    256.    243.    234.    258.    254.    247.    259.
   237.    269.    262.    247.    259.    267.    246.    278.
   265.    254.    265.    258.    244.    245.    267.    274.
   272.    254.    251.    279.    276.    273.    256.    271.
   261.    260.    305.    293.    281.    278.    257.    272.
   274.    307.    317.    309.    304.    292.    314.    312.
   333.    337.    337.    356.    316.    320.    354.    334.
   363.    359.    386.    407.    360.    342.    346.    335.
   367.    345.    352.    371.    365.    355.    346.    341.
   339.    325.    332.    323.    344.    350.    315.    327.
   332.    340.    315.    327.    302.    313.    304.    308.
   325.    340.    338.    306.    317.    321.    339.    315.
   341.    326.    341.    351.    334.    324.    312.    333.
   341.    325.    296.    314.    308.    312.    332.    331.
   291.    289.    313.    310.    301.    310.    281.    286.
   297.    271.    273.    285.    310.    260.    251.    269.
   263.    274.    268.    275.    250.    262.    247.    273.
   254.    281.    258.    269.    283.    262.    253.    251.
   245.    279.    260.    226.    242.    243.    235.    239.
   285.    248.    255.    240.    226.    223.    219.    265.
   231.    237.    213.    225.    222.    243.    236.    250.
   251.    235.    229.    250.    259.    216.    239.    251.
   219.    224.    225.    234.    232.    222.    232.    212.
   224.    229.    220.    248.    243.    217.    235.    238.
   243.    249.    207.    239.    239.    225.    238.    214.
   239.    226.    252.    222.    221.    246.    244.    240.
   262.    259.    227.    246.    208.    259.    265.    251.
   228.    233.    239.    277.    253.    244.    267.    241.
   262.    265.    252.    262.    230.    278.    279.    244.
   254.    224.    264.    263.    245.    239.    253.    232.
   267.    246.    260.    237.    236.    216.    252.    250.
   243.    258.    248.    247.    225.    241.    226.    275.
   253.    230.    255.    240.    232.    229.    244.    242.
   264.    244.    241.    225.    229.    200.    266.    259.
   259.    246.    227.    254.    253.    243.    259.    233.
   267.    286.    244.    266.    266.    276.    255.    251.
   273.    240.    242.    245.    245.    243.    289.    247.
   264.    228.    260.    272.    256.    211.    249.    234.
   240.    226.    249.    226.    226.    226.    248.    259.
   235.    240.    220.    236.    233.    221.    237.    224.
   218.    229.    245.    238.    212.    225.    236.    238.
   233.    221.    229.    231.    242.    233.    201.    217.
   222.    245.    219.    229.    223.    231.    221.    216.
   213.    228.    235.    224.    223.    251.    228.    211.
   224.    230.    206.    224.    238.    214.    228.    232.
   219.    222.    234.    217.    236.    244.    235.    231.
   254.    223.    225.    240.    231.    204.    212.    226.
   230.    239.    211.    212.    225.    218.    246.    202.
   221.    238.    200.    213.    221.    206.    222.    212.
   221.    216.    221.    203.    194.    233.    242.    209.
   215.    228.    229.    216.    200.    195.    231.    235.
   200.    225.    209.    207.    202.    217.    212.    202.
   211.    209.    214.    214.    223.    233.    234.    206.
   213.    209.    235.    222.    229.    222.    200.    227.
   235.    190.    214.    233.    223.    214.    215.    223.
   183.    227.    228.    215.    213.    233.    220.    226.
   227.    224.    210.    213.    212.    219.    222.    222.
   222.    219.    200.    234.    213.    202.    224.    200.
   233.    204.    202.    221.    217.    201.    235.    202.
   222.    211.    222.    204.    217.    225.    202.    227.
   212.    217.    229.    212.    200.    197.    216.    213.
   193.    210.    205.    211.    204.    194.    229.    214.
   235.    212.    222.    226.    217.    223.    213.    231.
   254.    216.    216.    226.    217.    193.    215.    218.
   229.    242.    227.    234.    217.    237.    259.    233.
   220.    238.    251.    244.    242.    247.    230.    244.
   258.    230.    224.    204.    238.    232.    253.    231.
   241.    264.    235.    263.    235.    213.    278.    246.
   256.    225.    251.    247.    219.    227.    235.    245.
   226.    233.    232.    249.    233.    250.    243.    229.
   250.    244.    255.    233.    260.    254.    247.    249.
   281.    261.    265.    262.    258.    262.    271.    266.
   230.    285.    276.    243.    268.    274.    260.    253.
   258.    240.    262.    270.    250.    239.    271.    254.
   243.    275.    248.    274.    234.    247.    240.    260.
   203.    234.    243.    252.    255.    262.    255.    259.
   256.    254.    271.    242.    245.    272.    248.    267.
   246.    260.    253.    244.    250.    272.    241.    260.
   248.    283.    242.    237.    230.    228.    256.    245.
   254.    273.    250.    250.    276.    264.    261.    251.
   261.    274.    269.    264.    276.    278.    259.    273.
   240.    262.    280.    269.    259.    239.    262.    262.
   239.    257.    230.    253.    230.    257.    242.    259.
   250.    234.    240.    238.    241.    252.    228.    225.
   262.    262.    229.    240.    236.    230.    246.    231.
   212.    241.    219.    224.    233.    208.    227.    204.
   221.    221.    213.    210.    215.    218.    219.    230.
   223.    219.    220.    212.    223.    229.    215.    210.
   228.    213.    218.    247.    218.    250.    249.    248.
   228.    240.    244.    237.    271.    244.    233.    271.
   289.    263.    230.    229.    247.    244.    247.    215.
   239.    208.    248.    244.    216.    220.    232.    208.
   224.    222.    243.    230.    246.    219.    225.    233.
   227.    264.    240.    222.    202.    225.    219.    213.
   230.    212.    228.    221.    226.    194.    202.    207.
   213.    226.    238.    229.    227.    202.    213.    205.
   220.    211.    239.    210.    248.    227.    210.    222.
   210.    216.    230.    223.    202.    222.    201.    222.
   220.    228.    221.    226.    218.    214.    201.    224.
   210.    219.    204.    213.    202.    221.    218.    199.
   191.    196.    220.    224.    199.    228.    238.    201.
   209.    212.    194.    237.    199.    226.    208.    223.
   225.    224.    189.    218.    229.    215.    202.    216.
   181.    209.    210.    214.    202.    204.    227.    221.
   195.    217.    192.    180.    248.    223.    230.    230.
   231.    207.    209.    230.    206.    227.    234.    229.
   216.    202.    238.    217.    210.    217.    228.    224.
   222.    211.    240.    228.    219.    211.    226.    232.
   216.    226.    222.    207.    220.    243.    241.    224.
   229.    241.    234.    251.    243.    251.    225.    231.
   241.    221.    267.    246.    250.    273.    261.    233.
   256.    254.    256.    251.    268.    271.    244.    264.
   269.    249.    264.    279.    258.    254.    279.    270.
   289.    269.    243.    262.    251.    248.    298.    264.
   273.    282.    231.    258.    248.    279.    232.    255.
   256.    259.    251.    253.    236.    216.    219.    219.
   232.    253.    261.    262.    269.    261.    242.    220.
   206.    253.    231.    237.    201.    201.    251.    238.
   253.    222.    233.    244.    223.    223.    236.    247.
   221.    205.    215.    215.    209.    211.    205.    221.
   214.    221.    208.    190.    205.    224.    190.    230.
   216.    211.    191.    227.    206.    217.    235.    216.
   210.    205.    201.    207.    217.    213.    222.    212.
   208.    179.    237.    221.    203.    194.    203.    208.
   192.    189.    218.    227.    226.    202.    207.    208.
   207.    190.    198.    231.    202.    201.    185.    199.
   198.    238.    233.    204.    172.    209.    194.    189.
   204.    200.    201.    180.    203.    215.    213.    212.
   187.    188.    190.    199.    193.    195.    196.    213.
   195.    195.    204.    201.    176.    199.    202.    195.
   222.    209.    226.    203.    177.    223.    182.    193.
   198.    215.    188.    203.    234.    205.    204.    219.
   208.    199.    206.    213.    179.    197.    213.    214.
   190.    199.    205.    191.    206.    193.    215.    219.
   201.    212.    219.    199.    187.    186.    209.    207.
   177.    212.    207.    228.    216.    226.    219.    212.
   222.    229.    230.    211.    215.    252.    211.    203.
   223.    192.    211.    219.    215.    209.    215.    207.
   219.    204.    226.    203.    215.    219.    231.    239.
   211.    235.    214.    188.    216.    235.    204.    241.
   214.    228.    236.    229.    222.    232.    232.    216.
   218.    200.    194.    211.    209.    218.    231.    223.
   208.    200.    235.    213.    208.    213.    194.    211.
   219.    196.    207.    211.    223.    221.    210.    213.
   214.    213.    198.    210.    230.    210.    233.    199.
   216.    219.    198.    185.    207.    202.    209.    217.
   195.    196.    203.    206.    188.    209.    213.    196.
   192.    211.    200.    187.    195.    207.    216.    231.
   194.    219.    212.    186.    214.    228.    218.    221.
   192.    219.    215.    220.    221.    197.    201.    179.
   208.    210.    204.    227.    238.    199.    171.    211.
   195.    204.    215.    198.    197.    224.    213.    185.
   183.    193.    188.    208.    208.    223.    232.    208.
   195.    178.    185.    199.    208.    206.    193.    187.
   204.    208.    190.    223.    176.    190.    208.    221.
   217.    209.    196.    243.    232.    192.    201.    200.
   209.    218.    208.    213.    204.    206.    204.    199.
   195.    177.    197.    200.    214.    193.    205.    201.
   189.    229.    221.    183.    203.    201.    209.    198.
   202.    193.    201.    187.    226.    203.    194.    186.
   196.    216.    190.    180.    210.    191.    211.    193.
   200.    208.    190.    197.    201.    197.    203.    185.
   204.    205.    191.    187.    204.    200.    198.    188.
   207.    214.    200.    212.    182.    192.    202.    199.
   181.    227.    216.    221.    189.    213.    231.    208.
   193.    213.    206.    216.    215.    201.    226.    199.
   203.    211.    197.    218.    222.    220.    196.    211.
   214.    206.    204.    186.    179.    233.    203.    208.
   199.    188.    189.    210.    194.    182.    200.    208.
   181.    207.    216.    196.    202.    213.    210.    199.
   196.    211.    198.    187.    210.    209.    208.    216.
   186.    211.    229.    201.    208.    198.    203.    190.
   175.    225.    190.    207.    185.    196.    200.    201.
   228.    205.    183.    217.    184.    199.    190.    183.
   212.    205.    201.    222.    211.    210.    194.    221.
   175.    234.    202.    213.    221.    209.    218.    194.
   199.    199.    204.    204.    188.    212.    214.    200.
   194.    213.    204.    224.    223.    208.    226.    215.
   213.    183.    183.    210.    211.    192.    216.    236.
   198.    195.    224.    197.    225.    223.    211.    220.
   214.    216.    229.    229.    221.    220.    228.    200.
   206.    234.    217.    217.    202.    200.    229.    223.
   229.    218.    213.    229.    212.    213.    216.    212.
   205.    226.    196.    207.    230.    239.    247.    223.
   224.    243.    212.    219.    231.    227.    203.    233.
   227.    242.    227.    187.    206.    229.    205.    229.
   212.    198.    196.    203.    221.    226.    236.    212.
   228.    241.    205.    221.    228.    225.    224.    224.
   231.    202.    228.    215.    198.    196.    223.    214.
   224.    196.    193.    197.    204.    221.    212.    195.
   187.    199.    219.    207.    231.    199.    179.    214.
   205.    212.    224.    201.    207.    218.    225.    199.
   191.    189.    199.    220.    217.    220.    222.    193.
   209.    203.    194.    205.    216.    197.    194.    189.
   214.    207.    187.    227.    182.    205.    195.    203.
   227.    191.    207.    185.    205.    201.    209.    237.
   194.    216.    205.    203.    178.    215.    207.    206.
   212.    207.    223.    218.    185.    231.    210.    187.
   206.    195.    204.    205.    201.    202.    232.    212.
   218.    216.    233.    206.    205.    219.    240.    220.
   203.    203.    219.    231.    226.    204.    208.    212.
   236.    240.    215.    194.    202.    197.    202.    226.
   241.    221.    217.    205.    222.    205.    249.    215.
   196.    214.    220.    226.    203.    222.    226.    202.
   231.    206.    205.    206.    199.    223.    216.    202.
   205.    201.    225.    199.    189.    231.    181.    209.
   225.    246.    206.    214.    208.    196.    205.    225.
   231.    212.    233.    189.    204.    216.    213.    244.
   225.    214.    232.    231.    238.    228.    213.    219.
   220.    230.    210.    214.    240.    226.    224.    217.
   228.    222.    236.    229.    240.    245.    210.    204.
   223.    214.    210.    219.    230.    214.    239.    213.
   229.    209.    225.    222.    228.    210.    229.    219.
   226.    232.    204.    205.    197.    218.    229.    211.
   202.    222.    224.    234.    217.    213.    225.    207.
   218.    228.    228.    246.    235.    251.    226.    221.
   256.    217.    223.    232.    243.    232.    238.    222.
   230.    247.    237.    221.    249.    227.    241.    233.
   239.    256.    258.    233.    238.    248.    231.    228.
   262.    227.    247.    218.    223.    238.    229.    231.
   274.    251.    251.    244.    227.    222.    234.    258.
   227.    218.    233.    241.    244.    227.    226.    231.
   239.    201.    204.    207.    213.    223.    206.    230.
   206.    198.    234.    222.    227.    214.    217.    232.
   226.    192.    212.    216.    186.    199.    198.    220.
   197.    190.    227.    217.    208.    198.    195.    227.
   212.    206.    229.    215.    201.    225.    196.    208.
   206.    235.    239.    202.    222.    231.    225.    238.
   230.    216.    204.    212.    238.    196.    197.    231.
   232.    209.    215.    219.    216.    207.    230.    219.
   213.    221.    216.    233.    216.    242.    210.    235.
   200.    224.    217.    202.    215.    215.    216.    195.
   208.    193.    227.    206.    209.    209.    216.    196.
   189.    212.    205.    212.    201.    214.    210.    203.
   223.    202.    233.    199.    186.    248.    212.    216.
   221.    207.    214.    212.    215.    207.    204.    199.
   225.    196.    192.    202.    213.    201.    208.    207.
   208.    217.    212.    193.    192.    221.    214.    221.
   199.    206.    209.    213.    205.    238.    195.    200.
   210.    212.    226.    221.    234.    201.    192.    201.
   195.    198.    195.    223.    206.    214.    198.    192.
   198.    210.    215.    209.    209.    202.    212.    204.
   201.    228.    189.    197.    209.    209.    219.    210.
   202.    188.    207.    195.    203.    191.    213.    217.
   203.    195.    214.    192.    199.    194.    213.    196.
   217.    199.    209.    199.    229.    209.    210.    210.
   219.    213.    222.    178.    187.    196.    209.    208.
   200.    197.    183.    186.    201.    215.    190.    188.
   219.    186.    218.    211.    176.    214.    208.    204.
   215.    212.    195.    211.    217.    223.    216.    194.
   196.    192.    205.    186.    219.    199.    208.    191.
   222.    226.    198.    217.    194.    215.    222.    212.
   229.    205.    209.    206.    216.    233.    206.    228.
   232.    243.    207.    200.    199.    220.    211.    218.
   223.    230.    213.    211.    228.    223.    210.    241.
   243.    209.    211.    213.    230.    238.    193.    207.
   206.    229.    235.    206.    204.    218.    200.    255.
   239.    206.    218.    222.    212.    214.    186.    211.
   197.    219.    226.    196.    207.    209.    196.    186.
   198.    223.    205.    214.    217.    179.    198.    216.
   196.    195.    213.    182.    206.    218.    181.    182.
   194.    221.    194.    202.    185.    230.    185.    207.
   192.    195.    196.    189.    212.    198.    205.    202.
   189.    171.    182.    175.    159.    193.    189.    182.
   216.    198.    203.    168.    186.    190.    173.    177.
   216.    184.    177.    193.    188.    201.    187.    177.
   177.    206.    214.    196.    193.    212.    185.    197.
   207.    206.    172.    181.    211.    219.    179.    180.
   181.    198.    176.    173.    212.    193.    188.    193.
   209.    193.    186.    172.    202.    193.    176.    200.
   187.    196.    198.    178.    195.    189.    178.    193.
   202.    205.    170.    192.    188.    192.    190.    203.
   195.    200.    206.    197.    210.    196.    188.    205.
   198.    205.    199.    183.    194.    199.    179.    198.
   203.    203.    208.    197.    202.    186.    176.    195.
   209.    194.    178.    194.    195.    211.    201.    223.
   198.    195.    178.    210.    188.    221.    202.    216.
   237.    221.    210.    213.    227.    226.    196.    219.
   203.    224.    219.    230.    229.    250.    228.    229.
   236.    226.    229.    213.    242.    230.    214.    222.
   260.    231.    247.    240.    244.    240.    215.    244.
   250.    243.    228.    220.    242.    230.    244.    239.
   225.    223.    233.    257.    250.    248.    231.    224.
   221.    241.    229.    242.    215.    212.    231.    238.
   229.    236.    223.    227.    219.    206.    217.    221.
   231.    209.    202.    227.    205.    252.    207.    221.
   207.    229.    207.    216.    217.    206.    215.    233.
   204.    216.    212.    234.    222.    214.    201.    221.
   228.    206.    222.    205.    206.    237.    239.    249.
   209.    213.    228.    226.    204.    217.    194.    227.
   211.    221.    215.    202.    222.    185.    207.    212.
   218.    243.    225.    224.    231.    212.    230.    234.
   242.    229.    224.    234.    215.    252.    252.    225.
   236.    236.    213.    237.    216.    237.    247.    227.
   228.    250.    228.    219.    255.    232.    219.    256.
   216.    245.    243.    233.    217.    215.    255.    238.
   238.    241.    216.    232.    214.    234.    226.    224.
   215.    193.    213.    246.    223.    192.    229.    209.
   222.    204.    204.    187.    212.    200.    178.    187.
   186.    208.    160.    202.    243.    193.    206.    183.
   192.    206.    203.    189.    193.    176.    218.    202.
   206.    200.    197.    179.    196.    197.    185.    165.
   204.    213.    199.    199.    201.    208.    199.    216.
   191.    213.    197.    216.    195.    188.    215.    158.
   202.    168.    209.    205.    196.    200.    183.    209.
   206.    194.    193.    185.    197.    202.    175.    204.
   207.    171.    208.    199.    214.    190.    185.    208.
   205.    183.    176.    188.    212.    215.    185.    197.
   206.    199.    189.    235.    175.    180.    185.    198.
   209.    180.    189.    197.    188.    221.    204.    198.
   184.    212.    212.    206.    183.    199.    211.    183.
   204.    196.    193.    173.    196.    183.    212.    188.
   194.    179.    195.    178.    197.    204.    199.    184.
   198.    192.    199.    214.    195.    207.    213.    187.
   190.    194.    173.    214.    233.    178.    207.    206.
   190.    209.    217.    197.    188.    206.    181.    194.
   205.    188.    197.    188.    204.    208.    200.    190.
   185.    198.    206.    187.    187.    209.    200.    187.
   214.    208.    210.    203.    220.    187.    186.    196.
   160.    196.    202.    194.    195.    195.    207.    182.
   174.    190.    183.    167.    180.    174.    170.    198.
   161.    186.    170.    204.    184.    183.    196.    180.
   196.    184.    176.    195.    187.    181.    214.    190.
   151.    171.    165.    188.    199.    193.    196.    188.
   161.    177.    185.    187.    192.    186.    203.    182.
   173.    190.    177.    191.    195.    183.    188.    231.
   203.    181.    173.    186.    168.    194.    161.    169.
   182.    166.    195.    175.    168.    198.    178.    195.
   167.    186.    168.    172.    179.    186.    191.    196.
   175.    180.    190.    190.    185.    198.    174.    176.
   162.    164.    171.    169.    165.    161.    153.    188.
   177.    197.    177.    179.    180.    186.    197.    190.
   180.    178.    178.    153.    169.    170.    164.    178.
   185.    174.    191.    179.    188.    179.    188.    162.
   168.    175.    168.    174.    157.    174.    157.    177.
   183.    184.    181.    196.    187.    196.    173.    164.
   185.    184.    153.    191.    164.    187.    156.    205.
   170.    187.    184.    175.    152.    162.    163.    172.
   184.    194.    186.    172.    174.    175.    177.    180.
   182.    177.    193.    163.    165.    178.    162.    177.
   166.    166.    180.    164.    172.    185.    198.    173.
   181.    156.    172.    178.    165.    177.    198.    177.
   176.    193.    179.    189.    154.    179.    165.    165.
   163.    191.    195.    163.    192.    210.    166.    203.
   184.    205.    168.    171.    176.    195.    187.    199.
   171.    209.    189.    176.    183.    199.    186.    170.
   187.    173.    181.    165.    170.    169.    185.    187.
   163.    185.    178.    174.    177.    168.    174.    196.
   177.    171.    184.    217.    184.    158.    187.    199.
   188.    183.    165.    187.    177.    173.    185.    174.
   196.    189.    198.    198.    189.    209.    190.    157.
   207.    198.    169.    177.    177.    189.    178.    179.
   182.    171.    174.    177.    202.    174.    194.    172.
   188.    178.    185.    154.    181.    158.    202.    204.
   165.    178.    198.    211.    189.    194.    201.    209.
   183.    212.    205.    185.    188.    201.    187.    204.
   184.    171.    196.    201.    236.    213.    205.    218.
   239.    222.    198.    240.    234.    194.    223.    209.
   237.    198.    201.    228.    214.    247.    209.    210.
   202.    188.    211.    189.    185.    211.    208.    207.
   212.    239.    217.    219.    187.    186.    187.    208.
   215.    202.    193.    205.    208.    213.    173.    216.
   203.    179.    195.    200.    185.    184.    189.    205.
   188.    203.    180.    198.    207.    180.    181.    174.
   202.    194.    211.    198.    188.    187.    201.    192.
   206.    198.    202.    211.    218.    191.    196.    185.
   190.    205.    189.    206.    221.    190.    201.    201.
   240.    188.    179.    168.    188.    196.    167.    194.
   185.    192.    198.    156.    198.    164.    192.    180.
   197.    184.    174.    177.    183.    178.    158.    191.
   166.    173.    178.    179.    157.    187.    177.    169.
   182.    171.    173.    184.    176.    167.    183.    198.
   177.    181.    178.    169.    188.    198.    179.    180.
   164.    161.    178.    193.    189.    168.    166.    178.
   176.    179.    169.    185.    178.    183.    182.    205.
   163.    164.    184.    176.    188.    157.    169.    198.
   202.    179.    165.    171.    175.    168.    190.    176.
   161.    160.    170.    178.    149.    156.    186.    182.
   174.    179.    166.    167.    175.    179.    185.    167.
   167.    201.    199.    168.    176.    163.    167.    160.
   165.    174.    164.    178.    151.    156.    162.    169.
   192.    186.    168.    190.    183.    162.    179.    180.
   181.    169.    177.    178.    164.    171.    176.    152.
   175.    167.    192.    163.    155.    162.    180.    190.
   166.    189.    176.    184.    155.    181.    197.    179.
   169.    160.    155.    188.    199.    182.    178.    186.
   210.    181.    156.    180.    172.    203.    172.    192.
   166.    173.    185.    176.    186.    182.    183.    170.
   189.    193.    181.    165.    181.    175.    193.    182.
   175.    187.    170.    197.    188.    196.    197.    171.
   164.    170.    169.    193.    179.    176.    182.    182.
   173.    177.    166.    181.    174.    194.    191.    209.
   186.    175.    175.    206.    190.    174.    190.    206.
   184.    187.    176.    177.    174.    182.    188.    177.
   174.    182.    184.    196.    189.    198.    173.    166.
   160.    183.    189.    193.    168.    152.    185.    156.
   182.    155.    162.    180.    168.    183.    203.    191.
   177.    159.    169.    177.    169.    172.    172.    173.
   170.    179.    193.    169.    182.    187.    159.    182.
   181.    191.    166.    180.    162.    178.    153.    157.
   175.    160.    183.    167.    165.    189.    193.    174.
   170.    173.    171.    172.    178.    174.    171.    162.
   164.    179.    180.    174.    177.    189.    169.    191.
   182.    188.    162.    177.    195.    202.    178.    182.
   178.    161.    161.    152.    168.    178.    193.    167.
   165.    187.    172.    196.    148.    166.    167.    185.
   193.    184.    174.    167.    164.    172.    186.    162.
   160.    175.    170.    168.    193.    187.    189.    168.
   161.    148.    171.    186.    164.    177.    180.    180.
   172.    166.    150.    160.    171.    185.    149.    181.
   173.    183.    171.    189.    189.    193.    161.    191.
   191.    166.    138.    156.    195.    153.    162.    169.
   187.    185.    150.    180.    176.    169.    179.    169.
   186.    184.    160.    168.    188.    177.    158.    186.
   180.    192.    183.    182.    176.    164.    177.    191.
   175.    173.    176.    173.    186.    170.    162.    205.
   189.    179.    199.    195.    178.    204.    192.    204.
   185.    199.    163.    178.    191.    164.    162.    184.
   207.    187.    200.    203.    193.    172.    209.    182.
   174.    213.    207.    190.    208.    190.    191.    186.
   171.    179.    201.    194.    202.    194.    180.    194.
   178.    191.    176.    203.    202.    197.    205.    193.
   183.    189.    184.    196.    189.    194.    205.    195.
   192.    167.    161.    163.    201.    198.    165.    178.
   188.    184.    169.    181.    179.    191.    229.    183.
   167.    189.    179.    208.    195.    189.    166.    178.
   205.    191.    203.    189.    195.    191.    172.    190.
   211.    188.    179.    187.    190.    219.    177.    198.
   193.    183.    180.    190.    196.    193.    188.    169.
   183.    187.    188.    190.    165.    195.    203.    177.
   180.    182.    198.    177.    192.    179.    188.    189.
   172.    202.    182.    167.    187.    186.    174.    171.
   189.    171.    193.    203.    176.    166.    154.    168.
   206.    182.    175.    178.    184.    180.    178.    191.
   168.    172.    180.    174.    201.    174.    180.    175.
   176.    191.    189.    185.    185.    195.    192.    198.
   183.    173.    157.    195.    164.    187.    155.    166.
   178.    178.    190.    176.    180.    180.    188.    188.
   185.    186.    188.    179.    181.    172.    198.    177.
   193.    189.    194.    175.    182.    163.    178.    198.
   183.    185.    186.    224.    179.    175.    169.    196.
   187.    170.    179.    180.    172.    203.    185.    184.
   201.    178.    179.    172.    162.    164.    171.    163.
   183.    176.    183.    192.    181.    168.    171.    170.
   168.    171.    146.    169.    176.    180.    194.    158.
   168.    196.    167.    181.    183.    157.    174.    182.
   182.    180.    171.    163.    165.    171.    165.    185.
   213.    174.    167.    176.    164.    175.    178.    163.
   155.    156.    171.    185.    171.    186.    182.    155.
   184.    181.    175.    177.    167.    174.    173.    158.
   165.    165.    158.    194.    150.    174.    168.    170.
   177.    165.    170.    159.    199.    181.    160.    190.
   162.    170.    149.    175.    178.    175.    178.    177.
   165.    177.    171.    163.    171.    161.    178.    194.
   166.    193.    166.    171.    156.    173.    162.    176.
   161.    177.    170.    160.    183.    172.    174.    175.
   152.    181.    176.    163.    144.    176.    185.    151.
   156.    187.    184.    185.    177.    162.    187.    198.
   181.    171.    168.    164.    167.    145.    179.    163.
   187.    189.    156.    190.    181.    173.    179.    173.
   186.    186.    183.    199.    180.    167.    188.    191.
   171.    176.    194.    160.    188.    174.    180.    191.
   165.    169.    183.    173.    181.    182.    185.    156.
   178.    167.    151.    139.    183.    182.    177.    162.
   173.    171.    164.    174.    162.    169.    186.    158.
   172.    165.    143.    162.    181.    160.    173.    173.
   151.    153.    174.    139.    178.    169.    168.    186.
   165.    168.    160.    169.    155.    165.    162.    188.
   176.    163.    184.    152.    188.    157.    180.    141.
   168.    187.    159.    159.    169.    174.    155.    164.
   173.    168.    178.    175.    172.    175.    186.    194.
   187.    166.    179.    186.    171.    171.    186.    171.
   166.    158.    174.    183.    161.    204.    187.    161.
   193.    139.    167.    172.    187.    181.    173.    172.
   162.    191.    174.    171.    175.    169.    181.    175.
   177.    189.    178.    189.    180.    183.    179.    156.
   182.    200.    182.    194.    152.    185.    191.    175.
   167.    203.    178.    164.    165.    204.    178.    191.
   188.    182.    180.    171.    195.    170.    178.    167.
   174.    201.    168.    188.    177.    179.    184.    184.
   169.    179.    159.    181.    183.    173.    161.    174.
   182.    177.    169.    157.    173.    162.    164.    158.
   166.    192.    182.    181.    172.    157.    152.    165.
   173.    175.    188.    173.    169.    178.    187.    192.
   203.    209.    191.    195.    188.    178.    158.    184.
   172.    184.    196.    189.    180.    207.    202.    185.
   179.    191.    187.    195.    196.    204.    192.    204.
   179.    208.    191.    164.    209.    203.    186.    188.
   179.    193.    164.    190.    196.    194.    186.    189.
   188.    183.    189.    178.    184.    188.    186.    194.
   178.    173.    190.    182.    172.    183.    179.    182.
   185.    169.    173.    180.    195.    188.    161.    165.
   186.    169.    146.    159.    176.    175.    197.    183.
   180.    181.    180.    167.    187.    171.    167.    178.
   173.    193.    194.    179.    175.    181.    207.    194.
   181.    169.    167.    186.    176.    178.    168.    171.
   182.    178.    186.    181.    148.    182.    182.    178.
   184.    166.    164.    188.    198.    182.    188.    206.
   179.    195.    200.    204.    171.    188.    191.    189.
   174.    169.    167.    204.    191.    198.    192.    188.
   188.    173.    195.    194.    182.    184.    186.    182.
   192.    201.    181.    197.    194.    193.    178.    193.
   199.    200.    186.    189.    170.    160.    167.    193.
   202.    188.    218.    166.    182.    178.    184.    191.
   187.    182.    177.    187.    200.    191.    194.    189.
   181.    218.    193.    197.    200.    204.    206.    181.
   181.    182.    202.    196.    187.    181.    174.    214.
   201.    204.    196.    187.    189.    173.    192.    206.
   174.    155.    181.    185.    180.    204.    204.    192.
   196.    185.    173.    184.    182.    182.    188.    172.
   180.    182.    179.    202.    175.    186.    183.    176.
   180.    203.    181.    165.    181.    189.    195.    155.
   183.    211.    215.    192.    173.    181.    174.    189.
   203.    178.    185.    168.    162.    191.    157.    179.
   164.    187.    187.    184.    206.    190.    156.    195.
   206.    186.    191.    187.    194.    191.    207.    190.
   206.    190.    176.    182.    189.    182.    193.    179.
   178.    195.    184.    181.    176.    191.    185.    183.
   173.    196.    173.    181.    192.    190.    168.    192.
   202.    173.    177.    185.    181.    194.    182.    175.
   198.    201.    170.    179.    192.    160.    179.    177.
   192.    192.    190.    168.    197.    171.    197.    157.
   164.    155.    190.    158.    197.    187.    186.    203.
   197.    187.    179.    181.    184.    201.    194.    172.
   177.    175.    172.    175.    192.    163.    195.    167.
   169.    187.    198.    181.    197.    208.    195.    186.
   178.    200.    198.    190.    183.    167.    198.    187.
   178.    190.    188.    212.    199.    201.    191.    201.
   177.    192.    180.    205.    200.    178.    196.    198.
   186.    212.    163.    199.    212.    192.    171.    186.
   201.    219.    221.    188.    174.    188.    197.    202.
   202.    225.    193.    200.    204.    225.    216.    215.
   187.    209.    213.    201.    217.    207.    208.    179.
   199.    193.    174.    192.    219.    182.    203.    191.
   189.    191.    206.    190.    192.    191.    174.    192.
   199.    204.    201.    173.    195.    195.    186.    175.
   168.    181.    172.    187.    168.    185.    178.    178.
   173.    138.    196.    183.    186.    165.    159.    169.
   178.    196.    187.    177.    170.    160.    172.    171.
   174.    183.    148.    160.    150.    168.    176.    161.
   168.    180.    175.    175.    167.    190.    171.    185.
   164.    164.    170.    180.    173.    177.    166.    172.
   177.    160.    160.    168.    164.    179.    212.    200.
   170.    182.    170.    151.    167.    160.    171.    176.
   150.    163.    160.    162.    167.    182.    141.    181.
   176.    173.    174.    155.    166.    184.    157.    161.
   178.    166.    162.    168.    189.    173.    174.    166.
   168.    157.    177.    177.    156.    170.    198.    175.
   164.    182.    163.    159.    170.    157.    161.    164.
   166.    156.    175.    175.    182.    185.    174.    156.
   161.    176.    162.    164.    169.    168.    170.    198.
   143.    153.    186.    180.    163.    152.    163.    145.
   167.    152.    177.    181.    190.    174.    167.    177.
   183.    146.    188.    161.    177.    163.    177.    180.
   192.    169.    168.    190.    171.    161.    179.    185.
   148.    168.    158.    169.    170.    156.    169.    176.
   183.    165.    172.    161.    183.    174.    154.    169.
   164.    159.    164.    155.    190.    164.    190.    158.
   167.    179.    152.    176.    180.    149.    176.    155.
   177.    169.    158.    174.    177.    180.    179.    170.
   167.    171.    174.    150.    173.    161.    180.    166.
   184.    169.    156.    183.    164.    163.    186.    191.
   159.    167.    175.    160.    165.    158.    163.    163.
   182.    177.    190.    165.    163.    160.    180.    161.
   166.    185.    170.    159.    178.    183.    171.    168.
   188.    182.    196.    162.    176.    165.    172.    177.
   192.    193.    178.    200.    190.    173.    189.    179.
   161.    207.    177.    204.    164.    187.    175.    188.
   173.    193.    198.    189.    185.    193.    188.    203.
   194.    185.    171.    183.    191.    169.    183.    183.
   170.    193.    195.    166.    202.    191.    152.    167.
   181.    178.    167.    177.    180.    190.    168.    194.
   181.    183.    174.    182.    200.    194.    169.    200.
   181.    184.    203.    205.    209.    181.    189.    202.
   194.    182.    186.    200.    194.    175.    183.    180.
   200.    179.    193.    180.    204.    189.    171.    205.
   207.    195.    166.    197.    157.    192.    183.    167.
   187.    188.    171.    180.    170.    182.    168.    164.
   187.    175.    177.    181.    180.    185.    146.    182.
   153.    198.    165.    181.    200.    178.    187.    189.
   174.    173.    178.    176.    174.    149.    170.    170.
   180.    168.    163.    140.    178.    151.    178.    153.
   172.    177.    169.    181.    167.    166.    164.    197.
   158.    163.    177.    177.    163.    170.    165.    145.
   163.    164.    163.    176.    159.    177.    187.    192.
   166.    160.    159.    182.    171.    159.    161.    188.
   192.    184.    162.    157.    171.    163.    174.    181.
   167.    162.    189.    190.    171.    172.    185.    193.
   175.    159.    176.    181.    159.    181.    194.    141.
   192.    202.    164.    190.    171.    177.    193.    166.
   159.    168.    158.    150.    164.    177.    166.    170.
   170.    142.    168.    173.    164.    202.    177.    154.
   194.    168.    158.    189.    176.    160.    164.    172.
   170.    153.    174.    175.    198.    169.    193.    165.
   174.    180.    149.    168.    157.    152.    156.    159.
   166.    170.    157.    171.    160.    172.    172.    164.
   165.    156.    184.    176.    178.    159.    157.    156.
   168.    163.    177.    185.    172.    159.    167.    168.
   166.    175.    181.    167.    173.    175.    168.    185.
   174.    195.    184.    160.    158.    154.    163.    176.
   183.    145.    144.    173.    168.    181.    166.    148.
   151.    179.    153.    156.    173.    158.    175.    155.
   176.    183.    181.    178.    168.    162.    165.    168.
   181.    187.    161.    176.    166.    169.    175.    177.
   169.    179.    172.    148.    172.    183.    163.    175.
   170.    195.    151.    204.    163.    175.    162.    176.
   159.    170.    165.    172.    176.    176.    161.    176.
   190.    176.    180.    175.    170.    151.    164.    181.
   178.    194.    177.    175.    178.    164.    185.    194.
   167.    170.    179.    176.    155.    151.    193.    191.
   169.    156.    193.    167.    184.    208.    182.    160.
   158.    191.    165.    157.    160.    168.    174.    181.
   200.    158.    183.    161.    186.    175.    202.    171.
   170.    195.    187.    193.    186.    176.    188.    189.
   170.    197.    192.    156.    168.    166.    182.    200.
   175.    192.    190.    158.    178.    180.    166.    176.
   163.    174.    212.    193.    178.    163.    164.    169.
   194.    182.    163.    180.    179.    163.    168.    157.
   175.    173.    188.    163.    182.    168.    169.    174.
   172.    164.    150.    154.    169.    169.    155.    170.
   155.    196.    176.    177.    165.    179.    175.    177.
   183.    167.    187.    182.    165.    173.    185.    199.
   177.    194.    177.    156.    161.    157.    157.    157.
   180.    167.    139.    170.    161.    194.    169.    184.
   170.    168.    169.    164.    168.    166.    150.    193.
   187.    171.    158.    188.    169.    162.    173.    149.
   169.    172.    179.    165.    162.    173.    186.    188.
   179.    175.    187.    174.    155.    174.    193.    161.
   185.    180.    183.    204.    192.    210.    159.    167.
   170.    162.    188.    169.    192.    159.    169.    167.
   175.    182.    216.    209.    174.    175.    199.    194.
   188.    189.    191.    167.    191.    181.    173.    185.
   170.    170.    198.    183.    181.    189.    176.    174.
   173.    183.    201.    192.    177.    212.    202.    161.
   157.    164.    178.    190.    180.    186.    178.    184.
   178.    178.    164.    181.    155.    173.    179.    198.
   196.    167.    174.    181.    176.    185.    199.    172.
   177.    163.    162.    173.    186.    166.    187.    210.
   202.    174.    180.    165.    182.    168.    182.    181.
   159.    165.    186.    188.    164.    171.    186.    178.
   176.    167.    174.    169.    159.    175.    194.    163.
   162.    186.    173.    161.    173.    179.    186.    173.
   171.    188.    171.    157.    163.    167.    162.    181.
   174.    172.    188.    185.    195.    167.    190.    162.
   162.    149.    163.    164.    163.    150.    171.    157.
   164.    164.    167.    176.    165.    159.    152.    183.
   190.    152.    175.    197.    168.    174.    169.    168.
   169.    189.    159.    176.    159.    173.    147.    161.
   170.    165.    164.    175.    168.    178.    170.    171.
   167.    163.    149.    157.    182.    149.    184.    168.
   160.    148.    179.    154.    175.    169.    174.    170.
   170.    181.    180.    155.    157.    156.    167.    180.
   160.    166.    168.    173.    180.    168.    183.    161.
   163.    163.    171.    164.    174.    174.    167.    192.
   173.    199.    192.    166.    150.    169.    155.    168.
   151.    163.    176.    156.    172.    177.    148.    136.
   144.    190.    175.    194.    163.    171.    175.    175.
   179.    169.    172.    170.    186.    176.    153.    170.
   149.    164.    163.    146.    178.    148.    182.    163.
   182.    179.    168.    135.    156.    179.    175.    158.
   191.    167.    173.    178.    160.    144.    169.    147.
   173.    171.    173.    164.    158.    184.    158.    165.
   181.    170.    179.    175.    182.    188.    179.    160.
   193.    183.    173.    194.    172.    187.    164.    171.
   173.    171.    168.    170.    184.    163.    177.    183.
   165.    164.    182.    160.    167.    183.    161.    191.
   165.    178.    168.    189.    202.    177.    159.    174.
   161.    164.    178.    193.    174.    169.    175.    169.
   192.    144.    178.    163.    167.    185.    189.    163.
   160.    187.    158.    188.    198.    173.    178.    164.
   160.    159.    176.    181.    149.    166.    169.    156.
   159.    143.    161.    158.    163.    165.    162.    153.
   178.    183.    169.    170.    167.    159.    168.    184.
   150.    166.    170.    172.    179.    158.    152.    176.
   155.    180.    190.    180.    181.    161.    155.    155.
   178.    181.    170.    159.    163.    160.    175.    149.
   175.    179.    151.    148.    162.    167.    194.    150.
   153.    151.    162.    184.    174.    166.    168.    187.
   185.    166.    167.    184.    183.    166.    196.    172.
   168.    145.    168.    177.    186.    156.    173.    155.
   144.    153.    183.    156.    177.    177.    176.    138.
   161.    168.    160.    179.    171.    207.    172.    146.
   148.    172.    185.    171.    146.    154.    187.    163.
   168.    158.    186.    176.    184.    190.    166.    167.
   161.    166.    165.    182.    167.    158.    175.    176.
   168.    187.    193.    177.    176.    184.    182.    192.
   176.    177.    196.    186.    180.    189.    158.    181.
   181.    179.    190.    167.    175.    178.    198.    180.
   173.    208.    181.    175.    181.    192.    174.    190.
   180.    184.    210.    187.    192.    178.    183.    164.
   205.    179.    184.    168.    186.    178.    176.    203.
   168.    175.    172.    180.    177.    183.    183.    182.
   172.    153.    172.    184.    179.    194.    183.    188.
   202.    182.    196.    176.    168.    184.    180.    175.
   175.    185.    180.    179.    184.    163.    164.    179.
   168.    179.    169.    185.    158.    168.    175.    167.
   176.    179.    190.    194.    152.    173.    163.    177.
   145.    168.    166.    190.    180.    182.    160.    177.
   173.    183.    186.    157.    174.    167.    179.    187.
   191.    181.    154.    174.    192.    168.    176.    185.
   185.    174.    155.    160.    163.    173.    164.    176.
   167.    183.    163.    175.    197.    165.    168.    186.
   190.    179.    180.    171.    197.    170.    183.    172.
   184.    171.    167.    186.    197.    169.    173.    172.
   189.    203.    173.    182.    173.    174.    162.    166.
   174.    161.    172.    182.    170.    170.    159.    177.
   184.    195.    186.    160.    171.    178.    164.    170.
   194.    184.    180.    176.    190.    191.    205.    194.
   176.    152.    175.    188.    190.    170.    178.    191.
   174.    162.    181.    168.    186.    190.    196.    181.
   170.    177.    169.    191.    198.    164.    152.    197.
   158.    162.    158.    154.    172.    196.    158.    172.
   146.    187.    189.    163.    170.    183.    174.    164.
   166.    186.    186.    173.    169.    171.    182.    168.
   176.    180.    177.    189.    172.    175.    161.    178.
   187.    177.    165.    186.    170.    142.    171.    187.
   157.    172.    168.    155.    155.    187.    178.    156.
   179.    180.    170.    165.    182.    172.    183.    161.
   161.    162.    185.    159.    166.    189.    176.    159.
   158.    156.    158.    175.    183.    176.    180.    185.
   178.    178.    184.    180.    156.    166.    170.    185.
   174.    179.    183.    188.    180.    164.    168.    181.
   183.    155.    190.    192.    164.    185.    171.    183.
   171.    196.    172.    166.    162.    154.    159.    169.
   183.    181.    162.    145.    193.    176.    179.    186.
   166.    188.    179.    160.    158.    166.    161.    158.
   171.    155.    171.    168.    195.    162.    166.    169.
   174.    171.    171.    195.    164.    152.    178.    164.
   180.    186.    169.    175.    167.    182.    179.    192.
   185.    185.    159.    195.    184.    175.    151.    177.
   135.    173.    180.    165.    172.    165.    160.    159.
   183.    176.    172.    161.    149.    171.    163.    188.
   179.    162.    176.    177.    174.    139.    164.    172.
   163.    185.    174.    165.    143.    163.    179.    170.
   154.    160.    160.    158.    156.    150.    154.    157.
   166.    156.    160.    137.    151.    162.    154.    182.
   152.    161.    179.    158.    174.    144.    179.    140.
   173.    154.    160.    182.    152.    159.    178.    168.
   170.    165.    151.    146.    176.    154.    159.    174.
   149.    165.    169.    163.    157.    184.    171.    156.
   158.    164.    171.    159.    171.    181.    142.    173.
   160.    152.    168.    148.    144.    177.    175.    146.
   180.    159.    150.    171.    165.    174.    173.    150.
   148.    175.    164.    164.    157.    154.    161.    154.
   137.    172.    161.    169.    170.    182.    166.    188.
   180.    155.    138.    173.    172.    144.    143.    169.
   164.    160.    166.    165.    155.    166.    181.    163.
   164.    169.    178.    151.    145.    172.    145.    171.
   147.    183.    153.    181.    192.    173.    154.    169.
   157.    188.    165.    159.    157.    169.    172.    194.
   165.    215.    178.    181.    167.    187.    165.    156.
   164.    175.    157.    152.    154.    179.    184.    172.
   155.    161.    171.    162.    161.    166.    181.    178.
   186.    159.    170.    163.    140.    152.    156.    146.
   152.    175.    170.    176.    161.    172.    163.    168.
   173.    158.    187.    186.    159.    146.    149.    143.
   158.    170.    172.    136.    156.    148.    173.    182.
   180.    163.    174.    177.    142.    162.    173.    153.
   150.    165.    174.    168.    160.    157.    173.    147.
   168.    158.    154.    176.    161.    169.    168.    177.
   160.    178.    177.    171.    194.    166.    160.    177.
   153.    153.    170.    170.    162.    181.    166.    170.
   147.    184.    148.    150.    187.    158.    163.    165.
   177.    180.    168.    153.    163.    156.    157.    168.
   164.    156.    158.    164.    168.    170.    174.    155.
   170.    173.    181.    150.    171.    181.    158.    172.
   152.    155.    167.    147.    150.    186.    175.    183.
   149.    158.    162.    149.    154.    178.    182.    168.
   176.    142.    148.    168.    157.    190.    160.    147.
   122.    168.    177.    177.    181.    161.    158.    166.
   158.    170.    185.    186.    177.    131.    166.    176.
   175.    183.    151.    159.    194.    169.    166.    178.
   161.    165.    168.    168.    176.    186.    160.    163.
   184.    174.    175.    161.    169.    180.    205.    149.
   173.    167.    179.    184.    180.    171.    168.    152.
   194.    176.    188.    177.    162.    168.    152.    174.
   157.    173.    166.    165.    170.    164.    148.    149.
   159.    160.    146.    183.    149.    165.    191.    165.
   159.    164.    170.    172.    181.    171.    163.    169.
   173.    163.    160.    169.    164.    174.    175.    175.
   151.    159.    162.    173.    177.    170.    164.    181.
   168.    176.    155.    162.    168.    170.    168.    174.
   186.    195.    164.    178.    168.    170.    180.    174.
   177.    144.    159.    168.    156.    162.    177.    174.
   193.    168.    178.    167.    162.    182.    167.    166.
   179.    165.    179.    195.    169.    149.    161.    187.
   182.    152.    175.    159.    156.    162.    161.    184.
   177.    179.    182.    160.    165.    162.    162.    171.
   163.    168.    176.    167.    175.    160.    173.    169.
   175.    199.    174.    156.    147.    180.    160.    166.
   168.    169.    164.    176.    165.    169.    166.    128.
   156.    153.    164.    161.    168.    181.    153.    162.
   181.    189.    177.    178.    153.    166.    167.    185.
   184.    176.    175.    165.    173.    166.    177.    171.
   189.    165.    178.    177.    186.    179.    160.    166.
   141.    179.    145.    163.    188.    203.    182.    186.
   174.    179.    186.    164.    182.    191.    177.    197.
   172.    178.    194.    164.    187.    169.    181.    172.
   182.    191.    183.    172.    185.    187.    158.    177.
   176.    174.    185.    172.    184.    168.    197.    185.
   177.    169.    195.    176.    164.    141.    162.    164.
   146.    176.    187.    162.    156.    189.    153.    160.
   172.    169.    163.    175.    177.    170.    158.    165.
   162.    167.    207.    170.    186.    161.    154.    171.
   165.    155.    169.    177.    175.    171.    187.    179.
   181.    170.    182.    151.    163.    164.    184.    165.
   147.    181.    160.    165.    156.    151.    163.    165.
   153.    164.    164.    168.    152.    167.    142.    156.
   184.    159.    156.    169.    180.    162.    161.    174.
   159.    163.    144.    161.    153.    144.    130.    182.
   154.    148.    171.    156.    156.    185.    180.    162.
   155.    157.    181.    151.    142.    160.    153.    136.
   164.    166.    166.    152.    155.    168.    172.    174.
   165.    173.    165.    167.    143.    170.    169.    175.
   163.    174.    174.    162.    149.    160.    166.    178.
   161.    185.    181.    180.    165.    157.    153.    178.
   186.    173.    151.    168.    161.    188.    174.    167.
   144.    175.    174.    176.    173.    165.    177.    176.
   190.    167.    156.    187.    188.    191.    166.    154.
   172.    174.    164.    161.    163.    158.    204.    180.
   164.    167.    186.    192.    186.    165.    180.    185.
   194.    177.    173.    193.    188.    154.    176.    177.
   207.    173.    176.    176.    165.    192.    163.    170.
   171.    161.    163.    165.    177.    159.    167.    173.
   147.    166.    168.    168.    183.    153.    169.    161.
   143.    155.    176.    146.    153.    151.    173.    138.
   151.    182.    162.    166.    160.    163.    164.    199.
   180.    163.    180.    182.    160.    192.    145.    175.
   189.    180.    174.    181.    163.    152.    161.    167.
   160.    183.    173.    190.    179.    161.    158.    181.
   179.    175.    177.    182.    181.    184.    162.    170.
   175.    211.    159.    170.    173.    194.    183.    188.
   174.    168.    172.    160.    168.    163.    196.    174.
   179.    153.    171.    165.    202.    189.    177.    185.
   177.    166.    184.    186.    177.    201.    207.    177.
   186.    182.    178.    187.    200.    170.    194.    189.
   194.    181.    192.    163.    184.    170.    177.    163.
   201.    195.    179.    163.    184.    167.    172.    149.
   177.    174.    152.    201.    180.    156.    161.    147.
   172.    165.    179.    174.    171.    131.    147.    177.
   192.    168.    155.    162.    163.    148.    183.    169.
   168.    188.    156.    177.    171.    166.    189.    180.
   163.    161.    185.    174.    166.    173.    166.    148.
   159.    161.    155.    172.    164.    173.    142.    174.
   166.    159.    167.    165.    167.    147.    157.    136.
   153.    142.    181.    160.    144.    189.    179.    161.
   176.    148.    164.    150.    154.    156.    169.    157.
   161.    169.    141.    174.    177.    155.    181.    156.
   164.    178.    155.    149.    169.    159.    164.    157.
   183.    144.    161.    149.    183.    153.    148.    164.
   162.    164.    170.    181.    148.    143.    163.    163.
   175.    157.    165.    165.    171.    162.    190.    173.
   164.    149.    183.    152.    142.    151.    145.    145.
   170.    161.    183.    162.    144.    149.    151.    170.
   151.    162.    159.    166.    145.    179.    140.    151.
   179.    157.    160.    163.    148.    154.    159.    141.
   164.    147.    154.    160.    153.    162.    163.    152.
   144.    194.    173.    156.    165.    177.    185.    157.
   165.    161.    159.    160.    188.    165.    154.    154.
   165.    180.    168.    168.    160.    156.    158.    170.
   161.    163.    161.    163.    154.    173.    163.    162.
   170.    169.    166.    154.    148.    179.    153.    175.
   164.    154.    156.    165.    157.    150.    148.    175.
   170.    166.    155.    158.    153.    152.    162.    158.
   162.    149.    167.    166.    148.    171.    141.    142.
   158.    136.    149.    153.    160.    169.    173.    175.
   168.    153.    164.    174.    147.    135.    155.    150.
   143.    161.    149.    151.    175.    166.    156.    129.
   152.    174.    135.    147.    164.    165.    153.    156.
   158.    159.    174.    156.    166.    168.    182.    160.
   140.    144.    135.    156.    149.    163.    161.    162.
   150.    153.    168.    141.    167.    142.    161.    168.
   161.    144.    147.    180.    132.    143.    170.    153.
   157.    141.    171.    149.    181.    166.    148.    137.
   164.    163.    166.    156.    176.    173.    169.    166.
   154.    191.    147.    160.    146.    144.    152.    161.
   166.    158.    147.    162.    172.    156.    155.    145.
   146.    141.    174.    162.    170.    159.    163.    165.
   159.    171.    158.    143.    149.    171.    163.    166.
   160.    154.    148.    155.    171.    161.    164.    157.
   160.    172.    180.    147.    146.    149.    172.    183.
   162.    148.    170.    155.    174.    143.    156.    164.
   181.    185.    178.    166.    169.    149.    185.    162.
   164.    154.    168.    179.    175.    176.    163.    164.
   172.    175.    198.    160.    159.    174.    163.    162.
   161.    147.    154.    144.    144.    145.    153.    148.
   170.    165.    164.    137.    186.    157.    162.    166.
   149.    172.    165.    173.    169.    165.    165.    169.
   177.    176.    145.    153.    164.    155.    165.    169.
   145.    155.    165.    154.    150.    148.    161.    176.
   175.    156.    156.    131.    159.    139.    172.    157.
   159.    163.    173.    141.    181.    171.    166.    175.
   163.    155.    145.    145.    142.    159.    168.    170.
   174.    157.    182.    170.    166.    167.    181.    176.
   158.    151.    151.    164.    160.    168.    142.    157.
   151.    170.    163.    149.    143.    159.    157.    153.
   178.    152.    166.    180.    179.    159.    157.    164.
   152.    170.    169.    164.    164.    168.    168.    145.
   157.    154.    149.    175.    162.    156.    147.    146.
   165.    186.    167.    172.    138.    162.    170.    154.
   163.    169.    150.    143.    133.    156.    149.    164.
   156.    166.    150.    163.    161.    149.    133.    131.
   148.    159.    128.    152.    148.    164.    125.    141.
   132.    158.    147.    163.    143.    151.    165.    165.
   161.    144.    145.    156.    166.    165.    160.    173.
   155.    158.    152.    158.    159.    160.    154.    160.
   152.    179.    159.    166.    146.    141.    154.    144.
   151.    150.    140.    154.    151.    155.    161.    171.
   156.    139.    131.    152.    157.    163.    150.    177.
   164.    170.    154.    162.    158.    162.    150.    141.
   142.    151.    160.    160.    144.    171.    147.    155.
   170.    178.    152.    174.    156.    160.    175.    159.
   166.    166.    164.    165.    139.    149.    154.    163.
   153.    177.    159.    158.    157.    153.    165.    148.
   142.    177.    164.    155.    160.    152.    158.    157.
   171.    156.    156.    156.    150.    172.    152.    159.
   170.    182.    168.    158.    145.    161.    168.    157.
   155.    154.    145.    156.    152.    166.    169.    149.
   161.    148.    148.    158.    172.    154.    159.    157.
   151.    154.    149.    161.    149.    158.    157.    144.
   161.    150.    163.    170.    137.    163.    154.    153.
   144.    172.    156.    153.    141.    169.    155.    168.
   159.    149.    159.    160.    156.    148.    154.    165.
   143.    158.    142.    134.    159.    160.    169.    167.
   146.    149.    156.    171.    141.    162.    178.    160.
   171.    161.    140.    144.    182.    159.    147.    196.
   183.    147.    161.    172.    164.    161.    171.    150.
   134.    157.    175.    181.    164.    153.    138.    168.
   159.    163.    172.    145.    146.    155.    171.    145.
   164.    149.    172.    169.    153.    147.    172.    181.
   179.    176.    174.    181.    191.    196.    177.    185.
   191.    183.    171.    204.    189.    164.    170.    185.
   170.    185.    170.    150.    165.    156.    175.    178.
   164.    143.    159.    155.    150.    185.    142.    161.
   157.    173.    170.    166.    162.    161.    160.    151.
   136.    167.    167.    156.    149.    146.    153.    151.
   157.    152.    154.    169.    147.    142.    160.    153.
   152.    167.    182.    169.    124.    141.    140.    154.
   153.    178.    175.    146.    152.    140.    149.    154.
   160.    164.    145.    142.    154.    143.    160.    139.
   156.    142.    135.    160.    145.    148.    155.    175.
   177.    143.    145.    163.    159.    130.    140.    158.
   162.    150.    151.    162.    134.    131.    158.    158.
   149.    163.    138.    135.    151.    172.    161.    141.
   158.    144.    153.    138.    153.    149.    154.    179.
   172.    141.    161.    161.    157.    143.    162.    130.
   154.    192.    144.    153.    150.    157.    139.    163.
   154.    161.    147.    164.    147.    158.    160.    165.
   172.    168.    165.    145.    155.    146.    162.    163.
   153.    174.    151.    156.    158.    136.    161.    139.
   165.    169.    163.    162.    157.    186.    170.    124.
   151.    162.    167.    152.    161.    169.    147.    147.
   176.    166.    157.    130.    140.    157.    160.    159.
   155.    143.    158.    184.    168.    153.    181.    167.
   163.    160.    156.    157.    156.    149.    158.    154.
   163.    172.    168.    164.    166.    161.    144.    177.
   170.    175.    151.    150.    161.    163.    140.    181.
   166.    158.    148.    154.    173.    165.    171.    172.
   173.    159.    172.    157.    163.    174.    167.    169.
   142.    145.    154.    140.    169.    171.    154.    153.
   162.    156.    140.    162.    150.    156.    146.    145.
   171.    154.    177.    168.    158.    147.    171.    160.
   160.    147.    153.    154.    176.    149.    157.    140.
   149.    174.    160.    164.    165.    138.    167.    160.
   163.    170.    142.    146.    164.    173.    154.    160.
   166.    171.    171.    163.    149.    148.    143.    180.
   154.    179.    177.    165.    183.    151.    162.    169.
   150.    178.    166.    178.    159.    166.    154.    158.
   170.    151.    183.    171.    178.    173.    175.    168.
   178.    174.    180.    175.    168.    155.    153.    131.
   157.    150.    169.    166.    161.    170.    159.    150.
   173.    157.    152.    174.    149.    166.    157.    167.
   163.    152.    155.    162.    169.    154.    158.    153.
   144.    161.    162.    154.    170.    152.    174.    159.
   150.    139.    143.    146.    165.    166.    161.    163.
   146.    153.    162.    159.    190.    146.    164.    166.
   167.    173.    143.    181.    179.    154.    178.    173.
   181.    168.    161.    174.    147.    135.    139.    163.
   167.    162.    148.    146.    161.    155.    149.    151.
   154.    147.    166.    151.    166.    140.    132.    153.
   158.    150.    166.    154.    142.    153.    154.    158.
   148.    147.    149.    169.    149.    169.    164.    152.
   178.    148.    174.    148.    163.    139.    142.    128.
   176.    180.    144.    145.    156.    143.    157.    170.
   170.    161.    164.    170.    163.    166.    150.    140.
   165.    145.    137.    159.    166.    157.    181.    161.
   133.    153.    161.    178.    168.    159.    159.    168.
   155.    153.    156.    163.    137.    181.    169.    164.
   172.    149.    164.    173.    157.    165.    160.    159.
   148.    170.    153.    171.    174.    144.    161.    160.
   159.    170.    174.    140.    153.    143.    177.    149.
   159.    132.    165.    159.    149.    158.    172.    171.
   160.    167.    170.    169.    179.    155.    175.    156.
   159.    166.    172.    163.    153.    142.    144.    140.
   159.    140.    150.    158.    171.    182.    150.    172.
   172.    167.    167.    163.    166.    138.    143.    154.
   142.    163.    162.    171.    146.    152.    172.    152.
   171.    155.    147.    162.    141.    144.    143.    162.
   181.    183.    146.    154.    169.    162.    160.    177.
   150.    171.    149.    144.    151.    147.    176.    166.
   158.    159.    146.    175.    157.    152.    160.    126.
   163.    139.    162.    169.    167.    164.    128.    169.
   155.    136.    165.    151.    132.    145.    157.    138.
   148.    150.    134.    141.    169.    161.    137.    192.
   169.    167.    151.    163.    143.    155.    146.    147.
   148.    144.    193.    160.    151.    131.    161.    152.
   126.    154.    158.    147.    164.    167.    159.    169.
   154.    146.    150.    154.    167.    146.    175.    175.
   162.    153.    153.    166.    163.    155.    168.    155.
   154.    163.    145.    157.    154.    164.    161.    167.
   150.    149.    144.    139.    168.    159.    174.    173.
   155.    145.    156.    163.    160.    143.    162.    174.
   164.    169.    151.    186.    153.    171.    167.    168.
   145.    152.    165.    168.    135.    154.    164.    145.
   145.    172.    157.    153.    148.    144.    174.    162.
   188.    153.    158.    144.    130.    154.    165.    176.
   146.    146.    191.    143.    184.    176.    160.    124.
   149.    156.    170.    147.    176.    169.    160.    163.
   165.    149.    179.    145.    190.    167.    161.    143.
   152.    166.    144.    150.    160.    160.    152.    147.
   183.    173.    165.    146.    172.    144.    159.    148.
   155.    171.    173.    177.    164.    169.    163.    167.
   159.    183.    190.    175.    179.    181.    152.    156.
   166.    162.    157.    176.    170.    156.    175.    139.
   153.    166.    152.    152.    161.    171.    154.    160.
   185.    179.    181.    187.    199.    171.    166.    163.
   179.    170.    137.    142.    169.    157.    179.    169.
   161.    179.    164.    178.    177.    157.    171.    161.
   153.    159.    166.    161.    143.    155.    137.    148.
   167.    181.    170.    175.    172.    161.    169.    162.
   185.    165.    152.    151.    138.    176.    165.    146.
   165.    178.    156.    169.    158.    169.    164.    150.
   154.    179.    184.    160.    175.    143.    173.    162.
   152.    179.    165.    146.    152.    152.    162.    171.
   162.    173.    159.    175.    171.    177.    172.    134.
   158.    155.    169.    152.    145.    155.    168.    166.
   171.    165.    168.    157.    154.    150.    160.    140.
   155.    156.    166.    169.    163.    153.    151.    153.
   155.    180.    167.    152.    158.    194.    151.    161.
   158.    157.    138.    158.    173.    147.    187.    171.
   159.    168.    175.    149.    138.    148.    159.    142.
   164.    158.    147.    157.    157.    141.    151.    179.
   121.    157.    165.    174.    166.    172.    156.    159.
   174.    191.    148.    160.    139.    150.    148.    161.
   139.    148.    163.    151.    167.    159.    152.    176.
   157.    158.    168.    149.    143.    162.    150.    149.
   162.    165.    153.    173.    144.    165.    158.    160.
   159.    181.    148.    158.    157.    164.    155.    173.
   152.    167.    161.    141.    167.    161.    162.    167.
   158.    167.    159.    173.    165.    161.    144.    163.
   161.    153.    150.    144.    161.    179.    164.    152.
   169.    153.    154.    157.    151.    169.    174.    182.
   155.    144.    157.    173.    166.    148.    143.    159.
   145.    151.    140.    148.    153.    153.    164.    161.
   142.    152.    169.    144.    161.    162.    162.    155.
   145.    132.    158.    171.    184.    183.    143.    163.
   156.    172.    152.    164.    166.    160.    156.    152.
   155.    163.    150.    143.    146.    160.    165.    150.
   161.    150.    163.    142.    160.    153.    170.    156.
   124.    162.    152.    160.    174.    152.    167.    172.
   167.    164.    156.    138.    152.    143.    171.    152.
   169.    158.    130.    164.    139.    144.    157.    159.
   148.    130.    165.    154.    158.    154.    155.    146.
   158.    148.    151.    172.    173.    155.    152.    162.
   132.    151.    174.    139.    138.    145.    152.    141.
   163.    156.    167.    146.    151.    144.    132.    153.
   150.    167.    131.    167.    145.    153.    162.    140.
   146.    179.    144.    161.    174.    143.    157.    146.
   165.    140.    143.    166.    152.    149.    139.    168.
   167.    146.    152.    146.    146.    145.    144.    148.
   153.    156.    164.    146.    148.    151.    162.    167.
   150.    149.    141.    138.    140.    141.    142.    145.
   175.    161.    155.    171.    146.    158.    138.    170.
   164.    143.    156.    156.    149.    145.    146.    148.
   164.    165.    166.    141.    176.    168.    139.    145.
   157.    153.    160.    141.    144.    168.    145.    161.
   163.    161.    150.    147.    149.    161.    149.    148.
   150.    138.    154.    156.    165.    149.    132.    170.
   152.    169.    142.    157.    176.    151.    153.    168.
   163.    165.    155.    176.    169.    160.    152.    168.
   146.    150.    152.    161.    134.    157.    171.    155.
   147.    157.    146.    155.    156.    178.    166.    170.
   169.    165.    151.    157.    161.    163.    162.    144.
   149.    128.    139.    174.    159.    136.    163.    157.
   144.    173.    137.    137.    150.    160.    149.    160.
   159.    158.    147.    180.    158.    160.    157.    143.
   154.    148.    165.    140.    164.    163.    150.    172.
   173.    177.    185.    142.    168.    169.    160.    168.
   174.    164.    154.    149.    160.    163.    158.    174.
   170.    181.    164.    172.    161.    164.    142.    162.
   151.    166.    147.    152.    179.    148.    167.    159.
   164.    171.    175.    159.    170.    166.    172.    155.
   145.    170.    177.    150.    144.    162.    163.    154.
   169.    167.    158.    185.    134.    151.    172.    143.
   162.    152.    172.    153.    160.    153.    141.    161.
   169.    140.    167.    158.    172.    151.    163.    132.
   162.    169.    143.    147.    176.    151.    184.    163.
   171.    164.    182.    139.    143.    146.    139.    151.
   178.    146.    162.    152.    153.    150.    156.    153.
   157.    155.    144.    179.    157.    167.    142.    167.
   158.    162.    145.    141.    151.    139.    148.    149.
   148.    175.    149.    129.    152.    159.    152.    154.
   139.    141.    129.    146.    157.    148.    157.    162.
   159.    157.    142.    141.    158.    160.    161.    148.
   149.    137.    164.    145.    150.    123.    163.    179.
   149.    155.    131.    158.    155.    136.    135.    145.
   157.    157.    167.    155.    159.    137.    152.    147.
   152.    145.    140.    166.    147.    124.    141.    154.
   154.    135.    146.    150.    162.    161.    121.    154.
   153.    160.    165.    154.    157.    158.    150.    151.
   143.    162.    173.    155.    125.    162.    155.    153.
   134.    135.    164.    149.    162.    140.    141.    160.
   168.    169.    147.    141.    163.    150.    135.    142.
   148.    142.    145.    159.    150.    148.    159.    129.
   160.    155.    138.    127.    160.    145.    169.    160.
   150.    156.    156.    158.    129.    128.    127.    148.
   145.    138.    136.    133.    158.    151.    146.    154.
   143.    158.    142.    161.    171.    137.    136.    131.
   126.    140.    153.    145.    142.    145.    128.    138.
   146.    148.    158.    140.    146.    144.    147.    152.
   170.    148.    151.    136.    149.    147.    159.    172.
   158.    150.    159.    149.    153.    140.    159.    129.
   128.    146.    151.    157.    142.    150.    131.    185.
   148.    153.    148.    135.    158.    143.    139.    141.
   154.    155.    146.    166.    145.    151.    126.    145.
   141.    142.    141.    147.    118.    139.    130.    153.
   149.    146.    123.    164.    148.    159.    131.    151.
   142.    142.    125.    153.    166.    162.    183.    144.
   134.    138.    144.    139.    164.    151.    134.    144.
   163.    143.    123.    148.    147.    142.    143.    123.
   139.    137.    133.    135.    129.    143.    119.    121.
   157.    126.    140.    154.    158.    154.    161.    146.
   139.    148.    134.    143.    147.    137.    165.    134.
   149.    151.    139.    137.    138.    146.    146.    139.
   148.    156.    133.    131.    123.    144.    146.    176.
   155.    130.    132.    140.    143.    149.    139.    143.
   142.    136.    144.    135.    147.    153.    142.    153.
   139.    166.    138.    129.    132.    145.    127.    153.
   145.    129.    146.    143.    159.    152.    152.    149.
   146.    152.    154.    164.    153.    129.    149.    142.
   129.    149.    149.    149.    145.    153.    141.    159.
   145.    160.    148.    146.    151.    145.    162.    162.
   147.    143.    158.    161.    150.    159.    140.    146.
   163.    123.    150.    170.    144.    139.    142.    153.
   145.    135.    140.    174.    148.    148.    128.    148.
   158.    162.    153.    150.    142.    150.    153.    166.
   146.    158.    154.    148.    173.    133.    136.    141.
   178.    160.    157.    142.    136.    157.    150.    161.
   131.    148.    144.    161.    178.    142.    131.    136.
   144.    146.    178.    165.    160.    157.    141.    138.
   148.    148.    160.    159.    166.    157.    151.    160.
   152.    149.    143.    141.    148.    145.    141.    168.
   164.    149.    182.    129.    142.    151.    149.    161.
   145.    147.    144.    157.    120.    150.    118.    151.
   137.    145.    143.    132.    144.    145.    147.    151.
   142.    138.    139.    132.    143.    158.    155.    135.
   142.    142.    147.    129.    145.    149.    138.    139.
   132.    131.    148.    137.    124.    161.    153.    164.
   155.    144.    142.    122.    158.    140.    137.    128.
   129.    154.    137.    140.    146.    143.    117.    125.
   119.    138.    135.    130.    131.    124.    151.    143.
   153.    145.    145.    152.    139.    144.    133.    145.
   150.    149.    153.    142.    149.    164.    134.    146.
   134.    154.    146.    142.    154.    158.    142.    123.
   134.    156.    135.    147.    118.    151.    153.    134.
   136.    148.    134.    130.    147.    138.    154.    143.
   140.    158.    138.    137.    141.    136.    140.    153.
   132.    141.    150.    145.    140.    141.    147.    146.
   140.    136.    144.    145.    149.    137.    139.    140.
   148.    151.    130.    143.    165.    137.    145.    164.
   131.    168.    161.    160.    159.    158.    164.    150.
   154.    136.    147.    148.    169.    165.    159.    202.
   166.    162.    152.    172.    154.    158.    155.    175.
   157.    153.    159.    160.    154.    142.    151.    137.
   161.    149.    154.    147.    140.    142.    159.    149.
   162.    158.    138.    165.    153.    128.    133.    144.
   139.    177.    161.    148.    150.    155.    143.    143.
   147.    140.    151.    137.    148.    153.    163.    150.
   148.    140.    148.    135.    155.    167.    142.    118.
   149.    142.    149.    151.    146.    156.    150.    152.
   145.    151.    148.    144.    165.    146.    146.    141.
   142.    148.    131.    122.    156.    137.    146.    147.
   148.    142.    136.    131.    140.    147.    144.    134.
   134.    125.    162.    163.    142.    131.    138.    136.
   144.    155.    156.    153.    150.    143.    142.    134.
   153.    156.    153.    160.    131.    134.    142.    139.
   155.    141.    166.    153.    163.    152.    135.    153.
   154.    159.    141.    142.    138.    127.    139.    138.
   170.    164.    165.    132.    137.    145.    153.    120.
   130.    157.    120.    147.    145.    134.    133.    144.
   149.    126.    143.    159.    141.    146.    153.    159.
   153.    163.    141.    161.    153.    162.    143.    136.
   152.    136.    142.    131.    120.    125.    138.    152.
   151.    150.    164.    152.    160.    142.    137.    157.
   137.    149.    148.    151.    152.    137.    140.    145.
   144.    152.    154.    148.    143.    157.    145.    168.
   146.    140.    142.    156.    141.    134.    152.    162.
   161.    159.    152.    142.    128.    155.    153.    133.
   142.    165.    171.    169.    136.    128.    135.    138.
   143.    140.    140.    173.    165.    137.    141.    168.
   146.    121.    136.    140.    155.    161.    147.    143.
   144.    143.    162.    151.    134.    155.    168.    132.
   147.    167.    169.    153.    171.    158.    137.    141.
   137.    166.    149.    149.    151.    169.    143.    145.
   146.    157.    174.    177.    174.    147.    160.    157.
   135.    147.    164.    171.    156.    155.    155.    163.
   170.    140.    156.    142.    149.    136.    149.    149.
   157.    142.    159.    141.    185.    150.    170.    160.
   141.    154.    152.    169.    160.    135.    152.    153.
   176.    149.    160.    143.    151.    146.    149.    157.
   150.    149.    149.    139.    142.    163.    146.    141.
   150.    146.    130.    145.    169.    144.    174.    139.
   135.    154.    155.    145.    142.    138.    142.    164.
   129.    157.    146.    145.    126.    134.    142.    127.
   150.    148.    145.    147.    173.    152.    170.    149.
   152.    163.    135.    141.    126.    136.    135.    149.
   156.    137.    137.    145.    132.    156.    145.    137.
   139.    156.    167.    143.    159.    137.    139.    139.
   134.    151.    167.    152.    156.    152.    157.    156.
   156.    147.    148.    156.    166.    152.    141.    148.
   146.    137.    129.    126.    157.    152.    153.    140.
   141.    133.    141.    139.    149.    142.    127.    139.
   143.    157.    142.    156.    138.    144.    127.    138.
   151.    135.    149.    127.    157.    152.    158.    143.
   134.    154.    132.    143.    123.    137.    144.    136.
   141.    137.    132.    139.    167.    148.    138.    138.
   153.    124.    154.    125.    134.    119.    150.    150.
   164.    132.    147.    127.    157.    144.    164.    158.
   137.    148.    163.    143.    140.    137.    138.    138.
   140.    154.    139.    154.    146.    143.    142.    153.
   166.    166.    155.    150.    149.    157.    143.    156.
   150.    163.    148.    155.    166.    153.    139.    157.
   136.    139.    148.    142.    178.    149.    142.    155.
   156.    154.    157.    167.    135.    150.    134.    145.
   167.    145.    153.    155.    147.    150.    156.    142.
   144.    136.    169.    162.    166.    151.    155.    141.
   152.    165.    164.    166.    118.    133.    135.    131.
   168.    130.    154.    157.    128.    146.    143.    141.
   161.    146.    154.    151.    122.    144.    133.    141.
   137.    139.    167.    151.    155.    125.    143.    169.
   140.    167.    167.    143.    155.    166.    153.    159.
   131.    143.    151.    165.    141.    143.    133.    146.
   133.    159.    159.    130.    152.    157.    141.    169.
   146.    140.    144.    143.    163.    134.    154.    141.
   164.    146.    147.    161.    138.    137.    146.    141.
   166.    138.    153.    150.    169.    130.    150.    155.
   145.    146.    145.    135.    152.    140.    132.    150.
   127.    147.    123.    112.    142.    128.    143.    139.
   178.    137.    136.    141.    122.    154.    139.    138.
   148.    148.    154.    152.    130.    148.    139.    152.
   163.    148.    137.    134.    131.    158.    152.    131.
   141.    131.    125.    141.    136.    142.    115.    147.
   146.    122.    149.    141.    135.    149.    131.    156.
   136.    138.    146.    144.    158.    155.    141.    153.
   133.    149.    142.    131.    151.    151.    144.    154.
   150.    131.    148.    140.    156.    132.    145.    141.
   159.    118.    143.    143.    150.    147.    121.    144.
   146.    166.    128.    141.    149.    153.    156.    146.
   154.    131.    138.    141.    129.    157.    135.    158.
   156.    159.    120.    146.    163.    146.    135.    144.
   147.    160.    128.    147.    141.    125.    144.    135.
   139.    136.    167.    144.    151.    148.    135.    141.
   148.    161.    143.    153.    128.    163.    140.    166.
   166.    145.    133.    149.    154.    167.    133.    163.
   143.    136.    130.    132.    123.    144.    137.    140.
   149.    155.    157.    133.    138.    145.    150.    166.
   155.    140.    147.    158.    141.    162.    150.    148.
   167.    138.    148.    164.    148.    138.    166.    147.
   129.    162.    148.    152.    149.    163.    143.    157.
   126.    164.    143.    154.    149.    133.    137.    146.
   174.    152.    132.    131.    122.    133.    155.    143.
   161.    159.    138.    151.    144.    135.    161.    144.
   137.    129.    157.    167.    149.    144.    144.    160.
   179.    151.    133.    145.    155.    145.    147.    162.
   124.    168.    155.    163.    142.    154.    144.    143.
   153.    133.    155.    143.    145.    160.    128.    163.
   169.    141.    149.    163.    158.    145.    133.    158.
   166.    151.    142.    144.    167.    168.    171.    138.
   154.    166.    175.    164.    161.    165.    157.    151.
   166.    152.    150.    124.    135.    123.    139.    147.
   134.    166.    136.    153.    149.    142.    153.    144.
   168.    148.    135.    146.    136.    158.    162.    160.
   160.    149.    150.    119.    152.    133.    154.    156.
   140.    151.    140.    143.    149.    139.    136.    142.
   133.    146.    143.    145.    151.    161.    139.    122.
   146.    132.    147.    157.    158.    133.    138.    169.
   146.    153.    141.    138.    140.    139.    140.    162.
   144.    149.    156.    133.    150.    138.    126.    160.
   141.    139.    147.    147.    152.    140.    150.    158.
   141.    130.    144.    127.    142.    151.    141.    119.
   142.    154.    152.    154.    139.    159.    134.    135.
   155.    144.    133.    138.    136.    139.    149.    152.
   139.    155.    135.    140.    144.    133.    161.    142.
   133.    141.    136.    153.    138.    145.    145.    153.
   125.    156.    142.    140.    151.    173.    129.    134.
   130.    125.    150.    159.    151.    134.    143.    140.
   128.    135.    147.    143.    141.    140.    154.    136.
   144.    142.    140.    143.    142.    144.    161.    142.
   117.    144.    143.    118.    163.    147.    133.    128.
   130.    126.    144.    132.    149.    164.    119.    156.
   130.    144.    134.    145.    150.    141.    153.    155.
   146.    165.    139.    149.    132.    156.    138.    111.
   126.    131.    156.    152.    140.    134.    138.    152.
   161.    152.    140.    155.    163.    140.    148.    157.
   130.    148.    122.    147.    129.    154.    164.    133.
   155.    151.    160.    144.    138.    147.    131.    153.
   141.    154.    146.    135.    170.    152.    136.    137.
   146.    148.    154.    158.    181.    159.    157.    179.
   168.    167.    162.    154.    146.    168.    152.    146.
   149.    146.    166.    157.    159.    144.    157.    146.
   149.    151.    153.    145.    138.    153.    145.    142.
   156.    183.    131.    160.    153.    163.    140.    142.
   151.    139.    159.    162.    157.    125.    135.    154.
   171.    136.    136.    137.    131.    158.    147.    139.
   134.    158.    145.    153.    144.    141.    138.    149.
   137.    151.    138.    154.    143.    151.    148.    156.
   133.    139.    161.    133.    128.    140.    152.    147.
   128.    146.    127.    146.    125.    135.    137.    152.
   153.    161.    135.    127.    150.    129.    146.    142.
   138.    161.    142.    156.    154.    144.    135.    153.
   135.    164.    152.    133.    145.    121.    148.    161.
   141.    152.    146.    137.    124.    157.    141.    142.
   138.    167.    157.    163.    141.    129.    140.    143.
   129.    140.    166.    159.    172.    143.    149.    165.
   147.    164.    149.    170.    148.    149.    166.    156.
   146.    167.    142.    149.    150.    145.    139.    127.
   139.    153.    151.    148.    150.    157.    144.    139.
   138.    145.    131.    147.    137.    135.    136.    127.
   135.    147.    142.    141.    158.    147.    141.    140.
   146.    134.    145.    139.    133.    128.    159.    178.
   132.    141.    158.    142.    153.    132.    155.    151.
   129.    158.    156.    175.    128.    142.    140.    135.
   127.    128.    143.    177.    177.    154.    154.    150.
   144.    137.    143.    134.    143.    136.    152.    165.
   148.    148.    136.    152.    144.    136.    142.    141.
   159.    134.    118.    130.    154.    145.    154.    154.
   145.    144.    139.    147.    129.    140.    146.    174.
   148.    149.    130.    146.    146.    124.    137.    134.
   162.    149.    140.    143.    136.    137.    147.    124.
   166.    127.    170.    149.    149.    129.    148.    127.
   152.    135.    152.    128.    176.    158.    124.    175.
   168.    136.    138.    150.    154.    138.    133.    129.
   137.    129.    149.    156.    146.    149.    157.    155.
   164.    139.    134.    161.    149.    159.    131.    157.
   147.    139.    137.    150.    148.    154.    139.    127.
   121.    136.    134.    154.    152.    146.    143.    143.
   167.    150.    145.    144.    154.    140.    145.    142.
   143.    143.    138.    141.    154.    136.    134.    171.
   144.    130.    155.    145.    145.    133.    159.    165.
   145.    153.    149.    140.    155.    128.    156.    126.
   145.    147.    148.    133.    149.    149.    135.    143.
   137.    147.    136.    139.    137.    155.    136.    145.
   147.    144.    144.    158.    140.    140.    126.    134.
   137.    137.    158.    139.    130.    156.    136.    145.
   146.    138.    150.    152.    145.    149.    142.    133.
   120.    148.    146.    147.    145.    139.    128.    141.
   139.    141.    156.    134.    144.    144.    132.    125.
   143.    147.    138.    139.    135.    146.    154.    142.
   140.    142.    137.    138.    134.    134.    111.    144.
   139.    154.    151.    145.    136.    165.    141.    142.
   154.    124.    131.    140.    149.    143.    134.    133.
   138.    132.    131.    136.    159.    147.    149.    153.
   142.    159.    137.    126.    149.    151.    147.    142.
   135.    146.    155.    141.    143.    155.    134.    141.
   151.    142.    134.    129.    118.    132.    122.    138.
   126.    153.    156.    140.    132.    139.    149.    129.
   136.    125.    146.    120.    155.    130.    131.    135.
   132.    140.    142.    150.    149.    135.    128.    145.
   128.    132.    134.    157.    155.    154.    123.    159.
   140.    145.    145.    141.    154.    129.    127.    145.
   138.    146.    141.    157.    138.    121.    132.    138.
   141.    134.    123.    154.    144.    129.    136.    125.
   142.    135.    145.    145.    139.    132.    138.    127.
   138.    131.    141.    120.    141.    140.    138.    131.
   144.    138.    140.    132.    131.    149.    144.    136.
   141.    144.    156.    130.    142.    152.    143.    129.
   145.    120.    135.    146.    150.    139.    161.    123.
   147.    135.    109.    125.    128.    142.    161.    139.
   140.    123.    134.    146.    154.    149.    136.    112.
   151.    129.    128.    148.    134.    135.    126.    129.
   141.    128.    124.    133.    119.    144.    152.    146.
   131.    128.    154.    132.    129.    138.    143.    142.
   137.    139.    163.    121.    133.    139.    136.    132.
   154.    130.    132.    143.    137.    146.    128.    138.
   114.    126.    127.    130.    127.    136.    120.    156.
   150.    133.    132.    126.    137.    159.    137.    131.
   133.    137.    145.    131.    123.    144.    135.    140.
   126.    114.    145.    121.    141.    135.    109.    145.
   146.    112.    132.    149.    145.    154.    128.    140.
   145.    158.    144.    137.    142.    134.    138.    125.
   132.    139.    142.    138.    131.    138.    137.    149.
   120.    139.    129.    141.    131.    140.    144.    135.
   136.    128.    134.    140.    111.    122.    136.    130.
   167.    124.    109.    130.    136.    166.    134.    133.
   111.    127.    114.    172.    138.    145.    135.    134.
   150.    152.    148.    126.    143.    133.    137.    143.
   135.    138.    120.    142.    153.    149.    131.    149.
   150.    154.    143.    134.    138.    135.    146.    148.
   130.    144.    149.    140.    138.    116.    142.    109.
   140.    147.    133.    151.    170.    122.    116.    139.
   141.    111.    143.    160.    138.    138.    145.    148.
   131.    127.    129.    139.    142.    148.    130.    148.
   150.    140.    138.    139.    136.    149.    128.    131.
   151.    127.    147.    140.    116.    111.    138.    144.
   123.    133.    129.    117.    127.    140.    133.    146.
   153.    141.    136.    132.    143.    142.    141.    139.
   146.    147.    115.    125.    137.    151.    145.    136.
   136.    129.    143.    129.    119.    150.    133.    143.
   121.    137.    125.    121.    131.    138.    136.    136.
   126.    146.    147.    135.    133.    134.    138.    139.
   158.    124.    136.    125.    146.    119.    130.    133.
   138.    141.    134.    135.    137.    134.    131.    123.
   131.    130.    142.    148.    122.    135.    139.    131.
   145.    133.    139.    137.    140.    121.    135.    146.
   153.    145.    133.    130.    149.    145.    130.    126.
   128.    144.    141.    150.    134.    135.    138.    127.
   144.    145.    138.    148.    135.    134.    157.    137.
   145.    141.    112.    145.    153.    142.    155.    142.
   138.    138.    164.    148.    134.    135.    131.    134.
   130.    126.    118.    136.    106.    128.    152.    148.
   127.    126.    137.    137.    157.    159.    142.    135.
   150.    136.    130.    127.    125.    145.    150.    138.
   138.    125.    137.    159.    130.    158.    155.    146.
   137.    150.    149.    124.    116.    153.    135.    129.
   151.    137.    152.    144.    135.    124.    144.    153.
   140.    161.    158.    137.    128.    158.    146.    148.
   143.    152.    158.    129.    144.    135.    140.    135.
   150.    162.    122.    124.    137.    143.    153.    148.
   146.    114.    122.    147.    115.    140.    127.    152.
   142.    145.    120.    122.    127.    132.    133.    127.
   136.    136.    143.    145.    148.    136.    132.    157.
   156.    149.    142.    146.    136.    121.    146.    168.
   133.    129.    123.    136.    148.    125.    139.    148.
   158.    144.    136.    146.    112.    141.    141.    135.
   136.    149.    168.    136.    133.    129.    135.    137.
   145.    132.    128.    131.    136.    156.    130.    139.
   127.    134.    147.    151.    142.    141.    131.    120.
   136.    128.    140.    139.    125.    136.    131.    137.
   138.    155.    127.    138.    118.    130.    146.    122.
   123.    136.    133.    151.    153.    148.    143.    125.
   143.    159.    143.    133.    132.    127.    149.    124.
   115.    147.    127.    143.    128.    131.    133.    124.
   146.    136.    143.    136.    139.    136.    148.    138.
   161.    142.    143.    119.    135.    146.    138.    136.
   144.    125.    130.    143.    139.    128.    148.    149.
   141.    171.    156.    137.    151.    130.    139.    134.
   135.    147.    133.    127.    163.    138.    134.    128.
   136.    139.    127.    139.    129.    134.    131.    132.
   141.    143.    146.    141.    149.    124.    123.    130.
   122.    124.    122.    131.    125.    157.    134.    153.
   117.    137.    147.    132.    123.    137.    136.    144.
   132.    146.    138.    128.    133.    149.    125.    115.
   138.    124.    129.    132.    142.    137.    124.    117.
   122.    120.    133.    145.    135.    154.    144.    147.
   133.    158.    138.    136.    143.    136.    114.    141.
   147.    149.    127.    126.    137.    143.    135.    126.
   144.    125.    147.    134.    136.    122.    146.    123.
   136.    129.    121.    140.    150.    138.    134.    128.
   129.    139.    125.    129.    155.    157.    134.    137.
   132.    127.    143.    129.    141.    143.    125.    140.
   138.    140.    116.    151.    131.    133.    125.    163.
   134.    136.    135.    143.    119.    129.    147.    128.
   141.    140.    134.    146.    157.    141.    125.    134.
   141.    135.    151.    121.    143.    146.    129.    131.
   136.    117.    138.    136.    147.    134.    135.    157.
   126.    137.    136.    129.    147.    137.    147.    133.
   148.    156.    131.    138.    143.    131.    150.    140.
   140.    130.    149.    156.    144.    118.    147.    150.
   139.    152.    148.    136.    147.    131.    149.    156.
   138.    153.    139.    153.    132.    130.    123.    158.
   130.    133.    134.    137.    125.    130.    137.    152.
   142.    148.    144.    160.    157.    136.    142.    136.
   150.    129.    141.    130.    159.    140.    138.    142.
   138.    143.    118.    151.    140.    144.    138.    120.
   115.    121.    158.    140.    151.    128.    128.    148.
   130.    168.    133.    139.    128.    142.    153.    145.
   145.    120.    122.    145.    143.    146.    138.    131.
   122.    148.    146.    123.    114.    142.    127.    139.
   120.    123.    130.    149.    128.    139.    127.    152.
   122.    155.    127.    139.    156.    137.    124.    144.
   140.    138.    151.    144.    153.    145.    152.    148.
   135.    125.    158.    142.    143.    142.    148.    145.
   135.    146.    138.    123.    130.    144.    132.    138.
   136.    136.    140.    117.    162.    147.    131.    136.
   121.    139.    126.    153.    131.    147.    135.    157.
   135.    162.    151.    128.    123.    144.    147.    121.
   138.    123.    132.    134.    139.    146.    135.    136.
   133.    131.    126.    145.    153.    142.    149.    147.
   148.    129.    146.    122.    116.    147.    144.    140.
   118.    149.    133.    138.    156.    139.    142.    154.
   155.    132.    132.    139.    136.    136.    123.    151.
   126.    145.    150.    148.    152.    137.    135.    158.
   123.    154.    125.    133.    162.    136.    174.    147.
   138.    159.    160.    141.    128.    140.    122.    146.
   133.    158.    134.    144.    118.    118.    131.    129.
   136.    141.    141.    132.    148.    127.    149.    109.
   137.    153.    142.    137.    142.    130.    128.    144.
   147.    144.    148.    123.    123.    121.    147.    140.
   138.    162.    135.    144.    136.    126.    140.    133.
   130.    139.    126.    142.    133.    129.    126.    141.
   149.    149.    122.    158.    159.    131.    152.    144.
   132.    132.    139.    165.    136.    139.    128.    136.
   138.    155.    137.    139.    118.    132.    144.    134.
   115.    146.    126.    157.    143.    144.    139.    124.
   126.    130.    137.    137.    143.    110.    144.    137.
   159.    127.    139.    134.    142.    138.    150.    131.
   139.    145.    136.    140.    126.    131.    144.    157.
   129.    161.    130.    138.    136.    123.    121.    151.
   135.    128.    141.    132.    129.    138.    157.    135.
   131.    119.    136.    127.    137.    155.    137.    137.
   139.    143.    133.    138.    135.    136.    123.    132.
   133.    129.    130.    129.    126.    127.    152.    127.
   145.    124.    145.    140.    148.    129.    150.    156.
   158.    132.    123.    138.    127.    128.    138.    131.
   134.    140.    134.    130.    135.    143.    117.    137.
   145.    128.    131.    138.    129.    126.    137.    162.
   138.    146.    120.    149.    127.    117.    137.    133.
   133.    140.    142.    153.    125.    137.    138.    130.
   143.    144.    155.    142.    125.    127.    147.    150.
   140.    138.    142.    106.    137.    135.    134.    124.
   148.    127.    139.    147.    159.    124.    129.    134.
   145.    116.    158.    159.    144.    148.    120.    126.
   138.    128.    133.    137.    140.    127.    145.    146.
   136.    140.    129.    132.    147.    129.    138.    135.
   151.    143.    134.    146.    153.    135.    124.    138.
   128.    150.    140.    162.    151.    135.    131.    143.
   140.    133.    154.    151.    157.    143.    136.    130.
   131.    146.    150.    144.    146.    137.    135.    116.
   137.    142.    127.    147.    133.    137.    139.    149.
   124.    130.    142.    136.    139.    131.    143.    136.
   147.    129.    139.    158.    145.    126.    148.    144.
   145.    121.    142.    134.    139.    131.    154.    110.
   134.    125.    127.    115.    127.    134.    152.    136.
   110.    140.    139.    125.    146.    119.    144.    123.
   138.    131.    126.    138.    146.    141.    133.    144.
   143.    142.    144.    138.    138.    137.    134.    138.
   143.    148.    151.    137.    132.    146.    123.    121.
   146.    132.    110.    142.    132.    126.    136.    139.
   127.    154.    129.    109.    132.    146.    147.    135.
   157.    123.    124.    126.    143.    141.    140.    118.
   137.    134.    144.    142.    148.    130.    131.    121.
   112.    123.    134.    144.    139.    130.    125.    148.
   132.    117.    131.    151.    132.    135.    143.    120.
   126.    140.    123.    127.    126.    137.    133.    133.
   137.    130.    148.    123.    135.    128.    149.    136.
   126.    127.    153.    150.    147.    157.    133.    137.
   142.    127.    135.    153.    136.    143.    144.    148.
   138.    165.    145.    133.    132.    131.    135.    123.
   106.    139.    136.    118.    144.    125.    151.    123.
   124.    144.    126.    127.    135.    133.    136.    146.
   134.    133.    129.    128.    133.    132.    146.    126.
   138.    140.    125.    144.    118.    145.    129.    166.
   131.    141.    132.    130.    153.    131.    152.    122.
   123.    157.    118.    142.    142.    137.    144.    138.
   151.    130.    150.    133.    153.    160.    143.    147.
   162.    149.    124.    137.    141.    115.    123.    130.
   125.    126.    158.    124.    135.    125.    136.    142.
   144.    147.    145.    150.    147.    155.    146.    137.
   149.    145.    132.    138.    139.    138.    153.    142.
   137.    133.    156.    151.    121.    119.    151.    140.
   146.    136.    140.    132.    137.    119.    137.    125.
   135.    136.    131.    129.    161.    117.    112.    133.
   155.    131.    149.    125.    151.    127.    128.    142.
   131.    141.    137.    128.    144.    131.    126.    121.
   128.    141.    143.    121.    145.    139.    127.    126.
   136.    136.    135.    173.    138.    151.    154.    132.
   137.    130.    143.    137.    130.    137.    132.    139.
   144.    136.    149.    115.    125.    137.    134.    142.
   129.    132.    141.    138.    144.    145.    138.    135.
   143.    143.    140.    140.    125.    118.    167.    159.
   136.    150.    136.    151.    146.    136.    129.    129.
   140.    134.    133.    151.    148.    151.    141.    129.
   123.    145.    164.    133.    132.    134.    131.    137.
   130.    150.    123.    130.    111.    137.    139.    146.
   149.    117.    145.    112.    135.    134.    130.    126.
   129.    130.    149.    130.    146.    124.    127.    121.
   135.    123.    126.    125.    138.    133.    134.    127.
   135.    132.    124.    129.    148.    140.    103.    124.
   128.    126.    135.    141.    123.    128.    149.    129.
   136.    147.    133.    130.    131.    146.    124.    159.
   128.    144.    143.    107.    137.    128.    132.    137.
   119.    117.    124.    139.    124.    138.    137.    153.
   142.    128.    131.    145.    132.    147.    138.    131.
   131.    141.    123.    124.    118.    134.    128.    125.
   137.    139.    150.    142.    120.    108.    154.    148.
   118.    125.    122.    135.    131.    123.    109.    141.
   134.    134.    146.    136.    123.    120.    154.    138.
   146.    130.    144.    128.    140.    120.    152.    148.
   147.    123.    133.    141.    121.    142.    130.    136.
   142.    143.    124.    139.    126.    129.    148.    136.
   137.    137.    151.    136.    159.    154.    137.    132.
   146.    134.    144.    135.    132.    128.    130.    125.
   131.    142.    127.    148.    108.    145.    144.    124.
   115.    140.    133.    124.    115.    126.    137.    145.
   139.    137.    142.    139.    122.    118.    153.    139.
   134.    147.    129.    140.    153.    133.    151.    137.
   172.    156.    128.    125.    149.    132.    138.    151.
   133.    132.    124.    147.    152.    126.    132.    142.
   139.    133.    147.    150.    128.    136.    142.    130.
   142.    130.    147.    138.    146.    119.    130.    136.
   121.    125.    135.    127.    131.    141.    128.    148.
   119.    137.    139.    142.    144.    143.    132.    121.
   141.    157.    139.    133.    132.    135.    141.    143.
   118.    130.    120.    129.    110.    136.    116.    150.
   102.    131.    132.    123.    147.    130.    145.    110.
   135.    129.    123.    136.    111.    131.    130.    123.
   128.    118.    112.    137.    123.    135.    120.    129.
   152.    132.    136.    128.    138.    139.    142.    127.
   143.    123.    124.    126.    141.    139.    137.    137.
   125.    131.    135.    124.    139.    152.    119.    118.
   125.    145.    137.    117.    142.    144.    120.    120.
   126.    130.    124.    142.    140.    148.    133.    158.
   138.    146.    118.    148.    138.    129.    145.    130.
   176.    138.    123.    128.    143.    140.    138.    148.
   147.    123.    124.    138.    131.    153.    129.    150.
   144.    138.    130.    118.    120.    141.    121.    140.
   130.    128.    123.    134.    111.    121.    122.    132.
   118.    144.    128.    130.    136.    161.    136.    142.
   134.    133.    131.    154.    137.    143.    141.    134.
   139.    160.    136.    137.    124.    142.    157.    160.
   148.    119.    136.    150.    147.    146.    148.    120.
   100.    119.    131.    135.    130.    134.    144.    123.
   153.    139.    142.    131.    132.    140.    139.    132.
   126.    137.    129.    123.    123.    128.    125.    145.
   135.    128.    131.    112.    125.    119.    146.    160.
   132.    148.    133.    150.    130.    114.    128.    134.
   134.    130.    126.    135.    142.    143.    154.    127.
   121.    134.    127.    129.    112.    152.    135.    141.
   125.    115.    130.     99.    118.    109.    131.    121.
   109.    128.    144.    137.    148.    117.    152.    129.
   132.    113.    107.    134.    118.    147.    125.    132.
   146.    143.    133.    148.    148.    152.    147.    130.
   132.    127.    129.    125.    140.    132.    147.    150.
   136.    136.    138.    162.    156.    161.    126.    142.
   144.    136.    138.    139.    144.    146.    131.    125.
   152.    127.    156.    131.    140.    128.    135.    141.
   127.    131.    147.    131.    140.    122.    132.    124.
   150.    136.    150.    149.    125.    130.    129.    137.
   133.    132.    134.    125.    116.    119.    132.    116.
   126.    138.    140.    125.    143.    140.    138.    154.
   126.    142.    147.    127.    141.    132.    135.    145.
   137.    125.    116.    129.    123.    128.    134.    135.
   150.    142.    131.    120.    142.    147.    139.    129.
   123.    136.    140.    143.    126.    119.    124.    128.
   152.    135.    145.    139.    140.    134.    145.    157.
   123.    129.    147.    121.    137.    130.    144.    133.
   136.    116.    124.    132.    146.    142.    131.    134.
   139.    126.    126.    135.    127.    133.    131.    124.
   142.    146.    143.    136.    131.    137.    139.    141.
   144.    148.    146.    128.    144.    139.    143.    131.
   137.    126.    139.    135.    132.    138.    123.    140.
   159.    145.    141.    130.    142.    141.    138.    156.
   132.    122.    129.    140.    129.    131.    125.    150.
   135.    154.    134.    141.    137.    138.    140.    143.
   155.    125.    131.    143.    135.    133.    144.    157.
   142.    121.    140.    141.    144.    132.    139.    128.
   130.    129.    126.    143.    136.    150.    127.    147.
   134.    127.    142.    112.    130.    131.    139.    138.
   127.    135.    124.    135.    148.    152.    134.    126.
   146.    121.    139.    133.    143.    124.    133.    136.
   145.    150.    132.    122.    147.    117.    134.    130.
   137.    144.    137.    131.    113.    133.    142.    130.
   136.    116.    150.    134.    136.    125.    157.    122.
   154.    134.    142.    137.    125.    119.    133.    144.
   135.    120.    111.    126.    143.    125.    135.    120.
   131.    127.    131.    114.    128.    125.    136.    121.
   143.    128.    124.    124.    137.    138.    123.    137.
   143.    135.    133.    135.    126.    124.    128.    132.
   142.    134.    136.    126.    122.    129.    131.    128.
   121.    125.    122.    134.    144.    141.    131.    156.
   139.    111.    137.    139.    130.    135.    138.    144.
   145.    123.    126.    134.    138.    141.    115.    145.
   140.    130.    123.    137.    115.    131.    156.    152.
   136.    129.    144.    116.    134.    147.    135.    123.
   127.    113.    142.    133.    111.    129.    140.    142.
   116.    142.    135.    142.    131.    119.    134.    120.
   133.    144.    110.    131.    147.    146.    129.    119.
   137.    118.    136.    119.    128.    145.    139.    147.
   153.    128.    127.    131.    124.    153.    149.    134.
   145.    131.    135.    128.    146.    132.    115.    142.
   131.    133.    143.    163.    146.    137.    128.    139.
   131.    144.    100.    139.    149.    140.    127.    121.
   135.    143.    123.    126.    133.    128.    122.    135.
   130.    150.    145.    123.    136.    146.    145.    143.
   149.    143.    131.    139.    144.    129.    122.    129.
   142.    139.    140.    131.    112.    143.    137.    110.
   114.    120.    118.    113.    117.    112.    126.    151.
   125.    113.    132.    156.    124.    149.    142.    134.
   134.    137.    127.    140.    149.    118.    131.    129.
   146.    128.    153.    150.    158.    139.    126.    139.
   149.    121.    136.    121.    133.    131.    149.    152.
   139.    137.    159.    119.    128.    146.    128.    125.
   151.    135.    119.    149.    126.    142.    140.    131.
   120.    114.    134.    122.    126.    131.    129.    139.
   130.    145.    124.    132.    122.    139.    129.    126.
   127.    148.    134.    128.    131.    124.    139.    135.
   129.    115.    122.    136.    133.    125.    131.    130.
   124.    131.    123.    150.    146.    130.    142.    139.
   107.    137.    124.    132.    124.    119.    131.    134.
   151.    147.    153.    139.    135.    125.    128.    133.
   135.    136.    148.    121.    138.    135.    138.    136.
   131.    129.    127.    129.    118.    117.    108.    129.
   143.    118.    122.    122.    143.    136.    122.    123.
   120.    137.    136.    115.    124.    142.    122.    134.
   143.    135.    131.    134.    150.    105.    132.    123.
   108.    126.    124.    135.    139.    137.    130.    134.
   136.    135.    131.    140.    141.    131.    140.    111.
   144.    133.    110.    130.    141.    114.    120.    130.
   119.    134.    121.    131.    140.    132.    125.    142.
   127.    120.    114.    111.    121.    144.    142.    136.
   130.    120.    153.    120.    125.    132.    136.    106.
   135.    148.    128.    134.    127.    148.    136.    138.
   132.    126.    133.    155.    126.    146.    134.    114.
   120.    112.    137.    134.    121.    129.    138.    136.
   132.    126.    135.    129.    142.    130.    115.    116.
   125.    120.    130.    140.    146.    119.    134.    120.
   114.    135.    138.    123.    143.    110.    128.    111.
   112.    136.    130.    144.    108.    137.    133.    130.
   124.    166.    130.    156.    126.    129.    135.    127.
   107.    131.    119.    115.    120.    133.    144.    142.
   131.    146.    137.    130.    115.    120.    149.    113.
   116.    109.    132.    126.    123.    141.    127.    134.
   151.    127.    125.    115.    139.    129.    109.    135.
   119.    128.    125.    150.    145.    123.    141.    122.
   118.    146.    115.    158.    151.    159.    129.    122.
   143.    124.    137.    150.    149.    133.    143.    127.
   126.    143.    126.    127.    137.    117.    129.    136.
   126.    144.    148.    156.    140.    132.    118.    146.
   130.    116.    126.    145.    121.    138.    121.    128.
   140.    131.    116.    116.    141.    115.    139.    129.
   150.    139.    148.    134.    150.    131.    111.    120.
   147.    130.    146.    145.    118.    120.    129.    133.
   128.    117.    130.    113.    146.    132.    139.    137.
   119.    116.    147.    129.    119.    113.    122.    129.
   143.    122.    122.    143.    112.    150.    159.    128.
   129.    132.    132.    143.    154.    126.    118.    123.
   130.    132.    131.    149.    133.    122.    121.    115.
   127.    106.    142.    130.    144.    123.    137.    147.
   116.    128.    132.    124.    135.    124.    132.    148.
   115.    141.    117.    100.    135.    124.    135.    124.
   134.    125.    123.    112.    122.    137.    136.    134.
   128.    123.    118.    132.    105.    117.    129.    143.
   142.    132.    110.    120.    133.    123.    121.    120.
   131.    131.    122.    115.    136.    134.    123.    120.
   116.     95.    130.    135.    145.    150.    124.    113.
   133.    125.    120.    126.    149.    133.    142.    115.
   135.    128.    113.    119.    129.    136.    155.    129.
   134.    142.    122.    129.    134.    132.    126.    135.
   152.    124.    135.    129.    125.    104.    114.    115.
   138.    121.    124.    136.    136.    137.    138.    137.
   129.    127.    126.    131.    111.    129.    114.    133.
   123.    135.    124.    109.    124.    130.    130.    127.
   112.    110.    137.    131.    118.    108.    138.    119.
   126.    124.    127.    129.    132.    126.    118.    130.
   115.    127.    124.    125.    118.    106.    153.    150.
   126.    131.    126.    140.    150.    138.    130.    135.
   127.    136.    135.    136.    120.    127.    109.    115.
   144.    134.    118.    127.    129.    140.    135.    125.
   138.    131.    146.    158.    125.    125.    138.    124.
   130.    133.    131.    132.    131.    130.    123.    119.
   113.    112.    135.    118.    125.    120.    126.    112.
   105.    140.    119.    122.    121.    137.    139.    113.
   121.    133.    123.    148.    129.    127.    150.    147.
   117.    111.    124.    124.    143.    123.    112.    114.
   124.    121.    115.    145.    129.    132.    142.    134.
   158.    116.    141.    128.    131.    148.    125.    133.
   137.    124.    136.    149.    125.    144.    128.    140.
   126.    123.    126.    148.    143.    132.    123.    120.
   110.    123.    126.    160.    116.    135.    130.    133.
   146.    128.    134.    128.    121.    142.    137.    117.
   135.    121.    113.    135.    147.    143.    134.    119.
   155.    146.    140.    117.    130.    136.    132.    120.
   130.    130.    123.    132.    129.    119.    124.    127.
   137.    124.    118.    104.    116.    147.    132.    154.
   117.    107.    137.    135.    113.    136.    122.    146.
   119.    148.    130.    138.    120.    125.    123.    127.
   147.    145.    124.    121.    127.    141.    127.    145.
   133.    133.    131.    121.    116.    127.    116.    113.
   135.    132.    128.    119.    120.    145.    145.    136.
   120.    112.    122.    129.    128.    154.    147.    134.
   131.    137.    142.    135.    134.    129.    126.    150.
   146.    122.    138.    124.    127.    133.    136.    125.
   119.    127.    142.    145.    117.    123.    124.    147.
   137.    139.    130.    133.    143.    128.    116.    114.
   126.    138.    125.    131.    142.    127.    135.    120.
   133.    131.    132.    110.    123.    129.    135.    123.
   136.    119.    122.    115.    113.    109.    135.    156.
   139.    125.    119.    138.    123.    110.    137.     93.
   130.    128.    139.    117.    148.    125.    129.    125.
   140.    129.    132.    154.    161.    140.    140.    136.
   140.    131.    153.    129.    136.    140.    126.    110.
   150.    136.    139.    145.    138.    132.    138.    131.
   127.    127.    116.    123.    150.    130.    122.    126.
   124.    118.    144.    131.    145.    140.    124.    151.
   132.    112.    131.    117.    122.    119.    149.    134.
   120.    120.    127.    134.    142.    132.    130.    141.
   136.    128.    123.    102.    113.    114.    127.    125.
   125.    148.    115.    139.    127.    118.    102.    122.
   128.    123.    158.    120.    132.    111.    123.    153.
   131.    145.    122.    120.    139.    130.    131.    116.
   105.    121.    132.    114.    144.    129.    121.    122.
   112.    110.    106.    109.    113.    126.    121.    118.
   141.    118.    128.    117.    126.    115.    117.    111.
   133.    146.    119.    126.    113.    132.    119.    129.
   120.    121.    143.    123.    140.    131.    123.    119.
   127.    116.    131.    110.    147.    110.    124.    114.
   126.    115.    120.    129.    123.    126.    115.    130.
   132.    122.    125.    124.    128.    101.    111.    120.
   139.    111.    133.    135.    138.    119.    131.    144.
   134.    114.    140.    150.    128.    130.    142.    134.
   153.    133.    129.    138.    127.    132.    114.    148.
   146.    137.    136.    137.    134.    124.    133.    119.
   135.    120.    110.    123.    117.    116.    131.    123.
   136.    136.    124.    132.    118.    133.    134.    130.
   117.    125.    139.    122.    111.    129.    148.    118.
   138.    114.    140.    140.    117.    131.    122.    124.
   140.    119.    115.    124.    129.    130.    129.    138.
   100.    142.    125.    122.    132.    126.    133.    133.
   150.    156.    148.    131.    126.    147.    124.    137.
   126.    104.    127.    144.    152.    122.    120.    140.
   130.    126.    138.    115.    130.    132.    139.    134.
   117.    122.    128.    116.    115.    125.    126.    132.
   119.    121.    120.    124.    130.    140.    135.    129.
   113.    153.    131.    129.    108.    127.    124.    131.
   143.    117.    129.    119.    116.    143.    127.    134.
   123.    134.    138.    121.    123.    127.    127.    127.
   125.    127.    126.    132.    117.    125.    113.    103.
   122.    133.    138.    129.    125.    133.    141.    118.
   142.    119.    139.    128.    147.    134.    124.    129.
   131.    137.    126.    143.    135.    123.    134.    130.
   118.    113.    142.    114.    117.    129.    125.    135.
   132.    139.    139.    134.    127.    126.    146.    137.
   145.    123.    125.    149.    139.    121.    117.    133.
   115.    134.    137.    109.    132.     99.    111.    113.
   117.    124.    143.    109.    132.    129.    143.    134.
   132.    133.    142.    138.    122.    128.    129.    145.
   135.    131.    131.    145.    146.    121.    133.    122.
   136.    128.    117.    142.    113.    132.    129.    135.
   129.    134.    132.    117.    131.    130.    134.    135.
   144.    129.    144.    130.    116.    113.    119.    130.
   129.    130.    120.    111.    128.    143.    130.    138.
   133.    119.    145.    106.    131.    126.    137.    124.
   124.    106.    138.    140.    132.    115.    111.    123.
   122.    136.    117.    127.    126.    140.    117.    120.
   116.    131.    126.    129.    138.    124.    151.    148.
   131.    143.    132.    119.    125.    123.    120.    131.
   122.    124.    115.    152.    121.    119.    135.    129.
   143.    120.    140.    127.    133.    148.    120.    137.
   121.    132.    127.    134.    126.    110.    121.    130.
   149.    128.    124.    125.    123.    132.    110.    133.
   125.    127.    118.    125.    115.    126.    122.    112.
   137.    125.    124.    121.    127.    121.    122.    111.
   120.    123.    113.    133.    143.    124.    138.    115.
   100.    117.    128.    115.    128.    116.    138.    124.
   120.    103.    117.    117.    125.    126.    117.    140.
   122.    101.    124.    127.    121.    132.    152.    145.
   126.    138.    121.    129.    118.    130.    134.    139.
   125.    139.    125.    119.    113.    122.    127.    146.
   130.    122.    134.    134.    142.    127.    123.    136.
   115.    113.    132.    135.    117.    135.    103.    126.
   116.    136.    116.    130.    140.    137.    133.    139.
   129.    126.    121.    112.    121.    116.    126.    123.
   118.    130.    121.    135.    119.    132.    112.    133.
   137.    141.    104.    119.    127.    131.    116.    127.
   122.    128.    118.    108.    121.    131.    130.    129.
   130.    121.    140.    123.    123.    122.    115.    123.
   116.    135.    118.    132.    126.    123.    128.    122.
   128.    128.    116.    110.    118.    115.    136.    121.
   102.    113.    107.    120.    113.    121.    119.    126.
    99.    107.    108.    112.    134.    135.    142.    136.
   130.    141.    133.    132.    127.    140.    141.    105.
   126.    113.    138.    113.    111.    110.    108.    118.
   126.    121.    122.    119.    135.    109.    120.    110.
   119.    137.    118.    140.    139.     99.    158.    127.
   123.    124.    108.    128.    133.    118.    120.    122.
   133.    134.    113.    120.    117.    118.    125.    146.
   121.    118.    123.    132.    118.    122.    121.    132.
   142.    127.    126.    103.    127.    141.    146.    144.
   113.    130.    128.    119.    111.    121.    132.    131.
   121.    111.    119.    128.    128.    137.    124.    119.
   105.    117.    127.    114.    125.    120.    128.    135.
   139.    143.    117.     98.    124.    114.    136.    121.
   118.    126.    118.    118.    115.    126.    118.    122.
   121.    120.    136.    111.    128.    132.    118.    114.
   118.    126.    132.    129.    140.    145.    116.    118.
   141.    119.    112.    106.    108.    101.    120.    121.
   135.    118.    129.    122.    110.    138.    124.    102.
   122.    118.    117.    109.    121.    125.    116.    121.
   117.    122.    126.    106.    129.    134.    127.    134.
   120.    125.    105.    113.    104.    124.    116.    127.
   123.    123.    122.    130.    144.    143.    129.    131.
   118.    131.    129.    116.    112.    103.    137.    116.
   131.    122.    121.    126.    120.    135.    102.    109.
   120.    121.    131.    115.    127.    120.    140.    105.
   112.    117.    129.    125.    132.     88.    135.    116.
   126.    124.    112.    131.    127.    113.    117.    122.
   111.    120.    115.    116.    125.    130.    113.    122.
   125.    112.    114.    124.    114.    110.    119.    103.
   108.    129.    120.    111.    127.    121.    127.    129.
   135.    128.    106.    116.    142.    126.    123.    130.
   113.    130.    118.    119.    117.    157.    115.    123.
   109.    121.    115.    125.    124.    142.    126.    129.
   110.    124.    119.    125.    118.    128.    147.     99.
   126.    123.    137.    120.    126.    113.    123.    114.
   128.    112.    127.    111.    111.    119.    134.    133.
   133.    121.    106.    109.    120.    113.    131.    124.
   113.    127.    110.    116.    111.    126.    115.    119.
   142.    110.    114.    127.    126.    115.    121.    117.
   117.    130.    126.    110.    125.    111.    125.    117.
   118.    119.    116.    130.    138.    122.    118.    141.
   107.    125.    123.    106.     98.    133.    111.    121.
   128.    119.    127.    145.    131.    126.    126.    129.
   122.    136.    124.    123.    115.    103.    114.    143.
   136.    118.    111.    146.    119.    117.    124.    148.
   127.    127.    125.    123.    103.    130.    120.    129.
   110.    112.     99.    139.    100.    121.    148.    123.
   132.    123.    125.    132.    144.    116.    115.    110.
   122.    121.    132.    127.    116.    139.    108.    123.
   121.    119.    111.    116.    122.    106.    151.    122.
   119.    122.    140.    118.    121.    134.    126.    134.
   125.    109.    132.    115.    122.    135.    123.    132.
   128.    122.    124.    103.    129.    121.    116.    118.
   112.     99.    112.    125.    119.     97.    130.    126.
   118.    117.    120.    118.    112.    122.    128.    115.
   117.    127.    122.    110.    124.    128.    125.    111.
   137.    141.    135.    115.    118.    113.    156.    129.
   114.    132.    129.    114.    108.    122.    108.    124.
   142.    138.    137.    121.    113.    109.    105.    112.
   129.    121.    125.    114.    125.    116.    121.    124.
   102.    111.    123.    114.     93.    115.    111.    118.
   124.    128.    105.    113.    127.    123.    136.    119.
   105.    121.    142.    100.    141.    115.    104.    130.
   121.    116.    138.    120.    111.    130.    121.    119.
   104.    106.    117.    131.    139.    105.    143.    133.
   117.    133.    121.    125.    108.    116.    125.    123.
   107.    131.    133.    117.    106.    110.    115.    132.
   133.    113.    122.    124.    129.    112.    106.    114.
   145.    129.    143.    131.    152.    136.    134.    133.
   115.    133.    137.    132.    120.    148.    134.    145.
   118.    133.    118.    134.    114.    132.    125.    142.
   133.    123.    132.    142.    115.    134.    122.    123.
   132.    135.    124.    135.    108.    129.    135.    133.
   118.    121.    124.    118.    123.    124.    110.    130.
   119.    114.    128.    127.    126.    122.    135.    121.
   135.    127.    131.    147.    118.    112.    118.    136.
   112.    116.    117.    135.    137.    127.    120.    138.
   138.    122.    113.    116.    121.    126.    141.    116.
   134.    115.    136.    126.    130.    104.    124.    113.
   114.    108.    105.    122.    124.    112.    120.    111.
   143.    131.    121.    139.    116.    125.    108.    123.
   150.    133.    126.    112.    127.    125.    121.    106.
   121.    121.    127.    116.    120.    119.    139.    133.
   111.    109.    127.    138.    117.    137.    109.     98.
   129.    125.    119.    129.    120.    115.    122.    122.
   123.    131.    125.    121.    136.    123.    124.    113.
   130.    118.    103.    115.    133.    126.    124.    112.
   116.    146.    115.    103.    117.    106.    107.    121.
   144.    136.    113.    107.    118.    124.    127.    102.
   115.    117.    101.    120.    117.    112.    106.    118.
   109.    129.    139.    122.     93.    122.    127.    121.
   124.    119.    120.    111.    117.    118.    127.    120.
   122.    119.    111.    129.    112.    124.    116.    113.
   117.    121.    132.    117.    129.    125.    121.    116.
   128.    118.    114.    113.    115.    121.    119.    129.
   122.    125.    103.    115.    130.    121.    115.    126.
   130.    105.    114.    124.    124.    104.    112.    101.
   109.    117.    119.    128.    122.    132.    109.    143.
   121.    146.    104.    117.    101.    129.    127.    117.
   108.    114.    121.    133.    127.    120.    113.    111.
   122.    116.    115.    125.    120.    130.    119.    111.
   118.     95.    122.    127.    121.    118.    120.    113.
   118.    132.    125.    131.    104.    104.    119.    116.
   122.    133.    109.    128.    122.    132.    107.    135.
   137.    132.    123.    125.    114.    120.    126.    114.
   112.     99.    114.    120.    108.    120.    112.    105.
   123.    134.    122.    112.    105.    113.    127.    132.
   155.    107.    139.    130.    113.    116.     87.    126.
   134.    112.    121.    106.    125.    136.    116.    120.
   117.    136.    132.    116.    127.    114.    117.    115.
   107.    117.    115.    106.    114.    115.    117.    118.
   113.    110.    113.    141.    117.    115.    124.    109.
   118.    110.    124.    125.    117.    116.    133.     95.
   109.     95.    122.    127.    128.    122.    114.    129.
   133.    134.    119.    106.    120.    115.    113.    119.
   102.    107.    113.    118.    119.    106.    122.    107.
   123.     95.    113.    131.    108.    125.    115.    132.
   126.    109.    131.    117.    104.    119.    119.    128.
   120.    121.    116.    142.    126.    127.    116.    131.
   111.    116.    123.    114.    117.    114.    123.    125.
   129.    111.    123.    108.    119.    108.    125.    135.
   118.    113.    102.    121.    121.    123.    112.    124.
   114.    104.    120.    119.    141.    122.    112.    111.
    95.    121.    105.    112.    130.    131.    135.    121.
   125.    103.    124.    123.    112.    133.    127.    110.
    98.    136.    124.    131.    107.    113.    121.    127.
   130.    123.    120.     96.    123.    130.    111.    102.
   135.    113.    140.    127.    124.    119.    110.    119.
   107.    128.    133.    111.    142.    155.    122.    119.
   115.    132.    110.    116.    114.    128.    132.    113.
   115.    119.    123.    100.    118.    122.    129.    127.
   126.    117.    121.    120.    108.    114.    115.    109.
   111.    130.    120.    127.    108.    123.    107.    119.
   114.    124.    120.    117.    107.    115.    109.    119.
   115.    140.    105.    109.    118.    134.    137.    107.
   128.    126.    108.    123.    102.    113.    113.    126.
   131.    118.    114.    122.    100.    124.    121.    111.
   122.    123.    108.    117.    127.    134.    118.    133.
   113.    121.    122.    112.    117.    130.    104.    127.
   133.    150.    124.    122.    119.    113.    136.    128.
   111.    113.    125.    138.    121.    126.    105.    117.
   119.    110.    104.    109.    123.    111.    115.    125.
   122.    106.    120.    108.    112.    104.    134.    118.
   116.    122.    114.    132.    108.    113.    114.    125.
   132.    142.    134.    106.    129.    114.    111.    147.
   107.    110.    111.    120.    120.    101.    113.    134.
   137.    113.    112.    105.    124.    115.    114.     99.
   130.    137.    133.    100.    112.    120.    121.    115.
   115.    122.    119.    114.    113.    112.    108.    107.
   137.    116.    122.    117.    104.    106.    126.    116.
   110.    102.    116.    109.    108.     98.    108.    108.
   110.    133.    106.    122.    112.    128.    116.    117.
   123.    105.    121.    108.    111.    108.    110.    111.
   109.    113.    116.    124.    122.    118.    111.    106.
   111.    103.    111.    111.    116.    106.    107.    121.
   132.    131.    114.    106.    121.    114.    128.    124.
   121.    113.    119.    102.    120.    100.    120.    104.
   103.    106.    127.    132.    141.    135.    117.    118.
   107.    108.    105.    123.    129.    105.    101.     97.
   101.    115.    111.    124.     96.    106.    103.    135.
   107.    106.     96.    116.    149.    126.    123.    132.
   112.    124.    110.    118.    109.    118.    131.    120.
   107.    106.    100.    125.    132.    120.    120.    128.
   121.    106.    127.    134.    133.    150.    118.    111.
   105.    112.    134.    119.    102.    119.    124.    124.
   128.    114.    112.    136.    125.    108.    134.    130.
    93.    112.    118.    123.    124.    109.    124.     97.
   107.    122.    123.    129.    152.    122.    120.    118.
   117.    103.    131.    109.    124.    124.    131.    129.
   131.    110.    110.    100.    121.    111.    116.    110.
   113.    118.    117.    120.    109.    120.    135.    117.
   113.    118.    131.    142.    129.    122.    128.    120.
   116.    135.    140.    123.    145.    139.    124.    129.
   117.    122.    112.    116.    113.    105.    119.    118.
   133.    113.    118.    119.    139.    151.    129.    123.
   118.    121.    115.    112.    105.    102.    124.    105.
   112.    106.    119.    125.    136.    117.    124.    121.
   114.    131.    133.    123.     95.    110.    114.    110.
   114.    113.    108.    121.    116.    110.    103.    116.
   105.    115.    124.    105.    120.    114.    118.    120.
   103.    112.     95.    108.    119.    111.    107.    127.
   120.    115.    110.    111.    119.    126.    106.    106.
   107.    119.    124.    117.    121.    133.    120.    113.
   120.    107.    115.    123.    121.    117.    106.    125.
   122.    108.    123.    105.    119.     98.    108.    111.
   111.    124.     97.    116.    110.    123.    125.    129.
   118.    101.    117.    117.    112.    105.    121.    101.
   120.    116.    113.    120.    119.    109.     94.    118.
   121.    114.    110.    130.    134.    112.    114.    106.
   112.    112.    112.    116.    115.    101.    123.    119.
   129.    124.    125.    119.    109.     97.    120.    119.
   127.    111.    117.    106.    116.    107.    105.    118.
    84.    121.    128.    153.    101.    116.    103.    107.
   121.    110.    119.    112.    119.    128.    131.    115.
   132.    105.    114.    117.    120.    128.    120.    107.
   114.    101.    108.    130.    126.    123.    123.     98.
   115.    131.    109.    134.    117.    113.    101.    117.
   100.    117.    101.    112.    138.    121.    125.    122.
   116.    102.    122.    109.    110.    106.     97.    119.
   136.    117.    119.    124.    128.    114.    117.    128.
   137.    117.    113.     97.    103.    127.    130.    105.
   117.    106.    104.    114.    113.    121.    114.    107.
   127.    121.    108.    110.    121.     98.     96.    115.
   114.    119.    126.     95.    102.    111.    115.    118.
   129.    125.    127.    120.    106.    118.    119.    129.
   131.    124.    107.    125.    111.    113.    103.    114.
   104.    108.    116.    116.    112.    111.    120.    113.
   105.    124.     96.    111.    114.    118.    138.    120.
   109.    105.    104.    125.    102.    113.    127.    112.
   105.    125.    130.    112.    118.    106.    116.    119.
   106.    113.    104.    110.    128.    123.    119.    100.
   109.    119.    111.    129.    113.    118.    119.    117.
   118.    121.    112.    104.    115.    132.    124.    136.
   106.    106.    129.    118.    120.    122.     96.    113.
   100.    112.    126.    127.    119.    118.    125.    122.
   113.    110.    103.    114.    109.    116.    107.    116.
   122.    117.    128.    121.    111.    145.    144.    110.
   108.    118.    104.    144.    119.    117.    113.    109.
   117.    127.    116.    113.    118.    126.    110.    122.
   121.    125.    108.    111.    100.    103.    119.    115.
   115.    108.    104.    113.    130.    111.    120.    117.
   100.    102.    131.    106.    112.    115.    111.    124.
   104.     96.     99.     99.    127.    109.    108.    112.
   117.    110.    116.    112.    121.     99.    110.    131.
   110.    123.    124.    107.    120.    117.    114.    114.
   109.    112.    105.    129.    106.    123.    113.    121.
    99.    104.    114.    118.     99.    137.    109.    102.
   106.    119.     93.    102.    124.    117.    113.    122.
   117.    114.    118.    128.    118.    112.    117.    120.
   102.    104.    125.    121.    105.    107.    103.    106.
   125.    120.    118.    115.    115.    108.    121.    122.
   122.    103.    130.    118.    102.    113.    101.     90.
   104.    109.    103.    124.     94.    110.    141.    113.
   117.    114.    130.    120.    109.    108.    115.    107.
   109.    115.    113.    102.    109.    117.    105.    121.
   106.    111.    119.     97.    110.    134.     95.     94.
   120.    104.    103.    103.    112.    122.    115.    101.
   117.    115.    119.    125.    128.    106.    115.    116.
   104.     99.    107.    114.    112.    118.    102.    110.
   121.    121.    105.    109.    109.    117.    117.    114.
   119.    118.    123.    108.    121.     93.    104.     92.
    99.    112.    105.    120.     99.    108.    104.    132.
   105.    114.    109.    102.    115.    101.    113.    102.
    95.    128.    118.    129.    103.    105.    137.    122.
   120.    134.    116.     97.    112.    106.    110.    112.
   111.    120.    113.    102.    109.     93.    111.    102.
   115.    115.    110.    143.    125.     99.     99.     94.
   105.     99.    134.    114.    136.    115.    112.    112.
   107.    107.    116.    121.    119.    116.    125.    111.
   124.    120.    117.     94.    113.     88.    117.    103.
   105.    115.     95.    129.    138.    128.    119.    114.
   107.    104.    106.    119.    108.    116.    102.    121.
   103.    126.    114.    118.    114.    119.    106.    109.
   101.    105.    115.    103.    104.    133.    110.    108.
   104.    122.    122.    110.     99.    130.    111.    110.
   112.    105.    113.    115.    103.    103.    119.    125.
   114.    113.    104.    114.    123.    113.    122.    105.
   124.    104.    113.    108.    105.    106.    100.    121.
    97.    100.    114.    108.    114.    108.    117.    121.
   117.    127.    104.    137.    105.    117.    119.    128.
   112.    113.    108.    126.    122.    136.    114.     96.
   108.    126.    124.    117.    112.     94.    105.    116.
   120.    111.    108.    114.    112.    120.    117.    108.
   112.    127.    112.    105.    117.    105.    104.    100.
   111.     97.     98.    103.    109.    118.    113.    129.
   106.    117.    120.    131.    113.    127.    112.    105.
   106.    120.    120.    120.    101.    109.    101.     94.
   105.    131.     96.    117.    123.    123.    115.    107.
   105.    113.    109.    108.     99.    120.    112.    122.
   111.    112.    104.    100.    110.    103.    129.    118.
   119.    110.    126.    114.    128.    109.    112.    103.
   126.    112.     98.    127.    111.    106.     96.    111.
   126.    123.    112.    121.    103.    115.     98.    113.
   105.    109.    125.    120.    109.    100.    104.    112.
   132.    122.     97.    117.    106.    117.    116.    119.
   109.    129.    110.    122.    116.    118.     99.    110.
   117.    111.    120.    103.    105.     94.     99.    102.
   102.    103.    104.    121.    106.    117.    113.    108.
   105.    116.    103.    107.    110.    111.    116.    112.
   116.    123.    114.    121.    115.    121.    110.    103.
    92.    111.    108.    116.    116.    112.     98.    119.
   132.    101.    113.    116.    110.    115.    117.    107.
   130.    109.    102.    111.    121.    118.    115.    102.
   109.    101.    100.    118.    114.    109.    119.     98.
   116.    111.    122.    129.    124.    125.    120.    100.
   113.    125.    113.    100.    123.    118.    117.    119.
   113.     95.    105.    120.    116.    105.    109.     95.
   104.    114.    111.    100.    113.    106.    113.    131.
   113.    118.    111.    113.    105.    106.     99.    112.
   118.    113.    102.     99.    110.    116.    118.    101.
   118.    110.    112.    103.    118.    106.    121.    110.
    97.    120.    109.    105.    122.    133.     94.    119.
   118.     84.     93.    111.    106.    133.    100.    103.
   117.    118.    104.    110.    107.    104.    116.    127.
   109.     96.    116.    124.    106.    103.    117.    119.
    97.    108.    106.    118.    122.    115.    119.    103.
   105.    103.    112.    119.    101.    108.     96.    124.
   114.    106.    110.    106.    129.    110.    100.    102.
   110.    118.    109.     95.    113.    112.    100.    117.
   116.    117.    111.    105.    111.     99.    110.    118.
   133.    110.    106.    108.     92.     96.    115.    111.
   107.    109.    124.    115.    117.    107.    114.    124.
   120.    118.    115.     98.    103.    117.     95.    111.
   123.    117.    113.    103.     91.    116.    114.    120.
   108.    113.    106.    111.    113.    142.    106.    106.
   122.    126.    122.    109.    116.    124.    125.    100.
   107.    114.    119.    118.    117.    104.    112.    126.
   107.    114.    104.    122.    116.    117.    118.    105.
   120.    101.     94.    102.    108.    107.    115.    114.
    99.    100.    113.    112.    110.     99.    117.    101.
   110.    101.    121.    115.     95.     95.    120.    111.
    91.    116.    113.    111.    122.    110.    122.    103.
   110.    103.    111.    113.    111.    104.    115.    110.
   107.    122.    119.    115.     93.    117.    120.    107.
    94.    115.    108.    121.     94.    111.    117.    108.
    93.    137.    103.    119.    107.    108.    118.    110.
   108.    110.    105.    112.    123.    107.     95.    108.
   102.    115.    125.    105.    100.    112.    119.    115.
   100.    106.     98.    113.    106.     93.    114.    112.
   121.    117.    105.    119.    112.    110.    117.    117.
   112.    117.    109.    112.    124.    123.    124.    114.
   114.    108.    130.    109.    123.    106.     98.    108.
   107.    102.    118.    133.    111.    111.    111.     91.
    97.    111.    107.    106.    113.    109.    112.    134.
   110.    116.    104.    111.    118.     90.    125.    109.
    97.    121.    111.    116.    101.     97.    124.    121.
    84.    119.    117.    119.    117.    118.    109.    110.
   118.    119.    116.    112.    103.    130.    112.     88.
   100.     94.     99.    116.    111.    121.    110.    115.
   112.    101.    102.    109.    111.    122.    116.    111.
   123.    122.    110.     99.    119.    115.     97.     97.
   102.    107.    112.    110.    124.    111.    115.    127.
   118.    112.    115.    110.     95.    111.    109.    125.
   111.    102.    102.    115.    117.    101.     98.    105.
   118.    104.    109.    120.    127.     98.    105.    100.
    98.    133.    105.     98.    108.    113.     99.    107.
   110.     86.    100.    120.    115.     92.    104.    112.
   111.    111.    113.    112.    116.    103.     90.    107.
   100.    126.    102.    107.    105.    109.    112.     94.
   107.    120.    104.    107.    113.    104.    106.    109.
   101.    111.    119.    109.    118.    101.    111.    107.
   104.     87.    105.    112.    115.    105.    122.    110.
   125.    128.    113.    106.    116.    111.    130.    106.
   123.    108.    125.    112.    104.    103.    101.     94.
   119.    119.    107.     96.    112.    111.     91.    111.
   106.     90.    115.    112.     98.    112.    106.    100.
   116.    105.    112.    117.    115.     95.    127.    105.
   129.    106.    102.     90.    105.     95.    112.    116.
   121.    118.    112.    109.    118.    110.     92.    114.
   109.    109.     92.    109.    123.     87.    110.    114.
   116.    120.    101.    100.    109.    104.    112.    111.
   102.    100.    101.    102.     99.    106.    102.    110.
    89.     97.    103.    114.    107.    105.    109.    107.
    98.     89.    101.    110.    100.    111.     89.    108.
   120.    117.     94.    104.    116.    111.    115.    109.
   104.    118.     96.    120.     96.    108.    116.     98.
   110.    109.    100.     96.    110.    110.    105.     95.
   118.    102.    108.    118.    124.     95.    109.    104.
   110.     90.    115.    111.    117.    117.     91.     95.
   127.    108.    117.     94.    110.    105.    105.    101.
   113.    120.    102.    110.    114.    105.    106.     99.
   109.     91.    109.    102.     93.    101.    102.    104.
   100.    109.    111.    100.    109.    122.    111.     96.
    95.     91.    117.    126.    122.    123.    107.     97.
   116.    103.    115.    113.    117.    122.    110.    101.
    97.    118.    107.    107.    104.     96.     88.    103.
   113.    101.    101.    113.    105.    100.    115.    115.
    99.     98.    116.    102.    102.    112.     94.    101.
   106.    108.    101.    107.    107.     89.    102.    119.
   105.    112.     96.    101.    108.    107.    104.    103.
   106.    106.     96.    108.    102.    108.    102.    118.
   113.     99.    109.    105.    122.    107.    105.    102.
    94.     98.    105.    107.    104.    114.    113.    120.
   121.    103.    113.    118.     99.    108.    126.     98.
   102.     99.     79.    114.    101.    109.    106.    108.
   117.    105.    101.    101.     96.    101.    107.    105.
    91.    121.    101.    102.    111.    125.     94.     95.
    97.     98.    118.    108.    114.    107.    117.    116.
   103.    100.     83.    122.     92.    114.    115.     95.
    97.    116.    118.    102.    107.     95.    113.    126.
   108.     99.    112.    103.    106.    106.    116.     99.
   107.    107.    103.    104.    102.    132.    124.     94.
   113.    113.    119.    136.    103.    106.    102.     95.
   109.    113.    100.    108.    115.     97.    127.    103.
    99.     99.     96.     99.    102.    101.    106.     91.
   116.    100.    103.    104.    100.    100.    104.    105.
   114.    118.    111.    112.    107.    102.    111.    104.
   113.    115.    103.    111.    108.     98.     95.    109.
   113.    116.     99.     96.    110.    106.    110.    119.
    98.    111.     99.    117.    103.    112.    104.    105.
   104.     91.     86.    106.     99.    117.     93.    113.
   110.    100.    126.     99.    107.    117.     97.    111.
   106.    110.    100.    104.     95.     94.    110.     99.
   118.    112.    102.    101.    102.    120.     98.    126.
   102.    110.    111.     96.    108.    102.    114.     96.
   108.    108.    110.    114.    112.    106.    109.    104.
   116.    114.    102.     95.    125.    112.     99.    107.
   102.     98.    109.    100.    108.    102.    103.    105.
    92.    101.     98.     99.     98.    112.    103.     94.
    99.    100.    110.    119.    109.    107.     95.    113.
   104.    106.     95.     88.    111.    116.    111.    117.
    97.    108.    119.    107.    103.     96.    112.     83.
   105.    102.    109.    101.    118.    106.    110.    116.
   118.    119.     92.     95.    116.    110.    103.    102.
   101.    105.    123.    109.     97.    108.    105.    120.
   110.    116.     95.    106.    110.    103.    106.    106.
    95.    114.    117.    101.    111.    102.     99.    112.
   113.     86.     97.    113.     85.    105.    112.    112.
   103.    108.    101.    114.     98.     92.     98.    111.
   110.    102.    110.    105.     89.    117.    115.    110.
   100.    111.     96.    114.    108.    107.    100.    109.
    95.     93.     98.    113.    111.    104.    113.    109.
    96.    115.    116.    109.    112.    124.    118.    117.
   115.    105.    103.     89.     92.    112.     97.    107.
    95.    119.    106.    100.     97.    108.     96.    101.
    96.    104.    108.    116.     93.    104.    111.     98.
   109.    115.    101.     99.    128.     99.     98.     98.
   114.     98.     96.     98.    110.    108.     95.    110.
   113.    105.    107.    114.    116.     93.    102.    124.
   106.    117.    109.    102.    107.    109.    104.    109.
   104.    112.    102.    111.    103.    101.    111.    103.
    96.    101.    111.    113.    117.    120.    118.    103.
   115.    114.    102.    109.    113.    123.    100.    100.
   108.    113.    117.     93.    116.    106.    104.    131.
   120.    110.    109.    133.    111.    112.    109.    109.
   107.    105.     92.    111.    109.     98.    101.     96.
   104.    109.    111.     99.    107.     94.    119.    123.
    98.    110.    100.    123.    108.    103.    120.    126.
   119.    100.    109.    121.    104.     95.     90.    107.
   113.    100.    107.     90.    108.    112.     94.     99.
    95.     97.     99.    114.    103.    109.    113.    102.
   132.    130.    101.    112.    109.     91.    114.     99.
   125.     94.     91.    106.    105.    100.    111.    105.
   114.    102.    116.     94.     92.     97.    103.     98.
    95.    102.    106.     93.     97.    103.    108.     97.
    99.    105.    108.     94.     96.     90.     91.     78.
   106.    100.     92.    120.    110.    105.    111.    113.
   109.    103.    109.    100.    106.    112.    112.     92.
   106.    110.    112.    112.    122.    103.    113.    106.
   105.    110.    112.    107.    115.    117.     88.    100.
    96.    116.    111.     94.    103.    114.    103.     94.
    92.    122.    102.    107.    100.    101.    100.    109.
   106.     95.    111.    117.    118.    116.    114.    108.
    92.    109.    103.    110.    107.    112.     88.    110.
   105.    107.     83.    101.     97.     82.    107.    115.
   105.     84.    109.    104.    104.    106.    102.    124.
    87.    101.    110.    115.     99.    102.    117.     93.
   117.    100.    101.     91.    100.    116.     95.     99.
    89.    119.    115.    117.    111.    103.    122.     90.
    93.    106.     95.    111.    117.    105.    107.    116.
   113.    125.     89.    105.    115.    112.     97.    106.
   110.     96.    118.     99.    111.     98.    120.    102.
    94.    113.    107.    125.    114.    106.    102.    100.
   105.    109.    113.    117.    101.    116.    101.     95.
   122.    106.    108.     91.    105.    103.     96.    118.
   117.    113.     98.    103.    114.     87.    101.    109.
    93.    110.    101.    113.    110.     98.    110.    117.
   104.    108.    104.    114.    117.    102.     93.     99.
    99.     91.    117.    117.     89.    108.     92.     81.
   103.    104.    105.    113.    102.    101.    104.     95.
    96.    102.    111.    112.    107.    104.     94.     93.
   111.    100.     96.    112.     98.    117.    105.     89.
   103.    108.    111.     97.     95.    105.    114.    110.
    96.    106.     88.     95.     98.     96.    118.    108.
    96.    114.    126.    102.     92.    104.    115.    106.
   102.    104.     99.     93.    119.     87.     92.    104.
   113.    120.     98.     98.     98.    104.    101.    104.
   114.     94.    103.     99.    117.     97.    115.    112.
   111.    102.    111.    120.     94.    120.    111.     93.
   108.    110.    110.    106.    106.    105.    103.    117.
    93.    130.    100.    100.    103.    110.     99.    105.
   118.     97.    121.    110.    120.    116.     95.    106.
   116.     82.    108.    114.    124.    122.    107.    114.
    98.    102.    109.    120.     99.    101.    104.    109.
   109.    110.     86.    112.    106.    103.    114.    108.
   103.    108.    107.    105.    104.     89.     86.    109.
   106.    110.    106.    100.    107.    101.    110.    103.
    94.    101.    115.    101.    106.    103.    114.    127.
   107.    103.    120.     94.    116.     98.    108.    103.
    95.    110.     98.     94.    100.    106.    102.    102.
   100.    110.    103.    107.     82.     88.    107.    118.
    97.    111.    101.     88.    108.    100.     91.    111.
   108.    108.     98.     97.     96.    104.    115.    104.
   105.    117.    107.    110.    111.    101.    108.    106.
    97.    103.    100.    102.    110.    107.    107.    101.
   119.    103.     91.    111.     98.     94.    114.     99.
   111.    105.    108.    104.    109.    114.    118.     94.
   119.     92.     98.    103.    108.    103.     95.    103.
   108.    100.     93.    124.    103.     99.     98.    112.
   104.    112.     96.     88.    100.    105.    122.     92.
   100.    109.    106.    101.    102.     96.    108.    100.
   104.    113.    110.     94.    101.     97.    104.    118.
   107.    120.    115.     92.    105.     88.    116.    100.
    90.    104.    102.    108.     91.    103.     98.    100.
    89.    108.     91.     88.     97.    109.    110.    111.
   101.    100.     98.     87.     97.     93.     98.     91.
   110.    100.    104.    100.    102.     93.     88.    116.
   105.    106.     93.     98.    107.    104.    104.     98.
    96.    109.    102.    126.    110.    100.    115.    105.
   107.    107.    104.    122.    110.     98.    124.    113.
   112.     84.    102.     97.    109.    111.    115.    129.
    91.    115.    103.    114.    111.    119.    103.    107.
   104.    115.    101.     91.    107.    106.     98.    110.
   106.    103.    107.    103.     94.    103.    113.    103.
   124.    102.    105.    114.     99.    111.    110.    105.
   108.    106.    108.    102.    111.    115.     94.     95.
   107.    105.     96.    104.    115.    103.     88.    103.
    99.    114.    120.     99.    103.    110.    135.    107.
   110.    110.    124.    118.    109.     87.    105.     96.
    96.    100.     88.    111.    129.     95.     87.     93.
   109.    107.    104.    106.    101.     87.    102.    103.
   117.    109.     93.     87.    110.     94.    102.     91.
    99.    113.     97.    100.     99.     87.    103.    105.
    94.     92.     97.    106.    110.    127.    121.     96.
   118.    110.    104.    111.    110.    119.    103.    115.
   106.    101.     97.     96.    104.     98.     91.     90.
   104.    120.     89.     96.    110.    104.     90.    100.
   115.    109.    125.    107.    123.    104.    114.    111.
    98.     96.     99.    114.    104.     97.     88.    107.
    95.     95.    103.    110.    109.     94.     85.    101.
   103.    108.     96.    105.    117.    113.    109.    118.
   101.     93.    106.    108.    104.    107.    117.    123.
   116.    106.    102.     85.     93.    105.    111.    116.
   102.     94.    102.    104.     87.     87.    113.    117.
   119.     97.    112.    101.    105.     96.     93.     99.
   104.    101.    104.    115.     94.    101.    115.    100.
   116.    101.     97.    106.    110.     99.     96.    108.
   121.    106.    111.    105.    103.    101.    105.    115.
   120.    117.    107.    107.    102.    111.     90.     97.
    92.    105.     94.     86.     86.     95.    101.    111.
    92.     97.    101.     97.    104.    103.    104.    104.
   115.     92.    104.    105.     91.     97.    110.    102.
    90.     97.    103.     87.     92.    109.     99.     95.
   106.    108.    103.     76.     84.     91.    110.    109.
    99.     93.    109.    105.    109.    105.    103.    111.
    99.    100.    111.     94.    114.     80.     92.    109.
   104.    103.    104.    106.    106.    100.    106.    119.
   109.    104.    104.    108.    109.     88.    105.     90.
    94.     97.    127.    117.     90.    104.    114.    117.
   106.     97.     98.     82.    108.     95.    112.     97.
   106.    108.     90.     96.     92.    104.    107.    108.
   117.     95.     88.     96.    100.    105.     95.    114.
   105.     93.     96.    103.    107.    104.     97.    109.
    98.    102.    109.     94.     92.    112.     99.     89.
   104.     91.     89.     91.     92.    106.    100.     90.
   118.    110.    110.    110.    105.    109.    103.    109.
    84.    104.     97.     83.    103.     94.    116.    103.
    93.     95.    105.    104.    100.    102.    114.    105.
    98.     95.    106.    105.    100.    115.     88.     85.
    86.    107.    101.     97.    113.     86.    105.    119.
   103.    112.    114.    120.    108.     98.    111.    113.
   116.    109.    110.    111.    113.     94.     98.    107.
   123.    109.     97.     94.     97.     93.    108.    105.
    91.     93.    100.     97.    100.    104.     96.    103.
    96.     82.    106.    104.     87.     92.    112.     95.
    98.    118.    105.    104.    110.    103.     92.    104.
   100.     91.    109.     93.     94.    113.    103.    101.
    97.     84.    117.    101.     84.     94.    100.     89.
   106.    107.    106.     89.     92.     97.     89.    102.
   113.    116.    118.     99.    104.    104.     87.     85.
    86.    101.    109.    107.     94.     93.    108.    109.
   112.    100.    113.    101.    105.     91.    107.     97.
   109.    109.    114.    108.    119.    109.    107.    103.
    99.     98.     97.     99.    118.    112.    113.    117.
   107.     81.    102.    117.    116.     95.     97.    116.
   109.    102.     92.    117.     98.    115.    106.     98.
    98.     91.    111.     94.    102.    114.    114.    103.
    98.    107.     97.    111.    104.    104.    103.    109.
    91.    106.     94.     92.    100.    108.    113.    101.
    95.     91.     99.     93.     93.     83.    100.     91.
    93.     87.     97.     95.    102.     97.    105.     96.
   104.    110.    102.    110.     83.     86.     97.     86.
   109.     99.     87.     78.    115.     92.    111.    119.
   105.    101.     91.    105.     97.    106.    100.    126.
    96.    106.     99.     85.    107.    109.    112.     92.
   103.    100.     84.     91.     94.    113.    112.    101.
    94.    116.     99.     98.    103.    124.     94.    123.
   101.     92.     92.    103.     99.    114.    110.     98.
   100.    100.    112.    114.     98.    104.    123.     97.
   118.    119.    111.    115.     99.    102.    105.     92.
    92.    103.    117.    101.    110.    104.     96.    108.
   125.    115.    125.    109.     82.     99.    110.     95.
    88.    105.     97.    116.    100.    102.    103.    117.
   103.    102.     98.    109.    101.    113.    117.    102.
    99.    113.    112.     96.     87.     98.    104.    120.
    99.     98.    112.     98.    102.     91.    106.     88.
   107.    102.     88.     91.    106.     94.    109.     94.
    99.    119.    108.     92.     89.     88.     86.     90.
   112.    108.    102.    111.     96.    116.    101.     99.
    90.    104.     96.     93.     98.     91.     90.    103.
    86.    115.     96.    113.    104.    106.     89.    118.
   102.    106.     92.    111.    116.    112.    104.     90.
   107.    110.    105.    112.    106.    107.    126.    104.
   104.    110.     99.    121.    102.    120.     90.    116.
   114.     96.    110.    128.    122.    114.    116.     94.
   108.    108.    104.    104.    106.    101.    101.     99.
   104.    102.     94.    108.     92.     98.    111.     89.
   100.    114.    119.    101.     88.    110.    113.    108.
   100.     96.    111.    101.    109.     98.    107.    100.
    93.    112.     92.     97.    103.    102.    111.    106.
    98.     93.    107.     96.     96.    106.     87.    109.
    97.    113.    117.     99.     85.    109.     98.     94.
   106.    110.     98.    101.    111.     96.     93.    110.
   110.    111.     95.     93.     90.     97.     84.     99.
    86.     95.    106.    112.    101.    107.     95.    101.
    98.     93.    114.    105.    105.     91.     93.     96.
   105.     87.    100.     94.    112.    103.    105.     92.
   104.     94.    109.     95.     84.    108.    102.     88.
    95.    101.    101.    109.     95.    100.     77.     92.
   102.     86.     82.    113.     97.     97.    101.    107.
   110.    100.    109.     95.     99.    103.    100.    103.
    94.    102.    111.    105.    101.    114.     94.    112.
   113.    113.    102.    114.    103.    101.     99.    111.
    81.    103.    101.    115.     90.    111.    103.     96.
    93.    107.    116.     99.    110.    106.    113.    105.
   105.    108.    118.    104.    104.     88.     88.     97.
   101.     99.     87.     90.     90.     98.    107.    102.
    98.     99.    110.    115.     82.    109.    102.     99.
    88.    120.    101.    116.    101.     92.     87.     94.
   108.    104.    105.     82.    114.    106.    103.    105.
    84.     94.    105.    105.    101.     98.    108.    106.
   104.    101.    109.    105.    102.     98.    110.    117.
   111.    107.    117.    114.    108.    108.     89.    102.
    96.     99.     98.     84.    107.     93.    105.    114.
    99.    101.     90.     95.     98.    107.     87.    110.
    99.     94.    104.     99.    103.     94.    115.     94.
    88.     93.     93.     85.    101.     96.     84.     92.
    97.     98.    118.    109.    115.    117.    100.    104.
   112.     97.     75.     99.     91.     89.     98.     90.
   106.    114.    100.     99.    101.     92.     97.     94.
   121.     98.     99.     87.    104.    103.    106.    104.
    89.    113.     91.    104.    127.    116.    112.     93.
    80.    103.    101.    120.     95.    104.    104.     93.
    94.    110.    113.     91.    104.    106.    101.     90.
    90.     93.    103.    107.     92.     95.    104.    118.
    91.     93.    117.     99.    107.    104.     95.    124.
   105.     86.    104.    108.     89.     91.    105.    100.
    99.     97.    105.    100.    110.     92.     87.    123.
   106.     95.    120.    107.    100.     98.    114.    105.
   104.    107.    112.    106.    107.    105.     98.     97.
   101.    108.    122.    113.     98.     87.     97.     78.
    96.     84.    110.     87.    105.     95.    108.    112.
   100.    114.    101.     99.    125.    103.    110.    108.
   109.     88.     91.     89.     83.    111.    112.    102.
   112.     93.     94.    101.    108.    105.     93.     95.
    87.     84.     86.    105.     90.    116.     94.    107.
    91.    101.     98.     99.     90.    113.    104.    107.
   112.    113.    107.     91.     90.    105.    104.     97.
   105.     92.     97.     83.     98.    100.     97.     99.
   100.    104.     89.     93.     89.    100.     96.    119.
   103.    116.     91.     98.     90.    117.    117.     85.
   118.    111.    105.     97.    112.     99.     95.     89.
   103.     92.    114.    104.     88.     92.    113.    100.
    95.    103.    101.    107.     97.     92.     99.     91.
    88.    100.     78.     89.     91.     98.     83.    108.
   119.     96.    109.     91.    105.     94.    100.    100.
   104.     87.    106.    113.     87.     93.     98.    114.
   109.     98.     95.     94.    108.     84.    102.    110.
    93.    117.    104.    111.     96.     86.    106.    110.
    98.     95.    101.    100.     90.    108.    100.    109.
   100.    107.     99.     97.    102.     93.    104.    108.
   102.    110.    125.     98.     94.    110.     98.    107.
   114.     86.    101.    103.    105.    101.     82.     96.
    97.     99.     92.     96.     87.     97.     95.     97.
   106.    106.    108.    107.     97.     94.    113.    106.
   111.    102.    102.    115.     97.    102.    124.    106.
    93.    103.     99.     90.    106.     93.    100.     97.
   106.    103.    108.     96.     97.    105.    105.    101.
   100.    109.     99.    102.     98.    103.    102.     91.
   107.    106.     93.     96.     91.     90.     95.     87.
    96.    114.     91.     93.     98.     96.    103.    107.
   121.     97.    100.     95.     90.    102.    108.     94.
    93.    112.    101.    100.    110.    101.    105.    103.
   114.    105.     95.    103.    114.    104.     94.    105.
   100.     99.    105.     92.    100.     96.    107.    118.
   109.    104.     98.    101.    102.     94.    101.    105.
    87.    101.     97.     97.    109.    106.    106.    106.
    98.     94.     86.     95.    102.     98.     89.    105.
   103.    101.    110.    104.     97.    117.    102.     90.
   103.     87.     99.    108.    108.    112.    106.     87.
   114.     88.     93.     93.     99.     79.    106.     98.
    92.    104.     98.    105.     82.     88.     89.     99.
   105.     92.     91.     99.    105.    111.     91.    111.
   112.     96.     97.     77.    101.     99.     93.    109.
   111.    111.     97.    111.    104.     96.    102.     89.
    97.     98.    100.     93.     95.    100.    115.     96.
    92.    108.     98.    113.     86.    106.    103.     84.
   115.    108.     85.     83.     85.     92.     99.     87.
    96.     94.    111.     99.    102.     87.     96.     94.
   102.     92.    102.     94.    111.     96.     84.    112.
    89.    111.    108.    100.     98.    116.    103.     99.
    90.    102.    104.    107.     95.    104.     93.    100.
   106.     97.    109.    106.    104.    103.     94.     96.
   106.     94.     89.     92.     97.     81.     81.     85.
   109.     92.     94.     86.    111.    108.     97.    105.
   104.    112.     88.     99.    105.     98.    105.     95.
    90.     76.     86.    104.     98.    107.     87.     94.
    86.     95.    102.     98.    101.    118.     96.    103.
    80.     90.    107.     98.    114.    102.     94.    105.
    97.     99.    111.    110.     98.     98.     96.     96.
   101.     99.    108.    110.     97.     92.    116.    108.
   116.     98.    105.    100.     89.     95.     90.     95.
   104.    101.    101.    110.    106.     96.    106.    121.
   101.     97.    108.     93.    109.    103.    102.     99.
    84.     97.     95.    100.     85.    102.     85.    104.
   105.     89.    100.    102.    118.    104.    103.    115.
    98.    105.    107.     88.    105.    101.     82.    103.
   105.     99.    113.    103.    105.    106.    105.    106.
    84.     91.    102.    107.     96.    103.    106.     90.
   100.    101.    110.    108.     93.    112.    113.     92.
    94.     96.     93.     85.     99.    105.    109.    103.
    87.     98.     89.     97.     95.     92.     86.    100.
    92.    119.    100.    106.    108.     98.    106.    115.
   104.    105.     95.     87.     93.     91.    110.    112.
   108.    101.    108.     94.     95.     99.     99.    100.
    96.     86.    104.     96.     95.    102.     97.     96.
    91.    114.     90.    101.     93.     99.    101.    100.
    94.    110.    100.     90.    100.     99.    122.     97.
    98.     93.    103.     99.     85.    104.     81.     88.
    92.     88.    109.    101.    102.    109.     92.     92.
   100.     94.    105.     90.    111.    101.     86.     88.
    95.     94.     98.    104.    113.    100.     96.    100.
    94.     87.    101.     89.    117.     96.    108.     92.
    98.     97.    104.    112.    101.     89.    111.    102.
    84.     98.     95.    117.     99.    103.     93.     70.
    99.    108.     90.     96.     97.    102.    104.    100.
    92.     82.     94.     90.     81.     99.     88.    112.
   113.    113.     92.     82.    106.     96.     97.    108.
    98.    113.     85.     77.     95.    102.     89.     91.
    86.    120.     97.    101.     94.     99.    121.     99.
   108.     98.    104.     95.     88.    103.    107.     95.
   107.     93.     90.     88.     87.     89.    103.     94.
   100.     89.     93.     95.     98.     91.    108.    103.
    91.     86.    103.     87.     83.     96.    111.    105.
   107.     97.    101.    101.    107.     93.     73.    107.
    97.     98.    110.    108.    111.     88.     95.     97.
    91.     93.    115.    125.    102.    106.    104.     99.
   102.     99.    103.     86.     94.    100.     95.     86.
    98.     94.    109.     95.     88.     89.     85.     99.
   107.     89.     97.     99.    100.    105.     95.    108.
    93.     89.     94.     85.     94.     95.    103.     91.
    91.    109.     93.     89.     86.     95.     89.    109.
    93.    100.     94.     89.    106.     98.    102.    102.
   102.    102.     91.     97.     93.     94.    102.    101.
    82.     86.     89.    101.     93.     79.     87.     97.
   103.     86.     82.    109.     98.     84.     85.     99.
    92.     89.     90.    110.     91.     94.     96.     77.
   103.    106.     91.     85.     86.     79.     81.     94.
   106.     94.    100.    100.    112.     96.     95.     85.
   107.    104.    106.     98.    108.     96.     91.     87.
    99.     83.     99.     97.     87.     88.     86.    116.
    95.     97.     93.     96.    102.    103.     88.     89.
   101.    102.     98.     94.    110.     99.     94.     88.
    95.     95.    104.     96.     97.    103.     98.     93.
    87.    105.     90.     97.    106.     87.    100.     97.
    83.     81.     94.     86.     90.    100.    111.     99.
   111.    114.     94.     82.     96.    108.    102.     93.
    89.    110.     97.     90.     92.     86.     94.    107.
    87.     94.     89.     98.     82.    107.    108.     91.
    87.     86.     94.    126.     87.     86.    108.     95.
    90.    100.    106.     91.    101.     89.     92.     88.
   101.     84.    108.     99.     94.     87.     98.    102.
   102.     87.     85.    100.     83.    119.    101.    101.
    98.     95.    113.    110.     94.    100.     96.     94.
    91.    102.    107.     92.    101.    103.    106.    103.
    98.     89.    107.    109.    110.     98.    101.     92.
   101.    101.     91.    108.    102.     90.    101.    108.
    95.    104.    110.     91.     90.    102.     97.     93.
   100.    104.     88.     95.     92.    108.     96.     90.
    89.     93.     97.    100.     88.     91.     96.     72.
   105.     86.    101.    108.    114.    108.    110.     92.
   119.     87.    106.     95.    101.     98.     95.     97.
   103.    100.     97.    102.    101.     93.     88.     87.
    63.     91.    107.    109.     83.    107.     92.     94.
    98.     99.     93.     81.    103.    104.     81.     91.
    82.     89.     95.     90.    105.     90.     97.    117.
    94.     99.    108.     87.     91.     98.    111.    106.
   106.    106.     95.     97.     88.     96.     94.    106.
    78.     90.    108.    103.     96.     83.     82.     94.
   104.     93.     96.    100.     82.    102.    108.     83.
   102.    108.    101.     96.     93.     98.     99.    104.
    95.     99.     96.    103.    101.     98.     96.     95.
    92.     87.     95.     96.     97.     88.    104.     97.
   110.     81.    100.     90.     91.    115.     87.    125.
   114.     91.    105.     88.    100.    103.     98.     98.
    82.    101.     91.     93.     94.    104.     90.    100.
    95.    109.     99.     85.     99.     91.     99.     96.
   101.     98.    103.     91.     86.    108.     94.     88.
    96.    100.     88.     88.     93.    105.     98.     86.
    89.    100.     94.     88.     91.     98.     97.     90.
   109.    118.    114.    100.     84.     96.     77.     80.
    97.     86.     95.     96.     92.     86.     91.     84.
    94.     96.    103.     99.     95.    105.     94.    103.
   101.     94.     88.    100.    110.     91.     98.     89.
    93.    111.     93.    110.     89.     98.     83.     90.
   106.     89.     90.    102.     92.     83.     83.     88.
   108.    103.     87.     88.     94.     93.     97.     99.
   104.     98.     98.     86.     93.     81.     91.     84.
   105.    100.    103.    101.     88.     85.    105.     86.
    96.     96.     97.     92.     97.    100.     94.     94.
   103.     97.     94.    110.     97.     90.     91.     85.
    99.    110.     98.     88.     98.     98.     86.     70.
   102.     86.     96.     87.     79.     93.    101.     91.
   101.     90.     86.     97.     95.    106.    100.     92.
    95.     95.     96.     98.    103.    105.    119.     98.
    99.    100.     85.     91.     83.    101.     85.     89.
    87.     87.     88.     97.     89.    108.     98.    100.
    83.     92.     92.    103.     89.     89.    105.     98.
    98.     92.    107.     89.     91.    102.     94.    104.
    94.     95.    118.    110.     98.     89.     96.    102.
    73.    101.     95.     89.     85.     95.     84.     92.
   102.     84.     82.    107.     99.    109.    111.     89.
   107.     94.     85.     90.    103.     87.     97.     93.
    89.    108.     90.    105.     93.     96.     92.    111.
    86.     81.     96.     87.     79.     91.     85.     92.
    92.     85.    106.     86.     99.    107.     86.     87.
    87.    101.     92.     88.     80.    115.    106.    101.
    84.     82.     93.     94.    104.     98.     91.    100.
    99.     96.    105.     96.     97.     85.     98.     97.
    93.     81.     91.     91.    109.    108.     97.    105.
   101.     87.     94.     88.     83.    111.     94.    106.
    90.     91.     98.     91.     93.     98.    104.     87.
   106.     97.    103.     99.     93.    105.     94.    102.
    82.     90.     92.     85.     94.     95.    110.     87.
    87.    103.     74.     90.     85.     91.     97.     93.
    96.    102.    106.    101.     86.     94.     86.    101.
    99.    105.     92.     80.     91.     89.     86.    107.
   100.     84.    108.     98.     82.    112.     80.    104.
    89.     97.     95.     88.     79.     94.     99.     93.
    92.    110.     78.     87.     83.    114.     94.    101.
   100.     86.    113.    119.     86.     86.     95.     87.
    93.     92.    116.     87.     93.     98.     97.    103.
    94.     97.    108.    108.    113.    107.     79.     88.
    91.     97.    105.    101.     84.     90.     88.     96.
    86.     96.    101.     86.    111.     93.     91.    103.
    97.    102.    106.     88.     97.     89.     96.    104.
    96.     85.     98.     98.     90.     95.     95.     89.
    89.     88.     81.     91.     98.     83.     84.     85.
    86.     76.     94.    106.     87.     95.     93.     87.
    95.     88.     97.    103.     88.     91.     86.     96.
    90.     94.     98.     93.     99.     95.     93.     91.
   106.     95.     94.     99.     94.     92.     90.     69.
    83.     72.     92.     87.     86.     95.     95.     96.
    91.     91.     90.     96.     78.     81.     94.     89.
    89.     97.    102.     88.     90.    117.    103.    106.
    77.     76.     90.     99.    106.    104.     88.     97.
   101.     85.    110.    111.     84.     99.     87.    100.
   102.     94.    101.    104.     94.     96.     94.     89.
   101.     88.     87.     86.    107.     94.    107.     97.
   107.     91.    106.     87.    100.     83.     83.     82.
    86.     88.     92.    105.     75.     92.     97.     93.
    89.    100.    106.    114.     92.    103.     93.    104.
    93.     84.     81.     84.     94.    108.    102.     89.
    94.     99.     96.     96.     94.     91.     88.     82.
    98.     94.    101.     89.     99.     79.     85.     85.
   103.     89.     93.     81.     86.     91.     93.     78.
   100.    104.     99.     89.     85.     99.    116.    105.
   102.     87.     89.     87.     92.     91.     91.    103.
    83.     96.     92.     90.     94.    110.     94.     95.
    98.     94.     84.    102.     90.     99.     98.    103.
   102.     87.     90.     91.     99.     87.    100.     84.
    93.     98.    110.     84.    108.    101.    102.     83.
    69.     89.     95.     80.     94.     92.    117.     80.
   111.     90.     90.     94.     92.    100.     95.     88.
    99.     79.    100.    123.     95.     82.     96.     84.
    93.    111.     85.    111.     88.    100.    104.     84.
    84.     89.     92.    105.     86.    104.     99.    102.
    85.     85.     82.    104.     82.     84.     87.     95.
    92.     96.    102.    103.     92.    110.    107.     96.
    88.     93.     96.    106.     96.     95.    108.     95.
   106.     82.     98.     97.     89.     98.     88.     87.
    99.    103.     83.     81.     94.    109.     87.     86.
   111.    103.    100.     92.     84.     93.     97.     94.
    87.     90.    104.    102.     94.    105.     93.     95.
    99.    108.     94.    104.    100.     99.     91.     99.
    88.     88.    109.    104.    104.     84.     88.     94.
    92.     89.    104.     98.     89.     93.     87.     84.
   104.     99.     98.    107.    104.     95.     76.     89.
    83.     95.     94.     92.     88.     87.    104.     93.
   101.     96.     79.     87.     86.     87.    107.     79.
    92.     82.     89.    102.    100.    100.     90.     96.
    78.    118.     93.     80.    102.     88.     88.     94.
    87.    102.     94.     84.     86.    100.    108.     94.
    86.    103.    113.    111.     99.     86.    104.    101.
    99.     88.     94.     88.     90.     93.     94.    102.
    92.     87.     94.     75.     94.     80.     73.     84.
    97.     99.     92.     79.     91.     91.     88.    108.
    87.    108.     99.     85.     99.     88.     76.     86.
    89.    101.     91.     83.     75.     88.     75.    102.
   105.     97.     83.    102.     86.    105.     89.    103.
   101.     88.    107.    105.     96.     91.     94.     94.
   109.     99.    110.    111.     98.     81.     93.     96.
   101.    115.     98.    104.    104.     92.     96.    110.
    89.    105.    111.     96.     84.     90.     87.     97.
   101.     96.    101.     89.     82.    107.     99.    102.
   104.    122.    107.     91.    103.     96.     84.     76.
    83.     93.     98.     89.     98.     88.    103.     84.
    92.     97.     91.     83.    101.     86.     84.     93.
    87.     80.    107.     91.     97.     90.     99.    112.
    92.    108.     93.     82.     87.     84.     96.    102.
    82.    107.    103.     94.     88.     86.     85.     91.
   108.     88.     94.     99.    100.     98.     81.    100.
    88.     97.    100.     88.     94.     92.     92.    104.
    79.     85.     78.     92.     86.     98.     96.     92.
    96.     96.     81.     87.     93.    101.    104.     96.
    96.     92.    103.     89.     93.    100.     98.     98.
    94.     92.    103.     90.     98.     87.     94.    108.
    94.     92.     88.    102.    108.     88.    114.     96.
    89.     89.     97.     93.     95.     90.     89.     80.
    89.    109.     97.    103.    100.     99.    100.     89.
    99.     90.     95.     92.     86.     86.     94.    101.
   100.     96.     90.     88.    105.     96.    104.     99.
    87.     90.    104.     95.     89.     99.    107.    107.
    89.     86.    100.     85.    101.    100.     95.     85.
    85.     81.    105.    103.    101.    101.     76.     75.
   106.     94.    105.     87.     94.     93.     97.    109.
   113.    101.     90.     82.     85.    103.     99.     97.
    90.    107.     88.     86.     86.     99.    101.     84.
    92.     96.     91.    110.     98.     91.     71.     87.
    91.     88.     97.     96.     80.     89.    104.     83.
   101.    100.     94.     93.     85.     99.     93.     97.
   102.    102.    105.     85.     93.    114.     97.    101.
    85.     85.     96.     99.     93.     92.     82.    107.
    99.     91.     95.     87.    104.    104.    101.     91.
    99.    103.     97.     99.     88.    100.     82.     98.
    95.    108.     87.     90.     98.     91.     83.     93.
   101.     97.     98.     98.     87.     86.     83.    100.
    82.     91.     97.     83.     86.    102.     87.     97.
    88.     78.     89.     88.     79.     99.     99.    111.
   109.     95.     97.     91.    103.     87.     93.    104.
    97.     90.     83.     92.     91.     78.     90.     73.
   115.     84.     95.    108.     94.     80.    102.     88.
   101.     89.     98.     91.     86.     87.     96.     90.
    90.     86.     90.     88.     86.     99.     97.     83.
    92.     97.     93.     79.     87.     92.     95.     90.
    97.     90.     87.     98.     90.    104.     94.     90.
    99.    116.     80.     92.    109.    119.     76.     88.
    97.     97.     94.     79.     84.     82.     95.    100.
   102.     88.     88.     98.     98.     94.     92.     99.
    87.     84.     90.    108.     99.     94.     90.     87.
    89.     83.     94.    108.     94.     94.     84.     88.
    89.    107.    101.     95.    101.     87.    100.     88.
    74.     90.     89.    101.     83.     88.     96.     84.
    91.     90.    102.     96.    111.     90.     99.     98.
    90.     85.     94.     78.     88.     92.    102.     96.
    92.     99.     94.     97.     90.     88.    106.     92.
    92.     88.     81.     79.     93.     82.     97.     91.
    80.     94.     98.     90.     85.     89.     83.     81.
   104.     90.     87.     94.     94.     87.     90.    107.
   119.     86.     97.     94.     98.     90.     86.    107.
    96.     92.    108.    100.     98.     96.     80.    107.
    84.     93.    100.    100.     92.     75.     94.    100.
    98.    101.     91.     93.    110.     74.     83.     88.
    99.    102.    105.    109.    102.     88.     95.     90.
   110.     94.     82.     86.     85.     86.     86.     98.
    83.     90.    103.     82.    101.     83.     79.     83.
    86.    115.     94.     90.    105.     81.     89.     91.
   101.     82.     93.     85.     84.     86.     99.    107.
    90.     92.     91.     89.    104.     86.    116.     91.
    98.     95.    109.    101.     97.     86.     95.     89.
    94.     86.     93.     89.    111.    101.     95.     92.
    96.    101.    101.    104.     87.     97.     87.     97.
    92.     81.     94.    101.     98.     79.     83.     82.
    71.     86.    101.     99.     90.     97.    109.     93.
    80.     85.     97.     95.     96.    103.     84.     85.
    94.     90.    111.     98.     90.     93.     91.     98.
    96.     89.    109.     85.    101.     93.     89.     96.
    95.    101.    100.    111.     80.     76.     91.    111.
    99.     98.     90.     90.     88.    108.     87.     91.
   102.     83.     87.     99.     95.     89.     93.     81.
    83.     95.     94.    116.     90.     80.     98.     97.
    83.     86.     98.     90.    112.    103.     94.     97.
   105.     75.     85.     91.     80.     92.     90.     92.
    97.     89.    108.     94.    102.     97.     93.    108.
    92.    106.     86.     96.     78.     98.    103.     93.
    81.     97.     94.     89.    107.    104.    101.     94.
    96.     97.     95.     89.     92.     81.     81.     84.
    93.     94.     97.     96.     95.    104.     88.     92.
    77.     87.     99.     87.     86.    103.    104.     87.
   112.    101.     88.     91.     84.     83.     75.     87.
   101.    103.     91.     91.     90.     97.    100.     90.
    91.     90.     99.    109.    107.    103.    100.     83.
    77.     89.    102.    108.     90.     90.     92.     85.
    80.     89.    106.    101.    104.     85.    100.     89.
   108.     82.     82.     75.     88.     96.     83.     94.
   103.    105.     80.     96.     73.     77.     92.     82.
    94.     87.     97.    100.     87.     88.     86.     78.
    83.     93.     82.    102.     93.     80.    100.    100.
    88.     86.     79.     76.     87.     93.     89.     96.
    83.     80.    101.     89.     70.     93.     82.     98.
    87.     84.     91.     85.     98.    106.     89.     96.
   103.    105.    102.     91.     84.    107.     86.     78.
    85.     71.     78.     75.     98.     92.     86.     75.
   114.     97.     97.     87.     91.     95.     90.     90.
    99.     88.     85.     97.    110.     90.     90.     95.
    96.     78.     88.     83.     89.     89.     96.    100.
    82.     81.     81.     77.     98.     88.     97.     96.
    87.    104.     98.     90.     94.     96.     95.    110.
    87.     96.     95.     85.     71.     93.     94.     90.
    94.     85.     87.     98.     89.     90.     84.     81.
   101.     89.    102.     93.     96.     88.     91.     84.
    91.     92.     92.    101.     90.     78.     86.     85.
    90.     89.    104.     98.     92.     87.     90.     87.
    90.     81.     84.     91.     88.     96.     95.     90.
    82.     97.     88.     94.     84.     99.     85.     90.
    87.     79.     96.     93.     92.     82.     87.     86.
    92.     93.     87.     90.    107.    110.     90.     83.
    79.    101.     83.    106.     84.     86.     90.     96.
   101.     95.    103.     87.     94.     93.     72.     84.
   103.     91.     91.    103.     78.     91.     98.     95.
    98.     95.     69.     88.     91.     90.     96.     92.
   100.     95.     83.     86.     99.     94.     90.     76.
    79.     99.     99.     85.     71.     78.     97.     98.
    95.     96.    101.    105.     83.     79.     92.    106.
    88.    108.     70.     87.     71.     80.     92.     91.
    99.     85.     89.     72.     79.     93.     79.     79.
    92.     98.     98.    104.    108.     87.     90.     73.
   101.    107.     82.    105.     91.     78.    104.     98.
    83.     91.     81.    100.     91.     74.     92.     85.
    91.     89.     82.     91.     91.     91.     89.     93.
   104.     92.     77.     91.    105.     97.    115.     88.
    80.     98.     84.     99.    100.     99.     94.     94.
    89.     87.     88.     91.     99.     96.     82.     89.
   112.     91.     86.     92.     79.     88.     91.     94.
    95.    105.     93.     96.     85.     84.    116.     95.
    90.     87.     95.     96.     78.     83.    100.    103.
    97.    113.     98.     97.     87.     84.     90.     81.
    91.     88.     87.     91.    100.     83.    108.     82.
    93.     86.     90.    117.     98.     94.     85.     99.
    81.     94.    106.     90.     92.     92.     96.     86.
    85.     91.     90.     86.     95.     93.     78.     84.
   101.     86.     86.     91.     85.     88.     93.     85.
   104.    101.     89.     93.     85.     90.    102.     93.
    91.     69.     99.    101.     99.     70.     95.     92.
   106.     76.     78.     77.     95.     95.    114.     77.
    93.     90.     93.     95.     98.    101.     99.     89.
    81.    100.     99.     90.     96.     99.     84.     85.
    83.     98.     74.     91.     85.     83.     85.     83.
    94.     84.     85.     91.    102.     98.     88.     88.
    84.     85.     88.     83.     94.     81.     95.     84.
    83.     91.    108.     91.     86.     89.     93.     84.
   100.     94.     89.     96.     93.     92.     94.     98.
    80.     87.     84.     95.    100.     94.     81.     88.
   100.     92.     99.     98.     97.     96.     95.     87.
    88.     86.     89.    102.     82.     94.     73.     73.
    94.     86.     84.    104.    104.    107.     90.     88.
    84.     93.     76.    106.     93.     84.     97.     80.
    88.     89.     72.     82.     89.     77.     94.    100.
    78.     92.     89.     88.     96.     89.     82.     83.
    87.     76.     85.     90.     95.     97.     97.     91.
    92.     96.     76.     80.     98.     98.     83.     84.
    93.     83.     86.     90.     90.    101.     93.     94.
    88.    110.     91.    105.     94.     78.    101.    106.
   101.     81.     80.     85.     92.    103.    104.     92.
    78.     81.     94.     90.     74.     92.    107.     92.
    85.    110.     87.     86.     92.     82.     95.     90.
    93.     96.     83.    104.     95.     95.     90.     92.
   103.     99.     98.     84.     87.     97.     84.     91.
    90.     81.     82.     73.     95.     70.     89.     80.
    91.     82.     90.     93.     92.    106.     83.     96.
    77.     90.     98.     95.     93.     89.     87.     91.
    78.     94.     83.     95.     82.     96.     78.    101.
    84.     76.     79.     93.    107.     83.     91.     83.
    88.     90.     80.     82.     95.     89.     96.    102.
    90.     93.     86.     99.     88.     88.    103.     92.
    96.     86.     79.     78.     99.    102.     97.     80.
    85.     86.     90.     87.     81.     87.     95.     84.
    93.     80.     79.    106.     86.     83.     92.     90.
    83.     76.     74.     75.     73.     75.     86.     83.
    89.     87.     85.     89.    101.     80.     89.     81.
    94.     76.     82.     82.     82.    100.     94.     90.
    94.     87.     90.     82.    103.     87.    105.    106.
    90.    101.     93.     75.     87.     95.     83.     93.
    93.    100.     93.     95.     87.    106.     99.    100.
    87.     92.     92.     97.     87.     83.     84.     82.
    80.     87.     86.     90.     82.     89.     98.     73.
    96.     87.     86.     90.     83.     75.     79.     85.
    73.     80.     90.     89.     83.     86.     91.     93.
    87.     86.     78.     89.     87.     90.     96.     94.
    96.     94.     86.     84.     79.     85.     78.     98.
    88.     83.     99.    100.     94.     89.    100.    101.
    88.     86.     93.     95.    107.    100.    108.     82.
    94.     89.    104.     81.     82.     82.     85.     78.
    95.     89.     84.     85.     85.     90.     93.     82.
    93.    100.     96.     83.     78.     95.     96.     95.
    97.     87.     89.     81.     88.     92.     97.     87.
    81.     96.     91.     93.     96.     93.     87.     95.
    97.     95.     86.     80.    111.     93.    105.     99.
    95.     87.     75.     80.     71.     94.     91.     92.
    67.     92.     90.    100.     86.     96.     92.     97.
    93.     92.     88.     84.     80.     87.     91.     96.
    82.     85.     91.     88.     94.     85.     93.     81.
    73.     77.     75.     96.     85.     90.     97.     93.
    86.     93.    109.     89.     86.     82.    108.     98.
    85.    102.     78.     92.     88.     92.     83.     92.
    78.     82.     78.     91.     81.     84.    104.     82.
    96.     87.     92.     82.     69.     87.     98.     93.
    69.     96.     84.     97.     82.     94.     93.     77.
    86.     87.    112.    101.    103.     78.     94.     87.
    90.     88.     86.     83.     80.     93.    102.    102.
    89.     76.     85.     88.     89.    108.     95.     87.
    91.     89.     98.    103.     92.     93.     83.     81.
    82.     88.     99.     91.     88.     87.     78.     90.
    95.     83.     87.     97.     80.     91.     94.     98.
    93.    102.     82.     80.     81.     77.    102.     82.
    91.     96.     90.     89.    107.     83.     86.     93.
    84.     87.     99.     85.     90.    105.     97.     93.
   101.     98.     80.     91.     91.     78.     95.     93.
    70.     80.     90.     94.     90.     78.     89.     98.
   107.     95.     88.     98.     79.     91.    102.     98.
    92.     82.     76.     73.     73.     90.     91.     83.
   100.     98.     90.     90.    108.     93.    105.     97.
    92.     99.    100.     91.     87.     91.    100.     84.
    81.     85.     85.     82.     83.    103.     86.     97.
    82.     97.    107.     98.     93.     92.     85.     82.
    91.     88.     82.    103.     95.     92.     85.     93.
   100.     90.     83.     78.     86.     81.     87.    101.
    93.     90.     95.     88.     73.     79.     91.     92.
    96.     95.     98.    104.     91.     91.     89.     99.
    93.    101.     79.    108.     95.     93.     96.    100.
    87.     81.     97.    103.     83.     84.     78.     99.
    71.     88.     93.     93.     78.     92.     83.     81.
   103.     87.     93.     96.     82.     88.     85.     94.
    89.    101.     92.     95.     93.     84.     90.     99.
    95.     91.    100.    111.     83.     73.     86.     87.
    94.    101.     92.     93.     75.     99.     86.     95.
    84.     97.     85.     87.     87.    101.     83.     85.
    81.     88.     82.     82.     87.     95.     75.     87.
    85.     86.     79.    101.     91.     93.    101.     98.
    90.     86.     95.    101.     83.     75.    109.     92.
    85.     87.    100.    103.    105.     93.     78.     82.
    90.     90.    113.     86.    101.     92.     86.     96.
    84.     95.    109.     94.     85.     94.     90.    101.
    85.     96.     93.     89.     96.     81.     78.     84.
    85.     86.     91.     89.     77.     87.     80.     92.
    81.     91.     76.     84.     86.     86.     89.    100.
    81.     79.     78.    104.    100.     76.     76.     80.
    86.     82.     90.     83.     83.     89.     91.    100.
    84.    100.     84.     95.    100.     98.     89.     92.
    97.     95.     92.     91.     95.     93.    105.     98.
    78.     97.     84.     80.     93.     90.     95.     98.
    97.     92.     91.     99.     76.     82.     92.     91.
    83.     87.     74.    104.     90.     85.     93.    103.
    85.     96.    100.     94.     98.     94.     83.     95.
   110.    100.     97.     81.     89.     83.     97.    100.
    99.     94.     83.     82.     77.     80.     83.     92.
    83.     87.     96.     90.     88.     85.     97.     84.
    98.    104.     86.     84.     82.     98.     86.     93.
    89.     87.     88.     97.    108.     88.    102.    103.
    97.     88.    101.     89.    109.     84.    103.     84.
    88.     89.     92.     99.     78.     93.     90.     98.
    88.     92.     95.    106.     99.     63.     91.    100.
    83.     94.    100.     94.     97.     88.     92.     71.
    79.     96.     81.     92.    102.     85.    105.     86.
    98.    112.     92.     95.     83.     90.     93.     87.
    69.     86.     77.     90.     75.     98.     85.     91.
   109.     95.    106.     96.     96.     87.     81.    102.
    94.     84.     88.     97.     85.     96.    100.     72.
    77.     92.     85.     98.     82.     96.     96.     98.
   102.     87.     89.     73.     78.    101.     93.     78.
    91.    104.     90.     78.     87.     89.     79.     97.
    92.     74.     85.    100.     81.     88.     97.     91.
    89.     80.     83.    106.    105.     98.     88.    101.
    78.     96.     87.     85.     96.    103.    106.     92.
    91.     91.     77.     98.     97.    101.     92.     90.
    69.     79.     96.     78.     80.    105.     88.     88.
    90.     95.     96.     95.     80.     93.     96.     94.
    89.     90.     78.     88.     85.     87.     97.    109.
   102.     98.     95.     90.     97.     77.     91.     95.
    80.     97.     81.    102.    101.     92.     80.     98.
    88.     94.     88.     92.     90.     88.     90.     92.
    87.    104.     96.     95.     97.     95.     89.     87.
    85.     91.     82.     86.     87.     89.     91.     99.
    82.    103.     81.     78.     76.     85.    102.     95.
    93.     90.     87.     92.     88.     85.     79.     85.
    86.     87.     71.     72.     88.     97.     94.     90.
    98.     95.     91.     84.     79.     85.     91.     86.
    89.     90.     91.     89.    101.     87.     88.     81.
    80.     88.    101.     83.     93.     89.     94.    104.
   106.     93.    102.     79.     80.     76.     83.     90.
    93.     92.     84.     81.    102.     90.     99.     93.
    90.     87.    107.     99.     89.     81.     98.     80.
    87.     82.     95.     98.    103.     74.     83.     86.
    82.     81.     90.     87.     98.     84.     79.     88.
    82.    102.     93.     95.     85.     89.     94.    106.
    84.    101.     91.    100.     87.     76.     94.     88.
    78.     91.     87.     99.     90.     71.     89.     98.
    89.     84.     77.     85.     88.     86.     90.    100.
    93.     93.    113.     89.     81.     82.     87.     99.
    89.     84.     99.     91.     97.    101.     99.    105.
    83.     84.    108.     72.     82.     96.     96.     96.
   103.     77.     79.     79.     95.     90.     87.     94.
    73.    107.     84.     97.     88.     88.     81.     82.
    85.     96.     91.     77.     91.     92.     70.     96.
    83.     89.    114.     94.     91.     90.     77.     74.
    97.     89.     94.     84.     96.     96.     88.    107.
    89.     77.     92.     88.     87.     91.     88.     83.
   108.    107.     84.     77.    102.    111.     89.     93.
    86.     90.     83.     93.     93.     84.     83.     92.
    95.    104.     89.     78.     79.     88.     98.     96.
    93.    104.     84.     64.     90.     91.     74.    106.
   108.     98.     87.     96.     85.     96.     92.     92.
   102.     81.     80.     94.     92.     87.     94.    103.
    82.     91.     86.     99.     87.     96.     81.    104.
    90.     82.     97.     99.     80.     90.     89.     89.
    98.     87.     80.     97.     90.     92.     90.     89.
    92.    110.     87.    100.     81.     81.     83.     95.
    91.     77.    100.     86.     75.     79.     78.     82.
    96.     92.     87.     87.     75.     85.     84.     86.
    80.     86.     95.     72.     84.     97.     92.     84.
    84.     98.     82.     93.     93.     96.     94.     96.
    78.     91.     96.     80.     83.     85.     80.     94.
    89.     83.     92.     89.     80.     82.     90.     78.
    83.     98.     76.     87.     88.    112.     95.     90.
    82.     88.     84.     80.     99.     94.    100.    101.
    87.     77.     78.     90.     78.     83.     91.     93.
    90.     91.     94.     93.     86.     95.     94.     82.
    82.    102.    101.     99.     95.     91.     97.     99.
    85.     87.     95.     83.     93.     81.     88.     76.
    73.     94.    116.     90.     93.     80.     89.     75.
   101.     91.    100.     92.     80.    102.     86.     86.
   103.     83.     97.     85.     91.     86.     86.     94.
    93.     83.     95.     96.     80.     92.     71.    102.
    98.     80.     88.     83.     80.     96.    101.     78.
   104.     81.     96.     88.    104.     90.     87.     89.
    95.     90.     85.     82.     77.     79.    104.     86.
    95.     81.     87.     73.     83.     93.     87.     81.
    76.     75.     85.    101.     97.     96.     95.     79.
    96.     73.     81.    100.     92.     98.     87.     95.
    97.    100.     84.     82.     83.     84.     84.     78.
    97.     90.     81.     99.     83.    100.     85.     88.
    93.     98.     93.    103.     95.     86.     91.     92.
    87.     92.     95.    109.     94.     83.     88.     97.
    90.     80.     83.     76.     77.     95.     81.     88.
    94.     83.     93.     83.     80.    107.     95.     85.
    94.     96.     95.     77.     79.     85.     83.     95.
    83.    107.     98.     87.     78.     90.     80.    100.
    75.     89.     97.     98.     93.     96.     90.    102.
   110.     89.     95.     98.     80.     85.     97.     99.
    95.     85.     92.     87.     86.     91.     92.     75.
    84.     85.     82.     85.     96.     95.     84.     89.
   105.     71.     94.     85.     95.     83.     96.     96.
    84.     97.     79.     84.     90.     75.     95.    105.
    90.    102.    111.     93.     94.    105.     89.    104.
   107.     97.     95.     95.    100.     89.     93.     95.
    95.     88.     80.     96.     84.    100.     98.     96.
    94.     74.     81.     81.     83.     82.     83.     75.
    87.     84.     90.     78.     86.     88.     85.    112.
    86.     99.     88.     81.     68.    102.     93.     99.
    98.     79.     87.     85.     92.     94.     91.     91.
   100.     90.     78.     74.    104.     84.     83.     83.
    87.     96.     93.     87.     93.     81.    105.     84.
   105.     88.     93.     93.     95.     95.     89.     82.
   100.     81.     80.     94.    102.     78.     81.     95.
    81.     82.     91.     93.     86.     71.     89.     94.
    98.     76.     90.     90.     82.     92.     87.     90.
    96.    100.    103.     95.     95.     91.    100.     83.
    85.     78.     85.     85.     87.    101.     85.     82.
    85.     87.     79.     90.     82.     91.     71.     99.
    95.     83.     88.     89.    102.     91.     76.     94.
    98.     84.     84.     76.     84.     93.     98.     84.
    91.    106.     98.     98.     94.     88.     81.     83.
    79.     87.     80.     82.     79.     80.     78.     79.
    79.     85.     84.    106.     83.     82.     90.     93.
    91.     88.     95.     88.     92.     89.     92.     74.
   104.     85.     72.     91.     82.     84.     84.     87.
    74.     89.     84.     77.     98.     99.    101.    106.
    82.     83.    102.     77.     99.     79.     96.     89.
    76.     87.     73.    107.    101.    102.     83.     90.
    77.    106.     92.     96.     83.     96.     98.     88.
    92.     80.     97.     78.     92.     93.    103.     97.
    97.     91.     98.     90.     89.     87.    100.     92.
    78.     85.     78.     85.     92.     78.     97.     80.
    97.     86.     76.     89.     92.     91.     98.     84.
    88.     91.     81.     86.     99.     72.     98.     85.
    88.     92.     89.     86.     88.     88.    100.     98.
    86.     93.     88.     85.     98.     94.     79.     92.
    82.     96.     93.     94.     92.     97.    102.     82.
   102.     95.     91.     92.     90.     72.     85.     94.
    89.     82.     87.     81.     82.     82.     96.     90.
    84.    102.     90.     88.     75.     88.     81.     96.
    78.    100.     89.    106.    102.     86.     86.     79.
    83.     85.     68.     89.     95.    111.     91.     77.
    92.     95.     75.     97.     86.     93.     88.     82.
   104.     84.    104.     90.     78.     94.    112.     81.
    75.     77.     76.     89.    106.     77.     84.     88.
    89.     88.     86.     82.     87.     95.     87.     86.
   108.     95.     91.     94.     88.     98.    111.     76.
    94.     81.     90.     80.     82.    104.    102.     81.
    83.     84.    100.     86.     75.     82.     86.     80.
    80.     84.     91.     80.     90.     94.    103.     84.
    88.    101.     90.     73.     79.     91.    100.     90.
    88.     79.     96.    100.     94.     93.     91.     74.
   100.    102.    103.     71.     86.     90.     92.     90.
    88.     87.     78.     81.     93.     98.     83.     84.
    95.     94.     93.     85.    100.     87.     90.     86.
    85.     80.     92.     85.     93.     93.     71.     95.
    81.     90.     85.     81.     85.     97.     91.    100.
    84.     95.     91.     76.     93.     85.     84.     87.
    86.     95.     86.     89.     82.     81.     88.     86.
    78.     75.     98.     93.     93.     95.     89.     90.
    84.     85.     90.     87.     81.     84.     74.     90.
    87.    111.     77.     88.     94.     83.     90.     90.
    89.     97.     87.     95.     85.     89.     81.     94.
    80.     86.     83.     89.     94.     94.     81.     84.
    81.     82.     87.     81.     79.     75.     78.     79.
    95.    100.     91.     80.     94.     86.     83.     86.
    86.     76.     87.     82.     86.     77.     94.     82.
    87.     81.     73.     93.     88.     84.     82.     88.
    72.     92.    101.     92.     80.     96.     76.     82.
    92.     67.     89.     88.     89.     90.     85.     93.
    84.     85.     84.     85.     80.     80.     89.     78.
    88.     85.     81.     94.     87.     88.     81.     79.
    85.     81.     94.     85.     94.     77.     80.     88.
    78.     87.     83.     92.     83.     80.     86.     82.
    72.     84.     79.     82.    109.     85.     94.    104.
    72.     94.     82.    101.     93.     94.     93.     97.
    90.    103.     72.     81.     96.    100.     92.     76.
   106.    100.     83.     76.     84.     73.     73.     84.
    84.     77.     94.     95.    105.     92.     80.     94.
    90.     93.     98.     86.     88.     91.     99.     89.
    81.     91.     96.     99.     80.     74.     84.     84.
    94.     92.     91.     79.     83.     96.     91.    100.
    84.     88.     98.     86.    101.     90.     87.     80.
    99.     94.     71.     82.     87.     89.     86.     95.
    72.     82.     74.     68.     80.     80.     96.     93.
    84.     84.     76.     96.     79.     85.     81.    101.
    84.    100.     94.     92.     85.     86.     84.     85.
    84.     95.     87.     90.     82.     86.     89.     74.
    76.     79.     81.     90.     82.     91.     79.     88.
    79.     81.     85.     88.     79.     92.     96.    106.
    93.     73.     91.     82.     91.     99.     88.     85.
    95.     83.     88.     94.     73.     83.     88.     75.
    92.     90.     88.     81.    107.     80.     94.     87.
    86.     93.     87.     87.     93.     84.     73.     80.
   100.     89.     82.     95.    104.     87.     81.     74.
    94.    100.     85.     80.     80.    102.     78.     70.
   106.     84.     84.     88.     93.     87.     87.     87.
    91.     91.     98.     95.     94.     86.     80.     82.
    83.     68.     80.     78.     83.     82.     93.     86.
    90.     99.     88.     87.    105.     94.     82.     89.
    84.     84.     69.     87.     78.     87.     92.     94.
    87.     89.     86.    105.     87.    100.     85.     93.
    82.     87.     88.     88.     85.     82.    107.     98.
    92.     82.     87.     98.     78.     78.     92.     82.
    97.     85.     90.     95.    108.     98.     87.     92.
    81.     87.     98.     87.     96.     97.     73.     97.
    96.     90.     93.     86.     86.     88.     91.     97.
    99.     82.     95.     94.     88.     84.    103.    101.
    87.     92.     96.     96.     77.    104.     92.    100.
    79.     94.     99.     84.     80.     78.    109.     85.
    79.     96.     83.     74.     91.    101.     81.     82.
    82.     85.     95.    101.     99.     87.     83.     88.
    90.     93.     77.     85.     95.     85.     80.     70.
    86.     96.     93.     89.     87.     75.     95.     88.
    84.     86.     92.     84.     95.     88.     86.     96.
    85.     77.     78.     91.     82.     85.     81.     91.
    97.     78.     79.     83.     90.     94.     94.     86.
    77.     71.     89.     74.     94.    101.    100.     91.
   100.     87.     94.     90.     83.    105.     82.     80.
    82.     82.     76.     94.     96.    100.     99.     88.
    76.     87.     88.    101.     99.     78.     89.     92.
    81.     97.     89.     76.     86.     87.     98.    106.
    93.    103.     97.     81.     96.    101.     92.     73.
    90.     76.     85.     82.     92.     74.     84.     79.
   103.     77.     72.     86.     83.     98.     81.     87.
   102.     76.     91.     72.     87.     92.     86.     87.
    92.    103.     88.     88.     73.     89.     79.     83.
    82.     98.     81.     90.     90.     91.    107.     79.
    96.     86.     87.     87.    101.     91.     81.    105.
    90.     89.     90.     78.     94.     98.     81.     78.
    92.     87.     77.     78.     90.    101.     94.    105.
    95.     85.     84.    106.     82.     90.    100.     91.
    95.     78.     87.     83.     84.     83.     82.     91.
    82.     75.     80.     90.     86.     88.     88.     89.
    82.     66.     91.     84.     89.     84.     81.     98.
   100.     81.     90.     87.     98.     82.     96.     81.
    79.     86.    107.    101.     87.     81.     86.     76.
    92.     82.     95.     90.     93.     86.     81.     88.
   105.     91.     77.     90.     89.     96.     86.     81.
    79.     85.     71.     97.     95.     65.     93.     86.
    90.     87.     79.     78.     91.     91.     77.     89.
    85.     73.     87.     80.     83.     73.     93.    111.
    85.     94.     84.     80.     91.     83.    101.     83.
    93.     69.     76.    101.     86.    100.     79.     92.
   102.     93.     88.     89.     96.     82.     85.    100.
    94.     88.     93.     99.     88.     96.     97.     95.
    85.     88.     87.     98.     91.     92.     86.     82.
    95.     92.     75.     66.     78.     75.     89.     90.
    94.     82.     76.     94.     90.     90.     92.     81.
    86.     95.     84.     96.     96.     81.     96.     86.
    97.     92.     79.     89.     80.     91.     84.    102.
    89.     86.     96.     95.     96.     87.    105.     93.
    96.     90.     81.     79.     99.     97.     71.     66.
    97.     88.     87.     85.     86.     91.    101.     83.
    93.     82.     79.     83.     80.     96.     77.     84.
    79.     89.    103.     94.     85.     82.     82.    102.
    93.     82.     92.    100.     94.     94.     81.     95.
    94.     94.     76.     75.     88.     75.     85.     83.
    65.     79.     84.     95.     96.     94.     91.     93.
    80.     80.     91.     77.     94.     85.     82.     98.
    89.     79.     71.     70.     83.     83.    102.     84.
    93.     77.     83.    100.     78.     94.     89.    105.
   100.     96.     77.     80.     78.     86.     87.     83.
    93.     96.     78.     95.     86.     83.     72.     87.
    90.     79.     82.     83.     84.     87.     73.     81.
    94.     89.     84.     98.     83.     82.     92.     93.
    80.     78.     86.     78.     98.     87.     88.     93.
    89.     75.     90.     91.     80.     87.     97.     90.
    94.     87.     89.     92.     89.    103.     91.     90.
    94.     73.     87.     89.     93.     89.     81.     91.
    93.    101.    100.     85.     83.     81.     75.     89.
    73.     85.     68.     81.     92.     93.     82.    104.
    88.     86.     95.     92.     72.     82.     77.     86.
    93.     81.     78.     90.     89.     92.     87.     96.
    88.     88.     80.     79.     80.     74.     85.     69.
    79.     84.     88.     98.     83.     94.     80.     96.
    79.     91.     83.     77.     85.    102.    101.     97.
    85.     94.    105.     74.     93.     65.     85.     96.
    85.     84.     97.     93.     77.     90.     85.     86.
    92.     89.     94.     76.     89.     77.     90.     91.
    79.    101.     99.    103.     80.     85.     95.     87.
    83.     86.     91.     84.     81.     90.     84.     92.
    91.     94.     75.     86.     91.     89.     94.     68.
    86.     80.     84.     95.     82.     89.     75.     57.
    91.     89.     75.     91.     99.     78.     92.     92.
    91.     92.     67.     88.     84.     61.     87.     93.
    89.     95.    103.     85.     84.     88.     93.     89.
    97.     80.     93.     80.     98.     85.     82.     78.
    83.     83.     81.     84.     74.     99.     91.     84.
    96.     87.     81.     87.     83.     74.     87.     87.
   103.     92.     92.     80.     81.     90.     86.     87.
    89.     77.     91.     97.     72.     75.     72.     71.
   113.     88.    104.     89.     85.     89.     87.     82.
    95.     95.     92.    100.     89.     74.     94.    101.
    92.     81.     89.     96.     80.     86.     75.     95.
   103.     79.     77.     79.     84.     87.     80.     83.
    94.     80.     85.     65.     89.     85.     84.     93.
    88.    104.     78.     78.     72.     89.     82.     84.
    69.     96.     87.     91.     86.     81.     66.     87.
    78.     90.     80.    101.     88.     94.     89.     86.
    93.     97.     72.     70.     84.     94.     82.     87.
    76.     77.     87.     92.     89.     96.     81.     84.
    81.     77.     75.     88.     80.     91.     88.     78.
    80.     77.     80.     80.     67.     88.     87.     78.
    99.     88.     89.    109.     94.     82.     71.     86.
    91.     80.     76.     80.     84.     90.     91.     83.
    90.     91.     87.     84.    106.     83.     91.    101.
    91.     93.     86.     74.     87.     83.     95.    101.
    80.     82.     68.     87.     92.     85.     81.     89.
    89.     98.     74.     95.     82.     84.     92.     84.
    90.     82.     91.     78.     89.     98.     73.     85.
    76.     83.     96.     73.     81.     87.     91.     84.
    85.     91.     94.     82.     87.     71.     82.     87.
    71.    100.     87.     87.     84.     68.     80.     73.
    78.     89.     88.     90.     78.     83.     89.     90.
    73.     87.     96.     99.     90.    101.    101.     76.
    80.     95.     86.     84.     80.     80.     77.     94.
    98.     83.     93.    105.     83.     94.     86.     87.
    92.     81.     90.     98.     82.     91.     88.     92.
    87.     95.     98.     85.     92.     84.     92.     82.
    88.     95.     93.     99.     75.     76.     79.     78.
    88.     93.     74.    102.     90.     76.     81.     94.
    78.     88.     82.     81.     86.     74.     76.     94.
   102.     87.     80.     94.     87.    100.     89.     73.
    86.     77.     89.     89.     77.     84.     96.     80.
    71.     91.    103.     84.     94.     93.     91.     78.
    92.     89.     96.     89.     94.     91.     85.     87.
    88.     84.     98.     94.     93.     99.     88.     78.
    78.     78.     78.     98.     82.     78.     98.     81.
    86.     76.     83.    102.     78.     98.     84.     86.
    81.     86.     90.     77.     91.     91.     92.     83.
    83.     96.     90.     90.     88.     95.     86.     71.
    83.     97.     94.     84.     97.     92.     74.     80.
    96.     78.     92.     90.     88.     83.     87.     91.
    87.     93.     77.     76.     87.     86.     91.    102.
   104.     87.     82.     93.     97.     87.     78.     88.
   104.    106.     73.    102.     81.     71.     82.     80.
    76.     97.     84.     80.     86.     80.     80.     70.
    86.     84.     92.     99.     95.     91.     77.     70.
    95.     77.     86.     80.     73.     82.     88.     81.
    91.    104.     98.     85.     92.     79.     87.     85.
    81.     69.     84.     80.     86.     81.     84.     96.
    91.     78.     88.     92.     90.     82.     66.     76.
    84.     72.     76.     64.     90.    107.     98.     90.
    91.     91.     75.     70.     69.     83.     90.     83.
   101.     87.     86.     86.     80.     74.     81.     79.
    88.     95.     87.     80.     72.     79.     70.     96.
    77.     78.     72.     75.     61.     79.     88.     80.
    92.     80.     74.     79.     85.     66.     81.     70.
    84.     82.     94.     80.     85.     68.     84.     82.
    83.     78.     77.     70.     93.     81.     91.     70.
    90.     89.     91.     95.     88.     90.     91.    105.
    74.     96.     76.     85.     93.     79.     94.     77.
    87.    107.    102.     87.     86.     79.     78.     87.
    92.     85.     85.     76.     79.     94.     87.    100.
   105.     88.     84.     84.     93.     94.     96.     95.
    84.     65.     82.     79.     88.     81.     72.     88.
    75.     86.     90.     79.     77.     93.     95.     76.
    97.     81.     65.    104.     84.     89.     93.     80.
    96.     85.     83.     92.     84.     71.     96.     80.
    87.     68.     94.     89.     81.     80.     94.     94.
    71.     96.     87.     94.     93.     91.     90.     80.
    74.     80.     87.     99.     80.    106.     84.     78.
    85.     81.     78.     91.     90.     87.     95.     79.
    97.     75.     86.     80.     78.     80.     94.     80.
    80.     81.     84.     85.     78.     91.     91.    104.
    87.     84.     80.    100.     91.     89.     78.     91.
    75.     94.     82.     98.     88.     85.    101.     79.
    78.     98.     79.    112.    104.     72.     84.     92.
    77.     86.     95.     76.     85.     84.     95.     81.
    82.     81.     79.     87.     72.     78.     78.     80.
    87.     97.    106.     85.     79.     85.    105.     95.
    87.     89.     90.     75.     96.     94.     90.     77.
    78.     89.     91.    103.     86.     97.     57.     82.
    84.     79.     86.     80.     79.     75.     92.     71.
    96.     85.     91.     78.     75.     86.    105.     83.
    92.     78.     85.     88.     95.     89.     77.     83.
    77.     79.     74.     92.     86.     86.     91.     94.
    80.     99.     97.     91.     90.     90.    114.     96.
    85.     91.     94.     74.     74.    102.     86.     90.
    85.     78.     82.     96.     72.     84.     84.     80.
    85.     90.    102.    100.     95.     84.     87.     87.
    84.     98.     90.     81.     89.     83.     79.     89.
    83.     79.     78.     90.     86.    101.     87.     87.
    90.     85.     89.     88.     87.    105.     90.     82.
    97.     91.     97.     90.     74.     73.     90.     73.
    90.     99.     84.     78.     70.     85.     84.     95.
    85.     95.     89.     94.     95.     81.     94.    103.
    84.     89.     90.     85.     89.     87.     80.     76.
    68.     81.     85.     83.     80.     73.     89.     97.
    86.     70.     82.     95.     91.     65.     97.     81.
    82.     87.     85.     79.     79.     93.     75.     84.
    70.     88.     87.     88.     88.     78.     78.    100.
    81.     86.     79.     77.     87.     90.     81.     84.
    72.     90.     87.     80.     88.     77.     84.     63.
    79.     78.     90.     88.     88.     80.     75.     76.
    75.     92.     77.     84.    103.    103.     94.     82.
    79.     75.     94.     82.     82.     79.     83.     80.
    90.     80.     91.     91.     87.     81.     97.     77.
    94.     84.     88.     97.     77.     90.     80.     80.
    91.     78.     92.     99.    100.     93.     87.     82.
    83.     95.     89.     88.     83.     80.     79.     85.
    75.     71.     98.     91.     89.     89.     85.     80.
    84.     81.     85.     99.     86.     85.     94.     91.
    97.     90.     72.     81.     88.     80.     90.     66.
    93.     96.     92.    105.     83.     76.     79.     78.
    82.     88.     75.     85.     79.    100.    108.     75.
    87.     84.     92.     85.     97.     84.     97.     93.
    91.     86.     91.     96.     68.    106.     78.     71.
    92.     87.     84.     83.     92.     79.     87.     86.
    77.     93.     99.     94.     87.     81.     94.     84.
    81.     88.     81.     71.     92.     82.     83.     81.
    99.     85.     88.     75.     76.     81.     80.     87.
    98.     89.     68.     79.     89.    101.     88.     84.
    86.    104.     94.     89.     88.     77.     91.     93.
    91.     96.     90.     97.     85.     83.     96.     79.
    72.     85.     96.     89.     79.     80.     87.     85.
   102.     92.     96.     94.     90.     98.     82.     81.
    98.     86.     82.     80.     85.     69.     79.     88.
    93.     94.     87.     80.     92.    100.     97.     67.
    72.     87.     79.     93.     92.     86.     87.     77.
    68.     83.     87.     81.     71.     95.     85.     88.
    94.     91.     92.     88.     73.     82.     82.     94.
    81.    104.     81.     81.     75.     85.     89.     87.
    81.    100.     85.     78.     78.     89.     83.     78.
    99.     98.     96.     91.     97.     83.     84.     79.
    74.     84.     86.     88.     89.     96.     84.     96.
    87.     94.    102.    102.     78.     83.     72.     90.
    84.     71.     91.     86.     83.     79.     75.     82.
    73.     73.     93.     93.     89.     81.    101.     64.
    73.     98.     92.     78.     75.     94.     76.     69.
    97.     88.     92.     93.     81.     74.     85.     64.
    87.     91.     78.     81.     71.     86.     92.     70.
    79.     84.     80.     68.     76.     91.     90.    101.
    84.     92.     92.     81.     98.     82.     83.     93.
    94.     76.     92.     88.     99.     98.     89.     84.
   100.     98.     80.     93.     98.     81.     90.     92.
    94.     82.     73.     92.     90.     90.     91.     81.
    82.     81.     85.     85.     82.     80.     77.     70.
    86.     86.     91.     91.     82.     90.     72.     83.
    94.     81.     81.     69.     89.     76.     86.     82.
    91.     94.     72.     78.     85.     88.     87.     81.
    89.     92.    103.     88.     85.     89.     81.     83.
    86.     97.     85.     81.     93.     87.     70.     86.
    79.     86.     82.     86.     83.     91.     92.     75.
   100.     90.    101.     87.     77.     86.     78.     96.
    90.     90.     79.     83.     85.     81.     99.     74.
    77.     91.     75.     96.     92.     87.     79.    102.
    76.     86.     80.     99.     84.     78.     76.     97.
    92.     88.    105.     76.     76.     78.     74.     75.
   102.     91.     91.     81.     83.     86.     82.     74.
    74.     83.     79.     75.     80.     77.    113.    104.
    91.    100.     94.     88.     94.    104.     91.     89.
    86.    101.     82.     85.     91.     86.     82.     94.
    79.     78.     80.    100.     87.     76.     93.     72.
    75.     87.     88.     85.     82.     83.     72.     79.
    71.     73.     88.     74.     84.     92.     77.     88.
    77.     82.     94.     78.     91.     79.    106.    105.
   101.     83.     77.     88.     88.     70.     86.     90.
    84.     87.     83.     71.     90.     85.     79.     92.
    90.     86.     91.     76.     85.     80.     89.     80.
    92.     84.     97.     90.     83.     72.     86.     82.
    83.     90.     83.     90.     73.     69.     73.     76.
    74.     97.     93.     88.     91.     94.     92.    100.
    88.     78.     78.     91.     92.     90.     76.    105.
    91.     94.    100.     96.     87.     90.     86.    100.
    93.     87.     87.     90.     94.     82.     84.     84.
    87.     90.     97.     87.    106.     96.    101.     94.
    83.     89.     91.     83.     81.     76.     83.     92.
    86.    100.     98.     80.     94.     82.     79.     98.
    92.     84.    109.     85.     86.     74.     89.    100.
    87.     88.     97.     77.     74.     85.     87.     86.
    90.     94.     79.     88.     88.     96.     95.     79.
    88.     83.     83.     79.     91.     97.     86.     92.
   100.     97.     88.     73.     98.     88.     99.     71.
    76.     90.     94.     94.     90.    100.     81.     81.
    82.     91.     96.     92.     81.     93.     95.     96.
   100.     96.     84.     94.     92.     95.     85.     86.
    95.     87.     88.     92.     95.    100.     71.     84.
    82.     88.     88.     85.    100.     88.     65.     76.
    91.     87.     99.     93.     82.     88.     95.     90.
    96.     83.     77.     84.     85.     97.     90.     72.
    81.     93.     98.     98.     94.     77.     82.     87.
    81.     97.     92.     92.     97.     84.     86.     80.
    91.     76.     82.     83.     94.     89.     91.     98.
    79.     86.     68.     84.     91.    102.     84.     82.
    89.     97.    101.     86.     85.     79.     77.     77.
    77.     78.     93.     73.     83.     91.     87.     80.
    87.     79.     85.     78.     77.     84.     82.     83.
    83.     79.    102.     95.     92.     92.     84.     83.
    82.     89.     80.     85.    109.     91.     84.     89.
    84.     85.     72.     86.     77.     81.     78.     86.
    99.     89.     86.     84.     85.     74.    108.     84.
    92.     71.     93.     88.     78.     83.     71.     77.
    83.     94.     88.     92.     80.     81.     87.     79.
    69.     82.     83.     78.     75.     82.     75.    104.
    90.     79.     93.     78.     86.     94.     89.     88.
    88.     99.     80.     87.     75.     79.     74.     96.
    73.     74.     93.     86.     91.     73.     94.     81.
    76.     85.     98.     78.     85.     85.     82.     76.
    79.     84.     89.     92.     84.     78.     87.     92.
    86.     87.     84.     89.     86.    101.     79.     87.
    78.     79.     82.     81.     82.     74.    100.     78.
    86.     87.     80.     97.     94.     93.     87.     84.
    85.     97.     96.     72.     93.     86.     97.     84.
    73.     81.     95.     79.     75.     91.     84.     95.
    82.     97.     96.     79.     86.     78.     91.     92.
    84.     83.     84.     80.     76.     82.     98.     88.
    92.     77.     81.     79.     85.     96.     70.     76.
    86.     95.     96.     73.     78.    102.     86.     90.
    78.     91.     80.     92.     76.     83.     84.     95.
    75.     91.     90.     81.     88.     95.     80.     75.
    96.     99.     97.     87.     90.     72.     82.     78.
    75.     81.     88.     93.     80.     82.     89.     95.
    89.     88.     80.    108.    103.     95.     70.     70.
    80.     87.     76.     80.     82.     99.     85.     81.
    80.     96.     91.     87.     88.     74.     85.     82.
    73.     81.     84.     89.     85.     97.     85.     94.
   101.     90.     80.    102.     90.     88.     79.     93.
    92.     72.     88.     87.     81.     76.     83.     78.
    87.     88.     84.    102.     78.     73.     91.     73.
    77.     81.     75.     95.     86.     80.     95.     97.
    94.     85.     80.     78.     80.     94.     89.     75.
    76.     87.     90.     84.     84.     87.     93.     74.
    79.     83.     82.     82.     77.     66.     79.     93.
    85.     73.     78.     76.     81.     83.     85.     90.
    80.     83.     83.     71.     88.     80.    102.     84.
    81.     88.     78.     91.    100.     76.     75.     80.
    78.     64.     88.     83.     87.     79.     92.     75.
    89.     97.     85.     78.     78.     84.     92.     92.
   107.     84.     77.     76.     86.     79.     81.     75.
    84.     92.     97.     93.     85.     78.     85.     81.
    99.     85.    103.     89.     83.     79.     74.     81.
    83.     83.     81.     81.     81.     84.     91.     82.
    98.     90.     91.     75.     78.     80.     83.     85.
    87.     97.     87.     87.     78.     71.     91.     76.
    91.     88.     96.     86.     85.     78.     86.     79.
    71.     84.     84.     91.     93.     80.     98.     88.
    94.     76.     88.     84.     79.     73.     89.     71.
    94.     80.     70.     76.     78.     68.     67.     79.
    74.     87.     83.     89.     98.     83.     80.     92.
    75.     81.     73.     77.     81.     87.     85.     78.
    91.     89.     89.     77.     80.     84.     81.     78.
    88.     85.     84.     85.     83.     73.     74.     91.
    65.     89.     86.     84.     91.     86.     85.     97.
    78.     87.     89.     81.    101.     87.     94.     92.
    76.     75.     74.     91.     78.     85.     90.     92.
    88.     81.     93.     93.     78.     73.     87.     82.
    78.     86.     87.     87.     69.     86.     77.     77.
    74.     71.     75.     88.    100.     85.     89.     88.
    76.     77.     81.     84.     74.     81.     71.     93.
    89.     76.     88.     81.     80.     84.     76.     85.
    83.     74.     82.     72.     83.     74.     83.     70.
    86.     97.     87.     90.     80.     93.     88.     72.
    86.     83.     83.     65.     76.     74.     88.     90.
    87.     87.     92.     88.     79.     84.     82.     78.
    97.     87.     84.     83.    100.     84.     86.     86.
    82.     74.     94.     92.     85.     88.     79.     97.
    98.     78.     84.     87.     78.     77.     74.     68.
    75.     77.     65.     79.     92.     77.     87.     76.
    81.     91.     94.     78.     81.     90.     89.     78.
    87.     67.     88.     74.     96.     88.     79.     87.
    84.     71.     73.     89.     98.     83.     76.     78.
    86.     80.     82.     82.     85.     81.     81.     77.
    92.     82.     99.     95.     81.     89.     81.     79.
    85.     76.     89.     83.     88.     90.     66.     78.
    92.     89.     86.     89.     89.     93.     95.     87.
    88.     94.     81.     81.     87.     80.     87.     91.
    72.     81.     77.     75.     85.     79.     71.     92.
    84.     82.     90.     73.     92.     96.     80.     81.
    85.     72.     70.     74.     79.     70.     71.     80.
    89.     99.     79.     83.     81.     99.     84.     87.
    68.     72.     83.     69.     74.     89.     80.     77.
    93.     81.     83.     75.     80.     75.     97.    104.
    86.     87.     77.     84.     78.     89.     80.     78.
    80.     77.     71.     86.     91.     87.     79.     74.
    96.     78.     79.     91.     77.     75.     80.     86.
    86.     78.     78.     97.     94.     72.     79.     70.
    87.     81.     97.     86.     68.     81.     91.     79.
    85.     71.     81.     98.     84.     78.     79.     82.
    91.     81.     84.     98.     84.     82.     99.     83.
    85.     82.     75.     98.     80.     85.     64.     89.
    98.     77.     93.     76.     77.     86.     84.     90.
    82.     85.     70.     84.     88.     85.     80.     81.
    82.     94.     87.     77.     93.     87.     83.     88.
    79.     81.     81.     76.     81.     74.     75.     78.
    98.     88.     79.     82.     82.     87.     82.    103.
    96.     76.     85.     98.     78.     79.     83.     91.
    81.     79.     81.     77.     74.     78.     83.     81.
    78.     82.     80.     79.     69.     76.     75.     73.
    71.     69.     88.     64.     88.     76.     74.     81.
    78.     85.     89.     85.     73.     73.     78.     94.
    92.     82.     93.     68.     88.     78.     96.     75.
    90.     82.     90.     87.     84.     84.    101.     80.
    83.     90.     89.     87.     90.     95.     86.     81.
    77.     80.     85.     87.     82.     77.     85.     86.
    87.     77.     81.     75.     69.     74.     80.     90.
    81.     82.     93.     84.     86.     92.     80.     73.
    74.     84.     84.     70.     78.     79.     83.     74.
    74.     84.     86.     85.     92.     85.     77.     91.
    83.     85.     69.     98.     90.     90.     74.     95.
    91.     83.     90.     70.     88.     92.     85.     87.
    71.     85.     73.     84.     82.     99.     80.     90.
    85.     88.     80.     89.     91.     87.     86.     81.
    86.     96.     70.     99.     86.    105.     84.     80.
    82.     70.     80.     76.     82.     80.     66.     82.
    73.     88.     95.     87.     86.     89.     87.     93.
    86.     90.     88.     73.     88.     87.     83.     88.
    80.     87.     74.     82.     83.     92.     85.     78.
    78.     88.     75.    104.     76.     70.     79.     94.
    93.     81.     89.     83.     83.     95.     86.    109.
    91.     77.     92.     85.     82.     95.     88.     81.
    89.     86.     82.     76.     75.     74.     89.     92.
    86.     93.     73.     88.     83.     82.     81.     89.
    84.     85.     87.     85.     79.     80.     87.     96.
    85.     75.     83.     85.     81.     72.     96.     75.
    92.     94.     90.     83.     96.     98.     83.     68.
    71.     98.     71.     78.     72.     75.     84.     99.
    81.     69.     90.     80.     77.     89.     81.     73.
    84.     81.     74.     88.     83.     86.     72.     96.
    82.     81.     73.     88.    101.     90.     82.     82.
    97.     89.     73.     72.     76.     78.     85.     98.
    99.     63.     73.     94.     89.     87.     85.     79.
    89.     92.     84.     90.     75.     92.     86.     75.
    89.     81.     83.     92.     87.     86.     79.     86.
    77.     75.     85.     94.     84.     85.     86.     83.
    92.    102.     92.     92.     82.     76.     84.     76.
    83.     99.     79.     75.     87.     89.     81.     87.
    96.     85.     78.     79.     83.     90.     88.     82.
    86.     83.     78.     77.     77.     86.     76.     71.
    89.     86.     71.     98.     80.     87.     81.     80.
    79.     81.     92.     78.     77.     90.     78.     90.
    90.     75.     88.     80.     87.     93.     85.     80.
    85.     84.     85.     73.     87.     86.     91.     71.
    86.     83.     72.     79.     74.     92.     86.     80.
    91.     98.     91.     79.     85.     76.     85.     70.
    77.     78.     84.     69.     84.     88.     88.     82.
    86.     80.     90.     98.     85.     82.     69.     78.
    93.     84.     72.     73.     86.     83.     85.     77.
    86.     77.     73.     76.     78.     99.     93.     96.
    80.     79.     82.     87.     95.     79.     89.     74.
    84.     89.     77.     82.     80.     73.     94.     83.
    85.     74.     82.     88.     88.     93.     79.     81.
    77.     91.     94.     79.     79.     80.     93.     77.
    84.     90.     94.     84.     70.     77.     71.     60.
    91.     82.     77.     75.     86.     70.     77.     73.
    81.     76.     90.     91.     83.     81.     86.     73.
    80.     88.     86.     84.     89.     76.     76.     72.
    74.     78.     83.     86.     80.     88.     71.     91.
    72.     82.     90.     86.     87.    106.     72.     77.
    84.     95.     75.     66.     70.     76.     84.     75.
    71.     89.     88.     81.     85.     73.     76.     84.
    83.     69.     76.     84.     86.     81.     81.     83.
    87.     85.     72.     89.     89.     75.     82.     99.
    89.     68.     73.     78.     77.     82.     90.     68.
    76.     67.     82.     74.     84.     81.     97.     73.
    83.     98.     96.     86.     78.     95.     89.     65.
    68.     86.     74.     84.     76.     90.     86.     85.
    82.     70.     84.     71.     83.     74.     82.     68.
    85.     84.     92.     88.     80.     80.     80.     93.
    78.     84.     87.     77.     92.     92.     84.     92.
    97.     78.     84.    105.     89.     76.     94.     78.
    82.     87.     82.     84.     81.     74.     83.     84.
    76.     72.     80.     74.     73.     86.     85.     81.
    81.     86.     76.     76.     81.     88.     96.     91.
    74.     73.     79.    104.     85.     79.     75.     82.
    69.     72.     84.     87.     83.     82.     89.     76.
    64.     80.     76.     83.     88.     83.     92.     86.
    76.     88.     80.     72.     89.     74.     80.     66.
    86.     74.     80.     91.     81.     88.     84.     98.
    80.     95.     76.     92.     76.     84.     79.     79.
    76.     83.     88.     86.     70.     78.     83.     89.
    81.     94.    100.     77.     83.     64.     72.     79.
    90.     98.     77.     79.     93.     80.     74.     81.
    86.     91.     78.     79.     80.     83.     87.     86.
    79.     93.     87.     73.     77.     87.     95.    106.
    91.     83.     69.     85.     74.     72.     84.     91.
    69.     87.     80.     88.     89.     83.     89.     86.
    81.     74.     88.    100.     98.     95.     93.     88.
    78.     72.     72.     80.     83.     95.     81.     91.
    89.     83.     73.     67.     81.     98.    100.     85.
    73.     85.     81.     82.     75.     71.     80.     93.
    80.     87.     90.     75.     81.     84.     93.     82.
    83.     89.     81.     73.     79.     72.     81.     86.
    75.     69.     79.     83.     86.     69.     81.     86.
    76.     94.     76.     75.     78.     78.     75.     87.
    94.     87.     75.     82.     86.     67.     77.     89.
    53.     81.     84.     79.     86.     70.     70.     80.
    79.     87.     84.    103.     96.     80.     82.     88.
    76.     71.     81.     85.     77.     84.     92.     87.
    69.     85.     82.     86.     75.     96.     79.     85.
    83.     78.     88.     96.     93.     71.     80.     84.
    86.     84.     74.     78.     74.     84.     77.     71.
    86.     96.     77.     83.     83.     81.     88.     77.
    87.     73.     75.     75.     79.     85.     87.     70.
    84.     84.     82.     84.     89.     74.     74.     76.
    89.     81.     75.     80.     79.     73.     84.     65.
    72.     71.     90.    105.     85.     78.     87.     82.
    87.     76.     90.     77.     74.     72.     78.     67.
    87.     81.     86.     70.     92.     97.     94.     88.
    84.     82.     71.     84.     79.     89.     75.     76.
    87.     68.     93.     72.     95.     91.     79.     79.
    87.     92.     79.     86.     82.     74.     75.     86.
    74.     82.     79.     70.     77.     83.     75.     81.
    70.     92.     85.     76.     87.     70.     80.     86.
    87.     93.     82.     73.     90.     79.     78.     76.
    94.     89.     88.     91.     82.     77.     91.     76.
    83.     84.     85.     81.     68.     76.     71.     78.
    74.     85.     67.     85.     88.     76.     86.     84.
    74.    106.     73.     79.     84.     91.     70.     84.
    94.     71.     86.     85.     89.     74.     84.     95.
    82.     81.     91.     92.     72.     84.     62.     73.
    98.     73.     76.     65.     76.     92.     96.     84.
    81.     88.     78.     74.     82.     84.     63.     86.
    93.     83.     84.     79.     84.     91.     71.     86.
    81.     93.     82.     81.     75.     78.     82.     91.
    85.     72.     74.     67.     79.     76.     83.     85.
    92.     81.     80.     73.     76.     86.     74.     86.
   103.     83.     72.     78.     82.     93.     76.     74.
    93.     83.     84.     66.     95.     89.     91.     76.
    80.     86.     95.     91.     91.     83.     86.     73.
    71.     67.     75.     85.     72.     83.     78.     88.
    69.     76.     88.     89.     83.     76.     70.     85.
    77.     95.     78.     74.     85.     79.     80.     86.
    81.     79.     74.     74.     81.     86.     85.     84.
    88.     74.     81.     82.     78.     81.     65.     84.
    75.     84.     97.     88.     91.     79.     86.     95.
    75.     79.     90.     88.     77.     79.     71.     80.
    87.     86.     86.     85.     88.     81.     85.     72.
    77.     84.     80.     82.     83.     79.     78.     83.
    85.     81.     96.     83.     69.     94.     83.     74.
    78.     81.     84.     79.     87.     77.     79.     75.
    86.     84.     75.     94.     76.     72.     75.     75.
    77.     85.     66.     75.     92.     84.     75.    101.
    81.     76.     75.     81.     86.     88.     96.     80.
    93.     92.     64.     74.     87.     84.     85.     85.
    76.     73.     76.     85.     74.     77.     83.     82.
    76.     70.     91.     81.     79.     86.     82.     87.
    67.     78.     61.     79.     81.     95.     85.     87.
    80.     71.     68.     85.     81.     74.     86.     89.
    88.     80.     74.     76.     74.     85.     74.     72.
    93.     97.     76.     73.     84.     74.    105.     87.
    82.     92.     92.     82.     73.     83.     90.     83.
    82.     95.     77.     88.     76.     94.     84.     95.
    60.     89.     76.     80.     81.     77.     72.     72.
    76.     74.     77.     76.     85.     73.     72.     97.
    83.     85.     78.     90.     78.     87.     77.     73.
    85.     69.     80.     96.     85.     89.     97.     66.
    82.     79.     92.     77.     89.     95.     89.     90.
    64.     77.     83.     75.     89.     85.     88.     78.
    74.     82.     89.     96.     77.     67.     71.     65.
    86.     66.     92.     78.     93.     86.     86.     86.
    84.     70.     79.     89.     89.     71.     85.     75.
    74.     95.     86.     67.     73.     80.     83.     81.
    57.     72.     84.     95.     92.     81.     81.     77.
    83.     90.     83.     81.     83.     74.     83.     83.
    83.     77.     73.     71.     83.     77.     75.     86.
    81.     73.     81.     93.     78.     68.     89.     86.
    79.     89.     84.     85.     92.     90.     80.     65.
    83.     73.     89.     80.     84.     68.     89.     85.
    76.     82.     82.     79.     74.     72.    100.     88.
    85.     64.     97.     74.     70.     81.     85.     83.
    78.     87.     81.     94.     85.     92.     83.     89.
    78.     80.     75.     73.     75.     76.     69.     76.
    79.     82.     98.     74.     61.     68.     90.     80.
    79.     73.     82.     95.     75.     78.     92.     81.
    71.     97.     86.     81.     84.     82.     80.     76.
    77.     87.     80.     77.     87.     86.     80.     78.
    77.     74.     92.     96.     86.     74.     80.     81.
    77.     76.     73.     73.     83.     87.     83.     82.
    64.     78.     71.     79.     76.     90.     62.     98.
    84.     88.     76.     75.     76.     78.     76.     81.
    85.     82.     98.     69.     57.     89.     80.     68.
    89.     75.     73.     91.     75.     72.     82.     71.
    67.     82.     82.     67.     73.     81.     77.     88.
    97.    103.     68.     77.     85.     73.     73.     69.
    76.     83.     60.     82.     75.     78.     76.     76.
    67.     73.     83.     89.     84.     86.     81.     88.
    78.     75.     71.     70.     89.     69.     84.     81.
    74.     90.     71.     74.     84.     81.     82.     81.
    84.     82.     83.     76.     86.     76.     77.     83.
    86.     83.     80.     73.     76.     81.     78.     86.
    78.     84.     76.     79.     76.     84.     73.     80.
    85.     84.     88.     87.     80.     72.     81.     81.
    68.     77.     62.     92.     69.     79.     98.     85.
    69.     97.     69.     64.     78.     81.     76.     81.
    78.     93.     80.     91.     89.     80.     75.     95.
    94.     74.     78.     80.     76.     86.     83.     78.
    79.     86.     63.     76.     92.     89.     92.     76.
    74.     89.     86.     75.     92.     89.     84.     79.
    87.     89.     91.     88.     75.     90.     73.     88.
    75.     81.     85.     82.     91.     84.     70.     79.
    60.     82.     85.     78.     80.     82.     84.     87.
    82.     81.     73.     82.     70.     82.     73.     75.
    68.     79.     88.     79.     61.     85.     80.     78.
    73.     81.     66.     86.     84.     74.     74.     88.
    75.     90.     74.     94.     80.     78.     72.     78.
    87.     61.     75.     84.     78.     81.     65.     76.
    86.     85.     72.     79.     65.     97.     95.     83.
    84.     68.     83.     99.     79.     98.     83.     81.
    77.     71.     67.     77.     73.     92.     80.     75.
    79.     87.     80.     81.     83.     65.     85.     81.
    95.     81.     87.     81.     85.     88.     82.     76.
    71.     80.     82.     80.     73.     83.     75.     83.
    83.     74.     79.     85.     92.     98.     88.     81.
    94.     92.     81.     79.     84.     84.     82.     81.
    81.     73.     72.     80.     84.     84.     92.     81.
    71.     74.     80.     64.     76.     90.     80.     77.
    83.     71.     94.     85.     87.     99.     76.     81.
    77.     78.     85.     81.     71.     77.     83.     72.
    79.     86.     74.     76.     86.     74.     84.     67.
    78.     74.     63.     81.     88.     76.     80.     81.
    94.     85.     80.     89.     84.     79.     82.     96.
    82.     90.     83.     76.     70.     78.     69.     86.
    86.     76.     70.     92.     81.     82.     79.     74.
    85.     81.     90.     92.     71.     82.     74.     84.
    77.     70.     75.     66.     82.     90.     83.     79.
    75.     66.     78.     74.     88.     85.     86.     94.
    82.     85.     79.     83.     77.     80.     77.     70.
    86.     77.     95.     88.     73.     86.     99.     72.
    74.     75.     80.     68.     88.     86.     77.     73.
    81.     91.     79.     85.     90.     79.     79.     83.
    71.     81.     95.     84.     80.     77.     86.     92.
    84.     92.     76.     87.     91.     80.     70.     79.
    89.     83.     78.     76.    103.     82.     89.     75.
    81.     72.     76.     78.     94.     77.     84.     81.
    76.     72.     87.     84.     84.     77.     69.     80.
    80.     81.     82.     88.     86.     75.     88.     83.
    82.     75.     78.     82.     96.     72.     83.     80.
    63.     72.     76.     76.     75.     80.     79.     71.
    82.     81.     65.     71.     71.     74.     74.     83.
    88.     70.     86.     76.     90.     67.     90.     69.
    77.     86.     86.     81.     87.     84.     77.     78.
    89.     70.     74.     82.     85.     82.     81.     87.
    79.     80.     85.     84.     67.     80.     83.     76.
    60.     85.     76.     87.     69.     79.     74.     78.
    78.     80.     83.     87.     90.     87.     88.     84.
    82.    103.     84.     86.     93.     87.     87.     78.
    94.     80.     80.     70.     70.     76.     79.     85.
    83.     72.     66.     67.     70.     78.     88.     84.
    84.     70.     75.     89.     75.     73.     87.     84.
    78.     96.     80.     67.     93.     80.     77.     88.
    88.    100.     72.     73.     80.     85.     71.     77.
    73.     78.     79.     69.     78.     89.     83.     78.
    75.     74.     92.     68.     82.     74.     72.     91.
    72.     72.     87.     86.     85.     67.     90.     70.
    80.     71.     73.     80.     70.     82.     82.     84.
    74.     73.     87.     76.     78.     84.     80.     76.
    66.     76.     75.     78.     79.     90.     81.     92.
    72.     71.     86.     65.     71.     81.     61.     76.
    72.    102.     80.     82.     83.     63.     70.     78.
    92.     71.     85.     69.     78.     71.     85.     78.
    79.    101.     82.     89.     75.     73.     89.     75.
    74.     67.     80.     83.     83.     88.     93.     80.
    77.     84.     72.     83.     70.     75.     83.     78.
    75.     84.     74.     86.     76.     79.     70.     76.
    86.     85.     87.     83.     92.     82.     91.     83.
    68.     83.     82.     77.     84.     80.     90.     80.
    74.     78.     83.     69.     78.     76.     92.     82.
    79.     83.     71.     76.     62.     71.     69.     92.
    83.     76.     79.     88.     91.     77.     77.     81.
    95.     81.     82.     83.     74.     78.     75.     90.
    84.     76.     83.     78.     93.     89.     77.     73.
    84.     77.     82.     77.     73.     72.     88.     69.
    83.     69.     85.     74.     93.     71.     93.     65.
    84.     82.     92.     75.     79.     89.     82.     74.
    76.     84.     78.     81.     83.     89.     87.     75.
    73.     89.     74.     80.     80.     81.     84.     67.
    76.     74.     70.     86.     91.     83.     83.     71.
    86.     96.     79.     83.     75.     66.     81.     87.
    84.     90.     76.     79.     69.     79.     74.     79.
    70.     60.     88.     78.     73.     75.     67.     61.
    80.     72.     84.     70.     87.     82.     79.     77.
    73.     71.     87.     75.     66.     84.     81.     88.
    72.     75.     83.     71.     92.     78.     76.     79.
    82.     67.     70.     74.     73.     68.     76.     70.
    79.     75.     86.     99.     64.     71.     76.     65.
    76.     73.     75.     82.     88.     94.     79.     78.
    75.     92.     86.     63.     81.     77.     81.     84.
    77.     91.     76.     81.     83.     74.     77.     81.
    87.     82.     87.     80.     67.     74.     83.     81.
    90.     60.     80.     88.     75.     86.     75.     66.
    72.     73.     81.     72.     90.     76.     77.     93.
    88.     86.     82.     84.     89.     95.     98.     89.
    74.     69.     84.     79.     79.     88.     83.     65.
    82.     86.     78.     76.     77.     85.     69.     82.
    76.     83.     74.     82.     78.     86.     80.     70.
    83.     70.     92.     69.     64.     65.     92.     95.
    75.     73.     72.     81.     78.     80.     92.     75.
    73.     77.     82.     79.     96.     86.     82.     83.
    76.     88.     71.     78.     83.     80.     93.     87.
    91.     91.     74.     76.     80.     72.     83.     84.
    85.     76.     69.     68.     82.     75.     74.     82.
    79.     78.     76.     67.     69.     74.     80.     68.
    60.     80.     81.     85.     75.     92.     75.     77.
    71.     90.     84.     83.     86.     79.     72.     79.
    71.     89.     88.     80.     87.     85.     90.     89.
    72.     84.     83.     69.     88.     70.     68.     71.
    71.     71.     67.     78.     72.     83.     73.     82.
    82.     78.     89.     82.     96.     88.     74.     81.
    84.     88.     78.     68.     80.     74.     82.     81.
    78.     88.     78.     94.     74.     67.     85.     78.
    78.     78.     77.     71.     83.     72.     71.     87.
    84.     75.     76.     82.     81.     84.     81.     76.
    82.     91.     81.     96.     77.     87.     84.     81.
    81.     72.     96.     76.     78.     97.     85.     71.
    81.     94.     81.     70.     84.     75.     70.     72.
    76.     81.     87.     77.     76.     72.     90.     77.
    71.     76.     80.     81.     77.     74.     82.    106.
    75.     86.     83.     78.     72.     61.     75.     73.
    84.     92.     79.     75.     81.     77.     73.     72.
    83.     99.     92.     70.     82.     79.     69.     90.
    75.     86.     73.     83.     88.     88.     88.     86.
    71.     81.     78.     87.     80.     66.     72.     80.
    67.     83.     73.     83.     85.     79.     71.     87.
    78.     89.     75.     65.     73.     79.     73.     72.
    76.     80.     78.     89.     75.     70.     71.     69.
    56.     70.     79.     75.     83.     74.     80.     75.
    71.     81.     86.     71.     81.     73.     79.     59.
    79.     81.     82.     71.     76.     76.     79.     78.
    87.     76.     83.     88.     74.     89.     92.     83.
    85.     80.     80.     73.     78.     66.     73.     79.
    82.     80.     70.     63.     71.     78.     74.     75.
    79.     68.     73.     77.     76.     90.     84.     84.
    81.     74.     79.     85.     84.     69.     80.     74.
    67.     72.     63.     67.     67.     66.     82.     88.
    78.     81.     77.     80.     76.     88.     72.     83.
    96.     69.     80.     83.     72.     83.     90.     84.
    93.     79.     78.     82.     76.     73.     70.     69.
    85.     88.     72.     82.     73.     88.     82.     76.
    65.     77.     78.     84.     76.     86.     72.     79.
    92.     69.     80.     77.     79.     80.     77.     79.
    67.     84.     96.     79.     67.     68.     78.     76.
    81.     70.     77.     72.     71.     65.     89.     88.
    93.     68.     88.     81.     79.     64.     65.     82.
    80.     65.     76.     76.     84.     81.     76.     84.
    77.     70.     86.     79.     78.     86.     79.     74.
    80.     71.     95.     79.     87.     68.     73.     76.
    73.     83.     93.     80.     73.     81.     84.     80.
    76.     77.     74.     78.     77.     71.     62.     72.
    79.     71.     69.     83.     80.     83.     68.     80.
    71.     69.     84.     69.     84.     89.     77.     85.
    95.     65.     75.     76.     75.     81.     89.     86.
    78.     83.     68.     80.     74.     75.     71.     78.
    88.     84.     80.     81.     76.     73.     77.     74.
    86.     82.     70.     90.     75.     70.     85.     90.
    84.     75.     79.     83.     77.     69.     83.     79.
    74.     76.     75.     74.     86.     79.     72.     67.
    71.     77.     80.     76.     75.    100.     83.     74.
    77.     74.     79.     80.     62.     74.     84.     69.
    71.     87.     89.     85.     74.     81.     71.     79.
    88.     82.     75.     76.     69.     88.     83.     77.
    86.     73.     76.     80.     70.     62.     78.     80.
    80.     90.     84.     81.     78.     65.     81.     65.
    80.     75.     71.     70.     87.     85.     79.     75.
    66.     72.     75.     75.     94.     81.     89.     81.
    95.     95.     85.     79.     71.     68.     70.     91.
    88.     82.     75.     77.     73.     67.     85.     91.
    71.     74.     87.     75.     70.     69.     76.     79.
    77.     97.     73.     83.     79.     87.     80.     64.
    62.     62.     83.     72.     87.     71.     66.     73.
    69.     68.     90.     81.     94.     83.     90.     76.
    75.     75.     71.     76.     82.     71.     72.     67.
    78.     78.     71.     78.     81.     69.     93.     72.
    69.     61.     82.     88.     87.     88.     68.     64.
    74.     79.     83.     88.     72.     93.     76.     75.
    73.     75.     71.     74.     75.     82.     76.     69.
    71.     89.     83.     75.     73.     75.     84.     82.
    81.     78.     75.     80.     83.     80.     76.     77.
    91.     81.     72.     89.     79.     75.     80.     71.
    68.     73.     78.     80.     72.     72.     81.     75.
    92.     75.     91.     65.     88.     82.     89.     64.
    71.     75.     77.     75.     94.     83.     76.     90.
    72.     90.     72.     76.     76.     62.     78.     93.
    85.     73.     72.     80.     79.     79.     66.     75.
    82.     87.     73.     85.     72.     78.     79.     84.
    85.     75.     74.     76.     78.     68.     61.     79.
    79.     76.     89.     79.     70.     91.     79.     76.
    88.     78.     79.     85.     83.     87.     81.     73.
    81.     77.     74.     87.     78.     84.     77.     74.
    78.     83.     72.     75.     88.     77.     89.     76.
    68.     88.     70.     94.     73.     84.     75.     87.
    75.     71.     73.     99.     82.     61.     77.     68.
    69.     74.     82.     89.     66.     81.     88.     72.
    60.     75.     68.     71.     74.     68.     71.     84.
    74.     75.     80.     86.     69.     78.     68.     84.
    80.     85.     78.     79.     77.     66.     67.     67.
    93.     82.     74.     74.     84.     77.     83.     76.
    72.     82.     87.     70.     74.     89.     74.     67.
    74.     81.     72.     94.     70.     74.     63.     86.
    65.     82.     78.     65.     87.     77.     84.     66.
    77.     91.     81.     96.     85.     88.     84.     82.
    85.     78.     79.     79.     85.     91.     81.     61.
    74.     81.     80.     60.     80.     74.     84.     76.
    79.     75.     76.     67.     79.     74.     82.     71.






DFT optimization :


#K2ZrF6, tetragonal, P4nmm
#pbe0, 600, accu, 1e-6, 3e-2,4k
#fixed lattice parameters
#E=-.13434127E+03
loop_
_symmetry_equiv_pos_as_xyz
  x,y,z
_cell_length_a         6.3358
_cell_length_b         6.3358
_cell_length_c         9.2945
_cell_angle_alpha        90.0000
_cell_angle_beta         90.0000
_cell_angle_gamma        90.0000
loop_
_atom_site_label
_atom_site_type_symbol
_atom_site_fract_x
_atom_site_fract_y
_atom_site_fract_z
zr1   zr         .250000        .250000        .777846
zr2   zr         .750000        .750000        .222154
f1    f         .473692        .026309        .797067
f2    f         .026309        .473692        .797067
f3    f         .473691        .473691        .797074
f4    f         .026308        .026308        .797061
f5    f         .526309        .526309        .202926
f6    f         .973692        .973692        .202938
f7    f         .526308        .973691        .202933
f8    f         .973691        .526308        .202932
f9    f         .250007        .250007        .565168
f10    f         .749993        .749993        .434832
f11    f         .249991        .249991        .996451
f12    f         .750009        .750009        .003549
k1    k         .250001        .250001        .290308
k2    k         .749998        .749998        .709692
k3    k         .750002        .249998        .000000
k4    k         .249998        .750002        .000000





;
_cod_data_source_file            K2ZrF6-form-V-473K.cif
_cod_data_source_block           form-V-473K
_cod_depositor_comments
;
The following automatic conversions were performed:

data item '_symmetry_cell_setting' value 'Tetragonal' was changed to
'tetragonal' in accordance with the built-in table derived from the
CIF Core dictionary named 'cif_core.dic' version 2.4.5 last updated
on 2014-11-21.

Automatic conversion script
Id: cif_fix_values 7556 2019-12-06 15:28:31Z antanas 
;
_cod_original_sg_symbol_H-M      'P 4/n m m'
_cod_database_code               4517760
_pd_proc_ls_prof_cr_factor       17.8167
_pd_proc_ls_prof_cwr_factor      17.9802
_pd_proc_ls_prof_cwr_expected    7.8394
_pd_proc_ls_prof_chi2            5.2605
_pd_proc_ls_prof_echi2           5.7426
loop_
_symmetry_equiv_pos_as_xyz
x,y,z
-y+1/2,x,z
-x+1/2,-y+1/2,z
y,-x+1/2,z
-x+1/2,y,z
y,x,z
x,-y+1/2,z
-y+1/2,-x+1/2,z
-x,-y,-z
y+1/2,-x,-z
x+1/2,y+1/2,-z
-y,x+1/2,-z
x+1/2,-y,-z
-y,-x,-z
-x,y+1/2,-z
y+1/2,x+1/2,-z
loop_
_atom_site_label
_atom_site_fract_x
_atom_site_fract_y
_atom_site_fract_z
_atom_site_U_iso_or_equiv
_atom_site_occupancy
_atom_site_adp_type
_atom_site_type_symbol
K1 0.25000 0.25000 0.29231(17) 0.0496(11) 1.00000 Uani K
K2 0.75000 0.25000 0.00000 0.0647(13) 1.00000 Uani K
ZR 0.25000 0.25000 0.77156(9) 0.0390(5) 1.00000 Uani Zr
F1 0.4728(2) 0.4728(2) 0.7894(2) 0.1088(18) 1.00000 Uani F
F2 0.25000 0.25000 0.5577(5) 0.141(4) 1.00000 Uani F
F3 0.25000 0.25000 0.9928(5) 0.097(4) 1.00000 Uani F
loop_
_atom_site_aniso_label
_atom_site_aniso_U_11
_atom_site_aniso_U_22
_atom_site_aniso_U_33
_atom_site_aniso_U_12
_atom_site_aniso_U_13
_atom_site_aniso_U_23
_atom_site_aniso_type_symbol
K1 0.0513(8) 0.0513(8) 0.0462(16) 0.00000 0.00000 0.00000 K
K2 0.0647(9) 0.0647(9) 0.0645(19) 0.00000 0.00000 0.00000 K
ZR 0.0377(4) 0.0377(4) 0.0415(7) 0.00000 0.00000 0.00000 Zr
F1 0.0803(12) 0.0803(12) 0.166(3) -0.0207(14) -0.0021(13) -0.0021(13) F
F2 0.175(4) 0.175(4) 0.074(4) 0.00000 0.00000 0.00000 F
F3 0.089(3) 0.089(3) 0.112(6) 0.00000 0.00000 0.00000 F
loop_
_atom_type_symbol
_atom_type_scat_Cromer_Mann_a1
_atom_type_scat_Cromer_Mann_b1
_atom_type_scat_Cromer_Mann_a2
_atom_type_scat_Cromer_Mann_b2
_atom_type_scat_Cromer_Mann_a3
_atom_type_scat_Cromer_Mann_b3
_atom_type_scat_Cromer_Mann_a4
_atom_type_scat_Cromer_Mann_b4
_atom_type_scat_Cromer_Mann_c
_atom_type_scat_dispersion_real
_atom_type_scat_dispersion_imag
_atom_type_scat_source
F 3.63220 5.27756 3.51057 14.73530 1.26064 0.44226 0.94071 47.34370 0.65340
0.02400 0.01000
International_Tables_for_Crystallography_Vol.C(1991)_Tables_6.1.1.4_and_6.1.1.5
Zr 18.16680 1.21480 10.05620 10.14830 1.01118 21.60540 -2.64790 -0.10276
9.41454 -1.44700 0.74000
International_Tables_for_Crystallography_Vol.C(1991)_Tables_6.1.1.4_and_6.1.1.5
K 7.95780 12.63310 7.49170 0.76740 6.35900 -0.00200 1.19150 31.91280 -4.99780
0.24600 0.33500
International_Tables_for_Crystallography_Vol.C(1991)_Tables_6.1.1.4_and_6.1.1.5
loop_
_geom_angle_atom_site_label_1
_geom_angle_atom_site_label_2
_geom_angle_atom_site_label_3
_geom_angle
_geom_angle_site_symmetry_1
_geom_angle_site_symmetry_3
F1 ZR F1 89.61(9) 1_555 2_555
F1 ZR F1 170.50(11) 1_555 3_555
F1 ZR F1 89.61(9) 1_555 4_555
F1 ZR F2 94.75(6) 1_555 1_555
F1 ZR F3 85.25(6) 1_555 1_555
F1 ZR F1 89.61(9) 2_555 3_555
F1 ZR F1 170.50(11) 2_555 4_555
F1 ZR F2 94.75(6) 2_555 1_555
F1 ZR F3 85.25(6) 2_555 1_555
F1 ZR F1 89.61(9) 3_555 4_555
F1 ZR F2 94.75(6) 3_555 1_555
F1 ZR F3 85.25(6) 3_555 1_555
F1 ZR F2 94.75(6) 4_555 1_555
F1 ZR F3 85.25(6) 4_555 1_555
F2 ZR F3 180.0(4) 1_555 1_555
F1 K1 F1 85.10(7) 9_666 10_466
F1 K1 F1 146.00(9) 9_666 11_446
F1 K1 F1 85.10(7) 9_666 12_646
F1 K1 F2 107.00(19) 9_666 1_555
F1 K1 F3 73.00(14) 9_666 1_554
F1 K1 F1 85.10(7) 10_466 11_446
F1 K1 F1 146.00(9) 10_466 12_646
F1 K1 F2 107.00(19) 10_466 1_555
F1 K1 F3 73.00(14) 10_466 1_554
F1 K1 F1 85.10(7) 11_446 12_646
F1 K1 F2 107.00(19) 11_446 1_555
F1 K1 F3 73.00(14) 11_446 1_554
F1 K1 F2 107.00(19) 12_646 1_555
F1 K1 F3 73.00(14) 12_646 1_554
F2 K1 F3 180.0(3) 1_555 1_554
F1 K2 F1 72.09(6) 1_554 2_654
F1 K2 F1 98.04(7) 1_554 3_654
F1 K2 F1 56.45(5) 1_554 4_554
F1 K2 F1 82.73(8) 1_554 9_666
F1 K2 F1 115.47(9) 1_554 10_566
F1 K2 F1 170.63(9) 1_554 11_546
F1 K2 F1 115.47(9) 1_554 12_646
F1 K2 F3 52.98(7) 1_554 1_554
F1 K2 F3 125.06(8) 1_554 1_654
F1 K2 F3 119.12(8) 1_554 9_656
F1 K2 F3 62.68(7) 1_554 9_666
F1 K2 F1 56.45(5) 2_654 3_654
F1 K2 F1 98.04(7) 2_654 4_554
F1 K2 F1 115.47(9) 2_654 9_666
F1 K2 F1 82.73(8) 2_654 10_566
F1 K2 F1 115.47(9) 2_654 11_546
F1 K2 F1 170.63(9) 2_654 12_646
F1 K2 F3 125.06(8) 2_654 1_554
F1 K2 F3 52.98(7) 2_654 1_654
F1 K2 F3 119.12(8) 2_654 9_656
F1 K2 F3 62.68(7) 2_654 9_666
F1 K2 F1 72.09(6) 3_654 4_554
F1 K2 F1 170.63(9) 3_654 9_666
F1 K2 F1 115.47(9) 3_654 10_566
F1 K2 F1 82.73(8) 3_654 11_546
F1 K2 F1 115.47(9) 3_654 12_646
F1 K2 F3 125.06(8) 3_654 1_554
F1 K2 F3 52.98(7) 3_654 1_654
F1 K2 F3 62.68(7) 3_654 9_656
F1 K2 F3 119.12(8) 3_654 9_666
F1 K2 F1 115.47(9) 4_554 9_666
F1 K2 F1 170.63(9) 4_554 10_566
F1 K2 F1 115.47(9) 4_554 11_546
F1 K2 F1 82.73(8) 4_554 12_646
F1 K2 F3 52.98(7) 4_554 1_554
F1 K2 F3 125.06(8) 4_554 1_654
F1 K2 F3 62.68(7) 4_554 9_656
F1 K2 F3 119.12(8) 4_554 9_666
F1 K2 F1 56.45(5) 9_666 10_566
F1 K2 F1 98.04(7) 9_666 11_546
F1 K2 F1 72.09(6) 9_666 12_646
F1 K2 F3 62.68(7) 9_666 1_554
F1 K2 F3 119.12(8) 9_666 1_654
F1 K2 F3 125.06(8) 9_666 9_656
F1 K2 F3 52.98(7) 9_666 9_666
F1 K2 F1 72.09(6) 10_566 11_546
F1 K2 F1 98.04(7) 10_566 12_646
F1 K2 F3 119.12(8) 10_566 1_554
F1 K2 F3 62.68(7) 10_566 1_654
F1 K2 F3 125.06(8) 10_566 9_656
F1 K2 F3 52.98(7) 10_566 9_666
F1 K2 F1 56.45(5) 11_546 12_646
F1 K2 F3 119.12(8) 11_546 1_554
F1 K2 F3 62.68(7) 11_546 1_654
F1 K2 F3 52.98(7) 11_546 9_656
F1 K2 F3 125.06(8) 11_546 9_666
F1 K2 F3 62.68(7) 12_646 1_554
F1 K2 F3 119.12(8) 12_646 1_654
F1 K2 F3 52.98(7) 12_646 9_656
F1 K2 F3 125.06(8) 12_646 9_666
F3 K2 F3 177.580(3) 1_554 1_654
F3 K2 F3 90.026(6) 1_554 9_656
F3 K2 F3 90.026(6) 1_554 9_666
F3 K2 F3 90.026(6) 1_654 9_656
F3 K2 F3 90.026(6) 1_654 9_666
F3 K2 F3 177.580(3) 9_656 9_666
ZR F1 K1 158.25(5) 1_555 9_666
ZR F1 K2 97.80(5) 1_555 1_556
ZR F1 K2 97.80(5) 1_555 2_556
ZR F1 F1 45.20(6) 1_555 2_555
ZR F1 F1 45.20(6) 1_555 4_555
ZR F1 F3 48.19(13) 1_555 1_555
ZR F1 F3 145.57(12) 1_555 9_667
K1 F1 K2 96.53(5) 9_666 1_556
K1 F1 K2 96.53(5) 9_666 2_556
K1 F1 F1 132.55(7) 9_666 2_555
K1 F1 F1 132.55(7) 9_666 4_555
K1 F1 F2 115.83(9) 9_666 1_555
K1 F1 F3 153.56(13) 9_666 1_555
K1 F1 F3 56.18(12) 9_666 9_667
K2 F1 K2 97.27(4) 1_556 2_556
K2 F1 F1 126.05(7) 1_556 2_555
K2 F1 F1 61.77(6) 1_556 4_555
K2 F1 F2 122.44(15) 1_556 1_555
K2 F1 F3 66.94(8) 1_556 1_555
K2 F1 F3 61.47(7) 1_556 9_667
K2 F1 F1 61.77(6) 2_556 2_555
K2 F1 F1 126.05(7) 2_556 4_555
K2 F1 F2 122.44(15) 2_556 1_555
K2 F1 F3 66.94(8) 2_556 1_555
K2 F1 F3 61.47(7) 2_556 9_667
F1 F1 F1 90.00(7) 2_555 4_555
F1 F1 F2 61.27(11) 2_555 1_555
F1 F1 F3 59.11(11) 2_555 1_555
F1 F1 F3 123.24(10) 2_555 9_667
F1 F1 F2 61.27(11) 4_555 1_555
F1 F1 F3 59.11(11) 4_555 1_555
F1 F1 F3 123.24(10) 4_555 9_667
F2 F1 F3 90.6(2) 1_555 1_555
F2 F1 F3 172.01(19) 1_555 9_667
F3 F1 F3 97.38(10) 1_555 9_667
ZR F2 K1 180.0(2) 1_555 1_555
K1 F2 F1 137.17(7) 1_555 1_555
K1 F2 F1 137.17(7) 1_555 2_555
K1 F2 F1 137.17(7) 1_555 3_555
K1 F2 F1 137.17(7) 1_555 4_555
F1 F2 F1 57.47(11) 1_555 2_555
F1 F2 F1 85.66(11) 1_555 3_555
F1 F2 F1 57.47(11) 1_555 4_555
F1 F2 F1 57.47(11) 2_555 3_555
F1 F2 F1 85.66(11) 2_555 4_555
F1 F2 F1 57.47(11) 3_555 4_555
ZR F3 K1 180.00(19) 1_555 1_556
ZR F3 K2 91.21(13) 1_555 1_456
ZR F3 K2 91.21(13) 1_555 1_556
ZR F3 K2 91.21(13) 1_555 2_546
ZR F3 K2 91.21(13) 1_555 2_556
ZR F3 F1 46.56(15) 1_555 1_555
ZR F3 F1 46.56(15) 1_555 2_555
ZR F3 F1 46.56(15) 1_555 3_555
ZR F3 F1 46.56(15) 1_555 4_555
ZR F3 F1 129.18(16) 1_555 9_667
ZR F3 F1 129.18(16) 1_555 10_467
ZR F3 F1 129.18(16) 1_555 11_447
ZR F3 F1 129.18(16) 1_555 12_647
K1 F3 K2 88.79(10) 1_556 1_456
K1 F3 K2 88.79(10) 1_556 1_556
K1 F3 K2 88.79(10) 1_556 2_546
K1 F3 K2 88.79(10) 1_556 2_556
K1 F3 F1 133.44(15) 1_556 1_555
K1 F3 F1 133.44(15) 1_556 2_555
K1 F3 F1 133.44(15) 1_556 3_555
K1 F3 F1 133.44(15) 1_556 4_555
K1 F3 F1 50.82(12) 1_556 9_667
K1 F3 F1 50.82(12) 1_556 10_467
K1 F3 F1 50.82(12) 1_556 11_447
K1 F3 F1 50.82(12) 1_556 12_647
K2 F3 K2 177.580(3) 1_456 1_556
K2 F3 K2 89.974(3) 1_456 2_546
K2 F3 K2 89.974(3) 1_456 2_556
K2 F3 F1 121.86(9) 1_456 1_555
K2 F3 F1 60.08(8) 1_456 2_555
K2 F3 F1 60.08(8) 1_456 3_555
K2 F3 F1 121.86(9) 1_456 4_555
K2 F3 F1 122.32(7) 1_456 9_667
K2 F3 F1 55.85(6) 1_456 10_467
K2 F3 F1 55.85(6) 1_456 11_447
K2 F3 F1 122.32(7) 1_456 12_647
K2 F3 K2 89.974(3) 1_556 2_546
K2 F3 K2 89.974(3) 1_556 2_556
K2 F3 F1 60.08(8) 1_556 1_555
K2 F3 F1 121.86(9) 1_556 2_555
K2 F3 F1 121.86(9) 1_556 3_555
K2 F3 F1 60.08(8) 1_556 4_555
K2 F3 F1 55.85(6) 1_556 9_667
K2 F3 F1 122.32(7) 1_556 10_467
K2 F3 F1 122.32(7) 1_556 11_447
K2 F3 F1 55.85(6) 1_556 12_647
K2 F3 K2 177.580(3) 2_546 2_556
K2 F3 F1 121.86(9) 2_546 1_555
K2 F3 F1 121.86(9) 2_546 2_555
K2 F3 F1 60.08(8) 2_546 3_555
K2 F3 F1 60.08(8) 2_546 4_555
K2 F3 F1 122.32(7) 2_546 9_667
K2 F3 F1 122.32(7) 2_546 10_467
K2 F3 F1 55.85(6) 2_546 11_447
K2 F3 F1 55.85(6) 2_546 12_647
K2 F3 F1 60.08(8) 2_556 1_555
K2 F3 F1 60.08(8) 2_556 2_555
K2 F3 F1 121.86(9) 2_556 3_555
K2 F3 F1 121.86(9) 2_556 4_555
K2 F3 F1 55.85(6) 2_556 9_667
K2 F3 F1 55.85(6) 2_556 10_467
K2 F3 F1 122.32(7) 2_556 11_447
K2 F3 F1 122.32(7) 2_556 12_647
F1 F3 F1 61.79(11) 1_555 2_555
F1 F3 F1 93.12(12) 1_555 3_555
F1 F3 F1 61.79(11) 1_555 4_555
F1 F3 F1 82.62(12) 1_555 9_667
F1 F3 F1 115.75(12) 1_555 10_467
F1 F3 F1 175.74(13) 1_555 11_447
F1 F3 F1 115.75(12) 1_555 12_647
F1 F3 F1 61.79(11) 2_555 3_555
F1 F3 F1 93.12(12) 2_555 4_555
F1 F3 F1 115.75(12) 2_555 9_667
F1 F3 F1 82.62(12) 2_555 10_467
F1 F3 F1 115.75(12) 2_555 11_447
F1 F3 F1 175.74(13) 2_555 12_647
F1 F3 F1 61.79(11) 3_555 4_555
F1 F3 F1 175.74(13) 3_555 9_667
F1 F3 F1 115.75(12) 3_555 10_467
F1 F3 F1 82.62(12) 3_555 11_447
F1 F3 F1 115.75(12) 3_555 12_647
F1 F3 F1 115.75(12) 4_555 9_667
F1 F3 F1 175.74(13) 4_555 10_467
F1 F3 F1 115.75(12) 4_555 11_447
F1 F3 F1 82.62(12) 4_555 12_647
F1 F3 F1 66.48(9) 9_667 10_467
F1 F3 F1 101.64(10) 9_667 11_447
F1 F3 F1 66.48(9) 9_667 12_647
F1 F3 F1 66.48(9) 10_467 11_447
F1 F3 F1 101.64(10) 10_467 12_647
F1 F3 F1 66.48(9) 11_447 12_647
loop_
_geom_bond_atom_site_label_1
_geom_bond_atom_site_label_2
_geom_bond_distance
_geom_bond_site_symmetry_2
ZR K2 3.8137(5) 1_456
ZR K2 3.8137(5) 1_556
ZR K2 3.8137(5) 2_546
ZR K2 3.8137(5) 2_556
ZR F1 2.0033(13) 1_555
ZR F1 2.0033(13) 2_555
ZR F1 2.0033(13) 3_555
ZR F1 2.0033(13) 4_555
ZR F2 1.988(5) 1_555
ZR F3 2.056(5) 1_555
K1 F1 2.5974(14) 9_666
K1 F1 2.5974(14) 10_466
K1 F1 2.5974(14) 11_446
K1 F1 2.5974(14) 12_646
K1 F2 2.467(5) 1_555
K1 F3 2.784(5) 1_554
K2 ZR 3.8137(5) 1_554
K2 ZR 3.8137(5) 1_654
K2 ZR 3.8137(5) 9_656
K2 ZR 3.8137(5) 9_666
K2 F1 2.9848(15) 1_554
K2 F1 2.9848(15) 2_654
K2 F1 2.9848(15) 3_654
K2 F1 2.9848(15) 4_554
K2 F1 2.9848(15) 9_666
K2 F1 2.9848(15) 10_566
K2 F1 2.9848(15) 11_546
K2 F1 2.9848(15) 12_646
K2 F3 3.16873(10) 1_554
K2 F3 3.16873(10) 1_654
K2 F3 3.16873(10) 9_656
K2 F3 3.16873(10) 9_666
F1 ZR 2.0033(13) 1_555
F1 K1 2.5974(14) 9_666
F1 K2 2.9848(15) 1_556
F1 K2 2.9848(15) 2_556
F1 F1 2.8233(18) 2_555
F1 F1 3.5127(18) 2_655
F1 F1 3.9928(18) 3_555
F1 F1 2.8233(18) 4_555
F1 F1 3.5127(18) 4_565
F1 F1 3.945(3) 9_667
F1 F2 2.937(4) 1_555
F1 F3 2.749(4) 1_555
F1 F3 3.204(3) 9_667
F2 ZR 1.988(5) 1_555
F2 K1 2.467(5) 1_555
F2 F1 2.937(4) 1_555
F2 F1 2.937(4) 2_555
F2 F1 2.937(4) 3_555
F2 F1 2.937(4) 4_555
F3 ZR 2.056(5) 1_555
F3 K1 2.784(5) 1_556
F3 K2 3.16873(10) 1_456
F3 K2 3.16873(10) 1_556
F3 K2 3.16873(10) 2_546
F3 K2 3.16873(10) 2_556
F3 F1 2.749(4) 1_555
F3 F1 2.749(4) 2_555
F3 F1 2.749(4) 3_555
F3 F1 2.749(4) 4_555
F3 F1 3.204(3) 9_667
F3 F1 3.204(3) 10_467
F3 F1 3.204(3) 11_447
F3 F1 3.204(3) 12_647
