#------------------------------------------------------------------------------
#$Date: 2020-09-04 03:28:54 +0300 (Fri, 04 Sep 2020) $
#$Revision: 255860 $
#$URL: file:///home/coder/svn-repositories/cod/cif/4/51/79/4517904.cif $
#------------------------------------------------------------------------------
#
# This file is available in the Crystallography Open Database (COD),
# http://www.crystallography.net/
#
# All data on this site have been placed in the public domain by the
# contributors.
#
data_4517904
loop_
_publ_author_name
'Thomas, Rudy'
'Devaux, Philippe'
'Rivenet, Murielle'
'Henry, Natacha'
'Abraham, Francis'
_publ_section_title
;
 Zirconium Oxalates: Zr(OH)<sub>2</sub>(C<sub>2</sub>O<sub>4</sub>),
 (H<sub>11</sub>O<sub>5</sub>)<sub>2</sub>[Zr<sub>2</sub>(C<sub>2</sub>O<sub>4</sub>)<sub>5</sub>(H<sub>2</sub>O)<sub>4</sub>],
 and
 MM'[Zr(C<sub>2</sub>O<sub>4</sub>)<sub>3</sub>]&#x00B7;<i>x</i>H<sub>2</sub>O
 with M and M' = Ammonium, Alkali Metal, and Hydroxonium Ion
 H<sub>2<i>n</i>+1</sub>O <sub> <i>n</i> </sub><sup>+</sup> (<i>n</i> = 2,
 3, 4).
;
_journal_issue                   33
_journal_name_full               'ACS omega'
_journal_page_first              21260
_journal_page_last               21270
_journal_paper_doi               10.1021/acsomega.0c03224
_journal_volume                  5
_journal_year                    2020
_chemical_formula_sum            'C6 H7 O15 Rb Zr'
_chemical_formula_weight         495.81
_space_group_crystal_system      triclinic
_space_group_IT_number           2
_space_group_name_Hall           '-P 1'
_space_group_name_H-M_alt        'P -1'
_atom_sites_solution_hydrogens   difmap
_audit_creation_method           SHELXL-2013
_cell_angle_alpha                79.179(3)
_cell_angle_beta                 72.476(4)
_cell_angle_gamma                76.975(3)
_cell_formula_units_Z            2
_cell_length_a                   7.7027(5)
_cell_length_b                   8.9788(6)
_cell_length_c                   10.6518(7)
_cell_measurement_reflns_used    3200
_cell_measurement_temperature    296(2)
_cell_measurement_theta_max      24.87
_cell_measurement_theta_min      2.80
_cell_volume                     678.70(8)
_computing_cell_refinement       'Bruker SMART'
_computing_data_collection       'Bruker SMART'
_computing_data_reduction        'Bruker SAINT'
_computing_molecular_graphics    'Bruker SHELXTL'
_computing_publication_material  'Bruker SHELXTL'
_computing_structure_refinement  'SHELXL-2013 (Sheldrick, 2013)'
_computing_structure_solution    'Bruker SHELXTL'
_diffrn_ambient_temperature      296(2)
_diffrn_measured_fraction_theta_full 0.766
_diffrn_measured_fraction_theta_max 0.995
_diffrn_measurement_device_type  'CCD area detector'
_diffrn_measurement_method       'phi and omega scans'
_diffrn_radiation_type           MoK\a
_diffrn_radiation_wavelength     0.71073
_diffrn_reflns_av_R_equivalents  0.0655
_diffrn_reflns_av_unetI/netI     0.0411
_diffrn_reflns_Laue_measured_fraction_full 0.766
_diffrn_reflns_Laue_measured_fraction_max 0.995
_diffrn_reflns_limit_h_max       8
_diffrn_reflns_limit_h_min       -8
_diffrn_reflns_limit_k_max       9
_diffrn_reflns_limit_k_min       -9
_diffrn_reflns_limit_l_max       11
_diffrn_reflns_limit_l_min       -11
_diffrn_reflns_number            14524
_diffrn_reflns_point_group_measured_fraction_full 0.766
_diffrn_reflns_point_group_measured_fraction_max 0.995
_diffrn_reflns_theta_full        25.242
_diffrn_reflns_theta_max         22.999
_diffrn_reflns_theta_min         2.348
_diffrn_source                   'sealed tube'
_exptl_absorpt_coefficient_mu    4.459
_exptl_absorpt_correction_T_max  1
_exptl_absorpt_correction_T_min  0.885
_exptl_absorpt_correction_type   empirical
_exptl_absorpt_process_details   sadabs
_exptl_crystal_colour            colorless
_exptl_crystal_density_diffrn    2.426
_exptl_crystal_density_method    'not measured'
_exptl_crystal_description       block
_exptl_crystal_F_000             480
_exptl_crystal_size_max          0.060
_exptl_crystal_size_mid          0.030
_exptl_crystal_size_min          0.020
_refine_diff_density_max         0.902
_refine_diff_density_min         -0.987
_refine_diff_density_rms         0.124
_refine_ls_extinction_method     none
_refine_ls_goodness_of_fit_ref   1.026
_refine_ls_hydrogen_treatment    refxyz
_refine_ls_matrix_type           full
_refine_ls_number_parameters     214
_refine_ls_number_reflns         1886
_refine_ls_number_restraints     2
_refine_ls_restrained_S_all      1.026
_refine_ls_R_factor_all          0.0524
_refine_ls_R_factor_gt           0.0367
_refine_ls_shift/su_max          0.000
_refine_ls_shift/su_mean         0.000
_refine_ls_structure_factor_coef Fsqd
_refine_ls_weighting_details
'w=1/[\s^2^(Fo^2^)+(0.0440P)^2^+3.9128P] where P=(Fo^2^+2Fc^2^)/3'
_refine_ls_weighting_scheme      calc
_refine_ls_wR_factor_gt          0.0900
_refine_ls_wR_factor_ref         0.0986
_reflns_Friedel_coverage         0.000
_reflns_number_gt                1537
_reflns_number_total             1886
_reflns_threshold_expression     'I > 2\s(I)'
_cod_data_source_file            ao0c03224_si_002.cif
_cod_data_source_block           RbHZrOx
_cod_depositor_comments
'Adding full bibliography for 4517899--4517905.cif.'
_cod_database_code               4517904
_shelx_space_group_comment
;
The symmetry employed for this shelxl refinement is uniquely defined
by the following loop, which should always be used as a source of
symmetry information in preference to the above space-group names.
They are only intended as comments.
;
_shelxl_version_number           2013-3
_shelx_res_file
;
TITL    RbZrox
CELL 0.71073   7.7027   8.9788  10.6518  79.179  72.476  76.975
ZERR    2.00   0.0005   0.0006   0.0007   0.003   0.004   0.003
LATT 1
SFAC C  H  O  Rb Zr
UNIT 12  14  30  2  2
MERG 2
OMIT 0 0 1
L.S. 10
ACTA
FMAP 2
PLAN 40
DFIX 0.86 0.04 O13 H2 O13 H3
WGHT    0.044000    3.912800
FVAR       0.55721
ZR1   5    0.246421    0.611405    0.746267    11.00000    0.01407    0.01519 =
         0.01312   -0.00025   -0.00323    0.00031
RB1   4    0.496089    1.139908    0.810915    11.00000    0.10031    0.03956 =
         0.04925   -0.00418   -0.03028    0.02141
C1    1   -0.041972    0.862159    0.647924    11.00000    0.02107    0.03259 =
         0.02158   -0.00093   -0.00614   -0.00260
C2    1   -0.072409    0.708002    0.622364    11.00000    0.02432    0.03282 =
         0.02470    0.00124   -0.00766   -0.00211
C3    1   -0.038348    0.583003    1.013793    11.00000    0.01055    0.02215 =
         0.01969   -0.00203   -0.00691    0.00080
C4    1    0.496293    0.730003    0.861447    11.00000    0.02572    0.02821 =
         0.02401    0.00019   -0.00556   -0.01050
C5    1    0.519866    0.580880    0.475694    11.00000    0.01768    0.02279 =
         0.01343    0.00081   -0.01161   -0.00035
C6    1    0.582269    0.559027    0.851767    11.00000    0.02587    0.03142 =
         0.02307   -0.00218   -0.00320   -0.00966
O1    3    0.158454    0.400766    0.877300    11.00000    0.01909    0.02064 =
         0.01670   -0.00280    0.00273   -0.00065
O2    3    0.108679    0.846063    0.683853    11.00000    0.01982    0.02151 =
         0.02389   -0.00040   -0.00811   -0.00143
O3    3    0.358705    0.774228    0.809433    11.00000    0.02360    0.02679 =
         0.02930   -0.00417   -0.01126    0.00142
O4    3    0.362682    1.400655    0.632772    11.00000    0.02226    0.02172 =
         0.01240   -0.00003    0.00120   -0.00520
O5    3    0.426255    0.682908    0.549194    11.00000    0.02180    0.01873 =
         0.02075   -0.00426   -0.00160   -0.00310
O6    3    0.027285    0.684845    0.927110    11.00000    0.02567    0.01542 =
         0.01854    0.00386   -0.00204   -0.00561
O7    3    0.493384    0.491239    0.799643    11.00000    0.02587    0.02267 =
         0.03316   -0.00538   -0.01307   -0.00311
O8    3    0.037438    0.590058    0.661019    11.00000    0.02725    0.02427 =
         0.03654    0.00199   -0.01581   -0.00219
O9    3    0.716803    0.496078    0.892864    11.00000    0.02341    0.04394 =
         0.04294   -0.00276   -0.02121    0.00321
O10   3   -0.149345    0.982526    0.633972    11.00000    0.03391    0.03220 =
         0.06388   -0.00253   -0.02452    0.01432
O11   3    0.558127    0.809659    0.912241    11.00000    0.05773    0.03674 =
         0.05749   -0.00399   -0.03840   -0.01334
O12   3   -0.192620    0.704092    0.569883    11.00000    0.04739    0.03995 =
         0.07459   -0.00118   -0.04829   -0.00351
O13   3    0.348699    1.054981    0.569724    11.00000    0.04784    0.02915 =
         0.05092    0.00921   -0.02676   -0.01082
H1    2    0.500000    1.000000    0.500000    10.50000   -1.20000
H2    2    0.282222    0.989643    0.579941    11.00000   -1.20000
H3    2    0.301497    1.125880    0.518810    11.00000   -1.20000
O14   3   -0.078563    1.264578    0.738753    11.00000    0.11022    0.09568 =
         0.13226   -0.07015   -0.05075    0.00471
O15   3    0.091082    1.042876    0.886290    11.00000    0.13057    0.06630 =
         0.12254   -0.05235    0.03192   -0.01602
H4    2    0.000000    1.000000    1.000000    10.50000   -1.20000
HKLF      4

REM     RbZrox
REM R1 =  0.0367 for    1537 Fo > 4sig(Fo)  and  0.0524 for all    1886 data
REM    214 parameters refined using      2 restraints

END

WGHT      0.0474      2.5981

REM Highest difference peak  0.902,  deepest hole -0.987,  1-sigma level  0.124
Q1    1  -0.1572  1.1790  0.8250  11.00000  0.05    0.90
Q2    1   0.1878  0.9766  1.0447  11.00000  0.05    0.64
Q3    1   0.0304  1.2421  0.7072  11.00000  0.05    0.58
Q4    1  -0.1177  1.3194  0.7442  11.00000  0.05    0.46
Q5    1  -0.1537  1.3392  0.7974  11.00000  0.05    0.45
Q6    1  -0.1491  1.1197  0.6666  11.00000  0.05    0.41
Q7    1  -0.2413  0.8046  0.6845  11.00000  0.05    0.36
Q8    1  -0.1025  1.3072  0.6657  11.00000  0.05    0.35
Q9    1  -0.0846  0.7086  0.4820  11.00000  0.05    0.34
Q10   1   0.4693  1.2477  0.8837  11.00000  0.05    0.33
Q11   1   0.3752  0.7199  0.6442  11.00000  0.05    0.33
Q12   1   0.0211  1.1589  0.5764  11.00000  0.05    0.32
Q13   1  -0.0928  1.1342  0.5329  11.00000  0.05    0.32
Q14   1   0.3985  0.7290  1.0178  11.00000  0.05    0.32
Q15   1   0.6499  1.1778  0.6747  11.00000  0.05    0.32
Q16   1  -0.1624  0.8506  0.7405  11.00000  0.05    0.32
Q17   1  -0.0592  0.9350  0.5201  11.00000  0.05    0.31
Q18   1   0.0641  0.6421  0.8766  11.00000  0.05    0.31
Q19   1  -0.3455  0.9342  0.6743  11.00000  0.05    0.31
Q20   1   0.0926  1.1351  0.8388  11.00000  0.05    0.31
Q21   1  -0.0374  1.1073  0.5850  11.00000  0.05    0.30
Q22   1   0.5108  0.8956  0.9338  11.00000  0.05    0.30
Q23   1  -0.1808  0.9314  0.6138  11.00000  0.05    0.29
Q24   1   0.4686  0.7607  0.5622  11.00000  0.05    0.29
Q25   1  -0.0860  1.2458  0.6271  11.00000  0.05    0.29
Q26   1   0.5294  0.6481  0.8583  11.00000  0.05    0.29
Q27   1   0.1676  0.5811  0.4562  11.00000  0.05    0.28
Q28   1  -0.2299  0.9660  0.7036  11.00000  0.05    0.28
Q29   1   0.1206  1.0328  0.9376  11.00000  0.05    0.28
Q30   1   0.1487  0.4940  0.8758  11.00000  0.05    0.28
Q31   1   0.5597  1.0375  0.7113  11.00000  0.05    0.28
Q32   1   0.5617  0.7838  0.8229  11.00000  0.05    0.28
Q33   1   0.1930  0.9882  0.5223  11.00000  0.05    0.28
Q34   1  -0.1190  1.4211  0.7658  11.00000  0.05    0.27
Q35   1   0.2561  1.1568  0.4200  11.00000  0.05    0.27
Q36   1   0.0224  0.7892  0.9042  11.00000  0.05    0.27
Q37   1   0.2423  0.9240  0.8544  11.00000  0.05    0.27
Q38   1  -0.3020  1.2626  0.8797  11.00000  0.05    0.27
Q39   1  -0.0270  1.4224  0.6551  11.00000  0.05    0.27
Q40   1   0.5986  0.8314  0.8608  11.00000  0.05    0.27
;
_shelx_res_checksum              11683
_shelx_hkl_file
;
   1   0   0  578.62   26.47
   1   0   0  560.86   25.62
  -1   0   0  629.88   27.04
  -1   0   0  580.47   26.11
  -1   0   0  572.78   26.88
   1   0   0  623.73   26.47
   1   0   0  576.43   26.65
   2   0   0 1120.17   53.26
   2   0   0 1133.33   50.92
  -2   0   0 1158.96   49.55
  -2   0   0 1128.92   53.02
  -2   0   0 1133.37   51.34
   2   0   0 1130.57   52.66
   2   0   0 1121.87   51.05
   2   0   0 1094.26   51.45
   2   0   0 1177.23   50.38
  -2   0   0 1246.92   52.75
  -2   0   0 1202.87   50.93
   2   0   0 1073.42   51.68
  -2   0   0 1094.32   50.57
   3   0   0  717.55   39.08
  -3   0   0  674.12   33.15
   3   0   0  644.82   33.17
   3   0   0  595.16   38.02
   3   0   0  599.41   36.79
   3   0   0  738.09   35.21
   3   0   0  696.71   36.50
  -3   0   0  647.30   35.21
  -3   0   0  609.98   37.58
  -3   0   0  662.90   35.85
   3   0   0  643.22   37.13
  -3   0   0  676.63   34.47
  -3   0   0  579.99   36.68
   4   0   0 1262.43   65.16
   4   0   0 1289.92   66.89
  -4   0   0 1294.15   66.30
   4   0   0 1397.73   69.01
   4   0   0 1301.28   66.33
  -4   0   0 1291.24   63.39
  -4   0   0 1308.17   60.34
   4   0   0 1341.81   63.66
   4   0   0 1293.87   60.92
  -4   0   0 1352.10   64.64
   4   0   0 1424.26   66.17
  -5   0   0   80.48   19.64
  -5   0   0   59.77   20.66
   5   0   0  134.97   25.16
   5   0   0  113.22   22.51
  -5   0   0   73.10   16.82
   5   0   0   83.86   19.73
   5   0   0   73.34   23.03
   5   0   0   77.10   21.95
  -5   0   0   69.69   23.52
   6   0   0   34.44   21.87
  -6   0   0   25.02   26.17
   6   0   0   34.00   25.17
   6   0   0   24.73   26.07
  -6   0   0   55.73   20.75
   6   0   0   44.14   22.02
   6   0   0   63.67   26.33
   6   0   0   31.76   23.41
  -6   0   0   19.38   16.88
   7   0   0   16.67   22.84
   7   0   0  109.74   31.37
  -7   0   0   44.16   22.68
  -7   0   0   54.30   28.58
   7   0   0   70.20   30.09
   7   0   0  113.71   28.84
   7   0   0   41.61   26.95
   7  -1   0  202.54   31.73
   7  -1   0  136.20   32.99
  -7   1   0  178.98   34.36
   7  -1   0  115.79   33.29
  -7   1   0  122.00   29.22
   7  -1   0  145.92   30.99
   7  -1   0  209.95   37.05
  -6   1   0  216.29   34.58
  -6   1   0  220.22   30.06
   6  -1   0  169.84   33.35
   6  -1   0  190.45   33.30
   6  -1   0  173.60   29.91
   6  -1   0  253.57   35.51
   6  -1   0  229.22   22.60
  -6   1   0  207.53   25.27
   6  -1   0  258.54   32.50
  -5   1   0  560.86   42.76
   5  -1   0  634.74   45.50
   5  -1   0  583.29   45.59
   5  -1   0  555.90   43.55
   5  -1   0  585.33   40.46
  -5   1   0  548.31   35.64
   5  -1   0  540.02   34.52
   5  -1   0  558.49   42.52
  -5   1   0  497.49   43.06
  -5   1   0  568.00   39.25
  -4   1   0 1141.91   56.84
   4  -1   0 1128.91   55.24
   4  -1   0 1039.99   57.45
  -4   1   0 1085.41   52.37
   4  -1   0 1046.22   59.43
  -4   1   0 1060.38   55.28
   4  -1   0 1064.42   58.13
   4  -1   0 1002.62   52.23
   4  -1   0 1090.42   58.55
  -4   1   0 1094.23   59.04
   3  -1   0    1.88   13.40
  -3   1   0    7.65   10.66
   3  -1   0  -16.86    9.17
  -3   1   0  -11.89   10.71
  -3   1   0   -7.20   11.91
  -3   1   0    2.67   12.16
   3  -1   0    6.12   13.44
   3  -1   0   -6.44   13.02
   3  -1   0   -8.04   10.19
   3  -1   0   14.24   13.36
  -3   1   0   12.12   11.12
  -3   1   0   17.11   14.79
  -2   1   0  789.91   38.22
   2  -1   0  806.09   38.46
   2  -1   0  790.33   40.25
  -2   1   0  796.17   40.02
   2  -1   0  771.12   37.60
   2  -1   0  761.65   41.10
  -2   1   0  775.31   38.12
   2  -1   0  739.16   40.03
  -2   1   0  724.28   40.92
  -2   1   0  741.46   39.19
   2  -1   0  823.04   39.21
   2  -1   0  813.98   41.66
   1  -1   0  532.39   27.56
   1  -1   0  575.13   26.17
   1  -1   0  544.08   28.21
   1  -1   0  531.01   27.45
  -1   1   0  542.98   27.35
  -1   1   0  538.38   25.96
  -1   1   0  525.21   26.46
  -1   1   0  516.29   26.85
   1  -1   0  562.52   26.36
  -1   1   0  555.50   27.46
   1  -1   0  566.58   26.90
  -1   1   0  519.67   28.02
   1  -1   0  561.25   27.72
   0   1   0  793.10   33.07
   0  -1   0  661.12   31.84
   0  -1   0  784.35   32.85
   0   1   0  828.90   32.92
   0  -1   0  775.22   32.46
   0   1   0  682.96   32.14
  -1  -1   0  164.92   11.73
   1   1   0  163.26   10.90
   1   1   0  133.30   11.11
  -1  -1   0  152.57   11.22
  -1  -1   0  145.65   10.54
   1   1   0  145.79   10.66
   1   1   0  164.92   10.21
   1   1   0  160.03   11.56
   1   1   0  163.75   11.70
   1   1   0  165.33   11.20
   1   1   0  148.04   11.70
  -1  -1   0  150.35   12.20
  -1  -1   0  137.66   10.23
  -1  -1   0  155.29   10.72
  -1  -1   0  153.60   10.35
   2   1   0  860.93   42.89
  -2  -1   0  887.69   44.78
   2   1   0  952.85   41.89
  -2  -1   0  954.26   42.41
  -2  -1   0  907.91   42.90
   2   1   0  919.98   44.12
   2   1   0  813.95   43.42
   2   1   0  866.15   43.16
   2   1   0  899.90   39.51
  -2  -1   0  975.11   41.21
   2   1   0  933.12   44.69
   2   1   0  977.85   45.00
  -2  -1   0  929.81   42.03
  -2  -1   0  891.16   42.66
  -2  -1   0  873.64   43.97
  -2  -1   0  972.02   43.91
   2   1   0  965.70   42.99
   3   1   0  696.09   40.23
   3   1   0  655.98   39.69
  -3  -1   0  741.31   36.26
  -3  -1   0  730.64   37.87
   3   1   0  686.52   38.60
   3   1   0  729.32   38.30
   3   1   0  693.87   39.21
   3   1   0  753.41   37.03
  -3  -1   0  731.04   36.99
   3   1   0  693.20   33.60
  -3  -1   0  729.65   35.07
  -3  -1   0  650.94   36.21
   3   1   0  746.99   40.42
  -3  -1   0  696.37   38.38
  -3  -1   0  665.30   39.07
   3   1   0  694.03   40.44
   4   1   0  388.61   31.73
  -4  -1   0  346.32   28.12
   4   1   0  374.95   28.60
  -4  -1   0  353.79   27.27
   4   1   0  347.73   29.52
  -4  -1   0  381.23   26.80
   4   1   0  372.03   30.35
   4   1   0  374.12   31.37
   4   1   0  379.60   24.39
   4   1   0  322.17   29.98
  -4  -1   0  342.80   30.23
  -4  -1   0  388.76   24.91
   4   1   0  334.99   26.63
   4   1   0  371.96   31.77
  -5  -1   0    1.80   16.34
   5   1   0    4.74   17.92
  -5  -1   0   26.62   19.87
   5   1   0   19.97   16.80
  -5  -1   0   16.71   17.69
   5   1   0   35.35   19.29
  -5  -1   0   17.32   16.99
   5   1   0    0.34   18.96
   5   1   0   26.78   20.31
   5   1   0   23.46   18.21
   5   1   0   28.41   14.12
   5   1   0   25.23   19.82
  -5  -1   0   -1.54   13.16
  -6  -1   0  216.17   24.20
   6   1   0  306.37   37.35
  -6  -1   0  210.12   33.58
   6   1   0  245.62   26.26
   6   1   0  344.41   34.03
   6   1   0  253.53   34.26
   6   1   0  270.70   35.48
   6   1   0  247.29   35.41
  -6  -1   0  256.83   30.13
  -7  -1   0  183.28   28.40
   7   1   0  172.39   33.53
  -7  -1   0  137.79   32.61
   7   1   0  164.69   24.95
   7   1   0  186.05   35.14
   7   1   0  172.83   34.09
   7   1   0  164.20   31.95
   8   1   0   73.00   34.33
   8   1   0  106.46   31.69
   8   1   0   83.05   33.29
   8   1   0   66.66   34.33
  -8  -1   0  143.83   35.54
   8   1   0  124.31   25.34
   7  -2   0   46.78   31.36
  -7   2   0   69.31   30.86
   7  -2   0   78.89   31.33
  -7   2   0   46.33   26.81
   7  -2   0   57.99   29.73
   7  -2   0   63.71   28.55
  -6   2   0   18.87   27.54
  -6   2   0    8.45   18.11
  -6   2   0   10.24   21.37
   6  -2   0    5.63   25.60
   6  -2   0   27.25   16.65
   6  -2   0   15.08   21.80
   6  -2   0   -6.59   23.72
   6  -2   0   22.07   20.32
   6  -2   0   26.91   24.86
  -5   2   0  752.66   53.49
   5  -2   0  770.16   54.07
   5  -2   0  721.47   44.76
   5  -2   0  723.32   54.29
   5  -2   0  813.89   51.90
   5  -2   0  753.50   52.91
  -5   2   0  837.63   45.67
  -5   2   0  825.34   49.42
   5  -2   0  762.63   49.26
   4  -2   0   26.10   19.34
   4  -2   0    5.87   17.70
  -4   2   0   26.84   14.70
  -4   2   0   26.76   15.78
   4  -2   0   39.12   17.69
  -4   2   0   28.56   20.34
   4  -2   0   41.34   17.13
   4  -2   0    6.82   16.83
  -4   2   0   30.48   16.07
   4  -2   0   29.06   15.72
   3  -2   0  493.64   35.97
   3  -2   0  465.09   35.79
  -3   2   0  544.76   34.38
  -3   2   0  469.17   31.64
  -3   2   0  463.47   31.10
   3  -2   0  507.21   33.86
   3  -2   0  502.58   33.77
  -3   2   0  438.16   35.67
   3  -2   0  485.65   35.32
   3  -2   0  445.86   30.82
   3  -2   0  539.02   36.55
  -2   2   0  572.27   34.60
   2  -2   0  629.32   35.91
  -2   2   0  613.35   34.97
   2  -2   0  627.63   33.89
   2  -2   0  577.97   35.68
  -2   2   0  623.28   37.99
   2  -2   0  689.49   39.27
   2  -2   0  616.49   35.35
  -2   2   0  647.65   35.78
   2  -2   0  640.78   36.71
  -2   2   0  727.24   38.80
   2  -2   0  604.87   37.42
  -2   2   0  635.63   36.39
  -1   2   0  720.56   36.85
   1  -2   0  799.62   40.07
  -1   2   0  730.68   38.00
  -1   2   0  754.93   37.09
  -1   2   0  692.30   35.44
  -1   2   0  755.38   38.12
   1  -2   0  737.90   36.97
   1  -2   0  704.70   37.97
   1  -2   0  689.01   35.72
   1  -2   0  734.64   37.77
  -1   2   0  729.87   35.78
   1  -2   0  703.88   37.71
  -1   2   0  692.97   38.77
   0  -2   0   16.17    9.33
   0   2   0   13.99    8.71
   0  -2   0    8.62   10.22
   0   2   0   13.22    9.39
   0  -2   0   23.13    8.85
   0  -2   0   22.42   10.34
   0  -2   0   12.34    9.48
   0   2   0   21.54    9.78
   0   2   0   23.57    9.88
   0  -2   0   15.99    9.55
   0   2   0   22.64   10.57
   0   2   0   -0.06    9.12
   1   2   0  564.74   30.80
   1   2   0  634.18   31.23
  -1  -2   0  607.91   31.50
  -1  -2   0  587.55   30.16
  -1  -2   0  605.59   30.96
   1   2   0  632.21   32.30
   1   2   0  662.72   30.65
   1   2   0  586.25   30.10
  -1  -2   0  589.99   31.72
  -1  -2   0  616.18   32.58
   1   2   0  592.32   32.15
  -1  -2   0  611.23   30.07
  -1  -2   0  588.95   32.62
   1   2   0  682.48   33.21
   2   2   0  219.49   19.35
  -2  -2   0  201.00   17.42
  -2  -2   0  203.71   17.72
  -2  -2   0  177.77   18.66
  -2  -2   0  185.56   17.88
   2   2   0  186.53   17.19
   2   2   0  203.86   18.35
   2   2   0  152.91   17.93
   2   2   0  177.15   17.94
  -2  -2   0  186.06   16.68
   2   2   0  243.89   17.34
   2   2   0  202.59   17.80
  -2  -2   0  172.57   16.35
  -2  -2   0  199.47   19.03
   2   2   0  202.42   19.22
   3   2   0  650.41   37.11
  -3  -2   0  677.88   36.45
  -3  -2   0  644.16   33.25
  -3  -2   0  650.77   39.37
  -3  -2   0  648.41   37.56
   3   2   0  604.03   36.91
   3   2   0  564.16   37.22
   3   2   0  682.42   37.23
  -3  -2   0  650.55   34.74
   3   2   0  606.98   37.18
  -3  -2   0  648.93   35.24
   3   2   0  703.35   35.77
  -3  -2   0  654.69   38.35
   3   2   0  647.63   39.21
   3   2   0  635.13   38.38
   4   2   0    9.40   13.46
  -4  -2   0   -8.06   10.24
  -4  -2   0   -7.07   12.95
   4   2   0   10.24   12.58
  -4  -2   0   -3.00   15.26
   4   2   0   18.53   15.50
   4   2   0    8.01   15.38
   4   2   0    7.47   14.70
   4   2   0   -4.83   14.40
   4   2   0   -7.98   14.90
  -4  -2   0    3.85   12.46
  -4  -2   0   24.16   13.65
   4   2   0   -9.04   14.48
   5   2   0 1558.37   76.35
  -5  -2   0 1530.76   73.27
   5   2   0 1556.97   73.33
   5   2   0 1466.11   64.69
   5   2   0 1490.61   77.33
   5   2   0 1460.12   77.63
  -5  -2   0 1497.39   72.94
   5   2   0 1371.06   77.65
   5   2   0 1548.24   79.49
  -5  -2   0 1328.78   71.62
   5   2   0 1367.84   74.82
  -5  -2   0 1460.89   67.99
  -5  -2   0 1465.09   76.25
   6   2   0    1.78   12.99
   6   2   0   26.37   19.71
   6   2   0    6.24   20.99
   6   2   0   21.72   24.83
   6   2   0   -5.35   23.92
  -6  -2   0   37.48   16.80
  -6  -2   0   10.45   24.50
  -6  -2   0  -16.08   17.17
  -6  -2   0   24.28   20.84
   6   2   0    6.32   21.91
   7   2   0  153.09   33.96
   7   2   0  230.35   37.55
   7   2   0  219.99   37.81
  -7  -2   0  178.56   29.94
   7   2   0  225.27   35.66
  -7  -2   0  235.10   35.75
   7   2   0  230.21   22.67
  -8  -2   0   -8.28   28.51
   8   2   0   24.67   28.09
   8   2   0   -0.19   29.81
   8   2   0   22.42   27.94
   8   2   0   45.01   32.65
   7  -3   0  194.05   43.21
   7  -3   0  278.27   43.03
   7  -3   0  296.66   42.62
  -7   3   0  207.66   36.80
  -7   3   0  313.90   44.32
   7  -3   0  337.38   46.28
   6  -3   0  165.60   33.87
   6  -3   0  120.73   23.06
   6  -3   0  153.17   32.15
  -6   3   0  141.42   25.65
  -6   3   0  175.31   35.14
   6  -3   0  168.10   34.54
  -6   3   0  200.90   30.65
   6  -3   0  101.79   31.70
  -5   3   0   24.82   18.39
   5  -3   0   42.43   21.91
  -5   3   0    2.95   20.42
   5  -3   0   26.40   25.05
  -5   3   0    2.14   26.51
   5  -3   0    9.90   24.38
   5  -3   0   28.71   22.90
   5  -3   0   16.76   24.93
  -4   3   0    6.27   22.73
  -4   3   0   44.69   18.82
   4  -3   0   45.23   20.21
   4  -3   0   25.60   20.73
   4  -3   0   65.28   24.14
   4  -3   0   10.86   19.99
   4  -3   0   37.88   18.75
   4  -3   0   10.48   20.36
  -4   3   0   14.08   16.04
   3  -3   0 2533.31  117.22
   3  -3   0 2545.89  118.07
  -3   3   0 2560.94  115.02
   3  -3   0 2761.05  117.37
  -3   3   0 2725.95  116.60
   3  -3   0 2614.83  112.71
   3  -3   0 2603.91  114.99
  -3   3   0 2461.29  118.34
   3  -3   0 2588.26  119.37
  -2   3   0 2192.65  101.31
   2  -3   0 2132.27  102.68
  -2   3   0 2354.59  103.61
  -2   3   0 2427.17  104.44
  -2   3   0 2296.13   98.01
   2  -3   0 2219.01  103.80
   2  -3   0 2347.15  101.30
  -2   3   0 2267.23  104.57
   2  -3   0 2301.67  102.40
   2  -3   0 2593.39  107.91
  -2   3   0 2346.24  102.02
   2  -3   0 2261.00  104.40
  -1   3   0 1272.37   58.23
  -1   3   0 1251.31   62.85
   1  -3   0 1189.41   61.09
  -1   3   0 1261.45   61.48
   1  -3   0 1229.05   63.05
   1  -3   0 1275.45   60.81
   1  -3   0 1345.42   59.84
  -1   3   0 1278.90   59.19
   1  -3   0 1288.43   60.90
   1  -3   0 1293.32   62.80
  -1   3   0 1355.94   60.87
  -1   3   0 1243.64   61.63
  -1   3   0 1200.32   59.95
   0   3   0  -13.08   10.87
   0   3   0   -1.38    9.92
   0  -3   0    0.00   11.13
   0   3   0   -0.12   10.71
   0  -3   0   -9.39    8.83
   0  -3   0   -1.06   10.77
   0   3   0   18.73   12.01
   0   3   0    7.36   11.05
   0  -3   0    4.90   11.87
   0  -3   0    0.95   10.99
   0   3   0   -6.97   11.19
   0  -3   0    3.93   11.57
   1   3   0 1992.27   93.06
  -1  -3   0 2204.12   93.54
   1   3   0 2182.42   92.87
   1   3   0 2223.98   94.22
   1   3   0 2313.99   94.30
  -1  -3   0 2184.29   92.44
   1   3   0 2235.38   95.09
   1   3   0 2167.79   94.41
  -1  -3   0 2283.06   92.70
   1   3   0 2148.20   93.09
  -1  -3   0 2043.62   92.75
  -1  -3   0 2203.42   94.11
  -1  -3   0 2021.53   94.31
  -2  -3   0  507.82   32.48
  -2  -3   0  457.14   29.99
  -2  -3   0  492.91   29.69
  -2  -3   0  475.83   28.36
   2   3   0  502.06   30.10
   2   3   0  483.42   31.89
  -2  -3   0  501.57   28.53
   2   3   0  495.78   29.36
   2   3   0  437.43   32.00
   2   3   0  474.44   28.70
  -2  -3   0  540.19   31.99
   2   3   0  513.33   31.32
  -2  -3   0  461.31   31.27
   2   3   0  442.63   29.67
   3   3   0  626.70   40.17
  -3  -3   0  645.42   39.58
   3   3   0  640.21   40.98
   3   3   0  621.39   40.92
   3   3   0  647.93   37.40
  -3  -3   0  616.56   40.26
   3   3   0  641.48   39.51
   3   3   0  744.20   40.58
   3   3   0  636.65   38.04
  -3  -3   0  684.73   36.66
  -3  -3   0  637.31   37.46
  -3  -3   0  641.83   39.68
  -3  -3   0  658.93   37.29
   3   3   0  638.29   38.59
  -3  -3   0  696.64   38.74
  -4  -3   0   77.80   17.93
  -4  -3   0   41.91   13.77
   4   3   0   47.95   18.49
  -4  -3   0   73.96   20.85
   4   3   0   46.22   17.60
   4   3   0   53.66   17.41
   4   3   0   55.90   19.42
   4   3   0   47.87   18.43
  -4  -3   0   58.35   19.03
  -4  -3   0   49.19   15.85
   4   3   0   60.87   16.15
   4   3   0   29.28   18.46
   5   3   0 1758.02   89.38
   5   3   0 1808.34   90.94
   5   3   0 1770.03   92.84
  -5  -3   0 1843.23   86.87
   5   3   0 1864.02   87.67
   5   3   0 1864.63   89.51
  -5  -3   0 1673.60   88.21
  -5  -3   0 1816.71   87.70
  -5  -3   0 1713.11   84.66
   5   3   0 1868.16   92.02
   6   3   0  149.98   30.78
  -6  -3   0  157.99   30.42
   6   3   0   93.60   28.17
   6   3   0  119.80   30.29
  -6  -3   0   95.70   25.00
   6   3   0   80.02   26.04
  -6  -3   0  125.61   20.66
   6   3   0  121.44   29.03
  -6  -3   0  115.03   25.04
   7   3   0  163.48   32.74
  -7  -3   0  191.75   34.54
   7   3   0  224.29   36.33
  -7  -3   0  196.45   29.75
  -7  -3   0  224.15   31.39
   7   3   0  203.98   38.14
   7   3   0  175.91   35.79
   8   3   0  -27.16   29.55
   6  -4   0  109.56   33.11
   6  -4   0  184.54   35.45
   6  -4   0  140.76   35.78
  -6   4   0  117.21   32.06
  -6   4   0  135.00   36.61
   6  -4   0  100.83   33.53
   5  -4   0  -20.68   20.25
  -5   4   0  -14.35   17.97
   5  -4   0  -14.20   23.37
   5  -4   0    4.31   25.32
   5  -4   0  -10.80   22.89
  -5   4   0  -43.56   20.41
  -5   4   0  -14.72   25.54
   5  -4   0   17.09   23.16
   4  -4   0  422.42   43.21
   4  -4   0  501.74   41.80
   4  -4   0  526.89   45.55
  -4   4   0  519.98   46.12
   4  -4   0  495.36   46.86
  -4   4   0  472.56   40.22
  -4   4   0  456.86   36.64
   4  -4   0  484.75   46.58
   3  -4   0   -1.61   18.88
   3  -4   0   -1.41   15.79
   3  -4   0    7.51   21.09
   3  -4   0   25.36   19.61
  -3   4   0   16.42   18.27
  -3   4   0    0.74   16.76
  -3   4   0  -13.60   20.25
  -2   4   0  187.37   23.78
   2  -4   0  137.68   22.99
  -2   4   0  171.94   22.59
  -2   4   0  142.78   24.95
  -2   4   0  137.27   22.61
   2  -4   0  153.26   23.54
   2  -4   0  150.68   24.16
  -2   4   0  130.88   20.27
   2  -4   0  173.61   22.81
   2  -4   0  186.33   22.14
   1  -4   0  654.65   38.60
   1  -4   0  690.15   40.94
  -1   4   0  615.70   36.93
   1  -4   0  582.73   42.00
  -1   4   0  663.33   41.23
   1  -4   0  557.74   39.97
  -1   4   0  660.82   40.04
   1  -4   0  615.03   40.04
  -1   4   0  675.85   43.54
  -1   4   0  649.55   39.40
   1  -4   0  621.90   41.46
  -1   4   0  603.92   40.11
  -1   4   0  612.02   39.04
   0  -4   0 1458.22   73.10
   0   4   0 1647.68   76.25
   0   4   0 1588.98   75.61
   0   4   0 1645.54   73.95
   0  -4   0 1577.89   73.05
   0  -4   0 1575.09   75.25
   0   4   0 1528.11   76.63
   0  -4   0 1634.19   74.45
   0  -4   0 1618.54   75.23
   0   4   0 1533.02   72.27
   0  -4   0 1527.47   76.06
  -1  -4   0   16.74   13.96
  -1  -4   0   27.47   13.44
  -1  -4   0   50.45   13.41
   1   4   0   56.35   15.81
  -1  -4   0   29.63   15.57
  -1  -4   0   44.00   15.34
  -1  -4   0   35.57   14.23
   1   4   0   51.94   16.27
  -1  -4   0   26.85   13.00
   1   4   0   36.51   15.46
   1   4   0   33.60   15.55
   1   4   0   25.18   13.66
   1   4   0    9.40   13.65
  -2  -4   0   89.01   18.31
  -2  -4   0   98.66   15.81
   2   4   0   80.51   17.55
  -2  -4   0   83.40   18.51
  -2  -4   0   97.34   17.08
  -2  -4   0   61.28   14.67
   2   4   0  118.45   17.50
  -2  -4   0  146.06   21.52
   2   4   0   93.74   19.39
   2   4   0  105.39   17.91
   2   4   0   86.82   18.48
   2   4   0   76.58   16.31
   2   4   0   62.68   18.01
  -3  -4   0  645.62   39.55
   3   4   0  611.23   39.71
   3   4   0  579.70   37.78
   3   4   0  617.16   41.36
  -3  -4   0  594.88   36.96
  -3  -4   0  581.08   40.80
   3   4   0  640.86   38.89
   3   4   0  638.89   41.94
  -3  -4   0  673.88   42.57
  -3  -4   0  637.55   38.41
   3   4   0  690.09   40.81
   4   4   0 1220.17   66.02
  -4  -4   0 1238.23   63.26
   4   4   0 1249.50   68.47
   4   4   0 1377.87   66.09
   4   4   0 1137.37   65.68
   4   4   0 1405.57   68.54
  -4  -4   0 1221.48   65.57
   4   4   0 1191.67   67.42
  -4  -4   0 1174.30   66.42
  -4  -4   0 1284.49   70.05
  -4  -4   0 1250.10   64.93
   4   4   0 1237.28   69.70
  -4  -4   0 1267.10   60.25
   5   4   0   10.86   20.46
   5   4   0  -11.88   20.08
   5   4   0   20.78   21.83
  -5  -4   0   -9.21   14.69
   5   4   0    8.98   20.01
   5   4   0   -5.37   21.60
  -5  -4   0   12.84   20.54
   5   4   0   -3.34   19.62
  -5  -4   0   -6.30   21.04
  -5  -4   0  -38.45   15.91
   6   4   0  101.07   29.99
   6   4   0  122.52   30.92
   6   4   0  117.90   29.58
   6   4   0  136.48   28.20
   6   4   0   87.08   27.60
  -6  -4   0  135.18   25.90
  -6  -4   0  145.02   28.14
  -6  -4   0  125.85   21.32
  -6  -4   0  116.13   29.63
   7   4   0   63.53   30.16
  -7  -4   0  115.92   29.33
   7   4   0   32.41   25.33
  -7  -4   0  128.34   30.23
  -7  -4   0   69.04   29.23
   7   4   0   66.85   32.37
   7   4   0   93.51   34.05
   6  -5   0  186.43   40.27
   6  -5   0   92.92   36.68
   6  -5   0  129.94   38.13
  -6   5   0  132.46   33.86
   6  -5   0   61.84   35.63
  -5   5   0   80.37   27.99
  -5   5   0   85.08   24.68
  -5   5   0  125.23   35.96
   5  -5   0  180.30   35.77
   5  -5   0  183.03   34.18
   5  -5   0  150.76   36.04
   4  -5   0    6.81   25.35
  -4   5   0    9.18   18.83
  -4   5   0   16.37   22.80
   4  -5   0   -5.40   21.55
   4  -5   0    9.95   24.84
  -4   5   0   44.03   28.77
   4  -5   0   48.60   28.54
   3  -5   0   23.09   23.78
  -3   5   0  -10.87   20.36
  -3   5   0   23.08   25.01
   3  -5   0   -5.28   20.88
  -3   5   0  -20.97   17.94
   3  -5   0   10.80   19.24
   3  -5   0    8.02   22.32
  -2   5   0  626.33   42.88
   2  -5   0  502.63   42.55
  -2   5   0  514.65   43.95
   2  -5   0  551.21   42.27
   2  -5   0  597.93   41.60
  -2   5   0  503.59   36.94
   2  -5   0  522.69   44.86
  -2   5   0  517.53   40.68
   1  -5   0  673.82   42.14
   1  -5   0  567.76   42.91
  -1   5   0  597.95   41.93
   1  -5   0  571.35   41.67
  -1   5   0  603.66   38.64
  -1   5   0  553.95   43.88
   1  -5   0  645.92   45.12
  -1   5   0  548.03   41.81
   0   5   0  424.27   37.08
   0  -5   0  419.78   33.38
   0  -5   0  448.09   35.62
   0  -5   0  456.86   35.93
   0   5   0  402.69   33.18
   0  -5   0  463.29   33.64
   0  -5   0  371.99   32.29
  -1  -5   0  117.99   19.44
   1   5   0   85.99   18.94
   1   5   0   68.45   18.09
  -1  -5   0   54.25   16.84
  -1  -5   0   71.68   20.66
  -1  -5   0   63.24   19.63
   1   5   0   52.44   19.25
  -1  -5   0  108.68   20.63
   1   5   0   66.05   18.91
  -1  -5   0   84.41   17.82
   1   5   0   91.06   21.18
  -2  -5   0 1074.99   53.49
   2   5   0 1070.25   58.46
  -2  -5   0 1061.68   60.33
  -2  -5   0  975.53   52.49
  -2  -5   0 1074.22   57.22
  -2  -5   0  922.25   57.21
   2   5   0  980.42   57.39
   2   5   0 1110.07   56.04
   2   5   0  968.33   55.06
   2   5   0  984.21   56.41
   2   5   0  972.93   54.23
  -2  -5   0 1031.09   55.93
   3   5   0  -18.14   16.75
  -3  -5   0    1.35   17.55
   3   5   0   16.74   17.46
   3   5   0   17.92   18.69
  -3  -5   0   -7.27   16.58
  -3  -5   0   31.41   15.59
   3   5   0   31.78   18.79
   3   5   0   40.66   18.92
   3   5   0   -0.40   15.74
  -3  -5   0   48.69   18.07
  -3  -5   0   39.33   20.66
  -4  -5   0   48.36   22.86
   4   5   0   56.47   20.92
  -4  -5   0   43.27   17.27
   4   5   0   56.25   21.59
  -4  -5   0   52.63   20.11
  -4  -5   0   57.51   20.30
   4   5   0   37.01   22.77
   4   5   0   59.65   22.78
   4   5   0   68.42   23.87
   5   5   0    5.37   21.80
  -5  -5   0  -20.79   23.42
  -5  -5   0   27.82   20.86
   5   5   0   -1.55   21.91
   5   5   0   13.23   23.70
   5   5   0   16.43   24.12
   5   5   0   18.61   21.62
  -5  -5   0   26.50   18.22
   6   5   0   64.80   26.43
  -6  -5   0  113.70   25.47
  -6  -5   0  115.57   21.38
  -6  -5   0   48.08   27.40
   6   5   0   96.02   28.53
   6   5   0  128.65   31.62
  -6  -5   0  109.62   28.71
   6   5   0  131.94   32.28
   6   5   0   72.83   27.25
   7   5   0   -5.25   28.02
  -7  -5   0   46.71   27.91
   7   5   0   24.41   28.33
  -7  -5   0   17.04   23.89
   7   5   0   33.14   28.36
   7   5   0   25.65   29.56
  -7  -5   0    8.65   28.00
   5  -6   0  588.79   57.45
   5  -6   0  479.29   55.00
   5  -6   0  558.90   55.44
  -5   6   0  618.82   59.41
  -5   6   0  509.09   50.73
   4  -6   0  -16.88   27.36
  -4   6   0    1.19   21.09
   4  -6   0  -16.67   24.37
  -4   6   0   -6.75   23.96
   4  -6   0    3.20   24.48
  -4   6   0   27.13   29.85
   3  -6   0   76.28   29.33
  -3   6   0   51.75   28.98
   3  -6   0   25.01   25.30
  -3   6   0   12.50   24.92
   3  -6   0   33.86   26.67
  -2   6   0  312.99   36.93
  -2   6   0  364.80   39.34
   2  -6   0  360.33   40.22
   2  -6   0  279.17   37.94
  -2   6   0  307.52   39.58
  -2   6   0  337.04   34.14
   2  -6   0  369.28   40.52
  -1   6   0  642.48   49.23
  -1   6   0  388.60   42.55
   1  -6   0  541.79   45.80
   1  -6   0  531.66   43.58
   1  -6   0  610.08   46.66
  -1   6   0  481.28   42.58
   0  -6   0    0.02   18.97
   0   6   0    5.25   20.45
   0   6   0    5.74   19.08
   0  -6   0   21.35   19.37
   0   6   0   15.97   19.36
   0  -6   0  -24.79   17.80
   0  -6   0  -12.63   19.21
   1   6   0   63.41   23.35
  -1  -6   0   23.89   20.33
   1   6   0   60.82   21.53
   1   6   0   33.37   19.51
   1   6   0   45.73   21.44
  -1  -6   0   51.57   19.20
  -1  -6   0   53.24   22.28
  -1  -6   0   16.65   18.65
  -2  -6   0  347.52   33.86
  -2  -6   0  356.59   31.65
   2   6   0  330.91   33.95
   2   6   0  287.97   33.87
   2   6   0  336.83   35.06
  -2  -6   0  324.92   35.83
   2   6   0  354.46   35.94
  -2  -6   0  256.22   28.33
  -3  -6   0 1105.15   58.96
   3   6   0  990.62   64.19
   3   6   0 1125.22   64.36
  -3  -6   0 1106.25   62.65
   3   6   0 1034.90   60.04
  -3  -6   0 1103.96   66.13
   3   6   0 1087.48   62.79
  -4  -6   0   10.77   20.95
   4   6   0   -3.14   22.11
   4   6   0    4.78   20.75
   4   6   0   19.47   24.04
   4   6   0   11.27   24.36
   4   6   0   20.07   23.67
  -4  -6   0   48.42   21.18
  -4  -6   0   22.61   19.41
  -4  -6   0   26.69   24.93
   5   6   0   88.55   29.25
   5   6   0  111.95   28.35
  -5  -6   0   92.92   29.31
   5   6   0  116.13   30.51
  -5  -6   0  141.21   27.65
  -5  -6   0   94.21   25.04
   5   6   0  121.90   31.26
  -5  -6   0   71.54   21.55
   5   6   0  114.68   30.44
  -6  -6   0   78.04   25.53
   6   6   0   38.55   27.55
   6   6   0  106.70   30.41
  -6  -6   0   42.07   29.71
  -6  -6   0  101.05   30.71
   6   6   0  107.24   32.16
   7   6   0  -32.49   29.55
   7   6   0    9.27   28.24
  -7  -6   0   28.10   30.87
   7   6   0   -4.22   29.13
  -7  -6   0   30.29   27.07
  -7  -6   0   50.07   32.60
  -4   7   0   55.12   35.34
   4  -7   0  -12.00   27.60
  -4   7   0   55.44   31.19
   4  -7   0    0.37   29.05
   4  -7   0    6.11   29.41
  -3   7   0  919.66   65.21
  -3   7   0  918.05   69.05
   3  -7   0 1003.15   69.42
   3  -7   0  971.37   70.42
   3  -7   0  874.90   66.93
   2  -7   0  574.86   54.67
  -2   7   0  642.01   52.42
   2  -7   0  617.11   51.72
  -2   7   0  490.72   52.85
   2  -7   0  657.26   54.88
  -1   7   0  158.82   29.89
   1  -7   0  254.03   36.25
   1  -7   0  275.95   37.78
  -1   7   0  220.14   37.76
   1  -7   0  167.64   33.99
   0   7   0  393.39   41.04
   0  -7   0  424.10   41.88
   0   7   0  390.53   39.95
   0  -7   0  479.83   45.65
   0  -7   0  381.12   42.21
   0   7   0  462.56   46.42
   0  -7   0  350.43   39.29
  -1  -7   0  349.97   35.97
   1   7   0  389.07   38.05
   1   7   0  307.57   39.17
  -1  -7   0  307.77   36.01
   1   7   0  363.24   41.30
  -1  -7   0  390.18   40.39
  -1  -7   0  323.70   40.94
   2   7   0  444.96   41.24
  -2  -7   0  386.61   43.25
   2   7   0  439.78   43.09
  -2  -7   0  374.78   36.86
   2   7   0  378.32   41.68
  -2  -7   0  402.53   36.23
  -2  -7   0  356.36   39.32
   3   7   0   34.90   26.62
   3   7   0   81.12   28.62
  -3  -7   0  100.37   27.69
   3   7   0   38.68   26.23
  -3  -7   0   55.64   22.44
   3   7   0   72.67   22.78
  -3  -7   0   39.70   26.63
  -4  -7   0   10.35   20.13
   4   7   0  -13.94   22.28
  -4  -7   0   17.19   23.04
  -4  -7   0  -11.50   21.85
   4   7   0   39.88   23.04
  -4  -7   0   17.05   24.25
   4   7   0   25.97   25.35
   4   7   0   19.99   24.18
   5   7   0  268.64   39.46
   5   7   0  340.25   42.64
  -5  -7   0  268.01   31.88
  -5  -7   0  324.70   41.54
   5   7   0  141.04   33.26
  -5  -7   0  242.74   34.61
  -5  -7   0  317.57   35.88
   5   7   0  297.12   37.06
   6   7   0    8.71   29.22
  -6  -7   0   10.77   26.96
   6   7   0  -25.55   27.76
  -6  -7   0   -6.42   30.79
   6   7   0  -42.76   25.89
   3  -8   0   16.58   31.29
   3  -8   0  -33.64   26.71
  -3   8   0  -15.41   34.08
   3  -8   0    7.69   29.87
   2  -8   0   24.68   30.99
  -2   8   0   55.52   26.70
  -2   8   0   55.14   33.60
   2  -8   0   65.39   30.33
   2  -8   0   80.29   32.18
   1  -8   0  149.56   35.65
   1  -8   0  119.97   32.16
  -1   8   0  140.97   32.94
  -1   8   0  174.32   31.77
   1  -8   0  220.91   37.05
  -1   8   0  155.22   38.21
   1  -8   0  139.01   34.15
   0  -8   0  306.35   38.91
   0   8   0  234.38   34.06
   0  -8   0  353.33   39.74
   0   8   0  323.60   40.72
   0   8   0  249.93   39.82
   0  -8   0  348.38   43.12
   0  -8   0  301.28   42.33
  -1  -8   0   16.03   24.11
   1   8   0   29.94   26.80
  -1  -8   0    3.03   22.00
   1   8   0   49.87   28.19
   1   8   0  -15.51   22.36
  -1  -8   0    4.40   26.41
  -1  -8   0   10.77   23.66
   2   8   0   52.33   27.21
  -2  -8   0   93.69   24.84
   2   8   0   65.83   28.23
  -2  -8   0   62.50   26.90
  -2  -8   0   88.09   26.32
  -2  -8   0   43.95   31.13
   2   8   0   59.61   29.36
  -3  -8   0  394.63   47.13
   3   8   0  379.51   44.64
  -3  -8   0  331.83   40.98
   3   8   0  346.19   42.82
   3   8   0  350.98   42.83
  -3  -8   0  398.70   38.16
  -4  -8   0  229.21   32.63
  -4  -8   0  145.53   32.80
   4   8   0  196.53   37.58
  -4  -8   0  178.55   32.09
   4   8   0  204.28   38.07
   4   8   0  186.85   34.40
   4   8   0  281.60   36.64
  -4  -8   0  278.28   40.20
   5   8   0   -3.66   28.16
  -5  -8   0   25.16   29.35
  -5  -8   0   16.83   30.57
   5   8   0   43.27   30.46
  -5  -8   0   37.58   24.94
   1  -9   0   11.28   33.70
   1  -9   0   33.76   32.49
  -1   9   0    4.53   30.73
   1  -9   0   33.29   32.23
  -1   9   0   14.66   27.25
  -1   9   0   -4.19   27.16
   1  -9   0  -29.19   29.41
   0   9   0  401.80   46.14
   0   9   0  433.63   49.42
   0  -9   0  405.85   48.05
   0  -9   0  499.39   48.68
   0  -9   0  390.98   50.04
   0  -9   0  456.47   53.61
   0   9   0  393.26   52.28
   1   9   0   19.25   28.75
  -1  -9   0  -10.22   28.40
   1   9   0   20.39   27.13
  -1  -9   0    1.31   26.88
  -1  -9   0   17.78   25.18
   1   9   0   31.93   30.24
  -1  -9   0   28.28   29.66
   2   9   0  119.50   34.30
  -2  -9   0  227.16   42.68
   2   9   0  144.97   36.23
  -2  -9   0  157.02   36.04
  -2  -9   0  181.17   34.76
  -2  -9   0  150.93   30.96
   2   9   0  202.99   39.09
   3   9   0    2.17   28.44
  -3  -9   0    4.68   32.66
  -3  -9   0   -8.66   23.48
  -3  -9   0   -8.16   26.32
   3   9   0   38.76   29.68
   3   9   0   21.54   30.26
   4   9   0  200.44   41.84
   4   9   0  230.38   39.30
  -4  -9   0  316.20   48.19
  -4  -9   0  186.95   37.94
   4   9   0  276.02   43.37
  -4  -9   0  162.00   33.32
  -3  -9   1   -8.07   24.42
   3   9  -1   31.26   30.68
   3   9  -1    7.54   29.13
   3   9  -1   -4.66   30.24
  -3  -9   1  -24.04   26.10
  -3  -9   1   -5.17   32.40
  -2  -9   1   56.86   28.60
   2   9  -1   31.56   28.85
  -2  -9   1   68.88   30.85
   2   9  -1   81.81   32.03
   2   9  -1   87.92   33.98
  -2  -9   1  135.96   39.91
  -2  -9   1   42.69   31.15
   1   9  -1  609.00   56.83
  -1  -9   1  541.11   55.75
   1   9  -1  565.93   58.23
  -1  -9   1  624.19   61.47
  -1  -9   1  573.82   54.65
   1   9  -1  511.29   53.09
  -1  -9   1  445.41   50.29
   0  -9   1   54.50   32.96
   0   9  -1   14.81   31.94
   0  -9   1   79.70   34.41
   0  -9   1   69.11   33.77
   0   9  -1   15.02   28.65
   0   9  -1   81.75   32.63
   0  -9   1    0.10   30.27
   1  -9   1   42.73   33.45
   1  -9   1   67.34   34.01
   1  -9   1   11.39   31.36
   1  -9   1   27.45   32.12
  -1   9  -1   17.30   29.33
  -1   9  -1  -16.54   31.05
  -5  -8   1  133.45   35.03
  -5  -8   1  150.58   40.48
   5   8  -1  183.71   39.04
   5   8  -1  190.67   40.04
  -5  -8   1  131.31   34.10
  -4  -8   1  170.47   32.80
   4   8  -1  118.95   33.45
  -4  -8   1  106.75   31.40
   4   8  -1   96.14   34.27
  -4  -8   1  102.77   35.68
   4   8  -1  128.97   36.33
  -3  -8   1   36.17   27.16
  -3  -8   1   74.12   27.56
   3   8  -1   82.64   29.31
  -3  -8   1   34.18   29.72
   3   8  -1   74.25   30.22
  -3  -8   1   39.75   26.74
   3   8  -1   25.95   27.81
   2   8  -1  243.51   38.35
   2   8  -1  217.86   35.78
   2   8  -1  205.63   37.20
  -2  -8   1  186.48   38.91
  -2  -8   1  238.38   34.37
  -2  -8   1  195.71   32.37
  -2  -8   1  203.03   35.65
   1   8  -1   45.46   28.80
  -1  -8   1   56.22   28.34
   1   8  -1  118.70   30.85
  -1  -8   1  138.29   35.74
   1   8  -1   91.91   29.52
  -1  -8   1  120.94   28.89
  -1  -8   1   47.56   25.54
   0  -8   1   80.38   29.66
   0  -8   1   93.75   29.86
   0  -8   1   87.70   31.81
   0   8  -1  111.35   30.75
   0  -8   1   59.35   28.05
   0   8  -1   97.14   32.59
   0   8  -1   70.75   27.25
  -1   8  -1  217.38   34.72
   1  -8   1  260.14   42.11
   1  -8   1  221.53   37.93
  -1   8  -1  134.46   37.76
   1  -8   1  264.08   41.53
   1  -8   1  208.53   38.57
  -1   8  -1  222.11   37.00
   2  -8   1   67.73   32.28
  -2   8  -1  136.47   32.97
   2  -8   1   85.39   33.59
  -2   8  -1   49.41   33.03
   2  -8   1  165.35   36.61
   2  -8   1   78.45   32.83
  -3   8  -1  124.65   38.64
   3  -8   1   64.02   33.95
  -3   8  -1  100.88   31.73
   3  -8   1   48.20   32.16
   3  -8   1  172.93   38.39
   6   7  -1  396.39   50.71
  -6  -7   1  292.12   41.83
  -6  -7   1  309.02   48.04
   6   7  -1  291.41   44.15
  -6  -7   1  365.63   45.28
   6   7  -1  308.64   46.43
  -5  -7   1  -19.46   25.16
  -5  -7   1   -4.95   23.12
   5   7  -1   14.46   27.32
   5   7  -1   12.93   27.50
   5   7  -1   22.64   26.89
  -5  -7   1   20.06   24.61
  -5  -7   1   28.82   30.09
   4   7  -1  194.71   36.34
  -4  -7   1  204.24   37.57
  -4  -7   1  198.65   33.21
   4   7  -1  214.78   34.07
   4   7  -1  148.67   33.25
  -4  -7   1  194.99   31.45
   3   7  -1   70.07   27.90
   3   7  -1   16.52   24.60
  -3  -7   1   -3.81   22.92
   3   7  -1   33.37   24.36
   3   7  -1    7.15   25.84
  -3  -7   1   -5.79   22.04
  -3  -7   1   34.10   26.31
  -3  -7   1   81.45   24.63
   2   7  -1  800.83   58.52
  -2  -7   1  802.30   60.33
   2   7  -1  749.44   56.85
  -2  -7   1  788.96   53.20
  -2  -7   1  770.28   52.12
   2   7  -1  689.84   55.18
  -2  -7   1  837.56   57.15
   1   7  -1   17.78   23.81
   1   7  -1   -2.42   23.63
  -1  -7   1  -38.32   20.29
   1   7  -1  -11.06   22.06
  -1  -7   1   24.19   24.69
  -1  -7   1    5.52   22.81
  -1  -7   1    9.79   25.26
   0   7  -1  201.14   34.94
   0  -7   1  172.90   32.64
   0   7  -1  193.33   31.31
   0   7  -1  205.08   34.10
   0  -7   1  262.93   35.47
   0  -7   1  223.09   37.23
   0  -7   1  198.98   33.12
  -1   7  -1  129.54   31.64
   1  -7   1  193.41   35.36
  -1   7  -1  129.12   29.68
   1  -7   1  149.73   34.70
   1  -7   1  142.87   33.03
  -1   7  -1   83.16   26.88
   1  -7   1  133.66   30.52
   2  -7   1  343.36   41.89
  -2   7  -1  255.51   40.00
   2  -7   1  224.63   37.88
   2  -7   1  236.78   38.63
  -2   7  -1  209.23   34.67
   3  -7   1  -28.91   24.77
  -3   7  -1   16.09   27.94
  -3   7  -1  -12.17   20.39
   3  -7   1   38.31   27.77
   3  -7   1  -24.83   25.15
   4  -7   1  235.20   41.86
   4  -7   1  206.93   43.08
   4  -7   1  242.84   42.25
  -4   7  -1  291.68   45.41
   6   6  -1    4.43   28.48
  -6  -6   1   24.39   30.61
   6   6  -1   22.47   28.70
  -6  -6   1   37.04   27.82
   6   6  -1   -0.94   28.74
   5   6  -1   30.70   26.23
   5   6  -1   -3.43   25.53
  -5  -6   1   69.14   25.44
  -5  -6   1  -17.58   21.12
   5   6  -1   10.38   25.10
  -5  -6   1   -6.15   26.11
  -5  -6   1    3.99   20.81
   4   6  -1  739.68   54.31
   4   6  -1  798.25   57.70
  -4  -6   1  626.01   49.02
  -4  -6   1  696.47   50.81
   4   6  -1  704.97   52.54
  -4  -6   1  719.39   40.96
   4   6  -1  697.60   55.23
  -4  -6   1  660.83   55.75
  -3  -6   1  188.40   28.21
  -3  -6   1  198.58   29.84
   3   6  -1  224.59   31.63
   3   6  -1  163.94   31.57
   3   6  -1  178.74   30.24
   3   6  -1  169.55   28.70
  -3  -6   1  180.18   27.20
  -3  -6   1  192.34   33.53
  -2  -6   1  291.49   35.85
  -2  -6   1  327.07   32.24
   2   6  -1  298.14   34.06
  -2  -6   1  305.79   33.15
  -2  -6   1  344.66   34.88
   2   6  -1  293.86   35.82
   2   6  -1  316.28   33.05
   2   6  -1  294.74   35.45
   1   6  -1   -1.46   19.88
  -1  -6   1    8.47   19.51
   1   6  -1   21.52   21.75
   1   6  -1   10.79   20.13
  -1  -6   1   40.20   21.56
  -1  -6   1   28.53   20.53
  -1  -6   1  -10.16   18.54
   0   6  -1  916.24   55.03
   0  -6   1  873.25   57.48
   0  -6   1  837.74   58.60
   0  -6   1  950.03   61.43
   0  -6   1  935.74   57.40
   0  -6   1  991.89   58.31
   0   6  -1  985.53   58.30
   0   6  -1  903.64   59.79
  -1   6  -1 1454.33   79.20
   1  -6   1 1487.24   80.60
  -1   6  -1 1584.58   77.33
   1  -6   1 1565.58   80.28
   1  -6   1 1543.52   82.32
   1  -6   1 1486.73   83.16
  -1   6  -1 1304.41   80.43
   1  -6   1 1478.13   81.96
   2  -6   1   69.58   25.80
  -2   6  -1   48.21   27.66
   2  -6   1   39.10   26.39
   2  -6   1   70.74   23.69
   2  -6   1   48.16   26.11
  -3   6  -1  -21.36   22.20
   3  -6   1   12.03   25.01
   3  -6   1  -34.11   18.36
  -3   6  -1  -10.03   24.46
  -3   6  -1   32.81   20.35
   3  -6   1    3.26   25.09
   3  -6   1   -5.54   22.96
  -4   6  -1 1022.02   64.57
  -4   6  -1  996.71   60.09
   4  -6   1  918.98   68.98
   4  -6   1  904.89   67.30
  -4   6  -1  990.67   68.87
   4  -6   1  990.42   67.90
   5  -6   1  102.39   34.11
   5  -6   1  141.39   35.98
  -5   6  -1   45.94   30.41
   5  -6   1  145.28   36.97
  -5   6  -1  114.51   37.18
   7   5  -1  123.35   34.89
  -7  -5   1   84.68   30.22
   7   5  -1  114.82   36.41
  -7  -5   1  158.13   32.22
   7   5  -1   64.01   33.19
  -7  -5   1   89.57   36.89
  -6  -5   1   21.87   29.87
   6   5  -1    2.42   25.42
  -6  -5   1  -14.08   20.60
  -6  -5   1   -4.16   25.54
   6   5  -1   -6.61   24.81
  -6  -5   1   37.23   24.36
   6   5  -1    7.57   24.58
  -5  -5   1  188.24   30.20
   5   5  -1  156.01   32.70
  -5  -5   1  168.44   31.44
   5   5  -1  209.26   31.98
  -5  -5   1  193.23   35.26
   5   5  -1  254.52   34.92
   5   5  -1  202.83   34.19
   5   5  -1  206.72   34.53
  -5  -5   1  166.27   26.76
   4   5  -1  240.84   34.03
   4   5  -1  252.70   34.07
   4   5  -1  267.56   32.28
   4   5  -1  253.48   33.86
  -4  -5   1  185.61   29.09
  -4  -5   1  243.54   30.42
  -4  -5   1  245.46   35.12
   4   5  -1  244.05   31.81
   3   5  -1   60.58   22.59
  -3  -5   1   21.20   21.50
  -3  -5   1   21.27   21.56
  -3  -5   1   48.01   20.53
   3   5  -1   55.07   22.55
   3   5  -1   27.86   18.80
   3   5  -1   57.87   22.71
   3   5  -1   63.93   20.55
  -3  -5   1   31.12   18.19
  -3  -5   1   62.81   18.88
  -2  -5   1   36.18   20.13
   2   5  -1   17.76   17.31
  -2  -5   1   45.56   21.46
   2   5  -1   59.51   18.89
  -2  -5   1   20.35   16.92
   2   5  -1   40.77   20.28
  -2  -5   1   30.58   16.88
   2   5  -1   64.43   20.62
  -2  -5   1   42.58   16.93
   2   5  -1   47.48   20.02
  -1  -5   1 2018.93   98.87
   1   5  -1 2055.83   96.63
   1   5  -1 2086.25  100.33
   1   5  -1 2021.38   98.83
  -1  -5   1 2228.64   98.00
  -1  -5   1 2204.26  101.74
  -1  -5   1 2096.82   96.98
   1   5  -1 2105.47   97.67
  -1  -5   1 2150.04   99.34
   0   5  -1   13.02   15.41
   0  -5   1    8.77   15.61
   0  -5   1   11.18   18.25
   0   5  -1   22.35   17.20
   0  -5   1   13.32   16.98
   0  -5   1   21.39   16.89
   0  -5   1   14.47   16.80
   0   5  -1    4.43   17.05
  -1   5  -1   38.04   18.33
   1  -5   1   -9.83   16.57
   1  -5   1   -9.73   15.09
  -1   5  -1   21.59   19.28
   1  -5   1    9.67   17.98
  -1   5  -1   11.33   16.79
   1  -5   1   18.26   18.19
  -1   5  -1   22.04   16.27
  -2   5  -1  677.04   49.42
  -2   5  -1  639.51   46.88
  -2   5  -1  697.90   48.41
   2  -5   1  762.52   47.46
   2  -5   1  655.55   49.18
   2  -5   1  731.32   50.19
   2  -5   1  629.54   48.65
   3  -5   1 1186.05   73.24
  -3   5  -1 1299.99   71.10
   3  -5   1 1195.45   72.72
   3  -5   1 1254.86   73.06
  -3   5  -1 1197.47   69.75
  -3   5  -1 1370.68   74.56
   3  -5   1 1277.80   69.58
  -4   5  -1   42.62   24.08
   4  -5   1   50.43   23.80
   4  -5   1   -0.95   24.20
  -4   5  -1   20.84   25.90
   4  -5   1   26.56   25.31
   4  -5   1   25.64   26.79
   5  -5   1  287.60   40.36
  -5   5  -1  247.67   34.90
  -5   5  -1  204.36   28.42
   5  -5   1  217.06   37.60
  -5   5  -1  206.40   38.10
   5  -5   1  242.35   39.44
   6  -5   1  299.20   47.29
  -6   5  -1  271.81   38.79
   6  -5   1  222.74   41.76
   6  -5   1  307.37   45.99
   6  -5   1  231.18   43.78
  -6   5  -1  219.21   41.50
   7   4  -1  101.16   34.25
  -7  -4   1  143.27   30.20
  -7  -4   1  136.08   31.91
   7   4  -1  144.96   33.95
   7   4  -1  122.11   34.90
   7   4  -1  206.41   37.54
  -7  -4   1  174.66   38.49
   6   4  -1  205.52   34.87
   6   4  -1  121.48   31.95
   6   4  -1  171.02   32.77
   6   4  -1  167.62   31.73
   6   4  -1  170.49   33.05
  -6  -4   1  112.29   26.58
  -6  -4   1  157.76   24.95
  -6  -4   1  161.46   28.75
  -6  -4   1   91.59   30.84
  -5  -4   1  143.17   26.47
  -5  -4   1  165.03   32.73
   5   4  -1  164.11   31.02
  -5  -4   1  187.68   25.69
   5   4  -1  161.91   31.21
   5   4  -1  178.69   31.53
   5   4  -1  211.84   32.07
   5   4  -1  220.64   33.14
   5   4  -1  170.90   29.22
   4   4  -1   -1.29   17.60
   4   4  -1   -8.56   19.87
   4   4  -1  -17.47   19.38
   4   4  -1    8.81   19.07
  -4  -4   1   17.08   17.43
  -4  -4   1   34.07   22.33
   4   4  -1  -14.17   16.16
  -4  -4   1  -26.32   17.59
  -4  -4   1  -15.84   15.82
  -3  -4   1  182.34   24.61
   3   4  -1  225.20   28.48
   3   4  -1  256.39   26.30
  -3  -4   1  252.14   29.29
  -3  -4   1  233.28   29.08
   3   4  -1  270.00   28.00
   3   4  -1  185.66   26.44
  -3  -4   1  216.16   24.93
  -3  -4   1  225.63   19.29
   3   4  -1  276.69   27.42
   3   4  -1  241.49   26.36
  -3  -4   1  248.40   24.39
  -3  -4   1  225.31   25.07
  -2  -4   1  800.13   48.76
  -2  -4   1  794.94   46.12
  -2  -4   1  781.92   47.04
   2   4  -1  805.90   47.44
  -2  -4   1  784.02   48.29
   2   4  -1  869.97   46.02
  -2  -4   1  782.64   43.89
  -2  -4   1  863.38   46.09
   2   4  -1  863.73   50.04
   2   4  -1  774.77   45.54
   2   4  -1  744.26   45.08
   2   4  -1  793.73   47.90
   2   4  -1  835.87   47.14
   1   4  -1 1359.34   64.47
  -1  -4   1 1212.09   64.58
   1   4  -1 1291.61   66.23
   1   4  -1 1238.51   64.93
   1   4  -1 1365.63   67.17
  -1  -4   1 1328.97   66.31
  -1  -4   1 1264.92   65.18
   1   4  -1 1383.08   66.83
  -1  -4   1 1374.05   64.05
   1   4  -1 1375.19   65.75
   1   4  -1 1258.47   64.04
  -1  -4   1 1330.22   67.42
  -1  -4   1 1428.29   64.65
   0  -4   1    3.74   14.42
   0  -4   1   31.06   15.03
   0   4  -1   34.97   15.66
   0  -4   1   10.27   13.38
   0  -4   1   26.05   15.90
   0  -4   1    2.34   14.45
   0   4  -1   12.49   13.75
   0  -4   1  -15.57   11.72
   0   4  -1   11.11   13.78
   0  -4   1   14.37   14.55
   0   4  -1   -3.89   15.08
   0   4  -1   19.46   14.96
   0   4  -1   31.96   14.55
  -1   4  -1 3024.49  134.00
  -1   4  -1 3023.75  131.08
   1  -4   1 2540.64  132.37
  -1   4  -1 3112.23  127.18
   1  -4   1 2948.82  132.51
  -1   4  -1 3187.54  132.71
   1  -4   1 3235.82  136.01
   1  -4   1 3120.19  132.85
   1  -4   1 3215.43  131.84
   1  -4   1 2983.63  133.57
  -2   4  -1  126.33   21.08
   2  -4   1   85.84   19.33
   2  -4   1   78.49   20.61
  -2   4  -1   66.63   20.50
  -2   4  -1   75.64   17.93
   2  -4   1  114.04   21.68
  -2   4  -1  101.77   20.00
   2  -4   1  107.10   19.45
   2  -4   1   79.41   21.16
  -3   4  -1  258.04   27.39
   3  -4   1  230.15   26.70
   3  -4   1  205.31   30.46
   3  -4   1  243.84   30.24
  -3   4  -1  217.68   29.24
   3  -4   1  211.58   27.64
   3  -4   1  238.29   29.72
  -3   4  -1  201.70   26.46
  -3   4  -1  264.15   31.15
   4  -4   1   30.64   23.09
   4  -4   1  -15.05   19.90
  -4   4  -1   24.76   23.25
  -4   4  -1   -4.32   18.06
   4  -4   1   -5.93   23.73
   4  -4   1  -19.58   16.20
   4  -4   1    9.85   23.11
  -5   4  -1  454.21   41.12
   5  -4   1  510.17   48.72
   5  -4   1  515.52   43.49
   5  -4   1  500.91   47.83
   5  -4   1  446.10   46.35
  -5   4  -1  555.17   47.64
   5  -4   1  438.75   45.79
   6  -4   1   13.28   27.80
   6  -4   1    6.98   26.38
   6  -4   1  -19.42   25.48
  -6   4  -1   -4.04   28.21
  -6   4  -1   21.70   25.62
   6  -4   1   56.49   29.27
  -7  -3   1   10.44   22.48
   7   3  -1   40.14   29.25
   7   3  -1   24.24   27.96
   7   3  -1   32.27   27.06
   7   3  -1   26.46   28.50
  -7  -3   1    3.06   24.41
  -7  -3   1   19.89   30.11
  -6  -3   1  664.30   44.96
  -6  -3   1  679.00   49.39
   6   3  -1  685.35   54.09
   6   3  -1  697.87   56.20
   6   3  -1  669.26   54.77
   6   3  -1  736.91   52.72
   6   3  -1  747.99   55.37
  -6  -3   1  841.06   48.51
  -6  -3   1  757.88   57.18
   5   3  -1  144.33   26.09
  -5  -3   1  158.95   30.09
  -5  -3   1  114.19   21.23
   5   3  -1  128.97   28.23
  -5  -3   1  136.70   23.34
   5   3  -1  173.88   29.21
  -5  -3   1  172.79   26.48
   5   3  -1  130.88   28.78
   5   3  -1  137.68   27.66
   5   3  -1  134.66   27.52
  -4  -3   1  289.21   33.07
  -4  -3   1  312.78   31.54
   4   3  -1  311.23   32.38
   4   3  -1  285.65   30.03
   4   3  -1  310.53   31.68
   4   3  -1  285.76   32.12
  -4  -3   1  333.34   29.51
   4   3  -1  328.81   31.64
   4   3  -1  345.07   32.62
  -4  -3   1  319.03   30.17
  -4  -3   1  376.67   34.77
   4   3  -1  323.43   32.40
  -3  -3   1  750.38   45.94
   3   3  -1  801.08   46.62
  -3  -3   1  799.13   44.56
   3   3  -1  810.00   46.06
   3   3  -1  810.30   44.62
  -3  -3   1  780.03   45.44
  -3  -3   1  809.32   45.79
   3   3  -1  850.48   49.34
   3   3  -1  804.79   46.94
   3   3  -1  726.23   46.92
  -3  -3   1  736.55   47.28
  -3  -3   1  783.16   44.53
   3   3  -1  836.58   46.57
  -2  -3   1 1382.46   66.56
  -2  -3   1 1450.62   68.63
  -2  -3   1 1337.59   66.73
   2   3  -1 1466.85   67.04
  -2  -3   1 1411.95   68.96
   2   3  -1 1464.33   68.04
   2   3  -1 1353.40   68.23
   2   3  -1 1427.25   69.30
  -2  -3   1 1385.58   64.75
  -2  -3   1 1436.61   67.57
   2   3  -1 1437.35   65.82
   2   3  -1 1413.02   67.28
  -2  -3   1 1441.30   66.79
   2   3  -1 1388.66   67.21
  -2  -3   1 1423.94   69.43
   1   3  -1 1648.16   70.13
  -1  -3   1 1525.49   68.99
  -1  -3   1 1463.24   70.81
  -1  -3   1 1549.48   70.30
   1   3  -1 1522.32   70.24
   1   3  -1 1481.88   69.56
  -1  -3   1 1480.28   69.72
   1   3  -1 1502.93   68.03
   1   3  -1 1432.55   68.35
  -1  -3   1 1513.93   68.05
  -1  -3   1 1426.14   68.39
   1   3  -1 1541.14   71.10
  -1  -3   1 1495.76   70.06
   0  -3   1  747.15   41.73
   0  -3   1  787.95   40.88
   0  -3   1  735.26   41.78
   0  -3   1  729.44   40.98
   0   3  -1  763.71   41.80
   0  -3   1  718.89   38.92
   0   3  -1  729.66   38.87
   0   3  -1  768.42   40.64
   0   3  -1  747.50   40.62
   0   3  -1  763.75   39.67
   0   3  -1  791.17   41.67
   0  -3   1  720.02   42.13
   0  -3   1  790.66   41.95
   1  -3   1 6494.30  252.12
   1  -3   1 5825.42  250.30
   1  -3   1 6399.28  249.74
  -1   3  -1 6281.71  251.29
  -1   3  -1 6273.93  249.37
  -1   3  -1 6122.81  248.81
   1  -3   1 6048.99  249.98
   1  -3   1 6127.78  248.87
  -1   3  -1 6158.20  249.48
  -1   3  -1 5937.80  234.82
   1  -3   1 6061.48  249.96
  -2   3  -1  580.84   38.81
  -2   3  -1  658.36   38.21
  -2   3  -1  612.83   37.81
  -2   3  -1  648.69   37.05
  -2   3  -1  583.24   35.17
   2  -3   1  679.87   38.88
   2  -3   1  625.88   41.28
  -2   3  -1  627.12   37.94
   2  -3   1  563.47   39.43
   2  -3   1  592.74   38.47
   2  -3   1  644.53   36.72
   2  -3   1  609.62   38.73
   3  -3   1   57.64   19.51
   3  -3   1   65.22   18.08
   3  -3   1   38.40   14.54
   3  -3   1   22.12   17.01
  -3   3  -1   69.66   16.31
  -3   3  -1   58.78   14.14
   3  -3   1   17.91   16.20
  -3   3  -1   27.46   15.13
   3  -3   1   29.34   15.21
  -3   3  -1   40.28   16.55
  -3   3  -1   22.39   17.98
  -4   3  -1  379.11   31.76
   4  -3   1  336.19   35.23
   4  -3   1  317.90   34.14
  -4   3  -1  280.24   29.88
   4  -3   1  384.45   33.21
   4  -3   1  284.07   34.03
  -4   3  -1  263.96   32.81
  -4   3  -1  331.76   26.30
   4  -3   1  328.19   30.82
   4  -3   1  304.91   34.10
   5  -3   1  687.75   52.48
  -5   3  -1  651.47   46.47
   5  -3   1  803.34   50.33
   5  -3   1  712.02   54.24
  -5   3  -1  650.40   40.65
  -5   3  -1  759.77   51.95
   5  -3   1  712.80   52.68
   5  -3   1  694.59   52.79
   6  -3   1  252.56   31.01
  -6   3  -1  279.02   33.06
   6  -3   1  206.67   35.22
   6  -3   1  181.73   36.45
   6  -3   1  304.79   38.27
   6  -3   1  249.65   36.76
  -6   3  -1  201.93   34.37
   6  -3   1  225.88   33.14
   7  -3   1   35.64   29.39
   7  -3   1   26.21   28.07
  -7   3  -1  -33.38   27.35
   7  -3   1   -6.35   28.58
   7  -3   1  -57.58   25.44
   7   2  -1   80.93   31.02
   7   2  -1   73.88   19.68
   7   2  -1   62.26   31.29
   7   2  -1   55.72   30.24
  -7  -2   1   42.89   31.47
   7   2  -1   57.09   29.04
  -7  -2   1   88.92   27.15
   6   2  -1   76.67   26.71
  -6  -2   1   81.24   29.19
   6   2  -1   92.71   28.80
   6   2  -1   99.48   18.57
   6   2  -1   50.57   26.85
   6   2  -1   64.15   27.73
  -6  -2   1  111.66   21.36
  -6  -2   1   59.63   21.16
   6   2  -1   90.87   26.63
  -6  -2   1   63.66   24.81
   5   2  -1   30.73   14.37
   5   2  -1    2.60   20.76
   5   2  -1   46.57   22.73
  -5  -2   1   32.13   16.73
   5   2  -1   41.45   21.00
   5   2  -1   22.64   19.49
  -5  -2   1   28.51   24.06
  -5  -2   1   53.81   20.22
   5   2  -1   18.74   18.62
   5   2  -1   10.96   22.89
  -5  -2   1   14.45   15.56
   4   2  -1 1878.18   94.47
  -4  -2   1 1968.87   96.21
  -4  -2   1 2046.21   92.64
  -4  -2   1 2066.43   94.34
  -4  -2   1 2004.20   90.57
   4   2  -1 2166.53   95.35
   4   2  -1 2078.84   93.17
   4   2  -1 1955.14   94.31
   4   2  -1 1941.79   86.75
   4   2  -1 2115.43   97.25
   4   2  -1 1996.89   96.36
   4   2  -1 1973.54   95.15
   3   2  -1  126.66   19.27
   3   2  -1  103.09   18.10
  -3  -2   1  109.19   18.57
   3   2  -1  111.46   16.71
  -3  -2   1   83.87   17.04
   3   2  -1  131.99   18.97
  -3  -2   1   97.27   18.75
  -3  -2   1  124.72   18.56
  -3  -2   1  123.32   18.03
   3   2  -1   86.11   18.81
  -3  -2   1   90.07   16.14
   3   2  -1   93.65   12.41
  -3  -2   1  117.21   11.76
   3   2  -1  112.89   17.69
   3   2  -1   96.82   19.44
  -3  -2   1  123.16   20.58
   3   2  -1   96.49   17.67
   2   2  -1  264.18   23.38
  -2  -2   1  218.88   21.00
  -2  -2   1  213.19   21.01
   2   2  -1  258.66   19.97
   2   2  -1  255.43   21.86
   2   2  -1  237.66   22.32
   2   2  -1  280.05   22.01
   2   2  -1  205.70   20.73
  -2  -2   1  250.01   20.85
  -2  -2   1  264.58   20.67
  -2  -2   1  224.28   22.61
  -2  -2   1  205.69   16.47
   2   2  -1  239.07   21.57
  -2  -2   1  223.27   20.68
  -2  -2   1  228.51   19.40
  -2  -2   1  244.45   21.28
   2   2  -1  273.23   22.25
  -1  -2   1 1212.91   57.35
  -1  -2   1 1275.88   55.72
  -1  -2   1 1271.98   57.25
   1   2  -1 1234.33   57.56
  -1  -2   1 1212.49   57.53
  -1  -2   1 1242.00   58.28
   1   2  -1 1230.16   56.96
   1   2  -1 1292.19   58.42
   1   2  -1 1344.78   56.92
  -1  -2   1 1204.93   56.70
   1   2  -1 1289.70   55.92
  -1  -2   1 1272.67   56.63
   1   2  -1 1246.56   57.71
   1   2  -1 1154.05   56.38
   0  -2   1 3046.72  122.16
   0  -2   1 3039.38  122.40
   0  -2   1 2891.62  122.75
   0   2  -1 2768.43  121.59
   0  -2   1 2944.39  122.11
   0   2  -1 3051.81  121.91
   0   2  -1 2992.42  122.82
   0  -2   1 2975.16  122.95
   0   2  -1 2980.26  121.73
   0  -2   1 2978.71  122.28
   0   2  -1 2936.33  122.51
   0  -2   1 2897.10  125.31
  -1   2  -1 1710.69   72.93
  -1   2  -1 1670.80   74.04
  -1   2  -1 1651.87   73.25
  -1   2  -1 1667.20   71.82
   1  -2   1 1801.90   75.24
  -1   2  -1 1681.14   70.66
   1  -2   1 1717.09   72.99
  -1   2  -1 1577.75   70.78
   1  -2   1 1649.49   71.85
   1  -2   1 1702.23   73.81
   1  -2   1 1603.51   73.60
   1  -2   1 1665.68   73.18
  -2   2  -1   10.92   11.01
   2  -2   1   27.74   13.25
   2  -2   1   16.26   11.76
  -2   2  -1   18.49   12.87
  -2   2  -1   27.44   13.44
   2  -2   1   10.08   12.22
   2  -2   1   34.49   11.02
   2  -2   1   19.34   10.72
   2  -2   1   22.33   12.17
  -2   2  -1   27.59   12.19
   2  -2   1   19.92   12.31
  -2   2  -1    1.45   10.21
  -2   2  -1   20.14    9.17
  -2   2  -1   29.55   10.95
  -3   2  -1  211.77   20.82
  -3   2  -1  199.61   21.97
   3  -2   1  235.93   24.75
   3  -2   1  205.71   20.24
   3  -2   1  155.99   22.21
   3  -2   1  243.77   24.46
  -3   2  -1  194.84   21.55
  -3   2  -1  207.87   17.58
   3  -2   1  214.48   23.04
   3  -2   1  223.45   22.10
   3  -2   1  186.06   22.79
  -3   2  -1  195.34   23.05
  -4   2  -1 2052.24   93.79
   4  -2   1 2097.57   96.91
   4  -2   1 2073.92   94.62
   4  -2   1 2044.32   97.69
  -4   2  -1 2020.69   88.44
   4  -2   1 1976.86   96.17
  -4   2  -1 1978.30   95.50
   4  -2   1 2114.84   96.17
   4  -2   1 2142.20   94.25
  -4   2  -1 2085.06   92.85
   5  -2   1  139.07   25.76
  -5   2  -1  140.37   17.98
  -5   2  -1  176.59   29.19
  -5   2  -1  154.73   24.09
   5  -2   1  153.04   25.25
   5  -2   1  163.23   28.70
   5  -2   1  133.23   26.80
   5  -2   1  166.89   29.07
  -5   2  -1  162.88   23.81
   5  -2   1  194.60   30.06
   5  -2   1  171.22   24.26
   6  -2   1   16.92   22.33
   6  -2   1   79.67   27.55
   6  -2   1   29.05   20.05
  -6   2  -1   27.60   19.62
   6  -2   1   50.84   27.14
  -6   2  -1   42.17   24.33
  -6   2  -1   30.01   20.19
   6  -2   1   50.11   22.36
   6  -2   1   58.93   25.80
   7  -2   1   37.49   27.25
   7  -2   1   62.70   30.71
  -7   2  -1    3.36   24.98
   7  -2   1   42.83   26.67
  -7   2  -1   43.57   23.91
   7  -2   1   33.87   27.97
   7   1  -1   60.31   22.37
   7   1  -1   96.46   33.40
  -7  -1   1   64.74   26.30
  -7  -1   1  121.21   35.34
   7   1  -1  113.45   33.36
   7   1  -1   60.74   29.18
   7   1  -1   91.46   30.94
   6   1  -1   35.41   25.79
   6   1  -1   62.80   24.76
  -6  -1   1   55.69   28.24
   6   1  -1   28.49   26.34
   6   1  -1   60.40   24.95
   6   1  -1    8.04   24.09
  -6  -1   1   13.91   19.15
   6   1  -1   22.08   18.26
  -6  -1   1   13.90   21.21
   5   1  -1  413.09   39.30
   5   1  -1  441.21   34.27
  -5  -1   1  321.50   29.25
   5   1  -1  326.29   28.51
   5   1  -1  312.26   34.40
   5   1  -1  254.68   34.06
   5   1  -1  349.22   36.21
  -5  -1   1  262.65   36.42
   5   1  -1  321.61   33.82
  -5  -1   1  366.53   32.74
  -4  -1   1  286.01   21.62
   4   1  -1  267.35   28.46
   4   1  -1  286.74   27.48
   4   1  -1  308.92   26.52
  -4  -1   1  259.29   30.06
   4   1  -1  304.07   29.14
   4   1  -1  314.71   30.60
  -4  -1   1  281.44   27.45
   4   1  -1  270.05   23.00
   4   1  -1  284.79   29.78
  -4  -1   1  289.61   26.98
   4   1  -1  303.14   27.89
  -3  -1   1  388.68   27.10
  -3  -1   1  359.12   22.66
  -3  -1   1  364.01   28.13
   3   1  -1  358.42   31.26
  -3  -1   1  400.88   28.12
   3   1  -1  393.43   29.35
   3   1  -1  433.15   29.32
   3   1  -1  369.29   23.92
  -3  -1   1  413.63   30.46
   3   1  -1  425.45   31.27
   3   1  -1  388.49   28.38
   3   1  -1  359.34   26.77
   3   1  -1  434.48   26.87
   3   1  -1  350.74   28.45
  -3  -1   1  385.65   31.01
   2   1  -1   41.40   11.07
  -2  -1   1   27.73    8.36
  -2  -1   1    9.95   11.12
   2   1  -1    5.86   10.26
  -2  -1   1   19.85   10.27
  -2  -1   1    5.97    9.67
  -2  -1   1    2.07   11.85
  -2  -1   1   11.47    9.65
   2   1  -1   -5.65    9.25
   2   1  -1   19.18    9.93
  -2  -1   1   16.49   10.74
   2   1  -1    2.62   11.85
   2   1  -1   20.67    8.53
   2   1  -1   32.42   12.65
   2   1  -1   32.60   11.29
   2   1  -1   21.90   11.93
  -2  -1   1   17.09   11.03
  -2  -1   1   22.35    9.42
   1   1  -1 1285.02   54.08
   1   1  -1 1270.85   56.18
   1   1  -1 1350.51   54.90
  -1  -1   1 1260.03   55.60
  -1  -1   1 1297.85   56.41
  -1  -1   1 1302.94   55.30
  -1  -1   1 1218.93   54.91
  -1  -1   1 1130.65   53.90
   1   1  -1 1190.38   55.83
  -1  -1   1 1283.32   54.63
  -1  -1   1 1205.25   55.89
  -1  -1   1 1358.66   55.66
   1   1  -1 1253.27   55.23
  -1  -1   1 1257.80   53.97
   1   1  -1 1187.34   54.86
   1   1  -1 1240.25   55.76
   0  -1   1  397.93   19.89
   0   1  -1  413.37   19.44
   0  -1   1  385.21   19.26
   0   1  -1  390.22   19.82
   0  -1   1  368.28   20.39
   0   1  -1  299.38   18.95
   0   1  -1  406.33   18.86
   0  -1   1  372.73   18.95
   0  -1   1  409.69   20.36
   0   1  -1  412.53   21.30
   0  -1   1  350.69   18.83
   1  -1   1  677.71   31.59
   1  -1   1  659.23   31.94
  -1   1  -1  681.08   31.53
  -1   1  -1  693.75   32.43
   1  -1   1  720.52   31.68
   1  -1   1  700.21   32.55
   1  -1   1  659.16   32.08
  -1   1  -1  645.80   29.79
  -1   1  -1  724.95   32.63
   1  -1   1  758.81   33.03
  -1   1  -1  652.81   30.40
  -1   1  -1  707.22   31.90
   2  -1   1  781.79   38.75
  -2   1  -1  807.68   38.20
   2  -1   1  739.49   37.86
   2  -1   1  708.15   38.13
  -2   1  -1  769.00   35.22
   2  -1   1  788.44   39.11
  -2   1  -1  808.68   38.23
   2  -1   1  821.47   38.11
  -2   1  -1  803.33   39.34
   2  -1   1  766.52   36.70
   2  -1   1  823.88   40.03
  -3   1  -1 1289.81   58.59
  -3   1  -1 1219.63   56.41
   3  -1   1 1219.38   58.47
  -3   1  -1 1248.35   53.62
  -3   1  -1 1199.72   58.79
   3  -1   1 1267.93   56.62
  -3   1  -1 1235.87   54.00
   3  -1   1 1317.17   58.72
   3  -1   1 1229.95   60.57
   3  -1   1 1178.28   58.06
  -3   1  -1 1219.64   57.23
   3  -1   1 1134.06   58.64
   3  -1   1 1315.73   60.62
  -4   1  -1   78.30   12.31
  -4   1  -1   71.45   17.65
  -4   1  -1   57.60   15.28
  -4   1  -1   61.76   15.29
   4  -1   1   72.46   15.73
   4  -1   1   90.96   17.17
   4  -1   1   59.47   17.31
   4  -1   1   88.23   19.61
   4  -1   1   37.00   17.38
   4  -1   1   76.52   18.39
   4  -1   1   91.73   17.34
   4  -1   1   54.35   18.19
  -5   1  -1   -8.86   14.50
   5  -1   1   24.91   15.81
  -5   1  -1    5.85   15.70
   5  -1   1   -8.13   16.35
   5  -1   1  -15.78   17.85
   5  -1   1   -5.71   16.44
   5  -1   1  -13.11   18.54
   5  -1   1   -4.92   14.55
  -5   1  -1  -34.24   17.88
   5  -1   1  -25.53   16.02
  -6   1  -1 1116.25   59.35
   6  -1   1 1121.64   64.87
  -6   1  -1 1066.16   61.60
   6  -1   1 1123.27   59.76
  -6   1  -1  972.31   61.56
   6  -1   1 1072.77   64.14
   6  -1   1 1068.12   66.19
   6  -1   1 1021.18   66.44
   6  -1   1 1069.22   61.83
   6  -1   1  999.37   66.16
   7  -1   1   -4.74   23.99
   7  -1   1  -27.99   20.69
   7  -1   1    3.84   24.94
  -7   1  -1    1.95   23.74
   7  -1   1    1.34   20.90
  -7   1  -1   -2.85   20.62
   7   0  -1  316.05   43.13
  -7   0   1  384.80   46.74
   7   0  -1  260.20   33.23
   7   0  -1  359.52   44.24
   7   0  -1  293.71   41.74
  -7   0   1  171.12   33.45
   7   0  -1  354.95   42.59
  -6   0   1  -40.36   24.72
   6   0  -1   -3.86   21.27
  -6   0   1   10.19   18.44
  -6   0   1    8.63   21.48
   6   0  -1    7.18   19.99
   6   0  -1   15.42   26.27
   6   0  -1   23.74   24.35
   6   0  -1  -14.53   21.50
   6   0  -1  -17.92   22.15
   5   0  -1  351.27   38.07
   5   0  -1  385.51   39.14
  -5   0   1  366.97   31.10
  -5   0   1  416.93   39.95
   5   0  -1  484.18   42.32
   5   0  -1  405.98   38.06
   5   0  -1  447.58   39.63
  -5   0   1  414.68   35.77
   5   0  -1  399.57   35.53
   5   0  -1  377.86   33.38
  -4   0   1  166.31   21.82
   4   0  -1  183.16   22.17
   4   0  -1  164.60   22.74
   4   0  -1  132.76   22.29
   4   0  -1  166.04   24.76
  -4   0   1  209.38   24.03
  -4   0   1  199.59   27.09
   4   0  -1  145.30   23.00
   4   0  -1  128.74   19.88
   4   0  -1  152.93   23.35
   4   0  -1  158.96   23.72
  -3   0   1  146.06   21.70
   3   0  -1  140.45   20.58
   3   0  -1  165.51   22.10
   3   0  -1  171.58   21.79
  -3   0   1  172.51   19.94
  -3   0   1  164.81   19.28
   3   0  -1  175.14   20.67
   3   0  -1  199.58   20.44
   3   0  -1  179.66   18.71
   3   0  -1  145.66   21.00
   3   0  -1  184.10   19.19
  -3   0   1  171.41   19.63
   3   0  -1  149.80   19.37
  -3   0   1  156.55   21.22
   2   0  -1  651.45   34.17
   2   0  -1  597.10   32.48
   2   0  -1  599.06   35.99
  -2   0   1  618.87   35.35
  -2   0   1  630.89   36.63
   2   0  -1  693.09   35.72
  -2   0   1  660.93   34.77
  -2   0   1  669.61   32.42
  -2   0   1  705.59   35.07
   2   0  -1  611.21   34.29
   2   0  -1  610.50   34.80
  -2   0   1  633.21   33.48
   2   0  -1  594.50   32.75
   2   0  -1  631.27   35.99
   2   0  -1  654.37   32.73
  -1   0   1 2522.64  104.64
   1   0  -1 2605.04  104.63
   1   0  -1 2489.17  105.21
  -1   0   1 2585.05  103.83
  -1   0   1 2435.95  105.28
  -1   0   1 2478.63  106.19
   1   0  -1 2569.26  104.91
   1   0  -1 2552.64  105.50
   1   0  -1 2600.31  103.55
   1   0  -1 2502.23  104.24
  -1   0   1 2493.17  104.48
  -1   0   1 2591.58  103.65
   1   0  -1 2586.99  106.44
  -1   0   1 2571.66  104.38
  -1   0   1 2561.57  105.23
   1   0  -1 2620.63  103.69
   1   0  -1 2546.81  105.04
   0   0  -1   -7.04    1.62
   0   0   1   -6.38    1.18
   0   0  -1   -6.42    2.35
   0   0  -1   -4.45    1.64
   0   0  -1   -2.23    2.31
   0   0  -1   -4.81    1.14
   0   0   1   -6.86    1.82
   0   0   1   -4.86    1.63
   1   0   1  788.50   37.04
   2   0   1  130.80   14.78
  -2   0  -1  123.22   11.10
   2   0   1  128.89   13.32
   2   0   1   87.72   10.99
  -2   0  -1  109.00   11.85
   2   0   1  122.02   12.48
   2   0   1  135.57   10.50
  -2   0  -1  135.64   11.84
   2   0   1  119.10   11.63
   2   0   1  128.82   12.77
  -3   0  -1  709.29   36.36
  -3   0  -1  732.73   37.15
   3   0   1  693.92   36.77
   3   0   1  750.31   37.28
   3   0   1  723.52   35.50
  -3   0  -1  740.34   36.90
   3   0   1  692.58   37.66
   3   0   1  753.73   39.41
   3   0   1  693.07   38.35
   3   0   1  726.97   39.17
   4   0   1  308.40   26.80
   4   0   1  371.56   30.56
   4   0   1  333.51   27.73
   4   0   1  400.88   27.58
   4   0   1  341.18   26.89
  -4   0  -1  331.22   26.17
   4   0   1  333.23   28.38
   4   0   1  370.26   25.59
  -4   0  -1  358.69   27.88
  -5   0  -1  105.26   21.73
   5   0   1  130.69   20.72
   5   0   1  147.76   20.21
   5   0   1  107.27   21.40
   5   0   1  110.06   21.96
  -5   0  -1  138.93   20.99
  -5   0  -1   87.61   17.97
   5   0   1  102.69   22.45
   5   0   1   83.45   17.73
   6   0   1   86.28   22.98
  -6   0  -1   79.12   24.64
  -6   0  -1   99.82   21.75
   6   0   1   67.72   24.68
   6   0   1   79.88   23.63
   6   0   1   96.52   27.09
   6   0   1  125.76   21.89
   6   0   1   61.25   24.76
  -6   0  -1   73.77   20.10
  -7   0  -1  151.30   29.32
   7   0   1  110.45   32.52
  -7   0  -1  115.10   24.38
   7   0   1  169.42   30.48
   7   0   1  145.80   32.08
   7   0   1  133.17   30.51
   7   0   1  161.14   29.63
   8   0   1   28.93   29.75
   8   0   1  -10.21   23.74
   8   0   1   -4.74   24.89
  -8   0  -1   51.64   27.35
   8   0   1  -14.93   29.90
   8   0   1    3.93   30.64
   7  -1  -1  120.23   35.92
   7  -1  -1  136.10   31.47
   7  -1  -1  133.24   35.34
  -7   1   1   72.74   34.09
   7  -1  -1  197.10   36.43
  -7   1   1  143.83   31.60
   7  -1  -1  127.67   35.57
   7  -1  -1  150.38   29.93
   6  -1  -1  236.66   34.55
   6  -1  -1  211.30   35.72
   6  -1  -1  211.09   33.65
  -6   1   1  197.67   28.04
   6  -1  -1  251.58   36.91
   6  -1  -1  204.99   31.90
  -6   1   1  253.42   38.85
  -6   1   1  211.96   31.42
   6  -1  -1  187.41   29.76
   5  -1  -1   55.36   25.87
  -5   1   1   44.77   21.66
   5  -1  -1   26.34   22.47
   5  -1  -1   73.42   23.11
  -5   1   1   60.42   26.88
  -5   1   1   77.30   19.51
   5  -1  -1   98.96   25.99
   5  -1  -1   70.25   21.42
   4  -1  -1  235.44   29.99
  -4   1   1  282.66   32.13
  -4   1   1  272.26   28.57
  -4   1   1  249.36   26.70
   4  -1  -1  282.18   26.93
   4  -1  -1  279.20   30.75
   4  -1  -1  281.27   29.47
   4  -1  -1  326.79   29.17
   4  -1  -1  299.14   28.55
   3  -1  -1 1254.94   59.01
  -3   1   1 1215.86   64.04
   3  -1  -1 1192.30   64.13
  -3   1   1 1275.28   60.19
   3  -1  -1 1295.09   61.08
  -3   1   1 1219.19   61.17
   3  -1  -1 1184.17   61.64
   3  -1  -1 1210.03   61.49
  -3   1   1 1331.40   64.01
   3  -1  -1 1042.21   61.43
  -3   1   1 1201.40   59.68
   2  -1  -1 2202.01   91.91
  -2   1   1 2213.46   93.44
  -2   1   1 2036.19   95.57
   2  -1  -1 2004.28   94.74
   2  -1  -1 2206.78   95.98
   2  -1  -1 2158.42   93.81
  -2   1   1 2068.76   93.26
  -2   1   1 2062.64   91.44
   2  -1  -1 2277.00   94.97
   2  -1  -1 2209.96   93.66
  -2   1   1 2268.48   95.18
  -2   1   1 2207.29   92.93
   1  -1  -1  212.70   17.73
  -1   1   1  213.09   17.31
  -1   1   1  203.54   15.03
  -1   1   1  202.08   17.65
   1  -1  -1  215.05   15.13
   1  -1  -1  194.14   16.68
   1  -1  -1  190.15   13.84
   1  -1  -1  203.76   17.49
  -1   1   1  181.10   15.84
   1  -1  -1  212.92   16.05
   1  -1  -1  185.51   17.31
  -1   1   1  202.25   17.96
  -1   1   1  230.13   17.07
   1   1   1 3049.45  123.82
   1   1   1 3150.23  123.93
   1   1   1 3161.86  123.51
  -1  -1  -1 3101.56  126.75
  -1  -1  -1 3149.55  124.41
   1   1   1 3087.41  129.85
  -1  -1  -1 3056.35  125.75
   1   1   1 3139.71  126.35
   1   1   1 3123.49  127.44
  -1  -1  -1 3049.59  130.06
   1   1   1 3182.26  124.40
  -1  -1  -1 2758.36  126.70
   2   1   1 1597.68   73.99
   2   1   1 1700.64   68.95
   2   1   1 1720.22   70.38
  -2  -1  -1 1600.08   69.06
  -2  -1  -1 1674.15   68.92
   2   1   1 1638.28   68.21
   2   1   1 1672.69   69.92
   2   1   1 1801.66   69.66
  -2  -1  -1 1616.07   74.28
   2   1   1 1646.05   74.78
   2   1   1 1673.08   70.03
  -2  -1  -1 1628.28   68.63
   3   1   1  231.27   19.88
   3   1   1  222.69   19.21
  -3  -1  -1  208.90   18.19
  -3  -1  -1  209.08   17.75
   3   1   1  248.43   19.21
  -3  -1  -1  212.73   17.36
   3   1   1  181.77   15.95
   3   1   1  254.42   21.40
  -3  -1  -1  227.34   20.41
   3   1   1  229.56   19.40
   3   1   1  229.25   17.84
   3   1   1  277.31   24.78
   4   1   1  115.44   15.76
   4   1   1  134.33   17.78
   4   1   1  139.45   22.92
   4   1   1   93.96   17.66
  -4  -1  -1  119.94   18.61
   4   1   1   76.91   17.23
   4   1   1   92.44   17.89
  -4  -1  -1   90.61   16.59
   4   1   1  120.49   19.10
  -4  -1  -1  130.55   17.35
  -4  -1  -1   99.48   16.07
   4   1   1  107.27   17.40
  -5  -1  -1  905.44   48.33
  -5  -1  -1 1029.51   55.56
   5   1   1 1016.97   54.02
   5   1   1  868.96   53.54
  -5  -1  -1  851.52   50.64
   5   1   1  857.24   53.19
   5   1   1 1001.89   51.41
   5   1   1  920.48   52.72
  -5  -1  -1  986.14   50.20
   5   1   1  943.08   58.58
   6   1   1  268.33   33.94
   6   1   1  298.89   38.31
  -6  -1  -1  264.11   31.56
   6   1   1  310.06   33.92
   6   1   1  277.09   31.29
   6   1   1  227.95   31.66
   6   1   1  274.45   34.82
  -6  -1  -1  339.48   30.51
  -6  -1  -1  271.45   27.78
   7   1   1  -18.64   23.14
  -7  -1  -1   36.16   24.46
   7   1   1    7.89   21.54
   7   1   1    5.30   20.64
   7   1   1   26.04   28.03
   7   1   1   43.95   19.84
   7   1   1   80.31   26.58
  -7  -1  -1   40.03   23.02
   8   1   1   73.54   23.07
   8   1   1   82.11   29.46
   8   1   1   84.19   33.13
  -8  -1  -1  106.22   29.09
   8   1   1   81.78   29.86
   8   1   1   38.76   31.82
   7  -2  -1    9.38   28.96
   7  -2  -1   38.24   29.18
   7  -2  -1   -8.00   26.41
   7  -2  -1    5.61   27.41
   7  -2  -1   21.48   25.57
  -7   2   1    8.84   25.34
  -7   2   1   34.81   31.83
  -6   2   1  563.79   46.26
   6  -2  -1  606.32   46.72
  -6   2   1  510.71   42.12
   6  -2  -1  475.84   47.42
  -6   2   1  582.45   54.03
   6  -2  -1  532.09   51.44
   6  -2  -1  592.38   49.66
   6  -2  -1  575.51   52.15
   6  -2  -1  635.96   53.14
  -5   2   1  115.10   25.68
   5  -2  -1  154.21   26.66
   5  -2  -1  130.26   29.83
   5  -2  -1   84.51   27.47
  -5   2   1  122.54   30.94
  -5   2   1   76.41   22.10
   5  -2  -1   92.36   24.37
   5  -2  -1   63.74   25.77
   4  -2  -1 1619.52   79.40
  -4   2   1 1666.82   85.80
   4  -2  -1 1628.38   83.88
  -4   2   1 1775.82   81.45
   4  -2  -1 1579.12   83.17
   4  -2  -1 1655.25   85.33
   4  -2  -1 1519.75   76.55
   3  -2  -1  303.05   30.08
   3  -2  -1  394.74   31.36
  -3   2   1  249.96   30.07
  -3   2   1  310.79   27.83
  -3   2   1  306.63   28.23
   3  -2  -1  332.41   31.54
   3  -2  -1  354.79   29.00
  -3   2   1  280.64   26.75
   3  -2  -1  337.96   26.56
   3  -2  -1  302.55   26.47
   3  -2  -1  273.89   29.62
   2  -2  -1  441.23   27.45
   2  -2  -1  374.23   29.59
  -2   2   1  438.68   30.61
  -2   2   1  409.73   28.15
  -2   2   1  363.07   25.67
   2  -2  -1  390.93   31.30
  -2   2   1  388.71   30.98
   2  -2  -1  388.72   27.79
   2  -2  -1  404.25   28.98
   2  -2  -1  417.50   26.67
   2  -2  -1  380.07   29.99
  -2   2   1  426.50   31.47
  -2   2   1  432.74   30.04
   1  -2  -1  334.79   25.64
   1  -2  -1  359.58   24.20
  -1   2   1  377.56   23.16
   1  -2  -1  394.37   26.02
   1  -2  -1  389.15   25.08
  -1   2   1  366.54   25.59
   1  -2  -1  382.10   27.69
  -1   2   1  394.43   25.91
  -1   2   1  370.13   25.51
  -1   2   1  366.90   26.69
   1  -2  -1  357.93   22.92
  -1   2   1  385.64   22.75
  -1   2   1  355.04   23.91
   0   2   1 3300.72  129.36
   0  -2  -1 3223.79  128.28
   0   2   1 3288.01  129.85
   0   2   1 3214.14  128.71
   0  -2  -1 3016.41  128.94
   0   2   1 2919.26  129.78
   0  -2  -1 3058.62  129.03
   0   2   1 3289.87  129.53
   0  -2  -1 3176.93  129.97
   0   2   1 3027.72  128.39
   0  -2  -1 3199.39  127.96
  -1  -2  -1   46.46    9.31
  -1  -2  -1   30.07    9.53
  -1  -2  -1   43.36    8.75
   1   2   1   41.28   10.82
   1   2   1   30.14    6.04
  -1  -2  -1   26.05    7.31
  -1  -2  -1   32.43    7.65
  -1  -2  -1   28.81    5.76
   1   2   1   20.00    8.94
   1   2   1   30.87   10.02
   1   2   1   25.53    9.08
   1   2   1   27.33    8.13
  -1  -2  -1   21.54   10.15
   1   2   1   22.24    8.26
  -1  -2  -1   39.31    9.23
   1   2   1   22.59    8.92
  -2  -2  -1   18.52    6.51
  -2  -2  -1   29.88    9.48
   2   2   1   17.06   10.05
   2   2   1   10.94    9.20
  -2  -2  -1   27.97    6.57
   2   2   1   17.90    8.17
   2   2   1   40.61   12.02
   2   2   1   25.82   10.02
  -2  -2  -1   37.04    9.35
  -2  -2  -1    9.99   10.70
   2   2   1   20.67    8.86
   2   2   1   33.95   10.40
   3   2   1  249.71   21.86
   3   2   1  274.55   21.94
  -3  -2  -1  304.44   26.66
  -3  -2  -1  287.87   21.41
  -3  -2  -1  289.80   23.74
   3   2   1  273.44   21.14
   3   2   1  258.90   25.50
  -3  -2  -1  296.60   20.62
   3   2   1  287.47   23.19
   3   2   1  301.12   22.01
  -3  -2  -1  224.48   20.36
   3   2   1  283.71   19.75
   3   2   1  296.03   22.41
   4   2   1 2621.34  116.49
   4   2   1 2682.81  117.43
   4   2   1 2697.67  116.56
  -4  -2  -1 2685.58  119.77
   4   2   1 2580.33  121.71
  -4  -2  -1 2721.10  112.78
  -4  -2  -1 2643.95  113.18
   4   2   1 2762.81  115.62
   4   2   1 2742.50  119.36
   4   2   1 2552.30  115.02
  -4  -2  -1 2609.44  114.34
   4   2   1 2751.97  114.07
   5   2   1   73.16   20.18
  -5  -2  -1   34.09   15.44
  -5  -2  -1   43.73   18.38
  -5  -2  -1   68.63   16.40
   5   2   1   22.79   19.00
   5   2   1   50.59   19.78
  -5  -2  -1   48.16   19.85
   5   2   1   32.57   17.43
   5   2   1   36.76   16.16
   5   2   1    6.97   17.84
   5   2   1   21.71   18.76
  -6  -2  -1  324.51   33.54
   6   2   1  336.35   36.03
   6   2   1  318.24   32.83
   6   2   1  304.66   35.03
   6   2   1  293.58   24.10
  -6  -2  -1  371.06   36.72
  -6  -2  -1  348.30   30.55
   6   2   1  340.73   39.83
   6   2   1  307.53   35.14
   6   2   1  379.32   38.57
   6   2   1  431.70   41.29
  -6  -2  -1  360.36   32.01
   7   2   1   19.17   26.71
   7   2   1  -13.94   20.77
   7   2   1   22.57   25.59
  -7  -2  -1  -22.21   21.07
   7   2   1  -14.06   20.01
   7   2   1   -6.80   13.04
  -7  -2  -1    6.24   20.94
   7   2   1   10.15   23.56
  -8  -2  -1  128.78   29.47
   8   2   1   77.39   30.61
   8   2   1  184.69   39.86
   8   2   1  170.16   34.23
   8   2   1  110.63   36.25
   6  -3  -1  319.84   44.34
  -6   3   1  374.17   46.07
   6  -3  -1  449.80   47.73
   6  -3  -1  417.97   46.31
   6  -3  -1  318.71   40.69
  -6   3   1  343.33   37.01
   6  -3  -1  359.22   45.27
  -6   3   1  381.76   41.43
  -5   3   1  262.80   30.50
   5  -3  -1  215.58   31.83
   5  -3  -1  227.25   35.68
   5  -3  -1  170.11   29.74
   5  -3  -1  218.74   36.50
  -5   3   1  209.56   31.37
   5  -3  -1  162.15   33.29
  -5   3   1  232.41   38.53
   4  -3  -1  380.26   37.63
   4  -3  -1  323.79   37.48
   4  -3  -1  381.41   33.73
  -4   3   1  369.10   40.40
  -4   3   1  382.95   34.25
   4  -3  -1  326.12   34.31
   4  -3  -1  272.55   35.66
   3  -3  -1  382.69   30.37
  -3   3   1  331.53   31.82
   3  -3  -1  325.99   33.15
   3  -3  -1  323.19   33.90
   3  -3  -1  400.60   32.76
  -3   3   1  356.59   29.60
  -3   3   1  345.44   34.95
   3  -3  -1  327.52   32.16
   3  -3  -1  355.93   31.04
  -3   3   1  366.76   31.35
  -2   3   1 2885.16  122.70
   2  -3  -1 2850.92  120.91
   2  -3  -1 2738.69  124.79
  -2   3   1 3011.30  124.91
   2  -3  -1 2984.36  127.25
   2  -3  -1 2690.17  114.99
   2  -3  -1 2910.26  122.35
  -2   3   1 2627.01  124.48
  -2   3   1 2937.14  115.54
   2  -3  -1 2716.23  123.59
  -2   3   1 2842.90  123.24
   2  -3  -1 2517.36  122.13
  -2   3   1 2704.06  119.90
  -2   3   1 2816.76  121.83
  -1   3   1   81.20   16.01
   1  -3  -1  101.73   17.52
   1  -3  -1   80.77   16.91
   1  -3  -1  107.03   16.70
   1  -3  -1   89.07   15.51
   1  -3  -1  120.84   19.03
  -1   3   1  101.41   14.72
  -1   3   1   86.16   16.72
  -1   3   1   74.04   16.30
  -1   3   1   84.19   16.53
   1  -3  -1  107.18   14.83
  -1   3   1   81.42   17.81
  -1   3   1   97.71   15.44
   0  -3  -1  857.28   45.82
   0   3   1  994.66   47.02
   0  -3  -1  876.19   42.70
   0   3   1  849.79   44.56
   0   3   1  914.93   45.99
   0   3   1  932.46   44.67
   0  -3  -1  878.11   44.27
   0  -3  -1  812.34   45.05
   0  -3  -1  880.17   45.05
   0   3   1  847.58   43.40
   0   3   1  858.51   46.44
   0  -3  -1  956.02   44.40
   1   3   1  183.50   17.16
  -1  -3  -1  224.25   20.42
   1   3   1  157.84   17.18
   1   3   1  185.15   17.62
   1   3   1  184.62   18.96
  -1  -3  -1  199.44   18.69
  -1  -3  -1  198.25   17.83
  -1  -3  -1  194.01   18.26
  -1  -3  -1  178.18   14.09
  -1  -3  -1  164.40   16.81
   1   3   1  167.79   17.81
  -1  -3  -1  190.86   15.94
   1   3   1  185.96   18.25
   2   3   1   37.71   12.43
  -2  -3  -1   31.73    9.36
   2   3   1   19.34    9.36
  -2  -3  -1   40.16   11.29
  -2  -3  -1   57.74   14.24
  -2  -3  -1   32.54    9.53
  -2  -3  -1   33.56   11.70
   2   3   1   30.91   10.49
  -2  -3  -1   25.88    9.14
   2   3   1   51.71   14.21
  -2  -3  -1   15.26   10.74
   2   3   1   20.43   11.51
   2   3   1   16.58   12.22
   2   3   1  -14.56   11.22
  -2  -3  -1   34.67   10.80
   3   3   1  228.38   19.77
  -3  -3  -1  224.75   16.77
  -3  -3  -1  217.63   19.37
   3   3   1  268.50   23.84
  -3  -3  -1  207.97   20.57
   3   3   1  214.80   22.50
   3   3   1  243.40   20.79
  -3  -3  -1  242.14   21.99
  -3  -3  -1  226.34   17.65
  -3  -3  -1  255.99   25.70
   3   3   1  216.11   22.04
  -3  -3  -1  256.28   21.06
   3   3   1  244.45   25.13
   3   3   1  243.79   22.23
   3   3   1  261.94   21.88
   4   3   1  584.40   36.53
  -4  -3  -1  628.42   41.79
   4   3   1  507.15   36.90
  -4  -3  -1  541.21   34.03
  -4  -3  -1  584.06   36.21
   4   3   1  539.04   35.94
   4   3   1  577.54   38.26
   4   3   1  568.77   36.31
   4   3   1  571.69   40.23
  -4  -3  -1  563.83   38.47
   4   3   1  563.29   34.75
  -4  -3  -1  608.04   29.24
   4   3   1  555.81   38.89
  -4  -3  -1  545.72   33.46
   5   3   1   61.20   22.11
  -5  -3  -1   50.74   16.45
  -5  -3  -1   46.77   21.03
   5   3   1   48.50   20.93
   5   3   1   35.50   19.12
   5   3   1   57.09   18.60
   5   3   1   55.84   20.37
   5   3   1   20.64   19.92
  -5  -3  -1   70.41   17.90
  -5  -3  -1   30.34   18.33
   5   3   1   82.38   20.07
   6   3   1  588.36   47.46
  -6  -3  -1  632.96   43.01
   6   3   1  545.17   45.45
  -6  -3  -1  568.16   46.32
   6   3   1  565.17   44.28
   6   3   1  554.06   42.97
   6   3   1  647.41   48.91
   6   3   1  572.29   48.32
   6   3   1  632.54   46.34
  -6  -3  -1  580.68   41.12
  -6  -3  -1  594.36   40.30
   7   3   1   98.41   27.44
   7   3   1  138.28   32.06
   7   3   1   51.43   25.92
   7   3   1  129.50   29.74
  -7  -3  -1  162.31   30.97
   7   3   1  119.76   32.48
  -7  -3  -1  141.25   27.24
   8   3   1   57.65   34.14
   8   3   1   15.70   31.49
  -8  -3  -1   60.46   27.11
   8   3   1   88.81   30.35
   8   3   1   43.96   27.77
  -8  -3  -1   67.91   32.80
   6  -4  -1  362.45   43.54
  -6   4   1  265.42   40.29
   6  -4  -1  264.97   43.51
   6  -4  -1  335.86   46.38
  -6   4   1  279.10   46.29
   6  -4  -1  286.86   44.10
   5  -4  -1  346.16   38.46
   5  -4  -1  325.70   42.83
  -5   4   1  327.09   38.67
   5  -4  -1  268.10   40.09
  -5   4   1  366.81   45.92
   5  -4  -1  345.51   43.33
  -5   4   1  315.10   34.99
  -4   4   1   -9.45   25.11
   4  -4  -1   18.65   23.86
   4  -4  -1   61.95   27.12
   4  -4  -1   52.58   21.16
  -4   4   1   72.54   24.94
   4  -4  -1   75.38   26.07
   4  -4  -1    9.14   27.06
   3  -4  -1  -23.38   19.65
   3  -4  -1  -14.43   19.01
   3  -4  -1   -0.43   16.96
  -3   4   1  -47.10   18.54
  -3   4   1    6.42   16.77
  -3   4   1    1.30   17.78
  -3   4   1  -12.22   16.72
   3  -4  -1   -8.31   18.54
  -2   4   1  218.19   24.03
   2  -4  -1  225.05   26.48
   2  -4  -1  228.12   27.62
   2  -4  -1  116.10   23.84
  -2   4   1  212.34   26.28
  -2   4   1  160.32   26.36
  -2   4   1  193.20   24.58
  -2   4   1  181.12   22.48
   2  -4  -1  210.35   23.41
  -1   4   1 1419.84   65.23
  -1   4   1 1304.96   70.37
   1  -4  -1 1339.12   68.82
   1  -4  -1 1459.61   68.91
   1  -4  -1 1406.16   66.45
   1  -4  -1 1477.15   72.85
  -1   4   1 1322.74   70.86
  -1   4   1 1354.71   66.42
   1  -4  -1 1325.19   70.38
  -1   4   1 1349.02   68.34
   1  -4  -1 1408.10   69.40
  -1   4   1 1472.08   71.21
  -1   4   1 1400.73   68.96
   0   4   1   74.95   16.35
   0  -4  -1   49.58   15.01
   0  -4  -1   35.36   15.07
   0   4   1   38.40   15.58
   0  -4  -1   52.56   16.98
   0  -4  -1   51.66   13.65
   0   4   1   34.10   15.41
   0   4   1   60.34   17.14
   0  -4  -1   44.02   15.50
   0   4   1   37.81   15.27
   0   4   1   68.55   16.11
   0  -4  -1   31.20   13.49
  -1  -4  -1  475.92   28.94
   1   4   1  456.27   32.68
  -1  -4  -1  409.74   26.35
  -1  -4  -1  481.30   31.99
   1   4   1  479.95   32.64
  -1  -4  -1  529.85   32.00
   1   4   1  445.50   29.45
  -1  -4  -1  432.40   30.25
   1   4   1  489.31   31.10
   1   4   1  435.16   30.97
   1   4   1  386.11   31.28
  -1  -4  -1  440.34   31.09
  -2  -4  -1  287.18   27.52
   2   4   1  280.61   25.43
   2   4   1  270.62   23.19
  -2  -4  -1  300.74   24.67
  -2  -4  -1  246.13   20.18
  -2  -4  -1  281.87   23.40
   2   4   1  267.44   25.38
   2   4   1  288.74   24.78
  -2  -4  -1  240.20   20.89
  -2  -4  -1  226.36   22.25
  -2  -4  -1  248.41   23.82
  -2  -4  -1  258.28   19.16
   2   4   1  262.51   25.40
   2   4   1  250.37   20.64
   3   4   1 2019.73   91.72
  -3  -4  -1 1960.05   90.99
  -3  -4  -1 2181.82   93.03
   3   4   1 2065.64   93.49
   3   4   1 2026.11   94.65
   3   4   1 2202.12   94.46
   3   4   1 1953.53   94.39
  -3  -4  -1 2108.91   91.76
   3   4   1 2017.60   95.62
  -3  -4  -1 2159.76   99.20
   3   4   1 2001.91   98.50
   3   4   1 2125.40   92.66
  -3  -4  -1 2158.38   88.85
  -4  -4  -1   28.56   14.55
   4   4   1   23.82   17.18
   4   4   1   23.67   17.38
  -4  -4  -1    2.71   15.45
  -4  -4  -1   28.90   14.29
   4   4   1   24.05   18.68
  -4  -4  -1   27.83   19.10
  -4  -4  -1   20.12   11.87
   4   4   1   29.41   15.58
   4   4   1   19.44   15.43
   4   4   1   24.70   17.89
   4   4   1   27.53   17.22
  -5  -4  -1  281.72   30.08
   5   4   1  224.63   30.79
  -5  -4  -1  276.03   27.01
  -5  -4  -1  256.47   21.35
  -5  -4  -1  267.35   28.27
   5   4   1  296.29   31.84
  -5  -4  -1  204.38   29.85
   5   4   1  332.72   30.36
   5   4   1  357.69   33.34
   5   4   1  292.77   31.74
   5   4   1  243.83   31.69
   5   4   1  259.09   35.22
  -6  -4  -1   84.08   27.06
  -6  -4  -1   91.07   21.62
   6   4   1   58.62   26.11
   6   4   1   46.54   26.91
  -6  -4  -1   77.30   24.26
   6   4   1   49.16   25.00
   6   4   1   92.49   28.75
   6   4   1   82.59   26.99
   6   4   1   72.10   23.13
   6   4   1   69.87   26.89
  -6  -4  -1   25.90   20.11
   7   4   1  320.83   44.46
   7   4   1  266.20   40.40
   7   4   1  328.89   39.87
  -7  -4  -1  253.46   31.83
  -7  -4  -1  367.69   39.73
  -7  -4  -1  342.47   37.06
   7   4   1  323.88   39.46
   8   4   1   82.46   36.69
  -8  -4  -1   83.09   31.43
  -8  -4  -1   57.96   27.72
   8   4   1   95.23   30.51
   8   4   1   41.19   33.55
   8   4   1   77.63   31.94
   5  -5  -1    1.45   27.79
   5  -5  -1  -43.01   23.27
  -5   5   1  -26.35   21.21
  -5   5   1   19.26   25.16
   5  -5  -1   -9.45   24.56
  -5   5   1    5.27   31.77
  -4   5   1  148.17   30.33
   4  -5  -1  128.25   33.35
   4  -5  -1  167.80   35.27
   4  -5  -1   96.05   30.10
  -4   5   1  124.07   34.07
  -3   5   1  815.73   51.85
   3  -5  -1  855.83   58.50
  -3   5   1  782.54   54.22
  -3   5   1  877.93   61.36
  -3   5   1  799.55   55.00
   3  -5  -1  762.68   58.30
   3  -5  -1  805.76   56.97
  -2   5   1  425.20   36.12
  -2   5   1  475.33   37.77
   2  -5  -1  433.97   41.54
   2  -5  -1  477.81   37.28
  -2   5   1  512.27   44.02
   2  -5  -1  413.81   38.52
   2  -5  -1  448.88   39.86
  -2   5   1  466.34   39.42
   1  -5  -1   36.30   18.89
   1  -5  -1   52.04   16.74
  -1   5   1   36.53   17.41
  -1   5   1   45.44   19.10
   1  -5  -1   55.88   20.36
  -1   5   1   52.54   18.61
  -1   5   1   11.56   18.38
  -1   5   1   31.35   19.57
   1  -5  -1   50.11   19.39
   0  -5  -1   -0.06   14.91
   0   5   1   17.08   15.98
   0  -5  -1   28.37   17.23
   0  -5  -1   18.50   15.88
   0   5   1   37.21   16.21
   0  -5  -1   35.97   14.61
   0   5   1   16.87   17.67
   0   5   1   28.52   18.03
   0  -5  -1   41.40   18.35
   0   5   1   42.53   17.54
   1   5   1 4247.19  185.70
   1   5   1 4402.99  184.91
  -1  -5  -1 4569.02  184.12
  -1  -5  -1 4211.59  183.97
  -1  -5  -1 4340.78  184.23
   1   5   1 4484.60  183.74
  -1  -5  -1 4213.39  181.09
   1   5   1 4346.59  182.31
   2   5   1  604.59   41.43
  -2  -5  -1  584.90   41.96
   2   5   1  537.98   33.91
  -2  -5  -1  529.07   33.08
   2   5   1  602.98   38.06
   2   5   1  598.54   40.13
   2   5   1  618.11   40.15
  -2  -5  -1  655.20   39.94
  -2  -5  -1  647.57   41.67
  -2  -5  -1  620.20   38.89
   2   5   1  557.48   38.37
  -3  -5  -1  156.29   22.94
  -3  -5  -1  195.76   20.03
   3   5   1  198.52   26.06
   3   5   1  180.62   23.99
   3   5   1  208.91   26.59
   3   5   1  152.75   23.86
  -3  -5  -1  142.87   25.45
   3   5   1  201.28   21.42
  -3  -5  -1  185.04   20.42
  -3  -5  -1  170.74   22.93
   3   5   1  178.79   24.91
  -3  -5  -1  111.78   22.17
   4   5   1   77.32   19.21
   4   5   1    5.42   19.57
   4   5   1   60.79   22.87
   4   5   1   56.12   21.19
  -4  -5  -1   16.57   19.57
   4   5   1   51.18   20.39
   4   5   1   51.64   20.09
  -4  -5  -1   54.56   18.29
  -4  -5  -1   75.12   19.57
  -4  -5  -1   40.93   17.78
  -4  -5  -1   37.94   15.06
  -5  -5  -1  330.68   31.05
   5   5   1  368.35   35.61
  -5  -5  -1  318.15   37.45
   5   5   1  375.49   35.19
  -5  -5  -1  351.76   35.19
  -5  -5  -1  326.06   32.27
  -5  -5  -1  297.63   25.95
   5   5   1  316.96   36.33
   5   5   1  362.89   38.43
   5   5   1  379.66   37.41
   5   5   1  393.09   37.26
   5   5   1  281.65   38.47
   6   5   1   60.89   27.18
   6   5   1   95.41   31.43
  -6  -5  -1  157.59   31.64
  -6  -5  -1  141.53   27.81
   6   5   1  165.72   30.58
  -6  -5  -1   78.76   22.46
   6   5   1   83.12   25.94
   6   5   1   87.57   27.43
   6   5   1  124.69   30.90
  -7  -5  -1  124.69   31.82
   7   5   1   43.20   28.27
  -7  -5  -1  125.97   29.22
   7   5   1   77.07   33.16
   7   5   1  133.22   35.98
  -7  -5  -1   78.66   25.01
   7   5   1   61.60   27.74
  -5   6   1   56.30   38.22
   5  -6  -1   85.29   35.29
   5  -6  -1  125.56   37.50
   5  -6  -1  119.86   37.23
  -5   6   1   39.46   30.20
   4  -6  -1  242.03   37.68
  -4   6   1  238.00   42.78
   4  -6  -1  211.07   39.06
   4  -6  -1  280.17   41.80
  -4   6   1  241.10   37.07
   3  -6  -1  -42.30   22.24
   3  -6  -1   13.90   24.59
  -3   6   1   -1.10   22.14
  -3   6   1  -23.65   26.59
   3  -6  -1   24.17   23.53
  -3   6   1   -7.59   20.64
   2  -6  -1  273.07   37.34
   2  -6  -1  280.99   38.66
  -2   6   1  326.26   34.88
  -2   6   1  266.25   34.02
  -2   6   1  289.80   40.11
  -2   6   1  323.67   37.33
   2  -6  -1  280.20   36.26
   1  -6  -1  706.98   53.54
  -1   6   1  604.73   48.11
  -1   6   1  795.04   50.26
  -1   6   1  716.69   46.67
   1  -6  -1  674.42   50.10
   1  -6  -1  699.64   48.09
  -1   6   1  600.07   51.76
   0  -6  -1  447.08   39.66
   0   6   1  529.34   41.44
   0   6   1  419.21   35.67
   0  -6  -1  513.53   39.02
   0  -6  -1  474.94   40.75
   0   6   1  463.95   41.66
   0  -6  -1  442.41   36.62
   0   6   1  473.47   43.51
  -1  -6  -1   58.40   20.26
  -1  -6  -1   51.55   19.46
  -1  -6  -1   88.34   22.62
   1   6   1   38.49   20.49
   1   6   1   64.91   22.43
   1   6   1   63.27   22.72
  -1  -6  -1   59.37   17.47
   2   6   1   54.57   21.05
   2   6   1    1.30   19.03
  -2  -6  -1   33.51   15.57
   2   6   1    3.56   19.51
  -2  -6  -1   22.72   17.88
   2   6   1   24.64   20.55
  -2  -6  -1   41.95   22.25
  -3  -6  -1  644.65   46.66
  -3  -6  -1  551.53   42.55
   3   6   1  595.03   45.15
   3   6   1  634.01   42.34
   3   6   1  599.56   46.24
  -3  -6  -1  594.66   37.45
   3   6   1  621.29   44.34
  -3  -6  -1  652.59   39.33
   4   6   1  309.46   37.09
  -4  -6  -1  331.80   29.98
  -4  -6  -1  314.83   27.53
   4   6   1  282.44   34.88
   4   6   1  262.71   34.84
  -4  -6  -1  346.12   35.84
  -4  -6  -1  273.40   31.59
   4   6   1  355.67   32.26
   4   6   1  284.76   33.38
  -4  -6  -1  336.23   22.79
   5   6   1  117.94   25.81
   5   6   1  138.02   28.90
   5   6   1  108.73   30.74
   5   6   1  143.15   30.56
  -5  -6  -1   56.93   19.07
  -5  -6  -1   91.52   23.76
   5   6   1  112.58   27.59
  -5  -6  -1   62.72   25.74
  -6  -6  -1   42.76   26.92
   6   6   1   54.05   26.39
   6   6   1   69.37   29.15
  -6  -6  -1   92.23   25.11
   6   6   1  112.74   30.13
  -6  -6  -1   84.62   29.94
   6   6   1   41.93   26.37
  -7  -6  -1   -7.62   22.56
  -7  -6  -1    3.38   26.32
   7   6   1  -31.89   27.02
   7   6   1   14.90   30.96
   7   6   1  -32.66   25.18
  -7  -6  -1   -9.15   28.45
   7   6   1    3.46   25.58
  -4   7   1  328.02   50.85
   4  -7  -1  272.24   45.38
   4  -7  -1  223.50   42.87
  -4   7   1  266.74   41.83
   4  -7  -1  273.00   44.92
   3  -7  -1  -43.90   24.07
  -3   7   1    6.80   23.48
  -3   7   1    5.72   30.49
   3  -7  -1  -29.46   24.35
   3  -7  -1   -7.00   28.33
  -3   7   1  -16.55   23.73
   2  -7  -1  484.52   46.93
   2  -7  -1  396.04   44.38
  -2   7   1  425.52   40.60
  -2   7   1  339.58   45.89
  -2   7   1  394.81   43.37
   2  -7  -1  418.15   45.56
   1  -7  -1  -11.30   23.31
   1  -7  -1  -13.04   23.44
  -1   7   1   11.59   26.27
   1  -7  -1  -14.92   23.38
  -1   7   1  -20.84   20.89
  -1   7   1  -13.66   23.41
   0  -7  -1  152.64   30.54
   0   7   1   86.74   26.43
   0  -7  -1  112.07   29.73
   0  -7  -1   86.36   26.75
   0   7   1   79.51   29.52
   0  -7  -1  153.71   28.61
   1   7   1  104.72   27.84
   1   7   1   52.69   26.27
  -1  -7  -1   29.69   24.07
  -1  -7  -1   70.56   20.93
  -1  -7  -1   69.54   26.39
  -1  -7  -1   92.54   24.23
   2   7   1   25.95   23.59
   2   7   1   56.42   26.45
  -2  -7  -1   30.69   22.51
   2   7   1   33.98   23.82
  -2  -7  -1   39.13   18.42
  -2  -7  -1   -1.27   22.58
   2   7   1   34.35   24.65
   3   7   1  -17.42   23.24
  -3  -7  -1  -23.13   18.49
  -3  -7  -1  -20.47   23.15
  -3  -7  -1  -18.71   17.16
   3   7   1   -6.83   22.96
  -3  -7  -1   -6.26   20.57
   3   7   1   -1.66   23.75
   3   7   1  -26.92   20.67
  -4  -7  -1  712.04   41.11
  -4  -7  -1  753.34   50.10
   4   7   1  729.32   53.92
  -4  -7  -1  709.39   45.75
  -4  -7  -1  758.03   54.47
   4   7   1  702.95   53.55
   4   7   1  641.35   52.75
  -4  -7  -1  635.56   44.05
   4   7   1  684.91   47.70
   5   7   1   -3.60   23.26
   5   7   1   25.97   26.06
  -5  -7  -1   30.06   24.19
  -5  -7  -1   29.70   19.34
   5   7   1  -15.59   20.75
   5   7   1  -27.95   24.95
   5   7   1    0.65   23.11
  -5  -7  -1   -3.04   21.72
   6   7   1   90.76   30.92
  -6  -7  -1  144.31   32.79
   6   7   1   80.21   30.40
   6   7   1   49.79   29.04
   6   7   1  150.07   37.61
  -6  -7  -1   44.00   32.86
  -6  -7  -1   92.95   27.58
   3  -8  -1  -14.73   26.23
   3  -8  -1    1.31   28.64
  -3   8   1  -10.71   31.32
  -3   8   1    5.03   31.83
   3  -8  -1   30.95   32.46
   2  -8  -1  299.75   44.77
   2  -8  -1  380.25   47.24
  -2   8   1  343.02   45.79
  -2   8   1  331.51   41.25
  -2   8   1  303.12   47.10
   2  -8  -1  404.58   48.85
   1  -8  -1 1121.24   70.70
   1  -8  -1 1071.04   73.64
  -1   8   1  998.98   73.76
   1  -8  -1 1024.42   72.23
   0   8   1    7.17   24.61
   0  -8  -1   -9.32   23.75
   0  -8  -1   -8.62   25.12
   0   8   1   19.25   27.66
   0  -8  -1   -1.38   23.01
   0  -8  -1  -23.95   21.46
  -1  -8  -1   12.29   24.14
   1   8   1   48.62   27.00
   1   8   1   26.29   27.58
  -1  -8  -1   22.33   21.83
  -1  -8  -1   35.12   27.92
   1   8   1   22.88   24.89
  -1  -8  -1    1.62   22.83
  -2  -8  -1   37.15   20.07
   2   8   1   39.00   25.56
   2   8   1   28.25   27.67
  -2  -8  -1   10.17   25.09
   2   8   1   25.90   26.75
  -2  -8  -1   33.57   23.33
  -3  -8  -1  249.40   37.89
   3   8   1  265.97   38.13
  -3  -8  -1  229.20   28.64
  -3  -8  -1  231.93   31.82
   3   8   1  247.79   34.79
   3   8   1  222.76   38.22
  -3  -8  -1  208.26   33.88
  -4  -8  -1  347.99   32.45
   4   8   1  326.83   40.78
  -4  -8  -1  339.20   38.78
  -4  -8  -1  385.00   43.81
   4   8   1  357.09   42.52
  -4  -8  -1  250.97   33.48
   4   8   1  270.52   40.82
  -4  -8  -1  254.69   30.92
   5   8   1   59.55   28.71
   5   8   1   43.37   26.07
  -5  -8  -1   26.34   27.61
  -5  -8  -1   59.26   31.43
  -5  -8  -1   67.32   24.52
   5   8   1   50.52   27.65
   6   8   1   87.52   39.46
   1  -9  -1   62.75   33.01
   1  -9  -1   84.50   33.72
   1  -9  -1    5.28   29.39
   1  -9  -1   49.11   34.65
  -1   9   1    6.87   27.23
  -1   9   1   50.89   31.64
  -1   9   1  -13.48   31.87
   0  -9  -1   20.85   29.93
   0   9   1  107.92   36.78
   0   9   1   85.12   30.29
   0  -9  -1  111.76   31.20
   0   9   1   76.33   32.57
   0  -9  -1   29.45   30.64
   0  -9  -1   70.45   33.99
  -1  -9  -1  518.85   51.90
  -1  -9  -1  375.28   44.58
   1   9   1  427.41   50.17
  -1  -9  -1  512.29   54.48
  -1  -9  -1  461.67   44.41
   1   9   1  466.96   53.36
   1   9   1  483.73   48.51
  -2  -9  -1   48.64   22.37
   2   9   1   34.04   28.27
  -2  -9  -1    5.05   25.62
   2   9   1   54.67   31.07
  -2  -9  -1    3.74   27.82
   2   9   1    7.35   29.49
  -3  -9  -1  195.09   29.84
   3   9   1  253.43   38.73
  -3  -9  -1  261.71   42.00
   3   9   1  321.05   43.68
   3   9   1  182.15   38.56
  -3  -9  -1  246.94   37.66
   4   9   1   47.46   30.71
   4   9   1    6.15   29.58
   4   9   1   30.87   30.88
  -4  -9  -1   -4.27   24.45
  -4  -9  -1   53.67   24.63
  -4  -9  -1   -5.02   29.35
  -4  -9  -1    4.50   27.11
  -2  -9   2  110.43   36.20
  -2  -9   2  124.98   35.54
   2   9  -2   68.30   33.13
   2   9  -2  138.55   36.57
  -2  -9   2  154.96   42.07
  -2  -9   2  165.03   35.94
   2   9  -2   77.46   32.88
   1   9  -2   52.05   32.74
  -1  -9   2   14.80   28.28
  -1  -9   2   33.94   31.21
   1   9  -2   -2.91   26.77
  -1  -9   2   40.96   30.58
  -1  -9   2   47.91   34.48
   1   9  -2    5.69   28.70
   0  -9   2    4.35   30.00
   0  -9   2   39.61   34.35
   0   9  -2   28.88   30.99
   0  -9   2   62.69   33.77
   0   9  -2   34.87   33.65
   0  -9   2   74.98   34.06
  -4  -8   2   70.33   31.53
  -4  -8   2  102.53   32.73
   4   8  -2   36.68   30.97
   4   8  -2  132.66   35.84
  -4  -8   2   60.19   36.42
   4   8  -2   46.95   32.55
   3   8  -2   57.23   30.65
   3   8  -2   76.80   31.77
  -3  -8   2   56.72   28.52
   3   8  -2   45.78   29.65
  -3  -8   2   89.19   30.64
  -3  -8   2  129.27   32.14
  -3  -8   2   51.89   32.70
   2   8  -2  -26.73   23.61
  -2  -8   2  -44.60   21.13
   2   8  -2   -1.66   26.34
  -2  -8   2   30.41   27.78
  -2  -8   2  -38.41   24.35
   2   8  -2  -30.54   23.62
  -2  -8   2   16.57   25.43
  -1  -8   2   90.52   30.83
  -1  -8   2  103.04   31.35
   1   8  -2  131.05   30.40
   1   8  -2  115.18   31.39
  -1  -8   2  131.54   36.17
  -1  -8   2  123.84   31.66
   1   8  -2  146.91   35.42
   0  -8   2 1564.18   94.88
   0   8  -2 1327.62   87.21
   0   8  -2 1595.11   84.94
   0  -8   2 1334.18   84.73
   0  -8   2 1510.56   90.54
   0   8  -2 1509.97   87.05
  -1   8  -2  229.19   41.14
   1  -8   2  219.40   39.97
   1  -8   2  293.44   43.16
   1  -8   2  236.15   39.09
   1  -8   2  300.90   45.16
  -1   8  -2  252.91   38.53
   2  -8   2   21.75   32.76
  -2   8  -2   67.81   33.14
   2  -8   2   49.97   31.89
  -2   8  -2   20.67   26.89
   2  -8   2  -14.51   24.68
   2  -8   2  -11.32   28.10
   5   7  -2  481.34   49.77
  -5  -7   2  460.23   53.55
   5   7  -2  413.01   50.34
  -5  -7   2  359.01   46.22
  -5  -7   2  381.58   45.62
   5   7  -2  376.16   48.59
   4   7  -2   98.68   31.10
  -4  -7   2    6.47   25.08
  -4  -7   2   -0.16   23.49
   4   7  -2   33.35   27.65
  -4  -7   2   35.25   25.80
  -4  -7   2   31.67   29.91
   3   7  -2   90.47   29.99
  -3  -7   2   50.02   25.12
   3   7  -2   61.48   27.66
  -3  -7   2   26.55   24.83
  -3  -7   2   60.41   25.62
   3   7  -2   48.80   26.65
  -3  -7   2   96.98   31.67
  -2  -7   2   59.44   28.56
  -2  -7   2   91.25   26.64
   2   7  -2  106.81   29.90
   2   7  -2   48.90   26.82
  -2  -7   2   74.38   27.16
  -2  -7   2  107.03   27.32
   2   7  -2   75.94   28.13
  -1  -7   2  497.35   48.20
  -1  -7   2  633.86   47.65
   1   7  -2  597.43   48.92
  -1  -7   2  403.99   45.70
  -1  -7   2  554.22   51.27
   1   7  -2  477.27   43.64
   1   7  -2  487.45   47.63
   0  -7   2   12.32   24.15
   0   7  -2    3.58   21.21
   0  -7   2  -13.28   23.91
   0   7  -2   21.27   26.02
   0  -7   2   -2.63   26.29
   0  -7   2   -5.57   24.83
   0   7  -2   24.53   24.92
  -1   7  -2   25.05   23.51
   1  -7   2   30.97   27.78
   1  -7   2   37.12   27.49
   1  -7   2   18.52   25.36
  -1   7  -2   59.54   28.82
   1  -7   2   16.20   26.52
   2  -7   2   44.20   27.07
  -2   7  -2   25.50   26.54
  -2   7  -2   39.35   24.18
   2  -7   2   26.42   26.30
   2  -7   2   63.87   28.91
  -2   7  -2   17.09   23.14
   2  -7   2   76.72   28.83
   3  -7   2  407.67   48.02
  -3   7  -2  397.18   47.03
   3  -7   2  450.05   49.25
  -3   7  -2  311.61   40.61
   3  -7   2  439.46   48.28
   4  -7   2   -8.90   27.16
   4  -7   2   28.63   32.21
  -4   7  -2   38.44   27.70
   4  -7   2  -27.59   26.89
  -4   7  -2   25.77   31.73
   6   6  -2  227.27   42.79
   6   6  -2  278.20   45.00
  -6  -6   2  377.47   44.88
  -6  -6   2  355.30   49.48
  -6  -6   2  202.59   36.92
   6   6  -2  325.28   44.06
  -5  -6   2   74.66   27.91
  -5  -6   2  167.27   39.22
   5   6  -2   55.06   30.06
   5   6  -2   88.51   31.74
  -5  -6   2   71.95   27.39
   5   6  -2  107.22   32.32
  -4  -6   2   30.62   23.21
  -4  -6   2    7.48   23.09
  -4  -6   2    9.26   27.61
   4   6  -2    7.52   25.38
  -4  -6   2   10.49   17.90
  -4  -6   2   -4.85   21.36
   4   6  -2  -41.51   22.68
   4   6  -2   -1.93   24.07
   3   6  -2  289.52   39.17
  -3  -6   2  322.06   34.51
   3   6  -2  349.41   38.56
  -3  -6   2  288.30   36.43
  -3  -6   2  337.49   38.51
  -3  -6   2  394.21   42.73
   3   6  -2  344.16   37.92
   2   6  -2  -13.00   21.18
  -2  -6   2    1.13   19.82
   2   6  -2   11.35   22.34
  -2  -6   2    1.34   19.99
   2   6  -2   24.34   22.47
   2   6  -2   56.66   24.34
  -2  -6   2    1.09   23.22
  -2  -6   2  -22.11   18.81
  -1  -6   2  675.20   46.68
   1   6  -2  584.74   49.28
  -1  -6   2  633.32   48.34
   1   6  -2  630.22   48.96
   1   6  -2  668.00   46.83
  -1  -6   2  685.79   52.48
  -1  -6   2  702.83   49.99
   0  -6   2  329.37   36.88
   0  -6   2  279.64   35.98
   0  -6   2  325.63   37.79
   0   6  -2  346.69   38.10
   0  -6   2  292.02   35.43
   0  -6   2  312.48   35.69
   0   6  -2  325.76   33.86
   0   6  -2  306.71   35.93
   1  -6   2  131.61   27.45
   1  -6   2   65.84   27.73
   1  -6   2  105.33   27.07
  -1   6  -2  113.09   27.82
  -1   6  -2   55.01   25.79
   1  -6   2  132.24   29.80
   1  -6   2  119.19   28.97
   2  -6   2  187.75   31.15
   2  -6   2  212.16   33.79
  -2   6  -2  185.39   27.89
   2  -6   2  184.77   32.78
  -2   6  -2  201.67   34.52
   2  -6   2  176.52   32.57
  -2   6  -2  176.69   30.13
   3  -6   2    6.11   23.66
   3  -6   2   15.91   23.12
  -3   6  -2   23.71   20.45
   3  -6   2   50.89   26.26
  -3   6  -2   21.81   26.51
   3  -6   2   24.93   27.04
  -3   6  -2   38.97   23.22
   4  -6   2   88.17   30.06
   4  -6   2   76.52   30.34
  -4   6  -2   42.27   23.80
  -4   6  -2   22.41   22.47
   4  -6   2   27.95   25.67
  -4   6  -2   34.95   28.36
   5  -6   2  227.64   41.16
  -5   6  -2  349.58   44.43
   5  -6   2  274.21   42.68
   5  -6   2  276.51   42.93
   6   5  -2  286.90   42.06
   6   5  -2  360.39   44.62
  -6  -5   2  405.51   50.13
   6   5  -2  357.48   47.23
  -6  -5   2  387.57   41.51
   5   5  -2  -21.80   24.28
   5   5  -2   19.48   26.53
   5   5  -2  -19.99   23.23
  -5  -5   2   12.78   21.73
  -5  -5   2   -6.45   22.25
  -5  -5   2   25.42   27.64
  -4  -5   2   64.26   24.19
   4   5  -2  125.41   29.21
   4   5  -2   71.45   29.26
  -4  -5   2  139.30   32.52
   4   5  -2   50.79   25.48
   4   5  -2   83.20   27.67
  -4  -5   2   94.60   24.25
  -4  -5   2   76.62   17.50
  -4  -5   2   75.09   26.35
  -3  -5   2  212.86   29.68
  -3  -5   2  262.23   36.34
   3   5  -2  300.12   32.96
  -3  -5   2  290.67   28.45
   3   5  -2  200.08   31.96
  -3  -5   2  251.78   31.10
  -3  -5   2  240.36   28.88
   3   5  -2  258.54   32.45
   3   5  -2  272.92   34.89
  -2  -5   2 1865.60   91.09
  -2  -5   2 1700.55   86.65
   2   5  -2 1714.81   87.60
   2   5  -2 1755.19   89.02
  -2  -5   2 1677.93   87.03
   2   5  -2 1766.05   85.79
  -2  -5   2 1718.36   84.49
  -1  -5   2  492.43   37.42
  -1  -5   2  445.46   38.85
  -1  -5   2  571.29   42.36
   1   5  -2  465.52   37.30
  -1  -5   2  487.59   36.77
   1   5  -2  467.86   36.33
  -1  -5   2  505.89   39.23
   1   5  -2  486.79   38.64
   1   5  -2  464.49   38.36
   0   5  -2   32.03   17.04
   0  -5   2  -14.39   15.76
   0   5  -2    7.83   17.72
   0   5  -2   -9.11   17.38
   0  -5   2   -7.75   17.11
   0  -5   2   13.07   17.67
   0  -5   2  -16.03   17.30
   0  -5   2  -17.49   14.23
  -1   5  -2 1160.72   62.22
   1  -5   2 1149.49   63.30
   1  -5   2 1058.28   65.47
  -1   5  -2  989.26   63.02
  -1   5  -2 1187.61   63.65
  -1   5  -2 1161.68   63.61
   1  -5   2 1084.73   65.56
   1  -5   2 1063.90   64.23
   1  -5   2 1227.95   66.18
   1  -5   2 1207.72   63.85
   2  -5   2 1630.38   82.30
  -2   5  -2 1623.32   80.73
   2  -5   2 1457.73   83.36
   2  -5   2 1714.29   85.74
  -2   5  -2 1573.14   83.85
  -2   5  -2 1660.44   77.42
   2  -5   2 1640.52   84.33
  -2   5  -2 1575.46   81.99
   3  -5   2  119.61   25.95
   3  -5   2  105.57   27.45
  -3   5  -2   94.15   24.39
   3  -5   2   60.25   25.56
  -3   5  -2  103.97   27.81
  -3   5  -2  114.74   21.88
   3  -5   2  133.61   27.69
   4  -5   2   20.53   22.52
  -4   5  -2   26.87   25.07
  -4   5  -2    4.01   18.33
   4  -5   2   84.59   28.47
   4  -5   2   -5.21   19.13
   4  -5   2   -4.88   23.00
   5  -5   2  656.72   56.81
  -5   5  -2  713.28   54.44
   5  -5   2  734.28   58.80
   5  -5   2  632.42   56.75
   6  -5   2  245.45   42.49
   6  -5   2  179.23   39.97
  -6   5  -2  218.88   39.13
   6  -5   2  277.52   42.73
   7   4  -2   19.34   29.04
  -7  -4   2   -7.25   32.89
  -7  -4   2    7.63   23.64
   7   4  -2   44.70   31.75
  -7  -4   2   -4.16   26.46
   7   4  -2   -1.75   27.68
  -6  -4   2   99.88   25.20
   6   4  -2  119.38   33.33
  -6  -4   2    0.96   29.51
   6   4  -2   80.62   31.59
  -6  -4   2  106.18   28.10
   6   4  -2   59.27   29.70
  -6  -4   2   82.94   24.88
   5   4  -2   61.40   26.92
   5   4  -2  100.30   30.61
   5   4  -2  109.40   30.03
  -5  -4   2   70.91   26.83
  -5  -4   2   41.89   30.83
  -5  -4   2   51.64   24.71
  -4  -4   2  806.39   42.45
   4   4  -2  859.35   56.20
  -4  -4   2  837.11   51.98
   4   4  -2  805.24   53.60
   4   4  -2  865.70   52.74
   4   4  -2  795.60   53.93
  -4  -4   2  710.77   47.45
  -4  -4   2  821.26   54.38
   4   4  -2  816.39   56.95
  -4  -4   2  861.39   58.88
  -4  -4   2  829.94   53.97
   3   4  -2  151.66   26.97
   3   4  -2  179.42   25.68
  -3  -4   2  154.74   19.39
  -3  -4   2  126.75   23.22
  -3  -4   2  149.37   25.83
  -3  -4   2  167.71   22.94
   3   4  -2  124.45   23.27
  -3  -4   2  149.24   23.54
   3   4  -2  214.43   28.62
  -3  -4   2  127.59   26.38
   3   4  -2  171.74   26.00
   2   4  -2  203.85   25.99
  -2  -4   2  199.17   27.03
  -2  -4   2  215.46   23.79
  -2  -4   2  152.07   23.87
  -2  -4   2  196.58   25.11
   2   4  -2  248.33   26.30
  -2  -4   2  208.16   27.64
   2   4  -2  248.24   26.92
  -2  -4   2  261.62   26.81
   2   4  -2  221.28   24.60
   2   4  -2  234.43   27.53
   1   4  -2   48.07   15.81
  -1  -4   2   58.64   18.09
   1   4  -2   57.24   17.93
   1   4  -2   57.76   18.88
  -1  -4   2   99.00   20.93
   1   4  -2   45.18   16.84
  -1  -4   2   66.92   17.22
   1   4  -2   63.66   18.77
  -1  -4   2  114.72   20.23
   1   4  -2   41.48   18.08
  -1  -4   2  102.17   19.41
  -1  -4   2   47.30   17.67
  -1  -4   2   96.08   17.85
   0   4  -2 1454.30   69.41
   0  -4   2 1353.52   70.74
   0  -4   2 1320.80   70.18
   0  -4   2 1344.00   67.84
   0  -4   2 1395.79   69.49
   0   4  -2 1366.49   66.99
   0   4  -2 1468.58   70.28
   0   4  -2 1436.56   69.85
   1  -4   2   10.57   16.66
   1  -4   2   36.78   17.09
   1  -4   2   37.85   16.59
   1  -4   2   45.76   17.94
  -1   4  -2   37.79   16.16
   1  -4   2   73.51   19.09
   1  -4   2   46.92   16.03
  -1   4  -2   44.59   16.58
   1  -4   2   54.19   15.99
  -1   4  -2    2.11   13.85
  -1   4  -2   32.72   16.54
  -2   4  -2   10.82   17.38
  -2   4  -2   38.75   14.88
  -2   4  -2   43.91   15.93
   2  -4   2   16.92   17.58
   2  -4   2   39.62   16.20
   2  -4   2    1.96   16.43
   2  -4   2   39.20   16.97
  -2   4  -2   45.18   17.60
  -2   4  -2   60.79   17.20
   2  -4   2   68.17   19.28
  -3   4  -2   40.78   18.74
   3  -4   2   45.70   18.27
   3  -4   2   34.50   21.56
   3  -4   2   42.33   18.28
   3  -4   2   20.06   18.72
  -3   4  -2   18.11   14.82
  -3   4  -2   31.27   17.30
  -3   4  -2    5.83   18.71
   3  -4   2   59.22   21.07
  -4   4  -2 1244.36   69.83
   4  -4   2 1306.57   77.08
   4  -4   2 1387.16   76.84
   4  -4   2 1387.79   72.17
  -4   4  -2 1281.87   69.70
  -4   4  -2 1334.44   63.40
  -4   4  -2 1369.45   72.93
   4  -4   2 1291.74   75.09
   4  -4   2 1309.77   74.76
   4  -4   2 1457.30   74.69
  -5   4  -2  645.59   44.49
   5  -4   2  654.74   47.26
   5  -4   2  575.90   50.96
  -5   4  -2  554.69   46.38
   5  -4   2  596.30   51.38
   5  -4   2  591.54   52.59
   5  -4   2  454.73   47.58
   6  -4   2   -4.85   24.83
  -6   4  -2   35.64   24.23
   6  -4   2   35.37   28.49
   6  -4   2   16.07   25.06
  -6   4  -2   97.73   28.93
   6  -4   2   35.43   29.82
   7   3  -2   42.86   30.80
  -7  -3   2   22.70   29.63
   7   3  -2   47.07   30.31
  -7  -3   2   61.03   35.27
   7   3  -2   76.32   31.71
   7   3  -2   11.03   28.63
   6   3  -2   78.41   28.75
  -6  -3   2   59.86   20.69
   6   3  -2   71.43   27.02
   6   3  -2   87.64   30.07
   6   3  -2   63.24   27.58
  -6  -3   2   45.19   24.49
  -6  -3   2   45.66   30.61
   5   3  -2  415.62   44.08
   5   3  -2  366.91   41.03
   5   3  -2  427.75   40.87
  -5  -3   2  537.98   48.36
  -5  -3   2  419.85   39.49
   5   3  -2  500.07   45.54
   5   3  -2  382.54   39.58
   4   3  -2  300.69   34.06
   4   3  -2  280.41   31.84
   4   3  -2  228.05   30.37
  -4  -3   2  210.22   28.56
  -4  -3   2  246.54   27.11
   4   3  -2  237.16   28.69
  -4  -3   2  301.07   31.21
  -4  -3   2  251.57   33.60
  -4  -3   2  284.23   29.35
   4   3  -2  258.49   31.55
  -4  -3   2  261.07   21.46
   3   3  -2  336.41   30.66
   3   3  -2  302.57   30.67
   3   3  -2  265.66   28.66
  -3  -3   2  313.99   29.14
  -3  -3   2  275.39   28.28
  -3  -3   2  295.29   23.58
  -3  -3   2  327.68   28.91
  -3  -3   2  332.88   30.87
  -3  -3   2  289.51   27.16
   3   3  -2  340.21   30.48
  -3  -3   2  287.78   28.66
  -3  -3   2  305.38   31.48
   3   3  -2  303.79   28.07
   2   3  -2   -9.25   10.91
  -2  -3   2    6.89   13.20
  -2  -3   2  -12.35   11.71
  -2  -3   2   -0.02   12.46
  -2  -3   2   -4.89   15.37
  -2  -3   2    8.10   14.99
   2   3  -2    7.79   12.78
   2   3  -2  -14.77   14.53
   2   3  -2   15.45   15.65
  -2  -3   2    2.29   12.92
   2   3  -2  -16.35   12.33
   2   3  -2   23.87   14.60
  -2  -3   2   -6.43   13.80
  -2  -3   2   -2.41   13.91
  -2  -3   2   -4.02   12.69
   2   3  -2   -1.61   14.10
   1   3  -2 3460.47  144.86
   1   3  -2 3502.48  146.42
   1   3  -2 3556.45  147.49
  -1  -3   2 3531.32  145.59
   1   3  -2 3319.24  147.84
   1   3  -2 3381.94  145.61
   1   3  -2 3553.48  144.23
  -1  -3   2 2898.19  143.61
  -1  -3   2 3426.51  146.55
  -1  -3   2 3524.96  146.71
  -1  -3   2 3500.24  149.14
   1   3  -2 3449.13  144.76
  -1  -3   2 3519.39  147.86
  -1  -3   2 3720.18  146.51
   0  -3   2   -3.58   12.14
   0   3  -2  -12.49   12.18
   0   3  -2   14.41   13.24
   0  -3   2   14.68   13.39
   0   3  -2   13.95   11.83
   0  -3   2    5.18   11.68
   0  -3   2   -5.22   11.15
   0  -3   2   -6.38   11.49
   0   3  -2    4.73   11.68
   0   3  -2   -5.23   11.69
   0  -3   2  -19.25   11.80
  -1   3  -2  152.68   19.31
   1  -3   2  174.40   21.09
   1  -3   2  164.77   20.24
  -1   3  -2  160.39   18.88
  -1   3  -2  168.90   19.22
  -1   3  -2  129.68   18.12
  -1   3  -2  153.29   19.80
  -1   3  -2  192.85   17.84
   1  -3   2  152.84   19.70
   1  -3   2  154.15   20.38
  -1   3  -2  154.86   17.26
   1  -3   2  149.71   19.29
  -2   3  -2 1561.10   71.83
  -2   3  -2 1572.21   74.08
  -2   3  -2 1602.46   73.33
  -2   3  -2 1590.64   68.86
  -2   3  -2 1595.67   73.01
  -2   3  -2 1498.01   71.94
   2  -3   2 1582.91   73.60
   2  -3   2 1557.77   72.65
   2  -3   2 1525.09   74.30
   2  -3   2 1556.80   74.17
   2  -3   2 1653.29   76.84
   2  -3   2 1458.85   74.57
   3  -3   2  502.79   34.82
   3  -3   2  437.00   31.54
   3  -3   2  442.28   34.39
   3  -3   2  407.65   33.49
  -3   3  -2  417.69   25.75
  -3   3  -2  507.08   37.02
  -3   3  -2  411.26   30.54
  -3   3  -2  319.64   29.20
   3  -3   2  444.82   36.59
  -3   3  -2  467.06   33.48
   3  -3   2  437.12   33.02
   4  -3   2  165.62   25.84
  -4   3  -2  152.73   21.36
  -4   3  -2  132.86   21.98
   4  -3   2   96.48   24.73
   4  -3   2  125.63   25.38
   4  -3   2  187.02   26.74
  -4   3  -2  155.71   25.31
   4  -3   2  159.71   22.47
   4  -3   2  115.70   23.22
  -5   3  -2  342.94   35.18
   5  -3   2  304.74   33.67
   5  -3   2  325.90   32.71
  -5   3  -2  305.41   30.15
   5  -3   2  349.66   37.46
   5  -3   2  241.04   35.69
   5  -3   2  314.95   37.59
   5  -3   2  270.26   36.41
  -5   3  -2  299.38   30.41
   6  -3   2   45.20   26.54
  -6   3  -2   41.60   21.28
   6  -3   2   44.96   26.61
   6  -3   2   79.51   26.42
   6  -3   2   43.18   22.66
  -6   3  -2   54.32   24.19
   6  -3   2  -11.41   22.55
   6  -3   2   14.96   24.14
  -7   3  -2  218.92   32.84
   7  -3   2  214.89   40.13
   7  -3   2  149.85   35.89
   7  -3   2  234.51   39.17
   7  -3   2  199.67   39.53
   7   2  -2   67.71   32.93
  -7  -2   2   58.06   28.24
   7   2  -2   76.37   23.11
   7   2  -2   50.23   29.85
   7   2  -2   81.83   30.23
  -7  -2   2   97.97   37.79
   7   2  -2   94.85   31.57
   6   2  -2  192.02   35.19
   6   2  -2  129.84   32.01
  -6  -2   2  129.45   34.19
   6   2  -2  147.00   23.46
  -6  -2   2  171.26   31.73
   6   2  -2  188.46   31.45
   6   2  -2  167.56   33.64
  -5  -2   2  560.84   53.25
   5   2  -2  799.34   51.55
   5   2  -2  802.89   55.24
   5   2  -2  809.09   55.23
  -5  -2   2  791.29   41.94
  -5  -2   2  744.43   49.46
   5   2  -2  638.57   48.45
   5   2  -2  736.58   44.41
   5   2  -2  830.88   56.86
   4   2  -2   13.92   18.24
   4   2  -2    7.54   17.88
  -4  -2   2   10.44   15.89
  -4  -2   2    1.22   19.50
   4   2  -2    8.77   16.05
   4   2  -2   28.01   19.95
  -4  -2   2   29.78   17.69
   4   2  -2   14.24   15.51
  -4  -2   2   10.29   17.14
   4   2  -2   13.36   14.07
   4   2  -2   23.81   19.70
  -3  -2   2  482.72   38.28
   3   2  -2  478.83   37.86
  -3  -2   2  525.28   35.86
  -3  -2   2  554.14   30.47
   3   2  -2  497.34   36.17
  -3  -2   2  516.32   36.15
   3   2  -2  476.58   35.85
   3   2  -2  503.99   38.13
   3   2  -2  473.84   31.12
   3   2  -2  508.72   34.34
  -3  -2   2  448.55   33.76
   3   2  -2  536.16   34.32
  -3  -2   2  516.90   32.20
   3   2  -2  501.40   36.15
  -3  -2   2  479.99   33.32
   3   2  -2  526.68   35.76
  -3  -2   2  535.95   35.45
   2   2  -2  424.51   32.04
  -2  -2   2  483.56   30.61
   2   2  -2  488.06   34.27
  -2  -2   2  498.34   33.88
  -2  -2   2  498.44   32.59
  -2  -2   2  475.72   34.77
   2   2  -2  524.37   34.64
  -2  -2   2  498.34   32.02
  -2  -2   2  501.57   32.94
   2   2  -2  505.41   32.71
   2   2  -2  512.41   33.37
  -2  -2   2  505.66   33.15
   2   2  -2  504.95   32.00
  -2  -2   2  523.12   30.54
  -2  -2   2  475.66   29.37
   2   2  -2  497.51   29.82
   1   2  -2 2583.16  116.03
  -1  -2   2 2732.55  118.72
   1   2  -2 2704.73  117.35
  -1  -2   2 2707.34  119.69
  -1  -2   2 2885.24  117.88
  -1  -2   2 2831.05  117.92
   1   2  -2 2811.01  118.45
  -1  -2   2 2824.80  117.54
   1   2  -2 2866.74  120.22
   1   2  -2 2848.85  115.51
  -1  -2   2 2727.55  115.59
   1   2  -2 2676.59  116.43
  -1  -2   2 2767.54  116.49
   1   2  -2 2771.90  116.09
   0   2  -2  317.82   22.61
   0  -2   2  289.49   20.76
   0  -2   2  307.76   22.07
   0   2  -2  277.88   20.68
   0  -2   2  280.29   24.55
   0   2  -2  284.74   18.86
   0   2  -2  285.21   21.48
   0   2  -2  292.32   21.92
   0  -2   2  272.08   23.22
   0  -2   2  299.40   22.51
   0  -2   2  327.02   21.69
   0   2  -2  293.47   20.06
   0  -2   2  306.63   21.83
   0   2  -2  274.37   23.90
  -1   2  -2  341.08   24.06
  -1   2  -2  314.45   21.82
   1  -2   2  337.40   23.92
  -1   2  -2  331.11   19.47
   1  -2   2  354.13   24.40
   1  -2   2  347.46   22.91
   1  -2   2  348.85   22.15
  -1   2  -2  315.61   22.18
  -1   2  -2  333.50   23.49
  -1   2  -2  340.81   20.08
   1  -2   2  347.40   23.44
  -1   2  -2  329.04   22.62
   2  -2   2  280.95   23.59
  -2   2  -2  270.76   21.28
   2  -2   2  295.64   23.66
   2  -2   2  290.23   24.20
   2  -2   2  314.96   25.37
   2  -2   2  295.62   20.87
  -2   2  -2  275.06   22.45
  -2   2  -2  310.65   21.59
  -2   2  -2  294.70   24.74
   2  -2   2  261.43   22.06
   2  -2   2  321.49   23.03
  -3   2  -2 2846.24  117.23
   3  -2   2 2930.92  122.04
   3  -2   2 2836.54  118.64
   3  -2   2 2692.19  119.30
  -3   2  -2 2775.67  117.74
   3  -2   2 2676.59  117.21
   3  -2   2 2744.24  120.32
  -3   2  -2 2773.68  118.63
   3  -2   2 2771.05  117.63
   3  -2   2 2686.72  119.60
  -4   2  -2  672.69   41.55
   4  -2   2  646.94   43.04
   4  -2   2  781.80   43.72
   4  -2   2  803.76   46.38
   4  -2   2  709.19   40.77
   4  -2   2  636.06   44.87
  -4   2  -2  696.02   39.69
   4  -2   2  665.27   43.56
   5  -2   2  540.60   39.84
  -5   2  -2  584.46   39.71
   5  -2   2  526.44   43.23
   5  -2   2  556.51   41.83
  -5   2  -2  579.34   38.26
   5  -2   2  494.68   42.88
   5  -2   2  586.30   46.61
   5  -2   2  599.14   44.16
   5  -2   2  628.81   46.39
   6  -2   2   88.20   24.56
   6  -2   2  109.41   28.99
   6  -2   2  108.21   28.28
  -6   2  -2  122.35   25.21
   6  -2   2  171.36   30.98
   6  -2   2   76.99   25.29
  -6   2  -2  103.19   21.60
   6  -2   2  113.72   26.40
   6  -2   2   91.60   24.96
   7  -2   2  148.49   32.01
  -7   2  -2  126.70   27.55
   7  -2   2  143.50   33.57
   7  -2   2  170.57   32.61
   7  -2   2  118.32   31.21
   7   1  -2   10.79   26.19
  -7  -1   2   33.05   27.33
   7   1  -2   45.59   30.75
   7   1  -2   60.81   31.03
   7   1  -2   90.85   25.37
  -7  -1   2   55.24   33.52
   7   1  -2   26.05   28.51
  -6  -1   2  192.95   29.08
  -6  -1   2  198.52   37.73
   6   1  -2  199.90   34.11
   6   1  -2  177.11   26.48
  -6  -1   2  253.17   33.91
   6   1  -2  215.76   37.11
   6   1  -2  277.10   38.05
   6   1  -2  205.64   31.51
   5   1  -2   42.35   24.06
   5   1  -2   22.59   17.99
  -5  -1   2   37.95   26.94
  -5  -1   2   62.25   23.71
   5   1  -2   21.80   18.16
   5   1  -2   38.47   23.98
   5   1  -2   10.84   24.09
   5   1  -2   21.82   20.86
   4   1  -2   22.98   14.29
  -4  -1   2   19.69   20.23
   4   1  -2    6.21   17.85
   4   1  -2    6.96   15.56
  -4  -1   2   18.76   16.32
  -4  -1   2    4.16   14.97
   4   1  -2   -3.80   17.77
   4   1  -2    3.90   17.11
   4   1  -2   -7.87   14.73
   4   1  -2   -3.03   14.06
   3   1  -2 1188.18   63.39
  -3  -1   2 1229.08   62.83
   3   1  -2 1103.07   55.90
   3   1  -2 1225.75   57.49
   3   1  -2 1123.76   59.97
   3   1  -2 1092.75   59.62
  -3  -1   2 1093.44   59.10
  -3  -1   2 1116.02   61.42
   3   1  -2 1259.18   62.20
  -3  -1   2 1117.57   56.83
  -3  -1   2 1102.22   62.55
   3   1  -2 1239.87   58.64
   3   1  -2 1223.33   60.02
  -3  -1   2 1248.43   60.49
  -3  -1   2 1205.78   55.85
  -3  -1   2 1165.26   59.06
   3   1  -2 1155.51   61.92
  -2  -1   2 1913.91   83.04
  -2  -1   2 1759.93   80.50
   2   1  -2 1878.27   84.71
   2   1  -2 1881.47   81.09
   2   1  -2 1948.69   82.61
  -2  -1   2 1940.90   83.69
  -2  -1   2 1896.81   84.52
   2   1  -2 1872.65   84.97
  -2  -1   2 1746.51   84.06
  -2  -1   2 1821.48   80.81
   2   1  -2 1805.88   82.51
   2   1  -2 1727.46   82.46
   2   1  -2 1858.55   84.20
  -2  -1   2 1874.05   85.18
   2   1  -2 1914.11   81.00
  -2  -1   2 1899.07   81.24
  -2  -1   2 1810.30   81.96
   2   1  -2 1754.18   81.44
  -1  -1   2 3141.21  126.03
   1   1  -2 3026.37  128.24
  -1  -1   2 3141.21  128.86
  -1  -1   2 3271.72  128.09
   1   1  -2 2806.22  125.62
  -1  -1   2 3055.06  128.39
   1   1  -2 2952.94  128.91
   1   1  -2 3123.21  125.57
  -1  -1   2 3267.64  127.56
  -1  -1   2 3145.38  127.39
   1   1  -2 3048.84  127.05
   1   1  -2 3003.12  126.53
   1   1  -2 2886.69  127.07
  -1  -1   2 3072.46  126.26
   1   1  -2 3057.12  129.75
  -1  -1   2 3082.38  129.87
   0  -1   2  120.71   13.44
   0   1  -2  156.58   14.18
   0   1  -2  127.37   12.13
   0  -1   2  124.64   13.30
   0  -1   2  145.52   13.19
   0  -1   2  131.31   14.36
   0   1  -2  151.64   11.93
   0  -1   2  113.45   14.72
   0   1  -2  120.84   12.44
   0  -1   2  162.20   14.29
   0   1  -2  161.76   16.06
   0  -1   2  160.56   13.34
  -1   1  -2 1664.56   69.17
  -1   1  -2 1593.01   68.56
   1  -1   2 1646.54   70.45
   1  -1   2 1665.36   69.22
  -1   1  -2 1639.94   69.74
   1  -1   2 1736.69   70.99
   1  -1   2 1606.34   68.89
   1  -1   2 1773.15   70.27
   1  -1   2 1749.82   70.61
   2  -1   2 1851.49   77.58
  -2   1  -2 1825.89   76.63
  -2   1  -2 1824.46   75.02
   2  -1   2 1791.20   76.75
   2  -1   2 1813.21   74.97
   2  -1   2 1818.91   76.27
  -2   1  -2 1787.90   75.45
   2  -1   2 1775.53   76.87
   2  -1   2 1831.32   77.07
  -3   1  -2  548.23   27.68
   3  -1   2  525.12   32.06
   3  -1   2  464.67   28.79
   3  -1   2  498.25   34.66
   3  -1   2  499.65   32.17
   3  -1   2  482.39   29.50
  -3   1  -2  574.74   28.70
  -3   1  -2  556.60   28.77
   3  -1   2  533.43   28.19
   3  -1   2  496.97   30.92
  -4   1  -2  164.44   16.91
   4  -1   2  135.43   19.73
   4  -1   2  178.09   23.12
   4  -1   2  159.73   19.46
   4  -1   2  146.66   21.16
  -4   1  -2  177.89   18.83
   4  -1   2  117.76   19.83
   4  -1   2  180.98   18.51
   4  -1   2  102.56   20.65
   4  -1   2  155.28   20.65
   5  -1   2  832.61   45.19
   5  -1   2  721.73   46.07
   5  -1   2  734.26   46.43
   5  -1   2  746.24   47.50
   5  -1   2  736.64   48.99
  -5   1  -2  813.87   43.06
  -5   1  -2  756.71   42.76
   5  -1   2  728.49   47.63
   5  -1   2  654.91   48.20
   6  -1   2  178.34   30.58
  -6   1  -2  156.71   25.43
   6  -1   2  118.61   28.80
   6  -1   2  147.45   29.19
   6  -1   2  130.78   24.98
  -6   1  -2  187.01   23.51
   6  -1   2  183.74   30.25
   6  -1   2  163.90   27.70
   6  -1   2  164.83   29.39
   7  -1   2   57.80   25.68
   7  -1   2  147.99   31.30
   7  -1   2  149.77   27.53
  -7   1  -2  116.05   24.05
   7  -1   2  128.28   30.41
   7  -1   2  146.50   27.83
   7  -1   2  131.50   33.62
   7   0  -2   37.84   30.87
   7   0  -2   11.71   26.56
   7   0  -2   -8.33   26.15
   7   0  -2   -7.94   22.15
  -7   0   2   16.83   26.08
   7   0  -2    8.97   27.82
  -7   0   2    5.34   31.53
  -6   0   2  100.41   32.75
   6   0  -2   95.86   30.38
   6   0  -2  141.77   27.84
   6   0  -2  100.35   29.13
   6   0  -2   84.40   24.08
  -6   0   2   92.21   27.79
   6   0  -2  113.53   30.82
   5   0  -2  151.12   25.08
   5   0  -2  117.99   25.08
   5   0  -2  139.23   28.44
   5   0  -2   98.88   29.22
   5   0  -2  190.04   31.74
   5   0  -2  165.39   27.22
  -5   0   2  180.63   28.09
  -5   0   2  135.37   32.16
  -4   0   2  656.42   40.64
  -4   0   2  672.44   44.12
   4   0  -2  764.16   43.70
   4   0  -2  650.25   45.19
  -4   0   2  601.69   48.12
   4   0  -2  627.73   41.43
   4   0  -2  672.24   46.93
   4   0  -2  682.30   41.02
   4   0  -2  713.08   47.23
   4   0  -2  710.99   47.11
  -3   0   2  265.11   27.84
   3   0  -2  318.93   27.76
   3   0  -2  246.62   25.86
   3   0  -2  269.49   23.82
   3   0  -2  275.96   21.74
   3   0  -2  229.92   26.33
  -3   0   2  294.70   25.85
   3   0  -2  239.54   26.69
   3   0  -2  217.55   27.17
  -3   0   2  273.55   23.37
  -3   0   2  287.90   26.51
  -3   0   2  202.22   27.67
   3   0  -2  291.73   23.84
  -3   0   2  278.30   26.44
   3   0  -2  300.15   25.78
   2   0  -2  566.25   31.58
   2   0  -2  498.24   30.50
   2   0  -2  491.24   28.84
   2   0  -2  423.22   31.70
  -2   0   2  489.20   33.92
  -2   0   2  489.28   31.68
   2   0  -2  512.36   32.19
   2   0  -2  493.29   30.92
   2   0  -2  508.26   31.82
  -2   0   2  566.65   32.39
   2   0  -2  495.74   26.70
  -2   0   2  540.70   29.75
   2   0  -2  436.80   32.92
  -2   0   2  500.06   30.92
  -2   0   2  507.60   32.97
  -2   0   2  511.18   30.38
  -2   0   2  489.28   32.26
   1   0  -2  219.51   18.42
  -1   0   2  239.36   18.74
   1   0  -2  210.19   17.85
  -1   0   2  225.75   18.08
   1   0  -2  215.93   16.20
  -1   0   2  192.79   12.76
  -1   0   2  219.30   18.90
  -1   0   2  202.17   17.03
   1   0  -2  193.96   16.71
  -1   0   2  223.20   18.99
  -1   0   2  220.33   19.44
   1   0  -2  202.75   18.32
   1   0  -2  241.66   19.55
  -1   0   2  190.94   16.26
  -1   0   2  181.52   19.85
   1   0  -2  233.05   20.23
   0   0  -2 2937.25  121.16
   0   0   2 3063.63  124.54
   0   0  -2 3098.58  119.86
   0   0   2 3096.48  120.79
   0   0   2 3045.02  125.28
   0   0   2 3024.38  120.82
   0   0   2 2995.29  121.15
   0   0  -2 2859.56  124.84
   0   0  -2 2914.58  120.50
   0   0   2 2963.05  120.22
   0   0   2 2968.85  120.92
   0   0   2 2987.55  121.78
   0   0  -2 3087.61  124.42
   1   0   2  203.38   17.91
   1   0   2  180.27   13.51
   2   0   2 3021.59  132.24
   3   0   2  460.38   25.19
   3   0   2  445.80   26.20
   3   0   2  457.53   31.68
   3   0   2  439.21   25.86
   3   0   2  462.81   22.57
   3   0   2  436.67   26.64
  -4   0  -2 1217.67   52.30
  -4   0  -2 1135.92   51.79
  -4   0  -2 1173.61   52.79
   4   0   2 1106.85   56.95
   4   0   2 1169.97   53.75
  -4   0  -2 1187.33   52.78
   4   0   2 1141.90   54.89
   4   0   2 1112.52   55.44
   4   0   2 1187.27   61.64
   4   0   2 1116.44   56.15
   4   0   2 1277.33   58.69
   5   0   2   69.01   19.48
   5   0   2   95.82   18.78
   5   0   2   43.80   19.26
   5   0   2   43.61   15.67
  -5   0  -2   72.02   13.69
  -5   0  -2   57.86   15.80
   5   0   2   57.16   17.50
   5   0   2   57.66   17.85
  -6   0  -2  375.56   30.58
   6   0   2  442.71   36.43
   6   0   2  343.36   34.66
   6   0   2  401.15   33.52
   6   0   2  335.33   35.35
   6   0   2  335.33   33.51
  -6   0  -2  366.46   29.56
   6   0   2  332.96   36.30
   7   0   2  252.66   36.43
   7   0   2  187.90   29.91
   7   0   2  224.32   30.57
   7   0   2  206.50   31.62
  -7   0  -2  197.45   24.29
   7   0   2  198.80   29.82
  -7   0  -2  219.64   27.76
   7   0   2  214.88   32.18
  -8   0  -2  316.72   32.46
   8   0   2  253.01   39.93
   8   0   2  314.57   40.52
   8   0   2  319.22   40.71
   8   0   2  244.63   46.73
   8   0   2  340.43   45.07
   7  -1  -2   48.50   28.12
   7  -1  -2   64.83   28.55
   7  -1  -2   75.17   31.75
   7  -1  -2   76.51   26.73
  -7   1   2  121.38   38.47
   7  -1  -2  103.97   36.23
  -7   1   2   87.52   31.24
   7  -1  -2   93.22   34.76
  -6   1   2  204.10   38.93
  -6   1   2  208.43   32.25
   6  -1  -2  192.57   35.23
   6  -1  -2  234.75   32.61
   6  -1  -2  137.72   29.34
   6  -1  -2  190.30   36.22
   6  -1  -2  127.65   32.49
   5  -1  -2  -12.04   22.51
  -5   1   2   20.63   27.76
  -5   1   2   16.33   21.51
   5  -1  -2    2.83   19.81
   5  -1  -2   28.19   21.39
   5  -1  -2    5.62   19.71
   5  -1  -2   31.40   23.88
   5  -1  -2  -32.98   23.68
   4  -1  -2  236.67   31.79
   4  -1  -2  276.47   28.37
   4  -1  -2  311.30   34.12
  -4   1   2  281.05   33.85
   4  -1  -2  255.94   30.43
   4  -1  -2  232.92   28.55
   4  -1  -2  339.88   33.74
  -4   1   2  297.08   28.57
  -4   1   2  312.31   30.69
  -3   1   2  922.47   48.27
   3  -1  -2  944.62   54.63
   3  -1  -2  906.24   51.66
   3  -1  -2  838.78   51.45
   3  -1  -2  917.74   51.68
  -3   1   2  944.79   55.89
   3  -1  -2  895.36   49.72
   3  -1  -2  976.95   49.65
   3  -1  -2 1000.47   51.71
  -3   1   2  927.21   51.69
  -3   1   2  862.62   50.90
  -3   1   2  906.43   49.84
   3  -1  -2  907.31   53.51
   2  -1  -2  209.88   22.50
  -2   1   2  242.26   23.76
  -2   1   2  232.68   20.26
   2  -1  -2  236.25   23.88
   2  -1  -2  226.99   22.35
  -2   1   2  215.78   21.04
   2  -1  -2  203.63   21.35
   2  -1  -2  252.00   20.56
  -2   1   2  199.87   24.05
   2  -1  -2  241.87   24.56
  -2   1   2  261.08   23.39
   2  -1  -2  232.91   21.54
  -2   1   2  255.94   22.88
   2  -1  -2  224.84   21.79
  -1   1   2 1568.81   70.71
   1  -1  -2 1512.37   70.37
  -1   1   2 1622.52   68.16
   1  -1  -2 1482.87   69.01
   1  -1  -2 1619.03   70.25
   1  -1  -2 1580.73   70.50
  -1   1   2 1466.24   69.73
   1  -1  -2 1546.88   68.31
   1  -1  -2 1622.74   69.47
   1  -1  -2 1437.64   70.35
  -1   1   2 1647.07   69.70
  -1   1   2 1598.19   69.30
   1  -1  -2 1637.45   67.71
  -1   1   2 1631.74   71.90
   1  -1  -2 1548.78   61.31
   1  -1  -2 1545.36   68.01
  -1   1   2 1671.28   71.14
   0  -1  -2 1022.45   43.37
   0   1   2 1043.51   44.51
   0  -1  -2 1083.24   42.73
   0   1   2 1026.77   43.46
   0   1   2  966.93   46.89
   0   1   2  991.00   46.56
   0  -1  -2 1036.75   43.72
   0  -1  -2  944.09   44.98
   0   1   2 1040.17   43.39
   0  -1  -2 1012.94   47.08
   0  -1  -2 1007.23   44.04
   0  -1  -2 1056.01   44.78
   0   1   2  998.28   45.54
   0   1   2  991.47   44.57
   0   1   2  962.32   43.83
   0   1   2 1004.98   44.52
   0  -1  -2  968.74   47.00
   0   1   2 1000.65   44.99
  -1  -1  -2   31.59    9.15
   1   1   2    5.81    8.14
  -1  -1  -2   42.73   11.24
   1   1   2   27.62    6.67
   1   1   2   46.64   10.93
   1   1   2   44.91    9.39
   2   1   2 2394.87   99.33
   2   1   2 2317.20  104.18
  -2  -1  -2 2357.78  104.65
   3   1   2   23.02    8.43
  -3  -1  -2   22.17   13.87
   3   1   2   28.20    9.65
   3   1   2   14.95   13.37
   3   1   2   34.08    9.76
   3   1   2   28.46   10.16
   4   1   2  389.89   28.64
   4   1   2  405.46   26.07
  -4  -1  -2  442.27   24.32
  -4  -1  -2  444.76   34.92
   4   1   2  440.35   27.63
  -4  -1  -2  424.89   23.19
   4   1   2  464.00   30.32
   4   1   2  430.59   28.90
   4   1   2  456.97   25.49
   4   1   2  416.24   32.25
  -5  -1  -2   30.69   20.86
   5   1   2   18.39   17.75
   5   1   2   19.62   16.31
   5   1   2   45.13   14.25
  -5  -1  -2   30.70   12.98
   5   1   2   43.86   16.64
   5   1   2    8.27   15.91
   5   1   2   25.46   15.00
  -5  -1  -2   32.09   11.78
   5   1   2   45.68   17.94
  -6  -1  -2  384.74   30.31
   6   1   2  426.22   37.09
   6   1   2  463.51   38.37
   6   1   2  428.59   34.64
   6   1   2  424.35   37.54
  -6  -1  -2  428.09   30.75
   6   1   2  422.13   39.06
   6   1   2  392.12   44.14
   6   1   2  446.77   38.01
   7   1   2   54.23   27.20
   7   1   2  -15.89   18.10
   7   1   2   53.01   23.27
   7   1   2   34.91   24.47
  -7  -1  -2   45.96   19.33
   7   1   2   38.89   24.07
  -7  -1  -2   36.44   17.80
   7   1   2   51.71   30.11
  -7  -1  -2   47.18   17.88
   8   1   2  209.17   30.35
   8   1   2  231.90   35.99
   8   1   2  279.79   38.12
   8   1   2  247.89   44.29
   8   1   2  268.63   41.17
   7  -2  -2   15.73   25.50
   7  -2  -2   23.33   31.50
   6  -2  -2   63.48   29.28
  -6   2   2   54.09   33.69
   6  -2  -2   73.74   31.40
  -6   2   2   49.65   24.83
  -6   2   2   73.48   28.20
   6  -2  -2   81.82   25.62
   6  -2  -2   23.84   25.83
   6  -2  -2   64.92   29.85
   5  -2  -2  950.56   66.28
   5  -2  -2 1039.76   67.59
  -5   2   2  939.22   67.63
  -5   2   2  935.49   61.06
   5  -2  -2 1089.55   63.56
   5  -2  -2  979.54   63.67
   5  -2  -2 1019.53   66.41
   5  -2  -2 1007.79   58.65
   4  -2  -2  116.88   28.22
  -4   2   2  102.04   28.02
   4  -2  -2   96.29   20.12
   4  -2  -2  103.80   22.14
   4  -2  -2   85.22   24.03
   4  -2  -2  128.71   25.36
   4  -2  -2  108.07   24.49
  -4   2   2  104.69   21.33
  -4   2   2  100.44   23.47
   4  -2  -2   65.10   24.86
   3  -2  -2  551.78   40.66
  -3   2   2  483.18   34.15
  -3   2   2  537.19   42.57
  -3   2   2  537.84   36.60
   3  -2  -2  451.45   38.04
   3  -2  -2  587.75   38.00
   3  -2  -2  563.48   35.94
  -3   2   2  586.47   39.45
   3  -2  -2  495.86   37.64
   3  -2  -2  507.55   33.17
   3  -2  -2  491.18   38.70
  -3   2   2  609.95   39.65
   2  -2  -2   12.49   11.22
  -2   2   2   35.87   16.51
   2  -2  -2   57.85   16.29
  -2   2   2   39.99   13.40
   2  -2  -2   20.95   13.62
  -2   2   2   29.16   14.87
   2  -2  -2   29.00   14.09
   2  -2  -2   17.26   15.94
   2  -2  -2   39.65   12.76
   2  -2  -2   33.21   15.75
  -2   2   2   39.97   15.17
  -2   2   2   11.79   12.99
  -2   2   2   37.02   16.17
   2  -2  -2   19.24   15.86
   1  -2  -2  827.12   41.09
  -1   2   2  796.41   42.23
  -1   2   2  703.13   42.07
  -1   2   2  801.80   39.99
   1  -2  -2  807.55   41.90
  -1   2   2  795.51   44.26
   1  -2  -2  838.98   44.44
  -1   2   2  725.66   40.34
   1  -2  -2  848.14   43.60
   1  -2  -2  775.99   42.83
  -1   2   2  901.55   43.38
  -1   2   2  816.19   36.01
   0  -2  -2  522.92   25.61
   0  -2  -2  512.56   26.95
   0   2   2  514.33   30.25
   0  -2  -2  510.15   29.44
   0  -2  -2  501.07   29.91
   0   2   2  485.53   26.52
   0  -2  -2  495.20   25.13
   0   2   2  564.81   29.06
   0   2   2  492.36   28.36
   0  -2  -2  472.71   27.23
   0   2   2  499.60   29.38
   0  -2  -2  514.23   26.71
   0  -2  -2  457.95   28.27
   0   2   2  519.73   27.73
  -1  -2  -2   30.22   10.05
  -1  -2  -2   13.21   10.05
  -1  -2  -2   31.82    7.49
   1   2   2   28.88    7.36
   1   2   2   46.30   11.28
  -1  -2  -2   42.08    8.08
   1   2   2   25.66    9.49
   1   2   2   39.45    9.75
  -1  -2  -2   20.85    8.02
   1   2   2   26.52    8.54
  -1  -2  -2   21.42   12.11
   1   2   2   35.93    7.34
   1   2   2   20.60    8.65
   1   2   2   32.42   10.76
  -2  -2  -2 2887.58  128.61
   2   2   2 2969.21  119.59
   2   2   2 2831.17  126.30
   2   2   2 2993.24  118.77
  -2  -2  -2 2892.55  126.22
  -2  -2  -2 2958.74  121.86
   2   2   2 2930.25  119.25
   2   2   2 2952.87  119.56
   2   2   2 3068.61  121.61
   3   2   2  733.71   32.88
   3   2   2  658.83   35.94
  -3  -2  -2  719.07   31.85
   3   2   2  704.99   42.00
   3   2   2  739.45   35.31
   3   2   2  716.65   35.86
  -3  -2  -2  700.35   41.65
   3   2   2  699.69   33.05
   3   2   2  690.07   35.62
   4   2   2  376.77   28.42
   4   2   2  368.93   26.54
   4   2   2  383.27   27.37
   4   2   2  423.04   26.90
   4   2   2  414.78   33.64
   4   2   2  356.07   24.80
  -4  -2  -2  392.61   22.95
   4   2   2  356.06   22.33
  -4  -2  -2  379.13   21.90
  -4  -2  -2  363.72   31.11
   4   2   2  398.99   24.32
  -4  -2  -2  368.87   22.92
   5   2   2   38.93   16.43
   5   2   2   35.46   17.24
   5   2   2   13.28   19.09
  -5  -2  -2   36.65   13.77
   5   2   2   27.62   16.53
   5   2   2   22.28   14.18
  -5  -2  -2   63.83   21.26
   5   2   2   39.18   18.16
   5   2   2   26.01   16.94
  -5  -2  -2   38.43   12.81
   6   2   2   14.47   20.95
   6   2   2   29.77   19.38
   6   2   2   25.88   17.81
   6   2   2   43.13   25.97
  -6  -2  -2   39.67   24.65
   6   2   2   27.44   23.90
   6   2   2   10.30   18.68
  -6  -2  -2   28.77   15.26
   6   2   2   -7.83   19.84
  -6  -2  -2   24.75   15.90
   7   2   2  390.77   36.54
  -7  -2  -2  364.65   30.20
   7   2   2  355.85   39.10
   7   2   2  321.79   44.27
  -7  -2  -2  351.76   30.18
  -7  -2  -2  367.73   30.68
   7   2   2  395.55   38.72
   7   2   2  394.14   42.87
   7   2   2  356.19   28.78
   7   2   2  382.09   39.01
   8   2   2   -6.47   28.36
   8   2   2    7.95   29.12
   8   2   2    4.03   15.24
   8   2   2   10.07   25.46
   8   2   2   -6.73   21.73
   6  -3  -2  489.67   51.40
   6  -3  -2  565.31   54.06
   6  -3  -2  412.15   47.31
  -6   3   2  375.96   51.45
  -6   3   2  473.44   46.38
   6  -3  -2  453.95   44.94
   6  -3  -2  406.12   50.43
   5  -3  -2   43.01   26.61
  -5   3   2   84.39   27.35
  -5   3   2   87.83   32.44
   5  -3  -2   73.71   29.95
   5  -3  -2   71.60   24.74
   5  -3  -2   96.32   30.40
   5  -3  -2   78.05   28.58
   4  -3  -2   23.36   23.60
   4  -3  -2   44.12   25.60
  -4   3   2   27.89   19.37
   4  -3  -2   14.27   22.86
   4  -3  -2   43.25   21.10
   4  -3  -2   15.41   22.24
  -4   3   2  -28.26   23.23
  -4   3   2    9.77   21.11
   4  -3  -2   36.25   19.50
   3  -3  -2 1791.41   89.59
   3  -3  -2 1958.43   87.15
   3  -3  -2 1732.52   81.62
  -3   3   2 1775.09   88.04
  -3   3   2 1778.80   85.16
   3  -3  -2 1777.04   92.55
  -3   3   2 1850.42   93.14
   3  -3  -2 1845.30   90.79
   2  -3  -2 1207.42   63.59
  -2   3   2 1060.74   57.63
   2  -3  -2 1108.25   58.04
   2  -3  -2 1162.54   62.11
  -2   3   2 1104.52   55.96
  -2   3   2 1083.23   52.27
  -2   3   2 1258.29   60.72
   2  -3  -2 1104.56   58.73
  -2   3   2 1051.13   61.70
   2  -3  -2 1144.23   56.04
  -2   3   2  864.28   58.67
   2  -3  -2 1102.54   59.32
  -2   3   2 1198.68   60.83
  -1   3   2  -14.49   11.03
  -1   3   2  -17.99   12.39
   1  -3  -2    3.46   13.76
   1  -3  -2   10.20   14.30
   1  -3  -2    9.31   13.08
  -1   3   2   34.16   13.41
  -1   3   2   -1.01   13.79
   1  -3  -2   31.57   13.50
   1  -3  -2    7.75   10.70
  -1   3   2    8.40   13.68
  -1   3   2   22.18   11.33
   1  -3  -2    2.12   10.88
  -1   3   2   -8.48   12.35
   0   3   2 2116.35   91.51
   0  -3  -2 2081.37   92.55
   0   3   2 2124.65   90.26
   0   3   2 2148.33   92.56
   0   3   2 2200.94   93.45
   0   3   2 2042.70   91.44
   0  -3  -2 2151.98   89.22
   0  -3  -2 2075.98   94.04
   0  -3  -2 2070.09   92.00
   0  -3  -2 2148.13   90.62
   0   3   2 2082.00   93.69
   0  -3  -2 1979.19   90.81
  -1  -3  -2  255.18   19.63
   1   3   2  267.21   20.91
   1   3   2  265.45   21.86
   1   3   2  269.80   19.85
  -1  -3  -2  281.30   17.35
  -1  -3  -2  252.51   20.47
  -1  -3  -2  253.91   21.51
   1   3   2  267.50   22.25
   1   3   2  280.30   20.05
  -1  -3  -2  296.61   21.86
   1   3   2  273.25   20.80
  -1  -3  -2  295.16   18.03
  -1  -3  -2  240.01   19.36
  -1  -3  -2  292.73   21.11
  -2  -3  -2 5319.45  217.98
   2   3   2 5366.21  216.60
   2   3   2 5125.53  214.75
   2   3   2 5302.33  223.47
   2   3   2 5244.33  217.02
   2   3   2 5400.41  215.71
   2   3   2 5536.32  215.06
  -2  -3  -2 5189.01  214.63
  -2  -3  -2 5632.14  213.75
   2   3   2 5457.41  214.64
   2   3   2 5231.33  216.08
  -2  -3  -2 5411.02  214.27
  -2  -3  -2 5526.18  223.68
  -3  -3  -2    2.09    8.76
   3   3   2   14.55   13.93
  -3  -3  -2   -1.44   14.18
   3   3   2    9.52   12.08
   3   3   2   -3.37   10.37
  -3  -3  -2  -12.96   13.17
   3   3   2   14.72   11.84
   3   3   2   15.75   11.98
  -3  -3  -2   -4.96    7.29
   3   3   2   13.80    9.49
   3   3   2   -5.62    9.40
  -3  -3  -2    1.77    8.99
  -3  -3  -2  -12.00    9.31
   4   3   2   20.76   14.56
  -4  -3  -2    2.16   15.58
  -4  -3  -2   31.52   10.62
   4   3   2   15.35   12.51
  -4  -3  -2   16.87   10.98
   4   3   2   19.24   13.83
   4   3   2    9.17   12.56
   4   3   2   -8.30   14.57
  -4  -3  -2    7.47   10.41
   4   3   2    4.96   12.86
   4   3   2   17.80   13.61
   4   3   2   22.64   11.95
   5   3   2 1133.06   61.21
   5   3   2 1189.32   67.46
   5   3   2 1164.43   56.53
  -5  -3  -2 1127.22   64.40
   5   3   2 1103.65   60.12
   5   3   2  995.92   57.53
   5   3   2 1167.80   60.97
   5   3   2 1159.31   59.33
  -5  -3  -2 1060.78   53.62
   6   3   2   94.97   29.37
   6   3   2  108.61   25.40
  -6  -3  -2  127.78   28.99
   6   3   2  166.65   26.71
   6   3   2  161.51   28.41
   6   3   2  147.73   23.56
  -6  -3  -2  162.52   21.78
  -6  -3  -2  149.55   20.90
   6   3   2   96.54   24.02
   6   3   2  149.01   28.70
   7   3   2   72.61   29.51
  -7  -3  -2  186.69   32.99
   7   3   2   83.18   25.30
   7   3   2   64.23   23.00
   7   3   2   62.83   29.08
   7   3   2   33.51   23.85
  -7  -3  -2   77.51   20.18
   7   3   2   93.95   28.45
  -7  -3  -2   81.39   19.05
  -7  -3  -2  102.73   20.96
   8   3   2  -10.87   23.97
   8   3   2   24.95   30.26
  -8  -3  -2    3.84   31.20
   8   3   2    2.79   23.48
   8   3   2   -8.88   28.90
   6  -4  -2  319.05   47.31
   6  -4  -2  323.87   45.86
  -6   4   2  317.10   44.02
   6  -4  -2  322.54   41.53
  -6   4   2  354.55   52.69
   6  -4  -2  422.69   50.54
   6  -4  -2  537.93   55.83
   5  -4  -2   27.71   27.98
  -5   4   2   41.33   25.40
  -5   4   2   46.02   31.92
   5  -4  -2    5.72   25.80
   5  -4  -2   26.39   25.24
   5  -4  -2  -27.56   22.66
   5  -4  -2   23.08   28.27
  -4   4   2  248.69   33.82
   4  -4  -2  191.04   36.05
  -4   4   2  187.29   37.26
  -4   4   2  216.35   30.98
   4  -4  -2  276.84   33.42
   4  -4  -2  233.23   34.49
   4  -4  -2  168.86   35.34
   3  -4  -2  250.93   31.91
  -3   4   2  241.56   30.81
  -3   4   2  215.77   34.41
   3  -4  -2  291.28   36.48
   3  -4  -2  235.22   33.75
  -3   4   2  265.57   29.82
  -2   4   2  596.82   41.98
  -2   4   2  530.23   36.74
   2  -4  -2  479.73   38.58
  -2   4   2  539.88   35.57
  -2   4   2  585.94   44.33
   2  -4  -2  572.31   37.19
  -2   4   2  549.71   39.28
   2  -4  -2  515.46   38.32
   2  -4  -2  457.59   40.15
   1  -4  -2  823.18   50.28
   1  -4  -2  996.43   49.27
   1  -4  -2  927.41   51.79
  -1   4   2  935.96   49.77
  -1   4   2 1036.25   55.08
   1  -4  -2  908.22   54.89
  -1   4   2  977.27   54.26
  -1   4   2  893.24   51.29
  -1   4   2  911.13   52.05
  -1   4   2  964.79   47.46
   1  -4  -2  785.89   51.81
  -1   4   2  892.61   54.63
   0  -4  -2 1299.42   64.22
   0   4   2 1258.26   63.12
   0   4   2 1245.40   61.29
   0   4   2 1382.55   63.79
   0   4   2 1243.05   63.98
   0  -4  -2 1264.85   64.42
   0  -4  -2 1271.79   59.61
   0  -4  -2 1202.02   62.36
   0   4   2 1286.01   65.83
   0   4   2 1330.73   65.29
   0  -4  -2 1192.86   61.20
   1   4   2   -1.84   12.27
   1   4   2    9.00   13.18
   1   4   2   21.14   12.77
  -1  -4  -2   -6.75    7.67
  -1  -4  -2  -12.95   11.17
  -1  -4  -2    1.19   10.56
  -1  -4  -2   10.23   10.83
   1   4   2  -18.47   11.35
  -1  -4  -2  -16.72    8.57
   1   4   2    6.69   11.89
  -1  -4  -2   -1.06   11.63
   1   4   2    8.40   12.91
  -1  -4  -2    8.27   13.38
   2   4   2  654.30   34.52
  -2  -4  -2  600.33   30.00
   2   4   2  552.91   35.79
  -2  -4  -2  599.42   34.62
   2   4   2  583.52   36.78
  -2  -4  -2  604.44   30.71
  -2  -4  -2  588.28   33.62
  -2  -4  -2  633.71   34.75
  -2  -4  -2  572.86   28.15
  -2  -4  -2  575.24   33.93
   2   4   2  568.25   28.89
   2   4   2  599.28   37.26
   2   4   2  595.64   34.78
  -2  -4  -2  596.15   38.05
  -2  -4  -2  608.98   33.76
   3   4   2  -24.23    9.26
   3   4   2  -12.10   13.64
   3   4   2   -9.60   13.98
  -3  -4  -2    8.51   14.87
   3   4   2    9.80   15.81
  -3  -4  -2   -9.04   10.90
   3   4   2    5.18   11.53
   3   4   2   23.45   13.99
  -3  -4  -2   -8.36   11.65
   3   4   2   -3.57   14.09
  -3  -4  -2   -5.03    9.03
   4   4   2  268.49   24.66
  -4  -4  -2  243.42   22.39
   4   4   2  310.16   24.79
   4   4   2  280.51   26.37
   4   4   2  276.80   27.55
   4   4   2  259.24   26.60
   4   4   2  256.65   30.71
   4   4   2  259.49   27.72
   4   4   2  225.88   24.15
  -4  -4  -2  265.68   31.49
  -4  -4  -2  273.98   29.13
  -4  -4  -2  260.02   22.22
   5   4   2  269.33   29.40
   5   4   2  239.69   28.37
   5   4   2  238.54   29.79
   5   4   2  237.95   33.36
  -5  -4  -2  271.84   31.70
   5   4   2  282.26   28.91
   5   4   2  253.79   26.90
  -5  -4  -2  225.22   24.57
  -5  -4  -2  238.46   23.45
   5   4   2  309.56   30.15
  -6  -4  -2  353.49   31.62
  -6  -4  -2  439.76   34.09
   6   4   2  389.03   38.32
   6   4   2  351.31   43.30
   6   4   2  497.76   41.67
  -6  -4  -2  466.51   42.67
   6   4   2  462.51   40.99
   6   4   2  407.39   38.25
   6   4   2  435.78   42.13
   6   4   2  479.51   38.11
  -7  -4  -2   20.82   18.08
   7   4   2    2.03   26.98
   7   4   2   28.39   21.99
   7   4   2   -3.33   22.11
   7   4   2    4.05   26.59
  -7  -4  -2   62.15   28.51
  -7  -4  -2    7.30   19.11
   7   4   2   22.72   23.02
   8   4   2   -9.95   24.76
  -8  -4  -2   35.18   31.20
   8   4   2    5.96   30.40
  -8  -4  -2   17.16   20.90
   8   4   2    6.01   24.49
   8   4   2   -6.82   31.19
   5  -5  -2   32.05   27.11
  -5   5   2  -24.64   24.16
   5  -5  -2   -7.02   28.52
   5  -5  -2   -7.71   27.43
  -5   5   2  -22.87   30.71
   5  -5  -2   40.55   30.66
  -4   5   2  125.11   34.34
  -4   5   2  132.38   28.94
   4  -5  -2  167.88   35.64
  -4   5   2  127.96   29.73
   4  -5  -2   91.00   30.05
   4  -5  -2  103.25   32.01
  -3   5   2  211.41   38.39
  -3   5   2  286.31   32.24
  -3   5   2  272.10   33.78
   3  -5  -2  258.43   38.24
  -3   5   2  256.36   35.79
   3  -5  -2  308.75   38.00
   3  -5  -2  224.72   34.09
  -2   5   2  157.87   26.20
   2  -5  -2  124.05   27.90
   2  -5  -2  145.23   26.88
  -2   5   2  169.09   28.34
   2  -5  -2   90.31   23.74
  -2   5   2  103.82   22.44
  -2   5   2  120.95   29.85
   1  -5  -2   66.16   20.18
   1  -5  -2   50.66   21.20
  -1   5   2   33.92   20.28
  -1   5   2   58.63   18.02
   1  -5  -2   53.10   20.43
  -1   5   2   69.97   21.13
  -1   5   2   61.34   19.72
  -1   5   2   49.34   22.15
   0  -5  -2 1440.28   76.30
   0   5   2 1425.73   75.18
   0  -5  -2 1484.69   73.08
   0   5   2 1481.21   77.98
   0  -5  -2 1513.80   75.70
   0  -5  -2 1477.96   75.09
   0   5   2 1511.67   77.52
   0   5   2 1550.41   73.59
   0   5   2 1608.56   76.05
   1   5   2  308.40   31.36
   1   5   2  348.52   28.92
  -1  -5  -2  297.73   28.52
  -1  -5  -2  322.54   31.16
  -1  -5  -2  268.74   27.23
  -1  -5  -2  266.03   21.50
   1   5   2  398.81   32.27
   1   5   2  334.18   29.79
   1   5   2  332.16   29.05
   2   5   2  873.11   48.99
   2   5   2  867.43   50.08
  -2  -5  -2  856.58   46.48
  -2  -5  -2  771.72   38.46
  -2  -5  -2  827.53   46.12
  -2  -5  -2  840.73   50.81
   2   5   2  760.34   45.34
   2   5   2  818.46   46.16
  -2  -5  -2  839.18   45.81
  -2  -5  -2  848.81   42.22
  -2  -5  -2  781.90   46.54
  -3  -5  -2  549.54   30.57
  -3  -5  -2  480.14   39.49
  -3  -5  -2  590.85   36.04
   3   5   2  544.30   36.00
  -3  -5  -2  528.12   31.61
  -3  -5  -2  572.60   35.08
   3   5   2  619.11   39.30
  -3  -5  -2  532.52   30.32
  -3  -5  -2  531.66   37.16
   3   5   2  513.97   39.34
   3   5   2  518.26   37.91
   3   5   2  548.55   32.35
  -4  -5  -2  440.05   40.06
  -4  -5  -2  419.78   33.63
  -4  -5  -2  441.54   30.90
   4   5   2  436.80   35.78
   4   5   2  446.50   30.84
  -4  -5  -2  404.88   32.14
   4   5   2  452.37   33.59
   4   5   2  398.91   34.09
   4   5   2  392.53   36.44
   4   5   2  339.57   38.77
   4   5   2  461.27   37.48
   5   5   2   73.13   23.28
   5   5   2   80.06   22.07
  -5  -5  -2  110.89   21.05
  -5  -5  -2   96.74   21.20
   5   5   2   94.14   25.45
   5   5   2   83.91   28.11
  -5  -5  -2   68.24   26.94
   5   5   2  109.61   24.70
   5   5   2  104.94   25.23
   5   5   2  108.89   22.69
  -6  -5  -2   50.01   20.34
   6   5   2   39.01   22.45
  -6  -5  -2   32.35   26.08
   6   5   2   15.12   22.49
   6   5   2   62.26   24.30
   6   5   2   27.70   22.11
  -6  -5  -2   42.07   19.25
   6   5   2   44.54   27.35
   6   5   2  -11.16   21.28
   6   5   2   25.45   24.60
   7   5   2   40.56   30.38
  -7  -5  -2   63.89   22.68
   7   5   2   58.70   27.40
  -7  -5  -2  109.28   32.71
   7   5   2   39.48   24.19
   7   5   2   62.77   32.75
  -4   6   2   20.65   33.41
   4  -6  -2   18.71   26.25
  -4   6   2   27.62   25.77
   4  -6  -2   31.85   29.42
   4  -6  -2   56.68   31.64
  -4   6   2   13.48   26.36
   3  -6  -2   17.27   25.62
   3  -6  -2   27.06   24.30
  -3   6   2   18.49   23.37
  -3   6   2    0.19   22.02
   3  -6  -2   10.56   24.74
  -3   6   2    3.06   26.71
  -3   6   2   -7.58   23.17
  -2   6   2  879.10   65.08
   2  -6  -2  854.38   60.02
  -2   6   2  935.09   56.14
   2  -6  -2  797.10   61.32
   2  -6  -2  911.83   59.58
  -2   6   2  855.31   59.13
  -2   6   2  740.69   53.53
   1  -6  -2 1790.28   90.67
  -1   6   2 1840.89   91.12
  -1   6   2 1861.98   94.02
  -1   6   2 1887.32   88.19
   1  -6  -2 1694.27   93.72
  -1   6   2 1749.40   96.33
   1  -6  -2 1866.30   93.60
   0   6   2   57.53   22.48
   0   6   2   47.50   25.27
   0  -6  -2   38.30   21.78
   0  -6  -2   54.62   20.72
   0  -6  -2   71.55   23.96
   0   6   2   97.01   24.45
   0   6   2   68.39   23.22
   1   6   2   13.07   18.63
  -1  -6  -2  -21.59   12.59
  -1  -6  -2   15.09   17.86
  -1  -6  -2    7.87   17.51
   1   6   2    7.41   20.61
   1   6   2   29.73   19.94
   1   6   2   13.73   18.74
   2   6   2  366.23   33.07
   2   6   2  353.92   32.53
  -2  -6  -2  282.53   31.74
   2   6   2  386.75   35.30
  -2  -6  -2  348.72   36.71
  -2  -6  -2  355.84   32.57
   2   6   2  227.07   32.19
  -2  -6  -2  321.00   22.96
   2   6   2  306.83   32.81
  -2  -6  -2  284.15   29.63
  -2  -6  -2  331.51   27.07
   3   6   2  611.59   46.72
  -3  -6  -2  650.89   42.39
  -3  -6  -2  724.53   38.17
   3   6   2  611.74   43.73
   3   6   2  653.86   47.14
   3   6   2  668.23   44.20
  -3  -6  -2  599.47   34.66
  -3  -6  -2  553.22   42.41
  -3  -6  -2  667.48   43.84
  -3  -6  -2  596.64   38.87
   3   6   2  561.81   44.80
  -4  -6  -2   61.51   21.14
   4   6   2   69.58   18.63
  -4  -6  -2   65.72   14.91
   4   6   2   84.20   23.46
   4   6   2   66.85   22.42
   4   6   2   54.65   25.26
  -4  -6  -2   89.28   23.69
   4   6   2   75.00   24.00
  -4  -6  -2  117.22   22.35
   4   6   2   32.57   22.38
  -4  -6  -2   72.14   14.55
   5   6   2   23.68   23.84
   5   6   2   35.79   26.40
   5   6   2    4.07   21.52
  -5  -6  -2   -4.57   18.58
   5   6   2    3.93   21.27
  -5  -6  -2   14.13   26.10
   5   6   2   -9.18   19.03
  -5  -6  -2   46.77   19.40
   5   6   2   -4.86   20.77
  -5  -6  -2  -36.06   20.25
   6   6   2   89.26   29.58
  -6  -6  -2   51.72   22.87
   6   6   2   14.92   23.86
   6   6   2   51.79   24.73
   6   6   2   59.36   25.55
   6   6   2   12.29   25.82
  -6  -6  -2   50.18   21.62
  -6  -6  -2   61.52   28.83
   6   6   2   56.71   24.39
   7   6   2  318.03   41.73
   7   6   2  351.41   50.03
  -7  -6  -2  445.63   38.28
   7   6   2  347.14   46.40
   7   6   2  363.39   44.08
   4  -7  -2    1.38   32.07
   4  -7  -2   30.54   30.74
  -4   7   2   61.44   36.04
   4  -7  -2   13.08   31.61
  -4   7   2    7.51   30.04
  -3   7   2  356.37   43.80
  -3   7   2  341.61   49.36
   3  -7  -2  317.80   45.19
   3  -7  -2  445.00   48.41
   3  -7  -2  327.38   47.95
  -3   7   2  320.02   41.59
  -2   7   2  260.98   35.82
   2  -7  -2  204.07   35.78
  -2   7   2  174.94   34.62
   2  -7  -2  270.86   37.54
   2  -7  -2  179.74   36.07
  -2   7   2  244.28   42.21
   1  -7  -2  351.20   40.90
  -1   7   2  247.02   35.76
  -1   7   2  341.17   37.35
  -1   7   2  266.27   37.48
   1  -7  -2  218.22   36.86
   1  -7  -2  290.15   36.99
  -1   7   2  336.25   42.99
   0   7   2   36.88   24.87
   0   7   2   21.15   25.77
   0  -7  -2    2.15   23.45
   0   7   2    5.17   22.33
   0  -7  -2   19.34   22.65
   0  -7  -2   -2.42   22.01
  -1  -7  -2  605.51   41.30
   1   7   2  703.22   55.57
   1   7   2  642.93   50.68
   1   7   2  688.88   47.89
  -1  -7  -2  597.56   47.85
   1   7   2  677.87   54.23
  -1  -7  -2  707.74   51.76
  -2  -7  -2   59.04   17.33
   2   7   2   94.54   26.72
  -2  -7  -2   90.01   25.75
  -2  -7  -2   43.05   19.66
  -2  -7  -2   35.28   22.57
   2   7   2   54.45   24.42
   2   7   2   76.99   28.50
   3   7   2  217.98   32.69
  -3  -7  -2  271.16   32.36
  -3  -7  -2  247.74   23.21
  -3  -7  -2  254.57   31.23
   3   7   2  307.34   35.30
   3   7   2  256.52   35.43
   3   7   2  212.72   33.83
  -3  -7  -2  228.01   30.02
  -3  -7  -2  217.93   25.95
   4   7   2   -7.10   24.13
  -4  -7  -2   -5.35   18.38
   4   7   2   22.09   24.88
  -4  -7  -2   -0.42   22.98
   4   7   2  -15.03   21.43
  -4  -7  -2  -15.88   15.49
   4   7   2   -7.60   17.61
   4   7   2   27.96   23.35
  -4  -7  -2  -13.08   15.53
  -4  -7  -2  -20.89   16.03
   5   7   2  331.51   43.12
   5   7   2  436.47   36.80
   5   7   2  421.81   42.44
  -5  -7  -2  406.84   40.11
   5   7   2  336.76   39.64
   5   7   2  346.13   40.07
  -5  -7  -2  357.75   35.63
   6   7   2   29.84   29.63
  -6  -7  -2  -16.33   20.71
  -6  -7  -2  -17.05   27.52
   6   7   2  -17.90   23.28
   6   7   2  -15.75   22.75
  -6  -7  -2  -14.32   22.56
   6   7   2   44.58   24.77
   7   7   2  120.18   38.66
  -7  -7  -2  119.30   38.58
   7   7   2  179.19   36.57
  -2   8   2  102.26   30.88
   2  -8  -2  177.30   36.82
   2  -8  -2  145.40   38.49
  -2   8   2  157.78   35.69
   2  -8  -2  135.79   35.75
  -2   8   2  190.22   41.89
  -1   8   2  512.78   54.96
   1  -8  -2  487.46   49.67
   1  -8  -2  458.37   50.10
   1  -8  -2  469.28   49.12
  -1   8   2  452.82   49.73
  -1   8   2  565.41   48.12
   0  -8  -2  146.19   30.62
   0   8   2  190.12   38.42
   0  -8  -2  211.20   36.15
   0  -8  -2  212.42   32.51
   0  -8  -2  245.93   36.99
   0   8   2  188.01   32.26
   0   8   2  219.28   38.17
  -1  -8  -2   -0.91   24.18
  -1  -8  -2   -0.14   24.24
   1   8   2    8.04   27.27
   1   8   2  -11.02   22.71
  -1  -8  -2  -18.44   17.17
   2   8   2   25.52   26.82
   2   8   2   28.54   24.98
  -2  -8  -2  -23.43   20.61
  -2  -8  -2    4.81   16.83
  -2  -8  -2  -37.51   21.37
  -2  -8  -2   15.46   21.24
   2   8   2   29.92   26.26
   3   8   2  130.89   29.93
   3   8   2  166.79   33.61
   3   8   2  136.59   32.85
  -3  -8  -2  170.56   21.98
  -3  -8  -2  185.58   30.28
  -3  -8  -2  185.28   31.99
   3   8   2  148.03   33.41
  -3  -8  -2  116.28   25.27
  -3  -8  -2  142.38   29.68
  -4  -8  -2  409.19   35.70
   4   8   2  409.79   42.98
  -4  -8  -2  426.53   42.26
   4   8   2  449.23   46.10
  -4  -8  -2  390.31   35.73
   4   8   2  447.31   47.96
  -4  -8  -2  395.87   40.16
  -4  -8  -2  459.13   32.57
   5   8   2  211.50   30.10
  -5  -8  -2  120.87   29.85
   5   8   2  163.03   34.14
   5   8   2  141.30   32.93
  -5  -8  -2  173.96   32.82
   6   8   2   -7.64   24.88
   6   8   2    9.06   27.14
  -6  -8  -2   -7.99   32.06
   6   8   2   21.11   32.75
  -6  -8  -2  -26.32   28.48
   1  -9  -2   56.55   33.01
  -1   9   2   88.69   32.71
   1  -9  -2   73.07   33.31
   1  -9  -2   96.91   32.60
  -1   9   2   87.26   35.76
   1  -9  -2   38.39   29.04
  -1   9   2   61.37   36.91
   0  -9  -2  587.10   55.21
   0   9   2  590.57   62.00
   0  -9  -2  824.47   63.75
   0  -9  -2  660.02   51.52
   0  -9  -2  773.58   62.69
   1   9   2   -5.20   26.97
  -1  -9  -2   37.15   22.85
   1   9   2   28.95   30.02
  -1  -9  -2    6.80   28.60
  -1  -9  -2   28.82   27.83
  -2  -9  -2  -32.08   26.74
  -2  -9  -2   41.87   28.02
   2   9   2   13.06   28.66
   2   9   2   43.24   31.33
   2   9   2   16.19   24.75
  -2  -9  -2   24.82   19.58
   3   9   2   -1.65   26.56
   3   9   2   29.08   29.86
  -3  -9  -2    4.91   28.28
   3   9   2   38.64   30.25
  -3  -9  -2   31.40   19.17
  -3  -9  -2   70.11   29.92
  -3  -9  -2   37.36   27.93
   4   9   2  454.42   49.42
  -4  -9  -2  514.65   42.74
  -4  -9  -2  467.62   35.58
   4   9   2  472.57   52.23
  -4  -9  -2  596.06   52.33
   4   9   2  424.43   53.58
  -4  -9  -2  438.14   46.75
  -3  -8   3   12.84   29.04
   3   8  -3   71.59   32.81
   3   8  -3   10.04   28.74
  -3  -8   3   45.81   29.50
   3   8  -3   24.46   29.02
  -3  -8   3   33.27   34.64
  -3  -8   3   42.24   30.90
   2   8  -3   27.51   29.60
   2   8  -3   13.02   26.05
   2   8  -3   22.85   28.43
  -2  -8   3   27.43   30.43
  -2  -8   3   39.46   28.71
  -2  -8   3   -7.50   26.60
  -2  -8   3   41.71   28.97
   1   8  -3  263.83   41.69
  -1  -8   3  409.80   48.33
   1   8  -3  329.41   44.49
  -1  -8   3  317.34   41.37
  -1  -8   3  402.76   47.15
  -1  -8   3  307.61   42.65
   1   8  -3  341.96   41.09
   0   8  -3  151.82   33.24
   0   8  -3  147.81   36.03
   0  -8   3  186.58   39.64
   0  -8   3  195.00   36.37
   0  -8   3  231.11   42.01
   0  -8   3  163.70   36.59
   1  -8   3  139.57   39.53
   1  -8   3  165.77   36.91
  -1   8  -3  114.12   35.29
   1  -8   3  145.22   33.95
   1  -8   3  193.12   39.09
  -1   8  -3  139.44   34.64
   2  -8   3   43.73   33.10
   2  -8   3   30.90   36.92
  -2   8  -3   27.26   29.26
   2  -8   3    9.38   27.10
  -2   8  -3  -20.55   28.39
   2  -8   3   -3.53   28.16
  -5  -7   3   10.57   29.45
  -5  -7   3    7.55   33.40
   5   7  -3   13.90   30.77
   5   7  -3  -35.64   27.66
   5   7  -3  -16.84   28.37
  -5  -7   3   11.83   28.59
  -4  -7   3  122.55   33.96
  -4  -7   3  161.25   34.74
  -4  -7   3  109.60   32.64
  -4  -7   3  160.94   39.80
   4   7  -3  154.85   36.75
   4   7  -3  132.11   35.66
  -3  -7   3  211.06   35.75
  -3  -7   3  171.65   32.67
   3   7  -3  108.14   31.38
  -3  -7   3   91.34   34.66
   3   7  -3  216.03   36.72
  -3  -7   3  135.10   32.93
   3   7  -3  166.05   33.70
   2   7  -3  339.36   41.63
  -2  -7   3  374.92   45.33
  -2  -7   3  353.78   40.92
  -2  -7   3  358.52   42.55
   2   7  -3  327.11   41.85
   2   7  -3  273.04   37.12
  -2  -7   3  336.24   40.05
   1   7  -3  160.36   31.93
  -1  -7   3  164.94   30.89
   1   7  -3  126.66   31.36
  -1  -7   3  121.00   32.68
  -1  -7   3  133.57   30.70
  -1  -7   3  206.33   34.54
   1   7  -3  165.30   30.38
   0   7  -3  435.68   43.40
   0  -7   3  398.44   44.96
   0   7  -3  413.35   45.33
   0  -7   3  439.77   47.00
   0  -7   3  470.93   48.37
   0  -7   3  424.65   44.83
   1  -7   3  517.80   48.24
  -1   7  -3  552.11   44.35
   1  -7   3  597.85   54.83
  -1   7  -3  499.84   46.50
  -1   7  -3  411.71   46.75
   1  -7   3  465.06   49.33
   1  -7   3  584.00   53.90
  -2   7  -3  527.53   47.68
   2  -7   3  535.04   55.89
   2  -7   3  473.37   49.16
  -2   7  -3  546.79   43.79
  -2   7  -3  569.82   51.84
   2  -7   3  444.73   48.53
   2  -7   3  505.07   52.05
   3  -7   3   91.15   32.45
   3  -7   3   75.33   30.43
  -3   7  -3   77.26   31.40
  -3   7  -3   33.18   26.30
   3  -7   3   80.00   32.33
  -4   7  -3  -24.25   30.07
  -4   7  -3  -19.60   24.77
   4  -7   3  -44.20   26.41
   4  -7   3  -10.52   28.96
   4  -7   3   -0.24   26.46
  -5  -6   3  120.21   38.85
   5   6  -3   98.70   32.10
  -5  -6   3   61.57   27.84
   5   6  -3   88.57   33.78
   5   6  -3   77.28   31.84
  -5  -6   3   30.62   27.07
  -5  -6   3   53.86   29.78
   4   6  -3  290.62   38.25
  -4  -6   3  316.90   39.34
  -4  -6   3  389.12   47.61
   4   6  -3  322.17   43.16
  -4  -6   3  313.02   32.83
  -4  -6   3  271.05   36.97
   4   6  -3  282.25   39.63
  -4  -6   3  304.47   39.24
   3   6  -3   44.60   25.01
  -3  -6   3   93.60   27.09
  -3  -6   3   -5.11   21.73
  -3  -6   3   59.11   25.08
   3   6  -3   16.68   25.92
  -3  -6   3   57.29   30.46
  -2  -6   3   38.76   24.42
   2   6  -3   87.73   28.37
   2   6  -3   82.59   28.62
   2   6  -3   89.52   26.74
  -2  -6   3   56.73   25.96
  -2  -6   3  114.93   28.03
  -2  -6   3  103.34   32.13
   2   6  -3   89.22   27.07
  -1  -6   3   -7.11   21.38
  -1  -6   3    0.03   22.12
   1   6  -3   -4.29   21.70
   1   6  -3   10.18   23.27
  -1  -6   3   12.99   23.92
   1   6  -3   26.39   21.84
  -1  -6   3   33.26   22.32
   0  -6   3 1705.43   87.14
   0  -6   3 1613.17   88.26
   0  -6   3 1646.18   90.80
   0   6  -3 1689.00   86.54
   0  -6   3 1630.72   86.67
   0  -6   3 1602.60   90.42
   0   6  -3 1580.78   87.79
   1  -6   3  291.37   37.78
  -1   6  -3  282.22   31.75
  -1   6  -3  330.78   35.32
   1  -6   3  277.77   36.30
   1  -6   3  272.72   35.82
   1  -6   3  289.04   40.67
  -1   6  -3  262.01   36.36
   1  -6   3  300.28   38.50
   2  -6   3   10.07   22.85
  -2   6  -3    6.72   19.27
   2  -6   3  -15.74   23.89
   2  -6   3   49.47   28.92
   2  -6   3   21.74   25.95
  -2   6  -3  -15.82   19.64
  -2   6  -3    7.71   24.49
   2  -6   3   12.54   22.44
  -3   6  -3    1.42   23.89
  -3   6  -3   -1.84   19.70
   3  -6   3   19.42   24.80
  -3   6  -3   -1.59   18.21
   3  -6   3    2.91   23.12
   3  -6   3    3.27   22.61
   3  -6   3   -9.58   21.51
   4  -6   3  979.00   64.81
   4  -6   3  876.44   65.02
   4  -6   3  769.15   63.00
  -4   6  -3  917.66   61.55
  -4   6  -3  906.85   58.19
   5  -6   3   18.12   28.02
   5  -6   3    9.13   26.95
  -5   6  -3   72.16   31.09
   5  -6   3   17.99   30.29
  -6  -5   3    9.49   27.24
  -6  -5   3   24.35   27.04
   6   5  -3   23.96   30.17
   6   5  -3   -4.33   29.82
  -6  -5   3   32.63   35.99
   6   5  -3    7.25   27.56
  -5  -5   3  273.61   38.86
   5   5  -3  289.42   42.28
   5   5  -3  414.00   47.14
   5   5  -3  360.14   43.18
  -5  -5   3  284.30   39.68
  -5  -5   3  397.08   30.52
  -5  -5   3  451.84   50.37
  -5  -5   3  356.68   38.45
  -4  -5   3    2.65   23.45
  -4  -5   3   42.52   18.33
   4   5  -3   -8.38   23.56
  -4  -5   3   47.43   29.83
   4   5  -3   54.19   26.51
  -4  -5   3   31.63   24.09
   4   5  -3   54.31   28.07
  -4  -5   3   10.17   22.92
   3   5  -3  214.46   35.43
  -3  -5   3  220.41   31.45
   3   5  -3  340.74   36.25
   3   5  -3  203.30   32.49
  -3  -5   3  335.45   31.68
  -3  -5   3  180.05   32.16
  -3  -5   3  205.86   29.95
   3   5  -3  211.46   32.19
  -3  -5   3  263.98   37.96
   2   5  -3  181.95   28.23
  -2  -5   3  153.05   27.95
  -2  -5   3  169.77   32.49
  -2  -5   3  166.11   28.26
   2   5  -3  207.40   31.14
   2   5  -3  198.47   30.12
  -2  -5   3  161.63   28.63
  -1  -5   3  302.29   31.53
  -1  -5   3  270.29   34.00
   1   5  -3  267.74   31.62
   1   5  -3  244.57   31.63
   1   5  -3  209.26   27.85
  -1  -5   3  182.08   30.35
  -1  -5   3  270.99   32.67
  -1  -5   3  304.86   32.29
   1   5  -3  274.10   31.52
   0  -5   3  145.57   26.92
   0   5  -3   76.99   23.00
   0  -5   3   93.39   23.02
   0   5  -3  109.22   23.47
   0  -5   3   96.96   25.47
   0  -5   3  115.31   24.31
   1  -5   3  102.87   23.82
   1  -5   3   94.40   22.28
  -1   5  -3   77.16   21.68
  -1   5  -3  105.45   21.01
   1  -5   3  116.99   29.60
   1  -5   3   97.59   24.03
  -1   5  -3  111.93   24.41
  -1   5  -3   44.76   20.60
   1  -5   3   96.01   24.89
  -1   5  -3   95.58   24.54
   1  -5   3  114.19   25.56
   2  -5   3    5.91   22.34
   2  -5   3   -2.38   19.10
  -2   5  -3   18.09   18.04
   2  -5   3    6.22   19.78
  -2   5  -3   35.70   16.84
  -2   5  -3  -12.80   19.96
   2  -5   3   11.48   22.08
  -2   5  -3    5.24   17.83
   2  -5   3   30.65   20.98
  -3   5  -3  116.45   23.90
   3  -5   3   73.45   23.84
  -3   5  -3   92.98   26.76
   3  -5   3  118.77   27.18
  -3   5  -3  139.85   20.76
   3  -5   3   75.81   26.88
   3  -5   3  120.14   26.71
  -3   5  -3   79.23   22.62
   3  -5   3  124.47   28.33
   4  -5   3  116.76   30.26
  -4   5  -3  183.48   31.04
   4  -5   3  190.77   32.97
  -4   5  -3  136.54   25.46
   4  -5   3  168.07   29.55
  -4   5  -3  162.98   27.66
   4  -5   3  136.03   30.52
  -5   5  -3  315.11   38.15
   5  -5   3  414.56   43.45
   5  -5   3  374.61   44.18
  -5   5  -3  295.62   34.32
   5  -5   3  372.32   42.05
   6  -5   3   65.53   33.07
   6  -5   3   84.92   32.53
   6  -5   3   93.39   35.31
  -6  -4   3  -35.74   31.33
   6   4  -3   19.29   25.81
  -6  -4   3  -27.89   23.19
  -6  -4   3    6.08   22.64
   6   4  -3  -26.55   26.18
   6   4  -3   23.36   30.30
  -5  -4   3  441.12   39.07
   5   4  -3  407.81   46.14
  -5  -4   3  374.06   31.27
  -5  -4   3  305.73   38.28
  -5  -4   3  329.25   41.07
   5   4  -3  306.16   39.66
  -5  -4   3  444.21   48.38
   5   4  -3  417.41   43.75
   4   4  -3  212.53   32.70
  -4  -4   3  209.68   36.48
  -4  -4   3  266.81   24.91
   4   4  -3  196.34   32.56
  -4  -4   3  188.50   32.15
  -4  -4   3  161.07   28.62
  -4  -4   3  176.36   31.42
   4   4  -3  187.46   34.78
  -4  -4   3  144.30   28.51
  -3  -4   3   11.67   18.61
  -3  -4   3    8.40   19.10
  -3  -4   3    7.82   22.90
  -3  -4   3    6.15   19.32
   3   4  -3   10.86   19.42
   3   4  -3   -1.26   19.77
   3   4  -3   25.38   20.49
   3   4  -3   -1.87   21.62
  -3  -4   3   -2.07   18.44
  -3  -4   3    8.66   16.26
  -2  -4   3   35.11   20.93
   2   4  -3   47.32   19.16
  -2  -4   3   25.28   18.56
   2   4  -3   68.24   21.29
  -2  -4   3   80.25   20.86
  -2  -4   3   59.88   19.55
   2   4  -3   52.17   19.81
   2   4  -3   75.57   22.20
  -2  -4   3   40.25   18.13
  -2  -4   3   83.42   21.76
  -2  -4   3   18.89   20.53
  -1  -4   3  352.28   32.19
   1   4  -3  341.02   30.71
  -1  -4   3  341.99   30.31
  -1  -4   3  276.53   31.15
  -1  -4   3  275.88   30.97
  -1  -4   3  296.60   29.33
   1   4  -3  335.16   33.69
   1   4  -3  364.62   32.06
  -1  -4   3  333.39   31.33
   1   4  -3  272.21   30.04
   0  -4   3  318.50   31.25
   0  -4   3  296.55   29.35
   0  -4   3  388.22   31.17
   0   4  -3  310.60   29.86
   0   4  -3  331.06   30.08
   0  -4   3  310.37   30.20
   0  -4   3  342.16   33.71
   0  -4   3  281.17   28.39
  -1   4  -3  209.42   24.00
   1  -4   3  203.07   24.54
   1  -4   3  204.24   25.11
  -1   4  -3  148.39   24.04
   1  -4   3  239.82   26.35
  -1   4  -3  209.27   21.03
   1  -4   3  190.18   26.39
  -1   4  -3  214.13   26.23
  -1   4  -3  225.52   24.67
   1  -4   3  214.62   28.97
  -2   4  -3   71.68   15.20
   2  -4   3   58.00   18.95
  -2   4  -3   67.05   17.82
   2  -4   3   78.93   21.48
  -2   4  -3   92.51   19.34
   2  -4   3   99.00   20.40
  -2   4  -3   62.30   20.21
  -2   4  -3   83.19   20.44
   2  -4   3   68.52   20.83
   2  -4   3   55.62   19.22
   3  -4   3 1229.75   68.85
  -3   4  -3 1324.25   65.60
   3  -4   3 1267.41   70.31
   3  -4   3 1331.16   68.06
   3  -4   3 1368.13   69.89
  -3   4  -3 1215.61   69.24
  -3   4  -3 1229.76   66.47
   3  -4   3 1210.90   68.55
  -3   4  -3 1255.09   64.02
   4  -4   3   50.96   22.99
   4  -4   3   27.94   20.39
   4  -4   3   41.72   23.53
  -4   4  -3   36.04   21.68
   4  -4   3   32.54   24.64
  -4   4  -3   55.82   19.86
   4  -4   3   79.81   22.68
  -4   4  -3   37.27   18.41
   5  -4   3  402.61   43.06
  -5   4  -3  433.91   36.40
   5  -4   3  489.21   40.05
  -5   4  -3  391.43   37.65
   5  -4   3  479.38   48.29
   5  -4   3  386.71   40.73
   5  -4   3  306.59   39.60
   5  -4   3  396.48   40.76
   6  -4   3   -7.02   24.66
  -6   4  -3    1.13   22.87
   6  -4   3   19.20   25.87
   6  -4   3  -10.76   25.04
   6  -4   3  -10.24   25.28
   7   3  -3   35.63   32.57
  -6  -3   3  171.54   41.89
  -6  -3   3  235.13   34.16
  -6  -3   3  243.34   25.83
   6   3  -3  262.48   38.99
   6   3  -3  211.29   37.06
   6   3  -3  159.62   36.96
  -5  -3   3   -6.38   26.99
   5   3  -3   -8.35   25.20
   5   3  -3   40.34   24.50
  -5  -3   3   13.46   20.87
   5   3  -3  -23.30   23.79
  -5  -3   3   34.92   24.09
  -5  -3   3   49.58   24.03
  -4  -3   3  113.33   24.73
  -4  -3   3  111.54   23.47
  -4  -3   3  143.20   31.56
  -4  -3   3  116.90   26.12
   4   3  -3  134.55   29.45
  -4  -3   3  189.46   27.39
   4   3  -3  116.43   27.31
  -4  -3   3  140.20   19.84
   4   3  -3  106.67   25.50
   4   3  -3   61.60   25.02
  -3  -3   3  553.66   38.61
   3   3  -3  460.01   39.23
  -3  -3   3  523.79   44.36
   3   3  -3  608.84   42.60
  -3  -3   3  566.13   41.71
  -3  -3   3  604.44   42.56
  -3  -3   3  487.95   35.58
   3   3  -3  600.45   39.11
  -3  -3   3  592.82   39.16
   3   3  -3  488.70   39.77
  -3  -3   3  549.31   39.53
   3   3  -3  512.43   42.47
  -2  -3   3 1631.20   83.46
  -2  -3   3 1564.80   82.27
   2   3  -3 1702.21   83.38
  -2  -3   3 1597.94   79.82
  -2  -3   3 1622.51   78.61
  -2  -3   3 1750.51   83.56
   2   3  -3 1738.56   79.75
  -2  -3   3 1847.78   82.45
   2   3  -3 1738.48   78.65
   2   3  -3 1578.07   81.67
   2   3  -3 1623.49   82.46
  -2  -3   3 1665.37   79.47
   2   3  -3 1513.95   79.68
  -2  -3   3 1879.54   82.66
  -1  -3   3  308.80   26.37
   1   3  -3  348.27   29.41
   1   3  -3  294.95   24.55
  -1  -3   3  312.96   27.95
  -1  -3   3  322.73   30.56
   1   3  -3  320.14   27.97
  -1  -3   3  362.17   29.60
  -1  -3   3  315.97   29.04
  -1  -3   3  313.06   29.72
  -1  -3   3  351.46   29.07
   1   3  -3  330.56   29.42
   1   3  -3  339.79   29.49
   0  -3   3  388.78   29.05
   0   3  -3  400.39   26.68
   0  -3   3  385.31   30.44
   0   3  -3  403.31   27.32
   0  -3   3  367.60   31.33
   0   3  -3  391.01   28.20
   0  -3   3  426.57   33.68
   0  -3   3  462.46   31.42
   0   3  -3  431.12   29.97
   0   3  -3  340.21   29.24
   0  -3   3  450.90   30.57
   0   3  -3  470.10   33.32
   0  -3   3  385.61   29.20
   0   3  -3  375.52   30.02
  -1   3  -3 2001.94   90.48
  -1   3  -3 1993.69   88.21
   1  -3   3 1991.92   91.84
   1  -3   3 2146.64   94.02
   1  -3   3 2149.35   91.78
  -1   3  -3 2010.29   90.08
   1  -3   3 2053.96   93.16
  -1   3  -3 2145.78   92.60
  -1   3  -3 2067.84   91.10
   1  -3   3 2098.82   93.05
  -1   3  -3 2012.61   87.43
  -1   3  -3 2102.47   91.94
   1  -3   3 2015.48   98.25
   1  -3   3 2139.17   94.62
   2  -3   3  934.45   51.88
   2  -3   3 1034.76   50.37
   2  -3   3  895.72   50.10
  -2   3  -3  947.78   50.82
  -2   3  -3  944.22   48.20
   2  -3   3  851.12   48.00
   2  -3   3  869.31   49.61
  -2   3  -3  846.93   45.86
  -2   3  -3  882.14   46.56
  -3   3  -3  -11.28   10.94
   3  -3   3    9.59   16.69
   3  -3   3    3.81   17.62
  -3   3  -3   -2.27   14.10
   3  -3   3    8.11   13.21
   3  -3   3   -9.01   12.99
   3  -3   3    1.42   15.33
  -3   3  -3   -1.07   13.65
   3  -3   3   -9.42   14.52
  -4   3  -3   80.99   17.66
   4  -3   3   86.35   24.57
   4  -3   3   96.62   19.54
   4  -3   3   48.18   20.70
   4  -3   3   65.51   22.27
  -4   3  -3   73.16   19.82
   4  -3   3   96.01   19.31
   4  -3   3   56.09   21.24
   5  -3   3  406.86   40.33
   5  -3   3  420.02   40.34
   5  -3   3  412.47   40.38
  -5   3  -3  411.96   34.30
  -5   3  -3  396.30   32.09
   5  -3   3  396.92   42.54
   5  -3   3  519.05   40.93
   5  -3   3  442.25   36.67
   6  -3   3  496.15   40.72
   6  -3   3  427.33   43.22
  -6   3  -3  381.82   33.45
   6  -3   3  410.99   42.54
  -6   3  -3  445.74   35.20
   6  -3   3  509.46   45.05
   6  -3   3  407.83   45.47
   7  -3   3   48.15   30.31
   7  -3   3   44.97   27.74
   7  -3   3   18.12   25.70
   7  -3   3   37.83   27.78
  -7  -2   3   84.23   38.27
   7   2  -3   47.44   25.06
   7   2  -3   33.19   28.60
   7   2  -3   50.82   32.81
  -7  -2   3   74.85   30.82
   7   2  -3   70.91   32.78
   7   2  -3   29.47   31.03
   6   2  -3  181.96   27.24
   6   2  -3  163.05   33.71
  -6  -2   3  179.58   39.94
   6   2  -3  121.79   29.16
  -6  -2   3  149.89   30.89
   6   2  -3  178.68   36.38
   6   2  -3  116.54   32.17
   5   2  -3   35.63   25.64
   5   2  -3  100.78   29.83
  -5  -2   3   29.69   28.03
  -5  -2   3   34.85   23.51
   5   2  -3   17.40   25.81
   5   2  -3   55.85   22.26
   5   2  -3   68.39   22.02
  -5  -2   3   66.40   23.42
   4   2  -3  572.47   48.22
  -4  -2   3  733.67   44.50
  -4  -2   3  626.40   44.78
   4   2  -3  644.07   41.25
   4   2  -3  646.19   48.34
  -4  -2   3  551.57   45.90
  -4  -2   3  592.02   39.76
   4   2  -3  655.43   46.52
  -4  -2   3  595.74   41.61
  -4  -2   3  646.51   51.54
   4   2  -3  637.68   47.50
   3   2  -3  136.09   22.96
   3   2  -3  159.73   24.06
  -3  -2   3  153.74   21.42
   3   2  -3  122.25   19.85
   3   2  -3  137.18   22.63
  -3  -2   3  153.27   19.46
   3   2  -3  146.60   25.01
  -3  -2   3  172.86   25.53
  -3  -2   3  137.28   23.99
  -3  -2   3  142.03   20.46
  -3  -2   3  110.36   24.22
  -3  -2   3  147.19   22.23
   3   2  -3  118.94   20.74
  -2  -2   3  741.38   40.73
   2   2  -3  680.60   44.32
   2   2  -3  728.83   43.24
   2   2  -3  687.23   45.07
   2   2  -3  740.40   42.33
  -2  -2   3  763.66   41.66
  -2  -2   3  697.38   40.75
  -2  -2   3  759.31   46.57
  -2  -2   3  673.24   43.81
  -2  -2   3  677.46   43.68
  -2  -2   3  799.09   44.31
   2   2  -3  713.29   40.41
  -2  -2   3  800.92   44.85
   2   2  -3  725.81   42.28
   2   2  -3  734.43   44.49
  -2  -2   3  737.51   42.96
   1   2  -3  272.13   22.72
  -1  -2   3  326.71   27.96
   1   2  -3  303.51   23.56
   1   2  -3  334.30   26.76
   1   2  -3  320.26   27.61
  -1  -2   3  322.77   26.55
  -1  -2   3  294.50   26.04
  -1  -2   3  320.78   28.02
  -1  -2   3  321.04   23.91
   1   2  -3  333.52   27.04
  -1  -2   3  317.25   26.58
   1   2  -3  299.19   25.09
  -1  -2   3  321.31   25.93
  -1  -2   3  301.67   24.71
   0   2  -3 1390.54   66.30
   0  -2   3 1462.73   70.98
   0  -2   3 1551.98   68.12
   0  -2   3 1512.84   67.73
   0  -2   3 1484.91   66.28
   0   2  -3 1479.91   71.67
   0   2  -3 1520.09   64.53
   0   2  -3 1504.61   67.57
   0   2  -3 1419.65   66.44
   0   2  -3 1423.66   65.32
   0   2  -3 1448.03   64.25
   0  -2   3 1438.35   66.85
   0  -2   3 1487.21   68.42
   0  -2   3 1418.46   66.54
   1  -2   3  465.63   28.76
  -1   2  -3  398.27   25.56
   1  -2   3  430.71   28.08
   1  -2   3  400.45   25.40
  -1   2  -3  430.55   28.07
  -1   2  -3  468.77   26.56
   1  -2   3  427.86   27.46
   1  -2   3  438.05   26.79
   1  -2   3  393.27   32.10
  -1   2  -3  430.87   26.77
   1  -2   3  422.44   27.38
   2  -2   3  322.30   28.66
   2  -2   3  326.35   24.95
   2  -2   3  332.33   25.70
   2  -2   3  369.34   25.52
   2  -2   3  346.74   24.05
  -2   2  -3  364.73   27.75
  -2   2  -3  341.97   23.04
  -2   2  -3  334.55   22.20
   2  -2   3  315.33   22.45
  -2   2  -3  356.62   22.21
   2  -2   3  378.68   27.23
  -3   2  -3  208.73   18.93
   3  -2   3  239.06   23.02
   3  -2   3  192.02   22.03
   3  -2   3  219.03   21.30
  -3   2  -3  226.50   17.97
  -3   2  -3  191.24   16.89
   3  -2   3  236.16   20.11
   3  -2   3  190.81   24.57
   3  -2   3  195.79   21.41
  -3   2  -3  243.60   25.62
  -3   2  -3  208.90   17.46
   3  -2   3  248.02   23.31
   4  -2   3  569.55   37.88
  -4   2  -3  563.05   32.25
  -4   2  -3  536.56   30.74
   4  -2   3  582.05   38.47
   4  -2   3  628.23   40.78
   4  -2   3  560.96   34.77
   4  -2   3  551.53   41.33
   4  -2   3  577.68   36.26
   4  -2   3  493.94   35.81
  -4   2  -3  540.18   31.28
  -5   2  -3    6.42   13.00
   5  -2   3   26.28   22.13
   5  -2   3   27.27   17.56
  -5   2  -3   22.08   15.38
   5  -2   3   23.20   19.57
   5  -2   3   70.02   21.22
   5  -2   3   38.21   19.84
   5  -2   3  -13.98   21.97
   5  -2   3   45.97   17.37
   6  -2   3   31.08   22.42
   6  -2   3  -32.76   19.40
   6  -2   3   -8.44   16.54
   6  -2   3    2.94   20.51
   6  -2   3    0.65   21.06
   6  -2   3  -20.30   22.30
  -6   2  -3    8.06   14.06
   6  -2   3   10.13   19.07
   7  -2   3   -6.45   21.71
   7  -2   3  -20.69   25.64
   7  -2   3   26.91   23.53
   7  -2   3   38.06   25.77
   7   1  -3  344.27   37.70
   7   1  -3  338.67   41.19
  -7  -1   3  205.62   38.00
   7   1  -3  244.05   44.09
   7   1  -3  277.21   44.57
  -7  -1   3  285.20   49.47
   7   1  -3  366.36   48.59
   6   1  -3   -2.60   20.82
  -6  -1   3   22.94   32.01
   6   1  -3   -3.37   20.93
   6   1  -3   12.83   25.30
   6   1  -3    3.38   25.49
  -6  -1   3   54.80   26.02
   6   1  -3   -6.21   24.67
   5   1  -3  219.40   35.05
   5   1  -3  206.50   29.27
  -5  -1   3  163.06   31.18
   5   1  -3  215.10   33.67
   5   1  -3  284.29   37.79
   5   1  -3  285.59   30.62
  -5  -1   3  209.92   29.31
  -5  -1   3  272.32   39.83
   4   1  -3  246.34   33.51
   4   1  -3  317.98   28.05
   4   1  -3  253.32   31.19
  -4  -1   3  249.53   28.35
   4   1  -3  273.94   32.32
  -4  -1   3  253.26   34.94
   4   1  -3  263.29   32.30
   4   1  -3  286.29   28.31
   4   1  -3  251.34   29.59
  -4  -1   3  256.61   30.08
  -3  -1   3   65.78   19.74
   3   1  -3   77.83   17.22
   3   1  -3   89.22   15.65
  -3  -1   3   54.13   21.21
   3   1  -3   68.38   20.16
   3   1  -3   38.37   18.61
   3   1  -3   81.71   19.51
  -3  -1   3   92.06   17.57
  -3  -1   3   99.33   19.78
  -3  -1   3   66.66   18.80
   3   1  -3   91.13   19.94
   3   1  -3   73.50   17.45
  -3  -1   3   94.02   18.23
   2   1  -3 1915.60   88.00
  -2  -1   3 2065.63   88.79
   2   1  -3 2029.29   85.59
  -2  -1   3 1967.56   88.67
  -2  -1   3 1854.44   85.47
   2   1  -3 1847.37   88.73
   2   1  -3 1963.68   90.54
  -2  -1   3 1849.56   86.97
  -2  -1   3 1984.95   87.38
  -2  -1   3 1890.92   89.90
  -2  -1   3 2053.84   84.70
   2   1  -3 1879.46   90.19
   2   1  -3 1870.74   87.61
   2   1  -3 1663.17   85.99
  -2  -1   3 1851.22   89.45
  -2  -1   3 2032.06   91.21
   2   1  -3 2057.36   87.34
  -1  -1   3  540.83   31.28
  -1  -1   3  630.62   35.59
   1   1  -3  586.01   35.33
   1   1  -3  599.09   32.17
   1   1  -3  609.62   31.02
   1   1  -3  536.77   34.35
  -1  -1   3  545.71   35.14
  -1  -1   3  576.48   34.54
  -1  -1   3  561.92   32.45
   1   1  -3  567.82   34.41
  -1  -1   3  597.51   34.23
  -1  -1   3  562.29   34.91
  -1  -1   3  551.05   34.55
   1   1  -3  538.53   33.99
   1   1  -3  551.22   32.73
   0  -1   3   16.25    8.98
   0  -1   3   -3.99   11.43
   0   1  -3    1.79    7.59
   0   1  -3   -7.33   10.47
   0  -1   3   18.82   10.87
   0   1  -3    8.25    8.09
   0   1  -3   13.78    7.13
   0  -1   3   26.04   10.05
   0  -1   3   -2.20   11.53
   0   1  -3   -9.75    9.00
   0  -1   3    3.50    9.22
   0  -1   3   10.38    9.76
   0  -1   3    7.78    8.54
  -1   1  -3  771.71   34.92
  -1   1  -3  776.42   38.22
   1  -1   3  827.79   44.01
   1  -1   3  812.86   37.02
   1  -1   3  757.63   37.52
   1  -1   3  836.60   37.94
   1  -1   3  746.99   36.78
   2  -1   3  116.54   12.88
   2  -1   3  114.02   16.61
   2  -1   3  105.34   12.01
   2  -1   3   90.45   12.21
  -2   1  -3   90.66   15.05
   2  -1   3  103.25   12.63
   3  -1   3 2871.90  115.62
   3  -1   3 2711.62  114.10
   3  -1   3 2757.35  115.24
   3  -1   3 2603.41  114.52
   3  -1   3 2814.60  116.06
   4  -1   3    9.17   11.73
   4  -1   3   16.09   13.29
   4  -1   3   28.97   16.55
   4  -1   3   -6.32   13.31
   4  -1   3    3.57   11.09
   4  -1   3   15.40   10.93
   4  -1   3   32.01   14.68
   4  -1   3    4.52   16.63
   5  -1   3  239.22   24.79
   5  -1   3  237.67   26.69
   5  -1   3  201.14   22.29
   5  -1   3  133.66   23.09
   5  -1   3  237.36   30.28
   5  -1   3  160.49   27.43
   5  -1   3  228.00   27.41
   6  -1   3  265.84   35.26
   6  -1   3  253.82   33.75
   6  -1   3  253.03   32.81
   6  -1   3  225.44   30.44
   6  -1   3  263.52   29.97
   6  -1   3  257.47   32.79
   6  -1   3  232.20   28.11
   7  -1   3   22.61   23.72
   7  -1   3    3.09   22.10
   7  -1   3    2.75   24.20
   7  -1   3    8.27   18.92
   7  -1   3   28.42   26.67
   7  -1   3    7.52   22.35
   8  -1   3  203.61   40.20
   8  -1   3  192.46   36.80
  -7   0   3  270.23   48.18
   7   0  -3  161.47   40.07
  -7   0   3  153.82   35.57
   7   0  -3  184.64   40.29
   7   0  -3  242.57   42.55
   7   0  -3  238.88   34.97
   7   0  -3  220.77   35.63
   6   0  -3   66.47   24.34
  -6   0   3   60.75   26.87
   6   0  -3   42.04   22.04
   6   0  -3   47.76   28.48
   6   0  -3   76.80   30.99
   6   0  -3   45.13   27.79
  -6   0   3   83.44   34.98
   5   0  -3  898.09   61.61
   5   0  -3  836.04   62.25
   5   0  -3  789.73   49.90
  -5   0   3  766.23   54.85
  -5   0   3  848.22   52.46
  -5   0   3  866.97   63.90
   5   0  -3  822.59   58.21
   5   0  -3  880.78   54.71
   4   0  -3  285.73   30.43
  -4   0   3  250.39   36.23
  -4   0   3  257.00   28.14
   4   0  -3  249.25   27.56
   4   0  -3  323.06   26.64
   4   0  -3  220.90   30.92
   4   0  -3  258.73   33.55
  -4   0   3  256.06   31.39
   4   0  -3  302.63   35.10
   4   0  -3  224.99   30.09
   3   0  -3   59.01   18.14
   3   0  -3   38.85   15.83
   3   0  -3   53.37   12.71
  -3   0   3   38.33   16.70
   3   0  -3   43.30   18.45
   3   0  -3   42.37   15.59
   3   0  -3   33.31   17.04
   3   0  -3   61.40   19.89
  -3   0   3   31.65   20.19
  -3   0   3   41.64   15.75
  -3   0   3   39.90   17.79
  -3   0   3   30.92   15.85
   2   0  -3  281.99   24.96
   2   0  -3  299.26   24.84
  -2   0   3  315.00   26.89
   2   0  -3  277.59   18.32
   2   0  -3  242.87   25.03
  -2   0   3  323.58   27.20
  -2   0   3  292.14   26.27
   2   0  -3  238.66   25.60
  -2   0   3  305.72   25.73
   2   0  -3  263.07   27.83
  -2   0   3  290.88   23.09
  -2   0   3  271.46   26.83
   2   0  -3  329.31   23.59
  -2   0   3  340.21   26.10
   2   0  -3  288.35   25.90
   2   0  -3  292.81   26.62
  -2   0   3  268.86   28.71
   1   0  -3 9161.41  376.77
  -1   0   3 9703.79  382.22
  -1   0   3 9633.56  379.73
  -1   0   3 9352.28  384.48
   1   0  -3 9636.52  378.77
   1   0  -3 9688.74  374.75
  -1   0   3 9206.07  375.39
  -1   0   3 9475.11  377.30
   1   0  -3 9172.54  384.80
  -1   0   3 9996.51  377.67
  -1   0   3 9323.42  384.79
   1   0  -3 9868.92  385.23
   1   0  -3 8904.99  376.23
  -1   0   3 9362.77  376.82
   1   0  -3 9683.32  375.67
  -1   0   3 9744.28  378.57
   0   0  -3  900.87   41.81
   0   0   3  989.77   48.33
   0   0   3  971.14   44.67
   0   0  -3  961.42   43.78
   0   0   3  942.54   45.05
   0   0  -3  947.94   46.90
   0   0   3  931.29   42.76
   0   0   3  891.72   41.47
   0   0   3  970.74   46.39
   0   0  -3  916.36   47.72
   0   0   3  973.34   43.59
   0   0   3  950.47   43.48
   1   0   3 1641.67   68.24
   1   0   3 1650.94   79.99
   1   0   3 1759.58   76.28
  -1   0  -3 1675.49   68.18
   1   0   3 1779.63   77.70
   2   0   3  666.15   34.09
   2   0   3  596.80   38.92
   3   0   3 6294.07  267.98
   3   0   3 6278.53  248.69
   3   0   3 6369.13  248.75
   3   0   3 6258.59  247.21
   3   0   3 6158.44  247.97
   4   0   3   81.99   12.85
   4   0   3   56.60   13.62
   4   0   3   66.41   14.18
   4   0   3   98.90   14.98
   4   0   3   96.16   20.99
   5   0   3  134.85   19.61
   5   0   3  147.96   20.66
   5   0   3  176.94   22.81
   5   0   3  160.48   20.61
   5   0   3  204.41   23.97
   5   0   3  196.54   27.66
   5   0   3  164.91   18.95
   6   0   3   74.82   23.51
   6   0   3  137.32   26.81
   6   0   3  114.89   23.17
   6   0   3  114.56   23.07
   6   0   3  109.64   21.46
   6   0   3   72.33   22.24
   7   0   3  481.40   43.18
   7   0   3  446.16   40.42
   7   0   3  426.91   39.19
   7   0   3  443.76   43.86
   7   0   3  444.53   37.63
   7   0   3  455.78   40.71
   7   0   3  436.52   43.39
   8   0   3    5.29   28.72
   8   0   3   41.80   26.63
   8   0   3   -0.42   24.14
   8   0   3   -0.77   22.37
   6  -1  -3   46.53   23.23
  -6   1   3   77.02   28.22
   6  -1  -3   35.86   26.42
  -6   1   3   41.92   34.06
   6  -1  -3   12.68   23.97
   6  -1  -3   11.44   21.04
   6  -1  -3   32.54   28.05
   6  -1  -3   42.03   29.98
   5  -1  -3  296.53   30.30
  -5   1   3  232.60   33.73
   5  -1  -3  219.37   36.52
   5  -1  -3  254.03   39.09
  -5   1   3  277.69   43.00
   5  -1  -3  228.22   32.94
   5  -1  -3  216.62   34.47
  -5   1   3  245.20   31.73
  -4   1   3   17.50   18.85
   4  -1  -3    8.75   18.77
   4  -1  -3   55.07   20.79
   4  -1  -3  -18.45   20.66
  -4   1   3  -12.78   18.58
   4  -1  -3   26.83   21.63
   4  -1  -3    4.44   14.74
  -4   1   3    9.50   24.13
   4  -1  -3    8.48   18.97
  -3   1   3  641.07   39.81
   3  -1  -3  667.85   46.69
   3  -1  -3  652.70   43.83
   3  -1  -3  723.64   44.49
   3  -1  -3  679.72   36.30
  -3   1   3  650.59   42.79
  -3   1   3  712.16   45.63
   3  -1  -3  707.32   41.05
   3  -1  -3  694.43   44.43
  -3   1   3  638.63   47.90
   3  -1  -3  616.45   42.21
  -2   1   3 3193.55  134.37
   2  -1  -3 3103.50  138.26
   2  -1  -3 3384.17  135.75
  -2   1   3 3219.06  138.76
   2  -1  -3 3015.26  137.50
   2  -1  -3 3322.38  134.08
  -2   1   3 3289.93  137.43
  -2   1   3 3190.33  137.02
   2  -1  -3 3241.16  138.65
   2  -1  -3 2945.14  135.78
   2  -1  -3 3249.42  131.00
  -2   1   3 3197.94  139.96
   2  -1  -3 3179.81  136.02
  -2   1   3 3073.69  137.53
  -2   1   3 3113.71  135.87
   2  -1  -3 3082.01  138.84
  -1   1   3  340.45   27.68
   1  -1  -3  308.24   25.42
  -1   1   3  336.34   24.65
  -1   1   3  283.13   22.89
  -1   1   3  343.01   26.09
   1  -1  -3  312.18   20.82
   1  -1  -3  285.54   24.47
  -1   1   3  297.42   25.04
   1  -1  -3  293.44   24.74
  -1   1   3  294.67   20.42
  -1   1   3  316.25   21.89
  -1   1   3  278.83   22.53
  -1   1   3  343.96   26.56
   1  -1  -3  324.80   23.30
   1  -1  -3  332.49   21.22
   1  -1  -3  281.42   21.42
   1  -1  -3  311.77   22.83
   0   1   3  279.14   20.76
   0   1   3  314.82   20.63
   0   1   3  281.79   23.96
   0  -1  -3  272.19   20.20
   0   1   3  307.66   22.18
   0   1   3  294.83   21.63
   0  -1  -3  310.59   18.79
   0  -1  -3  322.37   18.53
   0   1   3  333.52   20.55
   0  -1  -3  293.46   23.33
   0  -1  -3  289.88   23.19
   0  -1  -3  300.82   20.05
   0   1   3  270.57   19.81
   0   1   3  312.85   18.09
   0   1   3  316.51   19.58
   1   1   3 1381.25   62.30
  -1  -1  -3 1305.94   64.01
   1   1   3 1361.17   59.06
  -1  -1  -3 1346.34   59.11
  -1  -1  -3 1341.52   61.92
   1   1   3 1250.69   63.68
   2   1   3 3034.02  133.39
   2   1   3 3021.39  127.50
  -2  -1  -3 2971.69  133.30
   3   1   3 1456.20   73.43
  -3  -1  -3 1482.13   74.51
  -4  -1  -3   36.87   18.45
   4   1   3   26.26   10.97
   4   1   3   34.05   17.41
   4   1   3   32.39   11.61
   4   1   3   41.38   12.13
   4   1   3   16.73   11.29
   5   1   3  434.71   31.62
   5   1   3  405.67   32.74
   5   1   3  467.36   27.87
   5   1   3  417.58   27.82
   5   1   3  467.23   30.28
   5   1   3  432.40   37.60
   5   1   3  409.29   30.48
   6   1   3  329.98   30.95
   6   1   3  288.40   26.86
   6   1   3  380.77   34.20
   6   1   3  283.67   29.45
   6   1   3  261.31   30.26
   6   1   3  326.77   35.12
   7   1   3   85.55   22.44
   7   1   3  177.16   26.51
   7   1   3   88.65   28.00
   7   1   3  131.03   34.19
   7   1   3  104.14   26.44
   7   1   3  134.74   29.27
   7   1   3   92.48   24.79
   8   1   3   58.17   33.24
   8   1   3   45.84   30.75
   8   1   3   54.00   26.39
   8   1   3   14.76   22.62
   6  -2  -3  200.09   39.66
   6  -2  -3  141.90   29.52
   6  -2  -3  134.09   31.85
  -6   2   3  202.81   43.30
  -6   2   3  181.02   33.99
   6  -2  -3  112.65   33.78
   6  -2  -3   84.96   35.23
   6  -2  -3  183.24   30.83
   5  -2  -3  165.75   34.50
  -5   2   3  173.72   31.03
  -5   2   3  255.05   31.19
   5  -2  -3  150.60   30.48
   5  -2  -3  146.87   26.24
   5  -2  -3  267.49   39.41
  -5   2   3  181.78   37.85
   5  -2  -3  168.95   32.64
   4  -2  -3  714.32   51.00
   4  -2  -3  723.25   53.58
  -4   2   3  696.86   48.76
   4  -2  -3  635.02   50.16
  -4   2   3  717.53   46.60
   4  -2  -3  694.86   43.27
  -4   2   3  663.20   57.04
   4  -2  -3  751.06   54.84
   4  -2  -3  693.82   50.46
   3  -2  -3   -5.51   15.20
   3  -2  -3   -3.52   12.66
   3  -2  -3    8.92   18.12
   3  -2  -3   -0.08   16.37
  -3   2   3   11.53   20.30
   3  -2  -3    9.38   16.46
  -3   2   3  -12.23   17.21
  -3   2   3   -1.06   15.79
   3  -2  -3  -12.71   12.92
  -3   2   3    9.82   16.44
   3  -2  -3  -17.51   17.78
   2  -2  -3  805.99   39.16
  -2   2   3  785.93   48.01
   2  -2  -3  802.83   45.51
   2  -2  -3  802.87   48.90
   2  -2  -3  855.63   44.01
   2  -2  -3  791.83   49.99
   2  -2  -3  807.33   46.45
   2  -2  -3  891.18   46.91
  -2   2   3  740.27   48.95
  -2   2   3  858.17   50.97
  -2   2   3  750.25   46.50
  -2   2   3  817.03   44.32
  -2   2   3  839.45   47.01
   2  -2  -3  825.82   39.20
   2  -2  -3  779.42   47.32
   2  -2  -3  796.06   46.12
   1  -2  -3  179.00   20.64
  -1   2   3  140.23   18.04
  -1   2   3  109.54   19.19
  -1   2   3  177.00   21.65
  -1   2   3  147.00   16.64
  -1   2   3  152.59   18.86
   1  -2  -3  130.35   19.15
   1  -2  -3  147.16   15.81
   1  -2  -3  148.54   17.81
   1  -2  -3  120.25   17.58
   1  -2  -3  147.22   20.29
   1  -2  -3  162.68   17.03
   1  -2  -3  124.44   15.18
  -1   2   3  121.52   20.22
  -1   2   3  119.43   19.36
   0  -2  -3  777.72   39.84
   0  -2  -3  812.50   39.02
   0  -2  -3  773.39   37.07
   0   2   3  851.78   40.51
   0  -2  -3  750.15   41.45
   0   2   3  780.10   41.22
   0   2   3  791.16   38.76
   0  -2  -3  788.63   42.77
   0   2   3  788.83   39.45
   0  -2  -3  809.18   36.07
   0  -2  -3  813.82   38.24
   0  -2  -3  795.76   36.45
   0   2   3  830.94   42.87
   0   2   3  776.58   43.12
   0   2   3  796.24   38.07
   0   2   3  871.82   41.23
   0  -2  -3  822.91   38.60
   0  -2  -3  807.64   40.95
   1   2   3  141.32   17.07
   1   2   3  128.63   12.31
  -1  -2  -3  134.23   17.94
   1   2   3  156.69   12.90
  -1  -2  -3  148.11   16.59
   1   2   3  128.47   10.89
  -1  -2  -3  127.46   11.31
   1   2   3  154.52   15.09
   1   2   3  137.29   13.42
   1   2   3  131.07   13.08
  -1  -2  -3  126.98   10.11
  -1  -2  -3  147.43   15.27
   1   2   3  135.85   18.00
  -2  -2  -3  118.31   18.96
   2   2   3  154.46   18.33
   2   2   3  168.95   16.73
  -2  -2  -3  154.58   16.25
   2   2   3  131.61   18.71
   3   2   3  948.58   42.94
   3   2   3  952.29   43.05
   3   2   3  983.30   42.74
   3   2   3 1028.79   54.11
   3   2   3  952.41   53.98
   3   2   3 1008.60   47.08
  -3  -2  -3  942.18   54.12
   4   2   3 1206.09   56.23
  -4  -2  -3 1253.23   66.28
   4   2   3 1214.19   57.01
   4   2   3 1197.47   56.18
   4   2   3 1197.51   55.91
   4   2   3 1255.85   55.93
   4   2   3 1285.72   66.14
   4   2   3 1153.72   66.22
   5   2   3   33.10   16.38
   5   2   3   -1.31   15.04
   5   2   3   33.25   15.15
   5   2   3   41.46   22.38
   5   2   3   54.04   14.66
   5   2   3   33.13   13.63
  -5  -2  -3   11.74   20.40
   5   2   3   18.54   19.38
   5   2   3   19.80   11.71
  -6  -2  -3  512.30   44.58
   6   2   3  407.98   31.94
   6   2   3  412.22   40.37
   6   2   3  456.60   37.27
   6   2   3  377.64   35.48
   6   2   3  363.82   32.10
   6   2   3  486.22   36.21
   6   2   3  449.87   46.58
   7   2   3  -12.75   16.56
   7   2   3   12.66   21.71
   7   2   3   16.01   26.16
   7   2   3   10.95   19.33
   7   2   3  -37.02   17.57
   7   2   3   -8.38   23.67
   8   2   3  385.53   42.18
   8   2   3  482.01   49.15
   8   2   3  505.65   56.24
   8   2   3  471.79   44.57
   6  -3  -3   -2.01   25.72
  -6   3   3  -25.66   26.20
   6  -3  -3    2.84   27.27
   6  -3  -3  -17.05   28.48
   6  -3  -3   48.88   25.01
  -6   3   3  -20.90   33.35
   6  -3  -3  -12.66   27.13
   5  -3  -3   14.21   25.73
  -5   3   3   -5.36   21.20
   5  -3  -3   -5.77   24.54
   5  -3  -3    1.78   25.26
  -5   3   3    4.48   23.02
   5  -3  -3   19.24   20.21
  -5   3   3  -12.33   29.72
   5  -3  -3  -30.79   22.07
   4  -3  -3  533.94   41.01
   4  -3  -3  562.50   49.95
  -4   3   3  563.89   46.34
   4  -3  -3  559.67   51.35
  -4   3   3  564.25   42.35
  -4   3   3  552.05   53.46
   4  -3  -3  596.86   48.10
   4  -3  -3  522.02   47.28
   3  -3  -3 1176.66   66.88
   3  -3  -3 1138.07   58.57
  -3   3   3 1270.56   64.08
  -3   3   3 1135.32   71.40
   3  -3  -3 1231.66   71.04
   3  -3  -3 1141.02   67.32
   3  -3  -3 1254.88   68.35
   3  -3  -3 1204.13   68.70
  -3   3   3 1196.91   66.11
   2  -3  -3    2.10   14.35
   2  -3  -3    1.98   11.91
   2  -3  -3  -13.90   15.40
  -2   3   3  -22.46   16.92
  -2   3   3   -1.93   14.60
   2  -3  -3   -6.65   14.74
   2  -3  -3   22.99   17.55
   2  -3  -3   23.71   15.46
  -2   3   3   23.42   17.45
   2  -3  -3   15.86   17.14
  -2   3   3   -0.43   15.84
  -2   3   3   18.72   15.23
   1  -3  -3  411.33   30.12
   1  -3  -3  449.85   27.89
  -1   3   3  348.75   28.90
   1  -3  -3  382.77   27.58
   1  -3  -3  401.30   29.64
   1  -3  -3  430.26   32.72
  -1   3   3  376.18   31.67
  -1   3   3  393.47   33.69
   1  -3  -3  412.25   31.82
  -1   3   3  418.11   31.97
   1  -3  -3  350.35   31.46
  -1   3   3  394.34   28.05
  -1   3   3  420.96   31.26
  -1   3   3  414.13   24.51
   0  -3  -3 5185.90  215.17
   0   3   3 5399.27  216.23
   0  -3  -3 5353.38  214.80
   0   3   3 5326.62  214.53
   0  -3  -3 5361.36  216.58
   0   3   3 5510.70  217.12
   0   3   3 5243.91  215.95
   0  -3  -3 5430.60  213.40
   0  -3  -3 5523.59  212.63
   0  -3  -3 5159.92  216.08
   0  -3  -3 5127.01  223.60
   0  -3  -3 5220.35  220.83
   0  -3  -3 5304.35  213.29
   0   3   3 5102.72  217.85
   0   3   3 5198.85  214.78
   0  -3  -3 5164.66  215.00
  -1  -3  -3  127.47   17.39
  -1  -3  -3  114.82   13.67
  -1  -3  -3  148.67   13.93
   1   3   3  126.46   15.95
  -1  -3  -3  140.31   18.97
  -1  -3  -3   94.66   14.85
   1   3   3  113.25   14.74
   1   3   3  120.30   16.70
   1   3   3  118.22   13.66
   1   3   3  121.66   14.37
   1   3   3  138.09   18.38
   1   3   3  104.95   15.76
  -2  -3  -3  578.05   34.74
   2   3   3  536.76   33.10
   2   3   3  592.57   30.88
  -2  -3  -3  573.92   37.98
  -2  -3  -3  538.07   32.50
   2   3   3  583.09   31.67
  -2  -3  -3  579.59   26.89
   2   3   3  580.71   27.96
  -2  -3  -3  551.86   27.15
   2   3   3  617.38   31.57
   2   3   3  576.45   28.07
   2   3   3  639.15   32.44
   2   3   3  561.04   35.38
  -3  -3  -3  390.41   33.44
  -3  -3  -3  453.63   25.98
   3   3   3  374.31   25.68
  -3  -3  -3  404.53   32.28
   3   3   3  409.05   31.91
   3   3   3  419.29   25.99
   3   3   3  399.89   24.25
   3   3   3  423.95   25.34
   3   3   3  429.16   25.85
   4   3   3  952.85   58.46
  -4  -3  -3  986.66   58.94
   4   3   3  972.80   49.36
   4   3   3 1074.83   50.91
   4   3   3 1040.41   51.04
   4   3   3 1056.90   46.88
   4   3   3 1025.35   46.98
   4   3   3 1017.50   50.57
   4   3   3  990.52   51.75
   5   3   3   20.55   20.48
   5   3   3    6.71   14.31
   5   3   3   15.68   13.33
  -5  -3  -3  -18.42   19.71
   5   3   3   10.08   14.81
   5   3   3  -17.74   14.93
   5   3   3   19.31   16.22
   5   3   3   32.10   17.51
   5   3   3    8.24   17.50
  -6  -3  -3  233.48   34.28
   6   3   3  196.50   27.24
   6   3   3  211.77   24.84
   6   3   3  260.08   33.61
   6   3   3  193.34   26.24
   6   3   3  227.38   35.33
   6   3   3  188.77   26.56
   6   3   3  180.95   28.84
   7   3   3  -38.57   16.50
  -7  -3  -3   15.22   27.59
   7   3   3  -17.62   19.23
   7   3   3   -6.99   17.46
   7   3   3   20.44   26.16
   7   3   3    1.64   21.54
   7   3   3   -1.67   23.93
   8   3   3  190.75   33.01
   8   3   3  176.70   40.20
   8   3   3  258.82   40.61
  -8  -3  -3  225.44   42.75
   8   3   3  211.12   33.62
   5  -4  -3  553.59   54.74
  -5   4   3  407.88   45.94
   5  -4  -3  457.27   43.69
   5  -4  -3  478.87   49.32
  -5   4   3  565.29   58.55
   5  -4  -3  408.66   48.02
   5  -4  -3  437.78   51.81
  -5   4   3  418.50   44.18
   4  -4  -3  -25.21   22.87
  -4   4   3   34.41   23.53
   4  -4  -3    7.85   21.60
  -4   4   3    9.71   22.92
   4  -4  -3   15.69   26.85
   4  -4  -3   47.79   25.08
  -4   4   3    8.00   29.10
   4  -4  -3   30.09   27.41
  -3   4   3    8.62   25.18
   3  -4  -3  -12.51   17.83
   3  -4  -3   31.07   24.06
   3  -4  -3   12.88   23.96
  -3   4   3   12.74   20.11
  -3   4   3   16.87   18.92
   3  -4  -3   -6.51   22.52
   2  -4  -3  328.79   32.76
   2  -4  -3  228.08   29.30
  -2   4   3  336.65   26.67
  -2   4   3  296.65   33.08
  -2   4   3  295.17   35.83
   2  -4  -3  337.08   35.14
  -2   4   3  307.92   31.43
   2  -4  -3  307.13   34.19
  -2   4   3  275.21   29.75
  -1   4   3 1375.12   71.80
   1  -4  -3 1286.33   70.86
  -1   4   3 1290.55   72.00
  -1   4   3 1522.89   71.28
  -1   4   3 1340.07   68.46
  -1   4   3 1348.73   66.59
   1  -4  -3 1371.20   68.63
  -1   4   3 1385.12   61.64
   1  -4  -3 1288.87   69.97
   1  -4  -3 1358.18   71.47
   0   4   3  206.30   25.98
   0   4   3  275.76   25.89
   0   4   3  327.04   28.38
   0  -4  -3  226.24   25.53
   0   4   3  289.31   24.76
   0  -4  -3  296.82   28.49
   0  -4  -3  328.57   27.11
   0   4   3  259.28   28.65
   0  -4  -3  304.62   26.31
   0   4   3  326.31   28.14
  -1  -4  -3  216.88   22.60
   1   4   3  198.43   19.64
   1   4   3  183.51   21.55
  -1  -4  -3  179.71   15.59
   1   4   3  200.49   22.39
  -1  -4  -3  210.22   20.07
  -1  -4  -3  190.38   18.71
   1   4   3  174.25   20.10
  -1  -4  -3  192.93   22.45
  -1  -4  -3  189.81   20.20
   1   4   3  191.16   21.10
  -1  -4  -3  189.79   16.50
   1   4   3  199.40   23.35
   2   4   3  365.63   28.93
  -2  -4  -3  347.23   31.42
   2   4   3  362.95   27.14
   2   4   3  352.40   28.19
  -2  -4  -3  385.21   25.91
  -2  -4  -3  334.22   26.61
  -2  -4  -3  386.05   24.40
   2   4   3  405.93   25.70
   2   4   3  367.39   27.02
  -2  -4  -3  375.22   24.08
   2   4   3  351.91   29.23
  -2  -4  -3  328.84   27.83
   2   4   3  367.30   25.18
   3   4   3 2103.71   92.66
  -3  -4  -3 2184.50   90.77
   3   4   3 2187.91   92.30
   3   4   3 2060.61  101.58
   3   4   3 2238.04   95.79
   3   4   3 2132.45   90.02
  -3  -4  -3 2215.61   90.29
   3   4   3 2147.74   94.04
  -3  -4  -3 2039.91  100.63
  -3  -4  -3 2148.06   93.14
  -3  -4  -3 2094.30  103.03
   3   4   3 2046.56   94.60
  -3  -4  -3 2265.22   90.45
   4   4   3   25.68   12.92
   4   4   3   44.71   20.10
  -4  -4  -3   56.34   20.40
   4   4   3   46.06   15.97
  -4  -4  -3   35.26   10.13
   4   4   3  -11.83   13.77
  -4  -4  -3   36.12   10.94
   4   4   3   27.67   12.84
   4   4   3   26.51   15.81
   4   4   3   29.34   15.05
  -4  -4  -3   34.37   20.58
   5   4   3   27.77   18.15
   5   4   3   60.53   17.28
  -5  -4  -3  108.77   26.55
   5   4   3   74.56   19.12
   5   4   3   31.03   16.76
   5   4   3   78.54   21.09
   5   4   3   99.16   25.23
  -5  -4  -3   56.97   12.67
   5   4   3   80.83   19.88
   6   4   3  262.69   29.85
   6   4   3  240.81   29.30
   6   4   3  282.43   31.81
   6   4   3  304.60   33.99
   6   4   3  245.88   37.44
   6   4   3  286.67   34.62
   6   4   3  296.21   32.09
  -6  -4  -3  297.48   38.17
   7   4   3  107.41   26.43
   7   4   3  125.14   28.08
   7   4   3  110.37   33.71
   7   4   3  114.95   29.82
  -7  -4  -3  109.07   31.91
   7   4   3   86.07   24.95
   7   4   3   94.75   30.02
   7   4   3  150.55   27.05
   8   4   3  125.30   36.72
   8   4   3   84.03   35.89
  -8  -4  -3  174.61   39.62
   8   4   3  111.43   29.72
   8   4   3  106.52   29.54
   5  -5  -3   -4.59   29.12
   5  -5  -3   51.53   33.40
   5  -5  -3  121.18   38.16
  -5   5   3   44.97   36.88
  -5   5   3   43.59   30.77
   5  -5  -3   36.47   29.25
   4  -5  -3   23.81   27.12
  -4   5   3  -20.48   21.99
  -4   5   3    0.82   22.88
   4  -5  -3  -12.93   23.22
   4  -5  -3   27.51   27.41
  -4   5   3  -29.30   27.50
   4  -5  -3  -16.26   24.59
   3  -5  -3  236.37   35.30
   3  -5  -3  307.91   40.10
   3  -5  -3  246.29   37.04
  -3   5   3  257.45   35.68
   3  -5  -3  310.79   40.20
  -3   5   3  274.26   34.10
  -3   5   3  211.82   39.20
  -2   5   3  419.11   33.80
  -2   5   3  417.62   43.80
  -2   5   3  438.80   38.12
   2  -5  -3  411.65   38.62
  -2   5   3  342.14   37.65
   2  -5  -3  363.64   40.94
   2  -5  -3  431.29   41.82
   2  -5  -3  360.86   37.94
   1  -5  -3   14.23   17.67
   1  -5  -3   -8.16   16.67
  -1   5   3   17.05   20.86
  -1   5   3   26.24   21.43
  -1   5   3   35.89   18.64
  -1   5   3    3.79   18.03
  -1   5   3    6.69   15.53
   1  -5  -3  -14.56   19.88
   1  -5  -3   28.19   19.92
   0   5   3  410.44   34.27
   0   5   3  378.82   37.28
   0  -5  -3  475.38   38.46
   0   5   3  418.51   36.29
   0   5   3  386.53   32.29
   0  -5  -3  385.01   33.65
   0   5   3  459.29   37.49
   0  -5  -3  442.77   34.80
   0  -5  -3  403.84   35.46
  -1  -5  -3 1348.12   70.39
  -1  -5  -3 1443.28   64.49
   1   5   3 1433.20   70.49
   1   5   3 1509.40   72.72
   1   5   3 1337.00   68.90
   1   5   3 1325.33   72.42
   1   5   3 1359.37   67.63
  -1  -5  -3 1356.77   68.49
  -1  -5  -3 1419.81   71.23
  -1  -5  -3 1316.14   67.22
   2   5   3  526.13   37.95
  -2  -5  -3  545.72   37.20
  -2  -5  -3  560.91   36.09
  -2  -5  -3  588.30   40.02
   2   5   3  537.47   39.44
  -2  -5  -3  559.06   30.14
   2   5   3  562.77   39.51
   2   5   3  529.56   37.73
  -2  -5  -3  635.19   36.34
   2   5   3  630.37   37.79
   2   5   3  576.08   36.43
  -2  -5  -3  593.43   35.05
   3   5   3  186.84   22.08
  -3  -5  -3  211.70   21.19
   3   5   3  264.16   24.66
  -3  -5  -3  243.32   21.99
  -3  -5  -3  225.86   22.17
  -3  -5  -3  196.47   29.39
  -3  -5  -3  185.88   26.93
   3   5   3  183.27   23.80
   3   5   3  244.33   25.58
   4   5   3   26.77   19.83
   4   5   3   34.69   16.36
  -4  -5  -3   50.04   12.83
  -4  -5  -3   53.49   14.34
   4   5   3   35.92   13.86
  -4  -5  -3   24.30   22.03
  -4  -5  -3   30.69   14.39
   4   5   3   52.23   19.13
   4   5   3   42.52   19.04
   4   5   3   24.96   21.48
   5   5   3  369.37   34.34
  -5  -5  -3  379.23   27.10
  -5  -5  -3  311.61   37.93
   5   5   3  362.15   40.87
   5   5   3  333.52   32.41
   5   5   3  393.98   36.42
   5   5   3  387.86   31.39
   5   5   3  312.47   32.96
   5   5   3  399.28   33.15
   6   5   3   84.31   24.53
   6   5   3   89.95   24.12
   6   5   3  125.16   29.11
  -6  -5  -3   84.53   17.79
   6   5   3   88.58   24.90
  -6  -5  -3   89.22   30.77
   6   5   3   66.69   28.96
   6   5   3  106.15   23.17
   6   5   3   59.79   23.00
  -7  -5  -3  248.81   38.74
   7   5   3  250.20   34.21
   7   5   3  235.70   41.58
   7   5   3  230.43   37.35
   7   5   3  163.48   29.83
   7   5   3  244.00   35.77
   7   5   3  195.11   31.59
   8   5   3  -19.98   23.85
   8   5   3   12.93   24.99
  -8  -5  -3   -9.90   29.99
   8   5   3    1.89   31.10
   8   5   3    7.09   32.30
   4  -6  -3   30.00   31.65
   4  -6  -3   21.16   28.70
  -4   6   3   63.95   35.10
   4  -6  -3   49.66   31.76
   4  -6  -3    9.46   27.02
  -4   6   3   37.34   29.32
  -4   6   3   33.11   28.58
   3  -6  -3   33.31   27.30
  -3   6   3   74.63   24.02
   3  -6  -3   54.62   30.42
  -3   6   3   64.02   31.86
   3  -6  -3   42.41   25.69
  -3   6   3   28.06   24.72
  -3   6   3   38.20   25.78
   3  -6  -3   51.11   27.78
  -2   6   3  354.19   36.52
   2  -6  -3  398.51   40.85
   2  -6  -3  432.72   42.25
  -2   6   3  335.19   44.09
   2  -6  -3  304.79   42.60
   2  -6  -3  414.85   45.61
  -2   6   3  283.87   37.10
  -2   6   3  378.10   42.14
  -1   6   3    6.43   23.99
  -1   6   3  -30.56   17.61
  -1   6   3   -0.93   21.59
   1  -6  -3   17.36   21.25
   1  -6  -3    8.69   22.45
   1  -6  -3   26.85   26.16
   1  -6  -3  -16.41   20.69
  -1   6   3   24.59   22.07
  -1   6   3   12.97   24.72
   0   6   3  845.75   53.18
   0  -6  -3  886.71   58.67
   0  -6  -3  934.63   55.39
   0  -6  -3  901.15   56.00
   0   6   3  863.87   59.61
   0   6   3  810.91   56.15
   0   6   3  823.51   55.76
  -1  -6  -3   67.09   24.00
   1   6   3   81.18   21.54
  -1  -6  -3   91.59   23.25
  -1  -6  -3  123.24   23.82
  -1  -6  -3   44.22   13.97
   1   6   3   51.81   22.54
  -1  -6  -3  103.17   22.56
   1   6   3   56.91   20.86
   1   6   3   59.67   24.30
   1   6   3  106.24   24.19
  -1  -6  -3   66.28   18.15
  -2  -6  -3  379.64   34.09
   2   6   3  371.29   35.64
   2   6   3  323.46   32.50
  -2  -6  -3  338.53   36.01
   2   6   3  319.57   35.31
   2   6   3  396.63   35.80
   2   6   3  355.70   33.49
  -2  -6  -3  379.46   33.56
  -2  -6  -3  357.54   31.46
  -2  -6  -3  301.98   26.16
  -2  -6  -3  320.84   32.26
   3   6   3  259.88   31.13
   3   6   3  298.26   29.77
  -3  -6  -3  279.29   28.99
   3   6   3  251.21   30.31
   3   6   3  300.64   30.45
  -3  -6  -3  263.59   27.01
  -3  -6  -3  282.32   28.73
  -3  -6  -3  291.80   27.62
   3   6   3  274.56   33.36
   4   6   3   50.74   21.85
  -4  -6  -3   34.44   15.98
   4   6   3   42.63   21.49
   4   6   3   35.23   14.57
   4   6   3   43.14   20.49
  -4  -6  -3   93.98   21.17
  -4  -6  -3   59.96   18.13
  -4  -6  -3   20.29   25.63
   4   6   3  133.79   27.80
   5   6   3  310.26   37.42
   5   6   3  234.48   37.62
   5   6   3  277.86   28.26
  -5  -6  -3  305.21   39.26
   5   6   3  287.27   33.20
  -5  -6  -3  356.40   30.03
   5   6   3  249.53   32.84
   5   6   3  271.84   33.91
   5   6   3  354.77   34.44
   6   6   3   41.51   22.68
   6   6   3    9.51   25.69
  -6  -6  -3   26.73   17.18
  -6  -6  -3   28.72   17.94
   6   6   3   34.59   27.49
   6   6   3   68.40   22.71
   6   6   3   33.65   21.53
   6   6   3   20.80   21.80
   6   6   3   -4.79   22.21
  -6  -6  -3    7.67   25.80
   7   6   3  137.30   34.41
   7   6   3   98.86   34.87
  -7  -6  -3  146.96   36.45
   7   6   3  109.33   27.77
   7   6   3  101.18   29.55
   7   6   3  117.68   31.05
  -3   7   3  271.01   41.79
  -3   7   3  232.63   38.75
   3  -7  -3  214.52   42.52
   3  -7  -3  302.27   43.60
  -3   7   3  263.65   46.57
   3  -7  -3  218.96   41.71
   3  -7  -3  254.83   39.56
   2  -7  -3  111.80   30.86
  -2   7   3  125.22   32.31
  -2   7   3  119.83   30.60
   2  -7  -3  167.54   38.22
  -2   7   3  238.45   41.33
   2  -7  -3  155.51   31.90
   2  -7  -3  124.92   32.73
  -2   7   3   92.41   26.06
  -1   7   3  227.60   38.14
  -1   7   3  357.94   37.39
   1  -7  -3  328.59   42.14
   1  -7  -3  332.90   37.90
  -1   7   3  320.51   43.76
   1  -7  -3  308.14   38.82
  -1   7   3  363.48   39.53
   0   7   3  660.72   59.08
   0  -7  -3  802.20   55.91
   0   7   3  814.86   54.35
   0   7   3  713.52   55.64
   0  -7  -3  739.88   54.73
   0  -7  -3  706.34   59.41
   0   7   3  825.11   58.06
  -1  -7  -3  550.80   47.43
   1   7   3  336.46   41.86
  -1  -7  -3  538.80   39.32
  -1  -7  -3  516.26   44.10
  -1  -7  -3  462.87   32.95
   1   7   3  582.36   46.32
   1   7   3  471.14   48.18
  -1  -7  -3  607.93   47.26
   1   7   3  585.28   44.57
   2   7   3    5.45   21.65
   2   7   3    0.72   23.96
   2   7   3   10.62   23.26
  -2  -7  -3   -0.67   19.33
  -2  -7  -3   -8.81   22.22
  -2  -7  -3  -12.71   20.99
  -2  -7  -3    5.69   16.70
   2   7   3   -3.41   21.63
   3   7   3  267.88   37.17
   3   7   3  253.10   34.29
  -3  -7  -3  242.26   24.19
   3   7   3  272.27   32.67
  -3  -7  -3  254.50   31.16
  -3  -7  -3  232.55   31.10
   3   7   3  256.70   33.53
  -3  -7  -3  273.18   30.75
  -4  -7  -3  398.32   33.78
  -4  -7  -3  363.34   35.11
   4   7   3  450.10   42.02
   4   7   3  377.24   39.17
  -4  -7  -3  406.75   37.20
   4   7   3  330.69   40.61
   4   7   3  379.47   39.23
  -4  -7  -3  404.84   31.82
   5   7   3  -71.42   22.27
  -5  -7  -3   -1.45   19.70
  -5  -7  -3    4.39   19.91
   5   7   3   -6.14   16.29
  -5  -7  -3   -1.39   25.51
   5   7   3   -4.23   22.22
   5   7   3   -1.67   20.62
   5   7   3   13.69   21.16
  -6  -7  -3   85.55   33.32
   6   7   3  121.06   29.35
   6   7   3  114.69   34.48
  -6  -7  -3  145.00   25.66
   6   7   3  104.29   28.65
   6   7   3  162.14   27.89
   7   7   3   20.59   26.23
   7   7   3   43.48   34.93
   7   7   3   10.41   30.39
  -7  -7  -3   32.73   32.92
   7   7   3   -9.39   24.52
   2  -8  -3  293.75   49.63
   2  -8  -3  414.46   47.68
  -2   8   3  407.54   54.34
   2  -8  -3  499.31   54.30
  -2   8   3  418.00   47.33
  -2   8   3  393.13   48.45
   2  -8  -3  306.52   44.04
  -1   8   3  360.68   44.65
   1  -8  -3  391.30   45.18
   1  -8  -3  472.84   48.86
   1  -8  -3  388.97   47.19
   1  -8  -3  379.96   49.95
  -1   8   3  404.70   51.44
  -1   8   3  454.45   48.38
   0  -8  -3   -4.14   23.73
   0  -8  -3   46.61   28.44
   0  -8  -3   -9.55   26.64
   0   8   3   30.54   29.22
   0   8   3   61.38   28.08
   0   8   3   36.05   27.34
   0  -8  -3   12.62   20.53
  -1  -8  -3   -1.63   22.95
   1   8   3   -7.68   22.75
  -1  -8  -3    8.59   21.44
  -1  -8  -3   36.96   18.47
  -1  -8  -3  -47.58   24.01
  -1  -8  -3   -9.42   22.69
   1   8   3   -9.05   26.10
   1   8   3   -4.69   23.51
  -2  -8  -3  219.64   34.11
  -2  -8  -3  178.68   31.82
   2   8   3  190.37   35.43
   2   8   3  234.86   34.20
  -2  -8  -3  251.66   29.45
  -2  -8  -3  266.27   36.81
   2   8   3  261.37   39.64
   3   8   3  290.80   37.68
   3   8   3  295.29   40.63
   3   8   3  307.93   39.08
  -3  -8  -3  320.95   35.68
  -3  -8  -3  374.87   38.86
  -3  -8  -3  286.23   29.52
  -3  -8  -3  267.84   33.87
  -4  -8  -3    1.66   21.31
  -4  -8  -3  -10.55   19.60
   4   8   3  -29.65   22.72
   4   8   3  -30.20   20.60
   4   8   3   10.59   24.63
  -4  -8  -3  -17.70   21.74
   5   8   3  -14.33   23.04
  -5  -8  -3   42.67   17.06
   5   8   3   56.85   29.38
  -5  -8  -3    7.89   30.19
   5   8   3  -18.29   22.64
  -5  -8  -3   31.53   23.14
  -5  -8  -3   93.32   26.28
   6   8   3  170.62   35.53
  -6  -8  -3  225.53   43.27
   6   8   3  360.23   47.49
   6   8   3  181.20   35.64
  -6  -8  -3  243.80   33.39
   1  -9  -3   59.73   32.80
  -1   9   3   94.14   36.86
  -1   9   3   33.73   29.14
  -1   9   3  -11.57   30.55
   1  -9  -3    0.90   32.93
   1  -9  -3   36.44   32.17
   0   9   3  -20.84   24.71
   0  -9  -3   13.59   32.67
   0  -9  -3   36.22   30.92
   0  -9  -3   47.37   26.44
   0   9   3   55.84   34.77
   0  -9  -3   13.82   29.39
   0   9   3   39.44   30.98
  -1  -9  -3  250.50   29.90
  -1  -9  -3  365.52   44.38
  -1  -9  -3  189.15   37.05
   1   9   3  276.27   45.42
   1   9   3  198.80   37.20
  -1  -9  -3  349.29   44.67
  -2  -9  -3   31.18   28.36
   2   9   3   28.29   28.09
  -2  -9  -3    5.51   25.78
  -2  -9  -3    0.87   15.98
   2   9   3   47.40   31.98
  -2  -9  -3  -32.33   26.66
  -3  -9  -3  251.57   37.31
   3   9   3  259.00   42.61
   3   9   3  199.81   39.67
   3   9   3  259.76   39.54
  -3  -9  -3  263.78   37.77
  -3  -9  -3  268.15   38.32
  -4  -9  -3  -69.22   23.52
   4   9   3  -20.74   25.38
  -4  -9  -3  -17.91   24.83
  -4  -9  -3  -17.69   24.80
   4   9   3    7.94   25.96
   4   9   3   -8.33   28.35
   5   9   3  254.37   40.95
   5   9   3  225.69   39.80
  -5  -9  -3  287.14   48.65
  -5  -9  -3  304.58   29.75
   5   9   3  311.38   46.78
  -2  -8   4  -17.83   25.95
   2   8  -4   10.94   28.92
  -2  -8   4    1.77   31.53
  -2  -8   4    4.68   28.67
   2   8  -4  -33.17   25.77
  -2  -8   4    9.02   28.92
  -1  -8   4   40.54   32.36
   1   8  -4   17.64   28.90
  -1  -8   4   36.17   30.31
   1   8  -4   31.92   27.70
  -1  -8   4   70.71   34.37
  -1  -8   4   55.33   30.05
   0  -8   4  349.45   46.76
   0  -8   4  394.23   47.49
   0   8  -4  396.30   48.71
   0  -8   4  302.14   49.83
   0  -8   4  474.15   53.20
   0   8  -4  341.50   44.84
  -1   8  -4  231.71   40.01
   1  -8   4  360.23   51.89
  -1   8  -4  333.29   45.39
   1  -8   4  402.60   51.80
   1  -8   4  345.57   47.31
   1  -8   4  233.53   42.93
  -4  -7   4   13.51   29.82
   4   7  -4   11.62   28.71
   4   7  -4   27.13   30.32
  -4  -7   4   36.73   34.91
  -4  -7   4    3.73   27.11
  -4  -7   4   -9.57   28.00
  -3  -7   4  320.67   41.47
   3   7  -4  263.17   38.57
   3   7  -4  311.24   43.57
  -3  -7   4  273.70   41.69
  -3  -7   4  287.22   42.90
   3   7  -4  238.72   40.13
  -3  -7   4  283.14   45.27
  -2  -7   4   47.99   27.46
  -2  -7   4  -28.26   23.50
   2   7  -4   18.36   26.02
   2   7  -4    8.36   24.66
  -2  -7   4   34.92   30.42
   2   7  -4  -23.64   23.38
  -2  -7   4   29.70   27.05
  -1  -7   4  448.69   49.33
  -1  -7   4  326.82   43.43
   1   7  -4  454.34   46.14
   1   7  -4  482.99   47.33
  -1  -7   4  410.95   45.65
  -1  -7   4  462.29   51.12
   0   7  -4   25.41   24.93
   0  -7   4    3.98   23.77
   0  -7   4    8.64   26.47
   0  -7   4   11.20   25.65
   0  -7   4   44.58   30.38
   0   7  -4   22.18   23.42
   0   7  -4   52.65   27.47
  -1   7  -4  436.35   39.82
   1  -7   4  403.80   45.16
   1  -7   4  428.28   48.83
  -1   7  -4  422.64   43.28
   1  -7   4  490.45   52.21
  -1   7  -4  534.20   48.82
   1  -7   4  376.12   44.78
   2  -7   4    9.38   25.74
   2  -7   4   29.91   29.16
   2  -7   4   -0.19   27.29
  -2   7  -4    3.17   23.31
   2  -7   4   -4.97   25.67
  -2   7  -4    9.42   26.25
   3  -7   4   85.09   31.41
  -3   7  -4   98.45   30.24
   3  -7   4  158.52   40.82
   3  -7   4  114.58   33.00
  -3   7  -4  117.38   32.86
   3  -7   4  103.41   33.61
  -5  -6   4  208.12   36.62
   5   6  -4  216.37   41.16
   5   6  -4  280.99   46.85
  -5  -6   4  200.18   39.30
   5   6  -4  178.11   39.46
  -5  -6   4  192.83   41.85
  -5  -6   4  241.25   45.94
  -4  -6   4  221.50   38.48
  -4  -6   4  364.27   47.37
   4   6  -4  303.47   41.09
  -4  -6   4  274.41   39.07
  -4  -6   4  270.49   41.14
   4   6  -4  256.66   40.63
   4   6  -4  228.43   39.52
   3   6  -4  180.25   35.80
  -3  -6   4  148.62   31.22
  -3  -6   4  216.44   34.63
  -3  -6   4  229.95   37.22
  -3  -6   4  217.87   39.48
   3   6  -4  147.84   30.58
   2   6  -4   19.19   21.73
  -2  -6   4  -10.92   22.56
   2   6  -4   33.33   25.24
   2   6  -4    5.62   24.23
  -2  -6   4   17.67   24.49
  -2  -6   4   43.39   27.87
  -2  -6   4    7.74   24.22
  -1  -6   4  383.31   42.22
  -1  -6   4  430.91   46.22
   1   6  -4  464.08   43.45
  -1  -6   4  366.79   40.32
  -1  -6   4  426.44   46.07
   1   6  -4  432.63   42.87
   0  -6   4  300.71   41.44
   0   6  -4  284.86   36.43
   0   6  -4  297.58   32.44
   0  -6   4  310.89   38.45
   0   6  -4  299.42   36.02
   0  -6   4  284.39   39.62
   0  -6   4  267.74   35.43
   1  -6   4  254.26   36.04
  -1   6  -4  266.30   32.97
  -1   6  -4  220.28   34.82
   1  -6   4  254.16   38.12
   1  -6   4  268.36   34.79
  -1   6  -4  217.98   28.52
   1  -6   4  203.89   33.25
   1  -6   4  185.57   34.04
   2  -6   4   19.69   24.93
   2  -6   4   24.03   22.86
   2  -6   4   36.59   24.27
  -2   6  -4   53.03   22.29
   2  -6   4   17.12   26.01
  -2   6  -4    5.32   17.71
  -2   6  -4   26.86   25.49
   2  -6   4   49.28   28.58
   3  -6   4  583.60   49.81
   3  -6   4  514.25   51.24
   3  -6   4  569.46   50.91
   3  -6   4  626.95   57.21
  -3   6  -4  592.78   47.93
  -3   6  -4  608.56   44.95
   3  -6   4  453.73   47.05
   4  -6   4  167.32   35.97
   4  -6   4  180.65   33.86
  -4   6  -4  154.55   29.27
   4  -6   4  106.75   32.75
  -4   6  -4  150.62   32.21
   5   5  -4   30.65   28.43
  -5  -5   4   68.69   35.25
  -5  -5   4   67.54   28.27
  -5  -5   4   60.68   29.45
   5   5  -4  106.16   33.25
   5   5  -4   93.25   33.81
  -5  -5   4  134.64   33.36
   4   5  -4  312.74   38.59
  -4  -5   4  246.96   35.31
  -4  -5   4  291.39   37.54
  -4  -5   4  290.99   42.78
   4   5  -4  217.56   35.79
  -4  -5   4  236.15   37.24
   4   5  -4  278.08   40.00
  -3  -5   4  280.29   35.43
   3   5  -4  226.28   35.61
   3   5  -4  225.01   34.37
   3   5  -4  226.91   33.09
  -3  -5   4  151.70   32.69
  -3  -5   4  276.70   39.70
  -3  -5   4  183.19   31.41
   2   5  -4  746.41   53.38
   2   5  -4  722.11   48.15
  -2  -5   4  615.67   49.73
  -2  -5   4  657.80   54.13
  -2  -5   4  694.56   49.45
  -2  -5   4  681.08   53.07
  -1  -5   4   19.60   22.11
  -1  -5   4   18.99   19.83
  -1  -5   4   15.00   21.48
  -1  -5   4   15.69   20.89
   1   5  -4   -0.07   22.29
   1   5  -4    4.03   20.49
  -1  -5   4   -5.74   24.44
   1   5  -4    4.16   19.62
   0  -5   4   44.47   21.44
   0   5  -4   21.18   18.71
   0   5  -4   40.47   21.33
   0  -5   4  -10.13   21.28
   0  -5   4   26.70   22.73
   0  -5   4   10.11   24.06
   0   5  -4   39.38   20.98
   0  -5   4   13.69   20.66
  -1   5  -4  400.02   38.75
  -1   5  -4  409.57   35.62
   1  -5   4  357.25   37.40
   1  -5   4  292.85   35.21
   1  -5   4  372.24   37.50
  -1   5  -4  350.31   30.05
  -1   5  -4  361.82   36.46
   1  -5   4  423.06   40.35
  -1   5  -4  365.58   34.52
   1  -5   4  326.03   40.49
   2  -5   4 1297.78   74.02
  -2   5  -4 1305.78   61.38
  -2   5  -4 1301.46   67.94
  -2   5  -4 1312.38   69.39
   2  -5   4 1178.78   72.37
   2  -5   4 1335.87   73.63
   2  -5   4 1247.99   78.41
   2  -5   4 1254.59   72.06
  -2   5  -4 1244.38   70.61
   2  -5   4 1400.87   71.76
   3  -5   4  106.33   26.85
  -3   5  -4   79.17   22.29
   3  -5   4   70.75   28.65
   3  -5   4   81.65   24.83
   3  -5   4   92.51   26.47
  -3   5  -4  104.48   23.40
  -3   5  -4   53.82   24.17
   3  -5   4   78.31   28.55
   4  -5   4  143.54   30.95
  -4   5  -4  207.76   27.36
  -4   5  -4  233.37   31.71
   4  -5   4  278.19   33.70
   4  -5   4  180.63   33.04
   4  -5   4  192.07   34.12
   5  -5   4  382.06   44.55
  -5   5  -4  416.80   38.45
   5  -5   4  332.74   43.14
   5  -5   4  434.14   45.59
  -6  -4   4  263.29   47.40
   6   4  -4  157.23   37.98
  -6  -4   4  223.20   40.08
   6   4  -4  292.52   43.84
   6   4  -4  263.80   44.48
   5   4  -4   37.84   25.64
  -5  -4   4   26.46   25.81
  -5  -4   4    3.98   22.83
   5   4  -4    1.24   26.51
   5   4  -4   18.50   27.36
  -5  -4   4  -13.36   29.46
  -5  -4   4    0.33   23.49
  -4  -4   4  277.97   36.17
   4   4  -4  357.25   38.68
  -4  -4   4  265.67   33.61
   4   4  -4  347.64   41.95
  -4  -4   4  332.71   40.54
   4   4  -4  197.58   34.80
  -4  -4   4  317.86   31.56
  -4  -4   4  285.27   41.90
   3   4  -4  712.70   52.09
  -3  -4   4  716.56   51.09
  -3  -4   4  644.66   52.20
  -3  -4   4  760.65   57.57
  -3  -4   4  710.97   51.38
  -3  -4   4  663.81   47.95
  -3  -4   4  687.29   48.35
   3   4  -4  674.14   53.47
   3   4  -4  741.32   50.73
  -2  -4   4  353.91   35.38
  -2  -4   4  384.24   36.09
  -2  -4   4  368.69   37.90
  -2  -4   4  340.34   39.03
   2   4  -4  420.35   38.92
   2   4  -4  283.33   31.86
   2   4  -4  293.51   35.37
   2   4  -4  403.47   36.33
  -2  -4   4  352.51   33.85
  -2  -4   4  354.19   37.19
  -1  -4   4   56.98   21.31
   1   4  -4   43.83   19.43
   1   4  -4   67.04   22.97
  -1  -4   4   97.78   21.61
  -1  -4   4   66.36   22.33
  -1  -4   4   66.96   23.46
  -1  -4   4  101.58   23.67
   1   4  -4   89.05   22.62
  -1  -4   4   63.94   21.67
   0   4  -4 1180.92   62.20
   0  -4   4 1137.47   66.20
   0  -4   4 1091.16   62.96
   0  -4   4 1242.68   64.11
   0   4  -4 1159.92   62.68
   0  -4   4 1141.87   64.78
   0  -4   4 1178.61   68.66
   0   4  -4 1239.08   59.17
   0   4  -4 1297.81   64.82
   0  -4   4 1166.95   62.96
   1  -4   4  109.29   26.59
   1  -4   4  123.08   22.90
   1  -4   4  115.60   22.61
  -1   4  -4  115.53   23.53
  -1   4  -4  110.07   20.82
  -1   4  -4   83.84   21.62
  -1   4  -4  174.96   22.07
   1  -4   4  119.34   22.62
   1  -4   4  158.14   24.83
  -1   4  -4  147.95   17.66
   1  -4   4  117.38   22.18
  -2   4  -4   64.38   17.55
  -2   4  -4   39.41   20.47
  -2   4  -4   56.54   17.10
   2  -4   4   50.38   19.51
  -2   4  -4   36.98   19.07
   2  -4   4   50.33   20.57
   2  -4   4   98.91   26.00
   2  -4   4   63.22   21.57
   2  -4   4   28.41   18.43
  -3   4  -4  195.57   26.24
   3  -4   4  196.42   30.45
   3  -4   4  209.54   27.02
   3  -4   4  232.29   30.16
   3  -4   4  228.01   29.28
  -3   4  -4  204.80   24.33
   3  -4   4  230.44   29.17
  -4   4  -4 1498.95   71.41
   4  -4   4 1532.73   80.43
   4  -4   4 1548.02   79.63
  -4   4  -4 1368.70   71.95
   4  -4   4 1467.17   79.81
   4  -4   4 1379.15   78.65
   4  -4   4 1563.38   78.22
   5  -4   4  100.32   32.57
  -5   4  -4  123.57   20.70
  -5   4  -4  163.30   22.46
   5  -4   4  156.75   27.13
   5  -4   4  115.51   30.29
   5  -4   4  127.49   26.99
   5  -4   4  170.10   30.41
  -5   4  -4  154.72   23.89
   5  -4   4  128.88   29.63
   6  -4   4  222.17   40.58
   6  -4   4  182.56   33.12
   6  -4   4  176.02   35.59
   6  -4   4  178.90   34.63
   6   3  -4  110.91   36.65
   6   3  -4  109.70   34.45
  -6  -3   4   99.48   30.81
  -6  -3   4   53.77   36.30
   6   3  -4   61.49   29.23
  -6  -3   4   86.31   30.59
   5   3  -4  -18.86   24.09
  -5  -3   4  -21.96   22.52
  -5  -3   4  -43.43   17.86
  -5  -3   4    8.31   21.66
  -5  -3   4   17.30   23.58
   5   3  -4    3.85   25.07
  -5  -3   4   -0.04   27.60
   5   3  -4   31.38   23.40
   4   3  -4   65.11   24.04
   4   3  -4   77.64   27.19
  -4  -3   4   10.71   22.87
  -4  -3   4  137.39   26.92
  -4  -3   4   69.63   24.62
   4   3  -4   80.75   29.20
  -4  -3   4  116.73   23.09
  -4  -3   4   77.02   31.08
  -4  -3   4   48.52   22.71
   3   3  -4  198.91   29.57
   3   3  -4  272.99   31.81
  -3  -3   4  232.41   29.50
  -3  -3   4  197.82   30.41
   3   3  -4  266.19   34.04
  -3  -3   4  304.10   31.62
  -3  -3   4  229.09   27.53
  -3  -3   4  221.19   28.31
  -3  -3   4  232.55   34.22
   3   3  -4  231.90   31.46
  -3  -3   4  241.63   33.98
  -2  -3   4   76.90   22.17
  -2  -3   4   98.92   20.32
   2   3  -4   88.56   22.32
  -2  -3   4   34.41   19.24
   2   3  -4   92.19   22.63
  -2  -3   4   87.56   23.54
   2   3  -4  100.92   21.68
  -2  -3   4   72.33   20.42
  -2  -3   4   97.55   21.37
  -2  -3   4   95.12   25.13
  -1  -3   4   85.09   19.81
   1   3  -4   94.15   19.89
  -1  -3   4  122.06   20.06
  -1  -3   4  119.82   22.10
   1   3  -4   89.32   20.58
  -1  -3   4   98.82   19.60
   1   3  -4   51.39   18.49
  -1  -3   4   88.72   21.73
  -1  -3   4   99.40   22.40
  -1  -3   4   98.69   21.90
   1   3  -4  109.52   20.43
   0  -3   4 1272.62   67.03
   0  -3   4 1249.91   64.05
   0   3  -4 1262.94   67.13
   0  -3   4 1174.68   60.94
   0  -3   4 1261.27   63.34
   0   3  -4 1135.39   60.12
   0   3  -4 1141.69   60.43
   0  -3   4 1172.58   61.50
   0  -3   4 1241.29   63.07
   0   3  -4 1182.81   57.02
   0  -3   4 1221.86   60.99
   0   3  -4 1296.05   62.41
  -1   3  -4 1818.99   83.54
   1  -3   4 1886.70   93.50
   1  -3   4 1820.39   87.71
   1  -3   4 1928.21   86.18
  -1   3  -4 1940.57   85.42
   1  -3   4 1959.31   87.49
   1  -3   4 1818.21   85.82
   1  -3   4 1823.29   87.12
  -1   3  -4 1841.37   85.30
  -1   3  -4 1893.67   85.03
   1  -3   4 2028.24   89.42
   2  -3   4   32.62   16.30
   2  -3   4    5.06   13.17
  -2   3  -4   39.24   12.97
  -2   3  -4   40.42   16.30
  -2   3  -4   18.83   13.07
   2  -3   4   10.03   14.63
   2  -3   4   26.12   15.50
   2  -3   4   22.57   15.86
   2  -3   4    4.44   16.96
   3  -3   4  265.01   27.92
  -3   3  -4  265.34   22.09
   3  -3   4  280.93   25.43
   3  -3   4  241.39   26.57
   3  -3   4  240.34   26.65
   3  -3   4  270.20   28.64
  -3   3  -4  256.73   30.80
  -3   3  -4  291.32   23.93
   4  -3   4  694.32   52.93
  -4   3  -4  761.87   39.93
   4  -3   4  733.65   48.53
   4  -3   4  782.06   48.11
   4  -3   4  782.52   46.85
   4  -3   4  766.27   48.78
   4  -3   4  739.40   49.26
  -4   3  -4  814.51   40.19
   5  -3   4   58.23   22.90
   5  -3   4   58.66   20.51
   5  -3   4   30.86   19.48
   5  -3   4   31.38   25.71
   5  -3   4   -5.56   20.75
   5  -3   4   12.67   21.76
   6  -3   4  -17.81   22.61
   6  -3   4   35.52   20.38
   6  -3   4   -1.56   20.60
   6  -3   4    0.32   22.57
   6  -3   4   45.15   23.77
   7  -3   4  176.78   38.02
   7  -3   4  141.82   32.86
   7  -3   4  245.20   36.66
   7  -3   4  153.61   33.36
   6   2  -4  -20.04   26.00
  -6  -2   4   -0.44   33.02
   6   2  -4  -18.31   23.39
  -6  -2   4  -34.57   22.95
   6   2  -4  -24.97   26.66
  -6  -2   4    3.73   23.52
   6   2  -4   17.40   28.10
  -5  -2   4  283.07   36.81
   5   2  -4  367.33   43.18
   5   2  -4  282.03   38.78
   5   2  -4  211.29   36.53
  -5  -2   4  336.30   37.22
  -5  -2   4  331.33   45.20
   5   2  -4  357.19   35.29
   4   2  -4  365.11   34.89
  -4  -2   4  395.00   34.84
  -4  -2   4  394.55   43.76
   4   2  -4  350.26   40.91
  -4  -2   4  296.82   37.32
  -4  -2   4  388.18   33.62
   4   2  -4  335.39   37.09
   4   2  -4  390.26   39.87
  -4  -2   4  355.86   37.37
  -4  -2   4  311.66   34.33
  -3  -2   4   -2.25   15.91
  -3  -2   4  -30.19   15.96
  -3  -2   4   29.67   17.38
   3   2  -4  -15.12   15.99
  -3  -2   4    2.79   21.41
  -3  -2   4    5.72   17.44
   3   2  -4  -11.12   18.18
  -3  -2   4   -0.95   19.61
   3   2  -4   42.20   21.79
  -3  -2   4    3.98   14.31
   3   2  -4   16.53   17.17
   3   2  -4   -4.70   18.47
  -2  -2   4  991.04   54.57
  -2  -2   4  946.83   53.36
   2   2  -4  941.82   55.69
  -2  -2   4  897.15   54.80
   2   2  -4  863.10   54.27
  -2  -2   4 1057.96   56.79
  -2  -2   4  990.49   50.05
  -2  -2   4  949.61   56.96
  -2  -2   4  900.85   50.39
   2   2  -4  841.02   53.43
   2   2  -4  944.41   52.49
  -2  -2   4  915.35   52.87
  -1  -2   4 3339.03  148.91
   1   2  -4 3431.70  150.67
  -1  -2   4 3378.61  149.80
  -1  -2   4 3659.38  151.60
  -1  -2   4 3672.95  152.02
  -1  -2   4 3576.13  151.77
  -1  -2   4 3616.52  152.81
  -1  -2   4 3749.24  155.32
   1   2  -4 3401.65  148.98
  -1  -2   4 3470.83  155.94
   1   2  -4 3775.86  152.45
   1   2  -4 3419.66  154.47
   0   2  -4  768.24   41.28
   0   2  -4  836.33   48.48
   0   2  -4  796.94   39.55
   0  -2   4  798.97   42.37
   0   2  -4  840.35   44.49
   0  -2   4  867.46   46.53
   0   2  -4  823.10   42.78
   0  -2   4  826.77   48.41
   0   2  -4  790.77   39.45
   0   2  -4  904.03   44.19
   0  -2   4  854.71   43.80
   0  -2   4  709.52   42.60
   0  -2   4  803.44   44.82
   0  -2   4  846.28   45.22
  -1   2  -4   50.97   14.64
   1  -2   4   32.47   13.68
   1  -2   4   55.31   15.20
   1  -2   4   54.00   12.96
   1  -2   4   26.46   16.38
   1  -2   4   35.95   12.35
   1  -2   4   58.30   14.65
  -1   2  -4   39.80   12.27
  -1   2  -4   49.40   12.18
  -1   2  -4   58.69   11.93
   1  -2   4   59.44   13.75
   2  -2   4  304.34   22.10
   2  -2   4  317.25   25.00
   2  -2   4  329.58   24.00
   2  -2   4  311.31   25.77
   2  -2   4  318.94   25.31
   2  -2   4  348.33   23.29
  -2   2  -4  277.84   19.04
  -2   2  -4  328.93   28.04
   2  -2   4  347.50   31.71
   3  -2   4 2070.02   94.34
   3  -2   4 2123.25   96.35
  -3   2  -4 2216.42   97.70
   3  -2   4 2253.62   95.65
   3  -2   4 2252.70   98.08
   3  -2   4 2143.41   98.52
   3  -2   4 2200.14   96.83
   3  -2   4 2257.56   94.06
   4  -2   4   97.19   16.94
   4  -2   4   35.08   16.93
   4  -2   4   80.68   16.90
   4  -2   4   76.31   18.52
   4  -2   4   82.37   22.40
   4  -2   4   61.34   17.72
   4  -2   4   69.11   18.89
   5  -2   4   18.82   18.68
   5  -2   4   28.00   16.40
   5  -2   4   20.72   19.59
   5  -2   4    9.57   19.60
   5  -2   4   16.19   18.71
   5  -2   4   -5.80   15.05
   6  -2   4   23.61   22.05
   6  -2   4   24.20   21.19
   6  -2   4   35.66   19.23
   6  -2   4   30.18   20.25
   6  -2   4    2.72   19.83
   6  -2   4   21.99   21.04
   7  -2   4  831.17   58.13
   7  -2   4  954.54   62.11
   7  -2   4  743.74   63.53
   7  -2   4  855.53   59.60
  -6  -1   4  348.26   41.35
  -6  -1   4  325.67   44.43
   6   1  -4  459.17   50.19
  -6  -1   4  370.62   52.89
   6   1  -4  369.84   48.07
   6   1  -4  547.25   45.30
   6   1  -4  452.17   49.07
   6   1  -4  354.11   38.51
  -5  -1   4    2.46   20.61
   5   1  -4    1.64   19.16
   5   1  -4    3.93   22.38
   5   1  -4   31.79   24.12
   5   1  -4  -11.74   25.08
   5   1  -4   56.91   27.35
  -5  -1   4   20.42   23.08
  -5  -1   4   21.28   30.05
  -4  -1   4   46.18   22.65
  -4  -1   4   18.90   26.04
   4   1  -4   88.29   26.26
  -4  -1   4   53.29   21.48
  -4  -1   4   60.97   21.26
   4   1  -4   58.45   25.45
  -4  -1   4   49.50   24.59
   4   1  -4   41.66   22.83
   4   1  -4   34.57   22.39
  -3  -1   4  112.53   20.90
  -3  -1   4   54.86   16.64
   3   1  -4   72.22   22.35
  -3  -1   4   82.42   21.95
  -3  -1   4   75.52   20.47
  -3  -1   4   48.47   18.39
  -3  -1   4   74.28   24.06
  -3  -1   4   58.48   21.46
   3   1  -4   50.93   21.29
   3   1  -4   55.31   20.13
   3   1  -4   93.42   21.18
   3   1  -4   93.43   22.64
  -2  -1   4  823.88   47.88
  -2  -1   4  959.09   49.90
  -2  -1   4  785.13   50.31
   2   1  -4  849.12   49.50
   2   1  -4  769.57   49.39
   2   1  -4  866.68   50.58
  -2  -1   4  870.51   46.92
  -2  -1   4  903.15   53.16
   2   1  -4  919.19   49.23
  -2  -1   4  854.34   42.76
   2   1  -4  830.79   51.40
  -2  -1   4  762.86   49.46
  -2  -1   4  883.34   50.99
   1   1  -4  689.52   41.19
   1   1  -4  687.84   42.89
  -1  -1   4  731.99   43.39
  -1  -1   4  747.87   41.62
  -1  -1   4  744.38   38.64
  -1  -1   4  661.50   42.14
   1   1  -4  687.15   41.54
   1   1  -4  716.39   43.11
  -1  -1   4  620.82   39.06
   1   1  -4  715.04   36.51
   1   1  -4  737.82   39.44
   1   1  -4  690.50   38.44
  -1  -1   4  693.13   42.80
  -1  -1   4  718.03   41.66
  -1  -1   4  763.36   43.09
   1   1  -4  704.31   38.64
   0  -1   4   12.42   10.98
   0  -1   4   22.81   10.47
   0   1  -4    3.75   11.17
   0  -1   4   10.18   13.46
   0  -1   4   -3.95   12.33
   0   1  -4   27.41   13.48
   0   1  -4   12.53    9.28
   0  -1   4   -2.77   11.13
   0  -1   4    8.01   10.25
   0  -1   4   -3.77   13.22
   0  -1   4   -3.12   10.22
  -1   1  -4 2701.97  107.57
   1  -1   4 2649.87  111.23
   1  -1   4 2641.47  109.91
   1  -1   4 2726.06  119.62
   1  -1   4 2748.26  111.37
   2  -1   4 1920.49   79.36
  -2   1  -4 1807.07   80.46
   2  -1   4 1848.34   79.06
   2  -1   4 1934.14   79.88
   2  -1   4 1894.45   81.57
   2  -1   4 1810.81   78.32
   3  -1   4  -10.48    8.60
   3  -1   4   -1.63    9.70
   3  -1   4   10.32   13.48
   3  -1   4   16.49   10.37
   3  -1   4    3.35    9.86
   4  -1   4   11.66   12.96
   4  -1   4   -9.83   11.87
   4  -1   4  -29.84   18.15
   4  -1   4   -2.38   14.95
   4  -1   4    1.72   10.50
   4  -1   4   -3.48   12.94
   5  -1   4  704.97   45.80
   5  -1   4  822.23   48.57
   5  -1   4  798.58   51.92
   5  -1   4  729.61   43.15
   5  -1   4  792.48   42.31
   5  -1   4  772.65   46.05
   5  -1   4  805.81   55.96
   5  -1   4  766.90   44.38
   6  -1   4   60.38   18.87
   6  -1   4   50.64   20.72
   6  -1   4   50.05   23.63
   6  -1   4   26.81   21.83
   6  -1   4   42.66   18.98
   6  -1   4   58.69   22.32
   7  -1   4   69.77   22.42
   7  -1   4   29.78   22.09
   7  -1   4   84.52   23.97
   7  -1   4  129.68   29.64
   7  -1   4   27.77   22.80
   6   0  -4  334.95   36.21
   6   0  -4  314.11   44.43
   6   0  -4  357.92   47.66
  -6   0   4  435.61   54.00
   6   0  -4  421.44   50.50
  -6   0   4  341.52   43.08
  -6   0   4  322.41   40.56
   6   0  -4  337.76   41.50
  -5   0   4   -4.23   28.29
  -5   0   4  -16.10   19.88
   5   0  -4  -12.64   24.57
  -5   0   4   37.32   24.73
   5   0  -4   47.84   25.85
   5   0  -4    1.60   17.95
   5   0  -4   19.34   22.41
   5   0  -4    8.17   25.40
   4   0  -4  465.58   45.76
  -4   0   4  527.76   50.81
   4   0  -4  547.44   46.04
  -4   0   4  538.37   43.12
  -4   0   4  536.24   39.82
   4   0  -4  523.56   33.34
   4   0  -4  498.21   44.48
   4   0  -4  525.46   42.30
   3   0  -4   -2.46   16.52
  -3   0   4   -9.52   16.14
  -3   0   4    9.95   16.58
  -3   0   4   -6.16   21.47
  -3   0   4   -9.62   15.97
   3   0  -4  -18.19   17.79
  -3   0   4    6.49   16.14
   3   0  -4   -6.25   16.95
   3   0  -4   -2.86   16.22
  -3   0   4   -7.85   18.73
   3   0  -4   17.66   18.84
   2   0  -4 2053.31   96.47
  -2   0   4 2160.87   97.67
   2   0  -4 1908.00   94.25
  -2   0   4 1962.19   96.82
  -2   0   4 1962.61   93.09
  -2   0   4 2099.64   95.26
  -2   0   4 1996.62   94.54
   2   0  -4 2225.46   97.40
   2   0  -4 2078.03   96.52
  -2   0   4 2088.59   95.01
   2   0  -4 2009.58   90.37
  -2   0   4 1970.26   91.39
   2   0  -4 2069.63   93.53
  -2   0   4 1995.99   89.61
  -2   0   4 2013.02   96.28
   1   0  -4   20.45   12.24
  -1   0   4   34.42   15.37
  -1   0   4   47.94   17.03
   1   0  -4   17.11   15.23
   1   0  -4   32.75   13.91
  -1   0   4   -2.13   12.76
   1   0  -4   26.14   11.80
  -1   0   4   10.93   12.94
  -1   0   4   30.80   12.95
  -1   0   4   30.71   12.24
  -1   0   4    8.71   11.98
   1   0  -4   30.81   14.19
  -1   0   4   19.81   13.64
   1   0  -4   25.36   12.61
  -1   0   4   27.51   14.41
   1   0  -4   32.79   10.09
   1   0  -4   32.55   14.32
   0   0  -4   43.08   13.21
   0   0   4   21.61   10.16
   0   0   4   34.47    9.55
   0   0   4   17.09   12.96
   0   0  -4   12.27    7.37
   0   0   4   28.91   10.51
   0   0  -4   14.83    9.57
   0   0  -4    8.66   13.40
   0   0   4   10.20   14.44
   0   0   4   11.68   11.58
   0   0   4   19.27   11.68
   0   0   4   18.27   13.65
   0   0  -4   11.92    8.81
   0   0  -4   31.68   11.16
   0   0   4   32.98   14.42
   1   0   4  120.55   13.67
   1   0   4  120.93   12.20
  -1   0  -4  103.10   12.62
   1   0   4  134.60   19.24
   1   0   4  121.52   20.26
   1   0   4  108.87   17.43
   1   0   4  111.46   12.02
   1   0   4  117.30   12.59
   1   0   4  107.66   11.54
  -1   0  -4  124.38   17.46
   2   0   4   82.23   18.79
   2   0   4   66.02   15.13
   2   0   4   72.49   13.63
   3   0   4   75.79   16.18
   3   0   4  139.89   23.37
   4   0   4 1558.57   80.01
   4   0   4 1442.43   70.80
   4   0   4 1516.18   65.68
   4   0   4 1487.21   65.07
   4   0   4 1424.18   64.83
   4   0   4 1480.29   64.18
   5   0   4   31.47   18.06
   5   0   4   42.68   14.50
   5   0   4  -13.44   19.96
   5   0   4    2.97   13.90
   5   0   4   -9.28   14.62
   5   0   4   12.72   12.08
   6   0   4  167.88   23.68
   6   0   4  153.24   32.37
   6   0   4  188.58   27.16
   6   0   4  162.11   28.69
   6   0   4  155.52   23.66
   6   0   4  162.94   21.95
   6   0   4  190.93   25.22
   7   0   4   74.34   22.39
   7   0   4   84.11   26.20
   7   0   4  113.69   26.37
   7   0   4   92.82   23.23
   7   0   4   62.23   20.53
   7   0   4   42.15   21.57
   8   0   4  195.13   33.76
   8   0   4  350.07   41.70
   8   0   4  213.96   38.99
   8   0   4  322.94   36.85
  -6   1   4  130.77   32.04
   6  -1  -4   94.24   34.78
   6  -1  -4  141.37   31.16
   6  -1  -4  143.60   35.11
  -6   1   4  161.30   34.44
   6  -1  -4  165.51   27.97
   6  -1  -4  121.99   38.01
  -6   1   4  186.38   44.07
   6  -1  -4  150.94   27.08
   5  -1  -4   -5.52   25.05
  -5   1   4  -12.16   29.48
  -5   1   4    8.71   23.33
  -5   1   4   -1.17   21.71
   5  -1  -4   -5.98   16.42
   5  -1  -4   -4.92   20.47
   5  -1  -4  -35.84   23.76
   5  -1  -4  -19.08   20.97
  -4   1   4  535.62   52.42
   4  -1  -4  623.01   36.25
  -4   1   4  589.60   44.28
   4  -1  -4  577.84   46.99
   4  -1  -4  688.13   53.69
   4  -1  -4  686.99   50.37
   4  -1  -4  657.50   48.54
  -4   1   4  594.98   46.40
   3  -1  -4  525.55   29.37
   3  -1  -4  451.49   38.60
  -3   1   4  639.64   39.26
   3  -1  -4  519.84   41.45
   3  -1  -4  628.78   46.91
  -3   1   4  565.73   41.91
  -3   1   4  584.66   47.56
  -3   1   4  713.75   46.74
   3  -1  -4  526.62   41.54
   3  -1  -4  534.79   40.63
  -2   1   4  203.13   25.13
   2  -1  -4  140.99   24.92
   2  -1  -4  213.24   24.55
  -2   1   4  166.92   22.54
   2  -1  -4  191.23   26.56
  -2   1   4  159.53   24.03
  -2   1   4  194.76   26.40
  -2   1   4  233.17   28.81
   2  -1  -4  187.95   23.77
   2  -1  -4  164.59   22.42
  -2   1   4  199.67   24.57
  -2   1   4  164.16   21.29
  -1   1   4  552.76   38.75
  -1   1   4  574.54   32.16
   1  -1  -4  589.65   30.61
   1  -1  -4  517.05   35.04
  -1   1   4  573.43   37.21
  -1   1   4  527.83   35.27
   1  -1  -4  519.41   36.11
  -1   1   4  576.38   32.54
  -1   1   4  533.61   33.69
   1  -1  -4  565.74   32.97
   1  -1  -4  595.23   36.73
  -1   1   4  516.98   34.41
   1  -1  -4  508.79   32.66
   1  -1  -4  578.79   34.80
  -1   1   4  616.36   37.09
   1  -1  -4  544.16   32.67
  -1   1   4  538.30   36.05
   0  -1  -4 1844.65   83.15
   0   1   4 1890.48   80.87
   0   1   4 1812.23   80.26
   0   1   4 1934.26   81.36
   0   1   4 1844.02   81.76
   0   1   4 1907.76   79.37
   0   1   4 1876.35   83.02
   0  -1  -4 1794.44   86.64
   0  -1  -4 1846.63   79.16
   0   1   4 1882.30   86.87
   0   1   4 1857.61   85.96
   0  -1  -4 1864.00   86.42
   0  -1  -4 1840.49   80.58
   0   1   4 1964.40   84.04
   1   1   4  577.90   27.47
   1   1   4  582.15   27.60
   1   1   4  567.56   27.91
   1   1   4  525.30   28.32
   1   1   4  576.14   37.75
   1   1   4  566.52   27.18
   1   1   4  629.73   36.72
   1   1   4  572.64   32.40
  -1  -1  -4  578.36   37.67
  -1  -1  -4  558.21   35.66
  -1  -1  -4  617.21   34.49
   2   1   4  131.66   18.78
   2   1   4  155.41   17.25
   2   1   4  137.49   21.68
  -2  -1  -4  124.20   21.14
   3   1   4  212.86   22.65
  -3  -1  -4  210.86   27.12
   3   1   4  234.20   26.69
  -4  -1  -4 2150.36  107.77
   4   1   4 2176.06  106.30
   5   1   4  691.72   39.27
   5   1   4  707.55   38.44
   5   1   4  723.80   39.98
   5   1   4  715.07   50.66
   5   1   4  730.52   39.54
   6   1   4   -9.50   14.34
   6   1   4   27.59   18.55
   6   1   4   31.59   18.03
   6   1   4  -14.17   13.57
   6   1   4   -0.83   23.31
   6   1   4   -5.63   14.81
   7   1   4  110.82   24.82
   7   1   4   95.29   23.07
   7   1   4   92.38   22.70
   7   1   4  136.04   27.29
   7   1   4  128.39   21.99
   8   1   4  391.64   52.41
   8   1   4  273.63   35.21
   8   1   4  374.91   42.28
   8   1   4  349.26   38.48
   6  -2  -4    8.29   31.05
  -6   2   4   53.49   37.88
   6  -2  -4    3.07   27.64
   6  -2  -4    2.56   22.38
   6  -2  -4   -0.85   26.96
  -6   2   4  -10.21   26.72
   6  -2  -4   19.75   21.63
   6  -2  -4   39.91   30.36
   5  -2  -4  219.79   26.90
   5  -2  -4  197.53   37.41
  -5   2   4  180.17   32.68
   5  -2  -4  178.13   33.30
   5  -2  -4  245.99   38.56
  -5   2   4  214.26   42.10
   5  -2  -4  216.01   27.75
   5  -2  -4  159.80   32.88
  -5   2   4  164.20   31.20
   4  -2  -4  -31.20   21.02
   4  -2  -4   14.35   16.75
   4  -2  -4    2.92   24.88
   4  -2  -4   18.79   15.39
   4  -2  -4   15.36   25.00
  -4   2   4   15.85   21.90
  -4   2   4   16.66   29.35
  -4   2   4   24.59   23.67
   4  -2  -4   37.23   22.37
   3  -2  -4  219.53   21.90
   3  -2  -4  196.77   31.79
   3  -2  -4  214.50   18.74
  -3   2   4  154.20   25.34
  -3   2   4  242.07   34.60
  -3   2   4  223.94   30.78
   3  -2  -4  215.30   28.69
   3  -2  -4  199.76   28.52
   3  -2  -4  165.28   28.59
   3  -2  -4  209.42   30.09
  -3   2   4  219.79   28.87
   2  -2  -4   70.62   17.94
  -2   2   4   59.25   22.33
  -2   2   4   55.36   17.74
   2  -2  -4   67.81   12.43
  -2   2   4   57.11   20.42
   2  -2  -4   79.57   21.35
   2  -2  -4   74.93   19.04
  -2   2   4   82.92   22.26
   2  -2  -4  110.49   22.62
  -2   2   4   49.64   17.14
   2  -2  -4   84.63   13.45
   2  -2  -4   77.30   20.15
   1  -2  -4 2495.04  123.38
  -1   2   4 2954.86  125.23
   1  -2  -4 2769.21  125.21
  -1   2   4 3071.09  129.62
   1  -2  -4 3076.50  123.45
  -1   2   4 2877.68  129.76
   1  -2  -4 3016.13  129.26
   1  -2  -4 2885.28  127.90
   1  -2  -4 3007.93  128.01
  -1   2   4 3008.89  128.05
  -1   2   4 3210.99  129.18
  -1   2   4 2953.40  126.60
  -1   2   4 3029.12  131.35
   1  -2  -4 2882.28  131.09
   1  -2  -4 2899.73  127.76
  -1   2   4 2945.57  128.37
   1  -2  -4 2999.35  125.07
   0  -2  -4 1438.70   72.82
   0   2   4 1469.53   68.41
   0   2   4 1554.20   69.13
   0  -2  -4 1472.05   66.30
   0  -2  -4 1421.09   71.90
   0  -2  -4 1532.17   63.60
   0   2   4 1523.56   66.70
   0  -2  -4 1540.73   68.80
   0   2   4 1556.95   70.20
   0   2   4 1441.15   71.19
   0   2   4 1537.95   70.93
   0   2   4 1447.96   68.33
   0  -2  -4 1621.01   68.69
   0  -2  -4 1557.39   66.15
   0   2   4 1566.39   73.18
   0   2   4 1475.36   68.31
   1   2   4  308.14   25.68
  -1  -2  -4  292.68   25.86
   1   2   4  309.21   26.29
  -1  -2  -4  272.03   24.13
   1   2   4  246.62   19.44
   1   2   4  256.85   18.44
  -1  -2  -4  263.28   19.12
   1   2   4  254.47   20.62
   1   2   4  264.61   19.32
   1   2   4  244.44   18.89
   1   2   4  258.98   18.48
   2   2   4  459.75   32.48
   2   2   4  459.91   31.24
   2   2   4  537.99   35.72
  -2  -2  -4  490.55   31.73
  -2  -2  -4  473.99   35.56
   2   2   4  471.78   26.98
   3   2   4 3649.33  150.75
   3   2   4 3567.90  155.18
  -3  -2  -4 3453.96  158.60
   3   2   4 3461.70  158.11
   4   2   4  365.21   22.60
   4   2   4  424.75   37.31
  -4  -2  -4  439.01   37.23
   4   2   4  447.01   38.18
   4   2   4  393.60   29.50
   5   2   4   -4.78   14.44
   5   2   4    5.41   21.09
   5   2   4  -10.93   12.11
  -5  -2  -4   11.16   23.17
   5   2   4    1.35   13.08
   5   2   4   -7.18   13.45
   5   2   4    9.08   12.22
   5   2   4   21.63   21.37
   6   2   4   33.44   24.80
   6   2   4   19.05   18.26
   6   2   4   18.21   13.83
  -6  -2  -4   28.81   28.75
   6   2   4   -2.22   25.31
   6   2   4   33.35   20.38
   6   2   4   14.10   17.87
   6   2   4   27.39   16.89
   6   2   4    5.78   15.06
   7   2   4  240.63   40.73
   7   2   4  147.84   27.21
   7   2   4  184.14   30.07
   7   2   4  161.40   26.10
   7   2   4  184.69   24.81
   7   2   4  182.99   24.23
   8   2   4   98.45   30.86
   8   2   4   64.86   23.97
   8   2   4   56.57   25.59
   8   2   4   48.06   34.53
   8   2   4   31.66   21.64
   5  -3  -4   64.39   31.80
   5  -3  -4  -16.87   23.96
   5  -3  -4   15.83   29.11
  -5   3   4   -3.99   24.02
   5  -3  -4   26.71   21.00
   5  -3  -4   18.32   24.67
  -5   3   4   29.32   34.54
  -5   3   4  -13.74   22.79
  -4   3   4  120.39   34.51
   4  -3  -4   93.05   26.73
  -4   3   4   49.80   25.99
   4  -3  -4   91.12   30.14
  -4   3   4   86.02   26.30
   4  -3  -4  102.96   22.58
   4  -3  -4  100.75   26.86
   4  -3  -4   73.13   29.39
   3  -3  -4  877.83   46.94
  -3   3   4  823.90   62.82
  -3   3   4  901.97   54.35
  -3   3   4  941.24   57.13
   3  -3  -4  845.64   60.27
   3  -3  -4  847.03   57.86
   3  -3  -4  854.85   57.59
   3  -3  -4  927.49   57.22
   3  -3  -4  925.66   57.88
   2  -3  -4  364.22   33.05
   2  -3  -4  403.44   34.17
  -2   3   4  356.14   35.76
  -2   3   4  345.69   32.74
  -2   3   4  390.07   31.97
   2  -3  -4  429.46   37.93
   2  -3  -4  338.64   26.96
  -2   3   4  352.20   37.39
   2  -3  -4  380.98   32.14
   2  -3  -4  379.98   36.06
   1  -3  -4  444.50   33.69
   1  -3  -4  518.12   37.31
  -1   3   4  575.09   38.94
   1  -3  -4  463.86   37.49
  -1   3   4  508.02   37.88
  -1   3   4  542.14   41.09
   1  -3  -4  523.19   38.48
  -1   3   4  519.99   34.16
   1  -3  -4  526.01   33.69
  -1   3   4  549.45   39.15
  -1   3   4  571.07   36.43
   1  -3  -4  530.93   33.11
   0  -3  -4  377.09   29.17
   0  -3  -4  349.67   27.41
   0   3   4  386.88   28.99
   0   3   4  324.76   28.50
   0   3   4  328.50   26.63
   0   3   4  358.23   30.72
   0   3   4  400.11   32.25
   0  -3  -4  401.10   25.24
   0   3   4  380.49   25.64
   0  -3  -4  331.43   21.24
   0  -3  -4  357.07   25.42
   0  -3  -4  352.45   28.28
   0   3   4  354.37   29.28
   0  -3  -4  356.65   30.57
   0  -3  -4  342.47   23.08
   0  -3  -4  361.19   22.06
   0  -3  -4  357.30   23.25
  -1  -3  -4 1590.55   70.50
   1   3   4 1592.69   70.42
  -1  -3  -4 1537.72   75.89
  -1  -3  -4 1468.64   66.19
   1   3   4 1522.73   66.92
   1   3   4 1633.44   68.68
  -1  -3  -4 1400.21   72.88
   1   3   4 1545.74   71.43
  -1  -3  -4 1487.07   66.03
   1   3   4 1570.00   74.92
   1   3   4 1543.22   66.11
   1   3   4 1546.55   70.56
   1   3   4 1545.25   69.05
   1   3   4 1636.55   70.36
  -1  -3  -4 1593.02   66.10
  -2  -3  -4  746.50   44.46
   2   3   4  851.04   41.42
  -2  -3  -4  792.07   45.20
   2   3   4  828.02   40.19
   2   3   4  869.39   46.08
  -2  -3  -4  777.03   49.20
   2   3   4  960.34   41.37
   2   3   4  826.97   45.88
   2   3   4  885.43   41.40
   3   3   4  324.44   30.88
  -3  -3  -4  256.27   23.20
   3   3   4  287.74   19.66
  -3  -3  -4  288.09   29.86
   3   3   4  304.49   19.27
   3   3   4  282.88   24.38
   3   3   4  254.26   19.45
   3   3   4  275.61   21.20
   3   3   4  264.17   27.32
   4   3   4   -7.71   15.82
   4   3   4   -7.87   10.60
   4   3   4  -11.16   11.73
   4   3   4  -27.65   10.03
   4   3   4   23.97   10.34
  -4  -3  -4  -16.68   16.69
   4   3   4    2.41   18.98
   4   3   4   -4.32   10.38
   5   3   4  399.18   29.59
  -5  -3  -4  428.06   40.52
   5   3   4  467.99   41.84
   5   3   4  398.00   30.49
   5   3   4  412.16   30.75
   5   3   4  397.03   29.54
   5   3   4  431.41   29.54
   5   3   4  396.15   40.01
  -6  -3  -4  301.89   39.17
   6   3   4  219.36   25.06
   6   3   4  307.82   24.42
   6   3   4  280.09   38.67
   6   3   4  298.11   28.96
   6   3   4  318.10   31.66
   6   3   4  253.77   27.33
   6   3   4  239.24   24.60
   7   3   4    3.44   20.84
   7   3   4    5.42   26.28
   7   3   4   -5.90   17.55
  -7  -3  -4   12.57   28.43
   7   3   4  -12.18   16.12
   7   3   4   -7.33   18.40
   7   3   4  -20.79   21.47
   8   3   4   16.90   30.54
  -8  -3  -4    5.55   33.26
   8   3   4   -0.92   22.13
   8   3   4  -17.86   22.16
   8   3   4   11.60   29.27
   5  -4  -4   20.53   28.04
   5  -4  -4  -14.36   25.15
   5  -4  -4   10.48   23.71
  -5   4   4   29.91   35.06
  -5   4   4   -0.45   26.75
   5  -4  -4   18.16   31.06
  -5   4   4   17.59   26.66
   5  -4  -4    1.06   28.53
   4  -4  -4  227.46   38.55
   4  -4  -4  247.19   38.32
   4  -4  -4  226.93   35.98
  -4   4   4  269.55   42.89
  -4   4   4  261.33   34.07
   4  -4  -4  258.73   40.14
  -4   4   4  211.66   34.73
   3  -4  -4  267.65   35.72
  -3   4   4  336.65   42.42
  -3   4   4  311.53   37.32
   3  -4  -4  377.14   38.14
   3  -4  -4  330.82   28.35
  -3   4   4  321.31   35.95
   3  -4  -4  285.27   39.27
   3  -4  -4  313.64   37.53
   3  -4  -4  267.07   39.07
  -2   4   4  563.38   40.45
   2  -4  -4  616.35   40.86
   2  -4  -4  552.87   46.06
   2  -4  -4  531.63   37.38
  -2   4   4  585.41   49.34
   2  -4  -4  547.40   42.11
   2  -4  -4  525.17   46.09
   2  -4  -4  554.33   42.82
  -2   4   4  620.37   47.80
  -2   4   4  549.47   43.69
  -1   4   4  126.85   16.22
  -1   4   4   68.73   20.89
   1  -4  -4   72.50   20.97
   1  -4  -4   98.57   20.38
  -1   4   4   83.91   19.91
   1  -4  -4   55.41   17.88
   1  -4  -4   74.81   22.72
  -1   4   4  117.00   25.33
  -1   4   4   68.37   21.42
   1  -4  -4  114.66   23.25
  -1   4   4  101.14   21.39
   1  -4  -4   96.50   17.69
   0   4   4   79.72   16.84
   0   4   4   67.00   18.23
   0  -4  -4   75.73   13.14
   0  -4  -4   58.10   17.60
   0  -4  -4   53.41   15.16
   0   4   4   83.84   19.18
   0   4   4   86.96   18.74
   0  -4  -4   42.51   18.12
   0  -4  -4   65.21   18.68
   0  -4  -4   61.87   16.33
   0  -4  -4   67.86   14.68
   0  -4  -4   72.18   15.38
   0   4   4   61.34   19.50
   0   4   4   50.15   16.55
  -1  -4  -4  429.40   28.06
  -1  -4  -4  458.57   35.84
   1   4   4  409.71   28.03
  -1  -4  -4  477.77   30.05
   1   4   4  408.13   30.16
  -1  -4  -4  428.51   33.91
   1   4   4  444.37   33.07
   1   4   4  468.51   31.37
   1   4   4  416.34   33.50
   1   4   4  460.67   32.61
  -1  -4  -4  482.24   30.31
   2   4   4 2294.04  100.11
  -2  -4  -4 2179.85  108.09
   2   4   4 2182.98  103.96
   2   4   4 2315.05  100.94
  -2  -4  -4 2232.77  102.12
  -2  -4  -4 2311.19   94.69
   2   4   4 2180.18   96.36
  -2  -4  -4 2316.19   94.49
   2   4   4 2167.00   98.68
  -2  -4  -4 2280.80  103.95
   2   4   4 2456.69  100.29
   2   4   4 2328.26   97.52
   2   4   4 2365.76  103.45
   3   4   4   47.21   11.61
   3   4   4   96.11   16.54
  -3  -4  -4   83.64   20.02
  -3  -4  -4   61.66   19.92
   3   4   4   78.45   14.60
   3   4   4   60.53   14.38
   3   4   4   80.37   15.28
   3   4   4   28.71   17.29
   3   4   4   82.24   16.46
  -3  -4  -4   70.48   15.61
   3   4   4   42.91   12.59
   4   4   4  269.91   24.66
   4   4   4  289.02   24.76
   4   4   4  267.25   21.62
   4   4   4  257.74   21.07
   4   4   4  287.07   23.48
  -4  -4  -4  273.50   32.30
   4   4   4  242.30   21.19
  -4  -4  -4  255.74   23.33
   4   4   4  262.57   23.24
   4   4   4  271.89   31.98
   4   4   4  310.73   25.45
   5   4   4   14.56   20.67
   5   4   4    4.03   16.61
   5   4   4   18.94   17.22
   5   4   4   25.16   16.07
   5   4   4   23.94   15.86
  -5  -4  -4  -24.35   21.79
   5   4   4   -1.18   12.48
   5   4   4   17.10   13.86
   5   4   4   -2.17   16.11
   6   4   4  191.74   34.62
   6   4   4  233.86   27.52
   6   4   4  180.25   24.80
   6   4   4  196.40   24.27
   6   4   4  219.38   30.00
   6   4   4  208.75   29.32
  -6  -4  -4  259.08   37.38
   6   4   4  218.18   27.27
   7   4   4   58.98   20.28
   7   4   4   10.02   24.77
   7   4   4   63.88   22.72
   7   4   4  108.16   23.96
   7   4   4  108.81   24.86
  -7  -4  -4  135.40   32.53
   7   4   4  101.27   27.46
   7   4   4   98.31   31.95
  -8  -4  -4  112.97   40.06
   8   4   4   54.69   25.63
   8   4   4  164.80   31.14
   8   4   4  125.60   33.92
   8   4   4  148.25   41.04
   5  -5  -4   -0.80   29.95
   5  -5  -4   43.64   30.57
   4  -5  -4  699.01   59.06
  -4   5   4  709.98   54.89
  -4   5   4  532.52   54.86
   4  -5  -4  745.61   58.95
   4  -5  -4  727.93   43.78
   4  -5  -4  809.74   64.63
   4  -5  -4  702.54   60.54
  -4   5   4  752.40   66.83
   3  -5  -4  254.49   36.11
  -3   5   4  185.77   33.37
   3  -5  -4  268.32   39.28
   3  -5  -4  225.13   34.84
   3  -5  -4  250.61   38.01
  -3   5   4  221.72   40.43
  -3   5   4  221.09   33.20
  -2   5   4   -8.90   15.06
  -2   5   4   58.12   23.52
   2  -5  -4   15.60   21.38
   2  -5  -4   17.63   22.26
   2  -5  -4    0.82   24.37
  -2   5   4   -9.50   20.72
   2  -5  -4   23.90   20.66
   2  -5  -4   13.94   24.43
  -2   5   4   12.41   26.08
   1  -5  -4   24.41   17.03
   1  -5  -4   16.25   21.50
  -1   5   4   31.22   21.98
  -1   5   4   11.69   16.14
   1  -5  -4    2.12   18.03
   1  -5  -4   11.96   22.11
  -1   5   4   43.43   25.66
  -1   5   4    4.15   18.60
  -1   5   4   13.53   19.32
   0   5   4 1423.57   77.69
   0  -5  -4 1455.45   70.59
   0   5   4 1476.69   79.67
   0  -5  -4 1488.59   67.83
   0  -5  -4 1544.03   73.97
   0  -5  -4 1506.26   72.90
   0  -5  -4 1491.20   76.33
   0   5   4 1466.78   73.01
   0   5   4 1524.30   77.05
   0   5   4 1384.32   74.72
   0  -5  -4 1313.49   73.91
   0  -5  -4 1579.32   80.07
  -1  -5  -4  106.24   20.43
   1   5   4   86.96   22.33
   1   5   4  102.75   20.79
   1   5   4   88.82   18.74
  -1  -5  -4  103.77   15.18
  -1  -5  -4  107.75   22.77
  -1  -5  -4  109.67   19.15
   1   5   4  110.48   20.04
   1   5   4   65.09   20.79
  -1  -5  -4   90.75   24.28
  -1  -5  -4   82.37   18.24
  -1  -5  -4  103.41   18.39
  -2  -5  -4   -5.59   18.14
  -2  -5  -4   21.53   13.47
  -2  -5  -4   -7.50   14.53
   2   5   4   -1.49   15.07
   2   5   4    2.08   14.60
   2   5   4    7.35   14.62
   2   5   4    0.59   14.08
  -2  -5  -4   -3.85   13.40
   2   5   4  -19.33   12.66
  -2  -5  -4   14.24   15.89
   3   5   4   12.63   14.36
   3   5   4    7.55   13.67
   3   5   4    1.04   15.17
  -3  -5  -4   27.21   12.32
  -3  -5  -4   20.05   10.71
   3   5   4   -1.16   14.74
  -3  -5  -4    9.88   11.05
   3   5   4   12.16   16.13
  -3  -5  -4   12.74   19.81
   3   5   4   10.47   17.13
   3   5   4   21.57   16.69
  -3  -5  -4   12.26   15.55
  -3  -5  -4    4.15   18.01
  -4  -5  -4 1697.99   90.55
   4   5   4 1603.58   77.53
   4   5   4 1681.23   77.09
   4   5   4 1710.95   79.76
   4   5   4 1675.14   80.49
   4   5   4 1612.75   79.28
   5   5   4  202.66   23.58
   5   5   4  160.95   32.32
  -5  -5  -4  208.02   34.99
   5   5   4  192.57   25.98
   5   5   4  244.05   29.35
   5   5   4  175.59   26.68
   5   5   4  252.75   25.17
   6   5   4  382.18   34.24
   6   5   4  316.98   34.09
   6   5   4  350.83   32.32
   6   5   4  305.51   42.55
  -6  -5  -4  328.77   42.18
   6   5   4  296.21   30.76
   6   5   4  409.62   35.97
   6   5   4  433.84   39.21
   7   5   4   16.72   20.66
   7   5   4   20.92   28.56
  -7  -5  -4   80.70   32.60
   7   5   4   47.55   21.94
   7   5   4   43.44   22.20
   7   5   4   35.57   26.05
   7   5   4   23.26   28.05
   8   5   4  210.60   34.61
   8   5   4  285.82   42.91
   8   5   4  193.08   33.74
   8   5   4  227.02   46.16
  -8  -5  -4  262.01   44.82
   4  -6  -4    0.99   27.36
   4  -6  -4   63.20   32.76
  -4   6   4   -8.97   27.35
  -4   6   4   67.45   37.54
  -4   6   4   24.50   29.98
   4  -6  -4  -29.46   28.90
   4  -6  -4   -8.77   28.29
  -3   6   4   80.91   29.19
   3  -6  -4   47.12   29.30
   3  -6  -4   37.50   27.58
  -3   6   4   22.57   25.44
   3  -6  -4   48.37   26.95
   3  -6  -4   42.97   28.02
  -3   6   4   56.81   33.86
  -2   6   4  406.56   36.02
   2  -6  -4  271.36   41.75
  -2   6   4  354.98   40.73
  -2   6   4  301.04   37.27
   2  -6  -4  317.53   37.70
   2  -6  -4  373.16   37.57
   2  -6  -4  330.73   42.48
   2  -6  -4  208.70   34.99
  -2   6   4  350.86   45.74
  -1   6   4  991.44   64.45
  -1   6   4  968.94   61.45
   1  -6  -4 1102.32   66.51
  -1   6   4 1100.87   57.67
  -1   6   4  969.30   69.22
   1  -6  -4  979.90   62.54
  -1   6   4 1012.54   65.85
   1  -6  -4  966.43   67.29
   0  -6  -4   -6.41   13.86
   0   6   4   35.06   20.71
   0  -6  -4   15.96   20.97
   0   6   4   27.11   22.06
   0  -6  -4   -5.58   17.68
   0   6   4    3.97   23.86
   0   6   4   20.91   21.04
   0  -6  -4    1.55   18.76
   0  -6  -4   14.02   19.65
   0  -6  -4   32.94   24.52
   1   6   4   40.65   21.12
  -1  -6  -4   72.25   20.43
   1   6   4   45.56   22.80
   1   6   4   28.62   20.94
  -1  -6  -4   64.71   17.10
   1   6   4  111.01   26.74
  -1  -6  -4   31.09   20.74
  -1  -6  -4   66.94   21.82
   1   6   4   51.28   21.39
  -1  -6  -4   63.42   23.85
   2   6   4  860.59   50.81
   2   6   4  683.23   52.09
   2   6   4  750.81   50.58
   2   6   4 1010.43   55.12
  -2  -6  -4  816.79   52.71
  -2  -6  -4  730.14   46.35
   2   6   4  741.38   48.41
  -2  -6  -4  823.02   51.32
  -2  -6  -4  824.13   47.69
  -2  -6  -4  837.86   47.27
  -3  -6  -4  495.33   35.70
  -3  -6  -4  557.22   39.46
   3   6   4  607.16   44.09
   3   6   4  582.54   42.92
   3   6   4  545.12   40.24
  -3  -6  -4  562.58   36.32
  -3  -6  -4  504.56   47.10
   3   6   4  577.73   43.95
   3   6   4  587.07   40.33
   4   6   4   62.60   21.01
   4   6   4   44.21   25.29
  -4  -6  -4   12.61   25.09
   4   6   4   26.94   19.70
  -4  -6  -4   49.29   17.95
   4   6   4   25.89   21.09
  -4  -6  -4   32.19   15.19
   4   6   4   62.48   21.38
  -4  -6  -4   90.97   18.17
   5   6   4    3.06   20.71
   5   6   4  -39.61   21.24
   5   6   4   28.21   20.85
  -5  -6  -4    8.86   13.25
   5   6   4   12.76   19.72
   5   6   4   19.09   20.97
   5   6   4   29.25   15.16
   5   6   4  -10.26   22.76
  -5  -6  -4   38.35   27.20
  -5  -6  -4    7.49   14.85
   6   6   4  186.08   33.49
  -6  -6  -4  250.51   38.34
   6   6   4  211.25   28.91
   6   6   4  181.52   27.99
   6   6   4  186.21   29.22
   6   6   4  178.44   35.86
   6   6   4  204.56   30.90
   6   6   4  187.80   27.26
   7   6   4  258.98   38.59
   7   6   4  212.61   33.60
   7   6   4  242.47   35.23
  -7  -6  -4  231.47   42.90
   7   6   4  234.60   42.26
   7   6   4  226.75   32.40
  -3   7   4  371.60   53.26
  -3   7   4  335.51   46.40
   3  -7  -4  352.44   50.01
   3  -7  -4  333.98   48.52
   3  -7  -4  269.14   43.12
   3  -7  -4  351.27   46.81
  -3   7   4  387.78   46.11
   2  -7  -4   10.88   25.21
   2  -7  -4   -8.60   27.16
  -2   7   4  -30.31   26.65
   2  -7  -4  -17.92   22.56
  -2   7   4   13.09   21.47
  -2   7   4   34.81   27.51
   2  -7  -4   13.36   25.73
  -2   7   4  -55.99   24.81
  -1   7   4   38.06   29.28
  -1   7   4   49.67   26.25
  -1   7   4   54.55   22.93
   1  -7  -4   66.00   26.50
   1  -7  -4   76.31   28.64
  -1   7   4   50.71   27.10
   1  -7  -4   95.90   32.20
   0  -7  -4   17.70   22.16
   0   7   4   19.14   27.89
   0  -7  -4    6.77   22.24
   0  -7  -4   41.34   28.19
   0   7   4  -15.43   21.84
   0   7   4   12.55   23.88
   0  -7  -4   20.23   23.61
   0   7   4    9.38   27.68
   1   7   4  293.29   34.90
  -1  -7  -4  270.99   33.58
   1   7   4  367.75   38.68
  -1  -7  -4  278.70   34.88
  -1  -7  -4  331.24   39.55
   1   7   4  304.34   40.15
   1   7   4  266.20   36.58
  -1  -7  -4  218.60   27.93
   2   7   4   -1.58   22.82
  -2  -7  -4   -1.88   20.63
   2   7   4   18.42   22.04
   2   7   4   33.69   22.88
  -2  -7  -4  -26.10   18.49
  -2  -7  -4   14.90   20.28
   2   7   4  -20.36   23.85
  -2  -7  -4   -4.16   14.65
  -2  -7  -4   -4.95   23.29
  -3  -7  -4  471.42   49.03
   3   7   4  454.61   41.20
   3   7   4  564.13   47.76
  -3  -7  -4  493.36   40.62
  -3  -7  -4  446.01   37.94
  -3  -7  -4  435.02   35.87
   3   7   4  501.11   43.11
  -3  -7  -4  471.07   40.32
   3   7   4  433.92   44.93
  -4  -7  -4   14.67   18.80
  -4  -7  -4   -7.47   17.56
  -4  -7  -4  -10.64   18.24
   4   7   4   11.58   23.60
   4   7   4   26.80   22.69
  -4  -7  -4   -6.42   26.78
   4   7   4    4.83   21.02
   4   7   4   -6.95   20.55
   4   7   4  -12.92   23.23
   5   7   4  153.90   27.81
   5   7   4  163.41   31.56
  -5  -7  -4  166.00   23.50
  -5  -7  -4  136.96   21.15
   5   7   4   61.76   25.36
  -5  -7  -4  122.90   21.13
  -5  -7  -4  172.05   21.31
   5   7   4  251.21   31.91
  -5  -7  -4  162.77   34.88
   6   7   4  -10.86   20.40
   6   7   4   13.54   27.88
   6   7   4    9.06   29.53
  -6  -7  -4   -6.64   25.81
   6   7   4   40.71   19.54
   6   7   4   47.43   23.88
   7   7   4  241.23   36.49
   7   7   4  104.62   37.35
   7   7   4  233.15   35.66
  -7  -7  -4  273.13   46.16
   7   7   4  333.25   43.29
   2  -8  -4  221.84   44.48
  -2   8   4  227.99   45.50
   2  -8  -4  230.64   42.42
   2  -8  -4  116.68   34.58
  -2   8   4  252.64   41.60
  -2   8   4  220.24   41.83
  -1   8   4   45.50   29.64
   1  -8  -4   28.62   32.22
  -1   8   4    0.97   26.89
   1  -8  -4   16.29   27.28
   1  -8  -4   62.64   27.77
  -1   8   4   47.10   32.35
   0   8   4   -0.14   26.64
   0   8   4    1.96   24.02
   0  -8  -4   14.63   24.37
   0   8   4    1.61   23.86
   0  -8  -4   12.40   25.92
   0  -8  -4  -13.23   26.21
   0  -8  -4  -19.58   21.67
  -1  -8  -4  438.73   31.17
   1   8   4  394.56   46.46
  -1  -8  -4  564.87   46.04
   1   8   4  404.66   49.37
  -1  -8  -4  486.23   44.53
  -1  -8  -4  456.07   39.05
   1   8   4  421.91   46.30
  -1  -8  -4  524.61   50.14
   1   8   4  530.53   47.86
   2   8   4  252.05   37.89
  -2  -8  -4  288.70   34.72
  -2  -8  -4  302.21   35.20
   2   8   4  280.56   37.94
   2   8   4  219.37   39.74
  -2  -8  -4  220.82   27.88
  -2  -8  -4  323.34   39.87
   2   8   4  220.97   35.60
   3   8   4   60.60   26.77
   3   8   4   34.57   24.76
   3   8   4   43.15   27.14
  -3  -8  -4   30.79   22.67
  -3  -8  -4   24.64   24.72
   3   8   4   61.46   25.89
  -3  -8  -4   27.39   23.54
  -4  -8  -4   29.41   22.20
   4   8   4   50.49   28.64
  -4  -8  -4   35.13   31.17
  -4  -8  -4   67.18   24.00
  -4  -8  -4   35.79   20.97
   4   8   4   52.27   24.91
   5   8   4   72.85   27.37
  -5  -8  -4  121.98   21.08
  -5  -8  -4  117.77   25.67
  -5  -8  -4   69.66   34.50
   5   8   4  105.83   32.10
   5   8   4   98.07   27.89
   6   8   4  106.65   29.96
   6   8   4  122.97   31.01
   0   9   4  297.21   49.20
   0   9   4  309.59   46.90
   0  -9  -4  313.23   44.18
   0  -9  -4  324.73   43.32
   0  -9  -4  341.68   36.92
   0  -9  -4  367.92   49.69
   0   9   4  341.03   45.25
  -1  -9  -4   20.77   27.61
  -1  -9  -4   60.71   30.70
   1   9   4   -4.63   26.21
  -1  -9  -4   -4.19   30.59
   1   9   4   26.33   31.54
   1   9   4  -33.44   25.73
  -2  -9  -4   79.23   33.22
   2   9   4   48.59   28.98
  -2  -9  -4   90.58   30.20
  -2  -9  -4   83.97   29.05
   2   9   4   85.29   34.48
   3   9   4   61.02   30.83
   3   9   4   21.03   31.24
  -3  -9  -4   82.59   30.35
   3   9   4   82.36   29.45
  -3  -9  -4   99.91   31.50
  -3  -9  -4   73.60   28.45
   4   9   4  158.12   35.21
   4   9   4   75.78   34.52
  -4  -9  -4   74.99   28.30
  -4  -9  -4   94.45   40.28
   4   9   4  154.37   35.22
  -4  -9  -4  166.55   30.71
  -4  -9  -4   67.58   28.80
   5   9   4    5.11   26.15
   5   9   4  -23.27   25.33
  -5  -9  -4    6.92   34.48
  -5  -9  -4   12.62   22.98
   3   7  -5   41.16   30.18
  -3  -7   5   39.51   33.95
  -3  -7   5   46.86   33.41
  -3  -7   5   -4.95   26.52
  -3  -7   5   66.66   31.99
   3   7  -5   32.62   30.89
  -2  -7   5  362.12   44.86
  -2  -7   5  425.73   49.02
   2   7  -5  453.23   48.24
  -2  -7   5  342.76   47.89
  -2  -7   5  398.84   50.89
   2   7  -5  364.52   45.74
  -1  -7   5   13.66   27.77
  -1  -7   5  -12.33   22.43
  -1  -7   5   16.61   27.63
   1   7  -5   -9.51   24.98
  -1  -7   5   30.44   28.49
   1   7  -5   -8.17   25.60
   0  -7   5   41.95   25.88
   0  -7   5   11.81   27.01
   0  -7   5   60.32   30.27
   0   7  -5   40.36   29.19
   0   7  -5   27.63   25.63
   0  -7   5   92.00   34.26
   1  -7   5   38.91   27.39
  -1   7  -5   53.67   26.74
   1  -7   5   59.92   30.88
  -1   7  -5  106.82   31.87
   1  -7   5   47.71   31.46
   1  -7   5   79.29   31.93
  -2   7  -5  782.53   58.73
   2  -7   5  740.09   63.25
   2  -7   5  745.77   61.31
  -2   7  -5  820.65   56.23
   2  -7   5  749.17   68.25
   2  -7   5  740.00   61.49
   3  -7   5  -17.20   31.87
   3  -7   5   15.22   28.55
   3  -7   5  -11.05   24.55
  -3   7  -5   10.84   26.42
   3  -7   5    5.58   29.18
   4   6  -5  167.82   37.56
   4   6  -5  205.25   40.99
   4   6  -5  222.27   40.47
  -4  -6   5  169.41   37.97
  -4  -6   5  204.31   44.20
  -4  -6   5  248.53   42.75
  -4  -6   5  206.62   40.80
  -3  -6   5  312.64   41.22
   3   6  -5  195.60   33.76
  -3  -6   5  159.71   38.30
  -3  -6   5  226.71   41.22
   3   6  -5  233.56   38.95
  -3  -6   5  200.24   34.77
   2   6  -5   57.94   27.57
  -2  -6   5   68.41   27.05
  -2  -6   5   21.85   25.01
   2   6  -5   33.56   26.60
  -2  -6   5   40.88   27.57
  -2  -6   5   58.19   31.29
  -1  -6   5   -3.70   25.55
   1   6  -5   19.49   23.17
  -1  -6   5   52.37   25.99
  -1  -6   5    7.13   25.91
  -1  -6   5   12.54   25.95
   1   6  -5   -2.92   22.06
   1   6  -5   27.88   22.21
  -1  -6   5   24.32   23.24
   0  -6   5  228.27   34.30
   0  -6   5  220.50   37.15
   0  -6   5  268.52   36.41
   0  -6   5  270.84   40.55
   0  -6   5  307.18   38.54
   0   6  -5  263.90   36.47
   0   6  -5  282.99   30.75
   0   6  -5  261.04   33.83
   1  -6   5  133.95   30.30
  -1   6  -5   94.43   25.50
  -1   6  -5  114.05   28.87
   1  -6   5   57.01   27.59
   1  -6   5  206.57   38.35
   1  -6   5  122.63   29.66
  -1   6  -5   97.91   21.41
  -2   6  -5   61.91   26.07
   2  -6   5   97.24   29.15
   2  -6   5   78.11   31.43
   2  -6   5  127.81   28.81
   2  -6   5   84.42   29.57
  -2   6  -5   94.08   24.69
   2  -6   5   76.36   26.85
   3  -6   5    5.56   26.27
   3  -6   5   -9.65   22.69
   3  -6   5   75.58   34.27
   3  -6   5   53.69   27.65
  -3   6  -5   45.31   24.23
  -4   6  -5  446.99   42.15
   4  -6   5  414.68   47.73
   4  -6   5  361.09   44.93
   4  -6   5  596.10   59.90
   4  -6   5  456.80   49.04
  -5  -5   5  104.81   32.00
   5   5  -5   72.89   32.99
   5   5  -5   91.95   34.67
  -5  -5   5  108.10   35.79
  -5  -5   5   77.83   33.34
  -5  -5   5  108.85   39.87
   5   5  -5  174.87   39.40
  -4  -5   5   23.25   31.76
   4   5  -5   37.16   26.46
  -4  -5   5   27.23   26.36
  -4  -5   5   39.87   28.19
   4   5  -5   27.25   27.63
  -4  -5   5   44.42   27.95
   4   5  -5   11.82   27.77
  -3  -5   5 1040.46   70.55
  -3  -5   5 1065.18   68.32
   3   5  -5 1265.43   74.79
  -3  -5   5 1167.06   76.36
   3   5  -5 1227.12   69.21
   3   5  -5 1022.97   70.41
  -3  -5   5 1267.46   79.27
   2   5  -5   10.27   23.88
  -2  -5   5   24.80   27.80
  -2  -5   5   42.56   25.75
  -2  -5   5   41.95   24.71
   2   5  -5    7.10   22.61
  -2  -5   5    2.78   21.13
  -1  -5   5   20.32   24.83
  -1  -5   5   -9.70   22.72
  -1  -5   5    9.20   25.94
   1   5  -5   15.58   19.59
   1   5  -5   27.45   22.91
   1   5  -5    7.84   21.95
  -1  -5   5  -33.79   21.09
  -1  -5   5   -8.87   19.45
   0   5  -5  702.25   49.36
   0  -5   5  637.57   49.35
   0   5  -5  673.36   49.41
   0  -5   5  679.88   55.49
   0  -5   5  659.10   54.32
   0  -5   5  743.64   51.84
   0  -5   5  750.82   52.94
   0   5  -5  779.28   45.09
  -1   5  -5  845.45   54.51
   1  -5   5  912.85   56.97
   1  -5   5  825.64   62.22
   1  -5   5  872.16   56.62
  -1   5  -5  917.56   54.32
  -1   5  -5  736.75   50.04
   1  -5   5  777.73   56.06
  -1   5  -5  874.09   46.21
   1  -5   5  848.17   58.06
  -2   5  -5   51.69   23.21
   2  -5   5   35.04   22.62
   2  -5   5   25.18   21.93
  -2   5  -5   14.90   18.32
  -2   5  -5   15.94   18.66
   2  -5   5   20.94   27.47
   2  -5   5   18.58   23.16
   2  -5   5   -1.17   21.55
  -3   5  -5   35.54   20.94
   3  -5   5   34.74   22.35
   3  -5   5    7.48   24.05
   3  -5   5    3.60   19.90
   3  -5   5   15.79   23.64
   3  -5   5  113.90   30.75
   3  -5   5   40.21   23.65
  -3   5  -5   10.12   17.35
   4  -5   5  492.64   43.68
   4  -5   5  366.48   41.05
  -4   5  -5  435.47   34.87
   4  -5   5  456.19   44.69
   4  -5   5  417.31   42.83
   5  -5   5  237.01   38.50
   5  -5   5  186.10   34.86
   5  -5   5  250.03   37.54
  -5  -4   5  563.20   58.89
   5   4  -5  550.51   51.28
  -5  -4   5  374.30   48.91
   5   4  -5  331.45   46.71
  -5  -4   5  436.86   48.22
  -5  -4   5  492.21   47.31
   5   4  -5  483.90   53.83
  -4  -4   5   26.46   25.88
   4   4  -5   30.77   26.40
  -4  -4   5   28.51   29.03
   4   4  -5   15.38   24.78
  -4  -4   5   44.66   26.20
   4   4  -5   46.77   28.30
  -4  -4   5   35.83   24.46
  -3  -4   5  194.95   35.32
  -3  -4   5  284.32   41.05
  -3  -4   5  261.62   35.56
  -3  -4   5  289.00   38.43
   3   4  -5  256.42   35.35
   3   4  -5  315.53   36.08
   3   4  -5  244.39   37.49
  -3  -4   5  298.45   35.67
  -2  -4   5   26.44   24.58
   2   4  -5    0.72   20.56
   2   4  -5   45.33   22.99
  -2  -4   5   40.85   27.03
  -2  -4   5   40.78   24.98
  -2  -4   5   45.64   22.82
  -2  -4   5    6.65   21.46
   1   4  -5  820.32   52.33
  -1  -4   5  970.83   59.30
   1   4  -5  841.06   58.54
   1   4  -5  896.02   54.67
  -1  -4   5  924.31   57.32
  -1  -4   5  922.38   55.36
   1   4  -5  742.04   48.17
  -1  -4   5  822.31   58.23
  -1  -4   5  740.35   51.55
   0  -4   5  153.00   29.51
   0  -4   5   45.16   22.73
   0  -4   5   51.50   19.21
   0  -4   5   55.48   22.70
   0   4  -5   71.77   21.80
   0   4  -5   79.09   24.62
   0   4  -5   40.15   19.29
   0  -4   5  101.88   24.68
   0   4  -5   73.44   17.36
   0  -4   5   65.59   21.82
   0   4  -5   80.33   20.95
  -1   4  -5  125.85   20.57
   1  -4   5   74.69   21.69
   1  -4   5   39.11   20.87
  -1   4  -5   66.53   21.98
   1  -4   5   90.35   21.82
   1  -4   5   99.19   21.84
  -1   4  -5  107.54   20.84
  -1   4  -5   68.06   21.61
   1  -4   5   37.45   21.73
   1  -4   5   60.19   26.39
  -2   4  -5   16.09   17.86
   2  -4   5   33.23   20.39
   2  -4   5   33.96   20.14
   2  -4   5   32.52   25.52
  -2   4  -5   -1.73   19.65
   2  -4   5   12.37   18.35
   2  -4   5   34.10   20.56
  -2   4  -5    2.28   16.03
   3  -4   5  980.94   61.81
  -3   4  -5 1039.19   54.63
   3  -4   5 1153.49   62.91
  -3   4  -5 1039.87   53.34
   3  -4   5 1049.94   61.35
   3  -4   5 1066.78   59.52
   3  -4   5 1007.89   60.46
   3  -4   5 1031.30   68.61
   4  -4   5  289.18   35.53
   4  -4   5  334.18   36.57
   4  -4   5  323.66   35.72
   4  -4   5  372.92   35.47
   4  -4   5  309.00   34.58
   5  -4   5   42.65   24.41
   5  -4   5   55.55   23.39
   5  -4   5   58.92   25.11
   5  -4   5   62.53   24.72
   6  -4   5   69.16   32.21
   6  -4   5   59.77   27.45
   6  -4   5   16.34   23.53
   6  -4   5   88.96   29.93
   5   3  -5   15.45   25.89
   5   3  -5   87.31   31.04
  -5  -3   5   63.16   27.69
  -5  -3   5  131.53   37.23
  -5  -3   5   53.47   28.20
   5   3  -5   78.47   31.31
  -5  -3   5  120.41   33.16
  -4  -3   5  -26.27   20.19
   4   3  -5    6.35   21.65
   4   3  -5   -0.88   24.36
  -4  -3   5   32.96   24.74
   4   3  -5    0.59   23.96
  -4  -3   5  -19.72   20.40
  -4  -3   5  -27.16   20.52
  -4  -3   5  -14.59   25.75
   3   3  -5   78.17   26.63
  -3  -3   5   68.66   23.92
  -3  -3   5   46.40   22.45
  -3  -3   5   79.23   26.36
  -3  -3   5   45.13   27.92
   3   3  -5   58.12   23.81
   3   3  -5   57.91   24.17
  -3  -3   5   54.54   23.64
  -2  -3   5  757.25   48.38
  -2  -3   5  739.37   55.07
   2   3  -5  747.99   52.25
  -2  -3   5  745.31   54.51
   2   3  -5  778.55   50.80
  -2  -3   5  726.08   49.86
   2   3  -5  771.60   54.54
  -2  -3   5  880.19   54.81
  -2  -3   5  784.75   49.21
  -1  -3   5   91.17   24.91
   1   3  -5   73.15   20.65
  -1  -3   5   76.74   23.82
   1   3  -5   59.17   19.39
   1   3  -5  102.61   22.95
  -1  -3   5   97.97   23.98
  -1  -3   5   90.82   20.42
  -1  -3   5   58.18   20.76
  -1  -3   5   67.48   19.44
   1   3  -5   51.71   17.44
   0  -3   5   50.90   17.19
   0  -3   5   33.75   21.17
   0   3  -5   36.51   13.35
   0   3  -5   10.40   16.23
   0  -3   5   71.76   20.82
   0   3  -5   -1.20   15.21
   0   3  -5   31.25   15.66
   0  -3   5   25.81   15.77
   0  -3   5   47.01   18.71
   0  -3   5   23.17   16.16
   0   3  -5   36.40   19.61
   1  -3   5  907.00   53.08
   1  -3   5  877.19   51.78
   1  -3   5 1007.64   55.54
  -1   3  -5  987.74   53.47
   1  -3   5  980.03   52.34
  -1   3  -5  997.82   50.74
   1  -3   5 1062.40   54.92
  -1   3  -5  986.41   51.02
   1  -3   5  913.07   60.22
   2  -3   5 2861.88  135.05
  -2   3  -5 2806.00  119.39
   2  -3   5 2877.61  125.15
   2  -3   5 2754.15  124.50
  -2   3  -5 2780.44  118.58
   2  -3   5 2823.71  123.10
   2  -3   5 2752.98  123.94
  -2   3  -5 2824.03  122.74
  -2   3  -5 2844.38  118.47
   2  -3   5 3017.84  124.93
  -3   3  -5   31.44   20.18
   3  -3   5   42.25   17.61
   3  -3   5   27.72   18.42
   3  -3   5   43.89   18.53
   3  -3   5   30.10   17.39
   3  -3   5   58.73   18.92
   4  -3   5   -4.54   15.37
   4  -3   5    1.70   15.37
   4  -3   5    1.27   19.65
   4  -3   5  -15.40   16.19
   4  -3   5   30.11   24.31
   4  -3   5  -16.86   17.46
   5  -3   5  176.03   28.37
   5  -3   5  144.08   25.09
   5  -3   5  245.15   31.09
   5  -3   5  139.14   26.70
   5  -3   5  133.83   31.86
   5  -3   5  226.33   26.68
   6  -3   5  481.06   39.92
   6  -3   5  363.06   40.79
   6  -3   5  442.40   42.04
   6  -3   5  406.95   47.60
   6  -3   5  484.27   42.81
   6   2  -5  539.98   47.71
   6   2  -5  320.89   46.36
  -6  -2   5  314.54   44.13
  -6  -2   5  292.48   41.02
   6   2  -5  463.17   52.94
  -6  -2   5  477.42   58.45
   6   2  -5  427.52   51.85
   5   2  -5    0.68   23.33
   5   2  -5  -21.70   22.30
  -5  -2   5   -7.31   23.34
  -5  -2   5  -16.22   23.57
   5   2  -5   25.29   27.20
  -5  -2   5  -27.67   22.84
   5   2  -5   21.44   27.04
  -5  -2   5  -39.58   27.31
   4   2  -5  -15.62   22.40
  -4  -2   5   29.55   23.13
  -4  -2   5    1.11   21.99
   4   2  -5  -14.45   21.15
  -4  -2   5   27.50   28.62
  -4  -2   5  -12.49   21.44
   4   2  -5   32.17   26.00
  -4  -2   5   21.29   20.25
   4   2  -5  -24.02   22.05
  -3  -2   5    1.77   24.36
  -3  -2   5  -12.80   15.45
  -3  -2   5   11.46   18.92
  -3  -2   5   -6.27   20.24
  -3  -2   5  -16.44   18.77
   3   2  -5    7.29   21.39
   3   2  -5    3.28   19.06
   3   2  -5    7.70   21.27
  -3  -2   5    3.33   21.74
   2   2  -5 1155.23   63.28
  -2  -2   5 1195.85   60.19
  -2  -2   5 1250.78   67.12
  -2  -2   5 1198.82   68.53
   2   2  -5 1197.79   68.70
  -2  -2   5 1124.89   63.85
  -2  -2   5 1179.54   69.30
  -2  -2   5 1097.14   61.93
   2   2  -5 1186.00   66.25
   1   2  -5  196.07   25.30
  -1  -2   5  171.33   26.13
  -1  -2   5  175.95   24.72
  -1  -2   5  134.45   23.31
  -1  -2   5  179.70   22.76
   1   2  -5  192.55   21.16
  -1  -2   5  172.17   25.87
  -1  -2   5  156.07   22.05
  -1  -2   5  138.39   24.64
   1   2  -5  177.98   24.69
   1   2  -5  207.10   23.11
   1   2  -5  186.79   23.85
   0  -2   5  878.58   47.98
   0  -2   5  967.65   50.45
   0  -2   5  911.42   50.80
   0   2  -5  898.30   48.52
   0  -2   5 1046.05   52.74
   0  -2   5  915.22   56.76
   0  -2   5  874.30   49.62
   0   2  -5  933.85   55.25
   0   2  -5  928.35   49.61
   0  -2   5  985.94   56.84
   0  -2   5  929.02   52.54
   0   2  -5  927.24   48.03
   1  -2   5    4.53   12.34
  -1   2  -5   -9.05    9.95
   1  -2   5   -7.01   10.75
  -1   2  -5    5.00   10.56
   1  -2   5    5.28   13.92
  -1   2  -5   -8.15    9.86
   1  -2   5   15.78   16.52
  -1   2  -5   -3.89   11.70
   1  -2   5   25.61   13.24
   1  -2   5   -4.16   11.99
   1  -2   5   -6.25   13.53
   2  -2   5 2518.58  117.63
   2  -2   5 2404.04  105.68
   2  -2   5 2439.38  107.73
   2  -2   5 2532.26  107.09
   2  -2   5 2395.34  107.20
   2  -2   5 2457.53  105.29
  -2   2  -5 2566.44  107.33
   2  -2   5 2585.94  109.06
   3  -2   5  172.19   18.07
   3  -2   5  130.13   24.41
   3  -2   5  127.43   18.95
   3  -2   5  115.96   19.41
   3  -2   5  142.04   17.84
   3  -2   5  150.31   20.66
  -3   2  -5  103.55   21.48
   4  -2   5  370.82   29.95
   4  -2   5  292.96   26.80
   4  -2   5  300.48   28.09
   4  -2   5  323.40   30.00
   4  -2   5  286.49   26.90
   4  -2   5  310.27   34.98
   5  -2   5  225.38   34.57
   5  -2   5  281.68   27.40
   5  -2   5  303.96   27.60
   5  -2   5  218.35   28.32
   5  -2   5  267.40   29.25
   5  -2   5  240.46   27.72
   6  -2   5   48.45   21.15
   6  -2   5   56.95   20.00
   6  -2   5   51.58   22.89
   6  -2   5   47.29   25.22
   6  -2   5   96.51   22.53
   6  -2   5   55.73   22.36
   7  -2   5   -0.34   21.40
   7  -2   5   17.45   26.00
   7  -2   5  -24.39   22.82
   7  -2   5   10.59   23.60
   6   1  -5   29.50   29.66
   6   1  -5  134.81   37.88
   6   1  -5  103.61   31.96
  -6  -1   5   87.95   41.10
  -6  -1   5   40.69   28.24
   6   1  -5   31.85   32.91
  -6  -1   5   18.12   30.23
  -5  -1   5  247.62   37.70
   5   1  -5  275.81   41.49
  -5  -1   5  225.92   43.63
   5   1  -5  360.92   43.12
  -5  -1   5  236.81   34.82
   5   1  -5  345.63   41.84
   5   1  -5  396.12   40.72
   4   1  -5  148.99   28.71
  -4  -1   5   54.17   31.59
   4   1  -5   89.52   26.99
   4   1  -5  130.85   31.38
  -4  -1   5  146.32   28.73
  -4  -1   5  102.86   27.47
   4   1  -5  116.20   29.15
  -4  -1   5   74.21   28.13
   3   1  -5  591.72   44.91
  -3  -1   5  630.54   46.28
   3   1  -5  717.00   49.06
   3   1  -5  573.56   47.04
   3   1  -5  642.97   46.73
  -3  -1   5  655.55   48.94
  -3  -1   5  618.82   37.54
   3   1  -5  611.25   48.56
  -3  -1   5  548.62   42.03
  -3  -1   5  598.42   51.57
  -3  -1   5  629.52   53.54
   2   1  -5  629.09   46.24
  -2  -1   5  693.00   49.80
   2   1  -5  766.38   49.68
  -2  -1   5  638.30   42.43
  -2  -1   5  616.09   45.64
  -2  -1   5  682.89   37.19
  -2  -1   5  638.00   46.72
   2   1  -5  654.08   46.58
   2   1  -5  744.14   45.01
   2   1  -5  697.87   46.05
  -2  -1   5  744.01   49.55
  -2  -1   5  709.36   44.78
  -2  -1   5  752.42   49.22
  -1  -1   5   66.38   15.67
   1   1  -5   77.36   18.19
  -1  -1   5  100.77   20.05
   1   1  -5   84.23   21.17
   1   1  -5  117.32   18.25
   1   1  -5   90.28   19.77
   1   1  -5  107.94   21.04
  -1  -1   5   85.58   18.11
  -1  -1   5   96.71   19.82
  -1  -1   5   68.59   16.82
  -1  -1   5  103.25   20.94
  -1  -1   5   92.31   21.09
   1   1  -5   70.91   15.48
  -1  -1   5   42.77   17.77
   0  -1   5 1397.03   65.45
   0   1  -5 1420.95   66.62
   0  -1   5 1430.65   68.31
   0  -1   5 1365.03   66.23
   0  -1   5 1385.40   72.48
   0  -1   5 1500.01   68.48
   0  -1   5 1430.27   68.82
   0  -1   5 1383.78   66.75
   0   1  -5 1415.06   71.79
   0  -1   5 1542.35   75.04
   1  -1   5 1029.46   51.98
   1  -1   5 1128.64   53.31
   1  -1   5 1078.98   51.03
  -1   1  -5 1069.14   51.31
  -1   1  -5 1214.54   60.91
   1  -1   5 1131.50   53.74
   1  -1   5 1053.87   50.38
   1  -1   5 1137.94   53.09
   1  -1   5 1143.02   62.49
   1  -1   5 1116.64   60.20
  -2   1  -5   16.60   12.03
   2  -1   5   20.91   11.20
   2  -1   5   15.40   10.44
   2  -1   5   41.24   17.91
   2  -1   5   12.96   14.05
   2  -1   5   24.25   10.06
   2  -1   5   27.04   11.00
   3  -1   5   18.49   20.72
   3  -1   5   20.65   11.08
   3  -1   5    1.74   14.06
   3  -1   5   16.16   10.77
   3  -1   5   21.65   10.85
   3  -1   5   21.34    9.72
   4  -1   5 1382.32   73.52
   4  -1   5 1451.09   67.26
   4  -1   5 1446.78   83.99
   4  -1   5 1478.18   67.13
   4  -1   5 1554.54   68.77
   4  -1   5 1452.26   66.24
   5  -1   5  262.28   34.91
   5  -1   5  306.46   28.14
   5  -1   5  343.65   27.02
   5  -1   5  341.07   29.56
   5  -1   5  308.70   28.01
   6  -1   5    7.22   18.13
   6  -1   5   -8.01   14.45
   6  -1   5  -15.32   20.68
   6  -1   5  -13.59   14.70
   6  -1   5    7.27   16.61
   6  -1   5   -5.10   17.63
   7  -1   5  248.28   33.78
   7  -1   5  266.22   31.99
   7  -1   5  319.94   41.40
   7  -1   5  307.98   30.91
   7  -1   5  223.31   32.42
  -6   0   5  -13.97   25.39
   6   0  -5   -7.33   27.54
  -6   0   5   23.04   28.27
  -6   0   5   -9.35   34.73
   6   0  -5  -19.96   27.33
   6   0  -5   11.06   30.98
   6   0  -5   54.42   34.12
  -5   0   5  535.21   57.69
   5   0  -5  649.70   51.64
  -5   0   5  443.29   45.41
   5   0  -5  689.41   58.56
  -5   0   5  531.84   51.94
   5   0  -5  693.15   54.03
   5   0  -5  564.22   52.35
  -4   0   5    7.12   23.04
   4   0  -5   36.87   25.10
   4   0  -5   -1.19   23.92
  -4   0   5   13.16   21.77
  -4   0   5  -14.76   28.27
   4   0  -5   15.90   23.35
   4   0  -5   20.68   24.33
   3   0  -5  217.50   29.88
  -3   0   5  131.81   27.09
   3   0  -5  176.01   28.10
  -3   0   5  192.65   34.94
  -3   0   5  193.61   27.83
   3   0  -5  198.84   31.05
  -3   0   5  191.75   31.97
   3   0  -5  144.74   28.22
   3   0  -5  177.91   28.48
  -3   0   5  146.13   27.72
  -2   0   5  436.57   37.45
  -2   0   5  343.29   34.20
   2   0  -5  357.92   33.96
   2   0  -5  392.44   35.61
  -2   0   5  360.56   29.71
  -2   0   5  382.61   33.31
   2   0  -5  372.53   32.34
  -2   0   5  380.17   34.84
  -2   0   5  349.36   27.60
   2   0  -5  395.63   35.36
  -2   0   5  355.74   37.56
   2   0  -5  396.90   35.71
  -1   0   5 2419.87  111.95
   1   0  -5 2403.28  107.32
   1   0  -5 2441.31  112.44
   1   0  -5 2448.20  105.05
  -1   0   5 2280.03  111.03
  -1   0   5 2405.10  107.32
  -1   0   5 2522.26  109.99
   1   0  -5 2450.43  110.06
   1   0  -5 2313.02  108.47
  -1   0   5 2636.98  116.26
  -1   0   5 2680.43  112.56
  -1   0   5 2523.28  110.08
   1   0  -5 2483.75  114.08
  -1   0   5 2493.65  109.00
  -1   0   5 2474.75  113.02
   0   0  -5  148.67   15.55
   0   0   5  165.69   17.09
   0   0   5  199.56   25.08
   0   0   5  234.24   24.06
   0   0  -5  177.81   16.89
   0   0   5  152.29   19.60
   0   0  -5  182.35   14.27
   0   0   5  190.63   22.01
   0   0   5  205.94   19.32
   0   0   5  201.83   20.44
   0   0  -5  162.25   17.89
   0   0  -5  166.31   23.96
   0   0  -5  188.30   22.54
   0   0   5  199.20   23.43
   0   0   5  168.13   19.46
   1   0   5   26.25   15.55
   1   0   5    5.23   15.88
  -1   0  -5   38.38   10.42
   1   0   5   13.28    9.99
   1   0   5   42.31   10.52
   1   0   5   22.35   16.11
  -1   0  -5   42.98   15.96
   1   0   5   16.63   11.65
   1   0   5   50.82   11.10
   2   0   5  184.23   23.21
   2   0   5  217.14   25.05
   2   0   5  200.09   27.55
   2   0   5  186.48   19.77
   3   0   5 1167.89   58.48
   3   0   5 1247.96   69.93
   4   0   5   31.70   21.70
   4   0   5   33.06   17.50
   5   0   5  452.95   28.73
   5   0   5  535.26   41.43
   5   0   5  424.03   29.94
   5   0   5  447.56   30.97
   5   0   5  423.56   29.86
   6   0   5  271.56   25.57
   6   0   5  259.07   26.98
   6   0   5  235.80   26.30
   6   0   5  247.96   23.23
   6   0   5  189.66   32.54
   7   0   5  737.66   49.87
   7   0   5  700.90   48.95
   7   0   5  768.12   45.81
   7   0   5  699.69   45.22
   7   0   5  765.07   57.58
   8   0   5   21.67   26.52
   8   0   5  -23.70   20.66
   8   0   5   10.79   23.29
   8   0   5  -16.93   25.70
   6  -1  -5   85.28   24.35
   6  -1  -5  116.33   36.52
   6  -1  -5   88.03   37.31
  -6   1   5  151.89   44.85
   6  -1  -5   35.05   34.39
   6  -1  -5  122.79   34.17
   6  -1  -5  123.82   25.79
  -6   1   5  117.62   34.48
   5  -1  -5  240.61   25.24
   5  -1  -5  278.16   41.06
   5  -1  -5  211.11   37.03
  -5   1   5  187.52   36.63
  -5   1   5  148.26   31.82
   5  -1  -5  273.42   36.94
  -5   1   5  250.00   45.96
   5  -1  -5  163.81   38.54
  -4   1   5  -10.00   28.11
   4  -1  -5   -0.53   22.02
   4  -1  -5   22.35   13.17
   4  -1  -5  -16.10   20.88
  -4   1   5    1.15   23.21
  -4   1   5   38.30   23.14
   4  -1  -5   20.46   27.36
   4  -1  -5   31.62   25.21
  -3   1   5  211.80   33.35
   3  -1  -5  207.67   30.69
   3  -1  -5  156.15   28.27
   3  -1  -5  198.49   32.80
  -3   1   5  195.20   28.29
   3  -1  -5  253.73   32.43
  -3   1   5  240.34   36.11
   3  -1  -5  246.44   31.53
  -3   1   5  237.46   31.39
  -2   1   5  392.45   26.71
   2  -1  -5  399.44   34.30
  -2   1   5  384.48   37.31
   2  -1  -5  441.68   37.62
   2  -1  -5  411.59   36.66
  -2   1   5  383.93   39.05
   2  -1  -5  416.98   33.51
  -2   1   5  391.60   31.98
  -2   1   5  414.92   34.89
   2  -1  -5  351.60   35.59
  -2   1   5  453.01   38.07
  -2   1   5  385.63   33.47
   1  -1  -5  285.94   27.46
  -1   1   5  296.15   28.59
  -1   1   5  275.51   27.03
   1  -1  -5  289.75   29.32
  -1   1   5  336.25   28.49
  -1   1   5  258.31   29.58
   1  -1  -5  250.31   22.96
  -1   1   5  265.93   24.10
  -1   1   5  244.80   27.42
  -1   1   5  295.48   29.54
  -1   1   5  232.87   24.72
   1  -1  -5  313.41   28.02
  -1   1   5  285.13   25.17
   1  -1  -5  256.66   24.74
   1  -1  -5  267.53   26.98
   0   1   5   30.02   15.49
   0   1   5   34.64   13.89
   0   1   5   35.78   14.95
   0  -1  -5   32.50   14.28
   0   1   5   26.37   13.80
   0  -1  -5   19.28   11.19
   0   1   5   37.85   11.18
   0   1   5   13.16   12.52
   0   1   5   38.81   16.83
   0  -1  -5   40.67   11.24
   0  -1  -5   43.98   16.37
   0   1   5   28.15   12.15
   0   1   5   45.68   14.54
   0  -1  -5   25.81   10.16
   1   1   5  366.37   20.74
  -1  -1  -5  335.47   29.79
   1   1   5  368.19   26.93
   1   1   5  325.40   23.44
   1   1   5  331.08   21.10
   1   1   5  401.43   32.42
   1   1   5  321.24   22.57
  -1  -1  -5  344.78   27.10
   1   1   5  331.45   21.96
   1   1   5  394.96   32.23
   2   1   5  129.16   23.48
  -2  -1  -5  136.51   25.17
   2   1   5  141.64   16.40
   2   1   5  154.76   19.81
   2   1   5  182.28   23.38
   3   1   5  428.91   38.11
   3   1   5  407.58   33.29
   4   1   5   55.85   19.71
   4   1   5   44.28   21.81
   5   1   5 2186.66  110.43
   5   1   5 2106.34   89.14
   5   1   5 2082.37   90.00
   6   1   5  199.86   24.47
   6   1   5  219.27   24.03
   6   1   5  184.99   23.24
   6   1   5  245.75   25.88
   7   1   5  223.93   27.10
   7   1   5  267.24   31.18
   7   1   5  239.40   25.69
   7   1   5  227.16   27.57
   7   1   5  229.46   25.51
   8   1   5   -0.13   18.94
   8   1   5   24.31   28.60
   8   1   5  -29.65   19.93
   8   1   5  -12.67   19.59
   8   1   5  -26.52   25.39
   8   1   5  -17.36   30.88
   5  -2  -5  -10.33   22.63
   5  -2  -5   -0.59   28.67
  -5   2   5  -31.03   23.83
   5  -2  -5   17.48   16.17
  -5   2   5   18.85   31.85
   5  -2  -5   50.20   30.56
   5  -2  -5  -26.28   21.91
   5  -2  -5    6.04   17.34
  -5   2   5  -14.27   24.40
   4  -2  -5   51.71   27.98
   4  -2  -5   76.87   26.43
   4  -2  -5  111.81   29.94
   4  -2  -5   79.65   26.30
  -4   2   5  111.14   35.18
  -4   2   5   96.34   27.91
  -4   2   5   32.20   23.94
   4  -2  -5   67.39   19.10
  -3   2   5   27.58   27.44
  -3   2   5   77.50   23.36
   3  -2  -5  105.42   16.50
   3  -2  -5   60.98   23.94
  -3   2   5   74.84   28.92
  -3   2   5   41.63   21.89
   3  -2  -5   50.15   25.12
   3  -2  -5   91.26   24.02
   3  -2  -5   60.76   23.22
   3  -2  -5   84.37   25.16
  -2   2   5  445.30   37.34
   2  -2  -5  446.78   39.01
   2  -2  -5  444.44   35.43
   2  -2  -5  438.07   36.64
  -2   2   5  547.75   43.06
  -2   2   5  457.76   42.91
  -2   2   5  413.04   34.09
   2  -2  -5  472.51   40.58
  -2   2   5  522.92   42.76
  -1   2   5   16.15   14.15
   1  -2  -5   32.63   14.70
   1  -2  -5   23.49   15.54
   1  -2  -5   24.19   14.44
   1  -2  -5   29.56   13.63
  -1   2   5   24.18   15.92
   1  -2  -5   13.19   16.48
  -1   2   5    3.47   15.66
   1  -2  -5   22.45   15.60
  -1   2   5   19.60   14.26
  -1   2   5   18.68   17.30
   1  -2  -5   17.95   13.86
  -1   2   5    8.80   17.54
   0  -2  -5  649.83   42.18
   0   2   5  655.34   41.04
   0   2   5  657.64   37.51
   0  -2  -5  635.42   42.71
   0  -2  -5  648.28   37.72
   0  -2  -5  660.13   37.58
   0   2   5  666.15   41.15
   0  -2  -5  653.84   35.05
   0   2   5  715.27   44.55
   0   2   5  712.62   39.84
   0   2   5  572.91   39.70
   0   2   5  683.68   38.56
   0   2   5  623.00   35.19
   0   2   5  689.54   38.39
   0  -2  -5  689.06   35.45
   1   2   5  570.72   31.86
   1   2   5  602.04   40.17
   1   2   5  578.03   32.97
   1   2   5  574.97   39.32
  -1  -2  -5  575.36   38.89
   1   2   5  651.60   33.07
   1   2   5  566.38   29.49
  -1  -2  -5  601.21   33.31
  -1  -2  -5  595.26   40.66
   1   2   5  526.78   31.03
   1   2   5  562.92   33.65
   1   2   5  574.43   33.20
   2   2   5 1114.70   52.76
  -2  -2  -5 1061.49   57.35
   2   2   5 1051.01   60.67
   2   2   5 1061.63   55.99
   2   2   5 1137.21   58.88
  -2  -2  -5 1110.42   61.57
   3   2   5   13.42   16.66
   3   2   5   -4.55   16.41
  -3  -2  -5   23.24   19.97
   3   2   5   19.19   15.20
   4   2   5   95.44   24.43
   4   2   5  122.35   25.37
  -4  -2  -5  115.21   25.75
   4   2   5  146.62   21.88
   5   2   5  215.98   18.87
  -5  -2  -5  256.77   35.30
   5   2   5  239.16   20.55
   5   2   5  240.95   34.84
   5   2   5  329.58   38.00
   5   2   5  271.38   28.50
   6   2   5   99.14   20.37
   6   2   5   81.23   30.87
   6   2   5   69.49   23.17
   6   2   5   74.43   18.39
  -6  -2  -5  146.83   35.53
   6   2   5  103.60   19.14
   6   2   5  105.22   21.51
   7   2   5   -5.10   14.13
   7   2   5    1.07   17.31
   7   2   5   10.10   18.13
   7   2   5   -7.40   15.38
   7   2   5   19.45   20.79
   7   2   5  -28.50   26.11
   8   2   5  184.05   34.45
   8   2   5  128.07   26.34
   8   2   5  250.01   46.66
   8   2   5  154.63   29.61
   8   2   5  178.32   26.76
   5  -3  -5   23.37   27.39
  -5   3   5    0.07   26.36
  -5   3   5   15.35   26.83
  -5   3   5   22.24   36.12
   5  -3  -5   20.20   20.77
   5  -3  -5  -29.29   26.20
   5  -3  -5  -24.88   28.28
   5  -3  -5   18.33   17.87
   5  -3  -5    8.42   27.79
   4  -3  -5  296.10   23.99
   4  -3  -5  316.07   39.22
  -4   3   5  269.64   36.96
   4  -3  -5  230.51   39.40
  -4   3   5  304.70   45.97
   4  -3  -5  275.85   28.71
   4  -3  -5  318.27   39.69
  -4   3   5  359.15   38.95
   4  -3  -5  363.47   42.37
   3  -3  -5  357.60   42.91
  -3   3   5  357.49   37.49
  -3   3   5  287.84   37.33
   3  -3  -5  382.62   39.44
   3  -3  -5  351.18   39.30
   3  -3  -5  390.97   41.84
   3  -3  -5  380.80   39.47
  -3   3   5  349.81   45.51
   2  -3  -5   39.97   19.56
  -2   3   5   37.18   23.90
  -2   3   5   -6.66   18.47
   2  -3  -5   12.97   20.59
  -2   3   5   13.23   19.63
  -2   3   5   -3.91   22.08
   2  -3  -5   30.30   21.38
   2  -3  -5   32.62   18.38
   2  -3  -5    5.43   15.10
  -1   3   5   89.02   24.29
   1  -3  -5  104.14   19.33
  -1   3   5   66.13   21.94
  -1   3   5  117.07   23.89
   1  -3  -5  106.71   23.14
   1  -3  -5  115.16   21.58
   1  -3  -5   75.40   17.98
   1  -3  -5   93.92   17.27
  -1   3   5   77.22   17.91
   1  -3  -5   91.94   19.35
   1  -3  -5   94.49   20.81
  -1   3   5   89.82   19.60
   0  -3  -5 1223.22   56.44
   0   3   5 1226.08   58.11
   0   3   5 1105.33   58.53
   0   3   5 1235.13   60.85
   0  -3  -5 1136.82   56.58
   0  -3  -5 1153.76   62.67
   0   3   5 1192.27   56.93
   0  -3  -5 1170.13   59.03
   0   3   5 1227.93   61.30
   0  -3  -5 1146.25   58.28
   0   3   5 1066.99   61.81
   0   3   5 1283.75   62.19
   0  -3  -5 1138.84   64.87
   0  -3  -5 1155.03   52.59
  -1  -3  -5  941.96   55.24
  -1  -3  -5  960.21   42.65
   1   3   5  994.90   54.94
  -1  -3  -5  889.46   53.60
   1   3   5 1015.53   50.06
   1   3   5  964.46   48.55
   1   3   5  955.13   47.01
  -1  -3  -5  911.11   45.30
  -1  -3  -5  926.42   43.26
   1   3   5  884.33   44.73
   1   3   5 1001.01   54.89
   1   3   5  893.57   50.11
   1   3   5  956.42   47.27
   1   3   5  976.59   47.72
   1   3   5  953.65   45.32
   2   3   5  126.11   18.77
   2   3   5  129.57   15.34
   2   3   5  141.21   21.62
  -2  -3  -5   88.92   21.92
   2   3   5  132.10   13.55
  -2  -3  -5  115.56   19.96
   2   3   5  155.17   23.67
   2   3   5   95.08   15.02
   2   3   5  120.17   14.86
   2   3   5  114.13   14.12
   3   3   5  283.98   30.43
   3   3   5  259.51   25.27
   3   3   5  196.58   18.86
   3   3   5  206.61   25.66
  -3  -3  -5  178.51   22.29
   3   3   5  196.48   15.55
  -3  -3  -5  172.23   27.64
   4   3   5 1557.90   83.82
   4   3   5 1631.34   86.97
   4   3   5 1672.59   77.76
  -4  -3  -5 1549.30   86.17
   5   3   5  394.62   28.17
   5   3   5  467.23   34.43
   5   3   5  395.00   26.72
  -5  -3  -5  423.08   43.08
   5   3   5  410.63   42.38
   5   3   5  423.25   28.37
   5   3   5  392.15   27.31
  -6  -3  -5  -29.70   25.38
   6   3   5   22.65   15.90
   6   3   5   -7.63   17.16
   6   3   5    0.30   16.69
   6   3   5   12.30   17.79
   6   3   5   10.34   15.50
   6   3   5    8.62   24.73
   7   3   5    3.81   20.78
   7   3   5   34.45   19.80
   7   3   5   47.43   29.50
   7   3   5   22.87   17.30
   7   3   5   30.53   18.52
   7   3   5   59.03   17.44
  -7  -3  -5   73.07   32.75
   8   3   5  351.78   39.03
   8   3   5  392.70   36.86
   8   3   5  433.65   57.07
   8   3   5  465.62   46.66
   8   3   5  464.05   39.05
   5  -4  -5  200.49   41.97
   5  -4  -5  213.06   43.80
  -5   4   5  157.24   46.31
   5  -4  -5  251.77   42.33
   5  -4  -5  211.20   41.34
  -5   4   5  146.92   35.18
  -5   4   5  232.82   41.65
  -4   4   5   52.72   27.88
   4  -4  -5   58.77   26.64
  -4   4   5    9.05   25.21
   4  -4  -5   41.51   28.71
  -4   4   5   37.88   32.50
   4  -4  -5   97.52   30.48
   4  -4  -5   25.14   26.41
  -3   4   5  253.74   35.23
  -3   4   5  275.76   42.21
   3  -4  -5  241.78   39.13
  -3   4   5  310.23   37.22
   3  -4  -5  240.40   34.64
   3  -4  -5  250.52   35.30
   3  -4  -5  324.68   27.30
   3  -4  -5  192.71   36.02
  -2   4   5  717.08   54.44
   2  -4  -5  673.40   46.47
  -2   4   5  638.78   49.14
   2  -4  -5  682.47   51.56
   2  -4  -5  674.54   43.45
   2  -4  -5  692.24   52.72
  -2   4   5  692.79   56.35
  -2   4   5  739.57   47.98
   2  -4  -5  626.65   47.95
   1  -4  -5  715.56   49.16
  -1   4   5  516.24   45.51
   1  -4  -5  756.19   47.11
   1  -4  -5  809.00   45.77
   1  -4  -5  725.80   51.18
   1  -4  -5  726.01   52.28
   1  -4  -5  804.30   39.32
  -1   4   5  819.47   53.72
  -1   4   5  783.96   51.37
  -1   4   5  747.07   54.75
   1  -4  -5  831.49   46.19
  -1   4   5  803.32   47.84
   1  -4  -5  788.55   47.64
   0  -4  -5    3.76   14.24
   0  -4  -5   15.19   15.43
   0  -4  -5   13.38   14.97
   0  -4  -5   18.56   12.32
   0   4   5   10.81   17.33
   0   4   5    6.63   19.51
   0  -4  -5   24.17   17.93
   0  -4  -5   10.73   18.28
   0   4   5   10.91   16.51
   0   4   5   17.77   15.19
   0  -4  -5   -5.65   10.85
   0  -4  -5   30.59   12.47
   0   4   5   34.11   16.00
  -1  -4  -5  139.64   18.84
  -1  -4  -5  156.81   14.41
   1   4   5  204.24   19.99
   1   4   5  122.05   19.94
  -1  -4  -5  180.34   25.88
   1   4   5  147.34   20.37
   1   4   5  145.17   21.26
   1   4   5  177.52   22.02
  -1  -4  -5  177.35   18.31
   1   4   5  160.09   22.91
  -1  -4  -5  148.85   23.80
  -1  -4  -5  126.69   16.86
   2   4   5  614.63   36.48
   2   4   5  666.90   39.13
   2   4   5  634.98   35.01
  -2  -4  -5  569.18   45.25
   2   4   5  650.00   38.49
   2   4   5  600.46   42.95
   2   4   5  682.23   38.85
   2   4   5  617.55   40.34
   2   4   5  585.53   33.36
  -2  -4  -5  665.51   42.22
  -2  -4  -5  663.68   40.24
   3   4   5  384.13   27.40
   3   4   5  413.73   27.95
   3   4   5  391.18   35.06
  -3  -4  -5  364.93   36.68
  -3  -4  -5  377.95   31.17
   3   4   5  356.52   26.67
   3   4   5  418.80   34.01
   4   4   5    6.24   15.60
   4   4   5   25.20   12.36
   4   4   5   18.76   12.69
   4   4   5   -6.82   17.64
   4   4   5    8.27   13.90
  -4  -4  -5  -41.84   18.99
  -4  -4  -5   -7.50   15.67
   4   4   5   23.26   13.83
   5   4   5  569.75   36.97
   5   4   5  498.65   35.06
   5   4   5  474.40   34.02
   5   4   5  487.80   46.15
  -5  -4  -5  506.29   48.00
   5   4   5  549.68   35.39
   5   4   5  509.93   33.77
   6   4   5   25.63   17.68
   6   4   5   72.97   19.63
  -6  -4  -5   95.87   30.55
   6   4   5   28.61   21.58
   6   4   5   74.99   22.27
   6   4   5   55.29   27.69
   6   4   5   43.98   16.84
   6   4   5   52.69   15.54
   6   4   5   68.40   17.36
   7   4   5    6.99   22.27
   7   4   5   19.40   19.06
   7   4   5    5.32   22.92
   7   4   5   22.51   19.54
   7   4   5   -2.21   26.17
   7   4   5   18.42   16.72
   7   4   5   -3.48   16.31
  -7  -4  -5   14.32   29.17
   8   4   5  137.17   34.60
  -8  -4  -5  221.04   44.17
   8   4   5  107.58   25.28
   8   4   5  160.24   40.87
   8   4   5  134.16   27.07
   8   4   5  182.23   30.37
   4  -5  -5   36.48   29.85
  -4   5   5   54.38   30.20
  -4   5   5   -0.22   25.68
   4  -5  -5   14.61   27.45
  -4   5   5   29.39   34.89
   4  -5  -5   -4.64   28.94
   4  -5  -5   46.84   32.22
  -3   5   5  740.11   62.80
   3  -5  -5  656.67   56.75
   3  -5  -5  613.06   41.24
   3  -5  -5  622.64   50.62
  -3   5   5  574.64   47.74
  -3   5   5  621.82   54.01
   3  -5  -5  535.63   53.23
   3  -5  -5  456.43   48.53
  -2   5   5   84.53   32.25
   2  -5  -5   39.61   23.64
   2  -5  -5   59.55   27.18
  -2   5   5   83.38   27.70
   2  -5  -5   77.31   24.09
   2  -5  -5   88.45   25.24
  -2   5   5  106.11   26.16
   2  -5  -5   79.00   27.95
   1  -5  -5  452.14   34.94
  -1   5   5  463.48   42.60
   1  -5  -5  393.54   42.66
  -1   5   5  436.90   44.98
   1  -5  -5  397.86   31.49
  -1   5   5  463.60   40.89
  -1   5   5  427.56   38.28
   1  -5  -5  428.37   36.50
   1  -5  -5  387.06   40.51
  -1   5   5  426.76   30.06
   1  -5  -5  428.56   38.72
   1  -5  -5  478.55   39.48
   0   5   5  205.92   32.71
   0   5   5  178.57   29.80
   0  -5  -5  202.54   27.38
   0   5   5  206.31   30.57
   0  -5  -5  185.10   20.59
   0  -5  -5  177.87   24.69
   0   5   5  206.96   25.94
   0  -5  -5  210.43   31.63
   0   5   5  176.52   26.33
   0  -5  -5  176.42   22.75
   0  -5  -5  198.55   22.49
   0  -5  -5  180.66   26.20
   0  -5  -5  260.89   30.82
  -1  -5  -5  245.89   30.58
  -1  -5  -5  271.16   32.42
  -1  -5  -5  252.46   24.29
   1   5   5  257.00   28.53
   1   5   5  197.23   29.24
  -1  -5  -5  261.77   25.11
  -1  -5  -5  280.43   27.23
   1   5   5  202.02   25.88
   1   5   5  198.09   24.60
   1   5   5  288.15   29.75
  -1  -5  -5  230.48   24.59
  -2  -5  -5   22.19   21.01
  -2  -5  -5   25.98   16.83
   2   5   5   14.60   18.08
   2   5   5   26.30   16.28
   2   5   5  -11.95   14.01
  -2  -5  -5    5.69   11.97
  -2  -5  -5   -6.97   16.14
   2   5   5   -5.28   13.20
  -2  -5  -5  -17.03   10.86
   2   5   5    3.23   15.98
  -3  -5  -5  100.62   25.83
  -3  -5  -5   67.29   20.35
  -3  -5  -5   97.32   23.53
   3   5   5  120.80   18.64
   3   5   5  120.27   22.24
   3   5   5   76.17   22.88
   3   5   5  108.73   19.99
   3   5   5  104.91   21.13
   3   5   5   90.96   17.21
   3   5   5   95.54   20.00
   4   5   5   16.26   13.99
  -4  -5  -5   30.55   24.88
  -4  -5  -5    8.57   17.59
   4   5   5   19.30   22.11
   4   5   5   36.89   19.40
   4   5   5   23.34   15.08
   4   5   5   13.87   15.41
   5   5   5  272.64   25.90
  -5  -5  -5  257.46   38.17
   5   5   5  252.59   28.00
   5   5   5  297.33   24.41
   5   5   5  226.48   36.33
   5   5   5  212.40   24.39
   5   5   5  242.78   28.22
   5   5   5  358.19   31.53
   6   5   5   27.75   16.91
  -6  -5  -5    5.99   26.52
   6   5   5    9.35   21.93
   6   5   5   13.66   19.04
   6   5   5   17.04   19.04
   6   5   5   22.48   17.12
   6   5   5   11.88   18.47
   6   5   5    5.76   24.43
   7   5   5  212.86   29.93
  -7  -5  -5  233.74   42.38
   7   5   5  196.30   28.12
   7   5   5  345.16   38.24
   7   5   5  236.68   33.87
   7   5   5  141.71   36.76
   7   5   5  228.37   27.98
   8   5   5   13.39   28.15
   8   5   5  -17.27   21.48
   3  -6  -5  741.08   62.80
   3  -6  -5  723.34   59.23
   3  -6  -5  771.90   50.77
  -3   6   5  789.41   60.53
  -3   6   5  740.72   68.96
   3  -6  -5  631.72   61.60
  -3   6   5  684.92   56.71
   3  -6  -5  674.67   56.71
  -2   6   5  280.65   37.22
  -2   6   5  343.47   41.53
   2  -6  -5  300.19   36.13
   2  -6  -5  267.31   41.49
   2  -6  -5  372.42   45.00
   2  -6  -5  348.64   39.82
  -2   6   5  309.26   46.04
   2  -6  -5  359.91   37.26
   1  -6  -5  122.96   25.71
   1  -6  -5   70.46   31.20
   1  -6  -5   90.77   22.93
  -1   6   5  145.84   23.08
  -1   6   5  144.57   32.59
   1  -6  -5  153.35   30.69
  -1   6   5   57.56   31.40
   1  -6  -5  117.55   29.56
   1  -6  -5  136.73   27.18
   1  -6  -5  118.13   23.20
  -1   6   5  102.52   26.47
  -1   6   5   86.34   26.94
   0  -6  -5   63.45   28.02
   0   6   5   71.85   26.94
   0  -6  -5   24.80   26.14
   0  -6  -5   83.41   20.66
   0  -6  -5   86.99   22.10
   0  -6  -5   83.69   22.66
   0  -6  -5   63.18   23.98
   0   6   5  133.70   27.95
   0   6   5   50.76   22.58
   0   6   5   46.81   27.45
   0  -6  -5   58.68   17.16
  -1  -6  -5  187.00   27.34
   1   6   5  198.80   28.83
  -1  -6  -5  195.60   21.22
   1   6   5  233.73   30.40
  -1  -6  -5  202.02   27.58
  -1  -6  -5  211.54   33.22
   1   6   5  226.73   31.51
   1   6   5  203.50   33.04
  -1  -6  -5  188.81   33.52
   1   6   5  250.02   31.98
  -1  -6  -5  215.03   26.56
   2   6   5  873.92   52.86
   2   6   5  758.37   54.87
  -2  -6  -5  856.74   54.80
  -2  -6  -5  852.92   47.19
   2   6   5  804.37   52.57
   2   6   5  795.04   49.89
  -2  -6  -5  835.99   53.35
   2   6   5  865.28   54.70
  -2  -6  -5  876.08   60.45
  -2  -6  -5  771.90   46.03
   3   6   5   11.10   18.35
   3   6   5   37.33   19.39
   3   6   5    9.07   17.42
  -3  -6  -5   17.48   13.32
   3   6   5   18.60   20.15
  -3  -6  -5  -16.67   18.75
  -3  -6  -5   29.86   13.51
  -3  -6  -5   15.35   13.65
  -3  -6  -5   11.73   25.54
   3   6   5   30.50   21.96
   4   6   5    4.69   20.44
  -4  -6  -5   10.41   18.61
   4   6   5   10.40   17.57
  -4  -6  -5   -4.74   24.19
   4   6   5   15.08   20.33
   4   6   5  -14.17   16.58
   4   6   5    1.51   22.93
  -5  -6  -5  146.23   21.73
   5   6   5   73.07   20.70
  -5  -6  -5   72.78   30.70
   5   6   5  166.03   29.31
   5   6   5   76.63   20.97
   5   6   5   86.62   23.59
   5   6   5  108.90   24.41
   5   6   5   88.76   29.65
   6   6   5  429.05   37.72
  -6  -6  -5  522.43   52.54
   6   6   5  576.78   44.71
   6   6   5  446.54   50.95
   6   6   5  496.97   41.37
   6   6   5  500.02   35.61
   6   6   5  513.07   40.48
   6   6   5  576.78   44.02
   7   6   5   78.45   26.42
  -7  -6  -5   71.17   36.31
   7   6   5  121.57   30.82
   7   6   5   85.41   24.82
   7   6   5  100.44   25.51
   7   6   5   79.58   34.46
   3  -7  -5   71.10   32.87
   3  -7  -5   56.01   35.31
   3  -7  -5  100.02   30.84
  -2   7   5  117.32   32.83
   2  -7  -5   36.48   27.82
   2  -7  -5   82.78   29.69
   2  -7  -5   49.33   33.54
  -2   7   5  169.31   34.88
   2  -7  -5  129.54   35.59
  -2   7   5  129.25   27.52
   2  -7  -5  140.22   30.58
  -2   7   5   94.49   38.03
   1  -7  -5   61.35   23.98
   1  -7  -5  -12.97   22.29
  -1   7   5   40.17   29.27
   1  -7  -5    6.94   25.34
   1  -7  -5   17.34   26.56
   1  -7  -5   17.13   19.26
  -1   7   5   26.48   20.42
  -1   7   5   12.72   25.33
   1  -7  -5   18.39   23.93
   1  -7  -5   42.97   30.17
  -1   7   5   25.58   24.55
   0  -7  -5  524.00   44.06
   0   7   5  486.19   50.92
   0  -7  -5  445.59   43.24
   0   7   5  487.36   47.14
   0  -7  -5  448.66   48.44
   0  -7  -5  468.81   48.90
   0  -7  -5  496.87   40.24
   0   7   5  537.79   50.24
   0  -7  -5  548.43   46.49
   0   7   5  514.80   46.26
   0  -7  -5  524.76   34.53
  -1  -7  -5  146.56   28.06
   1   7   5  177.93   35.25
  -1  -7  -5  178.64   33.48
   1   7   5  119.44   28.91
  -1  -7  -5  126.45   22.47
  -1  -7  -5  178.47   28.36
   1   7   5  121.11   30.55
   1   7   5  175.18   30.80
  -1  -7  -5  230.18   38.64
  -2  -7  -5  482.63   50.60
  -2  -7  -5  490.82   38.96
   2   7   5  473.24   45.58
   2   7   5  482.49   42.67
   2   7   5  480.07   43.46
   2   7   5  462.04   43.76
  -2  -7  -5  461.82   38.13
  -2  -7  -5  530.14   46.27
  -2  -7  -5  483.11   37.65
   2   7   5  468.48   46.90
  -3  -7  -5    1.47   21.55
   3   7   5  -23.52   22.95
  -3  -7  -5   -1.05   19.49
  -3  -7  -5   -2.41   16.88
   3   7   5    6.40   21.42
   3   7   5   -9.99   23.70
   3   7   5    0.50   21.54
   3   7   5  -36.01   19.18
  -3  -7  -5  -12.71   25.74
   4   7   5  209.42   32.52
   4   7   5  224.96   33.70
  -4  -7  -5  272.30   30.37
   4   7   5  251.58   32.32
   4   7   5  244.33   31.20
   4   7   5  170.36   29.29
  -4  -7  -5  172.24   21.63
  -4  -7  -5  230.59   38.70
   5   7   5   12.36   21.35
   5   7   5    5.01   20.64
  -5  -7  -5  -22.30   26.07
   5   7   5  -14.44   19.20
  -5  -7  -5   39.74   19.16
   5   7   5   26.75   24.47
   6   7   5  179.99   30.36
   6   7   5  124.29   36.22
  -6  -7  -5  139.28   38.22
   6   7   5  161.17   29.07
   6   7   5  196.47   36.95
   6   7   5  191.85   30.87
   7   7   5   -6.26   23.41
  -7  -7  -5  -16.94   31.77
   7   7   5   10.87   30.86
   7   7   5    8.69   30.42
   7   7   5   17.30   23.98
   1  -8  -5   62.35   34.98
   1  -8  -5   56.71   29.96
   1  -8  -5  114.85   32.71
  -1   8   5  118.04   29.96
  -1   8   5  111.14   32.84
  -1   8   5   28.07   28.97
   1  -8  -5   75.74   26.03
  -1   8   5  115.42   38.56
   0  -8  -5   49.92   30.80
   0   8   5  -24.91   23.49
   0  -8  -5    9.03   18.31
   0   8   5   14.49   25.44
   0  -8  -5  -32.27   22.28
   0   8   5  -32.37   28.05
   0   8   5    4.28   25.83
   0  -8  -5   26.16   25.76
   1   8   5  -11.07   25.22
  -1  -8  -5    8.02   23.56
  -1  -8  -5    2.92   20.60
  -1  -8  -5  -16.34   20.62
   1   8   5   14.11   25.59
   1   8   5  -18.90   22.45
  -1  -8  -5   -1.21   26.62
   2   8   5  838.84   62.77
  -2  -8  -5  995.32   72.94
   2   8   5  863.23   67.79
  -2  -8  -5  975.78   58.05
   2   8   5  990.14   66.04
   2   8   5  953.14   62.25
  -2  -8  -5 1018.07   65.19
   3   8   5  486.03   47.30
  -3  -8  -5  481.90   53.81
   3   8   5  473.94   47.17
  -3  -8  -5  598.24   42.86
   3   8   5  645.68   51.87
   3   8   5  567.98   52.84
  -3  -8  -5  550.98   47.22
  -4  -8  -5  -14.93   28.18
   4   8   5   40.31   25.31
  -4  -8  -5   44.84   20.13
   4   8   5   70.18   29.30
   4   8   5   65.23   25.23
  -4  -8  -5   64.48   24.29
   5   8   5    7.72   23.63
  -5  -8  -5    4.96   31.11
  -5  -8  -5  -18.31   20.40
   5   8   5   -5.57   26.00
   6   8   5    7.54   24.19
  -6  -8  -5   96.64   37.15
   6   8   5   18.12   24.31
   0   9   5  -17.97   31.78
   0  -9  -5   69.04   30.28
   0   9   5   41.72   30.87
   0  -9  -5    1.71   33.54
   0  -9  -5   25.03   32.04
   0   9   5   67.62   32.63
   1   9   5   61.10   31.16
  -1  -9  -5   44.50   31.58
   1   9   5   27.72   35.19
  -1  -9  -5    9.78   25.98
   1   9   5   -4.97   27.31
  -1  -9  -5   76.33   30.91
  -2  -9  -5   17.08   24.91
   2   9   5   15.07   31.75
  -2  -9  -5    5.59   25.17
   2   9   5  -10.56   26.40
  -2  -9  -5   -9.31   35.25
  -2  -9  -5   14.20   29.00
   2   9   5   27.68   28.02
   3   9   5  238.81   43.77
  -3  -9  -5  271.20   48.81
   3   9   5  107.15   34.31
  -3  -9  -5  311.58   35.43
  -3  -9  -5  266.69   35.26
  -3  -9  -5  345.88   42.30
   4   9   5  -14.44   27.73
  -4  -9  -5  -34.82   22.00
  -4  -9  -5    0.65   24.32
   4   9   5   18.25   26.26
  -4  -9  -5  -42.04   30.43
   4   9   5   25.10   25.53
  -1  -7   6  152.29   38.87
  -1  -7   6  117.86   34.72
  -1  -7   6  128.89   34.32
   1   7  -6  210.71   37.58
   1   7  -6  151.37   35.55
  -1  -7   6  156.81   40.76
   0  -7   6  217.95   38.19
   0  -7   6  211.25   39.55
   0   7  -6  219.25   36.43
   0  -7   6  131.68   40.54
   0  -7   6  289.99   44.68
   0   7  -6  212.61   38.58
  -1   7  -6  443.67   44.65
   1  -7   6  450.24   49.66
  -1   7  -6  419.64   46.36
   1  -7   6  425.04   51.49
   1  -7   6  500.71   51.11
   1  -7   6  399.16   54.38
   2  -7   6   -1.00   32.09
   3   6  -6   87.79   33.47
  -3  -6   6  125.99   38.71
  -3  -6   6   43.46   32.74
   3   6  -6   80.25   31.76
  -3  -6   6   54.08   30.50
  -3  -6   6    1.51   27.13
  -2  -6   6   77.57   29.69
  -2  -6   6   53.40   28.48
   2   6  -6   99.02   30.92
  -2  -6   6   87.33   35.34
  -2  -6   6   50.34   31.74
   2   6  -6  106.29   31.02
  -1  -6   6  387.05   50.00
  -1  -6   6  525.61   48.59
  -1  -6   6  463.96   51.58
   1   6  -6  420.97   45.03
  -1  -6   6  532.66   48.59
   1   6  -6  476.17   46.37
   0   6  -6  162.45   31.84
   0  -6   6  149.91   31.76
   0   6  -6  154.45   30.20
   0  -6   6  166.72   37.43
   0  -6   6  151.91   32.97
   0  -6   6  152.13   35.59
  -1   6  -6  -32.55   20.84
   1  -6   6   -8.95   25.53
   1  -6   6   34.09   23.63
   1  -6   6   -1.53   23.72
   1  -6   6   -3.20   25.60
  -1   6  -6   -0.46   21.25
   2  -6   6   28.41   30.58
   2  -6   6   33.98   24.37
  -2   6  -6   11.14   23.26
   2  -6   6   31.37   26.43
   2  -6   6   89.81   29.90
   3  -6   6 1602.67   92.25
   3  -6   6 1660.57  100.55
   3  -6   6 1533.47   90.08
   3  -6   6 1426.43   87.74
  -3   6  -6 1601.17   81.01
   4  -6   6   56.80   35.19
   4   5  -6  164.50   36.49
  -4  -5   6  166.37   36.30
  -4  -5   6  135.99   36.49
  -4  -5   6  115.38   34.28
  -4  -5   6  158.48   41.77
   4   5  -6  166.97   39.02
   3   5  -6   75.52   29.18
  -3  -5   6  146.76   37.45
  -3  -5   6   72.75   28.58
  -3  -5   6   83.94   28.99
  -3  -5   6   76.77   30.87
   3   5  -6   47.07   28.49
   2   5  -6  523.09   48.12
   2   5  -6  454.58   45.26
   2   5  -6  505.33   42.52
  -2  -5   6  458.23   46.19
  -2  -5   6  402.35   44.65
  -2  -5   6  448.32   49.99
  -2  -5   6  573.47   53.34
  -1  -5   6   42.69   27.01
   1   5  -6   48.44   25.13
  -1  -5   6  117.01   31.06
  -1  -5   6   57.43   28.52
  -1  -5   6   42.78   24.28
   1   5  -6   76.85   25.03
   1   5  -6   61.92   22.58
  -1  -5   6  136.21   28.16
   0  -5   6  -14.04   17.99
   0   5  -6    2.51   16.62
   0   5  -6  -46.01   19.39
   0  -5   6    6.94   24.04
   0   5  -6    4.25   19.84
   0  -5   6   -6.61   23.86
   0  -5   6   38.07   22.17
   0  -5   6  -20.41   20.09
   1  -5   6  113.66   26.81
   1  -5   6  156.93   30.89
   1  -5   6   98.17   27.80
  -1   5  -6  167.74   26.12
  -1   5  -6  145.35   25.75
   1  -5   6  146.40   28.81
  -1   5  -6  173.75   28.34
   1  -5   6  154.38   33.24
   2  -5   6  350.77   38.67
   2  -5   6  342.33   37.04
   2  -5   6  299.42   36.02
   2  -5   6  357.24   39.35
   2  -5   6  315.12   44.18
  -2   5  -6  279.89   30.26
  -2   5  -6  325.18   33.92
   2  -5   6  319.47   37.93
  -3   5  -6  102.20   21.12
  -3   5  -6  118.98   21.29
  -3   5  -6  164.46   24.43
   3  -5   6  140.26   28.36
   3  -5   6  118.95   35.68
   3  -5   6  112.00   29.65
   3  -5   6  117.46   29.17
   3  -5   6  146.11   28.32
   4  -5   6   85.63   30.02
   4  -5   6  140.46   35.83
   4  -5   6   28.76   26.22
   4  -5   6   68.38   25.93
   5  -5   6  103.21   29.60
   5  -5   6   66.53   25.83
   5  -5   6   70.81   29.36
  -4  -4   6  128.17   32.76
   4   4  -6  109.96   31.89
  -4  -4   6  139.62   35.99
  -4  -4   6   64.85   35.50
   4   4  -6  135.26   35.04
   4   4  -6   92.69   29.94
  -4  -4   6  137.86   31.85
  -3  -4   6  -21.99   21.76
  -3  -4   6    2.77   28.07
   3   4  -6  -15.64   23.97
   3   4  -6   -6.10   22.61
  -3  -4   6   -2.99   22.74
  -3  -4   6   35.46   26.00
  -2  -4   6  594.25   49.43
  -2  -4   6  535.58   52.34
   2   4  -6  581.50   43.77
  -2  -4   6  603.33   51.46
  -2  -4   6  608.85   52.58
   2   4  -6  571.90   47.47
  -2  -4   6  630.61   47.84
   2   4  -6  559.82   49.02
  -1  -4   6   20.48   24.39
   1   4  -6   20.17   21.38
  -1  -4   6    1.83   20.49
  -1  -4   6   40.12   26.45
  -1  -4   6   55.13   26.61
  -1  -4   6   41.01   22.11
   1   4  -6   54.37   23.35
   1   4  -6   19.97   18.42
   0  -4   6  122.63   27.74
   0  -4   6   37.43   22.87
   0  -4   6   73.67   28.08
   0   4  -6  118.55   24.15
   0   4  -6   87.00   23.86
   0  -4   6   77.58   25.03
   0   4  -6  114.85   22.88
   0  -4   6   65.12   27.08
   0   4  -6  101.61   17.86
   0  -4   6   86.72   24.47
   1  -4   6    2.46   19.51
   1  -4   6   -3.45   18.79
  -1   4  -6    7.79   20.33
   1  -4   6   12.56   23.88
   1  -4   6   40.19   23.58
   1  -4   6   21.39   21.11
  -1   4  -6  -13.09   15.75
  -1   4  -6    3.88   18.61
   1  -4   6    4.89   17.52
  -2   4  -6  423.65   33.45
   2  -4   6  503.52   40.37
  -2   4  -6  404.80   33.02
   2  -4   6  400.70   39.05
   2  -4   6  442.97   37.66
   2  -4   6  494.62   40.92
   2  -4   6  468.63   48.14
   2  -4   6  437.27   39.45
   3  -4   6   55.27   24.74
   3  -4   6  158.97   33.08
   3  -4   6   91.49   23.86
   3  -4   6  116.80   25.47
   3  -4   6  120.40   26.84
   3  -4   6   91.24   24.24
   4  -4   6  144.37   33.64
   4  -4   6  165.54   29.96
   4  -4   6  175.76   26.77
   4  -4   6   83.95   25.11
   4  -4   6  121.91   26.19
   4  -4   6  119.60   26.54
   5  -4   6  -11.73   20.67
   5  -4   6   -3.25   19.79
   5  -4   6  -29.84   20.18
   5  -4   6   -1.97   21.48
   6  -4   6  362.00   42.68
  -5  -3   6  195.12   44.88
  -5  -3   6   99.70   32.20
   5   3  -6  142.68   36.36
  -5  -3   6  143.34   36.30
  -5  -3   6  116.38   35.83
   5   3  -6  105.64   34.96
   5   3  -6  142.65   35.50
  -4  -3   6   96.91   34.79
   4   3  -6   82.00   30.82
  -4  -3   6  100.26   32.94
  -4  -3   6   93.01   27.85
  -4  -3   6   78.66   28.71
  -4  -3   6  116.92   28.86
   4   3  -6  126.88   30.59
   4   3  -6  108.15   30.48
  -3  -3   6  189.69   37.94
  -3  -3   6  128.37   28.90
  -3  -3   6   92.44   25.72
   3   3  -6  174.31   32.84
  -3  -3   6   96.74   29.37
   3   3  -6  121.65   29.20
  -3  -3   6   95.58   27.24
  -2  -3   6   10.59   25.70
   2   3  -6   30.19   19.95
  -2  -3   6  -38.73   18.87
   2   3  -6  -23.84   18.69
  -2  -3   6  -39.11   23.02
   2   3  -6   11.83   22.21
  -2  -3   6  -17.01   19.03
  -2  -3   6   19.31   21.35
  -2  -3   6    1.51   22.98
   1   3  -6   54.48   18.45
  -1  -3   6   54.11   23.93
   1   3  -6   24.59   20.45
  -1  -3   6   60.48   20.71
  -1  -3   6   16.65   22.37
   1   3  -6   35.29   21.15
  -1  -3   6   37.30   21.00
  -1  -3   6   50.74   24.71
  -1  -3   6   11.08   20.63
   0  -3   6 1110.19   62.83
   0  -3   6 1264.19   73.25
   0   3  -6 1286.76   64.35
   0   3  -6 1202.94   72.54
   0  -3   6 1325.46   66.84
   0  -3   6 1180.07   66.34
   0  -3   6 1200.42   68.15
   0  -3   6 1113.53   64.64
   0   3  -6 1131.04   61.85
   0   3  -6 1159.93   61.86
   1  -3   6  598.84   40.85
   1  -3   6  508.89   37.95
   1  -3   6  530.85   47.49
   1  -3   6  474.95   40.80
  -1   3  -6  500.08   35.28
  -1   3  -6  523.89   35.24
  -1   3  -6  570.36   40.20
   1  -3   6  561.87   39.75
   1  -3   6  599.47   40.59
  -2   3  -6   26.78   18.63
   2  -3   6   55.79   19.70
   2  -3   6   60.20   18.75
   2  -3   6   45.77   16.88
   2  -3   6    9.35   17.60
  -2   3  -6   37.78   11.71
   2  -3   6   37.04   19.61
   2  -3   6   49.25   24.34
   3  -3   6  191.10   23.91
   3  -3   6  149.11   25.32
  -3   3  -6  185.02   29.92
   3  -3   6  160.35   32.78
   3  -3   6  193.23   25.30
   3  -3   6  214.54   25.76
   4  -3   6  466.41   37.38
   4  -3   6  430.41   37.79
   4  -3   6  456.53   37.97
   4  -3   6  478.60   38.66
   5  -3   6  338.59   43.46
   5  -3   6  344.74   35.20
   5  -3   6  403.36   34.37
   5  -3   6  404.97   35.49
   5  -3   6  325.74   34.63
   5  -3   6  295.11   32.79
   6  -3   6  118.70   27.34
   6  -3   6   63.93   31.68
   6  -3   6   75.67   27.04
   6  -3   6  110.90   27.14
   6  -3   6   95.58   24.78
  -5  -2   6  282.58   45.06
   5   2  -6  389.59   44.95
   5   2  -6  425.21   49.96
  -5  -2   6  304.87   41.79
  -5  -2   6  389.37   53.58
   5   2  -6  285.37   43.69
   5   2  -6  422.56   47.88
  -4  -2   6   37.97   30.98
   4   2  -6   10.11   22.82
  -4  -2   6   25.58   25.32
   4   2  -6   46.34   25.71
  -4  -2   6   27.97   24.05
   4   2  -6   -1.52   24.02
  -4  -2   6   28.70   25.60
   3   2  -6   46.51   26.56
  -3  -2   6    3.06   21.60
  -3  -2   6   49.01   25.90
  -3  -2   6   49.45   19.76
   3   2  -6   44.80   23.26
  -3  -2   6    0.28   22.07
  -3  -2   6  -13.24   25.77
  -3  -2   6    4.58   28.70
  -2  -2   6    9.65   22.77
  -2  -2   6   -6.47   16.39
  -2  -2   6   -5.72   18.16
  -2  -2   6    2.91   22.59
   2   2  -6  -37.97   18.70
  -2  -2   6   28.17   25.72
  -2  -2   6   12.07   18.98
   2   2  -6  -17.62   17.51
   2   2  -6   -6.13   18.20
  -1  -2   6 1170.30   62.01
   1   2  -6 1097.00   57.39
   1   2  -6 1189.84   63.60
   1   2  -6 1071.22   59.96
   1   2  -6 1238.29   65.22
   1   2  -6 1103.30   67.59
  -1  -2   6 1252.09   66.54
  -1  -2   6 1072.90   66.57
  -1  -2   6 1284.70   67.44
  -1  -2   6 1187.74   69.32
  -1  -2   6 1104.27   62.89
   0   2  -6   65.30   16.74
   0  -2   6   80.90   19.08
   0   2  -6   68.27   17.14
   0   2  -6   42.65   15.69
   0   2  -6   62.32   22.02
   0  -2   6   57.74   19.81
   0  -2   6   72.80   20.77
   0  -2   6   48.84   21.36
   0  -2   6   48.12   18.04
   0  -2   6   -1.70   14.45
   1  -2   6  347.81   36.96
   1  -2   6  400.05   31.96
  -1   2  -6  331.25   28.73
  -1   2  -6  336.71   23.49
   1  -2   6  366.42   29.80
   1  -2   6  341.26   28.26
   1  -2   6  301.35   26.91
  -1   2  -6  312.16   23.67
   1  -2   6  356.56   29.24
  -1   2  -6  324.41   24.27
   1  -2   6  340.16   30.55
   2  -2   6    7.24   14.79
   2  -2   6   22.12   16.04
  -2   2  -6   43.29   16.71
   2  -2   6   22.10   14.84
   2  -2   6   71.59   17.21
   2  -2   6   35.81   15.05
   2  -2   6   35.29   14.10
   2  -2   6   15.26   20.83
   3  -2   6 1113.47   55.42
  -3   2  -6 1221.48   62.11
   3  -2   6 1064.51   53.45
   3  -2   6 1124.89   52.64
   3  -2   6 1192.76   68.96
   3  -2   6 1167.23   56.77
   3  -2   6  841.37   55.52
   3  -2   6 1075.14   56.07
   4  -2   6   31.49   14.61
   4  -2   6   19.38   16.74
   4  -2   6   24.86   15.33
   4  -2   6   25.00   17.02
   4  -2   6   58.69   23.73
   5  -2   6   90.05   22.26
   5  -2   6  116.89   19.46
   5  -2   6  127.66   22.88
   5  -2   6   97.35   28.75
   5  -2   6  102.83   21.58
   5  -2   6  109.81   20.32
   6  -2   6   77.25   23.61
   6  -2   6   69.40   27.18
   6  -2   6   80.53   22.75
   6  -2   6   69.73   20.24
   6  -2   6   78.80   23.19
   7  -2   6  269.83   35.07
   7  -2   6  329.25   38.81
   7  -2   6  310.01   37.50
   7  -2   6  315.31   33.83
   7  -2   6  325.82   46.08
   5   1  -6  140.23   37.10
  -5  -1   6  223.28   39.34
  -5  -1   6  206.02   44.28
   5   1  -6  212.70   36.82
   5   1  -6  150.22   35.37
  -5  -1   6  210.22   36.37
   5   1  -6  227.01   41.47
  -4  -1   6  140.61   32.96
  -4  -1   6  237.47   41.46
   4   1  -6  200.63   33.21
   4   1  -6  181.06   35.70
   4   1  -6  217.49   34.85
   4   1  -6  180.33   32.97
  -4  -1   6  123.33   29.79
  -4  -1   6  219.87   34.35
  -3  -1   6  268.20   35.49
   3   1  -6  324.74   39.92
   3   1  -6  372.65   39.94
  -3  -1   6  192.39   35.51
   3   1  -6  297.26   34.99
  -3  -1   6  327.25   35.67
  -3  -1   6  345.36   41.29
  -3  -1   6  316.54   28.51
  -3  -1   6  379.12   43.78
  -2  -1   6  558.70   47.55
   2   1  -6  526.66   38.43
   2   1  -6  592.33   42.11
  -2  -1   6  525.36   45.32
  -2  -1   6  590.23   49.14
  -2  -1   6  569.49   33.26
  -2  -1   6  554.48   42.68
   2   1  -6  557.07   45.80
  -2  -1   6  504.33   40.40
   2   1  -6  571.06   44.64
   2   1  -6  532.61   44.63
   1   1  -6  106.28   20.52
  -1  -1   6  112.36   23.50
   1   1  -6   49.20   17.67
  -1  -1   6   71.48   18.39
  -1  -1   6   81.80   19.67
   1   1  -6   94.84   16.47
   1   1  -6   76.84   19.86
  -1  -1   6  106.64   23.16
   1   1  -6  121.98   24.26
  -1  -1   6   91.61   23.43
  -1  -1   6   71.81   22.34
   0  -1   6  118.03   21.35
   0   1  -6  113.41   22.25
   0  -1   6   56.97   18.45
   0  -1   6   95.49   17.85
   0  -1   6  100.15   18.75
   0   1  -6   95.36   16.81
   0  -1   6   93.85   22.53
   0   1  -6   82.69   14.39
   0  -1   6   87.43   18.25
   0  -1   6  113.66   17.78
   1  -1   6  589.39   34.10
  -1   1  -6  628.85   42.88
   1  -1   6  599.03   44.02
   1  -1   6  598.49   35.96
   1  -1   6  546.25   32.17
   1  -1   6  527.68   33.89
  -1   1  -6  580.26   33.73
   1  -1   6  534.08   36.29
   1  -1   6  541.73   35.51
   2  -1   6  594.09   34.34
   2  -1   6  647.20   34.64
  -2   1  -6  673.60   39.04
   2  -1   6  637.76   44.86
   2  -1   6  589.64   35.34
   3  -1   6  180.24   28.49
   3  -1   6  226.59   20.23
   3  -1   6  224.53   35.26
   3  -1   6  191.79   25.97
   3  -1   6  197.25   18.89
   3  -1   6  174.37   18.92
   3  -1   6  210.71   18.06
   4  -1   6   53.68   13.62
   4  -1   6   48.45   14.97
   4  -1   6   41.48   13.41
   4  -1   6   51.11   21.40
   4  -1   6   27.50   14.20
   5  -1   6  414.00   32.97
   5  -1   6  434.54   32.53
   5  -1   6  392.91   30.12
   5  -1   6  429.27   31.06
   5  -1   6  489.68   42.97
   6  -1   6  184.22   22.99
   6  -1   6  176.42   25.40
   6  -1   6  171.23   24.88
   6  -1   6  189.30   33.08
   7  -1   6   45.14   19.95
   7  -1   6   80.89   24.64
   7  -1   6   86.72   29.79
   7  -1   6   73.98   24.01
   7  -1   6   72.06   22.17
   5   0  -6    4.84   25.54
   5   0  -6   -1.88   29.28
  -5   0   6  -11.46   28.50
  -5   0   6    9.45   25.52
  -5   0   6   -6.52   31.69
   5   0  -6   -8.54   26.46
   5   0  -6    3.24   29.60
  -4   0   6  249.23   35.79
  -4   0   6  320.70   38.18
   4   0  -6  316.51   39.91
  -4   0   6  237.27   42.24
   4   0  -6  304.96   38.23
   4   0  -6  304.89   40.90
   4   0  -6  230.62   35.48
  -3   0   6  -40.31   24.07
  -3   0   6   10.24   26.69
   3   0  -6    3.27   19.52
   3   0  -6  -38.16   22.51
   3   0  -6    9.38   24.61
  -3   0   6   14.94   20.98
  -3   0   6    4.19   21.29
  -3   0   6   27.01   22.14
  -2   0   6 2149.52  108.55
   2   0  -6 2423.48  114.49
   2   0  -6 2262.86  105.32
  -2   0   6 2171.85  106.42
   2   0  -6 2364.93  110.76
  -2   0   6 2175.06  113.45
  -2   0   6 2614.98  113.22
   2   0  -6 2391.39  113.65
  -2   0   6 2251.97  113.01
   2   0  -6 2291.57  107.55
  -2   0   6 2400.91  106.91
   1   0  -6   22.72   13.07
   1   0  -6    7.42   17.55
  -1   0   6   14.79   16.65
  -1   0   6   42.81   16.82
   1   0  -6   22.70   17.18
   1   0  -6   28.25   17.12
   1   0  -6    6.70   14.92
  -1   0   6   27.21   18.59
   1   0  -6   25.02   19.38
  -1   0   6   36.78   21.20
  -1   0   6   19.13   17.55
  -1   0   6   -0.98   16.39
  -1   0   6   23.40   15.95
   0   0  -6   59.97   13.94
   0   0   6   75.55   17.63
   0   0   6   82.27   21.28
   0   0   6  114.12   20.13
   0   0   6   73.21   16.13
   0   0  -6   61.58   18.96
   0   0   6   84.80   17.22
   0   0   6   86.31   20.46
   0   0   6   76.10   17.66
   0   0  -6   78.82   11.27
   0   0   6   80.03   15.51
   0   0  -6   71.30   14.40
   0   0  -6   85.04   22.40
  -1   0  -6  318.65   30.12
   1   0   6  362.54   34.82
   1   0   6  307.89   31.23
  -1   0  -6  311.40   22.16
   1   0   6  298.32   23.95
   1   0   6  284.65   20.02
   1   0   6  309.13   25.77
   1   0   6  318.19   23.38
   1   0   6  288.24   22.33
   1   0   6  333.22   24.66
   2   0   6 1028.37   56.12
   2   0   6  965.14   44.96
   2   0   6  908.61   59.92
   2   0   6  942.84   48.47
   2   0   6  992.78   44.26
   2   0   6  911.30   44.04
   3   0   6  202.35   27.22
   3   0   6  131.14   29.33
   3   0   6  163.22   21.85
   4   0   6   77.83   20.79
   5   0   6  159.25   27.67
   5   0   6  189.47   17.78
   5   0   6  144.72   18.61
   6   0   6  769.40   41.88
   6   0   6  734.10   42.66
   6   0   6  753.50   44.28
   6   0   6  606.51   53.90
   7   0   6   -8.34   18.30
   7   0   6   10.47   19.58
   7   0   6   25.75   25.10
   7   0   6   -1.15   15.40
  -5   1   6   99.64   31.12
   5  -1  -6   35.97   29.70
   5  -1  -6  101.65   34.45
  -5   1   6   81.43   32.10
  -5   1   6   52.19   37.43
   5  -1  -6   78.21   33.34
   5  -1  -6   17.48   28.51
   5  -1  -6   66.27   20.76
  -4   1   6  546.34   51.69
  -4   1   6  760.80   62.74
   4  -1  -6  549.06   51.97
  -4   1   6  653.47   49.04
   4  -1  -6  653.45   51.85
   4  -1  -6  721.52   56.51
   4  -1  -6  515.37   49.96
  -3   1   6  350.68   42.44
  -3   1   6  430.22   42.44
  -3   1   6  460.62   48.90
   3  -1  -6  500.85   46.42
   3  -1  -6  443.82   44.78
   3  -1  -6  500.34   43.09
  -3   1   6  535.93   48.63
  -3   1   6  443.58   40.93
   2  -1  -6  107.75   27.30
   2  -1  -6   95.95   23.71
   2  -1  -6   70.70   20.79
  -2   1   6  139.13   19.48
  -2   1   6   87.84   23.91
   2  -1  -6  117.63   25.78
  -2   1   6   83.08   23.74
  -2   1   6  126.23   30.93
   2  -1  -6   52.93   23.73
  -2   1   6  121.07   24.54
  -2   1   6   90.06   26.33
   1  -1  -6   13.25   14.70
  -1   1   6   24.77   16.44
  -1   1   6   12.26   15.64
   1  -1  -6   14.48   16.50
   1  -1  -6   19.04   16.49
   1  -1  -6   28.11   13.65
  -1   1   6   16.26   19.30
  -1   1   6   23.25   17.16
   1  -1  -6   27.75   19.35
  -1   1   6   10.43   18.56
  -1   1   6   -6.73   17.98
  -1   1   6   17.07   14.43
   1  -1  -6   13.35   16.31
   0  -1  -6 1047.37   50.68
   0  -1  -6 1131.03   62.94
   0   1   6 1168.62   57.17
   0  -1  -6 1150.24   59.93
   0   1   6 1014.05   59.79
   0   1   6 1042.11   54.61
   0   1   6  981.08   52.55
   0   1   6 1082.93   58.94
   0  -1  -6 1063.45   52.53
   0   1   6 1153.04   57.82
   0   1   6 1098.30   58.84
   0   1   6 1198.47   56.98
   1   1   6 1666.04   78.99
  -1  -1  -6 1616.26   82.85
   1   1   6 1655.65   73.97
   1   1   6 1606.17   83.91
   1   1   6 1628.67   74.06
   1   1   6 1709.24   73.32
  -1  -1  -6 1684.00   79.34
   1   1   6 1506.52   71.57
   2   1   6  165.62   24.57
   2   1   6  118.72   16.01
   2   1   6  137.46   21.37
   2   1   6  120.26   24.87
   3   1   6  393.44   33.89
   3   1   6  366.67   38.70
   3   1   6  388.81   29.97
   4   1   6  423.22   35.12
   5   1   6  530.65   42.31
   6   1   6  259.64   25.17
   6   1   6  226.62   34.23
   6   1   6  259.21   22.35
   6   1   6  236.97   23.58
   6   1   6  274.78   23.91
   7   1   6   12.30   19.80
   7   1   6  -24.66   22.09
   7   1   6   23.47   17.32
   7   1   6   35.13   19.10
   8   1   6  105.07   36.32
   8   1   6   72.42   22.34
   8   1   6   65.07   24.37
   8   1   6  127.61   29.75
   8   1   6   68.14   21.12
   5  -2  -6  352.05   49.29
  -5   2   6  392.69   46.44
   5  -2  -6  517.50   53.21
   5  -2  -6  347.97   47.69
  -5   2   6  372.17   47.97
  -5   2   6  398.24   57.01
   5  -2  -6  427.19   35.53
   5  -2  -6  343.56   45.43
   4  -2  -6   14.42   24.86
  -4   2   6    8.50   24.51
   4  -2  -6    2.30   15.06
  -4   2   6   19.25   30.68
   4  -2  -6   37.07   27.49
   4  -2  -6   20.11   25.82
   4  -2  -6   -4.03   22.79
  -4   2   6   20.81   24.10
   3  -2  -6   13.72   24.84
   3  -2  -6  -11.69   22.02
  -3   2   6   16.38   29.08
   3  -2  -6    5.50   21.72
  -3   2   6   -2.28   21.06
  -3   2   6    7.14   21.87
  -3   2   6   10.50   25.67
   2  -2  -6  684.78   50.90
  -2   2   6  688.30   48.94
  -2   2   6  706.14   52.26
   2  -2  -6  638.55   48.34
   2  -2  -6  609.86   43.00
  -2   2   6  643.09   47.50
  -2   2   6  616.87   52.44
   2  -2  -6  602.57   44.80
  -2   2   6  589.98   43.60
   2  -2  -6  661.09   47.26
  -1   2   6  460.20   35.21
   1  -2  -6  436.40   30.48
  -1   2   6  526.83   35.53
  -1   2   6  302.62   37.64
   1  -2  -6  507.98   34.79
  -1   2   6  499.48   37.89
   1  -2  -6  545.42   38.56
  -1   2   6  521.45   40.63
   1  -2  -6  491.83   41.24
   1  -2  -6  535.70   38.06
  -1   2   6  493.96   36.64
   1  -2  -6  460.56   36.66
  -1   2   6  502.17   40.32
   0   2   6   42.25   16.27
   0  -2  -6   49.31   16.49
   0  -2  -6   27.07   13.24
   0  -2  -6   33.23   19.40
   0   2   6   46.74   17.80
   0   2   6   70.50   18.61
   0   2   6   41.58   16.86
   0   2   6   31.55   16.58
   0   2   6   22.88   14.12
   0   2   6   26.86   13.12
   0   2   6   37.00   17.65
   0  -2  -6   75.85   14.32
   0  -2  -6   34.37   18.89
   1   2   6  743.26   39.44
   1   2   6  734.59   41.39
   1   2   6  742.03   38.43
  -1  -2  -6  744.30   48.45
   1   2   6  706.47   40.35
   1   2   6  751.52   48.31
   1   2   6  753.84   40.54
  -1  -2  -6  821.83   43.04
   1   2   6  657.04   35.85
   1   2   6  751.35   42.43
  -1  -2  -6  706.92   49.26
   1   2   6  765.98   38.77
   2   2   6  418.57   29.94
   2   2   6  426.06   37.80
   2   2   6  391.84   24.10
   2   2   6  381.77   30.69
  -2  -2  -6  399.10   34.35
   2   2   6  461.72   37.29
   2   2   6  409.04   24.70
  -2  -2  -6  474.98   40.31
   2   2   6  390.74   22.76
   3   2   6 1380.09   72.61
  -3  -2  -6 1407.16   79.13
   3   2   6 1337.45   77.30
   3   2   6 1431.01   68.66
  -4  -2  -6   95.72   27.71
   4   2   6  113.55   23.64
   5   2   6  475.67   41.06
  -5  -2  -6  509.45   51.31
   6   2   6   58.72   15.21
   6   2   6   31.54   28.43
   6   2   6   30.82   16.39
   7   2   6  283.48   29.23
   7   2   6  257.01   27.73
   7   2   6  264.08   44.53
   8   2   6   42.94   19.27
   8   2   6   59.22   24.12
   8   2   6   78.53   28.76
   8   2   6   99.21   38.14
   8   2   6   51.18   19.66
   4  -3  -6  254.67   39.03
   4  -3  -6  206.43   36.17
   4  -3  -6  211.68   36.58
   4  -3  -6  244.90   25.30
  -4   3   6  190.16   36.68
  -4   3   6  220.86   35.71
   4  -3  -6  233.93   40.14
  -4   3   6  270.62   46.85
  -3   3   6   14.13   23.24
   3  -3  -6   24.07   23.37
  -3   3   6  -11.92   21.41
  -3   3   6   18.60   29.49
   3  -3  -6    1.41   22.14
   3  -3  -6    4.15   24.13
   2  -3  -6   38.42   20.96
  -2   3   6   51.41   27.55
   2  -3  -6   18.23   20.11
   2  -3  -6   37.70   21.65
   2  -3  -6   23.31   22.88
  -2   3   6   18.62   20.62
  -2   3   6   24.71   26.50
   2  -3  -6   10.51   22.21
   2  -3  -6    8.46   17.58
  -2   3   6   16.81   20.14
   1  -3  -6  551.38   37.74
   1  -3  -6  550.84   38.94
  -1   3   6  572.29   45.93
   1  -3  -6  567.69   40.69
   1  -3  -6  528.95   45.46
   1  -3  -6  557.81   42.10
  -1   3   6  539.14   43.09
   1  -3  -6  540.08   35.22
   1  -3  -6  529.18   40.08
  -1   3   6  512.11   40.18
  -1   3   6  560.65   47.06
  -1   3   6  469.99   37.28
   0  -3  -6  579.63   36.61
   0   3   6  602.36   42.05
   0  -3  -6  502.15   34.80
   0  -3  -6  533.14   42.89
   0   3   6  557.59   37.57
   0  -3  -6  518.32   33.07
   0  -3  -6  529.24   40.93
   0   3   6  486.17   38.01
   0   3   6  521.66   34.62
   0   3   6  572.54   36.13
   0   3   6  545.48   39.94
   1   3   6 1325.74   62.44
   1   3   6 1210.96   58.92
  -1  -3  -6 1223.54   68.77
   1   3   6 1306.15   64.93
   1   3   6 1274.74   61.29
  -1  -3  -6 1224.50   70.41
  -1  -3  -6 1325.15   62.11
   1   3   6 1330.39   64.43
   1   3   6 1295.02   61.47
   1   3   6 1343.63   70.38
   1   3   6 1333.14   64.49
   1   3   6 1245.75   60.39
   2   3   6  152.13   25.24
   2   3   6  114.48   16.12
  -2  -3  -6  147.44   27.33
   2   3   6  136.87   16.39
   2   3   6  123.81   16.24
   2   3   6  131.60   17.32
   2   3   6  126.46   17.11
   2   3   6  125.54   19.30
  -2  -3  -6  140.53   23.28
   3   3   6  969.77   49.00
  -3  -3  -6  976.81   56.39
   3   3   6 1018.05   62.63
   3   3   6  930.06   55.79
   3   3   6 1052.07   58.62
  -3  -3  -6  947.39   62.70
   4   3   6    7.47   19.04
  -4  -3  -6    2.30   22.08
   4   3   6   -6.15   17.37
   5   3   6  264.48   38.35
  -5  -3  -6  391.85   44.81
   5   3   6  422.18   35.87
   6   3   6  -18.94   13.00
   6   3   6  -14.42   15.30
   6   3   6    5.48   13.99
   6   3   6   -6.93   14.77
   6   3   6  -19.98   23.27
   6   3   6   18.53   20.60
  -6  -3  -6    0.30   27.75
   7   3   6  184.70   39.37
  -7  -3  -6  204.35   42.69
   7   3   6  132.83   23.26
   7   3   6  240.30   28.65
   7   3   6  187.01   25.50
   8   3   6   -1.06   21.26
   8   3   6   21.17   25.97
   8   3   6   17.77   18.57
   8   3   6    3.00   18.17
   8   3   6    1.20   29.56
  -4   4   6  165.97   41.73
   4  -4  -6   83.20   33.19
  -4   4   6  101.37   32.61
   4  -4  -6   97.98   30.30
  -4   4   6  132.55   34.23
   4  -4  -6   96.59   32.24
   4  -4  -6  117.87   35.75
   3  -4  -6   97.55   31.06
   3  -4  -6  101.88   31.25
  -3   4   6  137.20   29.43
   3  -4  -6  120.00   19.98
  -3   4   6  143.56   36.59
   3  -4  -6   87.01   28.08
  -3   4   6   84.03   28.26
   2  -4  -6  765.47   54.14
   2  -4  -6  766.55   57.09
  -2   4   6  774.54   62.10
   2  -4  -6  851.71   52.01
  -2   4   6  911.65   63.53
   2  -4  -6  759.08   52.78
  -2   4   6  708.22   54.54
  -2   4   6  708.19   51.76
   2  -4  -6  798.12   60.57
   2  -4  -6  880.73   50.40
  -1   4   6  117.60   26.18
   1  -4  -6  165.31   30.41
  -1   4   6  152.06   32.08
   1  -4  -6  131.90   28.14
  -1   4   6  187.20   32.97
   1  -4  -6  153.61   24.12
   1  -4  -6  149.02   25.19
  -1   4   6  141.83   25.27
  -1   4   6  159.45   31.53
   1  -4  -6  153.00   26.72
   1  -4  -6  144.97   26.42
   1  -4  -6  153.86   22.84
   0  -4  -6   37.07   15.40
   0   4   6   13.65   19.32
   0   4   6   32.47   16.99
   0   4   6   31.78   21.29
   0  -4  -6   28.83   16.59
   0  -4  -6   48.30   22.50
   0  -4  -6    7.21   20.77
   0  -4  -6   23.40   15.64
   0  -4  -6   45.48   12.56
   0  -4  -6   31.71   17.46
   0   4   6  -11.06   19.50
   0   4   6   10.34   17.50
  -1  -4  -6  229.62   30.24
  -1  -4  -6  208.32   28.66
   1   4   6  162.25   24.78
   1   4   6  196.43   23.01
   1   4   6  212.66   27.56
  -1  -4  -6  193.83   18.21
   1   4   6  142.49   23.17
  -1  -4  -6  179.20   18.15
   1   4   6  159.56   20.50
  -1  -4  -6  208.15   19.84
   2   4   6 1393.99   69.39
  -2  -4  -6 1369.37   77.40
   2   4   6 1251.82   61.23
   2   4   6 1273.58   65.65
   2   4   6 1388.37   63.29
  -2  -4  -6 1400.88   72.50
   2   4   6 1407.85   67.73
   2   4   6 1436.22   66.59
   2   4   6 1345.40   65.00
   3   4   6  291.35   23.43
   3   4   6  281.32   24.00
   3   4   6  286.79   25.26
  -3  -4  -6  285.16   35.64
   3   4   6  318.42   25.21
   3   4   6  356.20   33.49
  -3  -4  -6  300.44   31.62
   3   4   6  302.29   32.21
   4   4   6   80.81   22.36
  -4  -4  -6  185.13   32.19
   4   4   6   99.39   16.86
   4   4   6  104.84   16.73
   4   4   6   64.28   15.36
   4   4   6  113.17   17.65
   4   4   6  138.00   26.93
   4   4   6  118.91   16.52
  -4  -4  -6   62.05   22.60
   5   4   6  290.12   37.60
   5   4   6  257.30   23.69
   5   4   6  289.23   23.73
  -5  -4  -6  304.66   40.07
   5   4   6  258.74   24.70
   5   4   6  347.47   31.99
   5   4   6  236.01   23.01
  -6  -4  -6  183.61   37.24
   6   4   6  190.83   26.46
   6   4   6  128.19   21.02
   6   4   6  185.28   22.26
   6   4   6  171.58   34.89
   6   4   6  110.20   21.47
  -7  -4  -6   55.69   33.17
   7   4   6   21.25   30.04
   7   4   6  -31.28   19.54
   7   4   6   13.26   15.53
   7   4   6   17.39   15.44
   7   4   6   35.22   18.69
   7   4   6   19.77   18.77
   8   4   6   47.77   24.25
   8   4   6   65.39   21.95
   8   4   6   53.24   28.60
   8   4   6   93.19   23.50
   8   4   6   48.47   33.10
  -8  -4  -6  107.67   40.76
   4  -5  -6  263.13   44.56
   4  -5  -6  239.42   41.46
   3  -5  -6   71.20   29.83
   3  -5  -6  173.06   36.57
  -3   5   6  132.49   31.93
  -3   5   6  208.28   36.81
   3  -5  -6  114.74   30.27
   3  -5  -6  181.62   25.71
  -3   5   6  129.05   39.62
   2  -5  -6  425.60   43.75
   2  -5  -6  302.46   42.44
  -2   5   6  361.12   45.58
  -2   5   6  361.71   41.90
   2  -5  -6  393.58   38.60
   2  -5  -6  360.69   38.07
   2  -5  -6  406.49   35.68
   2  -5  -6  379.50   38.07
  -2   5   6  288.86   37.61
   2  -5  -6  287.10   25.47
  -2   5   6  385.86   47.91
  -1   5   6  166.40   33.54
   1  -5  -6  145.82   24.44
   1  -5  -6  142.83   32.51
   1  -5  -6   90.51   24.96
  -1   5   6  139.38   29.83
  -1   5   6  106.41   33.61
   1  -5  -6  142.49   29.02
  -1   5   6  148.98   28.07
   1  -5  -6  137.77   29.64
   1  -5  -6  136.51   23.23
   1  -5  -6  142.74   19.21
   0  -5  -6  727.11   39.83
   0   5   6  748.10   52.14
   0  -5  -6  701.83   41.73
   0   5   6  690.75   52.49
   0  -5  -6  620.62   53.74
   0  -5  -6  757.68   47.87
   0  -5  -6  788.08   49.54
   0   5   6  762.15   38.40
   0   5   6  620.94   45.76
   0  -5  -6  757.71   52.00
   0   5   6  749.55   55.68
   0  -5  -6  808.47   42.69
   0   5   6  677.91   49.19
   0  -5  -6  764.00   46.65
   1   5   6  451.66   36.91
   1   5   6  440.07   34.15
  -1  -5  -6  454.86   27.39
  -1  -5  -6  446.62   32.77
   1   5   6  452.42   40.92
  -1  -5  -6  390.69   31.89
  -1  -5  -6  456.73   42.72
   1   5   6  503.27   39.11
  -1  -5  -6  417.92   30.49
   1   5   6  437.86   39.22
  -1  -5  -6  488.74   41.81
  -2  -5  -6    3.57   17.02
   2   5   6   37.25   16.84
  -2  -5  -6   28.07   23.59
   2   5   6   25.97   14.82
   2   5   6  -10.71   15.91
   2   5   6   32.43   18.26
   2   5   6   27.61   19.88
  -2  -5  -6   12.70   20.53
  -3  -5  -6  390.35   34.94
  -3  -5  -6  297.09   37.63
   3   5   6  362.74   31.45
   3   5   6  335.63   30.12
   3   5   6  333.81   29.53
   3   5   6  325.31   27.42
   3   5   6  302.82   25.26
   3   5   6  321.91   35.99
   4   5   6  147.91   19.12
   4   5   6  188.04   22.13
  -4  -5  -6  129.37   25.49
   4   5   6  165.36   22.52
   4   5   6  161.90   30.62
   4   5   6  157.90   23.40
   4   5   6  191.20   28.51
  -4  -5  -6  160.69   32.71
   5   5   6  170.22   27.07
   5   5   6  134.98   18.98
   5   5   6  157.53   22.31
  -5  -5  -6   96.86   32.75
   5   5   6  170.19   23.38
   5   5   6  145.21   19.15
   5   5   6  158.43   24.21
   5   5   6  194.71   33.24
   6   5   6  570.13   55.55
   6   5   6  618.59   41.04
   6   5   6  640.10   42.77
   6   5   6  573.17   39.71
   6   5   6  519.74   35.59
   6   5   6  599.70   40.71
   6   5   6  572.48   41.32
  -7  -5  -6   12.24   29.61
   7   5   6   14.63   23.51
   7   5   6  -13.53   18.23
   7   5   6   52.21   23.17
   7   5   6   12.36   18.43
   7   5   6   11.51   16.46
   7   5   6  -16.30   27.56
   3  -6  -6   77.93   35.48
  -3   6   6  140.37   40.84
   3  -6  -6   88.88   25.93
  -3   6   6   89.83   32.01
   3  -6  -6   43.37   31.05
  -3   6   6  111.30   31.68
   3  -6  -6   81.56   30.83
   2  -6  -6  183.84   32.90
  -2   6   6  179.19   34.11
   2  -6  -6  146.78   31.47
   2  -6  -6  250.53   34.40
   2  -6  -6  198.73   38.04
  -2   6   6  208.16   42.55
  -2   6   6  263.49   37.91
   2  -6  -6  182.60   26.08
   2  -6  -6  244.12   41.15
   2  -6  -6  211.31   31.97
   1  -6  -6  396.48   40.29
   1  -6  -6  336.75   43.79
   1  -6  -6  373.48   35.62
  -1   6   6  409.65   40.67
  -1   6   6  506.53   49.85
   1  -6  -6  416.65   40.32
  -1   6   6  307.01   39.89
   1  -6  -6  403.91   41.70
   1  -6  -6  403.06   37.43
   1  -6  -6  333.32   32.59
  -1   6   6  421.74   45.66
  -1   6   6  434.30   33.20
   0   6   6   17.25   21.54
   0  -6  -6  -15.84   23.96
   0  -6  -6   -3.73   19.53
   0   6   6    4.35   26.15
   0  -6  -6  -14.83   16.73
   0  -6  -6   21.01   17.06
   0  -6  -6    4.53   26.12
   0  -6  -6    2.65   19.76
   0   6   6  -10.37   19.70
   0   6   6   21.24   17.71
   0   6   6    2.38   24.69
   0  -6  -6   21.45   15.71
   1   6   6   42.51   22.19
  -1  -6  -6    6.44   17.99
   1   6   6   49.24   23.20
   1   6   6   18.35   25.93
  -1  -6  -6   14.40   17.62
   1   6   6   15.37   22.75
  -1  -6  -6   37.90   26.86
  -1  -6  -6   12.78   25.27
   1   6   6   30.51   20.62
  -1  -6  -6   15.07   18.16
  -2  -6  -6  429.83   31.46
  -2  -6  -6  467.43   42.73
  -2  -6  -6  475.14   31.36
   2   6   6  458.64   39.51
   2   6   6  510.01   42.10
  -2  -6  -6  479.28   47.22
   2   6   6  417.28   35.74
   2   6   6  480.39   41.01
   2   6   6  492.73   43.78
  -2  -6  -6  514.66   40.11
   3   6   6  356.71   31.42
  -3  -6  -6  289.64   39.76
  -3  -6  -6  283.84   33.99
   3   6   6  306.70   34.02
   3   6   6  252.35   33.23
   3   6   6  303.69   31.88
   3   6   6  305.41   31.84
   4   6   6   68.99   23.52
  -4  -6  -6   59.61   31.44
  -4  -6  -6   46.33   23.44
   4   6   6   64.39   19.53
   4   6   6   46.50   19.18
   4   6   6   18.01   21.32
   4   6   6  101.03   23.09
   4   6   6   -8.03   24.47
   5   6   6   68.34   21.50
   5   6   6   80.35   20.36
   5   6   6  122.90   24.25
  -5  -6  -6  113.00   23.45
   5   6   6  102.62   30.88
   5   6   6   59.66   19.64
  -5  -6  -6  114.05   32.13
   6   6   6  275.94   29.03
   6   6   6  345.55   36.73
   6   6   6  272.70   24.95
   6   6   6  261.19   28.44
   6   6   6  300.58   45.24
  -6  -6  -6  295.31   45.60
   6   6   6  296.53   32.90
   7   6   6  114.12   24.46
   7   6   6   51.31   33.50
  -7  -6  -6  192.26   41.13
   7   6   6  100.02   30.44
   7   6   6   78.85   25.76
   7   6   6   78.80   22.55
  -2   7   6  115.80   35.92
   2  -7  -6   76.08   28.76
   2  -7  -6   11.36   26.79
  -2   7   6   81.69   39.51
  -2   7   6   21.60   30.17
   2  -7  -6  109.40   36.80
   2  -7  -6   70.96   32.66
   1  -7  -6  370.05   42.69
  -1   7   6  418.55   46.17
   1  -7  -6  376.77   44.51
  -1   7   6  383.07   50.55
   1  -7  -6  412.50   44.54
   1  -7  -6  371.31   38.02
  -1   7   6  441.68   35.28
   1  -7  -6  339.31   47.25
  -1   7   6  381.91   43.98
   1  -7  -6  341.62   36.12
   0   7   6  172.73   25.64
   0  -7  -6  157.92   28.82
   0   7   6  191.91   33.87
   0  -7  -6  183.07   30.18
   0   7   6  125.86   30.45
   0   7   6  165.09   35.05
   0  -7  -6  135.97   24.74
   0  -7  -6  224.03   36.07
   0  -7  -6  264.83   40.97
   0   7   6  226.12   39.99
   0  -7  -6  171.35   31.06
   0  -7  -6  152.03   21.63
  -1  -7  -6   42.14   27.30
   1   7   6   73.78   25.43
   1   7   6   75.89   31.11
  -1  -7  -6   27.83   22.36
  -1  -7  -6   55.79   23.05
   1   7   6   48.10   25.60
  -1  -7  -6   74.97   30.68
   1   7   6   47.82   27.33
  -1  -7  -6   49.35   22.02
   2   7   6   52.51   23.81
  -2  -7  -6   68.61   22.49
   2   7   6   83.03   26.50
   2   7   6   66.53   27.54
   2   7   6   73.33   28.07
  -2  -7  -6   18.79   26.02
   2   7   6   46.97   23.55
  -2  -7  -6   62.13   20.38
  -2  -7  -6   59.22   30.69
   3   7   6  395.67   40.31
  -3  -7  -6  578.38   47.75
  -3  -7  -6  539.86   52.64
   3   7   6  543.07   46.98
   3   7   6  510.30   43.41
   3   7   6  471.18   46.93
   3   7   6  545.85   41.50
  -4  -7  -6   -5.52   26.46
  -4  -7  -6    5.54   21.10
   4   7   6  -35.64   19.89
   4   7   6  -25.90   18.33
   4   7   6   15.70   19.26
   4   7   6  -25.38   21.78
   4   7   6  -14.02   19.79
   5   7   6   66.09   23.04
  -5  -7  -6   98.21   35.33
  -5  -7  -6   57.87   23.51
   5   7   6   93.80   32.75
   5   7   6  113.40   25.58
   5   7   6   86.23   24.03
   5   7   6   94.85   28.10
   6   7   6   -8.23   20.98
   6   7   6   31.28   22.23
  -6  -7  -6  -21.44   29.39
   6   7   6  -15.73   27.39
   1  -8  -6   -5.17   25.10
  -1   8   6    0.84   28.41
   1  -8  -6   22.60   34.07
   1  -8  -6  -36.15   28.84
  -1   8   6   31.29   29.47
  -1   8   6  -31.51   29.98
   1  -8  -6   17.28   30.43
   0  -8  -6  -12.07   26.35
   0   8   6   13.80   24.39
   0  -8  -6    7.36   16.93
   0   8   6   15.86   26.72
   0   8   6  -23.95   26.07
   0  -8  -6   64.89   32.19
   0   8   6   -6.16   29.81
   0  -8  -6   22.99   30.70
   0  -8  -6   -7.59   22.15
   1   8   6  301.99   40.84
   1   8   6  413.98   49.83
  -1  -8  -6  389.18   39.47
  -1  -8  -6  323.38   38.57
  -1  -8  -6  396.32   48.05
  -1  -8  -6  573.77   53.08
   1   8   6  350.79   43.72
  -2  -8  -6  340.42   45.00
  -2  -8  -6  245.14   38.67
  -2  -8  -6  215.35   31.04
   2   8   6  224.08   34.03
   2   8   6  208.43   34.38
  -2  -8  -6  293.81   32.04
   2   8   6  245.60   41.57
   3   8   6   97.69   29.24
  -3  -8  -6  116.42   30.95
  -3  -8  -6  107.84   22.48
  -3  -8  -6   98.97   36.21
   3   8   6  118.64   28.68
   3   8   6   99.69   33.58
   4   8   6    2.26   26.78
  -4  -8  -6    4.76   24.29
   4   8   6    5.51   23.14
  -4  -8  -6   71.02   32.89
  -5  -8  -6  112.53   27.88
   5   8   6   68.42   25.58
  -5  -8  -6  115.33   39.72
   5   8   6   86.06   31.41
   5   8   6   87.64   28.32
  -1  -9  -6  -18.52   30.48
  -1  -9  -6  -31.81   33.05
  -1  -9  -6   -6.77   25.53
  -1  -9  -6    2.87   26.58
  -2  -9  -6   63.37   33.91
   2   9   6   36.46   28.99
  -2  -9  -6   45.50   35.98
   2   9   6   43.29   33.41
  -2  -9  -6   39.99   26.54
   2   9   6   77.54   30.79
   3   9   6   65.49   30.38
   3   9   6   44.84   28.14
  -3  -9  -6   51.24   31.42
   3   9   6   32.48   33.47
  -3  -9  -6   38.13   22.82
  -3  -9  -6   32.78   36.61
  -4  -9  -6  273.04   49.00
   4   9   6  266.88   39.05
   4   9   6  302.02   46.51
   4   9   6  252.24   40.13
  -4  -9  -6  313.73   41.25
  -2  -6   7  166.49   39.69
  -2  -6   7  129.16   35.86
  -2  -6   7  127.11   34.35
   1   6  -7  137.39   33.12
  -1  -6   7  163.99   40.14
  -1  -6   7  141.26   34.54
   1   6  -7  159.50   33.70
  -1  -6   7  154.44   34.85
  -1  -6   7  183.13   40.10
   0   6  -7   89.38   30.00
   0  -6   7   98.52   31.63
   0  -6   7  204.00   40.77
   0  -6   7  105.09   30.90
   0   6  -7  143.71   29.54
   0  -6   7   92.23   34.27
   1  -6   7    9.16   29.92
   1  -6   7   -7.75   24.29
  -1   6  -7  -16.37   23.09
  -1   6  -7   28.13   21.53
   1  -6   7  -31.58   24.94
   1  -6   7  -25.42   20.55
  -2   6  -7  288.96   35.01
   2  -6   7  314.89   43.02
   2  -6   7  194.54   38.29
   2  -6   7  235.13   36.96
   2  -6   7  215.86   45.83
   3  -6   7   33.58   32.88
  -3  -5   7  258.59   41.52
  -3  -5   7  303.73   43.38
  -3  -5   7  273.65   48.16
  -3  -5   7  302.19   48.10
   3   5  -7  317.17   43.24
  -2  -5   7   -3.67   28.00
  -2  -5   7   -5.89   24.42
   2   5  -7   -2.59   24.08
  -2  -5   7   11.45   25.51
   2   5  -7   -2.49   24.14
  -2  -5   7   12.98   28.31
   1   5  -7   92.85   27.21
  -1  -5   7   68.25   28.44
  -1  -5   7  121.03   34.10
  -1  -5   7  117.70   29.87
  -1  -5   7  204.92   38.75
   1   5  -7  120.65   29.27
   0  -5   7  191.73   31.86
   0   5  -7  178.05   29.32
   0  -5   7  142.34   31.11
   0  -5   7  151.46   34.53
   0  -5   7  207.94   39.27
   0   5  -7  280.78   33.11
   1  -5   7  378.02   41.14
   1  -5   7  397.63   40.86
   1  -5   7  404.75   50.29
   1  -5   7  381.80   44.23
  -1   5  -7  465.25   40.36
   1  -5   7  448.82   43.31
   2  -5   7   23.30   23.79
   2  -5   7   20.92   23.35
   2  -5   7    1.42   27.01
   2  -5   7   28.38   22.43
  -2   5  -7   12.54   18.64
   3  -5   7   82.40   27.78
   3  -5   7  133.95   30.66
   3  -5   7   42.06   30.51
   3  -5   7   92.19   28.14
   4  -5   7  617.03   62.60
   4  -5   7  499.07   48.23
   4  -5   7  628.56   52.66
   4  -5   7  489.35   50.96
   4   4  -7   73.50   31.61
  -4  -4   7   35.86   33.10
  -3  -4   7  191.23   36.22
   3   4  -7  232.87   37.18
  -3  -4   7  132.31   33.06
  -3  -4   7  240.91   42.66
   3   4  -7  320.49   41.53
  -3  -4   7  211.98   39.69
  -2  -4   7   64.18   25.75
   2   4  -7   94.18   23.95
  -2  -4   7   69.96   27.04
  -2  -4   7   67.82   31.01
   2   4  -7  135.35   29.57
  -2  -4   7   37.79   27.47
  -1  -4   7 1031.31   73.50
   1   4  -7 1167.85   66.13
   1   4  -7 1062.91   58.31
  -1  -4   7 1187.33   70.68
   1   4  -7 1033.47   63.77
  -1  -4   7 1051.18   68.06
  -1  -4   7 1097.16   67.11
  -1  -4   7 1115.60   72.66
   0  -4   7   80.69   23.97
   0  -4   7  159.17   31.45
   0  -4   7  118.66   27.86
   0   4  -7   75.12   23.79
   0   4  -7   98.41   22.42
   0  -4   7   92.06   30.57
   0  -4   7   69.12   25.88
   0   4  -7  122.75   27.08
   0   4  -7  128.81   25.27
   1  -4   7   57.22   22.01
  -1   4  -7   32.11   17.30
  -1   4  -7   49.02   21.18
   1  -4   7   61.17   23.37
   1  -4   7   46.49   25.35
   1  -4   7   69.09   24.96
   1  -4   7   48.18   23.04
   1  -4   7   82.67   30.44
   2  -4   7   74.29   25.48
   2  -4   7   78.35   22.87
   2  -4   7   29.22   20.79
   2  -4   7   76.22   29.92
   2  -4   7   66.71   24.50
   2  -4   7   71.15   22.42
  -2   4  -7   65.12   15.97
   3  -4   7  831.80   54.57
   3  -4   7  848.05   57.03
   3  -4   7  791.66   52.63
   3  -4   7  797.88   54.37
   3  -4   7  760.15   61.97
   3  -4   7  819.58   51.75
   4  -4   7  290.70   45.48
   4  -4   7  414.47   40.12
   4  -4   7  270.26   35.12
   4  -4   7  326.33   36.06
   5  -4   7   24.31   22.24
   5  -4   7   10.91   23.35
   5  -4   7  -23.09   25.79
   5  -4   7   17.80   24.48
   4   3  -7   85.51   31.91
  -4  -3   7   56.56   30.59
  -4  -3   7  108.72   33.68
  -4  -3   7   51.56   28.72
  -4  -3   7  135.02   40.23
   4   3  -7  139.57   34.27
   3   3  -7  209.45   32.04
   3   3  -7  250.65   36.07
   3   3  -7  235.92   36.72
  -3  -3   7  273.15   36.71
  -3  -3   7  243.03   42.03
  -3  -3   7  167.16   33.88
  -3  -3   7  169.60   36.90
  -3  -3   7  193.84   32.21
  -2  -3   7  159.07   34.58
   2   3  -7  174.28   30.81
  -2  -3   7  166.91   29.80
  -2  -3   7  124.01   33.42
  -2  -3   7  110.03   27.61
   2   3  -7  163.57   26.98
  -2  -3   7  157.46   29.13
   2   3  -7  133.88   27.37
  -2  -3   7   97.29   31.53
  -1  -3   7  127.88   31.90
   1   3  -7  228.71   30.24
   1   3  -7  166.23   22.70
  -1  -3   7  151.50   29.06
  -1  -3   7  197.97   34.00
  -1  -3   7  165.58   28.39
  -1  -3   7  172.79   32.85
   1   3  -7  134.88   26.50
   0   3  -7  163.29   25.14
   0  -3   7  145.79   30.65
   0  -3   7  142.73   31.25
   0  -3   7  183.83   28.87
   0  -3   7  170.38   27.85
   0  -3   7  132.47   25.60
   0   3  -7  129.20   25.05
   0  -3   7  153.59   28.66
   0   3  -7  117.53   23.49
  -1   3  -7  364.37   28.71
   1  -3   7  296.62   32.86
  -1   3  -7  386.08   28.99
   1  -3   7  326.25   33.18
   1  -3   7  366.79   34.99
  -1   3  -7  377.61   34.38
   1  -3   7  316.27   34.09
   1  -3   7  420.50   38.63
   1  -3   7  383.03   44.41
  -1   3  -7  341.51   29.07
   2  -3   7  308.91   32.60
   2  -3   7  277.14   29.49
   2  -3   7  252.34   39.19
   2  -3   7  275.49   30.00
   2  -3   7  238.19   28.63
   2  -3   7  191.93   27.16
  -2   3  -7  219.34   30.70
   3  -3   7  155.00   25.50
   3  -3   7  153.89   26.48
   3  -3   7  184.55   25.50
   3  -3   7  260.44   27.39
   3  -3   7  220.74   36.67
   3  -3   7  203.68   27.66
   4  -3   7  128.84   24.05
   4  -3   7   84.55   21.91
   4  -3   7  146.81   25.13
   4  -3   7  131.84   25.76
   4  -3   7  124.68   21.59
   4  -3   7   98.18   32.43
   5  -3   7   68.32   25.22
   5  -3   7   50.13   20.92
   5  -3   7   43.21   19.05
   5  -3   7   49.95   30.42
   5  -3   7   79.64   23.96
   6  -3   7  254.75   43.66
   6  -3   7  148.79   30.14
   6  -3   7  151.05   27.59
   6  -3   7  195.03   30.90
   6  -3   7  186.91   30.55
  -4  -2   7  102.10   30.60
   4   2  -7   85.21   28.87
  -4  -2   7   92.26   32.80
  -4  -2   7   94.02   37.91
  -4  -2   7  147.27   33.96
   4   2  -7  157.19   36.05
   3   2  -7  203.84   32.86
   3   2  -7  197.48   31.39
  -3  -2   7  266.82   35.89
  -3  -2   7  219.09   38.08
  -3  -2   7  273.52   29.39
   3   2  -7  171.00   34.13
  -3  -2   7  291.39   43.37
  -3  -2   7  230.08   33.60
  -2  -2   7  318.68   40.97
  -2  -2   7  296.38   31.47
  -2  -2   7  308.15   42.25
  -2  -2   7  314.32   36.08
  -2  -2   7  308.03   40.81
  -2  -2   7  246.70   33.97
   2   2  -7  364.31   37.07
   2   2  -7  344.99   35.46
   2   2  -7  292.57   30.69
   1   2  -7  379.74   34.63
   1   2  -7  406.15   34.99
  -1  -2   7  414.91   41.05
  -1  -2   7  365.69   40.68
   1   2  -7  454.30   38.08
   1   2  -7  380.94   28.98
  -1  -2   7  292.40   39.26
  -1  -2   7  319.78   35.10
  -1  -2   7  355.63   37.77
  -1  -2   7  342.34   35.08
   0  -2   7   30.11   22.39
   0   2  -7   26.30   16.62
   0  -2   7   55.34   21.65
   0   2  -7   90.35   18.67
   0   2  -7   54.92   19.27
   0  -2   7   87.47   21.01
   0  -2   7   65.25   21.31
   0  -2   7   58.95   25.26
   0  -2   7   75.63   23.95
   1  -2   7  218.50   26.65
   1  -2   7  245.42   29.91
   1  -2   7  257.19   27.99
  -1   2  -7  232.65   19.74
   1  -2   7  290.10   28.49
   1  -2   7  208.62   25.00
  -1   2  -7  268.63   27.28
   1  -2   7  207.86   34.85
  -2   2  -7 1532.64   74.17
   2  -2   7 1565.95   73.11
   2  -2   7 1392.39   72.28
   2  -2   7 1561.36   71.50
   2  -2   7 1494.88   74.22
   2  -2   7 1406.51   70.94
   2  -2   7 1569.80   85.94
   3  -2   7  146.08   20.13
   3  -2   7   83.77   19.01
  -3   2  -7  129.29   24.58
   3  -2   7  104.42   29.74
   3  -2   7  115.41   21.29
   3  -2   7  117.00   19.40
   3  -2   7  154.12   22.11
   4  -2   7   95.25   20.15
   4  -2   7  102.77   18.23
   4  -2   7   57.72   26.20
   4  -2   7   88.94   20.94
   4  -2   7   90.76   29.30
   5  -2   7   -2.97   15.43
   5  -2   7   31.52   25.24
   5  -2   7   12.77   18.46
   5  -2   7   -3.87   16.17
   6  -2   7  698.41   47.25
   6  -2   7  762.66   62.40
   6  -2   7  735.36   46.27
   6  -2   7  824.52   50.96
   6  -2   7  750.95   49.65
   4   1  -7  335.95   43.15
   4   1  -7  322.11   42.69
  -4  -1   7  295.38   47.04
  -4  -1   7  232.79   40.46
   4   1  -7  246.63   38.44
  -4  -1   7  278.62   39.92
  -4  -1   7  178.11   35.56
  -3  -1   7  581.11   42.57
   3   1  -7  546.01   47.30
   3   1  -7  616.21   46.65
  -3  -1   7  654.27   56.97
  -3  -1   7  553.94   49.89
   3   1  -7  576.12   51.49
  -3  -1   7  500.71   44.47
   3   1  -7  644.07   53.12
  -3  -1   7  558.09   55.20
  -3  -1   7  673.39   55.14
  -2  -1   7   -5.61   19.46
  -2  -1   7   19.89   21.23
  -2  -1   7  -11.37   19.06
   2   1  -7   23.29   25.93
  -2  -1   7  -17.71   24.65
  -2  -1   7   -2.11   13.21
   2   1  -7   22.10   23.27
  -2  -1   7    5.15   22.63
   2   1  -7   15.43   20.92
  -2  -1   7   10.01   25.28
   2   1  -7   13.14   18.72
   1   1  -7   34.11   19.05
  -1  -1   7   23.52   23.80
  -1  -1   7    1.90   19.83
  -1  -1   7   42.48   22.82
  -1  -1   7    5.00   17.96
  -1  -1   7   29.44   19.07
  -1  -1   7   14.49   22.57
   1   1  -7   40.28   20.94
   1   1  -7   54.08   19.87
  -1  -1   7   26.25   24.02
   0  -1   7  475.11   39.89
   0   1  -7  550.96   35.57
   0  -1   7  507.61   37.04
   0  -1   7  538.42   45.05
   0  -1   7  452.52   36.81
   0   1  -7  609.61   45.56
   0  -1   7  564.44   41.65
   0   1  -7  532.53   33.61
   0   1  -7  542.00   32.58
   0  -1   7  588.36   42.58
   1  -1   7  769.09   43.84
   1  -1   7  844.08   48.26
   1  -1   7  846.72   61.93
   1  -1   7  790.75   55.53
   1  -1   7  879.13   46.73
  -1   1  -7  861.20   55.59
  -1   1  -7  866.60   44.76
   1  -1   7  775.42   48.30
   1  -1   7  811.24   46.94
   2  -1   7   57.68   15.99
  -2   1  -7   49.78   16.40
   2  -1   7   40.82   14.56
   2  -1   7   60.83   17.33
   2  -1   7   76.11   23.67
   2  -1   7   50.65   16.69
   3  -1   7   65.35   14.63
   3  -1   7   72.13   16.59
   3  -1   7   31.78   22.46
   3  -1   7   71.84   15.61
   3  -1   7   95.79   16.40
   3  -1   7   70.89   24.94
   4  -1   7 1342.13   73.47
   4  -1   7 1332.66   62.95
   4  -1   7 1326.11   62.08
   4  -1   7 1363.56   64.79
   4  -1   7 1275.68   77.51
   4  -1   7 1346.22   63.19
   5  -1   7   82.98   26.88
   5  -1   7   47.60   16.38
   5  -1   7   88.26   18.54
   5  -1   7   44.33   16.91
   5  -1   7   44.92   19.24
   6  -1   7  187.91   34.17
   6  -1   7  213.63   24.24
   6  -1   7  171.25   24.48
   6  -1   7  201.70   26.13
   7  -1   7   62.03   20.76
   7  -1   7   29.72   21.93
   7  -1   7   29.77   18.99
   7  -1   7  108.10   32.63
   7  -1   7  108.20   25.94
  -4   0   7    0.27   26.03
  -4   0   7   45.01   26.77
   4   0  -7   16.68   26.91
   4   0  -7   11.02   27.63
  -4   0   7   24.27   25.57
  -4   0   7   17.20   31.28
   4   0  -7   42.28   26.99
  -3   0   7  654.07   38.25
  -3   0   7  561.09   56.36
  -3   0   7  533.16   51.52
  -3   0   7  550.36   45.96
   3   0  -7  513.14   44.43
  -3   0   7  606.32   54.46
  -3   0   7  578.08   50.04
   3   0  -7  566.48   52.26
   3   0  -7  461.90   45.18
   3   0  -7  661.38   53.82
  -2   0   7   59.22   23.14
   2   0  -7   71.81   28.33
   2   0  -7   98.04   28.19
  -2   0   7  148.99   31.10
  -2   0   7  114.78   32.05
   2   0  -7  102.91   21.71
   2   0  -7   81.92   23.18
  -2   0   7   82.48   22.19
  -2   0   7   73.65   27.62
  -2   0   7   73.25   24.60
  -1   0   7  327.80   32.27
   1   0  -7  353.35   31.23
  -1   0   7  366.39   38.29
  -1   0   7  303.72   37.37
   1   0  -7  344.21   39.01
  -1   0   7  403.75   35.62
  -1   0   7  322.70   35.94
   1   0  -7  368.56   33.53
   1   0  -7  300.67   36.31
  -1   0   7  307.58   31.46
   1   0  -7  379.99   33.78
  -1   0   7  347.35   35.65
   0   0  -7   70.60   15.32
   0   0   7   51.17   15.88
   0   0  -7   36.79   14.94
   0   0   7   60.80   17.43
   0   0   7   47.61   20.37
   0   0   7   42.41   22.32
   0   0  -7   35.49   23.33
   0   0   7   70.11   20.06
   0   0  -7   46.59   21.36
   0   0   7   31.78   19.20
   0   0  -7   53.38   11.46
   0   0   7   76.14   23.17
   1   0   7   94.11   17.74
   1   0   7  117.78   26.81
   1   0   7  107.58   18.97
   1   0   7  121.55   18.95
  -1   0  -7  125.18   25.70
   1   0   7   81.91   19.89
   1   0   7  101.85   15.84
   1   0   7  124.84   25.18
   1   0   7   99.32   17.20
   2   0   7  564.36   33.84
   2   0   7  555.88   32.43
   2   0   7  561.42   32.96
   2   0   7  620.22   44.62
   2   0   7  564.57   33.29
   2   0   7  561.67   50.03
   3   0   7 1200.52   67.12
   3   0   7 1073.57   59.00
   4   0   7   -4.88   19.26
   4   0   7   -4.81   17.46
   5   0   7  -35.71   18.01
   6   0   7  245.64   25.64
   6   0   7  200.41   21.43
   6   0   7  224.37   22.56
   6   0   7  220.91   35.57
   7   0   7  377.29   33.89
   7   0   7  340.07   32.20
   7   0   7  333.30   45.02
  -4   1   7  410.13   53.38
   4  -1  -7  411.77   47.68
  -4   1   7  421.28   47.37
  -4   1   7  383.93   41.98
   4  -1  -7  346.56   44.86
   4  -1  -7  306.88   41.88
  -3   1   7  111.71   29.03
  -3   1   7   58.72   26.31
   3  -1  -7  103.98   26.89
   3  -1  -7  146.24   32.24
   3  -1  -7  168.81   33.32
  -3   1   7  200.61   34.80
   3  -1  -7  129.34   28.09
  -3   1   7  112.93   36.22
  -3   1   7  111.84   32.75
   2  -1  -7    4.24   21.65
   2  -1  -7    8.46   18.26
  -2   1   7    0.58   16.72
  -2   1   7   -6.13   19.83
  -2   1   7  -18.60   21.09
   2  -1  -7    7.24   22.74
   2  -1  -7    7.10   18.13
  -2   1   7   -0.31   26.11
  -2   1   7    8.47   24.33
  -2   1   7   12.97   19.77
  -1   1   7  749.40   51.29
   1  -1  -7  700.42   46.15
   1  -1  -7  676.49   43.37
  -1   1   7  764.81   53.55
  -1   1   7  656.17   49.44
   1  -1  -7  749.03   46.24
   1  -1  -7  741.94   50.09
  -1   1   7  685.16   47.46
  -1   1   7  639.29   46.23
  -1   1   7  639.14   43.81
  -1   1   7  757.06   52.05
   1  -1  -7  777.55   55.32
   0   1   7  153.83   26.91
   0  -1  -7  146.99   25.36
   0  -1  -7  144.99   17.93
   0   1   7  120.58   23.96
   0   1   7  165.86   22.11
   0   1   7  158.69   20.68
   0  -1  -7  135.66   18.79
   0  -1  -7  127.92   27.24
   0   1   7  196.63   28.10
   0   1   7  153.62   25.25
   0   1   7  160.86   24.61
   1   1   7   12.01   16.29
   1   1   7   49.32   15.31
   1   1   7   43.20   18.93
   1   1   7   32.66   13.93
   1   1   7   14.11   20.23
  -1  -1  -7   44.69   22.19
   1   1   7   31.14   14.37
  -1  -1  -7   30.56   18.44
   1   1   7    9.74   14.48
   1   1   7   33.59   12.48
   2   1   7   17.28   11.97
   2   1   7   -7.29   20.23
   2   1   7   23.21   10.91
   2   1   7    4.02   13.56
   2   1   7   14.93   18.89
   2   1   7    3.28   10.20
   2   1   7   -0.27   10.28
   3   1   7  224.30   24.69
   3   1   7  208.79   27.99
   4   1   7  248.10   28.65
   4   1   7  305.69   34.06
   5   1   7    2.77   20.31
   6   1   7   55.03   25.95
   7   1   7  666.22   59.25
   7   1   7  675.01   43.13
   7   1   7  715.19   43.49
   7   1   7  734.80   42.65
  -4   2   7  186.75   37.02
  -4   2   7  184.93   42.45
   4  -2  -7  199.56   39.88
   4  -2  -7  212.29   36.74
  -4   2   7  179.89   34.63
   4  -2  -7  224.10   39.54
   3  -2  -7    4.27   24.03
   3  -2  -7  -30.93   19.99
  -3   2   7  -20.80   26.12
  -3   2   7    4.59   22.94
   3  -2  -7   16.33   22.11
  -3   2   7   12.09   20.82
   3  -2  -7    2.29   23.05
  -2   2   7  410.75   45.81
   2  -2  -7  303.96   31.35
  -2   2   7  280.61   37.55
   2  -2  -7  322.89   37.79
  -2   2   7  358.13   36.56
   2  -2  -7  329.26   40.47
   2  -2  -7  305.55   34.36
  -2   2   7  353.77   42.33
  -2   2   7  318.45   39.11
  -1   2   7   -4.53   22.38
   1  -2  -7   35.66   18.25
   1  -2  -7  -11.49   17.84
  -1   2   7   27.59   18.42
  -1   2   7  -10.95   20.76
   1  -2  -7  -23.28   17.23
  -1   2   7    7.11   18.17
  -1   2   7   18.11   23.82
   1  -2  -7   -1.69   21.14
   1  -2  -7   26.11   19.58
  -1   2   7  -11.44   18.68
  -1   2   7    5.13   18.86
   0  -2  -7   23.04   18.73
   0   2   7   48.12   20.00
   0   2   7   20.60   16.18
   0   2   7   42.33   18.56
   0  -2  -7   50.58   15.22
   0   2   7   10.45   18.04
   0  -2  -7   10.28   20.02
   0   2   7    7.22   18.55
   0  -2  -7   20.35   13.84
   0   2   7   38.02   15.25
   0   2   7   50.03   20.84
  -1  -2  -7  557.79   45.25
   1   2   7  633.16   39.98
   1   2   7  576.55   34.02
   1   2   7  647.89   38.91
   1   2   7  598.45   36.50
  -1  -2  -7  569.02   39.34
   1   2   7  619.59   46.74
   1   2   7  529.35   35.57
   1   2   7  511.69   32.56
   1   2   7  634.77   40.43
   1   2   7  600.52   38.02
   2   2   7 1950.15   84.32
   2   2   7 2099.82   93.21
   2   2   7 1985.27   86.62
   2   2   7 1920.01   91.75
   2   2   7 1976.82   81.27
   2   2   7 2050.19  102.17
   2   2   7 1883.82   85.30
  -2  -2  -7 1931.66   98.59
  -2  -2  -7 1848.43  103.10
   2   2   7 2014.24   85.26
   3   2   7  -14.90   15.70
  -3  -2  -7   -8.88   24.25
   3   2   7  -12.19   13.76
   4   2   7  138.94   25.35
  -4  -2  -7  145.02   34.72
   6   2   7  273.11   42.88
   7   2   7  335.71   29.39
   7   2   7  272.82   46.39
   7   2   7  217.00   24.58
   7   2   7  205.56   25.02
  -4   3   7  415.97   47.29
   4  -3  -7  386.70   47.16
  -4   3   7  452.30   57.50
   4  -3  -7  542.50   55.29
   4  -3  -7  480.41   52.32
  -4   3   7  457.47   51.62
  -3   3   7  152.77   32.77
  -3   3   7  196.50   39.77
   3  -3  -7  177.12   35.09
  -3   3   7  156.14   31.08
   3  -3  -7  165.15   30.57
   3  -3  -7  196.58   37.23
   3  -3  -7  150.43   31.71
  -2   3   7   11.52   21.14
   2  -3  -7    4.23   19.33
   2  -3  -7   -0.89   22.26
  -2   3   7  -12.55   19.71
   2  -3  -7  -21.23   21.54
  -2   3   7    3.09   27.54
  -2   3   7   -1.92   26.98
   2  -3  -7   17.02   20.43
   1  -3  -7   84.89   21.88
  -1   3   7  112.09   24.77
  -1   3   7   99.52   28.20
   1  -3  -7   73.55   22.54
  -1   3   7   95.91   27.77
   1  -3  -7  145.09   26.14
   1  -3  -7   81.34   23.38
  -1   3   7   93.61   25.07
   1  -3  -7  106.92   28.33
  -1   3   7   99.69   28.61
   1  -3  -7  144.80   27.98
  -1   3   7   82.22   23.25
   1  -3  -7   64.23   17.45
   0   3   7  955.47   58.42
   0  -3  -7 1079.74   59.32
   0  -3  -7 1072.62   66.31
   0   3   7 1115.43   63.44
   0  -3  -7 1031.41   64.64
   0   3   7 1137.57   62.28
   0  -3  -7 1102.75   56.61
   0  -3  -7 1057.25   53.34
   0   3   7 1141.63   59.81
   0   3   7 1098.78   63.80
   0   3   7 1096.83   64.86
   0   3   7 1000.66   56.86
   1   3   7 1556.63   74.90
   1   3   7 1586.88   75.30
   1   3   7 1532.97   77.22
  -1  -3  -7 1461.96   83.08
  -1  -3  -7 1621.04   75.67
   1   3   7 1415.47   70.61
   1   3   7 1584.00   74.93
   1   3   7 1625.31   76.69
   1   3   7 1614.54   83.72
   1   3   7 1480.67   70.66
  -1  -3  -7 1584.29   85.96
   2   3   7   74.44   25.77
   2   3   7   28.97   15.25
   2   3   7   89.60   16.98
  -2  -3  -7   28.28   21.96
   2   3   7   36.80   16.09
   2   3   7   77.36   17.36
  -2  -3  -7   40.13   25.59
   2   3   7   81.18   18.77
   2   3   7   67.20   16.24
   3   3   7  191.06   27.75
  -3  -3  -7  173.04   33.94
  -3  -3  -7  189.13   29.55
   3   3   7  195.24   23.33
  -4  -3  -7 1026.86   69.49
   4   3   7  851.01   52.20
   4   3   7 1021.38   62.12
   5   3   7  313.70   41.57
  -5  -3  -7  273.02   42.46
   6   3   7   12.71   27.49
  -6  -3  -7    3.83   30.35
   7   3   7   20.89   17.01
   7   3   7   31.86   17.17
   7   3   7   53.76   34.09
   7   3   7    8.54   18.57
   3  -4  -7  290.49   38.38
   3  -4  -7  266.27   40.91
  -3   4   7  247.26   38.79
  -3   4   7  287.29   46.82
  -3   4   7  256.56   37.65
   3  -4  -7  355.81   45.22
   2  -4  -7   45.75   27.31
   2  -4  -7   76.40   23.26
  -2   4   7   44.82   30.46
  -2   4   7  -13.92   25.76
  -2   4   7  111.38   27.70
   2  -4  -7   53.59   24.66
  -2   4   7   24.89   23.40
   2  -4  -7   42.31   22.46
   2  -4  -7   28.54   21.53
   1  -4  -7  279.31   32.51
  -1   4   7  265.72   37.81
   1  -4  -7  250.14   25.10
  -1   4   7  249.18   39.07
   1  -4  -7  225.27   36.60
  -1   4   7  271.45   34.34
   1  -4  -7  244.63   29.74
   1  -4  -7  278.20   32.02
   1  -4  -7  256.22   33.96
  -1   4   7  269.78   32.75
   0   4   7   27.41   20.45
   0   4   7   55.23   19.58
   0  -4  -7   55.96   18.12
   0  -4  -7   64.46   18.61
   0   4   7   54.37   24.87
   0  -4  -7   -2.93   23.78
   0  -4  -7   27.42   23.78
   0  -4  -7   38.35   18.35
   0   4   7   71.13   26.30
   0   4   7   40.84   22.49
  -1  -4  -7  652.59   50.34
  -1  -4  -7  645.05   49.80
   1   4   7  583.22   38.30
   1   4   7  611.92   43.45
   1   4   7  637.09   46.44
  -1  -4  -7  625.06   34.32
  -1  -4  -7  691.53   41.34
   1   4   7  646.81   39.35
   1   4   7  690.76   44.70
   1   4   7  600.20   42.48
   2   4   7  123.92   17.41
   2   4   7   71.38   19.40
   2   4   7   88.03   18.39
   2   4   7   96.89   19.03
  -2  -4  -7   78.12   27.97
   2   4   7   74.19   15.32
  -2  -4  -7  117.03   27.49
   2   4   7  129.91   22.01
   2   4   7   97.91   20.00
   2   4   7  136.38   22.77
   3   4   7   70.12   16.69
  -3  -4  -7  118.71   26.04
   3   4   7   75.00   15.02
   3   4   7   64.96   15.60
   3   4   7   69.24   16.86
   3   4   7   68.81   22.19
   3   4   7   55.88   17.15
  -3  -4  -7   82.70   28.51
   4   4   7  104.69   26.62
   4   4   7   70.80   17.61
  -4  -4  -7  135.52   32.96
   4   4   7   94.19   16.75
   4   4   7   91.64   15.22
  -4  -4  -7  147.19   28.05
   5   4   7  231.79   25.20
   5   4   7  144.16   17.72
   5   4   7  172.40   32.80
  -5  -4  -7  124.43   34.73
   6   4   7   65.91   19.04
  -6  -4  -7   43.07   32.43
   6   4   7   42.09   28.33
   6   4   7  105.26   19.25
   6   4   7  127.73   18.68
  -7  -4  -7  292.42   47.40
   7   4   7  249.37   44.15
   7   4   7  262.91   29.52
   7   4   7  316.17   29.28
  -3   5   7   55.04   37.03
   3  -5  -7   88.91   34.02
   3  -5  -7   96.59   34.26
  -3   5   7   67.75   30.96
   3  -5  -7   92.96   24.02
   3  -5  -7   94.75   29.99
  -3   5   7   45.83   31.14
  -2   5   7   39.85   24.49
  -2   5   7  -26.40   22.85
   2  -5  -7  -20.41   21.88
   2  -5  -7  -15.65   21.22
  -2   5   7   23.86   30.32
   2  -5  -7   -2.15   24.81
   2  -5  -7    3.07   22.30
   2  -5  -7   -4.01   26.40
  -1   5   7 1302.14   78.02
   1  -5  -7 1241.37   62.20
   1  -5  -7 1069.17   68.85
  -1   5   7 1237.60   72.93
   1  -5  -7 1211.98   77.12
  -1   5   7 1030.24   67.32
   1  -5  -7 1202.95   67.15
   1  -5  -7 1276.28   71.27
  -1   5   7 1156.64   78.65
   0   5   7  164.08   32.98
   0  -5  -7  253.94   35.44
   0  -5  -7  231.11   29.10
   0   5   7  154.35   29.91
   0  -5  -7  192.52   24.66
   0   5   7  173.08   28.03
   0  -5  -7  211.64   28.05
   0  -5  -7  183.67   25.48
   0   5   7  157.26   31.55
   0  -5  -7  224.36   36.25
   0   5   7  283.90   35.68
   1   5   7  133.60   23.54
   1   5   7   71.27   22.93
  -1  -5  -7  103.67   18.19
  -1  -5  -7   85.06   29.88
   1   5   7  128.53   29.28
  -1  -5  -7  129.39   30.12
   1   5   7   68.00   24.34
  -1  -5  -7   72.38   17.01
   1   5   7   98.52   25.66
   2   5   7  -23.20   17.32
  -2  -5  -7   45.24   24.34
  -2  -5  -7  -20.09   25.01
   2   5   7    8.13   17.55
   2   5   7    6.73   15.02
   2   5   7   -7.72   19.58
   2   5   7   14.02   17.72
   3   5   7  432.97   34.94
  -3  -5  -7  405.84   44.58
  -3  -5  -7  444.71   41.24
   3   5   7  365.66   28.00
   3   5   7  384.41   39.07
   3   5   7  409.92   31.78
   3   5   7  377.06   34.59
   3   5   7  318.55   30.79
  -4  -5  -7   -9.67   21.22
   4   5   7   -3.48   15.08
  -4  -5  -7  -37.09   24.59
   4   5   7   24.00   16.79
   4   5   7   -2.56   16.57
   4   5   7   -9.04   22.66
   5   5   7  361.47   30.64
   5   5   7  289.49   27.02
  -5  -5  -7  246.15   41.15
   5   5   7  276.68   27.12
   5   5   7  297.48   40.03
  -6  -5  -7   53.15   31.24
   6   5   7    0.03   25.72
   6   5   7   17.72   18.45
   6   5   7   34.16   19.34
   6   5   7    5.69   16.87
   6   5   7  -10.50   18.29
   7   5   7  153.71   40.34
   7   5   7  322.49   34.19
   7   5   7  306.88   31.72
  -7  -5  -7  300.77   48.54
   2  -6  -7  529.47   45.28
   2  -6  -7  334.63   48.79
   2  -6  -7  345.09   42.96
   2  -6  -7  462.29   50.46
  -2   6   7  308.86   51.22
  -2   6   7  369.80   47.15
  -2   6   7  464.57   47.12
   1  -6  -7   45.37   27.05
   1  -6  -7    3.85   28.91
  -1   6   7   31.03   24.87
   1  -6  -7   31.55   17.19
  -1   6   7  117.46   34.20
   1  -6  -7   56.83   22.21
  -1   6   7   70.15   25.03
   1  -6  -7   48.95   23.54
   1  -6  -7  -11.15   23.07
   0  -6  -7   15.47   24.52
   0   6   7    1.30   20.50
   0   6   7    3.02   22.65
   0   6   7   19.69   26.89
   0  -6  -7   36.19   20.37
   0  -6  -7   11.77   16.94
   0  -6  -7   32.81   27.04
   0  -6  -7   12.24   20.40
   0   6   7   33.17   25.95
   0  -6  -7   16.19   16.52
  -1  -6  -7  442.40   33.85
  -1  -6  -7  415.98   29.24
   1   6   7  462.14   41.26
  -1  -6  -7  447.91   46.59
  -1  -6  -7  578.24   49.24
   1   6   7  477.00   47.07
  -1  -6  -7  481.02   37.68
   1   6   7  427.35   38.38
   1   6   7  396.05   42.98
   1   6   7  392.68   42.46
  -2  -6  -7  832.35   52.16
   2   6   7  767.68   51.14
   2   6   7  857.53   55.45
  -2  -6  -7  741.19   59.58
   2   6   7  821.81   56.56
  -2  -6  -7  745.99   55.46
   2   6   7  631.50   46.09
   2   6   7  697.67   50.48
   3   6   7   16.25   19.44
  -3  -6  -7   34.54   29.12
   3   6   7   -1.58   21.85
  -3  -6  -7  -20.73   21.73
   3   6   7  -13.09   18.73
   3   6   7   -9.81   15.96
   3   6   7    0.56   19.59
   4   6   7   49.64   18.72
   4   6   7   38.80   17.64
   4   6   7   53.17   22.99
  -4  -6  -7   74.29   30.08
   4   6   7   57.70   27.00
   4   6   7   88.11   21.45
   4   6   7   43.69   20.54
  -4  -6  -7   34.11   24.29
   5   6   7  254.83   29.78
   5   6   7  227.91   24.87
   5   6   7  199.00   24.52
   5   6   7  296.50   32.07
  -5  -6  -7  271.81   33.89
   5   6   7  231.88   39.08
  -5  -6  -7  146.01   38.62
   6   6   7  410.49   52.96
  -6  -6  -7  605.21   59.87
   6   6   7  618.34   44.38
   6   6   7  504.35   37.41
   6   6   7  525.38   41.02
   6   6   7  494.78   37.40
  -7  -6  -7   74.90   38.07
   7   6   7   50.61   27.38
   7   6   7   58.32   23.83
   7   6   7   23.03   32.80
   7   6   7   33.28   19.61
   1  -7  -7   10.98   23.41
  -1   7   7   23.66   32.61
  -1   7   7    4.55   25.67
   1  -7  -7  -13.88   27.73
   1  -7  -7   10.31   25.36
   1  -7  -7  -11.71   30.05
   1  -7  -7  -23.22   23.75
  -1   7   7   -4.98   25.85
   0  -7  -7  266.56   28.04
   0  -7  -7  285.83   36.28
   0  -7  -7  294.21   44.98
   0  -7  -7  326.05   42.40
   0   7   7  250.79   27.76
   0  -7  -7  305.09   35.75
   0   7   7  278.07   43.27
   0   7   7  280.14   37.40
   0  -7  -7  187.70   30.05
   0   7   7  358.12   41.63
  -1  -7  -7  -16.59   21.61
   1   7   7  -22.77   25.18
   1   7   7  -16.53   20.00
   1   7   7   17.98   25.90
  -1  -7  -7   12.02   19.20
  -1  -7  -7   28.12   28.83
  -1  -7  -7   20.33   27.76
   1   7   7  -10.16   21.47
  -2  -7  -7  320.94   41.60
   2   7   7  444.95   45.52
   2   7   7  333.71   37.50
  -2  -7  -7  290.91   26.76
  -2  -7  -7  313.44   29.35
  -2  -7  -7  313.86   43.58
   2   7   7  250.06   33.12
  -2  -7  -7  260.88   26.98
   2   7   7  335.94   38.90
   2   7   7  312.22   38.72
   3   7   7   -9.41   18.73
   3   7   7   20.70   24.35
   3   7   7   -8.03   21.11
  -3  -7  -7   36.02   31.06
  -3  -7  -7   15.61   24.96
   3   7   7   36.02   22.25
   3   7   7   42.14   24.26
  -4  -7  -7  416.93   49.14
   4   7   7  374.18   37.56
  -4  -7  -7  393.78   41.02
   4   7   7  406.18   41.35
   4   7   7  330.74   35.75
   4   7   7  292.90   32.99
   5   7   7   23.20   24.32
   5   7   7   28.70   20.29
   5   7   7   23.41   29.31
  -5  -7  -7   76.88   26.59
  -5  -7  -7   -1.00   30.74
   5   7   7   11.46   19.76
   6   7   7   90.26   26.78
   6   7   7   71.68   23.37
   6   7   7  115.37   37.34
  -6  -7  -7   45.51   36.41
   6   7   7   87.93   27.52
   6   7   7   77.43   23.82
   0   8   7   26.83   30.31
   0  -8  -7   55.42   29.52
   0   8   7  109.27   37.90
   0  -8  -7   48.48   34.62
   0  -8  -7   53.73   27.84
   0  -8  -7  113.90   39.06
   0   8   7   69.58   30.90
   1   8   7   67.41   34.92
  -1  -8  -7  110.42   27.42
  -1  -8  -7  136.61   38.38
   1   8   7   67.57   28.75
  -1  -8  -7  124.52   38.10
   1   8   7   40.97   29.69
  -1  -8  -7   90.65   28.01
  -2  -8  -7   39.41   30.05
   2   8   7   61.28   26.77
  -2  -8  -7   57.47   33.37
   2   8   7   99.53   34.24
  -2  -8  -7   98.62   23.27
   2   8   7   62.88   28.19
   3   8   7   56.37   30.22
   3   8   7   33.09   23.09
   3   8   7   57.61   25.63
  -3  -8  -7   40.79   30.16
  -3  -8  -7   85.78   37.14
  -4  -8  -7  357.54   50.73
   4   8   7  404.19   42.60
   4   8   7  446.49   48.28
   4   8   7  384.92   40.27
  -4  -8  -7  398.81   43.70
   5   8   7  158.72   30.61
   5   8   7  167.15   31.58
  -5  -8  -7  152.69   32.51
  -5  -8  -7  119.55   41.00
   5   8   7  134.07   33.97
  -1  -5   8   77.18   34.84
   1   5  -8   90.74   28.82
  -1  -5   8   90.41   34.35
  -1  -5   8   49.96   28.23
  -1  -5   8   85.54   31.29
   1   5  -8   79.10   27.10
   0   5  -8  600.80   44.78
   0  -5   8  551.89   53.83
   0   5  -8  487.17   44.90
   0  -5   8  445.65   55.89
   0  -5   8  452.28   48.31
   0  -5   8  534.20   50.91
   1  -5   8   16.98   24.31
   1  -5   8  -42.19   24.82
   1  -5   8   -2.07   21.65
  -1   5  -8   21.40   21.92
   1  -5   8  -40.18   22.69
   2  -5   8   63.26   28.55
   2  -5   8   43.41   29.24
   2  -5   8   28.89   25.21
   2  -5   8   20.64   23.47
   3  -5   8  250.25   44.83
   3  -5   8  161.66   31.24
   3  -5   8  212.21   35.91
   3  -5   8  219.01   37.57
  -2  -4   8  402.98   51.05
  -2  -4   8  410.00   52.01
   2   4  -8  419.38   45.41
   2   4  -8  300.44   39.27
  -2  -4   8  320.22   42.56
  -2  -4   8  366.77   43.43
  -1  -4   8   -1.07   22.80
   1   4  -8  -28.72   20.69
   1   4  -8   26.46   22.86
  -1  -4   8  -33.05   25.19
  -1  -4   8    1.23   21.18
  -1  -4   8   13.76   25.59
   0   4  -8  123.15   26.51
   0  -4   8  150.63   30.97
   0  -4   8  105.91   33.58
   0  -4   8  143.24   32.45
   0  -4   8   88.90   26.91
  -1   4  -8   37.38   18.48
   1  -4   8  -17.88   21.23
  -1   4  -8    2.32   15.96
   1  -4   8    8.37   19.44
  -1   4  -8   26.08   17.65
   1  -4   8   27.85   21.26
   1  -4   8   21.93   28.20
   1  -4   8   45.56   25.53
   2  -4   8  651.01   48.30
   2  -4   8  618.14   48.36
   2  -4   8  671.68   48.74
   2  -4   8  657.71   51.24
   2  -4   8  596.16   57.15
   3  -4   8  192.53   38.69
   3  -4   8  170.05   30.73
   3  -4   8  163.04   27.42
   3  -4   8  170.51   28.36
   3  -4   8  158.03   29.24
   4  -4   8    5.69   20.50
   4  -4   8  -21.96   20.59
   4  -4   8    1.95   24.03
   4  -4   8   -1.04   27.80
  -3  -3   8  402.02   47.60
  -3  -3   8  367.43   52.63
   3   3  -8  476.85   48.50
  -3  -3   8  391.50   52.05
   3   3  -8  289.71   41.90
  -3  -3   8  426.05   45.37
  -2  -3   8   41.28   31.75
  -2  -3   8   53.91   31.25
  -2  -3   8   55.55   27.08
  -2  -3   8   63.37   27.82
   2   3  -8  107.44   28.34
   2   3  -8   54.22   25.84
   1   3  -8   14.79   20.75
  -1  -3   8  -35.27   20.99
  -1  -3   8   14.56   22.05
  -1  -3   8  -21.28   23.39
  -1  -3   8   22.69   22.10
   1   3  -8    3.24   20.02
  -1  -3   8   31.14   25.82
   0  -3   8  505.62   42.99
   0   3  -8  489.19   38.69
   0  -3   8  599.15   46.86
   0  -3   8  479.97   44.23
   0  -3   8  536.20   53.89
   0  -3   8  592.84   48.58
   0  -3   8  536.53   49.38
   0   3  -8  586.98   41.96
   0   3  -8  599.69   42.08
   1  -3   8  970.14   57.92
   1  -3   8  958.96   68.92
   1  -3   8  861.86   57.19
   1  -3   8  837.98   54.98
   1  -3   8 1003.28   60.15
  -1   3  -8  983.75   57.28
   1  -3   8  927.59   61.09
   2  -3   8   50.23   20.37
   2  -3   8   45.81   20.63
   2  -3   8   88.29   30.00
   2  -3   8   53.07   22.36
   2  -3   8   34.56   19.84
   2  -3   8   50.97   22.11
   3  -3   8   67.81   20.59
   3  -3   8   58.55   19.56
   3  -3   8   64.61   28.34
   3  -3   8   58.08   20.88
   3  -3   8   93.46   23.17
   3  -3   8   57.53   20.42
   4  -3   8  128.71   34.45
   4  -3   8  155.26   25.86
   4  -3   8  158.93   28.02
   4  -3   8  178.73   26.80
   4  -3   8  196.78   25.29
   5  -3   8  751.81   53.46
   5  -3   8  794.86   50.26
   5  -3   8  811.12   70.55
   5  -3   8  664.52   50.07
  -3  -2   8  431.60   50.99
   3   2  -8  356.19   43.06
  -3  -2   8  406.34   46.14
  -3  -2   8  362.95   43.22
  -3  -2   8  452.77   53.64
   3   2  -8  498.01   50.56
  -2  -2   8    6.90   28.61
  -2  -2   8    8.69   24.78
   2   2  -8   13.94   22.46
  -2  -2   8   33.00   23.52
  -2  -2   8    2.66   21.49
   2   2  -8   37.96   24.96
  -2  -2   8   -7.04   19.40
  -1  -2   8  205.56   35.61
  -1  -2   8  146.78   28.34
  -1  -2   8  129.13   30.33
  -1  -2   8  141.98   32.30
   1   2  -8  135.53   27.07
   1   2  -8  188.54   28.86
  -1  -2   8  113.17   26.21
   0   2  -8   50.63   19.45
   0  -2   8   42.30   20.75
   0  -2   8   47.06   25.47
   0  -2   8   12.32   22.59
   0  -2   8   33.73   21.66
   0   2  -8   49.02   18.44
   0  -2   8   13.52   26.94
   0  -2   8   34.31   21.20
   0   2  -8   43.74   17.88
   1  -2   8  501.45   39.70
   1  -2   8  397.29   37.83
   1  -2   8  530.50   40.30
   1  -2   8  477.78   49.42
   1  -2   8  410.64   35.08
   1  -2   8  516.08   42.72
  -1   2  -8  451.77   36.04
   2  -2   8   53.52   21.95
   2  -2   8   61.53   19.70
  -2   2  -8   75.48   20.98
   2  -2   8   83.95   20.30
   2  -2   8   58.48   20.37
   2  -2   8   93.64   20.45
   2  -2   8   78.49   27.98
   3  -2   8  560.73   37.61
   3  -2   8  592.20   50.64
   3  -2   8  498.97   37.86
   3  -2   8  532.33   39.38
   3  -2   8  556.77   36.14
   3  -2   8  566.30   38.52
   4  -2   8   -4.72   25.18
   4  -2   8    9.42   14.10
   4  -2   8   31.00   17.72
   4  -2   8   14.61   15.14
   4  -2   8    7.35   16.53
   4  -2   8    3.14   14.83
   5  -2   8  362.86   30.93
   5  -2   8  211.00   25.65
   5  -2   8  233.72   28.08
   5  -2   8  228.70   41.36
   5  -2   8  234.95   28.70
   5  -2   8  250.94   24.61
   5  -2   8  283.26   40.07
   6  -2   8  -26.92   25.18
   6  -2   8   10.78   20.91
   6  -2   8   27.70   18.07
   6  -2   8    6.89   16.47
   6  -2   8    6.39   19.85
  -4  -1   8   41.12   30.40
   4   1  -8  107.72   34.79
  -4  -1   8   39.57   30.57
   4   1  -8   88.81   36.11
   4   1  -8   32.38   28.28
  -4  -1   8   96.45   39.43
  -4  -1   8   79.55   34.10
  -3  -1   8  452.58   52.23
  -3  -1   8  551.51   57.35
   3   1  -8  654.82   55.27
  -3  -1   8  496.24   48.10
   3   1  -8  512.61   47.89
  -3  -1   8  486.97   49.89
   3   1  -8  557.35   55.21
   2   1  -8   79.10   24.12
  -2  -1   8   55.35   23.47
  -2  -1   8   41.70   24.16
   2   1  -8   98.48   26.88
  -2  -1   8   58.43   28.65
  -2  -1   8   37.04   28.16
  -2  -1   8   97.13   31.59
  -2  -1   8   68.42   24.59
  -2  -1   8   24.03   15.61
   1   1  -8   80.40   22.12
  -1  -1   8   88.28   27.29
  -1  -1   8   69.73   23.25
  -1  -1   8   31.26   26.77
   1   1  -8  134.37   25.21
  -1  -1   8   85.18   27.78
  -1  -1   8  114.54   29.16
   1   1  -8   47.51   16.00
  -1  -1   8  129.53   25.65
   1   1  -8   73.13   23.20
  -1  -1   8   80.25   28.99
   0  -1   8  763.43   50.90
   0   1  -8  794.32   44.86
   0  -1   8  737.36   49.20
   0  -1   8  926.69   57.27
   0  -1   8  914.94   55.70
   0   1  -8  825.85   46.01
   0   1  -8  859.34   43.92
   0  -1   8  865.72   56.45
   0  -1   8  805.19   59.71
  -1   1  -8    2.15   14.86
   1  -1   8    2.82   15.43
   1  -1   8    3.71   18.96
   1  -1   8   34.31   24.66
   1  -1   8   29.85   16.81
   1  -1   8   10.24   19.85
   1  -1   8    4.22   17.58
   2  -1   8    8.03   15.03
   2  -1   8   37.56   17.98
   2  -1   8   23.94   16.50
   2  -1   8   11.19   16.46
   2  -1   8    8.35   14.17
   2  -1   8   35.24   24.11
   3  -1   8  728.62   56.80
   3  -1   8  834.44   44.20
   3  -1   8  756.20   43.73
   3  -1   8  809.52   45.31
   4  -1   8  101.36   18.92
   4  -1   8   57.28   28.91
   4  -1   8  124.86   28.24
   4  -1   8   83.17   17.43
   4  -1   8   90.57   16.78
   4  -1   8   97.35   18.32
   5  -1   8   78.26   18.93
   5  -1   8  100.17   19.37
   5  -1   8  112.35   31.23
   5  -1   8   80.72   18.98
   5  -1   8   92.84   27.57
   6  -1   8   77.49   20.88
   6  -1   8  124.17   33.75
   6  -1   8  145.26   23.34
  -4   0   8   90.48   32.45
   4   0  -8  -25.54   24.65
  -4   0   8   19.47   31.00
   4   0  -8   34.84   31.46
   4   0  -8   38.84   33.00
  -4   0   8   46.61   29.86
  -4   0   8   57.03   36.40
  -3   0   8  102.53   30.81
  -3   0   8   58.78   30.07
   3   0  -8   56.98   30.65
  -3   0   8  109.89   36.11
   3   0  -8   56.86   30.53
   3   0  -8   91.12   28.78
  -3   0   8   73.31   27.55
  -3   0   8  107.11   22.42
  -2   0   8  867.06   62.71
  -2   0   8  837.18   58.28
   2   0  -8  861.17   64.19
   2   0  -8  894.42   57.67
   2   0  -8  810.17   53.70
  -2   0   8  807.12   55.25
  -2   0   8  859.29   64.83
  -2   0   8  845.52   55.48
  -2   0   8  828.87   61.76
   1   0  -8  135.13   32.15
  -1   0   8  156.95   27.06
  -1   0   8   95.18   28.70
  -1   0   8  168.66   33.29
  -1   0   8  137.46   28.80
   1   0  -8  154.60   25.88
  -1   0   8  231.73   32.69
  -1   0   8  209.36   32.17
  -1   0   8   71.76   23.41
   1   0  -8  126.28   24.58
   1   0  -8  149.73   24.66
   0   0   8   36.68   24.06
   0   0  -8   61.37   16.11
   0   0  -8   40.13   23.65
   0   0   8   68.02   23.07
   0   0   8   48.22   19.58
   0   0  -8   59.96   12.78
   0   0  -8   64.26   15.57
   0   0   8   23.16   23.51
   0   0   8   78.97   19.48
   0   0   8   21.12   23.56
   0   0   8   71.69   21.93
   1   0   8  438.69   33.10
   1   0   8  397.63   33.81
   1   0   8  419.10   30.57
  -1   0  -8  463.11   43.73
   1   0   8  448.05   35.25
   1   0   8  397.05   36.10
   1   0   8  493.94   44.05
   2   0   8 1298.15   73.92
   2   0   8 1202.37   59.21
   2   0   8 1212.73   61.10
   2   0   8 1181.19   60.90
   2   0   8 1183.40   59.72
   3   0   8  -26.41   17.54
   3   0   8   -3.89   12.92
   3   0   8  -15.92   21.24
   3   0   8    9.28   11.60
   4   0   8  115.65   25.34
   4   0   8   54.05   26.74
   5   0   8   84.43   27.54
   5   0   8  115.90   27.89
   6   0   8  579.67   51.25
   7   0   8  -15.99   24.91
   7   0   8   36.40   19.67
   4  -1  -8   17.90   27.10
   4  -1  -8   68.19   36.05
  -4   1   8   58.14   37.57
  -4   1   8   83.51   34.06
   4  -1  -8   33.44   30.87
  -4   1   8   35.24   28.35
   3  -1  -8  313.28   42.16
  -3   1   8  218.30   36.70
   3  -1  -8  238.67   40.95
  -3   1   8  181.61   34.80
   3  -1  -8  271.57   36.74
  -3   1   8  225.81   43.49
  -3   1   8  237.81   40.49
  -2   1   8  330.98   44.22
  -2   1   8  300.36   40.78
   2  -1  -8  276.99   29.65
  -2   1   8  414.83   33.92
  -2   1   8  282.13   35.87
   2  -1  -8  290.10   34.01
   2  -1  -8  297.74   41.90
  -2   1   8  331.99   41.03
   2  -1  -8  337.97   38.16
  -2   1   8  258.03   33.91
   1  -1  -8   23.48   18.63
  -1   1   8   67.79   28.80
  -1   1   8    7.87   18.89
  -1   1   8   37.74   25.28
   1  -1  -8   54.55   26.63
  -1   1   8   30.25   23.82
  -1   1   8   46.89   25.62
  -1   1   8   50.86   22.33
   1  -1  -8   28.80   20.13
  -1   1   8   33.59   22.39
   1  -1  -8   66.60   21.77
   0   1   8  683.26   51.69
   0  -1  -8  737.22   40.93
   0  -1  -8  737.19   40.96
   0  -1  -8  666.46   54.40
   0   1   8  654.46   44.49
   0   1   8  743.97   49.94
   0   1   8  690.72   46.76
   0   1   8  750.37   54.24
   0   1   8  737.33   50.48
   0   1   8  767.29   53.23
   0  -1  -8  788.97   55.18
   1   1   8  378.25   33.41
   1   1   8  422.50   30.06
  -1  -1  -8  468.83   45.84
  -1  -1  -8  431.31   41.73
   1   1   8  404.03   35.09
   1   1   8  481.16   45.15
   1   1   8  441.52   36.01
   1   1   8  409.73   32.31
   1   1   8  470.40   40.06
   2   1   8  203.92   23.24
   2   1   8  225.40   31.57
   2   1   8  183.36   21.44
   2   1   8  235.93   23.14
   2   1   8  206.05   21.00
   3   1   8   17.27   19.80
   3   1   8   -3.06   16.43
   4   1   8  803.17   50.71
   4   1   8  819.14   55.41
   5   1   8  453.92   44.44
   5   1   8  471.80   41.93
   6   1   8   93.59   28.08
   7   1   8   45.26   29.81
   3  -2  -8  386.32   45.21
  -3   2   8  253.62   37.32
  -3   2   8  297.65   46.61
   3  -2  -8  313.50   43.68
  -3   2   8  290.80   41.78
   3  -2  -8  190.82   34.39
   2  -2  -8   -4.57   19.33
  -2   2   8   24.32   26.13
  -2   2   8   19.93   23.07
  -2   2   8  -57.17   24.54
   2  -2  -8   32.42   26.25
  -2   2   8   21.58   23.06
   2  -2  -8   27.73   23.70
  -2   2   8   34.00   28.14
   1  -2  -8   94.84   26.57
  -1   2   8   -0.27   25.68
  -1   2   8   86.44   23.80
   1  -2  -8   67.09   22.22
   1  -2  -8   69.23   22.44
  -1   2   8   59.03   22.74
  -1   2   8   63.73   26.67
  -1   2   8   74.16   26.94
  -1   2   8   51.83   23.72
   1  -2  -8   29.90   19.02
   1  -2  -8  114.13   32.04
  -1   2   8  101.00   28.74
   0   2   8  359.53   37.71
   0  -2  -8  357.89   28.79
   0  -2  -8  331.29   27.41
   0  -2  -8  303.82   25.17
   0  -2  -8  367.23   41.59
   0   2   8  327.03   36.21
   0   2   8  395.58   39.62
   0   2   8  347.00   31.48
   0  -2  -8  364.97   36.94
   0   2   8  398.47   38.68
   0   2   8  324.55   34.95
   0   2   8  308.96   32.81
   1   2   8  322.74   37.66
   1   2   8  366.14   34.92
   1   2   8  328.09   29.37
   1   2   8  248.63   25.39
   1   2   8  291.61   30.22
   1   2   8  353.16   31.08
   1   2   8  318.06   24.85
   1   2   8  299.63   31.19
  -1  -2  -8  333.70   34.48
  -1  -2  -8  312.90   37.94
  -2  -2  -8  234.43   35.20
   2   2   8  229.95   23.35
   2   2   8  175.13   22.79
   2   2   8  211.67   21.59
   2   2   8  221.10   27.43
   2   2   8  200.75   20.76
   2   2   8  250.78   30.06
   2   2   8  193.14   21.72
   3   2   8  284.09   32.38
   3   2   8  253.27   26.14
   4   2   8   48.58   20.13
   4   2   8   42.02   22.05
   5   2   8  148.87   28.28
   5   2   8  123.87   28.17
   6   2   8  -19.21   22.27
   7   2   8  250.55   44.52
   7   2   8  256.38   48.46
   3  -3  -8  106.29   34.18
   3  -3  -8   89.85   32.58
  -3   3   8  150.76   40.05
  -3   3   8  102.79   30.63
  -3   3   8   77.38   30.01
   3  -3  -8   72.77   29.07
  -2   3   8   31.54   23.79
  -2   3   8   29.98   29.76
   2  -3  -8   14.86   23.15
  -2   3   8   -4.89   21.68
   2  -3  -8   -0.60   21.47
   2  -3  -8   37.25   27.33
   1  -3  -8  205.40   35.06
  -1   3   8  204.33   29.51
   1  -3  -8  196.67   30.89
   1  -3  -8  193.06   29.80
  -1   3   8  225.47   37.10
   1  -3  -8  242.05   28.82
   1  -3  -8  140.54   25.33
  -1   3   8  221.72   31.59
  -1   3   8  214.37   33.76
  -1   3   8  189.72   33.92
   0   3   8  398.81   39.17
   0  -3  -8  294.85   28.71
   0   3   8  368.36   37.35
   0  -3  -8  372.62   42.33
   0   3   8  295.82   33.42
   0  -3  -8  311.58   26.66
   0   3   8  388.42   38.76
   0   3   8  414.47   37.69
   0   3   8  287.17   31.21
   0  -3  -8  313.06   34.61
   0   3   8  256.86   36.20
   0  -3  -8  359.04   42.20
  -1  -3  -8   62.76   21.04
   1   3   8   77.81   22.34
  -1  -3  -8   49.19   25.89
   1   3   8   83.64   23.87
   1   3   8   61.50   22.38
   1   3   8   94.98   18.73
   1   3   8   59.47   20.59
   1   3   8   75.19   16.05
   1   3   8  104.23   22.37
  -1  -3  -8   31.93   29.32
   2   3   8   21.76   18.24
   2   3   8    7.41   15.49
   2   3   8    7.21   16.82
   2   3   8  -37.76   14.97
   2   3   8   14.53   15.71
  -2  -3  -8   21.10   26.35
   2   3   8   25.08   17.38
  -2  -3  -8  -15.15   21.64
   3   3   8 1266.77   69.36
   3   3   8 1264.31   64.65
  -3  -3  -8 1402.64   82.07
   3   3   8 1200.86   58.58
   3   3   8 1197.80   57.73
  -3  -3  -8 1245.66   74.45
   3   3   8 1185.89   60.04
   4   3   8  205.97   33.18
   4   3   8  191.99   27.19
  -4  -3  -8  191.19   40.05
   5   3   8   -9.65   24.66
  -5  -3  -8   -2.13   31.24
   5   3   8  -19.34   19.61
   6   3   8    5.66   27.57
  -6  -3  -8   51.75   34.35
   7   3   8  719.47   71.38
   3  -4  -8  152.74   38.19
   3  -4  -8  176.03   40.38
   3  -4  -8  160.44   34.87
  -3   4   8  151.65   36.10
  -3   4   8  138.96   39.92
  -3   4   8  155.10   34.99
  -2   4   8  632.45   60.73
   2  -4  -8  612.99   51.60
   2  -4  -8  597.26   47.53
   2  -4  -8  488.96   54.18
  -2   4   8  479.67   49.78
  -2   4   8  535.53   49.13
  -1   4   8   10.59   22.25
  -1   4   8   38.84   22.44
   1  -4  -8   49.20   25.91
  -1   4   8    8.01   25.09
   1  -4  -8   51.18   27.55
  -1   4   8   63.59   29.77
   1  -4  -8   18.07   21.47
   1  -4  -8   53.93   22.19
   1  -4  -8   55.26   23.38
   0  -4  -8   47.07   26.51
   0   4   8    7.98   25.37
   0  -4  -8   25.11   17.13
   0  -4  -8   13.97   19.11
   0   4   8  -13.85   23.24
   0  -4  -8    6.41   25.86
   0   4   8   49.86   21.84
   0   4   8   -2.86   22.98
   0  -4  -8    8.56   16.35
   0   4   8   40.27   20.03
   1   4   8  240.87   27.43
  -1  -4  -8  235.76   27.52
  -1  -4  -8  192.99   34.06
   1   4   8  235.79   31.49
   1   4   8  188.96   25.80
  -1  -4  -8  233.57   38.36
   1   4   8  150.08   27.02
   1   4   8  239.30   30.61
   1   4   8  251.51   32.79
   2   4   8  634.11   37.72
   2   4   8  619.92   41.01
   2   4   8  603.24   41.83
   2   4   8  590.99   44.04
  -2  -4  -8  556.15   53.31
  -2  -4  -8  616.37   50.69
   2   4   8  510.04   34.95
   2   4   8  558.35   40.44
   2   4   8  574.46   39.08
  -3  -4  -8   13.23   22.72
   3   4   8    5.34   16.13
   3   4   8    3.70   19.46
   3   4   8   35.68   16.53
   3   4   8   55.19   17.18
  -3  -4  -8   -3.48   27.19
   3   4   8   33.16   15.85
   3   4   8   -3.13   14.84
   4   4   8   40.21   14.35
  -4  -4  -8   32.87   30.95
   4   4   8   30.14   13.53
   4   4   8   54.97   15.16
   4   4   8   -1.15   21.68
  -4  -4  -8   66.44   26.59
   4   4   8   42.67   17.62
   5   4   8  753.78   58.28
   5   4   8  762.99   45.23
  -5  -4  -8  633.13   62.84
   6   4   8  141.02   34.93
  -6  -4  -8  127.41   38.06
   6   4   8  143.97   26.10
   7   4   8   74.24   20.71
  -7  -4  -8  121.83   41.43
   7   4   8  122.16   40.46
   2  -5  -8   91.71   35.61
  -2   5   8  201.10   36.76
   2  -5  -8  141.31   31.82
  -2   5   8  190.12   41.98
   2  -5  -8  163.48   36.02
  -2   5   8  209.84   37.15
   2  -5  -8  262.70   34.16
   1  -5  -8   10.21   20.36
  -1   5   8  -30.57   20.46
   1  -5  -8    5.43   25.60
   1  -5  -8   15.47   24.84
  -1   5   8   11.40   22.72
  -1   5   8    0.11   27.41
   1  -5  -8  -21.34   20.73
   1  -5  -8   44.85   23.27
   0   5   8  477.12   44.46
   0   5   8  502.73   49.60
   0   5   8  559.20   50.83
   0  -5  -8  550.99   40.27
   0   5   8  425.51   41.06
   0  -5  -8  520.66   52.06
   0  -5  -8  515.23   40.05
   0   5   8  595.07   48.69
   0  -5  -8  503.26   37.59
   0  -5  -8  512.15   48.73
  -1  -5  -8   -5.90   25.86
   1   5   8  -20.23   22.01
   1   5   8   41.83   23.34
  -1  -5  -8   -0.41   16.24
   1   5   8   -7.75   16.87
   1   5   8   -1.53   20.69
  -1  -5  -8   34.97   26.93
   1   5   8   10.07   20.00
  -1  -5  -8   27.34   15.20
   2   5   8  145.33   26.87
  -2  -5  -8  177.61   32.14
  -2  -5  -8  159.06   35.33
   2   5   8  136.70   28.02
   2   5   8  168.76   23.50
   2   5   8   91.77   23.98
   2   5   8  169.13   26.91
   3   5   8    2.08   18.80
  -3  -5  -8   -7.76   26.46
   3   5   8   33.01   22.73
   3   5   8    4.98   17.42
   3   5   8    2.86   17.00
  -3  -5  -8   21.69   24.48
   3   5   8    6.55   13.74
   3   5   8    1.21   15.93
  -4  -5  -8  215.78   39.66
   4   5   8  216.69   25.24
   4   5   8  217.71   34.51
   4   5   8  221.44   26.01
  -4  -5  -8  234.84   34.23
   4   5   8  220.71   23.65
   5   5   8    2.73   14.14
   5   5   8    3.08   16.23
   5   5   8   15.61   25.30
   5   5   8   -1.50   15.97
  -5  -5  -8   37.46   30.04
   6   5   8   45.37   18.05
  -6  -5  -8   54.17   36.55
   6   5   8   51.37   20.79
   6   5   8   63.91   19.21
   6   5   8   19.95   28.61
   6   5   8   92.06   21.20
   7   5   8   -0.19   19.87
  -7  -5  -8  -17.79   31.87
   7   5   8   41.47   33.75
  -1   6   8   85.21   29.66
   1  -6  -8   86.69   35.87
  -1   6   8   47.54   28.63
   1  -6  -8  147.11   33.70
   1  -6  -8  100.83   28.28
   1  -6  -8   42.13   24.57
  -1   6   8   82.65   35.93
   1  -6  -8   91.32   29.76
   0  -6  -8  378.94   49.73
   0  -6  -8  459.26   36.75
   0  -6  -8  421.87   36.75
   0   6   8  365.03   43.59
   0  -6  -8  537.08   49.16
   0   6   8  499.84   51.96
   0   6   8  381.49   41.62
  -1  -6  -8  137.95   33.69
   1   6   8  160.91   33.29
  -1  -6  -8  121.89   20.52
  -1  -6  -8  169.68   35.63
  -1  -6  -8  129.52   20.92
   1   6   8  110.56   26.93
  -1  -6  -8  109.89   21.93
   1   6   8  157.55   31.32
   1   6   8  119.25   26.77
  -2  -6  -8    5.98   26.85
   2   6   8    1.89   17.48
   2   6   8   -2.18   18.79
   2   6   8    4.62   20.76
  -2  -6  -8  -30.21   21.43
   2   6   8  -36.65   19.97
   2   6   8   -2.82   20.47
  -3  -6  -8  -10.16   28.59
   3   6   8  -16.47   18.12
   3   6   8  -16.09   15.07
   3   6   8  -13.03   17.60
   3   6   8   13.04   20.40
   3   6   8   47.00   22.67
  -3  -6  -8  -29.79   21.70
   4   6   8   47.84   22.41
   4   6   8  113.70   30.27
   4   6   8  125.53   22.89
   4   6   8  109.13   21.09
  -4  -6  -8   96.95   29.12
   4   6   8   91.73   18.77
   4   6   8   99.12   25.23
  -4  -6  -8  129.18   37.13
   5   6   8  332.96   31.34
   5   6   8  281.36   27.39
  -5  -6  -8  326.29   47.16
   5   6   8  294.73   33.44
  -5  -6  -8  412.07   42.01
   5   6   8  325.45   43.80
  -6  -6  -8   50.18   35.31
   6   6   8   38.07   16.49
   6   6   8   76.39   20.77
   6   6   8   42.13   30.69
   0  -7  -8   14.42   30.57
   0  -7  -8   -5.82   22.38
   0   7   8    7.21   24.20
   0  -7  -8    5.61   28.99
   0   7   8  -38.94   29.46
   0   7   8  -15.65   24.34
   1   7   8  208.39   32.97
   1   7   8  144.47   35.52
  -1  -7  -8  173.25   26.14
  -1  -7  -8  279.66   42.00
   1   7   8  128.05   31.40
  -1  -7  -8  226.06   41.73
   2   7   8   23.34   26.96
  -2  -7  -8   29.42   31.49
  -2  -7  -8   40.78   30.85
   2   7   8    0.54   20.32
   2   7   8   13.90   23.32
   3   7   8  286.00   38.61
  -3  -7  -8  300.21   45.73
   3   7   8  235.84   33.63
  -3  -7  -8  240.69   37.67
   3   7   8  228.38   29.98
   3   7   8  261.39   34.25
   4   7   8  -27.15   17.84
  -4  -7  -8   17.03   27.32
  -4  -7  -8   13.94   33.92
   4   7   8   -6.06   24.99
   4   7   8   27.42   22.51
   4   7   8   -3.30   20.75
  -5  -7  -8  244.09   46.08
   5   7   8  262.29   33.01
   5   7   8  176.77   26.90
   5   7   8  311.04   44.56
   5   7   8  199.13   29.24
  -5  -7  -8  305.37   38.69
   5   7   8  293.08   37.57
   2   8   8  210.44   41.48
   2   8   8  281.75   38.81
   2   8   8  213.43   36.68
  -2  -8  -8  326.21   49.79
  -2  -8  -8  266.40   45.49
  -3  -8  -8   19.27   35.21
   3   8   8  -21.43   21.89
  -3  -8  -8   30.60   30.46
   3   8   8  -17.72   28.24
   3   8   8   36.10   24.74
  -4  -8  -8  -14.75   32.52
   4   8   8    6.56   22.54
  -4  -8  -8   -3.13   27.86
   4   8   8   16.54   23.43
   4   8   8  -40.44   25.70
  -1  -4   9  106.17   35.14
  -1  -4   9    9.46   28.85
   1   4  -9  100.63   27.99
  -1  -4   9  101.16   32.10
  -1  -4   9   35.08   27.16
   0  -4   9  -32.31   26.37
   0  -4   9  -56.05   25.64
   0  -4   9  -40.21   20.41
   0  -4   9  -20.54   22.35
   0   4  -9  -19.29   20.82
   1  -4   9  416.45   55.28
   1  -4   9  509.39   47.21
   1  -4   9  604.19   52.83
   1  -4   9  481.00   45.92
   2  -4   9   15.70   22.69
   2  -4   9   12.06   26.90
   2  -4   9  -34.45   22.41
   2  -4   9    0.65   20.22
   3  -4   9  123.70   28.07
   3  -4   9  107.31   28.79
   3  -4   9  189.47   32.81
   3  -4   9   97.36   35.53
  -2  -3   9  107.35   32.15
  -2  -3   9   84.47   35.18
  -2  -3   9   65.76   29.87
  -2  -3   9   61.22   35.26
   2   3  -9  105.51   29.82
  -1  -3   9  306.88   41.38
  -1  -3   9  295.23   46.88
   1   3  -9  378.84   37.13
  -1  -3   9  463.20   50.18
   1   3  -9  310.01   35.60
  -1  -3   9  320.21   40.44
   1   3  -9  478.85   42.55
   0   3  -9  150.45   26.51
   0  -3   9  164.71   35.34
   0   3  -9  187.64   27.27
   0  -3   9  221.61   32.49
   0  -3   9  204.80   40.35
   0  -3   9  210.63   33.32
   1  -3   9  -25.83   18.04
   1  -3   9   16.50   22.75
   1  -3   9   38.38   29.25
   1  -3   9   16.22   21.55
   1  -3   9    1.96   23.47
   2  -3   9   40.71   21.68
   2  -3   9   30.71   20.62
   2  -3   9   31.94   28.35
   2  -3   9   38.57   23.85
   2  -3   9   34.47   21.09
   3  -3   9  195.85   29.12
   3  -3   9  197.24   29.17
   3  -3   9  281.18   42.03
   3  -3   9  240.98   33.48
   3  -3   9  251.19   30.34
   4  -3   9  132.02   35.31
   4  -3   9  112.71   24.70
   4  -3   9  155.75   25.91
   4  -3   9  166.68   29.71
   4  -3   9  146.34   27.77
  -2  -2   9  507.51   58.00
   2   2  -9  722.49   54.12
  -2  -2   9  638.75   53.89
   2   2  -9  534.27   46.22
  -2  -2   9  612.19   60.00
  -2  -2   9  629.21   52.77
   1   2  -9   12.08   19.79
  -1  -2   9   16.10   26.94
  -1  -2   9   16.00   21.10
  -1  -2   9   16.11   26.06
  -1  -2   9    2.36   21.48
   1   2  -9   -6.99   15.77
   0   2  -9   -9.15   16.42
   0   2  -9   22.44   16.18
   0  -2   9   20.46   23.75
   0  -2   9   -1.03   26.43
   0  -2   9  -21.40   18.36
   0  -2   9   19.57   20.20
   0   2  -9    3.11   16.41
   0   2  -9   -8.14   16.95
   0  -2   9   34.12   24.65
   1  -2   9   23.50   20.26
   1  -2   9   -2.38   24.38
  -1   2  -9   20.13   16.77
   1  -2   9   12.31   20.70
   1  -2   9   36.75   21.06
   1  -2   9   31.52   23.69
   1  -2   9   -6.57   20.10
   2  -2   9  581.73   41.37
   2  -2   9  531.27   41.93
   2  -2   9  598.98   57.51
  -2   2  -9  619.77   44.19
   2  -2   9  581.52   45.16
   2  -2   9  582.54   40.72
   2  -2   9  598.08   43.71
   3  -2   9   -6.97   18.12
   3  -2   9  -16.74   15.50
   3  -2   9   18.80   25.44
   3  -2   9   -0.56   15.10
   3  -2   9   21.69   18.28
   3  -2   9  -23.71   15.95
   4  -2   9   35.05   18.41
   4  -2   9    2.44   19.37
   4  -2   9    9.88   16.08
   4  -2   9   33.27   27.52
   4  -2   9    9.73   17.34
   5  -2   9   52.10   18.66
   5  -2   9   61.87   21.17
   5  -2   9   64.66   23.16
   5  -2   9   82.85   34.11
  -3  -1   9   68.16   30.39
  -3  -1   9   69.54   35.01
  -3  -1   9    5.94   28.85
   3   1  -9   33.93   28.53
   3   1  -9   59.65   32.98
  -2  -1   9   54.77   32.49
  -2  -1   9   36.15   25.67
  -2  -1   9   64.85   31.88
   2   1  -9   35.15   24.75
  -2  -1   9   43.87   26.36
   2   1  -9   37.89   27.20
  -1  -1   9   61.48   25.10
  -1  -1   9  114.01   32.16
  -1  -1   9   49.63   19.35
  -1  -1   9  102.15   29.76
   1   1  -9   87.47   22.50
   1   1  -9   72.79   16.92
  -1  -1   9   62.90   29.36
  -1  -1   9   58.08   23.91
   0   1  -9  158.56   20.34
   0  -1   9  142.95   29.53
   0  -1   9  110.14   24.98
   0   1  -9  146.23   20.85
   0  -1   9  114.49   28.65
   0  -1   9   79.96   29.44
   0  -1   9  135.99   26.18
   0  -1   9   93.37   27.80
   1  -1   9  527.37   39.79
   1  -1   9  712.81   47.56
   1  -1   9  541.70   45.01
   1  -1   9  653.34   54.19
   1  -1   9  502.28   40.84
   1  -1   9  552.57   43.47
  -1   1  -9  540.58   37.55
   2  -1   9   66.62   22.29
   2  -1   9   42.30   19.20
   2  -1   9   43.44   27.26
   2  -1   9   52.87   18.28
   2  -1   9   74.41   20.58
   2  -1   9   49.85   16.42
   3  -1   9   -4.41   15.07
   3  -1   9   -6.47   15.99
   3  -1   9   40.50   16.61
   3  -1   9   18.76   24.17
   4  -1   9  295.77   27.86
   4  -1   9  266.48   26.30
   4  -1   9  311.89   41.15
   4  -1   9  282.15   26.63
   5  -1   9  159.74   38.35
   5  -1   9  193.78   24.76
   5  -1   9  177.42   34.60
   5  -1   9  198.95   23.05
   6  -1   9   49.48   31.50
   6  -1   9  100.58   32.94
   6  -1   9   72.33   20.82
  -3   0   9  198.64   44.41
  -3   0   9  207.75   37.51
   3   0  -9  307.22   43.35
  -3   0   9  192.96   38.65
  -3   0   9  306.26   46.10
   3   0  -9  283.65   38.58
   3   0  -9  311.58   46.91
   2   0  -9    6.90   27.54
  -2   0   9   34.12   29.27
  -2   0   9   -8.14   22.24
  -2   0   9    7.40   23.93
   2   0  -9    0.08   23.50
   2   0  -9   21.63   23.05
  -2   0   9   -6.00   27.54
   1   0  -9  202.01   38.29
  -1   0   9  130.10   27.43
  -1   0   9  150.72   32.05
  -1   0   9  176.48   35.18
   1   0  -9  137.92   25.30
  -1   0   9  129.16   27.38
   1   0  -9  176.27   25.77
  -1   0   9  126.01   34.17
   0   0   9  -35.10   15.20
   0   0   9   -7.04   19.83
   0   0   9  -15.34   18.39
   0   0   9   -9.45   19.73
   0   0   9   22.25   23.52
   0   0   9   -4.02   22.93
   1   0   9  489.82   41.67
   1   0   9  503.71   39.69
   1   0   9  523.50   39.29
   1   0   9  485.51   47.68
   1   0   9  409.06   34.43
   1   0   9  409.39   36.45
   2   0   9    3.33   15.53
   2   0   9   -2.36   13.53
   2   0   9   -7.89   14.20
   2   0   9  -19.87   14.97
   2   0   9   -2.64   17.14
   2   0   9   14.36   24.18
   3   0   9  357.34   29.79
   3   0   9  421.96   44.05
   3   0   9  332.42   27.76
   3   0   9  354.03   28.88
   3   0   9  367.28   30.09
   4   0   9  139.59   30.78
   4   0   9  148.52   28.33
   5   0   9  350.02   45.88
   5   0   9  372.82   40.48
   6   0   9   -6.13   24.48
   6   0   9   63.38   31.06
  -3   1   9   67.77   37.10
   3  -1  -9   -4.46   28.08
  -3   1   9   43.00   33.35
   3  -1  -9   27.29   26.56
   3  -1  -9    7.67   31.13
  -3   1   9   23.24   27.45
  -3   1   9    3.99   28.02
   2  -1  -9    5.30   23.29
   2  -1  -9   21.52   22.68
  -2   1   9  -10.41   22.28
   2  -1  -9   -6.49   26.86
  -2   1   9   25.74   24.79
  -2   1   9   61.63   31.10
  -2   1   9   40.01   28.99
  -1   1   9  809.34   56.60
   1  -1  -9  815.03   61.68
   1  -1  -9  720.84   48.18
  -1   1   9  632.71   48.98
  -1   1   9  811.01   59.96
  -1   1   9  708.76   53.82
  -1   1   9  626.77   50.91
  -1   1   9  780.83   57.80
   1  -1  -9  695.66   44.81
   0  -1  -9  201.43   21.04
   0   1   9  206.98   31.70
   0   1   9  227.45   34.18
   0   1   9  229.72   30.61
   0   1   9  233.31   36.04
   0   1   9  292.44   33.89
   0   1   9  219.08   28.54
   0  -1  -9  197.73   38.32
   1   1   9  151.64   24.67
   1   1   9  152.42   21.81
   1   1   9  185.77   32.63
   1   1   9  130.98   25.40
   1   1   9  166.26   28.26
  -1  -1  -9  180.25   32.48
   1   1   9  155.24   26.01
   2   1   9    6.28   15.89
   2   1   9   79.93   21.07
   2   1   9   21.99   16.05
   2   1   9   25.56   18.00
   2   1   9   47.86   25.86
   3   1   9  881.38   60.25
   3   1   9  842.96   49.50
   3   1   9  825.82   44.50
   3   1   9  833.01   45.67
   4   1   9  615.35   44.63
   4   1   9  563.28   49.30
   5   1   9   36.37   22.22
   5   1   9   -9.50   22.85
   6   1   9   39.60   25.74
   6   1   9   -9.94   24.52
  -2   2   9  677.23   61.47
   2  -2  -9  735.32   53.38
  -2   2   9  473.18   49.97
  -2   2   9  616.33   57.92
  -2   2   9  545.33   53.99
   2  -2  -9  632.58   47.67
   2  -2  -9  817.84   64.62
  -1   2   9   17.15   23.39
  -1   2   9  -14.74   24.80
   1  -2  -9   27.59   26.80
  -1   2   9    0.18   20.80
   1  -2  -9   24.27   19.35
  -1   2   9   -1.51   20.77
  -1   2   9  -20.67   22.72
  -1   2   9  -18.48   27.11
   0   2   9   47.63   24.01
   0   2   9   37.96   19.10
   0   2   9   37.35   21.38
   0  -2  -9   13.97   22.73
   0  -2  -9   72.23   28.13
   0   2   9   44.81   26.48
   0   2   9   64.80   25.13
   0   2   9   57.03   25.23
   1   2   9  411.73   36.35
   1   2   9  410.26   35.82
  -1  -2  -9  398.85   40.11
  -1  -2  -9  306.90   42.07
   1   2   9  345.11   32.87
   1   2   9  368.51   27.00
   1   2   9  286.24   29.04
   1   2   9  321.03   36.30
   1   2   9  321.68   38.84
  -2  -2  -9  416.83   45.81
   2   2   9  350.33   32.51
   2   2   9  407.28   34.47
   2   2   9  434.11   36.64
   2   2   9  391.21   31.64
   2   2   9  418.25   40.17
   3   2   9    5.00   21.72
   3   2   9   21.83   14.76
   3   2   9   -3.67   16.37
   3   2   9   -5.20   21.56
   3   2   9    4.35   14.21
   4   2   9  169.23   26.21
   4   2   9  249.94   32.44
   5   2   9    9.20   20.83
   5   2   9    7.27   21.12
   6   2   9  435.87   46.88
   6   2   9  483.86   48.33
   7   2   9   24.94   34.30
   7   2   9  -11.02   30.50
  -2   3   9  335.08   47.41
   2  -3  -9  203.17   41.31
   2  -3  -9  297.21   35.98
  -2   3   9  262.56   38.03
   2  -3  -9  209.43   36.03
  -2   3   9  201.49   36.30
   1  -3  -9   91.81   22.82
  -1   3   9   86.13   26.61
  -1   3   9  100.05   30.64
  -1   3   9   25.77   23.23
   1  -3  -9   74.94   31.97
  -1   3   9   77.66   31.64
   0   3   9  400.32   42.94
   0   3   9  334.45   37.43
   0   3   9  313.71   37.49
   0   3   9  329.04   39.37
   0   3   9  325.48   34.74
   0   3   9  356.22   39.21
   0  -3  -9  410.79   46.91
   0  -3  -9  422.62   39.24
   0  -3  -9  355.75   29.68
   0  -3  -9  307.82   27.64
   1   3   9   15.13   19.81
   1   3   9   40.70   19.94
   1   3   9   -8.95   15.37
   1   3   9  -19.20   18.59
   1   3   9   36.28   23.05
  -1  -3  -9   14.95   21.49
   1   3   9   44.62   21.36
  -1  -3  -9    3.11   25.45
   2   3   9  226.85   29.62
   2   3   9  169.93   25.68
   2   3   9  169.14   24.40
  -2  -3  -9  218.42   36.07
   2   3   9  187.15   24.01
   2   3   9  155.93   23.56
   2   3   9  203.85   27.63
   2   3   9  124.04   19.11
  -3  -3  -9   55.08   27.79
   3   3   9   45.12   17.72
   3   3   9   18.74   21.86
   3   3   9   31.41   15.95
   3   3   9   34.40   20.58
   3   3   9    0.79   15.30
   3   3   9   44.51   16.99
   3   3   9    8.42   17.17
  -3  -3  -9   60.93   31.97
  -4  -3  -9  416.80   53.52
   4   3   9  440.40   39.36
   4   3   9  499.40   46.24
   4   3   9  439.37   36.14
   5   3   9   83.14   24.33
   5   3   9   37.55   27.53
   5   3   9   27.63   21.87
   6   3   9  260.82   44.83
   6   3   9  312.67   38.21
   6   3   9  299.55   43.41
   7   3   9    1.69   26.36
   7   3   9   36.99   33.63
   7   3   9   19.45   38.78
   2  -4  -9    7.42   24.18
  -2   4   9   16.92   27.29
  -2   4   9   24.71   32.05
   2  -4  -9   25.88   31.90
  -2   4   9   27.11   28.00
   2  -4  -9   77.87   30.68
  -1   4   9  142.91   37.22
   1  -4  -9  122.65   27.08
  -1   4   9  107.67   29.16
   1  -4  -9   60.19   31.44
  -1   4   9   70.44   27.06
   1  -4  -9  103.21   24.34
   0  -4  -9   91.93   24.69
   0  -4  -9   39.83   31.37
   0   4   9   59.74   24.53
   0   4   9   40.47   22.49
   0   4   9   58.63   27.00
   0   4   9   30.81   26.23
   0   4   9   33.71   20.86
   0  -4  -9   59.27   28.73
   0  -4  -9   47.32   17.43
   0  -4  -9   29.67   17.68
   0  -4  -9   32.89   18.00
   1   4   9  627.05   43.78
  -1  -4  -9  572.30   55.39
  -1  -4  -9  618.38   45.28
   1   4   9  629.96   46.75
   1   4   9  620.21   45.72
   1   4   9  670.28   51.15
  -1  -4  -9  694.52   58.10
   1   4   9  638.28   50.54
   1   4   9  515.63   41.39
  -2  -4  -9   11.44   30.25
   2   4   9    4.13   21.27
   2   4   9   19.15   19.09
   2   4   9   33.37   16.29
  -2  -4  -9   15.37   26.57
   2   4   9   55.45   21.30
   2   4   9   14.97   18.98
   2   4   9   13.36   18.99
   2   4   9   21.50   18.36
   3   4   9   65.80   18.78
  -3  -4  -9   93.96   29.43
   3   4   9  100.37   24.91
   3   4   9   63.52   19.37
   3   4   9   82.44   20.14
   3   4   9   72.62   20.76
  -3  -4  -9   99.90   34.79
   4   4   9  270.54   35.17
  -4  -4  -9  261.03   44.12
   4   4   9  212.26   22.21
   4   4   9  303.42   28.72
  -5  -4  -9  137.08   38.88
   5   4   9   77.73   21.94
   5   4   9   40.76   28.12
  -6  -4  -9  144.62   41.42
   6   4   9   91.45   34.41
   6   4   9  111.06   26.53
   1  -5  -9  209.58   31.12
  -1   5   9  175.89   40.21
   1  -5  -9  275.19   39.38
  -1   5   9  235.17   37.60
   1  -5  -9  177.45   39.31
  -1   5   9  110.39   31.29
   0  -5  -9  103.22   22.08
   0  -5  -9  134.55   34.89
   0  -5  -9  134.61   28.83
   0   5   9   63.54   31.95
   0   5   9  109.64   27.02
   0  -5  -9  121.48   34.62
   0   5   9   39.91   24.88
   1   5   9  172.89   31.75
   1   5   9  183.44   35.21
   1   5   9  185.24   30.32
   1   5   9  178.03   27.87
  -1  -5  -9  218.72   27.70
  -1  -5  -9  306.98   43.13
  -1  -5  -9  198.75   37.36
   2   5   9   76.56   24.36
   2   5   9   81.29   20.25
   2   5   9  109.35   26.96
  -2  -5  -9  193.74   37.16
  -2  -5  -9  101.71   33.55
   2   5   9  110.37   24.77
   2   5   9   90.26   24.88
  -3  -5  -9  302.81   41.19
   3   5   9  351.07   34.03
   3   5   9  284.01   28.59
  -3  -5  -9  296.74   45.27
   3   5   9  241.93   29.23
   3   5   9  329.08   31.41
   3   5   9  293.62   35.96
   3   5   9  213.27   24.79
   4   5   9   58.29   20.04
  -4  -5  -9  143.64   33.02
   4   5   9   61.47   20.88
   4   5   9  107.19   19.25
   4   5   9   98.46   28.88
  -4  -5  -9   89.75   36.25
   5   5   9  309.60   28.37
  -5  -5  -9  363.42   51.84
   5   5   9  277.34   25.57
   5   5   9  274.62   25.19
   5   5   9  332.42   28.96
   5   5   9  227.41   38.19
  -6  -5  -9  -32.18   31.73
   6   5   9   42.74   19.07
   6   5   9   23.76   28.92
   0   6   9  -14.40   22.90
   0  -6  -9  -15.00   19.32
   0  -6  -9   10.54   29.24
   0   6   9  -33.43   29.01
   0   6   9   14.12   25.16
   0  -6  -9    7.86   21.07
   0  -6  -9   33.15   32.54
   1   6   9  810.37   62.41
  -1  -6  -9  838.43   65.26
  -1  -6  -9  780.12   47.72
   1   6   9  755.33   57.40
   1   6   9  687.94   53.29
  -1  -6  -9  760.50   63.00
   2   6   9  166.75   33.32
  -2  -6  -9  252.53   41.97
  -2  -6  -9  194.17   37.51
   2   6   9  190.14   28.11
   2   6   9  159.62   30.09
   2   6   9  149.16   29.56
   3   6   9   -0.57   18.74
  -3  -6  -9  -12.96   28.65
   3   6   9  -23.87   22.71
   3   6   9   -9.65   18.45
   3   6   9    9.19   17.44
  -3  -6  -9    7.59   26.55
   4   6   9   54.42   27.87
   4   6   9   66.75   18.46
  -4  -6  -9   57.08   29.68
   4   6   9    6.35   18.91
  -4  -6  -9   40.06   34.33
   4   6   9   56.16   24.04
   4   6   9   51.52   20.44
  -5  -6  -9  276.69   39.90
   5   6   9  187.43   25.50
   5   6   9  181.43   28.56
  -5  -6  -9  149.88   42.87
   5   6   9  142.89   35.97
   6   6   9   64.56   34.14
  -6  -6  -9   82.34   39.05
  -1  -7  -9   63.02   35.78
   1   7   9   60.54   27.76
  -1  -7  -9   39.32   33.17
   1   7   9   28.59   26.20
   1   7   9    7.57   30.86
   2   7   9  194.39   34.59
  -2  -7  -9  168.56   39.95
   2   7   9  202.29   38.68
  -2  -7  -9  219.11   44.55
   2   7   9  225.12   32.72
  -3  -7  -9    1.45   28.89
  -3  -7  -9   21.12   32.56
   3   7   9  -58.34   17.48
   3   7   9   29.05   23.36
   3   7   9   15.57   27.09
   4   7   9  159.50   28.75
   4   7   9  120.77   31.34
  -4  -7  -9  156.15   43.34
   4   7   9  113.03   28.03
  -4  -7  -9  268.31   40.90
   4   7   9  122.17   25.36
   0  -3  10  209.78   35.51
   0  -3  10  197.81   43.97
   0  -3  10  226.94   36.44
   1  -3  10  210.96   34.03
   1  -3  10  129.64   33.95
   1  -3  10  159.65   39.61
   1  -3  10  104.55   29.92
   2  -3  10   78.56   28.57
   2  -3  10   80.29   35.22
   2  -3  10   91.19   26.38
   2  -3  10   78.92   25.73
   3  -3  10   28.07   20.74
   3  -3  10  -16.35   26.71
   3  -3  10   13.85   21.66
  -1  -2  10  238.79   45.39
  -1  -2  10  216.74   36.95
   1   2 -10  275.27   32.50
  -1  -2  10  258.36   43.84
  -1  -2  10  169.53   34.24
   0   2 -10   40.06   20.27
   0  -2  10   40.71   28.46
   0  -2  10   51.06   32.71
   0  -2  10    1.52   21.85
   0  -2  10   34.23   24.15
   1  -2  10  215.05   31.91
   1  -2  10  164.90   33.89
   1  -2  10  163.34   41.22
   1  -2  10  218.78   30.77
  -1   2 -10  198.09   29.05
   2  -2  10    6.63   27.26
   2  -2  10   -7.03   19.30
   2  -2  10   16.68   19.28
   2  -2  10   -1.30   22.65
   2  -2  10    5.87   19.80
   3  -2  10   42.05   20.00
   3  -2  10    5.75   25.65
   3  -2  10    5.30   17.59
   3  -2  10   -5.16   18.70
   3  -2  10   17.92   21.21
   4  -2  10   17.27   18.63
   4  -2  10   -7.90   18.40
   4  -2  10   48.94   32.64
   4  -2  10   58.63   19.76
   4  -2  10   31.01   23.30
  -1  -1  10  484.89   48.11
  -1  -1  10  458.59   47.19
  -1  -1  10  468.50   54.81
  -1  -1  10  601.39   55.60
   0  -1  10  251.16   32.60
   0  -1  10  287.57   44.58
   0   1 -10  258.56   25.08
   0  -1  10  159.51   30.07
   0  -1  10  247.04   38.95
   1  -1  10   10.09   19.20
   1  -1  10   -6.45   26.65
   1  -1  10    3.97   19.31
   1  -1  10   -1.50   21.33
   1  -1  10   -7.44   22.53
   2  -1  10   -8.89   20.77
   2  -1  10   -7.60   15.74
   2  -1  10   22.71   19.35
   2  -1  10   10.37   19.55
   2  -1  10   73.80   30.83
   3  -1  10  479.79   35.19
   3  -1  10  621.68   57.34
   3  -1  10  467.99   37.64
   3  -1  10  532.64   37.98
   3  -1  10  555.62   41.11
   4  -1  10  133.38   35.92
   4  -1  10  131.15   22.48
   4  -1  10   98.84   22.66
   5  -1  10   94.30   33.66
   5  -1  10   67.58   19.75
  -1   0  10   35.52   30.16
  -1   0  10   21.83   23.87
  -1   0  10  -13.82   20.95
   1   0 -10  -24.77   17.73
  -1   0  10   24.74   29.02
   0   0  10   60.67   22.90
   0   0  10   78.30   27.21
   0   0  10  131.76   35.46
   0   0  10  122.05   31.96
   0   0  10   82.70   25.04
   1   0  10   82.78   22.89
   1   0  10  125.99   26.45
   1   0  10   82.80   22.03
   1   0  10   91.67   26.69
   1   0  10  115.96   32.35
   2   0  10  774.93   49.55
   2   0  10  728.05   46.82
   2   0  10  685.03   44.53
   2   0  10  776.30   50.43
   2   0  10  830.63   61.09
   2   0  10  786.29   47.56
   3   0  10   -8.08   14.95
   3   0  10  -12.14   25.73
   3   0  10  -24.37   13.99
   3   0  10  -22.22   15.89
   4   0  10    1.65   16.38
   4   0  10  -12.19   23.96
   5   0  10  259.38   38.23
   5   0  10  220.04   39.02
   2  -1 -10   30.20   24.58
  -2   1  10   50.77   31.42
  -1   1  10   17.83   23.61
  -1   1  10   64.26   30.22
  -1   1  10   55.68   32.12
  -1   1  10   40.87   24.03
   1  -1 -10   39.32   20.74
   1  -1 -10   20.11   30.57
   0  -1 -10  194.99   40.69
   0   1  10  227.79   32.39
   0   1  10  235.01   39.03
   0   1  10  236.48   30.41
   0   1  10  207.02   34.87
   0   1  10  239.84   37.26
   1   1  10    3.59   20.99
   1   1  10   16.14   24.88
   1   1  10   -7.47   17.53
   1   1  10   -1.68   16.03
   1   1  10  -25.10   19.28
   2   1  10  219.79   25.14
   2   1  10  279.98   31.27
   2   1  10  263.74   28.37
   2   1  10  266.06   29.57
   2   1  10  307.39   39.61
   2   1  10  236.89   26.99
   3   1  10   76.35   29.41
   3   1  10  112.87   19.86
   3   1  10   96.69   20.34
   3   1  10   83.50   17.97
   4   1  10  126.28   26.26
   4   1  10  205.89   34.40
   5   1  10   11.86   25.44
   5   1  10   26.43   24.08
   6   1  10  220.57   39.45
   6   1  10  219.60   37.45
  -1   2  10  312.79   43.93
   1  -2 -10  281.33   30.53
  -1   2  10  222.83   35.57
  -1   2  10  383.90   46.80
   1  -2 -10  328.66   46.77
  -1   2  10  325.38   38.78
   0   2  10  124.48   30.62
   0   2  10   42.65   22.43
   0   2  10   88.98   31.41
   0   2  10  113.81   30.30
   0  -2 -10   70.43   30.70
   0   2  10  117.37   26.11
   1   2  10  245.52   28.15
  -1  -2 -10  231.11   40.53
   1   2  10  245.14   30.92
   1   2  10  221.18   31.60
   1   2  10  281.23   34.97
   1   2  10  265.41   23.38
   1   2  10  269.69   37.14
   2   2  10   63.38   19.88
   2   2  10   28.62   19.16
   2   2  10    8.82   20.22
   2   2  10   -2.60   17.09
   2   2  10   26.45   15.29
   2   2  10   27.56   20.80
   2   2  10    8.21   22.26
   3   2  10   64.38   16.95
   3   2  10   13.18   22.26
   3   2  10   54.55   17.26
   3   2  10   71.16   26.36
   3   2  10   84.76   20.38
   4   2  10    7.55   18.02
   4   2  10   59.44   25.22
   5   2  10  129.56   32.38
   5   2  10  186.05   30.78
   6   2  10  242.93   44.94
   6   2  10  222.05   37.55
   6   2  10  171.16   35.73
  -1   3  10  791.94   63.32
  -1   3  10  758.07   59.29
   1  -3 -10  580.46   60.63
  -1   3  10  534.24   50.63
  -1   3  10  659.26   54.95
   1  -3 -10  581.77   43.23
   0  -3 -10  349.18   47.75
   0   3  10  339.17   40.17
   0   3  10  385.88   45.07
   0   3  10  371.90   42.38
   0   3  10  286.11   35.73
  -1  -3 -10  -20.83   22.23
   1   3  10   19.98   17.92
  -1  -3 -10   14.15   28.55
   1   3  10   15.55   21.43
   1   3  10   -1.95   20.86
   1   3  10   -9.33   19.20
   1   3  10   24.81   24.94
   2   3  10  122.93   19.48
   2   3  10  156.34   24.06
   2   3  10  139.36   27.01
   2   3  10  158.24   24.11
  -2  -3 -10  147.32   33.78
   2   3  10  166.25   27.35
   2   3  10   67.12   21.95
   2   3  10  120.22   27.99
   3   3  10  562.39   43.98
   3   3  10  433.87   38.50
   3   3  10  509.29   34.38
   3   3  10  568.97   44.31
   3   3  10  562.61   36.92
   3   3  10  538.12   38.47
   4   3  10  152.39   32.94
   4   3  10  143.39   28.80
   4   3  10  103.08   23.18
   5   3  10   28.80   23.10
   5   3  10   22.72   28.48
   5   3  10   32.99   23.35
   6   3  10   17.00   28.67
   6   3  10   53.58   25.59
   6   3  10   21.88   32.04
   1  -4 -10   14.02   21.53
   1  -4 -10  -16.68   29.28
   0   4  10  224.91   40.78
   0   4  10  293.68   38.80
   0   4  10  176.81   32.85
   0  -4 -10  234.46   43.37
   0   4  10  144.53   29.97
  -1  -4 -10   96.31   28.08
   1   4  10   42.41   27.46
  -1  -4 -10   67.92   32.73
   1   4  10   41.78   21.74
   1   4  10   20.66   23.37
   1   4  10   86.38   25.22
   1   4  10   61.25   26.68
   2   4  10  171.13   26.75
  -2  -4 -10  164.99   37.32
  -2  -4 -10  185.77   44.07
   2   4  10  127.25   25.93
   2   4  10  135.10   29.24
   2   4  10  135.35   26.06
   2   4  10  143.15   24.52
   2   4  10  118.24   22.26
  -3  -4 -10  -23.48   26.02
  -3  -4 -10   -2.82   32.81
   3   4  10   -8.60   18.60
   3   4  10    0.64   21.30
   3   4  10    0.23   18.03
   3   4  10   10.55   18.60
   3   4  10   -1.20   17.05
   4   4  10   90.13   22.51
  -4  -4 -10   90.30   39.89
   4   4  10  110.58   23.65
   4   4  10   86.70   19.46
   4   4  10   86.64   28.36
   5   4  10   76.24   23.87
   5   4  10  139.04   29.38
  -5  -4 -10   57.40   40.35
   5   4  10   90.35   32.08
   6   4  10  142.73   28.40
   6   4  10  127.18   36.86
   0  -5 -10   76.08   35.64
   0   5  10  114.07   36.52
   0  -5 -10   70.73   28.60
   0   5  10   48.84   26.23
   0   5  10   54.62   28.22
   0  -5 -10   65.88   36.58
   1   5  10  -12.62   21.88
  -1  -5 -10   22.47   30.28
   1   5  10    9.44   26.02
   1   5  10   -4.69   20.26
  -1  -5 -10   22.36   33.93
  -1  -5 -10    8.08   23.60
   2   5  10  191.73   28.04
   2   5  10  295.81   38.04
   2   5  10  328.63   31.35
   2   5  10  181.59   31.81
  -2  -5 -10  158.37   39.82
   2   5  10  269.02   33.15
  -2  -5 -10  232.61   44.93
   3   5  10    2.30   18.54
   3   5  10    1.68   15.46
  -3  -5 -10  -19.12   30.86
  -3  -5 -10  -39.17   26.12
   3   5  10  -16.73   15.60
   3   5  10   -2.09   21.46
   3   5  10  -11.19   17.20
   3   5  10   27.67   23.15
  -4  -5 -10  636.68   56.44
   4   5  10  548.44   39.28
   4   5  10  545.15   42.48
   4   5  10  475.96   34.97
   4   5  10  570.99   51.43
  -4  -5 -10  613.77   63.93
  -5  -5 -10  -21.48   33.37
   5   5  10  -31.60   15.61
   5   5  10    5.56   25.97
   5   5  10   28.91   16.34
  -1  -6 -10  358.07   51.48
  -1  -6 -10  325.17   50.47
  -2  -6 -10  101.72   38.48
   2   6  10   72.70   30.00
  -2  -6 -10   75.48   35.44
   2   6  10   79.19   24.73
   2   6  10   51.99   25.63
   3   6  10  -35.44   16.85
  -3  -6 -10   12.10   28.72
   3   6  10   26.25   26.11
   3   6  10    9.89   20.61
  -3  -6 -10   34.79   34.87
   3   6  10    1.67   21.79
   4   6  10  136.94   25.97
   4   6  10   62.09   30.65
  -4  -6 -10  198.28   45.46
   4   6  10  138.72   25.89
   4   6  10  137.50   23.38
   4   6  10  151.98   30.93
  -4  -6 -10  193.26   38.94
   1  -1  11    1.15   26.41
   1  -1  11   17.82   22.17
   1  -1  11   37.77   22.68
   1  -1  11   11.03   30.61
   2  -1  11  180.01   31.57
   2  -1  11  128.70   27.24
   2  -1  11  120.49   26.40
   2  -1  11  175.87   30.24
   2  -1  11  104.20   36.04
   3  -1  11   80.01   20.78
   3  -1  11   90.10   36.39
   3  -1  11   58.92   22.43
   3  -1  11  101.76   27.61
   3  -1  11   50.61   21.01
   0   0  11  170.84   32.38
   0   0  11  128.41   29.88
   0   0  11  153.48   37.95
   1   0  11  354.81   49.92
   1   0  11  470.57   45.35
   1   0  11  305.76   35.39
   1   0  11  440.00   40.51
   2   0  11   29.65   24.35
   2   0  11   -5.74   17.85
   2   0  11  -40.14   26.92
   2   0  11   34.51   21.20
   2   0  11   18.48   20.77
   3   0  11  180.23   26.13
   3   0  11  192.85   28.35
   3   0  11  224.01   42.84
   4   0  11   23.41   17.73
   4   0  11   66.56   31.13
   0   1  11  216.00   32.33
   0   1  11  182.93   39.23
   0   1  11  184.20   33.27
   0   1  11  260.89   43.99
   1   1  11   51.45   28.67
   1   1  11   36.70   31.30
   1   1  11   47.17   24.16
   1   1  11   15.05   20.61
   1   1  11   57.98   19.12
   2   1  11    7.75   19.20
   2   1  11   31.70   28.95
   2   1  11   25.50   20.63
   2   1  11   27.69   18.07
   2   1  11    8.28   21.67
   3   1  11  799.59   49.79
   3   1  11  566.06   58.05
   3   1  11  693.50   43.47
   4   1  11  265.37   43.63
   0   2  11  308.64   44.45
   0  -2 -11  325.70   49.87
   0   2  11  289.31   44.43
   0   2  11  288.17   37.39
   0   2  11  248.52   35.15
   1   2  11   99.60   30.95
  -1  -2 -11  122.13   39.78
   1   2  11   99.18   23.49
   1   2  11  108.48   27.45
   1   2  11   80.55   32.13
   2   2  11  121.61   24.56
   2   2  11  126.12   28.76
   2   2  11  130.71   32.98
   2   2  11   71.75   23.22
   2   2  11  136.80   26.29
   2   2  11   80.82   20.27
   3   2  11  -13.21   22.25
   3   2  11  -28.86   19.16
   3   2  11   10.93   25.46
   3   2  11   17.36   17.18
   4   2  11   26.52   27.70
   4   2  11   18.49   22.25
   4   2  11   -4.85   25.11
   5   2  11  163.05   32.01
   5   2  11  231.98   37.81
   5   2  11  216.58   40.92
   1   3  11  -31.87   22.20
  -1  -3 -11    0.45   30.34
   1   3  11   -5.68   24.01
   1   3  11  -24.33   25.63
   1   3  11   -3.00   19.24
   2   3  11  106.42   23.33
   2   3  11  136.65   26.77
   2   3  11  155.65   31.70
   2   3  11  109.04   29.78
   2   3  11  123.57   26.23
   2   3  11   99.25   21.06
  -2  -3 -11  161.07   39.31
   3   3  11  -30.45   16.95
   3   3  11  -10.07   21.36
   3   3  11   27.24   20.60
   3   3  11    3.07   23.66
   4   3  11   -7.47   22.40
   4   3  11   22.18   19.63
   4   3  11   16.03   15.46
   4   3  11  -19.18   23.96
   5   3  11  -16.95   26.85
   5   3  11    1.52   22.55
   5   3  11  -29.73   24.59
   1   4  11  349.58   41.01
   1   4  11  438.50   43.38
   1   4  11  296.01   36.86
   1   4  11  357.96   45.05
  -1  -4 -11  272.41   48.94
   2   4  11   -6.90   21.85
  -2  -4 -11   19.11   32.59
   2   4  11   -2.47   17.80
   2   4  11    9.28   22.31
   2   4  11   -8.44   24.00
   2   4  11   22.35   23.61
  -3  -4 -11    6.46   30.98
   3   4  11    7.27   19.59
   3   4  11   -1.48   18.53
   3   4  11    3.06   15.14
   3   4  11  -14.21   20.94
   3   4  11    2.42   21.48
   3   4  11   18.71   23.17
   4   4  11  311.25   30.52
   4   4  11  328.89   40.39
   4   4  11  324.98   35.56
   4   4  11  302.92   29.93
   3   5  11  416.40   36.90
   0   0   0    0.00    0.00
;
_shelx_hkl_checksum              23175
loop_
_space_group_symop_operation_xyz
'x, y, z'
'-x, -y, -z'
loop_
_atom_site_label
_atom_site_type_symbol
_atom_site_fract_x
_atom_site_fract_y
_atom_site_fract_z
_atom_site_U_iso_or_equiv
_atom_site_adp_type
_atom_site_occupancy
_atom_site_site_symmetry_order
_atom_site_calc_flag
_atom_site_refinement_flags_posn
_atom_site_refinement_flags_adp
_atom_site_refinement_flags_occupancy
_atom_site_disorder_assembly
_atom_site_disorder_group
Zr1 Zr 0.24642(8) 0.61141(7) 0.74627(6) 0.0149(2) Uani 1 1 d . . . . .
Rb1 Rb 0.49609(16) 1.13991(11) 0.81091(9) 0.0666(4) Uani 1 1 d . . . . .
C1 C -0.0420(9) 0.8622(8) 0.6479(7) 0.0257(16) Uani 1 1 d . . . . .
C2 C -0.0724(10) 0.7080(8) 0.6224(7) 0.0282(17) Uani 1 1 d . . . . .
C3 C -0.0383(8) 0.5830(7) 1.0138(6) 0.0175(15) Uani 1 1 d . . . . .
C4 C 0.4963(9) 0.7300(8) 0.8614(7) 0.0258(16) Uani 1 1 d . . . . .
C5 C 0.5199(9) 0.5809(7) 0.4757(6) 0.0173(14) Uani 1 1 d . . . . .
C6 C 0.5823(10) 0.5590(8) 0.8518(7) 0.0270(17) Uani 1 1 d . . . . .
O1 O 0.1585(6) 0.4008(5) 0.8773(4) 0.0210(10) Uani 1 1 d . . . . .
O2 O 0.1087(6) 0.8461(5) 0.6839(4) 0.0220(10) Uani 1 1 d . . . . .
O3 O 0.3587(6) 0.7742(5) 0.8094(5) 0.0265(11) Uani 1 1 d . . . . .
O4 O 0.3627(6) 1.4007(5) 0.6328(4) 0.0202(10) Uani 1 1 d . . . . .
O5 O 0.4263(6) 0.6829(5) 0.5492(4) 0.0212(10) Uani 1 1 d . . . . .
O6 O 0.0273(6) 0.6848(5) 0.9271(4) 0.0213(10) Uani 1 1 d . . . . .
O7 O 0.4934(6) 0.4912(5) 0.7996(5) 0.0260(11) Uani 1 1 d . . . . .
O8 O 0.0374(6) 0.5901(5) 0.6610(5) 0.0289(11) Uani 1 1 d . . . . .
O9 O 0.7168(6) 0.4961(6) 0.8929(5) 0.0359(13) Uani 1 1 d . . . . .
O10 O -0.1493(7) 0.9825(6) 0.6340(6) 0.0446(14) Uani 1 1 d . . . . .
O11 O 0.5581(8) 0.8097(6) 0.9122(6) 0.0450(15) Uani 1 1 d . . . . .
O12 O -0.1926(8) 0.7041(6) 0.5699(6) 0.0484(15) Uani 1 1 d . . . . .
O13 O 0.3487(8) 1.0550(6) 0.5697(6) 0.0409(14) Uani 1 1 d D . . . .
H1 H 0.5000 1.0000 0.5000 0.049 Uiso 1 2 d S U P . .
H2 H 0.282(10) 0.990(8) 0.580(9) 0.049 Uiso 1 1 d D U . . .
H3 H 0.301(11) 1.126(8) 0.519(7) 0.049 Uiso 1 1 d D U . . .
O14 O -0.0786(12) 1.2646(10) 0.7388(10) 0.105(3) Uani 1 1 d . . . . .
O15 O 0.0911(13) 1.0429(9) 0.8863(9) 0.116(4) Uani 1 1 d . . . . .
H4 H 0.0000 1.0000 1.0000 0.139 Uiso 1 2 d S U P . .
loop_
_atom_site_aniso_label
_atom_site_aniso_U_11
_atom_site_aniso_U_22
_atom_site_aniso_U_33
_atom_site_aniso_U_23
_atom_site_aniso_U_13
_atom_site_aniso_U_12
Zr1 0.0141(3) 0.0152(4) 0.0131(3) -0.0003(2) -0.0032(3) 0.0003(2)
Rb1 0.1003(8) 0.0396(6) 0.0493(6) -0.0042(4) -0.0303(6) 0.0214(5)
C1 0.021(4) 0.033(4) 0.022(4) -0.001(3) -0.006(3) -0.003(3)
C2 0.024(4) 0.033(4) 0.025(4) 0.001(3) -0.008(3) -0.002(3)
C3 0.011(3) 0.022(4) 0.020(4) -0.002(3) -0.007(3) 0.001(3)
C4 0.026(4) 0.028(4) 0.024(4) 0.000(3) -0.006(3) -0.010(3)
C5 0.018(3) 0.023(4) 0.013(3) 0.001(3) -0.012(3) 0.000(3)
C6 0.026(4) 0.031(4) 0.023(4) -0.002(3) -0.003(3) -0.010(3)
O1 0.019(2) 0.021(3) 0.017(2) -0.0028(19) 0.003(2) -0.001(2)
O2 0.020(3) 0.022(3) 0.024(2) -0.0004(19) -0.008(2) -0.001(2)
O3 0.024(3) 0.027(3) 0.029(3) -0.004(2) -0.011(2) 0.001(2)
O4 0.022(2) 0.022(3) 0.012(2) 0.0000(19) 0.001(2) -0.005(2)
O5 0.022(2) 0.019(3) 0.021(2) -0.004(2) -0.002(2) -0.003(2)
O6 0.026(3) 0.015(2) 0.019(2) 0.004(2) -0.002(2) -0.006(2)
O7 0.026(3) 0.023(3) 0.033(3) -0.005(2) -0.013(2) -0.003(2)
O8 0.027(3) 0.024(3) 0.037(3) 0.002(2) -0.016(2) -0.002(2)
O9 0.023(3) 0.044(3) 0.043(3) -0.003(3) -0.021(3) 0.003(2)
O10 0.034(3) 0.032(3) 0.064(4) -0.003(3) -0.025(3) 0.014(3)
O11 0.058(4) 0.037(3) 0.057(4) -0.004(3) -0.038(3) -0.013(3)
O12 0.047(3) 0.040(3) 0.075(4) -0.001(3) -0.048(3) -0.004(3)
O13 0.048(4) 0.029(3) 0.051(4) 0.009(3) -0.027(3) -0.011(3)
O14 0.110(7) 0.096(7) 0.132(8) -0.070(6) -0.051(6) 0.005(5)
O15 0.131(8) 0.066(6) 0.123(7) -0.052(5) 0.032(6) -0.016(5)
loop_
_atom_type_symbol
_atom_type_description
_atom_type_scat_dispersion_real
_atom_type_scat_dispersion_imag
_atom_type_scat_source
C C 0.0033 0.0016 'International Tables Vol C Tables 4.2.6.8 and 6.1.1.4'
H H 0.0000 0.0000 'International Tables Vol C Tables 4.2.6.8 and 6.1.1.4'
O O 0.0106 0.0060 'International Tables Vol C Tables 4.2.6.8 and 6.1.1.4'
Rb Rb -0.9393 2.9676 'International Tables Vol C Tables 4.2.6.8 and 6.1.1.4'
Zr Zr -2.9673 0.5597 'International Tables Vol C Tables 4.2.6.8 and 6.1.1.4'
loop_
_geom_angle_atom_site_label_1
_geom_angle_atom_site_label_2
_geom_angle_atom_site_label_3
_geom_angle
_geom_angle_site_symmetry_1
_geom_angle_site_symmetry_3
_geom_angle_publ_flag
O8 Zr1 O7 143.95(18) . . ?
O8 Zr1 O3 143.58(18) . . ?
O7 Zr1 O3 72.08(17) . . ?
O8 Zr1 O5 91.64(17) . . ?
O7 Zr1 O5 87.39(17) . . ?
O3 Zr1 O5 83.42(17) . . ?
O8 Zr1 O2 71.88(17) . . ?
O7 Zr1 O2 141.41(17) . . ?
O3 Zr1 O2 71.99(17) . . ?
O5 Zr1 O2 75.00(16) . . ?
O8 Zr1 O1 81.77(17) . . ?
O7 Zr1 O1 76.77(16) . . ?
O3 Zr1 O1 123.19(17) . . ?
O5 Zr1 O1 141.14(15) . . ?
O2 Zr1 O1 136.42(15) . . ?
O8 Zr1 O6 89.74(17) . . ?
O7 Zr1 O6 109.96(17) . . ?
O3 Zr1 O6 76.26(16) . . ?
O5 Zr1 O6 147.13(16) . . ?
O2 Zr1 O6 74.28(16) . . ?
O1 Zr1 O6 71.48(15) . . ?
O8 Zr1 O4 73.71(17) . 1_545 ?
O7 Zr1 O4 71.90(16) . 1_545 ?
O3 Zr1 O4 136.42(16) . 1_545 ?
O5 Zr1 O4 71.26(15) . 1_545 ?
O2 Zr1 O4 130.29(16) . 1_545 ?
O1 Zr1 O4 70.12(14) . 1_545 ?
O6 Zr1 O4 139.86(15) . 1_545 ?
O8 Zr1 Rb1 100.29(13) . 1_545 ?
O7 Zr1 Rb1 44.92(12) . 1_545 ?
O3 Zr1 Rb1 116.11(12) . 1_545 ?
O5 Zr1 Rb1 100.53(11) . 1_545 ?
O2 Zr1 Rb1 170.60(12) . 1_545 ?
O1 Zr1 Rb1 44.38(11) . 1_545 ?
O6 Zr1 Rb1 111.51(11) . 1_545 ?
O4 Zr1 Rb1 40.65(11) 1_545 1_545 ?
O4 Rb1 O11 152.26(14) . . ?
O4 Rb1 O11 117.31(14) . 2_677 ?
O11 Rb1 O11 85.34(16) . 2_677 ?
O4 Rb1 O10 103.53(13) . 1_655 ?
O11 Rb1 O10 71.25(16) . 1_655 ?
O11 Rb1 O10 125.55(15) 2_677 1_655 ?
O4 Rb1 O1 51.30(11) . 1_565 ?
O11 Rb1 O1 132.20(15) . 1_565 ?
O11 Rb1 O1 72.76(14) 2_677 1_565 ?
O10 Rb1 O1 154.54(13) 1_655 1_565 ?
O4 Rb1 O7 50.98(12) . 1_565 ?
O11 Rb1 O7 156.71(14) . 1_565 ?
O11 Rb1 O7 74.22(14) 2_677 1_565 ?
O10 Rb1 O7 111.75(14) 1_655 1_565 ?
O1 Rb1 O7 51.93(11) 1_565 1_565 ?
O4 Rb1 O15 87.6(2) . . ?
O11 Rb1 O15 75.3(2) . . ?
O11 Rb1 O15 91.5(2) 2_677 . ?
O10 Rb1 O15 126.19(17) 1_655 . ?
O1 Rb1 O15 63.70(16) 1_565 . ?
O7 Rb1 O15 115.54(17) 1_565 . ?
O4 Rb1 O13 63.36(13) . . ?
O11 Rb1 O13 89.08(14) . . ?
O11 Rb1 O13 152.21(15) 2_677 . ?
O10 Rb1 O13 77.58(15) 1_655 . ?
O1 Rb1 O13 91.45(13) 1_565 . ?
O7 Rb1 O13 114.21(13) 1_565 . ?
O15 Rb1 O13 60.82(19) . . ?
O4 Rb1 O14 91.05(19) . 1_655 ?
O11 Rb1 O14 107.09(19) . 1_655 ?
O11 Rb1 O14 86.36(18) 2_677 1_655 ?
O10 Rb1 O14 57.18(16) 1_655 1_655 ?
O1 Rb1 O14 113.09(16) 1_565 1_655 ?
O7 Rb1 O14 61.33(16) 1_565 1_655 ?
O15 Rb1 O14 176.59(18) . 1_655 ?
O13 Rb1 O14 121.23(18) . 1_655 ?
O4 Rb1 C5 18.78(13) . 2_676 ?
O11 Rb1 C5 145.70(15) . 2_676 ?
O11 Rb1 C5 128.95(15) 2_677 2_676 ?
O10 Rb1 C5 85.03(15) 1_655 2_676 ?
O1 Rb1 C5 69.60(13) 1_565 2_676 ?
O7 Rb1 C5 55.58(14) 1_565 2_676 ?
O15 Rb1 C5 101.3(2) . 2_676 ?
O13 Rb1 C5 61.19(14) . 2_676 ?
O14 Rb1 C5 78.2(2) 1_655 2_676 ?
O4 Rb1 C4 134.40(15) . . ?
O11 Rb1 C4 17.88(15) . . ?
O11 Rb1 C4 99.64(16) 2_677 . ?
O10 Rb1 C4 71.22(15) 1_655 . ?
O1 Rb1 C4 127.27(14) 1_565 . ?
O7 Rb1 C4 173.84(14) 1_565 . ?
O15 Rb1 C4 64.48(19) . . ?
O13 Rb1 C4 71.46(15) . . ?
O14 Rb1 C4 118.47(18) 1_655 . ?
C5 Rb1 C4 130.55(15) 2_676 . ?
O4 Rb1 Zr1 30.80(8) . 1_565 ?
O11 Rb1 Zr1 162.66(12) . 1_565 ?
O11 Rb1 Zr1 86.54(11) 2_677 1_565 ?
O10 Rb1 Zr1 125.62(11) 1_655 1_565 ?
O1 Rb1 Zr1 30.46(8) 1_565 1_565 ?
O7 Rb1 Zr1 28.95(8) 1_565 1_565 ?
O15 Rb1 Zr1 89.62(16) . 1_565 ?
O13 Rb1 Zr1 90.99(10) . 1_565 ?
O14 Rb1 Zr1 87.64(15) 1_655 1_565 ?
C5 Rb1 Zr1 44.97(10) 2_676 1_565 ?
C4 Rb1 Zr1 153.34(12) . 1_565 ?
O10 C1 O2 126.0(7) . . ?
O10 C1 C2 122.2(7) . . ?
O2 C1 C2 111.9(6) . . ?
O12 C2 O8 125.3(7) . . ?
O12 C2 C1 120.9(7) . . ?
O8 C2 C1 113.7(6) . . ?
O6 C3 O1 128.3(6) . 2_567 ?
O6 C3 C3 116.3(7) . 2_567 ?
O1 C3 C3 115.3(7) 2_567 2_567 ?
O11 C4 O3 126.4(7) . . ?
O11 C4 C6 121.3(6) . . ?
O3 C4 C6 112.3(6) . . ?
O11 C4 Rb1 47.8(4) . . ?
O3 C4 Rb1 82.2(4) . . ?
C6 C4 Rb1 155.6(4) . . ?
O4 C5 O5 127.3(6) 2_676 . ?
O4 C5 C5 116.6(7) 2_676 2_666 ?
O5 C5 C5 116.0(7) . 2_666 ?
O4 C5 Rb1 49.2(3) 2_676 2_676 ?
O5 C5 Rb1 89.5(4) . 2_676 ?
C5 C5 Rb1 137.2(5) 2_666 2_676 ?
O9 C6 O7 125.2(7) . . ?
O9 C6 C4 122.3(6) . . ?
O7 C6 C4 112.5(6) . . ?
C3 O1 Zr1 118.6(4) 2_567 . ?
C3 O1 Rb1 128.6(4) 2_567 1_545 ?
Zr1 O1 Rb1 105.16(14) . 1_545 ?
C1 O2 Zr1 118.9(4) . . ?
C4 O3 Zr1 121.2(4) . . ?
C5 O4 Zr1 116.4(4) 2_676 1_565 ?
C5 O4 Rb1 112.0(4) 2_676 . ?
Zr1 O4 Rb1 108.55(15) 1_565 . ?
C5 O5 Zr1 119.0(4) . . ?
C3 O6 Zr1 118.3(4) . . ?
C6 O7 Zr1 121.2(4) . . ?
C6 O7 Rb1 129.9(4) . 1_545 ?
Zr1 O7 Rb1 106.13(16) . 1_545 ?
C2 O8 Zr1 122.0(5) . . ?
C1 O10 Rb1 134.2(5) . 1_455 ?
C4 O11 Rb1 114.3(5) . . ?
C4 O11 Rb1 133.9(5) . 2_677 ?
Rb1 O11 Rb1 94.66(16) . 2_677 ?
loop_
_geom_bond_atom_site_label_1
_geom_bond_atom_site_label_2
_geom_bond_distance
_geom_bond_site_symmetry_2
_geom_bond_publ_flag
Zr1 O8 2.130(5) . ?
Zr1 O7 2.145(5) . ?
Zr1 O3 2.151(5) . ?
Zr1 O5 2.209(4) . ?
Zr1 O2 2.213(4) . ?
Zr1 O1 2.236(4) . ?
Zr1 O6 2.239(4) . ?
Zr1 O4 2.299(4) 1_545 ?
Zr1 Rb1 4.2577(11) 1_545 ?
Rb1 O4 2.926(4) . ?
Rb1 O11 2.942(5) . ?
Rb1 O11 2.958(6) 2_677 ?
Rb1 O10 3.028(5) 1_655 ?
Rb1 O1 3.085(4) 1_565 ?
Rb1 O7 3.130(5) 1_565 ?
Rb1 O15 3.254(10) . ?
Rb1 O13 3.369(6) . ?
Rb1 O14 3.520(9) 1_655 ?
Rb1 C5 3.582(6) 2_676 ?
Rb1 C4 3.618(7) . ?
Rb1 Zr1 4.2577(11) 1_565 ?
C1 O10 1.219(8) . ?
C1 O2 1.298(8) . ?
C1 C2 1.540(10) . ?
C2 O12 1.227(9) . ?
C2 O8 1.284(8) . ?
C3 O6 1.247(7) . ?
C3 O1 1.257(7) 2_567 ?
C3 C3 1.523(13) 2_567 ?
C4 O11 1.219(8) . ?
C4 O3 1.292(8) . ?
C4 C6 1.538(10) . ?
C5 O4 1.244(7) 2_676 ?
C5 O5 1.266(7) . ?
C5 C5 1.515(13) 2_666 ?
C5 Rb1 3.582(6) 2_676 ?
C6 O9 1.225(9) . ?
C6 O7 1.300(8) . ?
O1 C3 1.257(7) 2_567 ?
O1 Rb1 3.085(4) 1_545 ?
O4 C5 1.244(7) 2_676 ?
O4 Zr1 2.299(4) 1_565 ?
O7 Rb1 3.130(5) 1_545 ?
O10 Rb1 3.028(5) 1_455 ?
O11 Rb1 2.958(6) 2_677 ?
O14 Rb1 3.520(9) 1_455 ?
