#------------------------------------------------------------------------------
#$Date: 2020-10-04 06:15:56 +0300 (Sun, 04 Oct 2020) $
#$Revision: 257084 $
#$URL: file:///home/coder/svn-repositories/cod/cif/4/51/77/4517791.cif $
#------------------------------------------------------------------------------
#
# This file is available in the Crystallography Open Database (COD),
# http://www.crystallography.net/
#
# All data on this site have been placed in the public domain by the
# contributors.
#
data_4517791
loop_
_publ_author_name
'Febriansyah, Benny'
'Koh, Teck Ming'
'Rana, Prem Jyoti Singh'
'Hooper, Thomas J. N.'
'Ang, Zhi Zhong'
'Li, Yongxin'
'Bruno, Annalisa'
'Gr\"atzel, Michael'
'England, Jason'
'Mhaisalkar, Subodh G.'
'Mathews, Nripan'
_publ_section_title
;
 Hybrid 2D [Pb(CH3NH2)I2]n Coordination Polymer Precursor for Scalable
 Perovskite Deposition
;
_journal_name_full               'ACS Energy Letters'
_journal_page_first              2305
_journal_page_last               2312
_journal_paper_doi               10.1021/acsenergylett.0c00781
_journal_year                    2020
_chemical_formula_sum            'C H5 I2 N Pb'
_chemical_formula_weight         492.05
_space_group_crystal_system      orthorhombic
_space_group_IT_number           64
_space_group_name_Hall           '-C 2ac 2'
_space_group_name_H-M_alt        'C m c e'
_atom_sites_solution_hydrogens   geom
_atom_sites_solution_primary     dual
_cell_angle_alpha                90
_cell_angle_beta                 90
_cell_angle_gamma                90
_cell_formula_units_Z            8
_cell_length_a                   8.7746(5)
_cell_length_b                   19.2817(12)
_cell_length_c                   8.4744(5)
_cell_measurement_reflns_used    4350
_cell_measurement_temperature    100.(2)
_cell_measurement_theta_max      42.2811
_cell_measurement_theta_min      3.2006
_cell_volume                     1433.78(15)
_computing_cell_refinement       'SAINT V8.38A (Bruker AXS Inc., 2017)'
_computing_data_collection       'APEX3 (Bruker AXS Inc., 2018)'
_computing_data_reduction        'SAINT V8.38A (Bruker AXS Inc., 2017)'
_computing_molecular_graphics    'XP (Bruker AXS Inc., 2018)'
_computing_publication_material  'APEX3 (Bruker AXS Inc., 2018)'
_computing_structure_refinement  'SHELXL-2017/1 (Sheldrick, 2017)'
_computing_structure_solution    'XT, VERSION 2014/5'
_diffrn_ambient_temperature      100.(2)
_diffrn_detector_area_resol_mean 7.4074
_diffrn_measured_fraction_theta_full 0.999
_diffrn_measured_fraction_theta_max 0.999
_diffrn_measurement_device_type  'Photon II CPADs detector'
_diffrn_measurement_method       'phi and omega scans'
_diffrn_radiation_monochromator  'Multilayer Mirror'
_diffrn_radiation_type           MoK\a
_diffrn_radiation_wavelength     0.71073
_diffrn_reflns_av_R_equivalents  0.0455
_diffrn_reflns_av_unetI/netI     0.0330
_diffrn_reflns_limit_h_max       12
_diffrn_reflns_limit_h_min       -10
_diffrn_reflns_limit_k_max       27
_diffrn_reflns_limit_k_min       -23
_diffrn_reflns_limit_l_max       12
_diffrn_reflns_limit_l_min       -11
_diffrn_reflns_number            5870
_diffrn_reflns_theta_full        31.00
_diffrn_reflns_theta_max         31.00
_diffrn_reflns_theta_min         3.20
_diffrn_source                   'Incoatec microfocus source'
_diffrn_source_type              'Bruker D8 Quest'
_exptl_absorpt_coefficient_mu    32.024
_exptl_absorpt_correction_T_max  0.11
_exptl_absorpt_correction_T_min  0.04
_exptl_absorpt_correction_type   multi-scan
_exptl_absorpt_process_details
;
SADABS-2016/2 - Bruker AXS area detector scaling and absorption correction
;
_exptl_crystal_colour            orange
_exptl_crystal_density_diffrn    4.559
_exptl_crystal_density_method    'not measured'
_exptl_crystal_description       block
_exptl_crystal_F_000             1648
_exptl_crystal_size_max          0.220
_exptl_crystal_size_mid          0.200
_exptl_crystal_size_min          0.120
_refine_diff_density_max         1.818
_refine_diff_density_min         -1.671
_refine_ls_extinction_coef       0.00070(4)
_refine_ls_extinction_method     'SHELXL-2017/1 (Sheldrick 2017)'
_refine_ls_goodness_of_fit_ref   1.095
_refine_ls_hydrogen_treatment    constr
_refine_ls_matrix_type           full
_refine_ls_number_parameters     30
_refine_ls_number_reflns         1217
_refine_ls_number_restraints     0
_refine_ls_restrained_S_all      1.095
_refine_ls_R_factor_all          0.0290
_refine_ls_R_factor_gt           0.0249
_refine_ls_shift/su_max          0.001
_refine_ls_shift/su_mean         0.000
_refine_ls_structure_factor_coef Fsqd
_refine_ls_weighting_details
'w=1/[\s^2^(Fo^2^)+(0.0209P)^2^] where P=(Fo^2^+2Fc^2^)/3'
_refine_ls_weighting_scheme      calc
_refine_ls_wR_factor_gt          0.0506
_refine_ls_wR_factor_ref         0.0523
_reflns_number_gt                1099
_reflns_number_total             1217
_reflns_threshold_expression     'I > 2\s(I)'
_cod_data_source_file            nz0c00781_si_006.cif
_cod_data_source_block           je499m
_cod_depositor_comments
;
The following automatic conversions were performed:

data item '_exptl_absorpt_correction_type' value 'Multi-Scan' was
changed to 'multi-scan' in accordance with the
/home/data/users/saulius/crontab/automatic-downloads/rss-feeds/ACS/lib/dictionaries/cif_core.dic
dictionary named 'cif_core.dic' version 2.4.2 last updated on
2011-04-26.

Automatic conversion script
Id: cif_fix_values 7556 2019-12-06 15:28:31Z antanas 

 Adding full bibliography for 4517790--4517791.cif.
;
_cod_original_sg_symbol_H-M      'C m c a'
_cod_database_code               4517791
_shelx_res_file
;

TITL je499m in Cmca
    je499m.res
    created by SHELXL-2017/1 at 14:15:58 on 07-Nov-2018
CELL 0.71073   8.77460  19.28170   8.47440  90.0000  90.0000  90.0000
ZERR    8.00   0.00050   0.00120   0.00050   0.0000   0.0000   0.0000
LATT 7
SYMM -X, 1/2-Y, 1/2+Z
SYMM -X, 1/2+Y, 1/2-Z
SYMM X, -Y, -Z
SFAC C  H  I  N  Pb
UNIT 8  40  16  8  8
OMIT -3 62
L.S. 20
ACTA
BOND $H
FMAP 2
PLAN 20
SIZE 0.12 0.20 0.22
TEMP -173
WGHT    0.020900
EXTI    0.000696
FVAR       0.03484
C1    1    0.500000    0.627743    0.728900    10.50000    0.04081    0.01290 =
         0.01556   -0.00076    0.00000    0.00000
AFIX  33
H1A   2    0.500000    0.665166    0.807148    10.50000   -1.50000
H1B   2    0.408809    0.599057    0.742957    10.50000   -1.50000
H1C   2    0.591191    0.599057    0.742957    10.50000   -1.50000
AFIX   0
I1    3    0.750000    0.702544    0.250000    10.50000    0.01372    0.01012 =
         0.01963    0.00000    0.00539    0.00000
I2    3    0.238836    0.500000    0.500000    10.50000    0.01099    0.01337 =
         0.01036    0.00072    0.00000    0.00000
N1    4    0.500000    0.657881    0.568213    10.50000    0.02739    0.01317 =
         0.01444   -0.00042    0.00000    0.00000
AFIX  23
H1D   2    0.583112    0.685988    0.562261    10.50000   -1.20000
H1E   2    0.416888    0.685988    0.562260    10.50000   -1.20000
AFIX   0
PB1   5    0.500000    0.587530    0.328610    10.50000    0.01237    0.01070 =
         0.01008    0.00047    0.00000    0.00000
HKLF 4




REM  je499m in Cmca
REM R1 =  0.0249 for    1099 Fo > 4sig(Fo)  and  0.0290 for all    1217 data
REM     30 parameters refined using      0 restraints

END

WGHT      0.0209      0.0000

REM Highest difference peak  1.818,  deepest hole -1.671,  1-sigma level  0.306
Q1    1   0.5000  0.5895  0.2438  10.50000  0.05    1.82
Q2    1   0.4131  0.5876  0.3064  11.00000  0.05    1.71
Q3    1   0.1510  0.5000  0.5000  10.50000  0.05    1.57
Q4    1   0.3276  0.5000  0.5000  10.50000  0.05    1.50
Q5    1   0.5000  0.5849  0.4202  10.50000  0.05    1.49
Q6    1   0.5000  0.5922  0.1334  10.50000  0.05    1.43
Q7    1   0.6630  0.7006  0.2410  11.00000  0.05    1.40
Q8    1   0.7473  0.7036  0.1581  11.00000  0.05    1.14
Q9    1   0.2279  0.5004  0.4066  11.00000  0.05    1.12
Q10   1   0.5000  0.5811  0.4927  10.50000  0.05    1.08
Q11   1   0.3188  0.5181  0.5871  11.00000  0.05    1.06
Q12   1   0.6159  0.6995  0.7537  11.00000  0.05    1.06
Q13   1   0.1361  0.5472  0.5886  11.00000  0.05    0.88
Q14   1   0.4164  0.5000  0.5000  10.50000  0.05    0.86
Q15   1   0.7500  0.7893  0.2500  10.50000  0.05    0.85
Q16   1   0.2869  0.6704  0.4982  11.00000  0.05    0.84
Q17   1   0.1045  0.5792  0.5048  11.00000  0.05    0.83
Q18   1   0.9047  0.7028  0.1456  11.00000  0.05    0.79
Q19   1   0.2547  0.6790  0.6043  11.00000  0.05    0.78
Q20   1   0.8458  0.6388  0.1755  11.00000  0.05    0.76
;
_shelx_res_checksum              30763
_shelx_hkl_file
;
   2   0   0   10.66    0.80
   4   0   0 1000.00   22.94
   6   0   0    7.92    1.60
   8   0   0  561.91   16.24
  10   0   0    5.46    1.85
  12   0   0  183.60    9.18
  14   0   0    2.74    2.62
  16   0   0   60.41    5.70
   1  -1   0    0.04    0.09
   1   1   0    0.20    0.11
  -1   1   0    0.25    0.09
   3   1   0    0.69    0.15
   3   1   0    0.24    0.28
   3  -1   0    0.11    0.25
   5  -1   0    0.70    0.48
   5   1   0    0.27    0.36
   7   1   0   -0.66    0.32
   7  -1   0   -0.34    0.34
   9   1   0    1.49    1.30
  11  -1   0    0.12    0.90
  11   1   0   -0.48    0.65
  13  -1   0    1.51    1.29
  13   1   0    0.22    1.14
  15   1   0   -0.12    1.41
  15  -1   0    1.50    1.48
   2   2   0   40.66    1.29
  -2   2   0   39.41    1.46
   2  -2   0   34.31    1.76
   2   2   0   35.60    1.61
   4  -2   0   73.61    3.36
   4   2   0   72.11    2.08
   4   2   0   72.15    3.10
   6  -2   0   28.27    2.37
   6   2   0   23.38    2.02
   8  -2   0   26.50    2.68
   8   2   0   28.42    2.62
  10  -2   0   25.48    4.06
  10   2   0   18.57    3.14
  12  -2   0    7.11    2.09
  12   2   0   11.43    2.54
  16  -2   0    6.75    2.84
  16   2   0    0.89    2.09
  -1   3   0    1.68    0.32
   1   3   0    1.67    0.37
  -1  -3   0    0.55    0.12
   3  -3   0    1.84    0.67
  -3   3   0    0.31    0.22
   3   3   0    0.61    0.35
   3   3   0    0.33    0.17
   5   3   0    0.20    0.32
   5  -3   0    0.92    0.64
   5   3   0    1.38    0.31
   7   3   0    0.39    0.55
   7  -3   0    1.02    0.82
   9   3   0   -0.17    0.54
   9  -3   0   -0.40    0.74
  11   3   0   -1.03    1.05
  11  -3   0   -1.30    0.79
  13  -3   0    0.96    1.32
  13   3   0   -0.10    1.12
  15  -3   0    0.50    1.75
  15   3   0   -0.14    1.27
   0   4   0   12.80    0.70
  -2  -4   0  693.30   14.55
   4   4   0    8.42    0.37
   4   4   0    6.84    0.67
   4  -4   0   10.54    1.35
  -4   4   0    7.86    0.56
   4   4   0    8.61    0.37
   4   4   0    9.24    1.05
   6   4   0  346.26    8.27
   6  -4   0  353.81   11.10
   6   4   0  344.08   10.18
   8   4   0    0.92    0.89
   8  -4   0    1.81    1.04
  10   4   0  119.85    6.38
  10  -4   0  121.62    7.05
  12  -4   0    0.61    1.40
  12   4   0    1.00    1.15
  14  -4   0   37.85    6.44
  14   4   0   32.83    4.14
  16   4   0   -0.77    1.62
  16  -4   0    0.26    2.08
   1   5   0    0.08    0.11
  -1   5   0    0.25    0.20
   3   5   0   -0.04    0.17
   3   5   0    0.07    0.07
  -3   5   0    0.35    0.27
   3   5   0    0.05    0.27
  -5   5   0    0.37    0.21
   5   5   0    0.79    0.49
   5   5   0    0.21    0.22
   5  -5   0   -0.19    0.39
   7  -5   0   -0.35    0.60
   7   5   0    0.29    0.30
   7   5   0   -0.10    0.46
   9  -5   0   -0.62    0.67
   9   5   0    3.06    1.30
  11   5   0    0.21    0.85
  11  -5   0   -0.02    1.29
  13   5   0    2.77    1.63
  13  -5   0    2.29    1.60
  15   5   0   -2.46    1.24
  15  -5   0    0.39    1.85
   0   6   0    9.00    0.71
   2   6   0  759.12   16.12
   4   6   0   14.33    1.37
  -4   6   0   16.52    1.36
   4  -6   0   13.88    1.71
  -4   6   0   14.08    0.94
   4   6   0   12.15    1.05
   6   6   0  427.61   10.31
  -6   6   0  406.85    9.41
   6  -6   0  411.84   13.07
   6   6   0  414.96   11.74
   8  -6   0   17.74    3.21
   8   6   0   11.81    1.01
   8   6   0   12.96    1.74
  10   6   0  162.73    7.59
  10  -6   0  181.46    9.09
  12   6   0   12.55    2.76
  12  -6   0   11.02    2.85
  14  -6   0   59.87    5.88
  14   6   0   66.30    5.29
  16  -6   0   10.72    3.37
  16   6   0    4.92    2.15
   1   7   0    0.15    0.17
  -1   7   0    0.62    0.38
   3   7   0    0.17    0.12
   3   7   0    1.60    0.57
   3   7   0    0.47    0.24
  -3   7   0    0.28    0.31
   5   7   0   -0.36    0.26
  -5   7   0    0.36    0.26
   5  -7   0    0.16    0.53
   5   7   0    0.80    0.45
   7   7   0   -0.21    0.40
   7   7   0   -0.66    0.35
   7  -7   0   -0.76    0.54
  -7   7   0    0.46    0.27
   9   7   0   -0.63    0.48
   9  -7   0   -1.22    0.50
   9   7   0    0.18    0.44
  11   7   0    0.37    0.92
  11  -7   0    0.47    1.27
  13   7   0   -0.71    1.04
  13  -7   0   -0.11    1.30
  15   7   0   -0.57    1.16
  15  -7   0   -2.13    1.71
   0   8   0    5.42    0.63
  -2   8   0   59.79    2.65
   2   8   0   58.34    2.02
   4   8   0    4.71    0.31
  -4   8   0    6.27    1.09
   4   8   0    4.13    1.06
   4   8   0    5.57    0.96
   6   8   0   27.44    1.81
  -6   8   0   23.64    1.39
   6  -8   0   19.62    2.49
   6   8   0   21.72    2.04
   8   8   0    3.38    0.88
   8   8   0    4.68    1.61
  10   8   0    9.66    2.07
  10  -8   0   10.85    3.00
  12   8   0    6.92    2.06
  12  -8   0    4.26    2.39
  14   8   0    1.01    1.30
  14  -8   0   -0.42    1.72
  16  -8   0    0.45    2.97
   1   9   0    0.43    0.24
  -1   9   0    0.30    0.28
   3   9   0    0.69    0.44
  -3   9   0    0.16    0.26
   3   9   0    0.17    0.17
  -5   9   0    0.25    0.27
   5   9   0    0.82    0.46
   5  -9   0    1.27    0.93
   5   9   0   -0.05    0.32
   7   9   0   -0.04    0.38
   7   9   0    0.61    0.63
  -7   9   0    0.60    0.38
   7  -9   0   -0.63    0.51
   9  -9   0    1.48    1.31
   9   9   0    0.75    0.55
   9   9   0   -0.25    0.60
  11  -9   0    0.69    1.44
  11   9   0   -0.82    0.69
  13   9   0   -0.76    0.90
  13  -9   0   -0.35    1.35
  15  -9   0   -0.24    2.07
   0  10   0  857.80   19.50
  -2  10   0   80.68    3.45
   2  10   0   84.18    2.87
   2  10   0   82.98    3.59
  -4  10   0  602.44   15.39
   4  10   0  581.67   13.08
   4  10   0  592.22   15.03
  -4  10   0  640.38   14.78
   6  10   0   35.40    2.30
   6  10   0   36.81    2.73
  -6  10   0   34.76    1.99
   6 -10   0   34.71    3.72
   8 -10   0  282.16   12.27
   8  10   0  275.76    8.37
   8  10   0  282.35    9.69
  -8  10   0  268.54    7.12
  10 -10   0    8.55    2.83
  10  10   0   10.95    2.39
  10  10   0    8.23    1.22
  12 -10   0  111.70    8.42
  12  10   0  107.44    6.47
  14 -10   0   -0.48    1.90
  14  10   0    2.06    1.57
  16 -10   0   22.06    4.66
   1  11   0   -0.22    0.22
  -1  11   0    0.39    0.31
   3  11   0   -0.38    0.24
  -3  11   0    0.63    0.50
  -3  11   0    0.27    0.35
   3  11   0    0.61    0.28
   5  11   0   -0.70    0.28
  -5  11   0    1.03    0.49
   7 -11   0    0.72    1.05
   7  11   0    0.69    0.75
   7  11   0   -0.09    0.44
  -7  11   0    0.07    0.43
   9 -11   0   -1.38    0.99
   9  11   0   -0.91    0.55
   9  11   0    0.25    0.70
  11 -11   0    1.28    1.61
  11  11   0    1.22    1.02
  13 -11   0    2.27    3.84
  15 -11   0    2.02    2.78
   0  12   0  229.58    6.82
   2  12   0  179.24    5.39
  -2  12   0  181.80    6.23
   2  12   0  196.66    6.62
   4  12   0  170.11    6.13
  -4  12   0  163.22    5.74
  -4  12   0  164.26    6.29
   6  12   0  111.55    4.75
  -6  12   0  111.32    4.33
   6 -12   0  104.83    7.19
   8 -12   0   71.36    6.23
   8  12   0   74.74    3.89
   8  12   0   77.07    4.56
  -8  12   0   69.03    3.08
  10  12   0   62.05    4.40
  10  12   0   55.25    3.31
  10 -12   0   53.48    5.84
  12 -12   0   25.95    5.02
  14 -12   0   32.17    6.00
   1  13   0    0.39    0.42
   1  13   0    0.15    0.31
  -1  13   0   -0.15    0.30
  -1  13   0    0.11    0.36
   3  13   0    0.48    0.32
  -3  13   0    0.32    0.47
   3  13   0   -0.29    0.45
  -3  13   0    0.38    0.35
   5  13   0    0.50    0.60
  -5  13   0    0.38    0.44
   7 -13   0   -0.32    0.80
  -7  13   0   -0.69    0.43
   7  13   0   -0.25    0.56
   9  13   0    2.50    0.92
   9 -13   0   -0.30    1.26
  11  13   0   -0.64    1.19
  11 -13   0   -0.73    1.13
  13 -13   0    0.04    1.55
  15 -13   0   -0.42    2.44
   0  14   0  213.40    7.50
   0  14   0  219.88    6.91
   2  14   0   96.97    3.70
  -2  14   0   99.26    4.51
   2  14   0   90.26    4.46
  -2  14   0   93.08    4.31
   4  14   0  163.11    6.44
  -4  14   0  165.22    6.17
  -4  14   0  162.08    6.55
   6  14   0   41.99    2.95
  -6  14   0   43.52    2.74
   8 -14   0   77.40    6.84
  -8  14   0   57.98    3.16
   8  14   0   58.55    3.67
  10 -14   0   14.85    4.07
  10  14   0   17.41    2.44
  12 -14   0   24.49    5.26
  14 -14   0    3.22    2.76
  -1  15   0   -0.17    0.34
   1  15   0    0.09    0.37
   1  15   0   -0.33    0.42
  -1  15   0    0.21    0.43
   3  15   0   -0.30    0.30
  -3  15   0   -0.19    0.48
   3  15   0    0.42    0.57
  -3  15   0    0.06    0.39
   5  15   0    0.87    0.62
  -5  15   0   -0.42    0.41
  -7  15   0    0.06    0.50
   7 -15   0   -0.42    0.88
  -9  15   0   -0.15    0.69
   9 -15   0   -1.95    1.07
   9  15   0   -0.98    0.63
  11  15   0    1.55    1.37
  11 -15   0    1.16    1.96
  13 -15   0    1.20    2.47
  15 -15   0    0.10    2.36
   0  16   0    8.27    1.46
   0  16   0    6.41    1.43
   2  16   0  306.34    8.64
   2  16   0  284.85    9.86
  -2  16   0  306.92    9.90
  -2  16   0  296.67    9.53
   4  16   0    6.72    1.59
  -4  16   0   10.09    1.82
  -6  16   0  163.57    6.44
   6  16   0  173.72    7.01
  -8  16   0   11.03    1.68
   8 -16   0    4.87    2.23
   8  16   0    7.76    1.75
  10  16   0   69.20    4.39
  10 -16   0   70.93    7.45
  12 -16   0    4.82    2.74
  14 -16   0   25.17    5.76
   1  17   0    0.19    0.44
  -1  17   0    0.66    0.56
  -3  17   0   -0.83    0.44
   3  17   0    0.80    0.69
  -3  17   0   -0.41    0.54
   5  17   0    0.13    0.60
  -5  17   0    0.26    0.64
  -7  17   0    0.02    0.63
   7 -17   0    0.37    1.23
   9  17   0    1.37    0.91
  -9  17   0    0.36    0.91
   9 -17   0    1.78    1.54
  11  17   0   -0.69    1.29
  11 -17   0   -0.09    1.81
  13 -17   0   -4.79    1.89
  15 -17   0   -2.72    2.94
   0  18   0   63.40    4.13
   0  18   0   59.13    3.48
  -2  18   0  144.17    6.27
  -2  18   0  139.76    6.42
   2  18   0  147.13    5.45
   2  18   0  140.71    6.58
   4  18   0   42.77    3.48
  -4  18   0   56.16    3.72
   6  18   0   82.12    4.88
  -6  18   0   85.89    4.66
   8 -18   0   22.87    5.06
   8  18   0   31.54    3.05
  10  18   0   29.23    3.19
  10 -18   0   31.36    6.31
  12 -18   0   19.28    4.92
  14 -18   0    8.17    3.65
   1  19   0   -0.20    0.69
  -1  19   0    1.20    0.88
  -1  19   0   -0.08    0.44
   1  19   0   -0.01    0.47
  -3  19   0   -0.78    0.41
   3  19   0    0.03    0.73
   5  19   0   -0.39    0.63
  -5  19   0   -0.77    0.55
   7 -19   0   -1.87    0.85
   7  19   0    0.42    0.97
  -7  19   0    0.11    0.75
   9  19   0   -0.06    0.80
   9 -19   0    0.51    2.03
  -9  19   0    0.14    1.18
  11  19   0    1.57    1.54
  11 -19   0   -0.76    1.45
  13 -19   0    1.85    2.53
   0  20   0  148.49    7.09
   2  20   0  119.94    6.37
  -2  20   0  125.78    6.33
   4  20   0   99.22    5.69
  -4  20   0   96.49    5.42
  -6  20   0   72.83    4.57
   6  20   0   76.34    4.98
  -8  20   0   50.56    3.62
   8  20   0   46.72    3.97
  10  20   0   27.74    3.32
  12 -20   0   22.70    5.64
  14 -20   0   12.32    4.77
   1  21   0    0.52    0.81
  -3  21   0   -0.46    0.67
   3  21   0    0.78    0.80
  -5  21   0   -0.80    0.72
   5  21   0    1.33    1.06
  -7  21   0    0.68    1.05
   7  21   0   -0.74    0.82
   9  21   0    0.03    0.91
  -9  21   0   -0.31    1.18
   9 -21   0    1.09    2.17
  11 -21   0    0.37    1.98
  11  21   0   -2.58    1.50
  13 -21   0    2.91    2.85
   0  22   0   62.10    4.65
  -2  22   0   63.27    4.64
   2  22   0   63.28    4.73
   4  22   0   46.76    4.08
  -4  22   0   44.39    3.82
   6  22   0   47.78    4.06
  -6  22   0   46.99    3.84
  -8  22   0   28.98    2.90
   8 -22   0   14.00    4.01
   8  22   0   28.71    3.31
  10 -22   0   10.49    3.76
  12 -22   0    7.56    3.16
   1  23   0    1.12    1.04
   3  23   0    1.36    1.05
  -3  23   0    1.05    0.94
  -5  23   0   -0.13    0.91
   5  23   0    0.25    1.07
  -7  23   0   -0.43    0.91
   7  23   0   -0.99    0.76
   9 -23   0   -1.62    1.66
   9  23   0   -1.79    1.23
  -9  23   0   -0.80    1.18
  11  23   0    0.95    1.90
  11 -23   0    1.89    2.39
  13 -23   0   -0.66    2.52
   0  24   0  215.43    9.70
   2  24   0    2.67    1.35
  -2  24   0    0.32    0.95
   4  24   0  174.20    8.68
  -4  24   0  167.48    8.27
  -6  24   0    0.91    1.10
   6  24   0    2.55    1.50
   8  24   0   91.87    6.23
  -8  24   0   86.23    5.42
   8 -24   0   62.60    7.13
  10 -24   0   -0.71    1.64
  10  24   0   -0.82    1.41
  12 -24   0   29.15    6.06
  -1  25   0    0.24    0.80
   1  25   0    0.89    1.03
   3  25   0   -1.09    0.71
  -3  25   0    0.49    1.00
   5  25   0    0.83    0.98
  -5  25   0   -0.34    0.89
   7  25   0    2.14    1.36
  -7  25   0    2.26    1.31
  -9  25   0    1.53    1.58
   9  25   0   -1.13    1.46
   9 -25   0    0.84    1.70
  11 -25   0    2.90    2.46
  11  25   0    2.94    2.26
   0  26   0    6.81    2.05
   2  26   0   18.96    3.34
  -2  26   0   16.44    3.27
  -4  26   0    2.90    1.29
   4  26   0    3.90    1.75
   6  26   0   14.97    3.03
  -6  26   0   12.79    2.81
  -8  26   0    0.25    1.49
   8 -26   0    0.77    2.06
   8  26   0    1.14    1.50
  10  26   0   -1.29    1.66
  10 -26   0    1.95    2.24
  12 -26   0    0.59    3.01
   1  27   0    1.11    1.15
  -1  27   0   -0.56    1.01
  -3  27   0   -1.11    0.70
   3  27   0   -1.56    0.93
  -5  27   0   -0.89    0.78
  -9  27   0   -1.56    1.43
   9  27   0   -0.54    1.72
   9 -27   0   -1.30    1.21
  11 -27   0   -1.33    2.18
  11  27   0    2.56    2.61
   0  28   0   33.21    3.90
  -2  28   0   60.17    5.34
   2  28   0   62.44    6.27
  -4  28   0   19.98    4.48
   4  28   0   22.01    3.88
  -6  28   0   47.26    4.50
   6  28   0   35.69    4.27
  -8  28   0    9.40    2.38
   8  28   0   14.46    3.38
   8 -28   0    7.98    2.99
  10  28   0   18.55    3.92
  10 -28   0    7.37    3.46
  -1  29   0   -0.68    1.06
   1  29   0   -0.43    0.88
  -3  29   0    0.90    1.22
  -5  29   0    1.29    1.38
   5  29   0   -0.88    1.10
  -7  29   0   -0.99    1.23
   7 -29   0    1.68    1.98
   7  29   0   -0.89    1.04
  -9  29   0   -1.68    1.69
   9 -29   0   -0.28    1.83
   9  29   0    1.74    1.89
   0  30   0    4.91    2.06
  -2  30   0   85.64    6.67
   2  30   0  101.46    7.29
  -4  30   0    2.92    1.90
   4  30   0    2.44    1.60
   6  30   0   67.21    5.96
  -6  30   0   60.88    5.46
   8 -30   0    0.09    1.41
  -8  30   0    1.78    1.85
   8  30   0   -0.63    1.86
   1  31   0   -0.44    1.22
  -1  31   0    0.82    1.28
   3  31   0    1.07    1.48
  -3  31   0    0.86    1.37
   5  31   0    1.84    1.66
  -5  31   0    0.12    1.22
  -7  31   0   -2.92    1.33
   7 -31   0   -2.22    1.83
   7  31   0   -2.75    1.20
  -9  31   0   -0.63    2.54
   9  31   0   -2.47    1.90
   9 -31   0    0.79    1.98
   0  32   0    2.23    1.62
   2  32   0    2.80    1.62
  -2  32   0    3.53    1.87
  -4  32   0    1.79    1.66
   4  32   0    1.10    1.53
  -6  32   0    4.22    2.31
   6  32   0    7.14    2.70
   8  32   0   -2.90    1.56
   8 -32   0   -0.96    1.90
  -8  32   0    1.68    2.42
   1  33   0   -0.02    1.50
  -1  33   0   -1.72    0.99
   3  33   0   -0.19    1.55
  -3  33   0   -0.14    1.51
   5  33   0   -0.71    1.51
  -5  33   0    4.32    2.03
   7 -33   0    0.47    2.21
  -7  33   0    1.27    2.11
   0  34   0   68.22    6.23
  -2  34   0    1.19    1.64
   2  34   0    3.59    2.09
   4  34   0   63.81    6.32
  -4  34   0   66.47    6.03
   6  34   0   -1.39    1.50
  -6  34   0    5.35    2.22
   1  35   0    0.39    1.50
  -1  35   0    0.30    1.59
  -3  35   0    0.35    1.75
   3  35   0   -1.94    1.59
  -5  35   0   -1.33    1.73
   5  35   0   -1.24    1.56
   0  36   0   10.31    3.29
  -2  36   0    2.63    1.82
   2  36   0    3.90    2.33
   4  36   0    5.25    3.95
   1  37   0   -0.41    1.69
  -1  37   0    4.59    2.96
   0   0  -1    0.25    0.11
   0   0  -1    0.12    0.09
   2   0  -1    0.39    0.17
   2   0  -1    0.41    0.17
  -2   0   1    0.15    0.11
   2   0   1    0.03    0.24
  -4   0   1    0.44    0.23
   4   0   1    0.20    0.35
   4   0  -1   -0.23    0.15
   4   0   1    0.25    0.10
   6   0  -1   -0.05    0.41
   6   0   1   -0.10    0.33
   8   0  -1    0.08    0.57
   8   0   1    0.09    0.69
  10   0   1   -0.26    0.73
  10   0  -1   -0.64    0.60
  12   0   1   -0.12    0.82
  12   0  -1    1.97    1.24
  14   0  -1    0.47    1.22
  14   0   1   -1.94    1.21
  16   0  -1    0.58    1.98
   1   1  -1   69.95    2.00
   1  -1   1   68.17    2.33
  -1   1   1   71.50    1.97
  -1   1  -1   67.76    1.89
  -1  -1   1   64.26    1.75
   1   1   1   66.70    2.20
   3   1  -1  103.83    2.82
   3  -1   1   99.84    3.87
  -3   1   1  107.93    2.99
   3   1  -1  102.84    3.25
   3   1   1  102.04    3.76
   3  -1  -1  107.73    3.42
  -3  -1   1  103.74    2.66
  -5   1   1   12.03    0.96
   5  -1   1   11.93    1.47
   5   1  -1   10.82    1.13
   5   1  -1   12.06    0.67
   5   1   1   10.75    0.53
   5   1   1   10.42    1.34
   5  -1  -1   10.69    1.20
   5   1   1   11.03    0.40
   7   1  -1   73.83    3.87
   7  -1   1   70.82    4.37
   7   1   1   78.44    4.41
   7  -1  -1   78.01    4.10
   9  -1   1   -0.21    0.66
   9   1  -1    0.80    0.77
   9   1   1    0.61    0.89
   9  -1  -1    0.76    0.81
  11  -1   1   44.53    4.39
  11   1  -1   44.80    3.92
  11  -1  -1   44.76    4.05
  11   1   1   46.95    4.38
  13   1  -1    0.44    1.06
  13  -1   1    2.92    1.57
  13   1   1    2.80    1.63
  13  -1  -1    0.52    1.16
  15   1  -1   16.94    3.19
  15  -1   1   26.09    4.71
  15  -1  -1   19.56    3.70
  15   1   1   25.28    4.61
   0   2  -1  337.49    7.44
   0   2   1  308.26    7.28
   2  -2   1   35.07    1.94
  -2   2   1   42.25    1.52
   2   2  -1   39.74    1.51
   2   2  -1   38.33    1.49
  -2  -2   1   37.44    1.08
  -2   2  -1   40.74    1.35
   2   2   1   38.15    1.83
   4   2  -1  281.36    6.71
   4   2  -1  279.99    7.51
  -4   2   1  295.31    7.19
   4  -2   1  276.55    8.51
   4   2   1  281.13    8.16
   4  -2  -1  274.48    7.82
   6  -2   1   31.05    2.64
   6   2  -1   29.51    1.20
   6   2  -1   31.41    2.16
   6  -2  -1   32.97    2.40
   6   2   1   27.81    2.38
   8  -2   1  133.13    6.69
   8   2  -1  139.49    5.93
   8   2   1  139.50    6.50
   8  -2  -1  130.50    6.12
  10   2  -1   16.00    2.70
  10  -2   1   16.64    2.98
  10   2   1   20.87    3.58
  10  -2  -1   15.96    2.94
  12   2  -1   61.82    4.69
  12  -2   1   54.04    5.15
  12   2   1   51.09    4.69
  12  -2  -1   61.06    4.93
  14   2  -1    6.50    2.20
  14  -2   1    8.24    2.72
  14  -2  -1    5.24    1.83
  14   2   1    9.20    2.48
  16  -2   1   13.73    3.95
  16   2  -1   21.85    3.57
  16  -2  -1   18.40    3.69
  16   2   1   16.43    3.55
  -1   3   1   14.11    0.81
   1   3  -1   14.44    0.90
  -1   3  -1   13.92    0.83
   1   3   1   12.98    0.72
   1   3   1   14.97    0.97
   3   3  -1    1.93    0.48
  -3   3   1    0.15    0.19
   3  -3   1    0.36    0.33
   3  -3  -1    0.49    0.38
  -3   3  -1    0.95    0.26
   3   3   1    1.57    0.52
   5   3  -1   17.70    1.47
  -5   3   1   19.92    1.38
   5   3  -1   18.57    1.08
   5  -3   1   15.85    1.80
   5   3   1   18.82    0.95
   5   3   1   16.39    1.66
   5  -3  -1   18.50    1.68
   7  -3   1    9.52    2.05
   7   3  -1    7.70    0.60
   7   3  -1    9.79    1.71
   7   3   1    7.00    1.55
   7  -3  -1    7.46    1.65
   9   3  -1   19.70    2.21
   9  -3   1   18.92    3.37
   9  -3  -1   18.98    2.46
   9   3   1   18.27    2.42
  11  -3   1    7.12    2.16
  11   3  -1   11.04    2.41
  11   3   1    7.36    2.14
  11  -3  -1    5.65    1.97
  13  -3   1   15.52    3.34
  13   3  -1   12.56    2.75
  13  -3  -1    9.84    2.59
  13   3   1    8.59    2.43
  15   3  -1    6.43    2.30
  15  -3   1    3.82    2.59
  15  -3  -1    5.13    2.24
  15   3   1    6.38    2.36
   0   4   1   10.43    0.69
   0   4  -1    9.86    0.76
  -2   4   1  521.90   11.88
   2   4  -1  502.02   11.90
   2   4   1  519.48   11.41
   2   4   1  539.71   12.49
  -2   4  -1  515.89   11.70
   4   4  -1    8.89    0.96
   4  -4   1    9.66    1.71
   4   4  -1    9.23    0.85
  -4   4   1    9.86    0.94
   4   4   1    8.78    1.11
   4  -4  -1    9.74    1.70
  -4   4  -1    9.32    0.67
   6   4  -1  285.83    8.38
   6  -4   1  262.80    9.58
   6   4  -1  282.16    7.03
  -6   4   1  277.83    7.88
   6   4   1  275.62    8.92
   6   4   1  275.86    6.73
   6  -4  -1  264.99    8.96
   8   4  -1    8.30    1.71
   8  -4   1    6.49    1.87
   8   4   1    5.75    1.65
   8  -4  -1    7.87    1.85
  10   4  -1  119.82    5.97
  10  -4   1  123.46    7.33
  10  -4  -1  120.81    6.73
  10   4   1  115.84    6.60
  12   4  -1    2.70    1.35
  12  -4   1    3.16    1.65
  12  -4  -1    5.27    2.10
  12   4   1    0.79    0.93
  14   4  -1   39.24    4.14
  14  -4   1   41.09    4.97
  14   4   1   40.45    4.47
  14  -4  -1   38.73    4.48
  16   4  -1    5.40    2.15
  16  -4   1    5.55    2.57
  16  -4  -1   -1.47    1.96
  16   4   1   -1.34    1.82
   1   5  -1   81.77    2.82
  -1   5   1   83.47    2.70
   1   5   1   80.96    2.45
  -1   5  -1   82.85    2.77
   1   5   1   72.78    2.86
   3   5  -1   26.71    1.57
  -3   5   1   27.53    1.57
   3   5  -1   27.36    1.52
   3  -5   1   25.80    2.15
   3   5   1   26.27    1.12
  -3   5  -1   26.91    1.35
   3   5   1   24.75    1.73
  -5   5   1   89.64    3.54
   5  -5   1   86.70    4.67
   5   5  -1   90.03    3.21
   5   5  -1   86.44    3.66
   5   5   1   84.27    3.98
   5   5   1   87.15    2.59
   5  -5  -1   92.75    4.40
  -5   5  -1   86.92    2.66
   7   5  -1    4.28    1.19
   7  -5   1    4.54    1.52
   7   5  -1    3.18    0.66
   7  -5  -1    3.53    1.26
   7   5   1    2.47    0.99
   7   5   1    4.45    0.67
   9   5  -1   57.02    3.84
   9  -5   1   52.29    4.57
   9   5   1   63.79    4.38
   9  -5  -1   67.22    4.70
   9   5   1   53.63    1.87
  11  -5   1    1.04    1.41
  11   5  -1    1.94    1.11
  11  -5  -1    0.03    1.18
  11   5   1   -0.47    0.76
  13  -5   1   33.88    4.43
  13   5  -1   30.17    3.41
  13   5   1   32.30    3.81
  13  -5  -1   30.42    3.99
  15   5  -1    0.30    1.42
  15  -5   1   -2.15    1.49
  15   5   1   -0.81    1.75
  15  -5  -1   -1.25    1.41
   0   6  -1  115.60    3.72
   0   6   1  113.92    3.43
  -2   6   1  146.33    4.47
   2   6  -1  151.89    4.62
   2   6   1  147.58    4.84
  -2   6  -1  154.49    4.43
   2   6   1  148.82    3.92
   4   6  -1   62.82    2.85
   4   6  -1   61.69    2.69
  -4   6   1   59.06    2.74
   4  -6   1   56.64    3.64
   4   6   1   59.94    1.91
  -4   6  -1   62.05    2.35
   4   6   1   60.86    3.11
   6   6  -1   78.62    3.10
   6  -6   1   78.75    4.86
  -6   6   1   82.81    3.64
   6   6  -1   74.86    3.63
   6   6   1   73.35    2.24
   6   6   1   75.42    4.01
   6   6   1   80.82    2.98
   6  -6  -1   73.84    4.32
  -6   6  -1   75.34    2.40
   8   6  -1   22.79    2.20
   8   6  -1   23.89    1.52
   8  -6   1   28.04    4.41
   8   6   1   22.05    2.41
   8  -6  -1   18.78    2.49
   8   6   1   21.38    0.89
   8   6   1   22.38    1.34
  10  -6   1   32.93    3.97
  10   6  -1   37.09    3.16
  10   6   1   30.90    3.27
  10  -6  -1   30.26    3.40
  12  -6   1   13.37    3.68
  12   6  -1    6.66    1.83
  12  -6  -1    6.72    2.31
  12   6   1    6.44    2.08
  14  -6   1   14.34    3.95
  14   6   1   11.90    3.03
  16  -6   1    4.19    2.88
  16  -6  -1    5.82    2.82
  16   6   1    2.19    2.04
  -1   7   1   41.46    1.92
   1   7  -1   39.33    2.02
  -1   7  -1   38.81    2.30
   1   7   1   42.52    1.73
   3   7  -1   10.54    1.04
  -3   7   1   10.60    1.07
   3   7   1   11.24    1.21
   3   7   1   10.86    0.71
  -3   7  -1    9.02    0.90
   5   7  -1   55.43    2.64
  -5   7   1   51.61    2.78
   5   7  -1   52.99    2.85
   5  -7   1   53.34    3.89
   5  -7  -1   57.02    3.74
  -5   7  -1   54.31    2.24
   5   7   1   52.38    3.10
   5   7   1   52.53    1.70
   7   7  -1    1.24    0.74
   7  -7   1    2.21    1.24
   7   7  -1    0.81    0.50
  -7   7   1    0.50    0.33
   7   7   1    0.45    0.60
  -7   7  -1    1.46    0.32
   7   7   1    0.72    0.19
   7  -7  -1    0.82    0.90
   7   7   1    1.52    0.54
   9   7  -1   40.52    2.01
   9   7  -1   40.89    3.15
   9  -7   1   40.51    4.20
   9  -7  -1   40.86    3.95
   9   7   1   40.31    3.48
   9   7   1   41.32    1.79
  11   7  -1    0.28    0.73
  11  -7   1    2.42    1.45
  11   7   1    2.62    1.25
  11  -7  -1   -1.41    0.88
  13  -7   1   17.98    3.84
  13   7  -1   21.13    2.87
  13   7   1   23.51    4.14
  13  -7  -1   21.80    4.07
  15  -7   1   -1.33    1.88
  15   7  -1    3.83    1.62
  15   7   1    0.37    1.45
  15  -7  -1    2.12    1.79
   0   8  -1  504.78   12.03
   0   8   1  459.23   11.34
   2   8  -1   58.28    2.72
  -2   8   1   61.45    2.69
  -2   8  -1   59.54    2.61
   2   8   1   58.63    2.13
  -4   8   1  333.23    9.45
   4   8  -1  350.02    9.35
  -4   8  -1  345.80    8.95
   4   8   1  348.43    9.99
   4   8   1  341.56    7.89
   6   8  -1   33.68    2.11
   6  -8   1   35.46    3.47
   6   8  -1   30.71    2.31
  -6   8   1   33.62    2.39
   6   8   1   33.83    1.99
   6  -8  -1   28.71    2.95
   6   8   1   32.56    1.10
  -6   8  -1   33.74    1.74
   6   8   1   33.01    2.60
   8   8  -1  156.74    5.35
   8  -8   1  149.05    8.19
   8   8  -1  160.08    6.37
  -8   8   1  149.76    3.96
   8   8   1  150.08    5.05
   8  -8  -1  159.92    7.91
   8   8   1  147.37    6.69
  10   8  -1   15.90    2.11
  10  -8   1   17.37    3.83
  10   8  -1   14.01    1.14
  10  -8  -1   15.99    3.50
  10   8   1   12.98    2.66
  12   8  -1   63.64    4.61
  12  -8   1   60.65    5.96
  12  -8  -1   65.90    5.80
  12   8   1   69.63    5.31
  14  -8   1    8.72    3.57
  14   8  -1    8.80    2.23
  14   8   1    8.48    2.59
  14  -8  -1    2.42    2.25
  16  -8   1   23.67    4.74
  16  -8  -1   21.24    4.75
  16   8   1   20.37    3.71
   1   9  -1    0.13    0.33
  -1   9   1    0.65    0.34
   1   9   1    0.08    0.24
  -1   9  -1    0.71    0.43
   3   9  -1    9.65    1.14
  -3   9   1    9.32    1.10
   3   9   1    9.42    1.25
  -3   9  -1   11.22    1.09
   3   9   1   10.34    0.77
   5  -9   1    3.41    1.32
   5   9  -1    2.93    0.83
  -5   9   1    3.60    0.97
  -5   9  -1    3.27    0.77
   5   9   1    2.98    0.38
   5   9   1    1.61    0.83
   7  -9   1   17.49    3.36
   7   9  -1   17.01    1.61
   7   9  -1   16.83    1.88
   7  -9  -1   17.32    3.23
   7   9   1   17.44    2.96
  -7   9  -1   18.93    1.30
   7   9   1   16.57    1.49
   9  -9   1    5.16    2.04
   9   9  -1    5.58    1.54
   9   9  -1    4.60    1.00
   9  -9  -1    7.43    2.44
   9   9   1    5.72    1.73
   9   9   1    7.75    1.24
  11  -9   1   13.86    3.44
  11   9  -1   16.39    2.78
  11  -9  -1   16.95    3.60
  11   9   1   17.58    3.06
  13   9  -1    6.65    2.04
  13  -9  -1    4.11    1.99
  13   9   1    2.89    2.26
  15  -9   1   10.24    3.56
  15  -9  -1    4.05    2.85
  15   9   1    5.71    2.17
   0  10  -1   89.51    3.79
   0  10   1   88.71    3.34
  -2  10   1  137.83    4.83
   2  10  -1  136.80    4.98
   2  10   1  127.72    4.21
  -2  10  -1  134.56    4.78
  -4  10   1   61.67    3.26
   4  10  -1   62.06    3.14
  -4  10  -1   59.26    2.84
   4  10   1   60.03    2.13
   4  10   1   60.52    3.41
   6  10  -1   74.87    3.63
  -6  10   1   69.36    3.82
   6 -10   1   83.63    5.91
  -6  10  -1   76.42    3.19
   6 -10  -1   77.92    5.43
   6  10   1   71.76    1.93
   6  10   1   73.07    4.10
   6  10   1   68.68    3.34
   8 -10   1   27.31    3.71
   8  10  -1   28.84    2.57
  -8  10   1   30.12    1.85
   8  10  -1   26.39    2.12
   8  10   1   26.40    2.69
   8 -10  -1   28.59    3.81
  -8  10  -1   23.73    1.47
   8  10   1   29.54    2.13
  10 -10   1   35.04    4.56
  10  10  -1   27.76    2.85
  10  10  -1   29.33    2.15
  10  10   1   36.44    3.43
  10 -10  -1   36.59    4.09
  10  10   1   26.57    2.42
  12  10  -1   10.44    2.28
  12 -10   1   13.95    3.53
  12 -10  -1   11.77    2.82
  12  10   1   11.30    2.55
  14 -10   1    7.79    3.08
  14 -10  -1   17.78    4.18
  14  10   1   10.05    2.83
  16 -10   1    3.92    3.20
  16 -10  -1    2.19    3.28
  -1  11   1   43.12    2.34
   1  11  -1   41.44    2.57
  -1  11  -1   42.39    2.55
   1  11   1   43.40    2.14
  -3  11   1   70.27    3.48
   3  11  -1   68.67    3.45
  -3  11  -1   67.73    3.24
   5  11  -1   10.80    1.35
  -5  11   1    9.57    1.73
   5  11   1   10.17    1.81
   5  11   1   10.06    0.72
   5  11   1    6.67    1.25
  -5  11  -1    9.69    1.14
  -7  11   1   61.98    2.86
   7 -11   1   66.15    5.64
   7  11  -1   59.36    3.31
   7 -11  -1   61.91    5.20
   7  11   1   56.00    3.75
   7  11   1   53.83    3.05
  -7  11  -1   56.87    2.78
  -9  11   1    2.11    0.59
   9 -11   1   -0.10    1.06
   9  11  -1    2.20    0.90
   9  11   1    2.00    1.08
   9 -11  -1   -0.60    0.99
   9  11   1    1.06    0.76
  11 -11   1   38.54    5.20
  11  11   1   32.82    3.53
  11 -11  -1   38.27    4.66
  13 -11   1    1.99    1.96
  13  11   1    1.07    1.22
  13 -11  -1    0.07    1.69
  15 -11   1   13.29    4.40
  15 -11  -1   23.62    4.55
   0  12  -1   71.18    3.58
   0  12   1   64.83    2.99
   2  12  -1    0.18    0.48
  -2  12   1    0.50    0.42
  -2  12  -1   -0.04    0.40
   2  12   1    1.46    0.44
   4  12  -1   56.50    3.19
  -4  12   1   47.17    3.01
   4  12   1   52.22    2.12
  -4  12  -1   51.05    2.85
  -6  12   1    1.00    0.52
  -6  12   1    0.07    0.54
   6  12  -1    2.39    0.89
   6  12   1    0.87    0.86
  -6  12  -1    1.51    0.57
   6  12   1    1.73    0.76
   8 -12   1   20.27    4.02
  -8  12   1   21.04    1.65
   8  12  -1   24.46    2.25
  -8  12  -1   24.72    1.81
   8  12   1   23.14    2.12
   8  12   1   25.08    2.61
   8 -12  -1   29.48    4.98
  10  12  -1    1.19    0.89
  10 -12   1    0.55    1.33
  10 -12  -1   -1.92    0.98
  10  12   1   -1.34    0.83
  10  12   1   -0.88    0.61
  12 -12   1   13.23    3.68
  12 -12  -1   10.19    3.54
  12  12   1    7.79    2.39
  14 -12   1    1.59    2.34
  14 -12  -1    1.06    2.09
  -1  13   1   18.87    1.68
   1  13  -1   20.57    1.93
  -1  13  -1   18.84    1.84
   1  13   1   18.64    1.47
   3  13  -1   36.03    2.64
  -3  13   1   38.96    2.66
  -3  13  -1   35.81    2.46
   3  13   1   37.76    1.94
  -5  13   1    2.74    0.96
   5  13  -1    4.59    1.20
   5  13   1    3.95    1.10
  -5  13  -1    4.35    1.14
   5  13   1    3.76    0.63
   7 -13   1   35.95    4.52
   7  13  -1   31.63    2.58
  -7  13   1   31.53    2.20
   7 -13  -1   30.64    3.99
   7  13   1   33.97    2.52
  -7  13  -1   34.98    2.29
   9 -13   1   -0.55    1.57
  -9  13   1   -0.04    0.64
   9  13  -1   -0.61    0.77
   9  13   1    0.39    0.79
   9 -13  -1    0.43    1.39
   9  13   1    0.21    0.73
  11 -13   1   31.36    6.35
  11  13  -1   16.87    2.14
  11  13   1   22.26    2.97
  11 -13  -1   22.42    4.42
  13 -13   1    0.27    2.62
  13 -13  -1    6.43    2.82
  15 -13   1   18.28    5.11
  15 -13  -1   19.58    4.45
   0  14   1   24.67    1.92
   0  14  -1   24.60    2.21
  -2  14   1  341.18   10.24
   2  14  -1  360.04   10.75
  -2  14  -1  340.22   10.34
   2  14   1  339.10    9.22
   4  14  -1   19.98    2.03
  -4  14   1   22.96    2.14
   4  14   1   22.50    1.44
   4  14   1   19.53    2.00
  -4  14  -1   20.97    2.00
  -6  14   1  193.54    6.74
  -6  14   1  187.05    7.59
   6 -14   1  187.16   10.56
   6  14  -1  199.41    7.39
  -6  14  -1  194.65    6.76
   6  14   1  189.28    7.09
   8 -14   1    9.82    3.11
  -8  14   1   11.95    1.49
   8  14  -1   13.88    2.14
   8 -14  -1   14.46    3.45
  -8  14  -1   11.83    1.69
   8  14   1   14.09    2.13
  10 -14   1   87.20    8.05
  10  14  -1   84.08    4.61
  10 -14  -1   95.77    7.80
  10  14   1   83.99    4.46
  12 -14   1    5.35    4.79
  12 -14  -1    4.96    2.88
  14 -14   1   24.15    5.68
  14 -14  -1   35.34    6.24
  -1  15   1   11.82    1.46
   1  15  -1    9.66    1.75
  -1  15  -1   12.82    1.64
   1  15   1   11.71    1.31
   3  15  -1    0.53    0.60
  -3  15   1    1.76    0.80
  -3  15  -1    0.59    0.66
   3  15   1    2.39    0.65
  -5  15   1   17.81    1.91
  -5  15   1   22.17    2.32
   5  15  -1   15.54    1.95
   5  15   1   19.14    1.25
  -5  15  -1   16.25    1.84
   5  15   1   20.57    2.10
  -7  15   1    2.20    0.79
   7  15  -1    2.13    1.04
   7 -15   1    0.66    1.41
  -7  15  -1    1.55    0.78
   7 -15  -1   -0.89    0.97
   9  15  -1   18.18    2.28
  -9  15   1   16.46    1.73
   9 -15   1   23.45    5.05
   9  15   1   20.65    2.36
   9 -15  -1   13.42    3.40
  -9  15  -1   13.59    1.68
  11 -15   1    4.20    2.80
  11 -15  -1    1.81    1.80
  11  15   1    3.51    1.48
  13 -15   1    7.14    3.22
  13 -15  -1   12.90    4.24
  15 -15   1    0.82    2.89
  15 -15  -1    4.59    3.31
   0  16   1  196.05    6.75
   0  16  -1  186.63    7.39
   2  16  -1    2.73    1.02
  -2  16   1    1.21    0.69
  -2  16  -1    1.84    0.92
   2  16   1    2.89    0.82
  -4  16   1  139.07    6.16
   4  16   1  135.79    7.06
  -4  16  -1  136.22    5.87
   4  16   1  141.95    4.70
  -6  16   1    1.92    1.03
  -6  16   1    1.52    0.84
   6  16  -1    3.26    1.18
   6  16   1    1.76    0.93
  -6  16  -1    1.24    0.79
  -8  16   1   75.95    3.89
   8  16  -1   67.69    4.32
   8 -16   1   77.91    7.51
   8 -16  -1   61.10    6.40
   8  16   1   64.80    4.16
  -8  16  -1   67.81    3.78
  10 -16   1   -2.29    1.19
  10  16  -1    0.70    1.05
  10  16   1    0.85    1.26
  10 -16  -1   -0.03    1.28
  12 -16   1   33.71    6.78
  12 -16  -1   21.80    6.78
  14 -16   1    0.13    2.32
  14 -16  -1   -4.45    2.01
  -1  17   1   38.78    2.79
  -1  17  -1   39.59    3.13
   1  17   1   39.83    2.65
   3  17  -1   17.83    2.17
  -3  17   1   16.68    1.99
  -3  17  -1   18.23    2.07
   3  17   1   16.23    1.49
   3  17   1   16.96    2.12
  -5  17   1   42.25    3.16
   5  17  -1   40.95    3.31
  -5  17   1   41.50    3.44
   5  17   1   42.88    2.15
  -5  17  -1   46.06    3.25
   5  17   1   45.34    3.42
   7 -17   1    5.65    2.51
  -7  17   1    4.00    1.15
   7  17  -1    6.70    1.58
   7 -17  -1    4.03    2.03
   7  17   1    4.26    1.40
  -7  17  -1    4.00    1.14
  -9  17   1   28.30    2.41
   9  17  -1   36.52    3.31
   9 -17   1   24.37    5.43
   9  17   1   29.61    2.96
  -9  17  -1   27.60    2.47
   9 -17  -1   26.24    5.38
  11  17  -1    1.17    1.33
  11 -17  -1    0.64    2.35
  11  17   1   -1.46    1.44
  13 -17   1   12.71    4.23
  13 -17  -1   19.34    4.58
   0  18  -1  103.68    5.45
   0  18   1  101.42    4.72
  -2  18   1    1.03    0.72
   2  18  -1    0.47    0.65
  -2  18  -1    1.79    1.02
   2  18   1    0.33    0.44
   2  18   1   -0.49    0.57
  -4  18   1   73.56    4.41
  -4  18   1   78.81    4.68
   4  18  -1   75.96    4.68
   4  18   1   80.05    3.46
  -4  18  -1   75.10    4.42
   4  18   1   81.20    4.77
   6  18  -1    0.90    0.78
  -6  18   1    0.82    0.77
  -6  18  -1    0.68    0.71
   6  18   1    0.50    0.86
  -8  18   1   40.08    3.02
   8  18  -1   42.03    3.57
   8 -18   1   47.13    6.02
   8 -18  -1   37.78    5.20
   8  18   1   41.61    3.49
  10 -18   1    1.25    1.98
 -10  18   1    2.11    1.70
  10  18   1    0.34    1.31
  10 -18  -1    0.53    1.75
  12 -18   1   12.61    4.31
  12 -18  -1   13.91    4.44
  14 -18   1    1.74    2.78
  14 -18  -1    3.26    3.30
  -1  19   1    7.00    1.70
   1  19  -1    9.91    2.10
  -1  19   1    8.37    1.69
  -1  19  -1    6.14    1.66
   1  19   1   11.56    1.78
   1  19   1    8.03    1.84
  -3  19   1    2.27    1.16
  -3  19   1    1.62    0.86
   3  19  -1    1.82    1.01
   3  19   1    0.63    0.55
   3  19   1    0.62    0.79
  -3  19  -1    1.99    1.00
   5  19  -1   13.51    2.52
  -5  19   1   16.88    2.60
  -5  19   1   14.19    2.57
   5  19   1   18.90    2.37
  -5  19  -1   13.59    2.34
  -7  19   1   -0.37    0.67
   7  19  -1   -0.03    0.64
   7 -19   1   -0.77    1.34
   7  19   1   -0.16    0.74
  -7  19  -1   -0.24    0.72
   9  19  -1   12.10    2.38
   9 -19   1    9.28    3.56
  -9  19   1   10.52    1.92
   9  19   1   14.70    2.52
   9 -19  -1   11.97    3.52
  -9  19  -1   11.58    3.32
  11 -19   1    2.34    2.34
  11  19  -1    1.69    1.60
  11  19   1   -0.53    1.51
  11 -19  -1    1.78    2.19
  13 -19   1    8.66    3.89
  13 -19  -1    8.19    3.59
   0  20   1   47.40    3.76
   0  20   1   47.05    3.26
   0  20  -1   49.04    3.86
  -2  20   1  108.65    5.84
  -2  20   1  108.32    5.54
   2  20  -1  117.39    6.22
  -2  20  -1  102.48    5.70
   2  20   1  109.36    5.96
   2  20   1  115.44    4.96
  -4  20   1   47.11    3.65
  -4  20   1   41.10    3.52
   4  20  -1   37.84    3.47
   4  20   1   36.24    3.44
  -4  20  -1   38.93    3.33
   4  20   1   39.43    2.50
  -6  20   1   76.77    4.69
   6  20  -1   74.73    4.98
  -6  20  -1   67.79    4.45
   6  20   1   80.42    5.11
  -8  20   1   20.21    2.45
   8 -20   1   18.33    4.69
   8  20  -1   23.27    2.77
  -8  20  -1   26.00    2.64
   8  20   1   21.63    2.69
   8 -20  -1   14.13    3.94
  10  20  -1   33.62    3.54
 -10  20   1   37.23    3.73
  10 -20   1   23.47    5.43
  10 -20  -1   26.64    5.36
  10  20   1   34.14    3.44
  12 -20   1   16.50    4.93
  12 -20  -1    9.06    3.91
  14 -20   1   11.27    4.42
  14 -20  -1   14.08    4.52
  -1  21   1    7.22    2.02
  -1  21   1    3.02    1.23
   1  21  -1    3.66    1.41
   1  21   1    3.06    1.28
   1  21   1    3.43    1.16
  -1  21  -1    5.49    1.62
  -3  21   1    9.87    1.98
   3  21  -1   12.88    2.53
  -3  21   1   10.47    2.21
   3  21   1   12.03    1.82
   3  21   1   10.82    2.33
  -3  21  -1    9.93    2.21
  -5  21   1   -0.19    0.81
   5  21  -1    0.30    0.98
   5  21   1   -0.13    0.88
  -5  21  -1   -0.35    0.80
   7 -21   1   10.98    3.59
  -7  21   1   14.38    2.55
   7  21  -1   16.74    2.88
   7  21   1    8.48    2.11
  -7  21  -1   11.35    2.26
   9 -21   1   -1.31    1.42
   9  21  -1    2.19    1.40
  -9  21   1    2.20    1.30
   9 -21  -1    4.69    2.37
  -9  21  -1    1.97    1.20
   9  21   1   -0.75    0.96
  11 -21   1   12.34    4.45
  11  21  -1    7.62    2.39
  11 -21  -1   10.89    3.50
  11  21   1   10.26    2.55
  13 -21   1    1.24    2.63
  13 -21  -1    0.10    2.31
   0  22   1    2.08    1.19
   0  22  -1    3.15    1.46
   0  22   1    5.52    1.48
  -2  22   1   22.43    2.59
  -2  22   1   24.05    2.89
   2  22  -1   25.95    3.05
  -2  22  -1   24.83    2.92
   2  22   1   21.70    2.15
   2  22   1   22.28    2.89
  -4  22   1    1.84    1.14
   4  22  -1    1.10    1.18
   4  22   1    3.02    1.32
  -4  22  -1    0.74    1.16
  -6  22   1   17.37    2.80
   6  22  -1   13.90    2.73
   6  22   1   15.28    2.87
  -6  22  -1   14.99    2.69
   8  22  -1    3.16    1.42
   8 -22   1    1.13    1.54
  -8  22   1    2.22    1.18
  -8  22  -1    1.96    1.40
   8  22   1    1.58    1.22
   8 -22  -1   -1.67    1.39
  10  22  -1   10.77    2.61
 -10  22   1    8.34    2.22
  10 -22   1    4.39    2.87
  10  22   1    3.67    1.75
  10 -22  -1    7.22    2.91
  12 -22   1    3.62    3.36
  12 -22  -1    3.80    2.92
  -1  23   1   13.18    2.61
   1  23  -1   14.52    2.72
  -1  23   1   16.28    2.62
   1  23   1    8.97    2.25
  -1  23  -1   11.90    2.60
   1  23   1   12.16    2.10
  -3  23   1   26.24    3.03
   3  23  -1   26.62    3.16
   3  23   1   17.66    3.06
  -3  23  -1   25.54    3.00
   5  23  -1    5.21    1.71
  -5  23   1    2.62    1.34
   5  23   1    5.29    1.68
  -5  23  -1    5.52    1.69
  -7  23   1   20.72    3.23
   7  23  -1   19.59    3.29
   7 -23   1   11.19    3.84
  -7  23  -1   26.08    2.81
   7  23   1   22.87    2.90
   9  23  -1   -0.09    1.27
   9 -23   1    2.15    1.86
  -9  23   1    0.90    1.24
  -9  23  -1    1.42    1.29
   9 -23  -1   -1.07    1.32
   9  23   1    0.60    1.45
  11 -23   1   12.72    4.07
  11  23  -1   13.73    2.95
  11 -23  -1   13.46    3.51
  11  23   1   19.59    3.31
  13 -23   1    1.90    3.29
  13 -23  -1    1.81    2.64
   0  24  -1    1.07    1.02
   0  24   1    1.57    0.94
   0  24   1    1.04    1.16
  -2  24   1   61.69    4.87
   2  24  -1   67.34    5.11
  -2  24  -1   64.00    4.93
   2  24   1   60.93    4.86
   4  24  -1    0.88    1.18
  -4  24   1   -0.37    0.79
   4  24   1    0.96    0.97
  -6  24   1   39.00    3.66
   6  24  -1   36.37    3.95
  -6  24  -1   42.06    3.79
   6  24   1   37.62    3.94
  -8  24   1    2.61    1.28
   8 -24   1    0.01    1.36
   8  24  -1   -1.00    0.95
   8  24   1    0.55    0.94
  -8  24  -1    0.28    1.20
   8 -24  -1    1.71    1.78
  10 -24   1   12.18    3.84
  10  24  -1   19.92    3.66
  10  24   1   23.46    3.87
  10 -24  -1   11.96    3.28
  12 -24   1    0.35    2.45
  12 -24  -1   -0.54    3.00
  -1  25   1    2.92    1.45
   1  25  -1    0.82    1.10
   1  25   1    2.12    1.23
  -1  25  -1    1.93    1.34
   3  25  -1    8.21    2.24
  -3  25   1    4.91    1.79
   3  25   1    7.81    2.27
  -3  25  -1    6.34    1.98
   5  25  -1    0.79    1.24
  -5  25   1    0.17    0.88
   5  25   1    0.24    1.10
  -5  25  -1    0.94    1.07
  -7  25   1    6.78    1.84
   7  25  -1    6.02    1.89
   7 -25   1    6.64    2.82
  -7  25  -1    3.92    1.34
   7  25   1    4.69    1.97
   9  25  -1    1.16    1.67
   9 -25   1   -1.48    1.23
  -9  25   1   -0.21    1.32
   9  25   1   -0.88    1.42
  -9  25  -1    1.11    1.59
   9 -25  -1   -0.76    1.45
  11 -25   1    3.52    2.72
  11  25  -1    8.08    2.88
  11 -25  -1    1.61    2.52
  11  25   1    8.45    2.70
   0  26  -1  116.86    7.22
   0  26   1  101.81    6.78
  -2  26   1    2.87    1.63
   2  26  -1    7.86    2.39
  -2  26  -1    3.61    1.57
   2  26   1    3.81    1.79
   4  26  -1   92.71    6.54
  -4  26   1   77.64    5.77
   4  26   1   97.30    6.51
  -4  26  -1   94.78    6.28
   6  26  -1    6.53    2.31
   6  26   1    1.05    1.68
  -6  26  -1    4.21    1.91
  -8  26   1   53.54    4.46
   8  26  -1   51.05    4.71
   8 -26   1   28.16    5.83
   8 -26  -1   31.24    5.97
  -8  26  -1   43.63    4.22
   8  26   1   53.23    4.98
  10 -26   1    2.23    2.37
  10  26  -1   -0.92    1.71
  10 -26  -1    3.83    2.44
  10  26   1    3.64    2.20
  12 -26   1   10.65    4.73
  12 -26  -1   12.53    6.16
   1  27  -1    5.92    2.16
  -1  27   1    6.27    2.19
  -1  27  -1    4.81    1.86
   1  27   1    3.73    1.74
   3  27  -1    0.95    1.23
  -3  27   1    3.46    1.67
   3  27   1   -1.23    0.72
   5  27  -1    7.20    2.69
  -5  27   1    4.92    1.90
  -5  27  -1   11.84    2.74
   7 -27   1    0.84    1.62
   7  27  -1    1.38    1.30
   7  27   1    1.82    1.52
   9  27  -1   11.22    2.92
  -9  27   1    3.34    1.97
   9 -27   1    4.30    2.99
   9 -27  -1    1.75    2.31
  -9  27  -1    9.63    2.51
   9  27   1    4.69    2.18
  11 -27   1   -1.23    1.79
  11  27  -1    5.13    2.76
  11 -27  -1   -0.09    1.96
  11  27   1   -2.65    2.43
   0  28  -1    4.78    1.69
   0  28   1    5.56    2.18
  -2  28   1   23.30    3.93
   2  28   1   25.67    6.24
  -2  28  -1   20.31    3.59
   4  28  -1    3.67    1.86
   4  28   1    2.44    1.79
  -4  28  -1   -0.71    2.03
  -6  28   1   17.59    3.31
   6  28  -1   16.66    3.44
  -6  28  -1   19.20    3.26
   6  28   1   19.06    3.96
   8  28  -1    3.39    1.68
   8 -28   1    1.18    1.73
  -8  28   1    0.52    1.41
   8  28   1    3.09    1.82
   8 -28  -1   -2.06    1.29
  -8  28  -1    0.11    1.47
  10  28  -1    6.06    2.74
  10 -28   1    5.07    3.18
  10 -28  -1    5.65    2.78
  10  28   1   11.32    3.37
  -1  29   1   16.47    3.33
   1  29  -1    8.37    2.63
   1  29   1   12.11    2.87
  -1  29  -1    7.79    2.49
  -3  29   1    7.40    2.29
   3  29  -1    8.92    2.82
   3  29   1    5.42    2.10
  -3  29  -1    3.07    1.88
  -5  29   1   13.40    2.99
   5  29  -1   16.60    3.58
  -5  29  -1   15.35    3.23
   5  29   1   13.05    3.14
  -7  29   1    5.05    1.82
   7 -29   1   -0.28    1.81
   7  29  -1    1.94    1.31
   7  29   1    3.87    1.95
  -7  29  -1    2.83    1.55
   9  29  -1    9.65    2.86
   9 -29   1    9.05    3.33
  -9  29   1    2.64    2.34
  -9  29  -1    9.80    2.71
   9  29   1    7.12    2.91
   9 -29  -1    4.52    2.94
   0  30  -1    3.18    1.82
   0  30   1    4.42    1.93
  -2  30   1   25.82    4.35
   2  30  -1   28.25    4.81
   2  30   1   22.60    4.10
  -2  30  -1   19.72    3.94
   4  30  -1    3.23    1.90
  -4  30   1    2.76    1.66
   4  30   1    3.66    1.72
  -4  30  -1    3.64    1.97
  -6  30   1   15.12    3.08
   6  30  -1   10.06    2.71
   6  30   1   14.50    3.29
  -6  30  -1   18.40    3.22
   8 -30   1    3.59    2.86
  -8  30   1    3.39    1.97
   8  30  -1    3.11    2.24
  -8  30  -1   -1.23    1.55
   8  30   1    2.37    2.00
   8 -30  -1    0.79    1.93
  -1  31   1   -1.59    0.71
   1  31   1    0.88    1.29
  -1  31  -1   -1.08    1.29
   3  31  -1    0.52    1.34
  -3  31   1   -1.06    0.97
  -3  31  -1    0.98    1.45
   3  31   1    2.21    1.67
   5  31  -1   -0.52    1.62
  -5  31   1    0.30    1.23
  -5  31  -1   -1.68    1.13
   5  31   1    0.35    1.40
   7  31  -1    0.22    1.68
   7 -31   1    4.05    2.97
  -7  31   1    5.01    2.00
   7 -31  -1    2.52    2.53
  -7  31  -1    2.84    2.05
   7  31   1    1.41    2.11
  -9  31   1    2.74    2.76
   9 -31   1    4.95    2.86
   9  31  -1    1.32    2.02
   9  31   1    0.32    2.46
   9 -31  -1    5.68    3.21
  -9  31  -1   -1.04    2.63
   0  32   1   18.66    3.70
   0  32  -1   14.70    3.52
  -2  32   1   23.49    4.25
   2  32  -1   23.52    4.50
   2  32   1   24.17    4.14
  -2  32  -1   25.73    4.47
   4  32  -1   13.85    3.41
  -4  32   1   14.27    3.23
  -4  32  -1   13.06    3.49
   4  32   1   12.18    3.22
  -6  32   1   12.13    3.02
   6  32  -1   13.13    3.45
  -6  32  -1   14.93    3.47
   6  32   1   11.12    3.10
  -8  32   1    8.57    2.81
   8 -32   1    6.54    3.56
   8  32  -1   10.52    3.09
   8 -32  -1    1.92    2.36
  -8  32  -1    7.84    2.58
   8  32   1    8.94    3.12
   1  33  -1    1.13    1.72
  -1  33   1    4.37    2.04
  -1  33  -1    0.84    1.64
   1  33   1    3.22    1.98
   3  33  -1    2.10    1.83
  -3  33   1    9.89    3.11
   3  33   1    4.12    2.31
  -3  33  -1    4.16    2.28
   5  33  -1   -1.03    1.34
  -5  33   1    1.80    1.86
  -5  33  -1    3.54    2.17
   5  33   1    0.60    1.69
  -7  33   1    4.44    2.23
   7 -33   1    4.35    2.78
   7  33  -1    5.83    2.63
   7 -33  -1    8.33    3.67
   7  33   1    8.78    3.05
  -7  33  -1    8.72    2.76
   0  34   1    5.42    2.49
   0  34  -1    9.97    2.93
   2  34  -1    2.73    1.85
  -2  34   1    0.60    1.72
   2  34   1    1.22    1.80
  -2  34  -1    2.90    1.86
   4  34  -1    5.66    2.45
  -4  34   1    3.35    1.80
   4  34   1    4.33    2.35
  -4  34  -1    9.23    2.65
   6  34  -1   -3.12    1.76
  -6  34   1    1.05    2.18
   6 -34   1   -1.95    1.53
  -6  34  -1    3.68    2.10
   6  34   1   -2.63    1.76
   1  35  -1    0.49    1.67
  -1  35   1    2.48    2.02
  -1  35  -1    2.08    1.71
   1  35   1    1.34    1.42
  -3  35   1    4.04    2.38
   3  35  -1    6.81    2.80
   3  35   1    1.89    2.28
  -3  35  -1    3.49    2.07
   5  35  -1    0.42    2.29
  -5  35   1    2.49    2.06
   5  35   1    0.97    2.74
  -5  35  -1    2.01    1.98
   0  36  -1   28.78    4.93
   0  36   1   22.20    4.48
   2  36  -1   -0.07    1.90
  -2  36   1    2.34    1.91
  -2  36  -1    1.34    1.87
   2  36   1    0.34    1.88
   0   0   2  114.28    3.16
   0   0  -2  128.71    3.53
  -2   0   2  110.21    3.17
   2   0   2  101.03    3.70
   2   0  -2  113.88    3.28
   2   0  -2  104.94    2.50
   4   0   2   70.43    3.57
  -4   0   2   79.37    2.54
   4   0  -2   75.80    2.70
   6   0  -2   46.66    2.56
   6   0   2   50.49    3.45
   8   0  -2   45.41    3.01
   8   0   2   40.77    3.69
  10   0  -2   16.36    2.15
  10   0   2   14.92    3.08
  12   0   2   20.43    3.73
  12   0  -2   19.57    2.62
  14   0  -2    3.46    1.70
  14   0   2    2.56    1.71
  16   0  -2    7.99    2.50
  16   0   2   14.28    3.86
   1  -1   2   44.55    2.00
   1   1  -2   51.54    1.93
  -1   1   2   50.64    1.90
   1   1   2   48.67    1.97
   1  -1  -2   48.53    1.27
  -1   1  -2   48.35    1.82
   3   1  -2   45.66    1.87
  -3   1   2   48.56    1.88
   3  -1   2   49.02    2.65
   3   1  -2   47.39    1.69
   3   1   2   40.43    2.35
  -3  -1   2   49.54    1.74
   3  -1  -2   45.07    1.73
   5   1  -2   32.73    1.84
   5   1  -2   31.67    1.51
   5  -1   2   28.94    2.46
   5  -1  -2   31.90    1.90
   5   1   2   33.65    2.53
  -5  -1   2   32.01    1.45
   7   1  -2   27.44    2.11
   7  -1   2   25.69    2.67
  -7   1   2   27.36    1.73
   7   1   2   27.88    2.70
   7  -1  -2   29.60    2.25
   9  -1   2   12.07    2.69
   9   1  -2   15.62    1.90
   9   1   2   11.52    2.45
   9  -1  -2   14.85    1.93
  11   1  -2   13.09    2.45
  11  -1   2   13.80    3.20
  11  -1  -2   14.46    2.62
  11   1   2   10.92    2.93
  13  -1   2    5.40    2.23
  13   1  -2    5.45    1.69
  13   1   2    6.06    2.17
  13  -1  -2    6.44    1.81
  15   1  -2    4.09    1.96
  15  -1   2    5.88    2.21
  15  -1  -2    3.72    1.68
  15   1   2    3.81    2.08
   0   2  -2  281.83    6.89
   0   2   2  266.60    6.77
   0   2   2  276.60    6.54
   2  -2   2  569.99   13.81
  -2   2   2  553.21   12.72
   2   2  -2  573.92   12.88
   2   2   2  561.38   13.38
  -2   2  -2  549.17   12.56
  -2  -2   2  563.49   12.48
   4   2  -2  167.18    4.82
   4   2  -2  167.30    4.76
   4  -2   2  180.17    6.45
   4  -2  -2  172.02    5.11
   4   2   2  178.05    6.07
  -4  -2   2  163.36    4.23
  -6   2   2  280.84    7.72
   6   2  -2  294.36    8.15
   6   2  -2  287.01    7.14
   6  -2   2  279.94    9.91
   6  -2  -2  279.30    8.45
  -6  -2   2  285.16    6.91
   6   2   2  281.09    9.48
   8  -2   2   68.54    4.80
   8   2  -2   65.11    3.56
   8   2   2   60.29    4.32
   8  -2  -2   65.73    3.89
  10   2  -2   88.46    6.15
  10  -2   2  102.98    6.75
  10  -2  -2  101.81    6.41
  10   2   2  106.87    6.48
  12   2  -2   16.57    2.76
  12  -2   2   14.75    3.45
  12  -2  -2   17.13    2.91
  12   2   2   21.84    3.95
  14   2  -2   30.70    3.37
  14  -2   2   25.73    4.70
  14   2   2   30.48    4.21
  14  -2  -2   28.86    3.45
  16  -2   2    4.63    2.68
  16   2  -2    8.01    2.29
  16   2   2    6.11    2.75
  16  -2  -2    2.99    2.46
   1   3  -2  235.32    6.12
  -1   3   2  221.52    5.85
   1   3   2  226.70    5.86
   1   3   2  214.69    5.99
  -1   3  -2  233.11    5.98
   3  -3   2  171.83    6.13
   3   3  -2  182.39    4.69
   3   3  -2  182.84    5.07
  -3   3   2  164.09    5.57
  -3  -3   2  177.25    4.39
  -3   3  -2  174.93    4.68
   3   3   2  174.76    5.70
   3  -3  -2  174.53    5.08
   5   3  -2  143.74    4.32
   5  -3   2  148.27    6.23
  -5   3   2  140.77    4.54
   5   3  -2  140.31    4.60
   5   3   2  134.39    5.53
  -5  -3   2  144.16    3.60
   5  -3  -2  137.58    5.05
  -7   3   2   89.82    3.73
   7   3  -2   93.37    3.09
   7  -3   2   92.55    5.40
   7   3  -2   86.64    3.92
   7  -3  -2   88.72    4.36
   7   3   2   87.06    4.87
   7   3   2   92.79    2.59
   9  -3   2   60.16    4.84
   9   3  -2   63.50    3.72
   9   3   2   65.72    4.69
   9  -3  -2   62.79    4.14
  11   3  -2   37.17    3.18
  11  -3   2   43.61    4.65
  11  -3  -2   35.42    3.37
  11   3   2   36.98    4.05
  13   3  -2   27.55    3.01
  13  -3   2   35.16    4.54
  13  -3  -2   26.81    3.26
  13   3   2   29.65    3.92
  15  -3   2   14.22    4.19
  15   3  -2   12.59    2.52
  15   3   2   19.62    3.96
  15  -3  -2   12.30    2.93
   0   4   2  212.04    5.54
   0   4  -2  201.51    5.69
  -2   4   2    1.76    0.49
   2  -4   2    1.03    0.56
   2   4  -2    1.06    0.40
  -2   4  -2    1.28    0.39
   2   4   2    2.58    1.11
   4  -4   2  125.79    5.41
   4   4  -2  116.74    3.99
  -4   4   2  117.68    3.95
   4   4  -2  118.98    3.82
   4  -4  -2  120.08    4.36
  -4   4  -2  112.77    3.46
  -4  -4   2  113.17    2.83
   4   4   2  108.07    4.55
  -6   4   2    0.34    0.41
   6   4  -2    1.88    0.68
   6  -4   2    0.51    0.60
   6  -4  -2    0.35    0.48
   6   4   2    0.44    0.53
   8  -4   2   36.16    3.65
   8   4  -2   43.06    2.82
   8  -4  -2   43.27    3.25
   8   4   2   47.65    3.71
  10   4  -2    0.65    0.75
  10  -4   2    0.56    1.13
  10  -4  -2    1.64    1.12
  10   4   2    0.67    1.06
  12  -4   2   12.48    3.19
  12   4  -2   15.60    2.60
  12   4   2   14.33    3.31
  12  -4  -2   19.37    3.47
  14   4  -2    2.31    1.24
  14  -4   2    3.73    2.06
  14   4   2    1.35    1.70
  14  -4  -2    1.87    1.57
  16  -4   2    3.33    2.58
  16   4   2    1.39    1.95
  16  -4  -2    2.18    2.37
  -1   5   2   47.67    2.23
   1   5  -2   50.34    2.28
  -1   5  -2   46.95    2.18
   1   5   2   47.21    2.22
   1   5   2   48.09    1.99
   3  -5   2   34.48    2.60
  -3   5   2   39.41    1.99
   3   5  -2   38.50    2.02
   3   5   2   37.61    2.29
  -3   5  -2   39.19    1.87
   3   5   2   36.53    1.70
   5   5  -2   23.27    1.62
  -5   5   2   25.27    1.75
   5   5  -2   25.56    1.69
   5  -5   2   22.06    2.38
   5   5   2   23.79    2.13
  -5   5  -2   24.77    1.33
   5  -5  -2   24.18    2.00
   7   5  -2   17.23    1.36
   7   5  -2   16.27    1.60
   7  -5   2   20.10    3.36
  -7   5   2   17.75    1.69
   7  -5  -2   18.40    2.07
   7   5   2   18.29    2.14
   7   5   2   15.72    1.11
   9   5  -2   10.50    1.93
   9  -5   2   10.50    2.55
   9   5   2   10.72    0.99
   9  -5  -2   13.14    2.43
   9   5   2    8.50    2.01
  11   5  -2    8.32    1.81
  11  -5   2    5.96    2.19
  11  -5  -2    8.15    2.06
  11   5   2    7.80    2.39
  13  -5   2    5.05    2.31
  13   5  -2    4.42    1.50
  13   5   2    2.57    1.94
  13  -5  -2    0.12    1.40
  15  -5   2    3.81    2.17
  15   5   2    4.07    2.17
  15  -5  -2    7.12    2.53
   0   6  -2  346.95    8.99
   2   6  -2    6.44    1.02
  -2   6   2    5.78    0.73
  -2   6  -2    6.03    0.95
   2   6   2    4.18    0.55
   2   6   2    3.73    0.81
  -4   6   2  216.87    6.58
   4  -6   2  233.49    8.49
   4   6  -2  225.45    6.58
  -4   6  -2  217.71    6.14
  -4  -6   2  229.19    4.75
  -4  -6   2  212.88    4.74
   4   6   2  221.59    5.84
   4   6   2  224.59    7.33
   6  -6   2    3.65    1.51
   6   6  -2    3.40    0.82
  -6   6   2    4.16    0.97
   6   6  -2    3.65    0.92
   6   6   2    5.21    0.62
   6   6   2    5.78    1.41
  -6   6  -2    4.25    0.65
   6  -6  -2    2.03    0.91
   8   6  -2   96.75    3.67
   8  -6   2   90.55    6.10
   8   6  -2   88.63    4.29
   8  -6  -2   97.13    5.33
   8   6   2   98.71    5.40
   8   6   2   91.56    3.20
  10   6  -2    6.77    1.55
  10  -6   2    4.57    2.08
  10  -6  -2    5.41    1.85
  10   6   2    4.55    0.65
  10   6   2    4.23    1.78
  12  -6   2   20.95    4.09
  12   6  -2   35.61    3.22
  12  -6  -2   33.87    3.81
  12   6   2   36.18    4.02
  14   6  -2    4.51    1.53
  14  -6   2    4.15    2.36
  14   6   2    3.93    2.01
  14  -6  -2    4.92    2.01
  16  -6   2    7.58    2.98
  16  -6  -2   10.28    3.38
  16   6   2    7.33    2.52
  -1   7   2   92.74    3.45
   1   7  -2  102.77    3.88
   1   7   2  105.93    3.95
  -1   7  -2  100.31    3.75
   3   7  -2   74.30    3.24
  -3   7   2   83.56    3.31
   3   7   2   75.62    2.68
   3   7   2   76.06    3.57
  -3   7  -2   76.42    3.10
   5   7  -2   56.17    2.81
   5  -7   2   60.94    4.27
  -5   7   2   54.66    2.88
  -5   7  -2   58.93    2.53
   5  -7  -2   52.08    3.47
   5   7   2   53.89    3.29
   5   7   2   57.32    2.19
   7   7  -2   34.27    2.42
   7  -7   2   42.55    4.51
  -7   7   2   34.46    2.51
   7   7  -2   37.38    2.28
   7  -7  -2   39.36    3.25
   7   7   2   35.07    1.95
   7   7   2   35.82    3.52
  -7   7  -2   36.02    1.55
   7   7   2   37.27    1.68
   9   7  -2   27.22    1.83
   9  -7   2   28.29    3.65
   9   7  -2   24.43    2.32
   9   7   2   25.64    1.47
   9  -7  -2   29.29    3.12
   9   7   2   31.51    3.15
   9   7   2   24.68    1.23
  11  -7   2   16.28    3.69
  11   7  -2   13.08    2.32
  11   7   2   11.69    2.65
  11  -7  -2   16.54    3.23
  13  -7   2   11.10    4.44
  13   7  -2   11.22    2.22
  13  -7  -2    9.08    2.46
  13   7   2    6.59    3.18
  15  -7   2   10.37    3.44
  15   7   2    4.63    2.22
  15  -7  -2   13.95    3.17
   0   8  -2  379.05   10.07
   0   8   2  376.12    9.51
  -2   8   2  208.77    6.31
   2   8  -2  220.66    6.69
  -2   8  -2  211.95    6.43
   2   8   2  217.40    5.83
   2   8   2  208.38    6.72
  -4   8   2  263.69    7.74
   4   8  -2  265.01    7.74
   4  -8   2  244.78    9.60
  -4   8  -2  257.79    7.29
   4   8   2  257.27    8.27
   4   8   2  261.67    6.59
  -4  -8   2  256.28    6.00
  -4  -8   2  245.96    5.78
  -6   8   2  100.91    4.53
   6   8  -2  106.20    4.29
   6  -8   2  110.05    6.42
   6   8   2   98.33    4.96
   6   8   2  101.01    3.19
   6  -8  -2  105.31    5.54
   8   8  -2  106.73    4.84
  -8   8   2   99.54    4.95
   8  -8   2  109.04    7.08
   8   8  -2  109.30    4.44
   8   8   2  110.50    5.80
   8   8   2  108.73    3.15
   8  -8  -2  111.25    6.19
   8   8   2  116.56    4.14
  10   8  -2   34.38    2.86
  10  -8   2   38.71    4.65
  10   8  -2   27.51    2.57
  10   8   2   35.15    3.51
  10  -8  -2   29.09    3.42
  12  -8   2   39.14    5.06
  12   8  -2   44.97    3.60
  12  -8  -2   33.81    4.09
  12   8   2   37.44    4.03
  14  -8   2    7.89    2.96
  14   8   2    7.95    2.46
  14  -8  -2    8.09    2.78
  16  -8   2    5.70    3.10
  16  -8  -2    1.82    3.56
  16   8   2   10.97    3.22
  -1   9   2  181.85    5.65
   1   9  -2  186.88    6.06
   1   9   2  175.10    5.29
  -1   9  -2  183.52    5.93
  -3   9   2  165.82    5.58
   3   9  -2  154.70    5.57
   3   9   2  160.10    5.86
  -3   9  -2  158.77    5.37
   3   9   2  155.07    4.60
   5   9  -2  105.85    4.44
  -5   9   2  121.31    4.79
   5  -9   2   96.63    6.03
  -5   9  -2  105.59    4.04
   5   9   2  104.11    4.93
   5   9   2  110.88    3.38
   7   9  -2   84.18    3.91
  -7   9   2   82.43    4.24
   7  -9   2   81.68    5.97
   7   9   2   76.05    4.55
   7  -9  -2   81.75    5.27
   7   9   2   76.70    3.45
   7   9   2   83.77    2.60
   9   9  -2   46.26    2.79
   9   9  -2   54.54    3.46
  -9   9   2   46.38    1.76
   9  -9   2   44.80    4.87
   9  -9  -2   48.67    4.38
   9   9   2   49.99    2.63
   9   9   2   47.22    3.93
  11  -9   2   34.85    4.82
  11  -9  -2   37.14    4.10
  11   9   2   45.83    4.21
  13  -9   2   13.27    3.88
  13  -9  -2   20.89    4.05
  13   9   2   21.43    3.90
  15  -9   2   16.88    4.73
  15  -9  -2    6.07    2.54
  15   9   2   11.46    3.10
   0  10   2   43.50    2.25
   0  10  -2   42.79    2.54
  -2  10   2   42.42    2.42
   2  10  -2   37.65    2.44
  -2  10  -2   39.47    2.40
   2  10   2   39.15    1.97
  -4  10   2   28.48    2.17
   4  10  -2   30.48    2.28
  -4  10  -2   30.02    2.06
   4  10   2   32.60    1.62
   4  10   2   35.50    2.61
  -6  10   2   15.36    1.77
   6 -10   2   11.83    2.80
   6  10  -2   19.13    1.79
   6  10   2   17.60    1.08
  -6  10  -2   16.20    1.47
   6 -10  -2   21.20    2.73
   6  10   2   18.40    2.15
   8 -10   2   21.93    4.13
   8  10  -2   20.32    2.02
  -8  10   2   21.84    2.29
  -8  10   2   19.06    1.43
   8  10   2   18.26    0.79
   8  10   2   19.50    1.75
   8 -10  -2   18.13    3.34
  -8  10  -2   19.73    1.38
   8  10   2   18.72    2.35
  10 -10   2    6.44    2.30
  10  10  -2    3.90    1.11
  10 -10  -2    9.74    2.44
  10  10   2    5.25    1.09
  10  10   2    7.88    2.17
  12 -10   2   10.84    3.11
  12  10   2   10.70    2.64
  12 -10  -2   10.58    3.01
  14 -10   2    3.45    2.47
  14 -10  -2    3.39    2.35
  14  10   2   -0.48    1.45
  16 -10   2    6.04    3.57
  16 -10  -2   10.31    6.45
   1  11  -2    5.66    1.22
  -1  11   2    7.45    1.22
   1  11   2    7.14    0.88
  -1  11  -2    6.22    1.26
   3  11  -2    5.89    1.21
  -3  11   2    4.03    0.97
   3  11   2    5.57    0.86
  -3  11  -2    6.55    1.25
  -5  11   2    6.64    1.38
   5  11  -2    3.73    1.05
   5 -11   2    4.37    1.88
  -5  11  -2    5.81    1.11
   5  11   2    6.27    0.70
   5  11   2    4.49    1.25
   7  11  -2    3.53    1.01
   7 -11   2    2.70    1.51
  -7  11   2    1.58    1.01
   7  11   2    2.51    0.44
   7  11   2    1.60    0.73
   7  11   2    3.66    1.34
   7 -11  -2    6.10    1.91
  -7  11  -2    2.28    0.83
   9 -11   2    1.57    1.39
   9  11  -2    4.09    1.11
   9 -11  -2    1.98    1.45
   9  11   2    3.51    1.37
   9  11   2    4.16    1.09
  11  11  -2    2.49    1.39
  11 -11   2    0.68    1.50
  11 -11  -2   -0.85    1.22
  11  11   2    1.20    0.91
  13 -11   2    3.42    2.42
  13  11   2    2.67    1.63
  13 -11  -2    6.02    2.01
  15 -11   2   -3.66    2.01
  15  11   2    0.62    1.50
  15 -11  -2    2.05    2.27
   0  12  -2  101.94    4.55
   0  12   2  106.19    4.11
  -2  12   2  471.91   12.44
   2  12  -2  469.19   12.88
   2  12   2  451.76   11.48
  -2  12  -2  461.00   12.59
  -4  12   2   66.83    3.69
   4  12  -2   65.57    3.68
  -4  12  -2   70.06    3.51
   4  12   2   67.03    2.68
   6 -12   2  257.79   12.15
  -6  12   2  278.77    9.33
   6  12  -2  263.45    8.87
  -6  12  -2  264.83    8.22
   6  12   2  293.36    7.64
   6  12   2  267.53    9.51
  -8  12   2   25.55    1.85
  -8  12   2   24.53    2.61
   8 -12   2   28.83    5.04
   8  12  -2   26.79    2.40
   8  12   2   25.74    2.83
  -8  12  -2   24.33    1.92
   8 -12  -2   28.22    3.62
   8  12   2   20.40    1.99
  10  12  -2  108.77    5.05
  10 -12   2  122.93    9.24
  10 -12  -2  110.02    7.71
  10  12   2  102.91    4.68
  10  12   2  107.10    6.33
  12 -12   2    1.94    1.99
  12 -12  -2    6.09    2.42
  14 -12   2   43.25    7.63
  14  12   2   38.18    4.42
  14 -12  -2   24.63    4.24
  -1  13   2   78.35    3.67
   1  13  -2   78.74    4.05
   1  13   2   75.57    3.34
  -1  13  -2   74.43    3.87
   3  13  -2   69.92    3.83
  -3  13   2   64.07    3.57
  -3  13  -2   67.14    3.59
   3  13   2   67.66    2.87
  -5  13   2   51.88    3.69
   5  13  -2   54.55    3.46
   5  13   2   54.71    2.32
  -5  13  -2   51.66    3.11
   7  13  -2   32.50    2.68
  -7  13   2   35.44    3.08
   7 -13   2   34.44    4.44
   7  13   2   33.50    1.40
   7  13   2   31.38    2.48
   7  13   2   35.26    3.18
  -7  13  -2   33.09    2.36
   9  13  -2   30.18    2.72
  -9  13   2   24.54    1.86
   9 -13   2   21.34    4.44
   9  13   2   25.16    2.33
   9  13   2   22.35    2.77
   9 -13  -2   36.18    4.39
  11  13  -2   11.26    1.88
  11 -13   2   15.25    4.20
  11 -13  -2   14.74    3.50
  11  13   2   16.40    3.10
  13 -13   2   10.19    3.78
  13 -13  -2   13.58    4.85
  13  13   2   16.60    3.32
  15 -13   2   -0.70    2.49
  15 -13  -2    7.62    3.47
   0  14  -2    7.94    1.53
   0  14   2    7.59    1.25
   2  14  -2   23.70    2.30
  -2  14   2   24.69    2.12
  -2  14  -2   22.53    2.13
   2  14   2   21.26    1.65
   4  14  -2    5.30    1.36
  -4  14   2    5.03    1.57
   4  14   2    5.04    0.87
  -4  14  -2    6.75    1.38
  -6  14   2    9.82    1.94
   6  14  -2   12.81    2.05
   6 -14   2   12.54    3.33
   6  14   2   11.46    1.83
  -6  14  -2   10.94    1.79
   6  14   2    9.59    0.90
  -8  14   2    0.64    0.82
   8  14  -2   -1.28    0.90
  -8  14   2    2.00    0.82
   8 -14   2    0.86    1.26
  -8  14  -2    1.48    0.82
   8 -14  -2    1.08    0.96
   8  14   2    2.21    0.88
   8  14   2    1.12    0.98
  10  14  -2    3.04    1.28
  10 -14   2    2.61    2.50
  10  14   2    2.74    1.45
  10 -14  -2    2.13    1.52
  10  14   2   -0.06    1.13
  12 -14   2    1.35    2.37
  12 -14  -2    0.95    1.66
  14 -14   2   -4.12    2.25
  14 -14  -2   -3.77    2.21
  -1  15   2   92.72    4.25
   1  15  -2   87.35    4.61
   1  15   2   88.22    3.88
  -1  15  -2   90.14    4.59
  -3  15   2   76.49    4.26
   3  15  -2   79.81    4.43
   3  15   2   79.59    3.38
  -3  15  -2   80.73    4.28
  -5  15   2   66.90    4.15
   5  15   2   63.89    2.74
  -5  15  -2   64.38    3.73
  -7  15   2   41.91    3.48
   7 -15   2   45.95    5.40
  -7  15   2   45.13    2.98
   7  15  -2   42.81    3.27
   7  15   2   43.83    1.67
   7 -15  -2   36.77    4.59
  -7  15  -2   40.33    2.86
   7  15   2   47.62    3.30
   9 -15   2   42.53    7.34
  -9  15   2   30.46    2.36
   9  15  -2   34.83    3.08
  -9  15  -2   29.63    2.38
   9  15   2   27.88    2.66
   9 -15  -2   26.56    4.95
  11 -15   2   24.04    5.61
  11  15  -2   20.69    2.57
  11 -15  -2   23.04    4.84
  11  15   2   17.17    2.50
  13 -15   2    9.46    3.70
  13 -15  -2   14.08    3.53
  15 -15   2    8.91    3.71
  15 -15  -2    7.94    3.29
   0  16   2  122.86    5.08
   0  16  -2  131.72    5.93
  -2  16   2    3.14    1.01
   2  16  -2    3.42    1.45
  -2  16  -2    2.67    1.06
   2  16   2    3.24    0.85
   4  16  -2   94.80    5.10
  -4  16   2   97.27    5.11
   4  16   2   96.21    3.79
  -4  16  -2   96.67    4.87
   6 -16   2    1.95    1.63
  -6  16   2    1.89    1.02
   6  16  -2    1.32    0.87
   6  16   2    1.70    0.56
  -6  16  -2    2.41    0.93
   6  16   2    1.92    1.05
   8 -16   2   48.17    5.94
  -8  16   2   48.25    3.15
   8  16  -2   36.73    3.25
   8 -16  -2   43.07    5.11
  -8  16  -2   48.55    3.18
   8  16   2   47.98    3.49
  10 -16   2    0.01    1.50
  10  16  -2    0.94    1.08
 -10  16   2    1.76    1.23
  10 -16  -2   -0.24    1.16
  10  16   2    0.83    1.03
  12 -16   2   15.81    4.87
  12 -16  -2   17.29    4.32
  14 -16   2    4.12    3.01
  14 -16  -2   -0.71    2.66
  -1  17   2    0.50    0.60
   1  17  -2    2.07    1.03
  -1  17  -2    1.60    1.01
   1  17   2    0.68    0.56
  -3  17   2    1.10    0.80
   3  17  -2    0.89    0.75
   3  17   2    0.37    0.48
   5  17  -2   -0.78    0.48
  -5  17   2    0.26    0.70
   5  17   2   -0.43    0.33
   5  17   2    1.18    0.57
   7 -17   2   -1.02    0.88
  -7  17   2    1.39    0.86
   7  17  -2    1.41    0.95
  -7  17   2    1.08    0.57
   7  17   2    1.74    0.87
  -7  17  -2    1.18    0.81
   9 -17   2    0.92    2.50
   9  17  -2    1.58    0.95
  -9  17   2   -0.67    0.82
   9  17   2    1.49    1.06
   9 -17  -2    0.24    1.46
  -9  17  -2    1.32    1.06
  11  17  -2    2.51    1.49
  11 -17   2   -0.50    1.80
  11  17   2   -0.83    1.39
  11 -17  -2   -1.93    1.77
  13 -17   2    0.05    2.47
  13 -17  -2    2.75    2.33
   0  18  -2  252.22    9.44
   0  18   2  251.83    8.54
  -2  18   2   23.31    2.41
   2  18  -2   21.88    2.55
  -2  18  -2   24.32    2.58
   2  18   2   19.75    1.85
   4  18  -2  175.16    7.81
  -4  18   2  194.93    8.04
  -4  18  -2  184.37    7.60
   4  18   2  192.92    6.25
  -6  18   2    7.93    1.74
   6  18  -2   13.28    2.41
  -6  18   2    7.94    1.96
   6  18   2   11.37    2.24
   6  18   2   10.31    1.10
  -6  18  -2   12.63    2.14
  -8  18   2   85.72    4.64
   8 -18   2   91.33    8.61
   8  18  -2   84.58    5.22
  -8  18  -2   87.96    5.25
   8  18   2   95.05    5.34
   8 -18  -2   72.52    6.99
  10  18  -2    2.19    1.37
  10 -18   2    1.22    2.08
 -10  18   2    1.90    1.42
  10  18   2    3.81    1.63
  10 -18  -2    5.40    2.62
  12 -18   2   33.63    7.20
  12 -18  -2   30.38    5.85
  14 -18   2    4.30    3.32
  14 -18  -2    4.68    3.16
   1  19  -2   58.88    4.20
  -1  19   2   59.41    3.81
   1  19   2   52.15    3.39
  -1  19  -2   54.52    4.05
   3  19  -2   52.53    4.03
  -3  19   2   51.91    3.77
  -3  19  -2   49.35    3.73
   3  19   2   48.89    2.93
  -5  19   2   39.48    3.53
   5  19  -2   40.78    3.62
  -5  19  -2   34.00    3.04
   5  19   2   39.02    2.35
   5  19   2   38.82    3.44
   7 -19   2   25.08    5.46
   7  19  -2   28.99    3.07
  -7  19   2   29.86    2.81
  -7  19   2   28.43    3.24
   7  19   2   36.12    3.33
  -7  19  -2   28.68    2.74
   9 -19   2   22.44    5.85
  -9  19   2   20.01    2.30
   9  19  -2   19.35    3.09
   9 -19  -2   14.40    4.13
   9  19   2   17.20    2.78
  -9  19  -2   17.65    2.53
  11  19  -2   17.10    2.94
  11 -19   2   19.80    5.71
  11  19   2   11.84    2.51
  13 -19   2    9.44    4.61
  13 -19  -2    5.56    2.92
   0  20  -2   -0.69    0.69
   0  20   2    0.88    0.79
  -2  20   2    1.01    0.76
   2  20  -2    0.72    0.79
  -2  20  -2   -0.54    0.82
   2  20   2   -0.22    0.65
   4  20  -2   -0.12    0.73
  -4  20   2   -0.04    0.57
   4  20   2    0.82    0.92
  -4  20  -2    2.37    1.15
   4  20   2    0.03    0.50
   6  20  -2    1.49    1.01
  -6  20   2   -0.29    0.64
  -6  20   2    2.59    1.24
   6  20   2    2.89    1.41
  -6  20  -2    1.40    1.00
  -8  20   2    1.52    0.94
   8  20  -2   -0.44    0.81
   8 -20   2   -2.17    1.17
   8 -20  -2   -0.03    1.37
  -8  20  -2   -0.23    0.90
   8  20   2    0.31    0.95
  10 -20   2    2.58    2.33
  10  20  -2   -0.45    1.14
 -10  20   2    0.69    1.48
  10  20   2   -0.67    1.07
  10 -20  -2    3.45    1.88
  12 -20   2   -0.42    2.48
  12 -20  -2   -0.16    2.21
  14 -20   2    5.52    6.53
  14 -20  -2    3.28    3.81
   1  21  -2   41.27    3.83
  -1  21   2   53.27    3.69
   1  21   2   44.29    3.19
  -1  21  -2   47.71    4.05
  -3  21   2   37.21    3.35
   3  21  -2   41.63    3.82
  -3  21  -2   42.15    3.65
   3  21   2   41.13    3.72
   3  21   2   38.02    3.35
  -5  21   2   38.25    3.39
   5  21  -2   38.89    3.64
  -5  21   2   26.24    3.10
  -5  21  -2   34.73    3.32
   5  21   2   33.22    3.38
   5  21   2   36.41    2.40
   7  21  -2   25.35    2.90
  -7  21   2   21.61    2.55
   7 -21   2   29.28    6.01
  -7  21  -2   24.63    2.70
   7  21   2   23.02    2.80
   9  21  -2   20.15    3.33
   9 -21   2   20.76    5.75
  -9  21   2   24.40    2.85
  -9  21  -2   16.15    2.57
   9 -21  -2   16.47    4.12
   9  21   2   18.47    3.18
  11  21  -2    8.54    2.48
  11 -21   2    8.05    3.46
  11  21   2    8.17    2.57
  11 -21  -2   10.41    3.28
  13 -21   2   10.38    4.94
  13 -21  -2    6.21    3.69
   0  22  -2   22.67    2.86
   0  22   2   27.79    2.67
   2  22  -2  191.28    8.96
  -2  22   2  198.97    8.32
   2  22   2  200.03    7.49
  -2  22  -2  198.00    8.82
  -4  22   2   19.87    3.18
   4  22  -2   18.62    3.16
  -4  22   2   20.32    2.65
  -4  22  -2   21.92    2.78
   4  22   2   19.58    2.11
   4  22   2   23.02    2.87
  -6  22   2  128.64    6.77
  -6  22   2  134.64    7.47
   6  22  -2  131.24    7.08
   6  22   2  127.17    7.14
  -6  22  -2  122.29    6.48
  -8  22   2   11.86    2.26
   8  22  -2   13.18    2.59
   8 -22   2    8.33    3.22
   8 -22  -2    6.47    2.68
  -8  22  -2   12.56    2.30
   8  22   2   10.43    2.41
  10 -22   2   54.34    7.18
  10  22  -2   54.82    4.70
 -10  22   2   57.97    4.49
  10  22   2   63.71    5.08
  10 -22  -2   35.97    6.10
  12 -22   2    1.61    2.53
  12 -22  -2    1.41    2.21
  -1  23   2    3.27    1.17
  -1  23   2    1.09    0.87
  -1  23  -2    1.68    1.14
   1  23   2    1.61    1.15
   1  23   2    0.41    0.88
   3  23  -2    0.02    0.92
  -3  23   2    2.02    0.90
   3  23   2    1.25    1.13
   3  23   2    0.23    0.72
  -3  23  -2    1.07    1.02
  -5  23   2    1.96    1.21
   5  23  -2   -0.30    0.99
  -5  23   2    1.57    1.23
   5  23   2    1.04    1.08
  -5  23  -2    1.24    1.17
   7 -23   2    0.57    1.36
   7  23  -2    0.27    0.99
  -7  23   2   -0.63    0.79
   7  23   2   -0.62    0.95
  -7  23  -2    0.38    0.95
   9 -23   2   -0.97    1.44
  -9  23   2   -0.53    1.16
   9  23  -2    1.68    1.35
  -9  23  -2    0.00    1.25
   9  23   2   -0.26    1.21
   9 -23  -2    2.21    1.98
  11  23  -2   -2.92    1.61
  11 -23   2   -2.25    1.55
  11 -23  -2    4.99    2.61
  11  23   2    2.03    2.18
  13 -23   2   -2.71    3.51
  13 -23  -2    6.25    3.60
   0  24  -2    8.50    2.38
   0  24   2    4.18    1.43
   0  24   2    6.26    1.71
  -2  24   2   23.18    2.95
  -2  24   2   22.37    2.73
   2  24  -2   22.66    3.92
  -2  24  -2   26.38    3.27
   2  24   2   20.85    2.40
   2  24   2   18.38    3.10
  -4  24   2    4.95    1.70
  -4  24   2    4.26    1.75
   4  24  -2    7.79    2.27
   4  24   2    7.93    1.54
   4  24   2    6.20    1.93
  -4  24  -2    7.30    2.03
  -6  24   2   11.63    2.60
   6  24  -2   16.82    3.16
   6  24   2   13.61    2.96
  -6  24  -2   12.79    2.63
  -8  24   2    5.02    1.59
   8  24  -2    1.48    1.41
   8 -24   2    4.73    2.55
   8  24   2    6.67    2.19
  -8  24  -2    1.85    1.14
 -10  24   2   -2.18    2.05
  10  24  -2    3.60    2.07
  10 -24   2    6.27    3.49
  10 -24  -2    6.04    3.06
  10  24   2    6.14    2.22
  12 -24   2    2.71    2.66
  12 -24  -2    3.71    2.94
  -1  25   2   35.52    3.37
  -1  25   2   39.78    3.88
   1  25  -2   32.81    3.86
  -1  25  -2   36.71    3.97
   1  25   2   35.23    3.71
   1  25   2   36.70    3.12
   3  25  -2   27.42    3.53
  -3  25   2   35.14    3.66
  -3  25   2   35.77    3.65
   3  25   2   34.34    3.77
  -3  25  -2   36.07    3.79
   3  25   2   30.45    2.74
  -5  25   2   25.47    3.22
   5  25  -2   25.33    4.01
   5  25   2   27.52    4.27
  -5  25  -2   27.15    3.27
   7 -25   2   17.80    4.74
   7  25  -2   13.91    3.81
  -7  25   2   17.36    3.00
  -7  25  -2   16.95    2.86
   7  25   2   20.43    3.63
   9 -25   2   12.38    4.01
  -9  25   2   12.55    2.76
   9  25  -2   17.84    3.40
   9 -25  -2   10.00    3.53
   9  25   2   10.30    3.05
  -9  25  -2   11.11    2.50
  11 -25   2    8.23    3.72
  11  25  -2    5.31    2.64
  11  25   2    0.23    2.40
  11 -25  -2    9.70    3.33
   0  26   2   26.99    2.86
   0  26  -2   31.11    3.72
   0  26   2   19.32    3.28
  -2  26   2    8.68    2.19
  -2  26   2    6.41    2.01
   2  26  -2    8.91    2.51
   2  26   2    9.48    2.54
   2  26   2   10.69    2.10
  -2  26  -2   17.59    3.42
   4  26  -2   14.93    3.19
  -4  26   2   19.95    3.44
   4  26   2   15.48    3.30
  -4  26  -2   19.98    3.62
  -6  26   2    4.95    1.84
   6  26  -2    5.75    2.43
  -6  26  -2    2.55    1.40
   8 -26   2   12.39    4.45
   8  26  -2   11.13    2.43
  -8  26  -2    9.72    2.24
   8  26   2    9.92    2.75
   8 -26  -2    4.67    2.54
  10  26  -2    4.41    2.27
  10 -26   2   -1.93    1.75
  10 -26  -2   -0.21    1.97
  10  26   2   -1.00    1.71
   1  27  -2   14.25    3.09
  -1  27   2   14.18    3.13
  -1  27   2   11.97    2.44
   1  27   2   19.74    3.57
  -1  27  -2   13.96    3.08
   1  27   2   18.27    2.31
   3  27  -2   13.34    3.15
  -3  27   2   16.61    3.14
   3  27   2   15.82    3.19
  -3  27  -2   12.66    3.05
   5  27  -2   15.15    3.11
  -5  27   2   14.46    2.98
   5  27   2   10.71    2.72
  -5  27  -2   12.36    2.74
   7  27  -2    5.31    2.23
   7 -27   2    7.77    3.16
  -7  27   2    9.21    2.45
   7  27   2    9.61    2.57
  -7  27  -2   10.51    2.75
  -9  27   2    5.27    2.35
   9  27  -2    9.92    2.67
   9 -27   2    0.35    1.92
  -9  27  -2    1.87    1.96
   9  27   2   12.87    3.06
   9 -27  -2    3.20    2.43
  11 -27   2    0.50    2.59
  11  27  -2    5.32    2.66
  11 -27  -2    4.71    2.21
  11  27   2    7.66    3.60
   0  28  -2   54.95    6.15
   0  28   2   57.10    6.17
   2  28  -2    2.52    2.78
  -2  28  -2    2.11    1.66
   2  28   2    5.54    3.10
  -4  28   2   66.30    5.62
   4  28  -2   64.28    5.72
  -4  28  -2   45.77    8.86
   4  28   2   67.07    5.75
   6  28  -2    3.00    1.62
  -6  28   2    1.69    1.45
   6  28   2    0.72    1.48
  -6  28  -2    1.69    1.22
  -8  28   2   30.76    3.91
   8 -28   2   28.72    6.21
   8  28  -2   38.11    4.19
   8  28   2   35.12    4.42
   8 -28  -2   24.41    5.23
  -8  28  -2   37.10    3.90
  10  28  -2    0.76    1.93
  10 -28   2   -0.83    1.73
  10  28   2    2.28    2.53
  10 -28  -2    1.08    2.07
  -1  29   2    0.99    1.25
   1  29  -2    3.66    1.88
   1  29   2    1.38    1.51
  -1  29  -2    2.31    1.77
  -3  29   2    1.88    1.44
   3  29  -2   -0.52    1.22
  -3  29  -2    3.47    1.86
   3  29   2   -0.72    0.94
  -5  29   2    4.31    1.72
   5  29  -2    1.07    1.27
   5  29   2   -0.18    1.44
  -5  29  -2   -0.83    0.83
   7 -29   2    1.41    2.52
  -7  29   2    0.00    1.39
   7  29  -2    2.99    1.88
  -7  29  -2    4.66    1.50
   7  29   2    2.32    1.99
   9 -29   2    3.47    2.75
   9  29  -2   -2.36    1.85
  -9  29   2    3.06    2.26
   9 -29  -2    1.38    2.07
  -9  29  -2   -2.93    2.08
   0  30   2    4.16    1.95
   0  30  -2    4.50    2.14
  -2  30   2    7.24    2.30
   2  30  -2    4.32    2.07
   2  30   2    4.66    2.01
  -2  30  -2    6.16    2.16
   4  30  -2    3.98    1.88
  -4  30   2    8.21    2.29
   4  30   2    5.38    1.99
  -4  30  -2    3.17    1.79
   6  30  -2    5.88    2.53
  -6  30   2   -1.54    1.28
   6  30   2    2.93    1.93
  -6  30  -2    1.37    1.59
  -8  30   2   -0.41    1.73
   8  30  -2    1.30    1.92
   8 -30   2    3.37    2.41
   8  30   2    3.76    2.16
  -8  30  -2    7.10    2.19
   8 -30  -2    2.10    2.90
  -1  31   2   16.88    3.51
   1  31  -2   12.67    3.20
  -1  31  -2   23.69    4.29
   1  31   2   16.36    3.43
  -3  31   2   13.76    3.28
   3  31  -2   14.96    3.47
  -3  31  -2   15.39    3.45
   3  31   2   12.77    3.24
  -5  31   2   17.01    3.36
   5  31   2   18.54    4.07
  -5  31  -2   13.11    3.10
  -7  31   2    7.66    2.45
   7 -31   2    7.82    3.36
   7  31  -2   12.35    3.13
  -7  31  -2   11.09    2.94
   7  31   2   11.65    3.18
   9 -31   2    9.65    3.92
   9  31  -2    6.01    4.00
  -9  31   2   14.87    3.50
   9 -31  -2    4.28    3.57
  -9  31  -2   14.66    4.30
   9  31   2   14.80    4.34
   0  32   2   14.64    3.30
   0  32  -2   18.71    3.94
   2  32  -2   40.80    4.78
  -2  32   2   31.54    4.02
   2  32   2   44.14    5.04
  -2  32  -2   51.20    5.27
   4  32  -2   16.73    3.86
  -4  32   2   15.40    3.53
   4  32   2   11.16    3.17
  -4  32  -2   14.73    3.15
  -6  32   2   27.42    4.77
   6  32  -2   22.06    4.04
   6 -32   2   34.49    6.91
   6  32   2   25.51    4.71
  -6  32  -2   32.89    4.17
  -8  32   2    9.40    2.88
   8 -32   2    1.72    3.43
   8  32  -2    9.39    3.26
   8  32   2    8.82    3.15
  -8  32  -2   13.03    3.00
   8 -32  -2   14.12    4.80
   1  33  -2   12.76    3.26
  -1  33   2    6.86    2.14
  -1  33  -2   10.24    2.86
   1  33   2    7.29    2.53
   3  33  -2    5.90    2.55
  -3  33   2    8.81    2.91
   3  33   2    3.06    2.40
  -3  33  -2    4.75    2.23
   5  33  -2    2.16    2.10
  -5  33   2    3.88    2.16
   5  33   2    1.71    2.20
  -5  33  -2    7.44    2.67
   7  33  -2    6.95    2.57
  -7  33   2    2.98    2.31
   7 -33   2    2.85    2.74
  -7  33  -2    6.45    2.70
   7  33   2    4.53    2.53
   7 -33  -2    1.95    2.55
   0  34   2    1.33    1.67
   0  34  -2    5.00    2.48
   2  34  -2    4.12    2.53
  -2  34   2    3.38    2.07
  -2  34  -2   10.13    3.03
   2  34   2    8.45    2.57
  -4  34   2    3.34    2.17
   4  34  -2    5.16    2.41
   4  34   2    4.24    2.40
  -4  34  -2    4.18    2.53
  -6  34   2    3.05    2.09
   6  34  -2    1.86    2.26
   6 -34   2   -1.78    2.44
  -6  34  -2    1.59    1.89
   6  34   2    1.27    2.50
  -1  35   2    0.14    1.34
   1  35  -2   -0.39    1.33
  -1  35  -2    4.40    1.88
   1  35   2    3.29    1.93
  -3  35   2    2.06    2.12
   3  35  -2    4.80    2.46
  -3  35  -2    3.90    2.70
   3  35   2    0.47    1.99
  -5  35   2    3.90    3.33
   0  36  -2    0.60    1.59
   0  36   2    4.76    2.31
  -2  36   2   10.82    3.43
   2  36  -2    9.91    3.26
   2  36   2   17.38    4.16
  -2  36  -2    9.20    3.25
   0   0   3    0.20    0.18
   0   0  -3    0.13    0.23
  -2   0   3    0.91    0.35
   4   0  -3    0.96    0.31
  -4   0   3    0.99    0.39
  -6   0   3    0.39    0.32
   6   0   3    1.01    0.63
  -8   0   3    0.63    0.44
   8   0   3    0.40    0.77
   8   0  -3    0.33    0.44
  10   0   3    0.25    0.86
  10   0  -3    0.14    0.63
  12   0  -3   -0.41    0.89
  12   0   3    2.65    1.71
  14   0   3   -0.69    1.38
  14   0  -3   -1.04    1.38
  16   0   3    1.55    2.12
  -1   1   3  234.01    5.42
  -1   1   3  240.46    6.46
   1   1  -3  238.68    6.52
   1  -1   3  237.14    6.56
  -1   1  -3  238.20    6.34
   1   1   3  234.99    6.42
  -1  -1   3  234.10    5.46
   3   1  -3  140.69    4.35
   3  -1   3  139.91    5.26
  -3  -1   3  135.22    4.20
   3   1   3  141.37    5.13
   3  -1  -3  127.97    3.15
  -5   1   3  200.34    5.85
   5  -1   3  217.17    7.90
   5   1  -3  208.75    5.88
   5   1  -3  204.05    5.51
   5  -1  -3  202.88    5.59
   5   1   3  206.52    7.57
  -5  -1   3  191.11    5.51
   7  -1   3   41.31    3.60
  -7   1   3   45.38    2.40
   7   1  -3   42.65    2.39
   7   1   3   45.95    3.67
   7  -1  -3   47.87    2.62
  -7  -1   3   47.77    2.19
   9  -1   3  121.93    7.11
   9   1  -3  120.92    5.08
   9  -1  -3  126.10    5.32
   9   1   3  124.81    7.05
  11   1  -3   11.99    2.09
  11  -1   3    9.07    2.64
  11   1   3   12.52    3.15
  11  -1  -3   12.32    2.13
  13   1  -3   59.56    4.08
  13  -1   3   52.48   10.00
  13   1   3   53.61    9.18
  13  -1  -3   60.33    4.20
  15   1  -3    2.93    1.98
  15  -1   3    4.03    2.30
  15  -1  -3    0.44    2.11
  15   1   3    4.87    2.20
   0   2  -3   57.34    2.80
   0   2   3   57.70    2.62
   0  -2   3   60.27    2.35
   0   2   3   57.51    2.14
  -2   2   3   20.04    1.38
   2   2  -3   18.64    1.32
   2  -2   3   20.31    1.65
   2   2   3   19.13    1.48
   2  -2  -3   20.75    0.76
  -2   2  -3   19.22    1.27
  -2  -2   3   19.04    1.25
   4   2  -3   39.91    2.05
   4  -2   3   43.38    2.96
   4   2  -3   41.34    1.59
  -4   2   3   42.89    2.12
  -4  -2   3   42.61    1.90
   4  -2  -3   38.47    1.68
   4   2   3   38.81    2.65
  -6   2   3   10.81    1.10
   6  -2   3   12.93    2.30
   6   2  -3    7.69    0.93
   6   2  -3    9.65    0.98
   6  -2  -3    8.54    1.17
   6   2   3   12.29    2.20
  -6  -2   3   10.28    0.83
   8  -2   3   16.03    2.91
  -8   2   3   21.18    1.71
   8   2  -3   19.40    1.68
   8   2   3   20.22    2.58
   8  -2  -3   18.00    1.75
  10   2  -3    4.97    1.39
  10  -2   3    4.39    1.85
  10   2   3    2.74    1.55
  10  -2  -3    7.90    1.77
  12   2  -3    7.83    1.90
  12  -2   3    7.66    2.43
  12   2   3    5.12    1.94
  12  -2  -3    9.27    2.09
  14   2  -3    0.44    1.14
  14  -2   3    1.21    1.35
  14   2   3   -0.01    1.24
  14  -2  -3    3.83    1.57
  16  -2   3    3.88    2.50
  16   2   3    0.26    1.80
   1   3  -3    0.67    0.34
  -1   3   3    0.73    0.34
   1  -3   3    0.23    0.35
   1   3   3    0.18    0.29
   1   3   3    0.44    0.30
   3   3  -3   12.41    1.13
   3  -3   3   10.51    1.34
  -3   3   3   10.45    1.02
   3  -3  -3   10.90    0.81
   3   3   3   11.88    1.28
  -3  -3   3   12.04    0.95
  -3   3  -3   10.84    0.95
   5  -3   3    6.87    1.72
   5   3  -3    4.18    0.85
   5   3  -3    4.67    0.77
  -5   3   3    5.68    0.98
  -5  -3   3    6.03    0.62
   5   3   3    6.14    1.49
   5  -3  -3    6.14    1.01
   7   3  -3   17.56    1.40
   7   3  -3   22.23    1.64
  -7   3   3   19.51    1.67
   7  -3   3   17.91    3.07
   7   3   3   20.06    2.37
   7  -3  -3   20.66    1.81
  -7  -3   3   21.01    1.16
   9  -3   3    6.99    2.13
   9   3  -3    9.34    1.60
   9  -3  -3   10.04    1.90
   9   3   3   12.02    2.68
  11  -3   3   13.05    3.48
  11   3  -3   16.10    1.91
  11   3   3   17.77    3.50
  11  -3  -3   15.81    2.48
  13  -3   3   11.55    3.53
  13   3  -3    4.71    1.55
  13   3   3    6.38    2.46
  13  -3  -3    8.86    2.06
  15  -3   3    9.08    3.18
  15   3   3    9.90    2.99
   0   4  -3   91.95    3.49
   0   4   3   93.93    3.21
   0   4   3   92.51    3.38
  -2   4   3   97.94    3.57
   2   4  -3   94.82    3.62
   2  -4   3   95.45    4.22
  -2   4  -3   93.01    3.44
   2   4   3   95.09    3.45
   2   4   3   91.39    3.72
   4   4  -3   58.63    2.71
   4  -4   3   51.74    3.46
  -4   4   3   57.07    2.68
   4   4   3   51.23    3.10
  -4   4  -3   54.36    2.40
   4  -4  -3   53.27    2.46
  -4  -4   3   59.61    2.25
   6   4  -3   54.47    2.67
   6  -4   3   53.14    4.00
   6   4  -3   55.84    2.53
  -6   4   3   57.45    2.87
   6   4   3   48.53    3.44
   6  -4  -3   53.44    2.90
  -6  -4   3   53.24    1.83
   8   4  -3   25.29    1.93
   8  -4   3   27.64    4.41
  -8   4   3   22.34    2.03
   8  -4  -3   22.54    2.18
   8   4   3   21.68    1.22
   8   4   3   19.00    2.49
  10  -4   3   24.61    4.43
  10   4  -3   23.15    2.19
  10  -4  -3   26.92    2.65
  10   4   3   20.59    3.57
  12  -4   3    8.46    2.64
  12   4  -3    8.97    1.84
  12  -4  -3    8.51    2.03
  12   4   3    8.35    2.56
  14  -4   3    9.29    3.29
  14   4   3    5.71    2.43
  14  -4  -3    8.41    2.00
  16  -4   3    4.46    2.48
  16   4   3    5.64    2.64
  -1   5   3  230.78    6.58
   1   5  -3  232.48    6.85
   1   5   3  229.74    6.46
   1   5   3  225.33    6.66
  -1   5  -3  234.63    6.77
   3  -5   3  274.09    8.94
   3   5  -3  262.68    7.56
  -3   5   3  270.26    7.47
  -3   5  -3  247.42    7.15
   3   5   3  249.66    7.08
   3   5   3  262.02    8.00
  -5   5   3   97.93    3.95
   5  -5   3   91.18    5.22
   5   5  -3   93.64    3.85
  -5   5  -3  104.80    3.96
   5   5   3  102.71    4.80
  -5  -5   3   95.04    2.74
   7   5  -3  167.52    5.57
   7  -5   3  155.28    8.91
  -7   5   3  169.82    6.10
   7   5  -3  173.94    5.65
   7  -5  -3  165.18    6.33
   7   5   3  162.06    8.08
   9   5  -3   32.59    2.38
   9  -5   3   28.80    3.69
   9  -5  -3   33.61    2.94
   9   5   3   26.55    1.34
   9   5   3   28.91    3.27
  11   5  -3   87.86    4.55
  11  -5   3   86.92    6.92
  11  -5  -3   90.93    5.33
  11   5   3   88.27    6.27
  11   5   3   89.79    3.49
  13  -5   3    9.98    3.08
  13  -5  -3    9.57    2.24
  13   5   3    5.97    2.22
  15  -5   3   33.58    6.14
  15   5   3   47.80    5.36
   0   6  -3  115.14    4.31
   0   6   3  114.06    4.01
   2   6  -3   90.04    3.70
  -2   6   3   83.52    3.41
   2   6   3   83.15    3.66
   2   6   3   88.02    3.28
  -2   6  -3   87.30    3.53
   4  -6   3   65.05    4.20
  -4   6   3   69.44    3.20
   4   6  -3   66.60    3.20
  -4  -6   3   64.87    2.49
  -4   6  -3   70.56    3.00
   4   6   3   73.97    2.92
   4   6   3   73.25    3.76
  -6   6   3   46.83    2.80
   6   6  -3   47.94    2.67
   6  -6   3   44.46    3.86
   6   6   3   47.06    2.31
   6   6   3   50.73    3.49
   6  -6  -3   44.85    2.93
  -6   6  -3   49.66    2.48
   8   6  -3   29.74    2.08
   8  -6   3   25.91    3.41
   8   6  -3   33.13    2.30
  -8   6   3   30.65    2.52
   8   6   3   29.93    1.87
   8  -6  -3   32.83    2.79
   8   6   3   34.05    3.25
  10  -6   3   23.80    4.36
  10   6  -3   22.22    2.16
  10  -6  -3   24.42    2.74
  10   6   3   23.08    3.72
  10   6   3   18.11    1.45
  12  -6   3   10.99    3.14
  12  -6  -3   15.96    2.81
  12   6   3    9.35    2.52
  14  -6   3    8.52    3.33
  14  -6  -3    8.34    2.38
  14   6   3    6.19    2.42
  16  -6   3    4.48    2.87
  16   6   3    5.28    2.55
   1   7  -3  130.89    4.82
  -1   7   3  133.57    4.60
   1   7   3  131.59    4.72
   1   7   3  131.49    4.40
  -1   7  -3  136.27    4.86
   3  -7   3  176.07    7.21
  -3   7   3  174.84    5.75
   3   7  -3  167.63    5.85
  -3   7  -3  173.65    5.68
   3   7   3  172.85    6.19
   3   7   3  177.10    5.29
   5   7  -3   44.45    2.65
   5  -7   3   45.77    3.84
  -5   7   3   46.63    2.75
   5   7   3   46.59    3.19
   5   7   3   49.32    2.28
  -5   7  -3   44.09    2.36
   5  -7  -3   44.80    2.99
  -5  -7   3   46.53    1.37
   7  -7   3  130.05    7.39
  -7   7   3  127.27    5.42
   7   7  -3  133.16    5.05
   7  -7  -3  132.44    5.91
   7   7   3  125.70    4.25
  -7   7  -3  125.19    4.09
   7   7   3  119.96    6.02
  -9   7   3   11.66    1.99
   9   7  -3   10.92    1.37
   9  -7   3    8.78    2.46
   9   7   3    9.80    1.04
   9  -7  -3   11.45    2.34
   9   7   3   11.53    2.39
  11  -7   3   73.03    6.60
  11   7   3   73.35    5.66
  11  -7  -3   72.83    5.08
  13  -7   3    7.36    3.38
  13  -7  -3    0.19    1.44
  13   7   3    2.12    1.48
  15  -7   3   40.71    7.17
  15   7   3   42.89    5.11
   0   8  -3   48.89    2.74
   0   8   3   50.28    2.50
  -2   8   3   32.58    2.07
   2   8  -3   31.01    2.17
  -2   8  -3   33.14    2.14
   2   8   3   29.74    1.79
   2   8   3   34.94    2.31
  -4   8   3   36.51    2.37
   4  -8   3   30.16    3.01
   4   8  -3   37.37    2.45
  -4   8  -3   37.50    2.25
   4   8   3   38.07    1.98
   4   8   3   39.87    2.80
  -6   8   3   12.97    1.56
   6   8  -3   17.98    1.70
   6  -8   3   13.22    2.66
   6   8   3   16.77    2.02
   6  -8  -3   13.85    1.87
  -6   8  -3   16.08    1.46
   6   8   3   16.49    1.27
   8  -8   3   25.53    4.43
  -8   8   3   15.54    2.46
   8   8  -3   17.63    1.79
   8   8   3   17.39    2.91
   8   8   3   18.53    1.35
   8  -8  -3   17.56    2.38
  10   8  -3    6.32    1.24
  10  -8   3    6.79    2.73
  10   8   3    7.43    2.13
  10  -8  -3    4.76    1.71
  12  -8   3    7.26    3.09
  12  -8  -3    7.08    2.21
  12   8   3    5.53    2.24
  14  -8   3    4.30    2.38
  14  -8  -3    2.55    1.93
  14   8   3   -1.22    1.29
  16  -8   3    2.78    3.13
  16   8   3    0.49    1.98
   1   9  -3   20.52    1.80
  -1   9   3   21.37    1.65
  -1   9  -3   21.75    1.81
   1   9   3   23.19    1.62
  -3   9   3    4.42    0.96
   3   9  -3    3.40    0.95
  -3   9  -3    4.93    1.10
   3   9   3    4.30    1.08
   3   9   3    4.02    0.79
  -5   9   3   30.19    2.28
   5  -9   3   29.12    3.25
   5   9  -3   30.34    2.31
   5   9   3   28.62    2.53
  -5   9  -3   29.72    2.05
   5   9   3   34.04    1.83
  -7   9   3    0.61    0.66
   7   9  -3   -0.98    0.40
   7  -9   3   -0.01    0.75
  -7   9  -3   -0.14    0.41
   7   9   3    1.34    0.87
   7  -9  -3    0.08    0.68
   7   9   3    0.15    0.40
   9  -9   3   20.21    4.11
  -9   9   3   22.09    2.49
   9   9  -3   25.14    2.12
   9   9   3   24.54    1.88
   9   9   3   24.40    1.42
   9   9   3   23.33    2.87
   9  -9  -3   20.36    2.73
  11  -9   3    5.60    2.38
  11  -9  -3    2.48    1.44
  11   9   3    1.31    1.19
  13  -9   3   11.03    3.48
  13   9   3   12.43    3.18
  13  -9  -3   14.43    3.03
  15  -9   3   -0.35    2.22
  15   9   3    3.04    2.28
   0  10   3    0.73    0.51
   0  10  -3    0.48    0.47
   2  10  -3   12.59    1.49
  -2  10   3   11.85    1.34
   2  10   3   11.89    1.17
  -2  10  -3   10.22    1.29
   4 -10   3    0.66    0.68
   4  10  -3    0.58    0.51
  -4  10   3    0.14    0.38
  -4  10  -3    0.26    0.43
   4  10   3   -0.06    0.36
   4  10   3    0.21    0.31
  -6  10   3    4.46    1.20
   6 -10   3    4.85    1.83
   6  10  -3    5.40    1.29
   6 -10  -3    7.54    1.91
   6  10   3    4.93    0.82
  -6  10  -3    6.87    1.26
   6  10   3    4.16    1.25
  -8  10   3    0.64    0.70
   8 -10   3    1.24    1.54
   8  10  -3   -0.50    0.60
   8  10   3    0.60    0.54
  -8  10  -3    0.15    0.51
   8 -10  -3   -0.02    0.72
   8  10   3    0.38    0.81
   8  10   3    0.75    0.37
  10  10  -3    0.71    0.81
  10 -10   3    2.07    1.77
  10  10   3    2.41    0.97
  10 -10  -3    3.41    1.52
  10  10   3    1.96    1.28
  12 -10  -3    0.19    1.33
  14 -10   3   -0.16    2.27
  14  10   3    2.28    1.62
  14 -10  -3    1.34    1.86
   1  11  -3  186.71    6.77
  -1  11   3  189.36    6.36
  -1  11  -3  201.90    6.86
   1  11   3  194.07    6.10
   3  11  -3  119.89    5.19
  -3  11   3  123.73    5.07
   3  11   3  127.42    5.42
  -3  11  -3  122.10    5.00
   3  11   3  117.06    4.20
   5 -11   3  165.74    9.05
  -5  11   3  172.06    6.61
   5  11  -3  183.59    6.74
  -5  11  -3  163.19    6.04
   5  11   3  175.19    5.24
   5  11   3  172.52    7.12
   7 -11   3   48.23    4.95
  -7  11   3   43.96    3.33
   7  11  -3   43.02    3.14
   7  11   3   45.46    3.64
   7 -11  -3   49.18    4.16
   7  11   3   48.53    2.17
  -7  11  -3   46.45    2.78
   9  11  -3  107.93    5.12
   9 -11   3  106.28    8.16
  -9  11   3  103.89    5.81
   9  11   3  102.46    6.12
   9 -11  -3  128.19    7.24
   9  11   3  107.83    4.71
   9  11   3  100.32    3.04
  11 -11   3   18.95    4.65
  11  11  -3   15.01    1.95
  11  11   3   17.94    3.41
  11 -11  -3   16.18    2.99
  13 -11   3   56.84    6.91
  13 -11  -3   51.16    4.87
  13  11   3   56.66    5.27
  15 -11   3    6.04    3.61
  15  11   3    2.42    2.03
   0  12   3   11.68    1.30
   0  12  -3   13.61    1.65
   2  12  -3    9.92    1.73
  -2  12   3    9.32    1.48
  -2  12  -3   12.62    1.51
   2  12   3   11.69    1.20
   4  12  -3   10.93    1.87
  -4  12   3   10.33    1.70
  -4  12  -3   12.45    1.91
   4  12   3   10.11    1.81
   4  12   3    9.94    1.06
   6  12  -3    6.14    1.53
  -6  12   3    7.76    1.71
   6 -12   3    6.23    2.28
   6  12   3    7.10    1.02
   6  12   3    7.98    1.89
  -6  12  -3    6.58    1.35
  -8  12   3    6.45    1.69
   8  12  -3    4.53    1.34
   8 -12   3    8.05    2.93
   8 -12  -3    3.29    1.77
   8  12   3    6.76    1.96
   8  12   3    6.10    0.88
   8  12   3    3.12    0.99
  -8  12  -3    8.02    1.46
  10 -12   3    3.96    2.33
  10  12  -3    1.91    1.00
  10  12   3    1.90    1.02
  10 -12  -3    0.52    1.40
  10  12   3    3.14    1.52
  12 -12   3   -2.32    1.46
  12 -12  -3    1.54    1.64
  12  12   3    3.23    1.70
  14 -12   3    6.00    3.38
  14 -12  -3    2.68    2.46
  14  12   3   -0.57    1.42
   1  13  -3   71.95    4.08
  -1  13   3   74.00    3.70
  -1  13  -3   73.81    4.01
   1  13   3   81.88    3.59
   3  13  -3   34.98    2.78
  -3  13   3   35.75    2.68
  -3  13  -3   34.01    2.59
   3  13   3   37.72    2.17
   5 -13   3   78.27    6.11
  -5  13   3   81.21    4.52
   5  13  -3   85.87    4.60
  -5  13  -3   87.06    4.24
   5  13   3   90.54    4.92
   5  13   3   81.23    3.26
  -7  13   3    8.04    1.88
   7  13  -3    8.98    2.20
   7 -13   3   14.44    3.75
   7 -13  -3    8.57    2.53
  -7  13  -3    8.41    1.59
   7  13   3   10.70    2.23
   7  13   3   10.92    1.03
  -9  13   3   55.69    3.07
   9 -13   3   66.41    6.84
   9  13  -3   59.91    3.88
  -9  13   3   51.33    4.23
   9  13   3   63.68    4.72
   9  13   3   56.93    3.58
  -9  13  -3   51.65    2.76
   9 -13  -3   52.28    5.03
  11 -13   3    4.09    2.81
  11  13  -3    1.63    1.25
  11  13   3    2.54    1.76
  11 -13  -3    0.92    1.51
  13 -13   3   26.84    6.02
  13 -13  -3   37.00    5.36
  13  13   3   33.28    4.17
  15 -13   3    2.52    2.70
   0  14   3   21.16    1.86
   0  14  -3   21.68    2.18
  -2  14   3   62.68    3.54
   2  14  -3   62.47    3.84
  -2  14  -3   64.08    3.78
   2  14   3   62.37    3.11
  -4  14   3   16.25    1.95
   4  14  -3   17.96    2.09
  -4  14  -3   16.64    1.85
   4  14   3   13.72    1.30
   6 -14   3   33.06    4.31
  -6  14   3   36.34    3.15
   6  14  -3   31.43    2.81
   6  14   3   37.61    2.02
  -6  14  -3   36.30    2.73
   6  14   3   34.18    3.16
   8  14  -3    7.55    1.80
  -8  14   3    8.68    2.06
   8 -14   3    9.49    3.39
   8 -14  -3   12.09    3.01
  -8  14  -3    8.28    1.69
   8  14   3    8.11    1.99
   8  14   3   11.14    2.41
 -10  14   3   13.71    1.72
  10 -14   3   14.33    4.04
  10  14  -3   19.89    2.33
  10  14   3   12.55    2.76
  10 -14  -3   15.74    3.51
  10  14   3   14.52    2.37
  12 -14   3    4.17    2.85
  12 -14  -3    6.45    2.58
  12  14   3    4.34    2.16
  14 -14   3    9.10    3.70
  14 -14  -3    3.69    2.73
   1  15  -3   16.92    2.03
  -1  15   3   16.29    1.74
  -1  15  -3   14.74    1.88
   1  15   3   17.20    1.67
  -3  15   3   28.80    2.53
  -3  15  -3   27.19    2.49
   3  15   3   30.65    2.09
  -5  15   3    4.88    1.34
   5  15  -3    5.37    1.52
   5  15   3    5.28    0.97
  -5  15  -3    3.37    1.12
  -7  15   3   26.31    2.89
   7  15  -3   30.94    2.83
   7 -15   3   23.51    4.63
  -7  15  -3   25.10    2.38
   7  15   3   29.04    1.69
   7 -15  -3   23.68    4.23
   9 -15   3   -0.48    1.33
   9  15  -3   -0.50    0.79
  -9  15   3    1.52    0.92
   9  15   3    0.28    0.81
  -9  15  -3    0.26    0.86
   9 -15  -3   -1.79    1.15
   9  15   3    0.47    0.84
  11 -15   3   31.48    6.48
  11  15  -3   18.84    2.65
  11  15   3   18.97    3.75
  11 -15  -3   15.73    3.45
  13 -15   3   -0.05    1.82
  13 -15  -3    3.27    2.38
  15 -15   3   12.20    5.13
   0  16  -3   58.21    4.66
   0  16   3   53.91    3.22
   2  16  -3   41.01    3.27
  -2  16   3   38.16    2.88
   2  16   3   39.77    2.53
  -2  16  -3   30.37    3.28
   4  16  -3   40.17    3.31
  -4  16   3   41.59    3.26
  -4  16  -3   42.35    3.20
   4  16   3   43.27    2.50
   6  16  -3   21.77    2.49
  -6  16   3   26.30    2.77
   6 -16   3   15.82    3.58
  -6  16  -3   24.47    2.36
   6  16   3   21.79    1.61
   8  16  -3   20.62    2.58
  -8  16   3   22.24    2.87
   8 -16   3   14.76    3.69
   8  16   3   19.00    1.21
   8  16   3   17.67    2.23
  -8  16  -3   23.84    2.32
   8 -16  -3   20.74    4.39
  10  16  -3   14.70    2.52
 -10  16   3   10.15    1.74
  10 -16   3   11.41    3.96
  10 -16  -3    9.86    3.19
  10  16   3   10.03    2.14
  12 -16   3    3.57    2.92
  12 -16  -3   13.10    3.40
  14 -16   3    0.12    3.09
  14 -16  -3    4.97    3.18
  -1  17   3  104.57    4.99
   1  17  -3  104.72    5.55
  -1  17  -3  102.25    5.41
   1  17   3  104.91    4.65
   3  17  -3  119.52    6.14
  -3  17   3  137.63    6.21
  -3  17  -3  121.41    5.95
   3  17   3  124.18    4.89
  -5  17   3   50.73    3.90
   5  17  -3   49.67    3.87
  -5  17  -3   57.61    3.76
   5  17   3   49.60    2.71
  -7  17   3  101.37    5.98
   7  17  -3  100.28    5.66
   7 -17   3   98.78    8.32
   7  17   3  104.99    3.72
   7  17   3  100.58    5.52
  -7  17  -3  101.47    5.17
   9 -17   3   12.63    4.04
   9  17  -3   18.02    3.03
  -9  17   3   17.11    2.13
  -9  17  -3   16.36    2.38
   9  17   3   18.52    2.34
   9 -17  -3   19.96    4.36
  11 -17   3   62.64    7.90
  11  17  -3   53.96    4.28
  11  17   3   47.79    4.08
  11 -17  -3   52.97    5.87
  13 -17   3    5.76    3.58
  13 -17  -3    7.71    3.12
   0  18   3   36.85    2.74
   0  18  -3   30.56    3.03
  -2  18   3   15.51    1.97
   2  18  -3   13.20    2.53
   2  18   3   12.91    1.60
  -2  18  -3   11.74    2.23
   4  18  -3   25.40    2.73
  -4  18   3   28.24    2.92
  -4  18  -3   27.75    2.77
   4  18   3   29.93    2.17
  -6  18   3    6.07    1.89
   6  18  -3    7.00    1.85
   6 -18   3    9.62    3.13
  -6  18  -3    7.20    1.66
   6  18   3    8.18    1.21
   8 -18   3    6.68    2.90
   8  18  -3   13.83    2.57
  -8  18   3   12.00    2.57
  -8  18   3   12.37    2.08
  -8  18  -3   13.65    2.24
   8  18   3   10.96    2.23
   8 -18  -3   10.74    3.15
  10  18  -3    7.20    2.07
  10 -18   3    5.24    3.10
 -10  18   3    2.50    1.57
  10 -18  -3    3.24    1.92
  10  18   3    4.29    1.64
  12 -18   3    9.10    3.87
  12 -18  -3    8.05    3.00
  14 -18   3    0.02    2.94
  14 -18  -3   -4.82    3.31
  -1  19   3   22.90    2.33
   1  19  -3   27.22    2.90
  -1  19  -3   26.09    2.83
   1  19   3   26.45    2.30
  -3  19   3   34.58    3.14
   3  19  -3   39.71    3.56
  -3  19  -3   35.80    3.30
   3  19   3   35.27    2.53
  -5  19   3    9.72    2.22
   5  19  -3    8.37    2.04
  -5  19  -3   11.17    2.31
   5  19   3    9.66    1.45
   7 -19   3   38.68    5.28
   7  19  -3   30.55    3.20
  -7  19   3   40.69    3.88
   7  19   3   36.52    3.46
  -7  19  -3   32.79    2.96
   7  19   3   33.34    2.00
  -9  19   3    0.17    0.91
   9 -19   3    0.16    1.72
   9  19  -3    2.84    1.21
   9 -19  -3    1.06    1.46
   9  19   3    4.39    1.55
  -9  19  -3    1.48    1.40
  11 -19   3   20.63    5.39
  11  19  -3   19.38    3.24
  11 -19  -3   14.20    4.07
  11  19   3   18.21    3.13
  13 -19   3   -4.78    2.03
  13 -19  -3    1.07    2.99
   0  20   3    2.70    1.02
   0  20  -3    0.92    0.91
   2  20  -3    3.41    1.39
  -2  20   3    6.25    1.64
   2  20   3    5.22    1.19
  -2  20  -3    6.00    1.66
  -4  20   3    1.32    0.95
   4  20  -3    2.50    1.17
  -4  20  -3    0.48    0.99
   4  20   3    1.09    0.65
   6 -20   3    4.18    2.16
  -6  20   3    6.17    1.81
   6  20  -3    5.34    1.69
   6  20   3    3.45    0.98
   6  20   3    3.44    1.43
  -6  20  -3    3.39    1.44
  -8  20   3   -0.73    0.94
  -8  20   3   -0.37    0.89
   8 -20   3    2.15    1.87
   8  20  -3    1.48    1.19
  -8  20  -3    1.47    1.11
   8 -20  -3   -1.47    0.95
   8  20   3    1.78    1.39
 -10  20   3    3.41    1.65
  10 -20   3    2.04    2.32
  10  20  -3    0.28    1.28
  10 -20  -3   -2.98    1.31
  10  20   3   -2.46    1.12
  12 -20   3    1.97    2.07
  12 -20  -3   -0.71    2.45
   1  21  -3   24.29    2.98
  -1  21   3   24.75    2.59
   1  21   3   27.60    2.51
  -1  21  -3   24.37    2.90
   3  21  -3   11.69    2.41
  -3  21   3   11.85    2.35
  -3  21  -3   15.10    2.78
   3  21   3   12.34    1.91
  -5  21   3   30.72    3.33
   5  21  -3   31.31    3.24
   5  21   3   34.20    3.43
   5  21   3   29.85    2.33
  -5  21  -3   27.81    3.01
   7  21  -3    5.42    1.78
  -7  21   3    5.01    1.79
  -7  21   3    2.68    1.26
   7 -21   3    3.70    2.13
   7  21   3    4.91    1.66
  -7  21  -3    4.65    1.46
   7  21   3    1.38    0.85
   9  21  -3   24.08    3.15
   9 -21   3   17.74    4.94
  -9  21   3   22.48    2.74
   9 -21  -3   16.93    4.12
   9  21   3   23.72    3.64
  -9  21  -3   26.97    2.95
  11  21  -3    2.33    3.64
  11 -21   3    5.19    3.59
  11  21   3   -2.24    1.79
  11 -21  -3    1.73    2.10
  13 -21   3   12.69    4.24
  13 -21  -3   16.97    4.64
   0  22   3    1.45    0.99
   0  22  -3    2.40    1.42
   2  22  -3    2.33    1.42
  -2  22   3    2.71    1.20
   2  22   3    1.54    0.94
  -2  22  -3    2.08    1.22
  -4  22   3    0.32    0.94
   4  22  -3    2.00    1.15
   4  22   3    2.24    1.00
  -4  22  -3    0.13    1.06
  -6  22   3    2.00    1.13
  -6  22   3    3.41    1.51
   6  22  -3    3.63    1.61
   6 -22   3    1.14    1.48
   6  22   3    2.72    1.41
  -6  22  -3    0.38    0.94
   6  22   3    1.86    0.90
  -8  22   3    1.30    1.07
   8 -22   3    0.73    1.63
   8  22  -3    2.32    1.26
   8 -22  -3    1.90    1.72
  -8  22  -3    4.08    1.45
   8  22   3    1.86    1.37
  10 -22   3   -0.03    2.18
 -10  22   3    3.79    2.03
  10 -22  -3   -0.20    1.74
  12 -22   3   -1.10    1.80
  12 -22  -3    2.32    2.45
  -1  23   3   77.90    4.83
   1  23  -3   70.71    5.31
   1  23   3   68.89    4.34
  -1  23  -3   70.54    5.20
  -3  23   3   44.89    3.96
   3  23  -3   42.58    4.09
   3  23   3   48.58    3.42
  -3  23  -3   54.41    4.43
   5  23  -3   68.03    5.23
  -5  23   3   66.59    5.17
  -5  23   3   76.76    5.27
  -5  23  -3   68.92    5.03
   5  23   3   78.61    5.57
   5  23   3   72.53    3.85
   7  23  -3   20.00    3.39
  -7  23   3   15.27    2.73
  -7  23   3   17.46    5.52
   7 -23   3   12.79    4.87
  -7  23  -3   17.39    2.87
   7  23   3   20.33    3.60
  -9  23   3   53.22    4.23
   9 -23   3   56.52    7.37
   9  23   3   44.86    4.62
  -9  23  -3   49.87    4.07
  11 -23   3    5.21    3.62
  11  23  -3    9.65    2.93
  11 -23  -3    1.19    2.53
  11  23   3   10.75    2.65
   0  24   3   12.33    2.26
   0  24  -3   10.38    2.60
  -2  24   3   10.49    2.30
   2  24  -3   11.65    2.49
  -2  24  -3   12.08    2.67
   2  24   3   12.60    2.12
  -4  24   3   10.04    2.28
  -4  24   3    9.18    2.27
   4  24  -3    9.88    2.45
  -4  24  -3   11.20    2.48
   4  24   3   11.13    1.89
   4  24   3    6.43    2.00
   6  24  -3    8.45    2.42
  -6  24   3    9.92    2.40
   6 -24   3    8.08    2.88
  -6  24   3    5.80    2.06
   6  24   3    6.91    2.29
  -6  24  -3    7.03    1.77
   8  24  -3    6.09    2.54
   8 -24   3    8.34    3.49
  -8  24   3    2.24    1.50
  -8  24  -3    5.15    1.76
  10  24  -3    2.52    1.75
  10 -24   3    0.11    1.92
 -10  24   3    4.55    2.46
  10 -24  -3    1.84    2.07
  10  24   3    5.81    2.28
  12 -24   3   -1.05    2.07
  12 -24  -3    3.01    3.36
  -1  25   3   12.37    2.34
   1  25  -3    7.16    2.21
   1  25   3    9.29    2.35
  -1  25  -3    6.93    2.16
   1  25   3    9.83    2.01
  -3  25   3    0.79    0.95
   3  25  -3    3.59    1.75
  -3  25   3    2.94    1.27
   3  25   3    4.32    1.61
  -3  25  -3    2.63    1.44
   3  25   3    4.10    1.33
   5  25  -3   12.06    2.66
  -5  25   3   11.79    2.76
  -5  25   3    8.67    2.26
   5  25   3   10.80    2.69
  -5  25  -3   12.89    2.69
   5  25   3   12.64    1.93
   7  25  -3    0.98    1.56
  -7  25   3    0.58    1.26
   7 -25   3   -0.60    1.51
  -7  25  -3    1.92    1.24
   9  25  -3   12.43    3.30
   9 -25  -3   12.52    3.67
   9  25   3   16.44    3.17
  -9  25  -3   15.67    2.64
  11  25  -3   -1.62    2.12
  11 -25   3    0.94    2.11
  11 -25  -3    4.48    2.74
  11  25   3   -0.96    2.60
   0  26  -3   16.79    3.41
   0  26   3   21.47    3.55
   0  26   3   20.26    2.53
  -2  26   3   11.42    2.44
   2  26  -3    9.68    2.73
  -2  26   3    8.67    2.28
   2  26   3   10.04    2.01
   2  26   3    7.96    2.26
  -2  26  -3   10.22    2.59
  -4  26   3   18.37    3.34
   4  26  -3   22.52    3.99
  -4  26   3   16.36    3.02
   4  26   3   18.73    2.20
   4  26   3   15.24    3.22
  -4  26  -3   19.25    3.34
   6 -26   3    9.63    3.72
  -6  26   3    5.69    1.68
   6  26  -3    5.71    2.08
  -6  26  -3   10.84    2.36
   6  26   3    5.56    2.17
   8  26  -3   16.01    3.25
  -8  26   3   17.02    2.96
   8 -26   3    6.84    3.33
   8  26   3   16.82    3.43
  10  26  -3    6.56    2.46
  10 -26   3    2.20    2.33
  10  26   3    3.53    2.34
  10 -26  -3    6.62    3.15
   1  27  -3   16.67    3.27
  -1  27   3   17.66    3.19
  -1  27   3   16.52    2.80
   1  27   3   10.51    2.50
  -1  27  -3   17.08    3.34
   1  27   3   18.18    2.80
  -3  27   3   21.26    3.57
  -3  27   3   26.13    3.41
   3  27   3   28.76    2.79
  -3  27  -3   29.77    3.64
   5  27  -3    5.35    2.16
  -5  27  -3    5.24    2.59
   5  27   3    9.71    2.67
  -7  27   3   22.57    3.66
   7 -27   3   12.00    3.76
   7  27  -3   22.35    3.99
  -7  27  -3   24.20    3.70
   7  27   3   32.20    4.07
   9  27  -3    4.83    2.21
   9 -27   3    7.74    2.97
  -9  27   3    2.19    1.77
   9  27   3    2.43    2.05
   9 -27  -3    1.03    2.25
  -9  27  -3    1.60    2.00
  11  27  -3    7.67    3.22
  11 -27   3    7.66    5.01
  11 -27  -3    8.90    3.47
  11  27   3   15.37    4.29
   0  28   3    9.16    2.56
   0  28   3    4.04    1.49
   0  28  -3    8.18    2.52
   2  28  -3   10.60    2.84
  -2  28   3    7.93    2.26
  -2  28   3   12.84    4.21
  -2  28  -3    8.78    2.68
   2  28   3   12.31    2.96
   2  28   3    9.33    2.09
  -4  28   3    5.98    2.24
   4  28  -3    6.29    2.34
  -4  28  -3    5.50    2.09
   4  28   3    8.25    2.41
  -6  28   3    7.69    2.33
   6 -28   3    4.44    2.52
   6  28  -3   14.50    3.30
   6  28   3   12.19    3.05
  -6  28  -3    8.48    2.03
   8 -28   3    5.30    3.16
   8  28  -3    3.26    2.06
  -8  28   3    5.11    1.87
   8 -28  -3    0.12    1.93
  -8  28  -3    4.12    1.65
   8  28   3   -0.17    1.50
  10  28  -3    2.52    2.12
  10 -28   3    3.71    3.28
  10 -28  -3    2.29    2.55
  10  28   3    7.19    3.13
   1  29  -3   40.27    4.63
  -1  29   3   29.72    3.53
  -1  29   3   23.96    4.13
   1  29   3   28.11    3.12
   1  29   3   25.17    4.28
  -1  29  -3   31.76    4.87
  -3  29   3   35.40    4.17
   3  29  -3   34.17    4.27
  -3  29  -3   33.64    3.99
   3  29   3   37.56    4.40
  -5  29   3   19.64    3.68
   5  29  -3   14.82    3.51
  -5  29  -3   18.40    3.46
   5  29   3   18.49    3.80
   7 -29   3   26.98    6.12
  -7  29   3   24.02    3.95
   7  29  -3   31.76    4.12
  -7  29  -3   26.56    3.43
   7  29   3   35.74    4.62
  -9  29   3    8.17    2.67
   9  29  -3    8.79    2.70
   9 -29   3    1.35    2.24
   9  29   3   10.37    3.32
   9 -29  -3    5.20    2.66
  -9  29  -3   10.58    3.05
   0  30   3    0.28    1.39
   0  30  -3    0.58    1.27
  -2  30   3    7.03    2.30
   2  30  -3    1.62    1.70
   2  30   3    5.10    2.18
  -2  30  -3    4.98    2.07
   4  30  -3    1.53    1.49
  -4  30   3    0.65    1.41
  -4  30  -3    1.32    1.56
   4  30   3    2.92    1.87
  -6  30   3    1.04    1.32
   6 -30   3    6.32    3.17
   6  30  -3    2.56    1.74
   6  30   3    6.53    2.46
  -6  30  -3    1.63    1.49
   8  30  -3    0.43    1.78
  -8  30   3    1.25    2.35
   8 -30   3    0.05    1.85
  -8  30  -3   -1.79    1.73
   8 -30  -3    4.59    2.74
   8  30   3    1.98    1.99
   1  31  -3   -1.44    0.96
  -1  31   3    0.00    1.24
   1  31   3    0.03    1.23
  -1  31  -3    2.74    1.81
   3  31  -3    3.89    2.14
  -3  31   3    3.27    1.90
  -3  31  -3    2.44    1.75
   3  31   3    7.54    2.81
   5  31  -3    2.76    1.53
  -5  31   3    0.60    1.21
   5  31   3    0.09    1.50
  -5  31  -3    1.07    1.35
  -7  31   3    0.91    1.53
   7 -31   3   -0.29    1.73
   7  31  -3    4.70    2.35
   7  31   3    8.07    2.85
  -7  31  -3    3.24    2.11
   0  32   3   -1.78    1.00
   0  32  -3    0.30    1.10
   2  32  -3    1.05    2.03
   2  32   3   -0.93    1.12
  -2  32  -3    0.51    1.38
  -4  32   3   -0.88    1.14
   4  32  -3    0.50    1.57
   4  32   3   -0.30    1.37
  -4  32  -3    0.92    1.49
   6  32  -3    3.26    2.09
  -6  32   3    0.96    1.50
   6 -32   3    0.98    2.36
   6  32   3    0.83    1.75
  -6  32  -3   -0.33    2.03
  -1  33   3   14.57    3.39
   1  33  -3    9.14    2.96
  -1  33  -3   11.16    3.16
   1  33   3    9.65    2.97
  -3  33   3   11.69    2.93
   3  33  -3    8.14    2.93
  -3  33  -3   11.21    3.15
   3  33   3    7.76    2.77
  -5  33   3   12.77    3.16
   5  33  -3   14.97    3.78
   5  33   3   14.33    3.52
  -5  33  -3   13.35    3.24
  -7  33   3    2.36    2.35
   7 -33   3    0.96    2.84
   7 -33  -3    3.66    4.30
  -7  33  -3    3.82    2.65
   0  34  -3    1.68    2.19
   0  34   3    3.38    1.79
   2  34  -3    3.05    2.16
  -2  34   3    1.90    1.55
   2  34   3   -0.34    1.37
  -2  34  -3    0.92    2.06
   4  34  -3    1.76    2.24
  -4  34   3    2.69    1.78
   4  34   3    2.50    2.32
  -4  34  -3    1.36    1.89
   6 -34   3   -1.66    1.82
   1  35  -3   11.93    3.15
  -1  35   3   15.07    3.41
   1  35   3   13.02    3.56
  -1  35  -3   14.47    3.88
  -3  35   3    7.46    2.68
   3  35  -3    7.89    2.95
  -3  35  -3    8.04    2.89
   3  35   3   15.18    3.68
   0  36  -3    6.76    3.16
   0  36   3    2.31    2.14
   0   0  -4  203.65    6.14
   0   0   4  206.19    5.59
   2   0  -4  565.83   13.60
  -2   0   4  541.86   13.45
   2   0   4  544.17   13.89
  -4   0   4  127.57    4.54
   4   0   4  120.39    5.37
   6   0   4  310.88   10.91
   6   0  -4  318.56    7.55
  -6   0   4  294.20    8.50
  -8   0   4   46.17    2.60
   8   0   4   47.69    4.21
   8   0  -4   48.54    2.42
  10   0  -4  119.88    4.83
  10   0   4  129.56    7.81
  12   0   4   16.80    3.73
  14   0   4   46.36    5.54
  16   0   4    0.36    2.07
  -1   1   4   73.52    3.14
   1  -1   4   66.63    2.98
   1   1  -4   71.72    3.06
  -1   1   4   74.22    2.24
  -1  -1   4   70.47    2.25
   1   1   4   71.73    2.99
  -1   1  -4   73.69    3.06
  -3   1   4   68.30    3.02
   3  -1   4   59.80    3.39
   3   1  -4   60.71    2.86
  -3  -1   4   64.59    2.93
   3   1   4   64.70    3.38
  -5   1   4   38.36    2.27
   5  -1   4   45.79    3.39
   5   1   4   41.27    3.14
   5  -1  -4   39.86    1.41
  -5  -1   4   37.96    2.19
   7  -1   4   35.38    3.45
  -7   1   4   38.28    2.32
   7   1  -4   33.04    2.35
   7  -1  -4   35.14    2.16
  -7  -1   4   32.48    1.97
   7   1   4   34.73    3.32
   9  -1   4   20.77    3.81
   9   1  -4   18.88    1.59
  -9   1   4   12.75    1.55
   9  -1  -4   17.44    1.56
   9   1   4   11.70    2.68
  11  -1   4   15.95    3.57
  11   1  -4   16.32    1.81
  11   1   4   13.89    3.36
  11  -1  -4   16.90    1.88
  13  -1   4    8.91    2.99
  13   1  -4    5.69    1.76
  13  -1  -4    5.63    1.56
  13   1   4    7.10    2.86
  15  -1   4    6.58    3.14
  15   1   4   11.89    3.62
   0   2  -4    0.62    0.41
   0  -2   4    0.62    0.35
   0   2   4    0.60    0.35
   0   2   4    0.46    0.37
   2   2  -4   24.42    1.71
  -2   2   4   22.10    1.63
   2  -2   4   22.96    1.87
   2   2   4   20.83    1.67
  -2  -2   4   21.05    0.85
  -2   2  -4   22.85    1.57
  -2  -2   4   22.33    1.61
   4  -2   4    1.70    0.85
   4   2  -4    1.27    0.56
  -4  -2   4    2.10    0.68
   4   2   4    1.42    0.76
   6  -2   4    7.77    2.09
  -6   2   4   11.64    1.31
   6   2   4   10.84    2.11
  -6  -2   4   10.87    1.09
   6  -2  -4    9.28    0.88
   8   2  -4    3.20    0.73
   8  -2   4    1.88    1.19
  -8   2   4    0.87    0.59
   8  -2  -4    1.75    0.65
   8   2   4    2.26    1.18
  -8  -2   4    2.00    0.61
  10   2  -4    2.31    0.89
  10  -2   4    2.02    1.22
  10   2   4    2.08    1.38
  10  -2  -4    2.06    0.83
  12   2  -4    0.49    0.91
  12  -2   4    2.52    1.76
  12  -2  -4    2.60    1.49
  12   2   4    1.89    1.60
  14  -2   4    2.31    1.77
  14   2   4    1.06    1.38
  16  -2   4   -1.38    1.72
  16   2   4    0.15    2.36
   1   3  -4  207.51    6.49
   1  -3   4  216.47    6.74
  -1   3   4  210.74    6.42
   1   3   4  218.76    7.07
  -1  -3   4  203.56    5.70
   1   3   4  209.82    6.46
  -1   3  -4  209.84    6.42
   3  -3   4  181.25    6.73
   3   3  -4  175.55    5.76
  -3   3   4  176.82    5.76
   3   3   4  178.57    6.23
  -3  -3   4  167.15    5.44
   3  -3  -4  165.18    4.12
  -3   3  -4  176.27    5.49
   5   3  -4  144.34    5.08
  -5   3   4  140.82    5.19
   5  -3   4  158.45    6.93
  -5  -3   4  146.29    4.82
   5   3   4  141.43    6.12
   5  -3  -4  133.59    3.98
  -7   3   4   91.61    4.13
   7  -3   4   90.27    5.78
   7   3   4   88.86    5.29
   7  -3  -4   88.09    3.58
  -9   3   4   70.12    3.83
   9   3  -4   70.88    3.22
   9  -3   4   81.15    6.04
   9  -3  -4   64.07    3.34
   9   3   4   57.96    2.13
   9   3   4   70.51    5.23
  11  -3   4   31.82    4.27
  11   3  -4   37.56    2.61
  11   3   4   41.56    4.45
  11  -3  -4   40.00    2.85
  13  -3   4   35.72    4.80
  13  -3  -4   28.24    2.75
  13   3   4   34.79    4.50
  15  -3   4   17.52    4.63
  15   3   4   14.28    3.78
   0  -4   4  264.02    7.53
   0   4   4  265.04    7.58
   0   4  -4  260.89    7.66
   0   4   4  250.78    6.97
   2   4  -4   96.27    3.93
  -2   4   4   92.88    3.78
   2  -4   4   90.91    4.31
   2   4   4   96.24    3.84
  -2   4  -4   92.35    3.73
   2   4   4   95.57    3.97
   4   4  -4  191.68    6.25
  -4   4   4  184.67    6.22
   4  -4   4  198.27    7.73
   4   4   4  192.78    6.98
   4  -4  -4  184.84    5.10
  -4   4  -4  184.90    5.82
   6  -4   4   41.52    3.66
  -6   4   4   42.59    2.67
   6   4  -4   41.83    2.51
  -6  -4   4   45.13    2.04
   6   4   4   40.66    3.26
   6  -4  -4   44.20    2.23
  -8   4   4   83.15    4.24
   8  -4   4   78.17    5.75
   8   4   4   88.51    5.53
   8  -4  -4   83.50    3.79
  10  -4   4   21.27    4.22
  10   4   4   11.91    2.70
  10  -4  -4   12.01    1.93
  12  -4   4   25.43    4.94
  12   4   4   23.86    2.15
  12  -4  -4   25.53    2.51
  12   4   4   30.03    3.89
  14  -4   4    0.47    1.93
  14   4   4    3.15    1.81
  16  -4   4    5.02    2.84
  16   4   4   10.26    3.27
  -1   5   4   23.66    1.73
   1   5  -4   23.13    1.82
   1  -5   4   23.22    1.95
   1   5   4   22.19    1.64
  -1   5  -4   24.03    1.83
   1   5   4   21.31    1.63
   3  -5   4   21.42    2.19
  -3   5   4   25.97    1.90
   3   5  -4   22.86    1.85
   3   5   4   20.37    1.89
  -3   5  -4   21.37    1.67
   3   5   4   20.65    1.61
   5   5  -4   17.11    1.65
   5  -5   4   19.41    2.39
  -5   5   4   17.67    1.71
  -5  -5   4   18.15    1.39
  -5   5  -4   16.07    1.38
   5   5   4   15.93    1.89
   5  -5  -4   16.46    1.35
   7   5  -4   13.04    1.47
  -7   5   4   12.98    1.59
   7  -5   4   15.09    3.29
   7   5   4   10.72    2.06
  -7  -5   4   12.80    0.84
   7  -5  -4   12.41    1.40
   9  -5   4    6.90    2.37
  -9   5   4    8.59    1.76
   9   5   4    8.97    0.94
   9  -5  -4    9.83    1.68
   9   5   4    8.85    2.25
   9   5   4    7.91    1.31
  11  -5   4    7.84    2.70
  11   5   4    7.56    2.32
  11  -5  -4    9.08    1.77
  11   5   4    6.42    1.22
  13  -5   4   -0.78    1.27
  13  -5  -4    4.65    1.61
  13   5   4    2.59    1.80
  15  -5   4   -0.37    2.72
  15   5   4    2.83    1.92
   0   6  -4  280.43    8.55
   0   6   4  300.24    8.35
   2  -6   4   24.09    2.25
  -2   6   4   30.49    2.05
   2   6  -4   28.17    2.08
   2   6   4   28.00    2.07
  -2   6  -4   29.47    2.03
   2   6   4   27.93    1.88
   4  -6   4  216.10    8.52
   4   6  -4  206.78    6.90
  -4   6   4  198.24    6.78
  -4  -6   4  211.08    6.35
   4   6   4  214.29    7.52
   4   6   4  204.38    6.43
  -4   6  -4  203.93    6.53
  -6   6   4   11.45    1.82
   6   6  -4   11.62    1.45
   6  -6   4   13.66    3.38
  -6   6  -4   10.77    1.19
   6   6   4   12.44    1.29
   6  -6  -4   11.44    1.37
  -6  -6   4   12.94    0.88
   6   6   4   11.20    2.62
  -8   6   4   88.26    4.71
   8   6  -4   94.42    4.26
   8  -6   4   88.45    6.39
   8   6   4   96.93    5.75
   8  -6  -4   94.92    4.47
   8   6   4   89.16    3.88
  10  -6   4    2.10    1.64
  10   6   4    3.02    0.83
  10  -6  -4    3.47    1.27
  10   6   4    2.24    1.31
  12  -6   4   32.18    5.78
  12   6   4   33.53    4.28
  12  -6  -4   29.51    2.95
  14  -6   4   -0.49    1.63
  14   6   4    1.40    1.33
  16  -6   4    6.71    3.44
  16   6   4    8.46    4.14
  -1   7   4   68.33    3.27
   1   7  -4   73.33    3.62
   1   7   4   65.75    3.18
   1   7   4   65.60    3.10
  -1   7  -4   69.25    3.45
   3   7  -4   57.20    3.17
   3  -7   4   60.15    3.97
  -3   7   4   54.82    3.02
  -3   7  -4   57.50    3.01
   3   7   4   56.86    3.29
   3   7   4   56.85    2.79
   5  -7   4   50.95    4.10
  -5   7   4   51.46    3.10
   5   7  -4   49.34    3.01
   5   7   4   50.35    3.44
   5   7   4   51.69    2.66
  -5  -7   4   50.41    2.40
   5  -7  -4   47.81    2.87
  -5   7  -4   50.33    2.74
   7   7  -4   32.53    2.43
   7  -7   4   36.45    3.93
  -7   7   4   30.83    2.60
   7   7   4   32.42    3.09
   7  -7  -4   33.54    2.57
   7   7   4   34.15    2.15
  -9   7   4   30.03    2.78
   9  -7   4   34.47    5.63
   9   7  -4   25.81    2.22
   9  -7  -4   23.35    2.36
   9   7   4   26.76    1.93
   9   7   4   23.25    3.04
  11  -7   4   14.22    3.57
  11   7   4   12.11    2.79
  11   7   4   13.06    1.47
  13  -7   4   14.43    4.06
  13  -7  -4    9.69    2.16
  13   7   4   13.29    3.28
  15  -7   4    2.97    2.86
  15   7   4    8.23    3.44
   0   8   4   25.92    1.88
   0   8  -4   21.08    1.93
  -2   8   4    0.05    0.42
   2   8  -4    0.43    0.50
   2   8   4    1.42    0.54
  -2   8  -4   -0.15    0.33
   2   8   4    0.14    0.45
   4   8  -4   14.85    1.65
  -4   8   4   15.47    1.67
   4  -8   4   16.99    2.97
  -4  -8   4   17.70    1.46
   4   8   4   16.65    1.45
  -4   8  -4   15.10    1.53
   4   8   4   15.09    1.83
  -6   8   4   -0.08    0.47
   6   8  -4   -0.19    0.42
   6  -8   4    1.98    1.15
   6   8   4   -0.01    0.26
   6   8   4    0.69    0.66
  -6   8  -4   -0.74    0.40
  -6  -8   4    0.40    0.19
   6  -8  -4    1.21    0.69
   8  -8   4    6.75    2.39
  -8   8   4    6.85    1.63
   8   8  -4    3.85    1.17
   8   8   4    5.22    0.98
   8   8   4    6.97    1.98
   8  -8  -4    9.96    1.94
  10  -8   4   -1.52    1.00
 -10   8   4    0.47    1.00
  10  -8  -4    0.65    0.92
  10   8   4    1.09    1.03
  10   8   4   -0.56    0.51
  12  -8   4   -0.56    1.79
  12  -8  -4   -0.66    1.25
  12   8   4   -0.14    0.98
  14  -8   4    0.85    2.19
  14   8   4    0.78    1.51
   1   9  -4  148.71    5.91
  -1   9   4  159.65    5.68
  -1   9  -4  151.61    5.89
   1   9   4  169.54    5.60
  -3   9   4  133.87    5.42
   3   9  -4  148.32    5.85
   3  -9   4  144.51    6.94
   3   9   4  144.73    5.82
   3   9   4  141.76    4.96
  -3   9  -4  146.68    5.61
  -5   9   4   98.36    4.64
   5  -9   4   89.07    5.88
   5   9  -4  100.43    4.62
  -5   9  -4  100.36    4.32
   5   9   4  100.99    3.87
   5   9   4   84.50    4.74
  -5  -9   4   84.40    3.47
   7  -9   4   79.65    6.19
  -7   9   4   82.48    4.65
   7   9  -4   76.35    4.17
   7  -9  -4   89.08    4.83
   7   9   4   86.35    3.56
  -7   9  -4   87.41    3.92
   7   9   4   86.14    5.16
  -9   9   4   44.83    3.80
   9   9  -4   50.97    3.35
   9  -9   4   48.35    5.30
   9   9   4   49.88    2.50
   9   9   4   46.34    2.81
   9  -9  -4   47.93    3.70
   9   9   4   43.50    4.00
  11  -9   4   48.36    5.83
  11   9   4   40.63    4.25
  11  -9  -4   33.46    3.33
  13  -9   4   17.50    4.71
  13   9   4   20.46    4.19
  13  -9  -4   23.53    3.08
  15  -9   4   14.33    4.61
  15   9   4   15.90    3.97
   0  10  -4  155.67    6.09
   0  10   4  160.99    5.69
   2  10  -4  368.40   10.92
  -2  10   4  355.34   10.41
  -2  10  -4  345.75   10.53
   2  10   4  361.49    9.84
  -4  10   4  111.41    4.97
   4 -10   4  112.40    6.49
   4  10  -4  102.21    4.91
  -4  10  -4  103.18    4.66
   4  10   4  100.20    5.01
   4  10   4  113.01    4.19
   6 -10   4  208.36   10.11
   6  10  -4  196.93    7.39
  -6  10   4  183.87    7.43
  -6  10  -4  202.59    6.98
   6 -10  -4  200.72    8.30
   6  10   4  210.35    8.29
   6  10   4  209.32    6.29
   8 -10   4   51.04    5.26
  -8  10   4   46.12    3.65
   8  10  -4   49.65    3.36
  -8  10  -4   45.41    2.75
   8  10   4   44.81    2.37
   8 -10  -4   47.33    3.78
   8  10   4   53.48    4.16
  10  10  -4   80.70    4.41
 -10  10   4   87.90    5.61
  10 -10   4   85.63    7.54
  10 -10  -4   72.44    6.38
  10  10   4   79.38    3.07
  10  10   4   82.56    5.86
  10  10   4   80.59    3.80
  12 -10   4    8.72    3.10
  12  10   4   15.64    3.57
  12 -10  -4   15.74    2.86
  14 -10   4   34.75    6.89
  14  10   4   25.79    4.50
  -1  11   4   13.88    1.55
   1  11  -4   12.48    1.62
  -1  11  -4   12.30    1.99
   1  11   4   14.11    1.44
  -3  11   4    9.85    1.65
   3  11  -4   10.70    1.84
   3  11   4    9.58    1.16
  -3  11  -4   10.67    1.77
   3  11   4    9.71    1.83
   5 -11   4   10.37    2.79
   5  11  -4   10.51    1.94
  -5  11   4   10.37    1.92
   5  11   4   10.24    2.09
   5  11   4    9.29    1.13
  -5  11  -4   12.02    1.48
  -5 -11   4    8.28    1.05
   7  11  -4    4.43    1.26
   7 -11   4    2.94    1.84
  -7  11   4    5.92    1.54
   7  11   4    3.15    1.24
   7 -11  -4    4.11    1.42
   7  11   4    4.63    0.92
  -7  11  -4    5.06    1.27
  -9  11   4    5.48    1.69
   9 -11   4    8.20    3.01
   9  11   4    5.90    1.32
   9  11   4    5.03    0.91
   9  11   4    7.18    2.01
   9 -11  -4    8.66    2.25
  11 -11   4    1.45    1.73
  11  11  -4   -0.41    1.15
  11  11   4    0.56    1.08
  11 -11  -4    2.24    1.54
  13 -11   4    0.81    2.35
  13  11   4    1.80    1.89
  13 -11  -4    0.68    1.80
  15 -11   4    0.62    3.03
  15  11   4    0.30    1.72
   0  12  -4   20.02    2.10
   0  12   4   20.17    1.79
   2  12  -4   38.92    2.92
  -2  12   4   32.02    2.51
  -2  12  -4   35.86    2.72
   2  12   4   30.82    2.14
   4  12  -4   21.66    2.17
  -4  12  -4   18.59    1.99
   4  12   4   18.41    1.56
   6 -12   4   13.48    3.08
   6  12  -4   18.73    3.03
  -6  12   4   14.74    2.37
  -6  12  -4   20.16    1.97
   6  12   4   17.32    2.21
   6  12   4   18.35    1.51
   8  12  -4   12.15    2.16
  -8  12   4   12.19    2.30
   8 -12   4   11.37    3.47
   8  12   4   11.79    1.24
   8 -12  -4   13.10    2.64
  -8  12  -4   13.91    2.05
   8  12   4    9.79    2.23
  10  12  -4    7.62    1.61
 -10  12   4    5.62    1.18
 -10  12   4    4.07    1.55
  10 -12   4    5.35    2.65
  10  12   4    4.06    1.26
  10  12   4    7.52    2.27
  10 -12  -4    4.34    1.82
  12 -12   4   11.83    4.33
  12 -12  -4    7.11    2.26
  12  12   4    8.17    2.34
  14 -12   4    2.04    2.49
  14  12   4    0.85    1.46
  -1  13   4   85.35    4.19
   1  13  -4   77.25    4.36
  -1  13  -4   81.91    4.47
   1  13   4   88.08    3.96
   3  13  -4   68.63    4.14
  -3  13  -4   69.58    3.97
   3  13   4   72.41    3.39
   5  13  -4   59.53    3.99
  -5  13   4   64.18    4.05
   5 -13   4   60.17    5.38
   5  13   4   61.84    4.12
   5  13   4   57.38    2.88
  -5  13  -4   62.16    3.70
   7  13  -4   36.88    3.16
   7 -13   4   39.80    4.83
  -7  13   4   40.83    3.50
   7  13   4   37.59    2.18
   7  13   4   36.68    3.50
  -7  13  -4   39.26    2.91
   7 -13  -4   44.99    4.22
   9  13  -4   30.91    2.96
  -9  13   4   34.92    3.60
   9 -13   4   36.06    6.29
  -9  13  -4   25.39    2.22
   9  13   4   31.12    1.78
   9 -13  -4   28.89    3.56
   9  13   4   33.03    3.56
  11  13  -4   17.47    2.62
  11 -13   4   16.22    6.77
  11  13   4   17.88    4.42
  11 -13  -4   18.00    3.56
  13 -13   4   21.59    5.61
  13  13   4   21.10    4.11
  15 -13   4    6.54    3.58
   0  14  -4  104.09    5.22
   0  14   4  104.42    4.66
  -2  14  -4  115.72    5.51
   2  14   4  106.64    4.49
  -4  14   4   66.70    4.15
   4  14  -4   69.00    4.26
   4  14   4   75.11    3.45
  -4  14  -4   69.85    4.11
   6 -14   4   65.00    6.03
   6  14  -4   73.42    4.49
  -6  14   4   70.48    4.53
   6  14   4   65.72    4.55
  -6  14  -4   63.08    3.84
   6  14   4   67.39    3.13
   8 -14   4   43.76    5.40
   8  14  -4   34.45    3.09
  -8  14   4   31.40    3.28
   8 -14  -4   34.15    3.93
   8  14   4   33.91    1.99
   8  14   4   32.32    3.38
  -8  14  -4   35.23    2.88
  10 -14   4   37.32    6.94
 -10  14   4   23.19    2.27
  10  14  -4   26.59    2.84
  10  14   4   28.53    2.75
  10  14   4   27.28    3.39
  10 -14  -4   36.01    4.11
  12 -14   4    7.39    3.40
  12 -14  -4    6.38    2.37
  12  14   4   15.37    3.66
  14 -14   4    2.84    3.04
   1  15  -4  107.25    5.49
   1  15   4  101.00    4.56
  -1  15  -4  101.84    6.21
   3  15  -4   88.52    5.03
  -3  15   4   81.21    4.55
  -3  15  -4   76.70    6.66
   3  15   4   89.85    3.95
   5 -15   4   71.15    6.09
   5  15  -4   72.85    4.59
  -5  15   4   73.10    4.63
  -5  15  -4   70.75    4.31
   5  15   4   69.80    3.32
  -7  15   4   53.00    4.25
   7 -15   4   55.97    5.96
   7  15  -4   50.69    3.94
  -7  15  -4   50.37    3.48
   7 -15  -4   46.33    4.75
   7  15   4   57.52    2.78
   7  15   4   56.44    4.31
  -9  15   4   36.29    3.72
   9  15  -4   34.77    3.39
   9 -15   4   26.19    5.49
   9  15   4   35.27    3.15
   9 -15  -4   34.57    4.27
  -9  15  -4   30.93    2.80
   9  15   4   35.27    3.74
  11 -15   4   26.15    6.21
  11  15  -4   24.85    2.93
  11 -15  -4   35.74    4.25
  11  15   4   27.69    3.61
  11  15   4   16.77    2.85
  13 -15   4   26.75    6.63
   0  16  -4  108.15    5.62
   0  16   4  105.80    5.21
  -2  16   4    7.23    1.58
   2  16  -4    4.59    1.48
   2  16   4    6.26    1.30
  -2  16  -4    8.08    1.76
   4  16  -4   80.83    4.97
  -4  16   4   88.10    4.97
   4  16   4   84.01    3.84
  -4  16  -4   82.33    4.69
   6  16  -4    2.19    1.15
   6 -16   4    1.74    1.44
  -6  16   4    4.00    1.50
   6  16   4    3.70    0.89
  -6  16  -4    3.23    1.20
   8 -16   4   40.19    7.06
   8  16  -4   38.77    3.49
  -8  16   4   35.45    3.63
  -8  16  -4   39.24    3.56
   8  16   4   41.06    2.21
   8 -16  -4   38.02    4.42
  10  16  -4    2.18    1.18
  10 -16  -4    2.40    1.81
  10  16   4    2.24    1.36
  12 -16   4   16.53    4.64
  12 -16  -4   13.23    3.29
  14 -16   4   -3.79    1.88
  -1  17   4    0.55    0.63
   1  17  -4   -0.43    0.57
  -1  17  -4    0.21    0.61
   1  17   4    1.34    0.75
   3  17  -4    0.20    0.72
  -3  17   4    0.79    0.76
   3  17   4    0.29    0.55
  -3  17  -4    0.34    0.75
  -5  17   4   -0.30    0.59
   5  17  -4   -0.40    0.53
   5 -17   4    0.32    1.22
  -5  17  -4    0.61    0.75
   5  17   4   -0.22    0.41
   7 -17   4    0.54    1.45
  -7  17   4    1.18    1.09
   7  17  -4   -1.04    0.73
   7  17   4    0.45    0.54
  -7  17  -4   -0.28    0.66
  -9  17   4   -0.78    0.96
   9  17  -4    1.43    1.31
   9 -17   4   -2.18    1.14
  -9  17   4   -0.34    0.76
   9  17   4    0.11    1.05
   9 -17  -4   -2.14    1.22
  -9  17  -4    0.39    1.25
  11  17  -4    0.01    1.51
  11 -17   4    3.67    2.43
  11 -17  -4   -1.30    1.86
  11  17   4    0.64    1.71
  13 -17   4    1.46    2.85
  13 -17  -4   -3.11    2.63
   0  18  -4   26.50    2.91
   0  18   4   36.49    2.85
  -2  18   4    1.31    0.90
   2  18  -4    1.36    0.97
   2  18   4    1.80    0.93
  -2  18  -4    1.90    1.06
  -4  18   4   31.28    3.10
   4  18  -4   21.32    2.72
   4  18   4   24.71    2.08
  -4  18  -4   25.67    2.75
   6 -18   4    1.78    1.53
   6  18  -4    3.07    1.38
  -6  18   4    2.37    1.28
  -6  18  -4    2.38    1.14
   6  18   4    2.06    0.76
  -8  18   4    7.62    2.33
   8 -18   4   14.05    4.30
   8  18  -4    7.65    2.01
   8  18   4   11.01    2.26
   8 -18  -4    9.52    2.72
   8  18   4    9.06    1.25
  -8  18  -4   13.52    2.36
 -10  18   4    1.39    1.35
  10 -18   4    1.20    2.20
  10  18  -4    0.24    1.22
  10 -18  -4   -2.52    1.45
  10  18   4    1.44    1.48
  12 -18   4    1.25    2.96
  12 -18  -4    3.25    2.94
  14 -18   4    4.91    4.45
  -1  19   4   48.29    3.56
   1  19  -4   55.30    4.34
   1  19   4   61.61    3.71
  -1  19  -4   62.60    4.45
  -3  19   4   54.87    4.09
   3  19  -4   55.21    4.35
  -3  19  -4   51.27    4.03
   3  19   4   50.59    3.19
  -5  19   4   36.52    3.59
   5  19  -4   39.49    3.61
  -5  19  -4   39.37    3.41
   5  19   4   37.22    3.15
  -7  19   4   34.88    3.69
   7 -19   4   28.14    5.28
   7  19  -4   32.90    3.41
   7  19   4   37.22    2.35
  -7  19  -4   37.68    3.36
  -9  19   4   20.69    4.43
  -9  19   4   20.21    2.58
   9  19  -4   21.40    3.51
   9 -19   4   22.44    5.18
   9 -19  -4   13.82    3.61
  -9  19  -4   21.36    2.70
   9  19   4   21.04    3.35
  11 -19   4   14.52    4.84
  11  19  -4   15.19    2.92
  11 -19  -4   14.67    3.82
  11  19   4   11.09    3.03
  13 -19   4    2.21    3.32
  13 -19  -4   -2.75    4.69
   0  20  -4   89.01    5.67
   0  20   4   91.25    4.92
   2  20  -4  102.30    6.12
  -2  20   4  101.27    5.60
   2  20   4  100.78    4.91
  -2  20  -4  108.55    6.17
  -4  20   4   74.87    5.03
   4  20  -4   77.05    5.25
  -4  20  -4   66.62    4.74
   4  20   4   66.84    3.73
  -6  20   4   58.55    4.75
   6 -20   4   58.61    6.40
   6  20  -4   65.35    4.86
   6  20   4   59.54    3.29
  -6  20  -4   58.94    4.30
   8  20  -4   36.91    3.72
   8 -20   4   31.12    6.10
  -8  20   4   29.97    3.75
  -8  20  -4   37.82    3.40
   8  20   4   36.99    3.77
   8 -20  -4   28.36    5.25
 -10  20   4   22.12    2.90
  10 -20   4   25.41    5.76
  10  20  -4   32.75    3.58
  10  20   4   25.41    3.22
  10 -20  -4   15.87    3.78
  12 -20   4   10.05    3.79
  12 -20  -4   14.95    4.17
   1  21  -4   36.46    3.72
  -1  21   4   37.56    3.25
   1  21   4   39.11    3.13
  -1  21  -4   38.72    3.72
   3  21  -4   35.74    3.62
  -3  21   4   27.46    2.96
   3  21   4   37.73    2.79
  -3  21  -4   35.07    3.45
  -5  21   4   34.18    3.58
   5  21  -4   32.71    3.49
  -5  21  -4   34.73    3.35
   5  21   4   35.08    2.59
   7 -21   4   20.10    4.53
   7  21  -4   24.09    3.64
  -7  21   4   19.72    3.53
   7  21   4   21.80    2.01
  -7  21  -4   19.36    3.09
   7  21   4   22.30    3.57
   9  21  -4   24.02    3.12
  -9  21   4   19.75    3.03
   9 -21   4   14.73    4.25
   9  21   4   23.07    3.74
  -9  21  -4   23.35    3.36
  11 -21   4    3.68    2.90
  11  21  -4    6.48    2.34
  11 -21  -4   11.23    3.63
  11  21   4    6.30    3.00
  13 -21   4    2.41    3.58
   0  22  -4    7.01    1.97
   0  22   4    9.57    1.96
   2  22  -4    5.09    1.77
  -2  22   4    6.48    1.80
   2  22   4    6.02    1.53
  -2  22  -4    6.18    1.86
   4  22  -4    9.70    2.37
  -4  22   4    7.66    2.12
   4  22   4    6.70    1.48
  -4  22  -4    7.34    1.99
   6 -22   4    4.63    2.54
  -6  22   4    5.13    1.81
   6  22  -4    3.01    1.52
  -6  22  -4    6.14    1.60
   6  22   4    5.50    1.37
   6  22   4    7.99    2.27
   8  22  -4    4.05    1.71
   8 -22   4   10.63    3.55
  -8  22   4    4.54    1.67
  -8  22   4    5.91    1.71
   8 -22  -4    3.82    2.03
   8  22   4    6.36    2.07
  -8  22  -4    7.27    1.89
  10  22  -4    1.03    1.47
  10 -22   4   -0.15    1.27
 -10  22   4    2.06    1.83
  10  22   4    4.31    2.42
  10 -22  -4    5.49    2.72
  12 -22   4    1.43    2.78
  12 -22  -4    2.17    3.07
   1  23  -4    2.17    1.31
  -1  23   4    0.14    0.83
   1  23   4   -0.06    0.58
  -1  23  -4   -2.07    0.73
  -3  23   4   -0.99    0.62
   3  23  -4    0.84    0.95
   3  23   4    0.65    0.78
  -5  23   4    0.80    0.97
   5  23  -4    0.55    0.96
   5  23   4    1.29    0.91
  -7  23   4   -1.02    0.80
   7 -23   4    0.26    1.76
  -7  23   4    1.96    1.38
   7  23  -4   -0.93    1.05
  -7  23  -4   -0.63    0.92
   7  23   4    1.03    1.50
   7  23   4   -0.10    1.02
  -9  23   4   -1.00    1.24
   9  23  -4    1.28    1.49
   9 -23   4   -1.86    1.82
   9  23   4    0.48    1.35
  -9  23  -4    0.99    1.50
   9 -23  -4    1.60    4.25
  11  23  -4    4.85    2.26
  11 -23   4    1.57    2.67
  11  23   4    0.62    2.40
  11 -23  -4    2.52    2.27
   0  24   4   22.91    2.64
   0  24  -4   21.58    3.67
  -2  24   4   72.14    5.08
   2  24  -4   73.94    5.74
   2  24   4   72.01    4.51
  -2  24  -4   71.64    5.44
   4  24  -4   14.95    3.17
  -4  24   4   18.76    3.32
  -4  24  -4   16.28    3.11
   4  24   4   17.60    2.14
   6  24  -4   49.52    4.62
   6 -24   4   43.47    5.81
  -6  24   4   46.00    4.19
  -6  24   4   51.07    4.79
  -6  24  -4   49.47    4.25
   6  24   4   49.45    3.23
   6  24   4   49.32    4.73
   8  24  -4    9.98    2.43
  -8  24   4    3.83    1.63
   8 -24   4    5.95    2.94
   8  24   4    9.64    2.65
  -8  24  -4   10.84    2.41
  10  24  -4   25.76    3.94
  10 -24   4   25.71    6.32
 -10  24   4   27.06    4.27
  10 -24  -4   21.94    4.94
  10  24   4   18.91    3.52
  12 -24   4    6.21    3.67
  12 -24  -4    2.81    3.62
   1  25  -4   36.91    4.25
  -1  25   4   34.35    3.44
   1  25   4   37.74    3.29
  -1  25  -4   29.65    3.64
  -3  25   4   33.64    3.66
   3  25  -4   36.65    4.03
   3  25   4   32.68    3.00
  -3  25  -4   30.25    3.62
  -5  25   4   27.55    4.38
   5  25  -4   30.73    3.64
   5  25   4   19.46    3.55
  -5  25  -4   25.65    3.06
   5  25   4   23.47    2.33
  -7  25   4   15.49    3.43
  -7  25   4   25.97    4.79
   7  25  -4   30.45    3.77
   7 -25   4   21.29    5.04
   7  25   4   21.51    3.64
  -7  25  -4   20.26    3.26
   9 -25   4    8.96    3.86
  -9  25   4   12.78    2.64
   9  25  -4   19.40    3.70
   9 -25  -4   17.54    4.28
   9  25   4   14.70    3.46
  11 -25   4    8.97    4.17
  11  25  -4   11.25    3.15
  11 -25  -4    3.44    3.43
  11  25   4   14.18    4.09
   0  26  -4   16.77    3.33
   0  26   4   14.92    2.63
  -2  26   4    9.37    2.19
   2  26  -4    7.55    2.39
  -2  26  -4    9.16    2.49
   2  26   4    5.64    1.72
   4  26  -4    6.24    2.91
  -4  26   4    9.85    2.59
  -4  26  -4    8.98    2.54
   4  26   4    6.61    1.56
  -6  26   4    3.97    1.97
   6 -26   4    2.64    2.07
   6  26  -4    2.41    1.57
  -6  26   4    0.42    1.58
   6  26   4    4.07    1.60
  -6  26  -4    6.23    2.79
   6  26   4    4.60    2.07
  -8  26   4    5.22    2.07
   8 -26   4    4.98    3.07
   8  26  -4    1.03    1.69
  -8  26  -4    5.93    1.87
   8  26   4    7.94    2.64
   8 -26  -4    1.10    1.90
  10 -26   4    1.57    1.81
  10  26  -4    2.03    2.01
  10 -26  -4   -0.22    2.35
  10  26   4   -1.58    2.36
  -1  27   4   22.46    2.81
  -1  27  -4   18.02    5.09
   1  27   4   21.40    2.72
  -3  27   4   16.34    3.12
   3  27  -4   22.86    3.97
  -3  27   4   17.73    3.33
   3  27   4   21.71    3.85
   3  27   4   16.86    2.66
  -5  27   4   16.88    3.42
  -5  27   4   14.05    2.98
   5  27  -4   20.23    3.87
   5  27   4   15.07    2.28
  -5  27  -4   10.80    2.87
   5  27   4   15.09    3.42
   7  27  -4   12.16    3.09
   7 -27   4   15.65    4.59
  -7  27   4   10.78    2.69
  -7  27  -4   14.54    2.92
   7  27   4   11.67    2.96
  -9  27   4    6.24    2.15
   9  27  -4   17.48    3.42
   9 -27   4    5.79    3.35
   9  27   4   12.49    3.22
  -9  27  -4    9.44    2.61
   9 -27  -4    3.97    3.32
   0  28   4   15.16    2.67
   0  28  -4   12.71    3.27
   0  28   4   10.43    2.68
  -2  28   4   -0.37    0.94
  -2  28   4   -0.42    0.85
   2  28  -4    1.21    1.44
  -2  28  -4   -0.27    0.87
   2  28   4    1.07    1.08
   2  28   4    0.43    1.07
  -4  28   4   10.42    2.65
   4  28  -4    8.16    2.70
  -4  28   4    3.50    1.85
   4  28   4   10.02    2.80
   4  28   4    8.57    1.82
  -4  28  -4    8.45    2.45
   6 -28   4    0.14    1.48
   6  28  -4    0.51    1.52
  -6  28   4    1.47    1.43
  -6  28  -4    0.14    1.26
   6  28   4   -0.73    1.35
   8  28  -4    5.98    2.43
   8 -28   4    3.80    2.42
  -8  28   4    8.88    2.24
   8 -28  -4    1.61    2.13
   8  28   4    2.06    1.93
  -8  28  -4    2.37    1.95
  10  28  -4    1.79    2.18
  10 -28   4   -2.08    1.90
  10 -28  -4   -0.54    2.93
  10  28   4    4.21    2.59
   1  29  -4    1.24    1.93
  -1  29   4    0.55    1.01
  -1  29   4    2.92    1.46
   1  29   4    1.94    1.43
  -1  29  -4    2.17    1.58
  -3  29   4   -0.50    1.24
   3  29  -4    1.26    1.34
  -3  29   4    2.21    1.66
   3  29   4    2.01    1.58
  -3  29  -4    1.68    1.50
   3  29   4   -1.68    0.91
  -5  29   4    1.19    1.31
   5  29  -4    0.78    1.41
   5  29   4    6.40    2.31
  -5  29  -4   -1.69    1.18
   7 -29   4    3.60    2.81
   7  29  -4    0.46    1.56
  -7  29   4    1.18    1.25
  -7  29  -4    0.73    1.46
   7  29   4    0.69    1.52
   9  29  -4   -1.63    1.62
   9 -29   4   -2.76    1.37
  -9  29   4    1.86    2.34
  -9  29  -4   -1.25    2.27
   9 -29  -4   -2.23    2.08
   9  29   4    2.36    2.56
   0  30   4   44.02    4.05
   0  30   4   51.24    4.94
   0  30  -4   45.16    5.07
  -2  30   4   16.84    3.19
  -2  30   4   14.19    3.28
   2  30  -4   12.84    3.25
   2  30   4   17.58    3.66
  -2  30  -4   12.63    3.20
   2  30   4   13.13    2.57
  -4  30   4   40.98    4.55
   4  30  -4   37.67    4.64
  -4  30  -4   37.89    4.42
   4  30   4   40.72    4.76
   6  30  -4   11.18    3.21
  -6  30   4   10.80    2.58
   6 -30   4    4.08    2.63
   6  30   4   11.67    3.45
  -6  30  -4   10.29    2.81
   8  30  -4   23.93    4.07
   8 -30   4   11.49    3.55
  -8  30   4   22.30    3.96
   8 -30  -4   12.83    4.04
   8  30   4   28.18    4.74
  -8  30  -4   18.40    3.35
  -1  31   4   17.28    3.61
   1  31  -4   30.86    5.25
  -1  31   4   19.43    3.22
   1  31   4   26.09    4.73
   1  31   4   16.77    2.93
  -1  31  -4   21.06    4.15
  -3  31   4   15.63    3.44
   3  31  -4   16.55    3.88
  -3  31  -4   22.06    4.11
   3  31   4   17.10    3.73
  -5  31   4   16.04    3.47
   5 -31   4   20.73    5.31
   5  31  -4   20.04    3.90
   5  31   4   21.39    4.30
  -5  31  -4   19.59    3.70
   7  31  -4   16.75    3.67
   7 -31   4   16.34    4.98
  -7  31   4   11.99    3.10
   7  31   4    8.17    3.07
  -7  31  -4    6.30    2.54
   0  32   4   -0.08    1.39
   0  32  -4    2.46    1.79
   2  32  -4    2.91    2.18
  -2  32   4    0.23    1.37
   2  32   4   -0.73    1.16
  -2  32  -4    2.81    1.82
   4  32  -4    1.02    1.72
  -4  32   4    1.87    1.62
   4  32   4   -2.59    1.33
  -4  32  -4    0.95    1.55
   6 -32   4    1.55    2.08
   6  32  -4    0.94    1.82
  -6  32   4   -2.17    1.30
  -6  32  -4    0.56    1.83
   6  32   4    0.54    1.56
   1  33  -4    6.60    2.55
  -1  33   4   10.26    2.94
  -1  33  -4    4.44    2.17
   1  33   4    4.86    2.55
   3  33  -4   11.59    3.59
  -3  33   4    2.05    2.13
  -3  33  -4    6.37    2.57
   3  33   4    6.60    2.58
  -5  33   4    6.25    2.36
   5 -33   4    1.35    1.92
   5  33  -4    4.76    2.54
  -5  33  -4    2.84    2.08
   5  33   4    6.56    2.43
   0  34  -4    3.43    2.18
   0  34   4    5.70    2.54
   2  34  -4   33.50    5.40
  -2  34   4   27.75    4.61
   2  34   4   31.44    4.92
  -2  34  -4   28.27    4.84
  -4  34   4    4.18    2.13
   4  34  -4    5.27    2.40
   4  34   4    7.43    2.87
  -4  34  -4    5.33    2.60
   1  35  -4   -0.41    1.67
  -1  35   4    3.70    1.93
  -1  35  -4    2.70    2.04
   1  35   4    1.61    1.69
  -3  35   4    1.84    2.30
  -3  35  -4    5.31    2.83
   3  35   4    0.98    1.94
   0   0   5    0.22    0.34
   2   0   5    0.48    0.53
  -4   0   5    1.52    0.72
   4   0   5   -0.15    0.40
  -6   0   5    0.41    0.56
   8   0   5   -0.99    0.69
  -8   0   5   -0.34    0.50
  12   0   5   -0.86    1.73
  14   0   5   -0.39    1.52
  -1   1   5   52.65    1.97
  -1   1   5   52.04    2.87
   1  -1   5   54.97    2.77
   1   1  -5   52.74    2.87
   1   1   5   52.42    2.66
  -1   1  -5   52.76    2.80
  -1  -1   5   51.56    2.01
  -1  -1   5   54.26    2.94
   3   1  -5   83.59    3.75
   3  -1   5   81.71    4.21
  -3   1   5   90.28    3.92
  -3  -1   5   78.57    3.68
   3   1   5   78.98    4.04
  -5   1   5   15.49    1.66
   5  -1   5   17.17    2.16
  -5  -1   5   13.94    1.56
   5   1   5   17.17    2.10
  -7   1   5   76.39    3.93
   7  -1   5   75.40    5.23
   7   1   5   73.97    5.09
  -7  -1   5   79.99    3.80
   9  -1   5    1.35    1.35
  -9   1   5    1.46    0.92
  -9  -1   5    2.73    0.82
   9   1   5    2.93    1.55
  11  -1   5   45.28    4.99
  11   1   5   49.92    5.10
  13  -1   5    0.67    1.38
  13   1   5    0.40    1.58
  15  -1   5   18.42    4.28
  15   1   5   29.93    5.80
   0  -2   5   48.46    2.38
   0   2   5   49.83    2.30
   0   2  -5   52.58    2.82
   0   2   5   51.85    2.89
   2  -2   5  246.08    7.90
   2   2  -5  240.80    7.48
  -2   2   5  240.98    7.56
  -2   2  -5  238.63    7.32
   2   2   5  240.76    7.57
  -2  -2   5  233.83    5.45
  -2  -2   5  237.36    7.50
   4   2  -5   35.02    2.34
  -4   2   5   31.58    2.32
   4  -2   5   27.15    2.60
  -4  -2   5   32.01    2.25
   4   2   5   33.64    2.68
  -6   2   5  141.85    5.68
   6  -2   5  124.80    7.85
   6   2   5  117.06    7.27
  -6  -2   5  142.61    5.34
   8  -2   5   19.21    3.76
  -8   2   5   20.51    2.05
   8   2   5   21.10    2.90
   8  -2  -5   17.12    1.09
  -8  -2   5   18.35    1.61
  10  -2   5   64.36    5.70
 -10   2   5   60.29    3.75
  10   2   5   59.69    5.31
  10  -2  -5   57.24    2.60
  12  -2   5    9.55    4.67
  12   2   5    8.83    4.36
  14  -2   5   17.05    3.97
  14   2   5   22.07    4.14
  16  -2   5    3.74    2.59
  -1   3   5    2.81    0.78
   1  -3   5    1.69    0.65
   1   3  -5    0.87    0.52
   1   3   5    0.86    0.47
  -1  -3   5    1.10    0.44
  -1   3  -5    0.79    0.47
   1   3   5    1.96    0.72
  -3   3   5    0.58    0.52
   3   3  -5    1.75    0.70
   3  -3   5    0.86    0.77
  -3   3  -5    2.25    0.78
   3   3   5    2.25    0.92
  -3  -3   5    2.57    0.72
   5  -3   5    6.21    1.70
  -5   3   5    7.93    1.47
   5   3  -5    7.34    1.30
  -5  -3   5    8.27    1.47
   5   3   5    5.74    1.41
  -7   3   5    6.45    1.45
   7  -3   5    2.26    1.40
  -7  -3   5    5.12    1.06
   7   3   5    5.48    1.85
   7  -3  -5    4.98    0.53
   9  -3   5    7.84    2.40
  -9   3   5    8.28    1.75
   9   3   5    3.47    1.76
  11  -3   5    5.73    2.32
  11  -3  -5    3.23    1.09
  11   3   5    5.36    2.10
  13  -3   5    7.73    2.75
  13   3   5    6.87    2.75
  15  -3   5    8.78    3.49
  15   3   5    3.59    2.19
   0   4   5  265.45    7.99
   0   4  -5  268.67    8.20
   0  -4   5  245.10    7.79
   2   4  -5    2.49    0.82
  -2   4   5    2.89    0.86
   2  -4   5    1.12    0.68
   2   4   5    2.57    0.91
  -2  -4   5    3.50    0.66
  -2   4  -5    2.25    0.75
   2   4   5    2.06    0.66
   4  -4   5  200.86    8.17
  -4   4   5  212.47    7.15
   4   4  -5  202.58    6.96
  -4   4  -5  203.69    6.63
   4   4   5  201.29    7.52
  -4  -4   5  210.16    6.93
  -6   4   5    2.91    0.93
   6   4  -5    2.90    1.02
   6  -4   5    2.40    1.48
  -6  -4   5    2.64    0.76
   6  -4  -5    2.65    0.44
   6   4   5    1.47    0.89
  -8   4   5  105.02    5.25
   8  -4   5  109.04    7.04
  -8  -4   5  100.32    4.70
   8   4   5  105.66    6.30
   8  -4  -5  101.11    3.44
  10  -4   5    3.59    1.97
 -10   4   5    0.69    0.90
  10   4   5    0.53    1.41
  10  -4  -5    2.57    0.80
  12  -4   5   40.78    5.32
  12   4   5   44.59    3.06
  14  -4   5   -1.81    1.45
  14   4   5   -0.19    1.37
   1  -5   5   89.35    4.24
  -1   5   5   85.03    3.91
   1   5  -5   92.79    4.25
   1   5   5   85.37    3.71
  -1  -5   5   88.95    3.61
  -1   5  -5   91.31    4.11
   1   5   5   88.90    3.95
   3  -5   5   36.49    2.99
  -3   5   5   39.75    2.62
   3   5  -5   37.35    2.55
   3   5   5   39.53    2.52
   3   5   5   36.22    2.61
  -3  -5   5   34.02    2.32
  -3   5  -5   35.60    2.40
   5  -5   5   93.05    5.59
   5   5  -5   85.86    4.22
  -5   5   5   97.15    4.58
   5   5   5  101.00    5.12
  -5  -5   5   94.46    4.25
   5   5   5   94.25    4.21
  -5   5  -5   94.58    4.08
   5  -5  -5   87.79    2.79
  -7   5   5    6.81    1.62
   7  -5   5    6.30    1.93
   7   5  -5    4.93    1.17
   7   5   5    7.77    2.09
  -7  -5   5    7.81    1.57
   7  -5  -5    6.30    0.81
  -9   5   5   67.54    4.42
   9  -5   5   67.99    5.90
   9  -5  -5   63.87    2.94
   9   5   5   68.37    3.74
   9   5   5   72.20    5.38
  11  -5   5   -0.21    1.06
  11   5   5    2.59    0.98
  11  -5  -5    2.45    1.05
  11   5   5   -0.69    1.05
  13  -5   5   38.41    6.51
  13   5   5   36.77    4.78
  15  -5   5    0.89    2.16
  15   5   5    1.02    1.68
   0   6   5  111.95    4.19
   0   6   5  104.13    4.39
   0  -6   5  101.07    4.46
   0   6  -5  103.83    4.62
   2   6  -5   28.37    2.29
   2  -6   5   29.32    2.58
  -2   6   5   27.25    2.14
  -2   6  -5   24.42    2.07
   2   6   5   26.96    2.04
   2   6   5   30.02    2.26
   4   6  -5   78.20    4.00
   4  -6   5   83.51    5.03
  -4   6   5   73.27    3.89
  -4  -6   5   78.69    3.75
   4   6   5   77.21    3.69
   4   6   5   76.76    4.23
  -4   6  -5   74.00    3.69
  -6   6   5   16.87    1.98
   6   6  -5   16.96    1.84
   6  -6   5   14.58    2.87
   6   6   5   19.66    2.39
   6   6   5   17.31    1.72
  -6  -6   5   18.92    1.57
  -6   6  -5   19.40    1.77
   6  -6  -5   16.05    1.27
  -8   6   5   35.40    3.16
   8  -6   5   31.06    3.89
   8   6  -5   38.77    2.84
   8  -6  -5   38.26    2.19
   8   6   5   35.72    3.58
   8   6   5   40.01    2.66
  10  -6   5    7.19    2.63
 -10   6   5    8.55    2.10
  10   6   5    5.29    1.89
  10  -6  -5    9.04    1.45
  10   6   5    7.01    1.41
  12  -6   5   16.66    4.40
  12   6   5   26.86    4.78
  14  -6   5    3.22    2.15
  14   6   5    2.79    1.83
   1   7  -5   62.06    3.46
   1  -7   5   46.72    3.22
  -1   7   5   51.70    2.99
   1   7   5   49.94    2.82
  -1   7  -5   49.01    3.05
   1   7   5   53.38    2.97
   3   7  -5   22.81    2.13
  -3   7   5   24.26    2.06
   3  -7   5   21.36    2.43
   3   7   5   23.67    1.91
  -3   7  -5   27.97    2.21
   3   7   5   23.91    2.20
   5   7  -5   51.47    3.30
  -5   7   5   56.28    3.54
   5  -7   5   52.79    4.47
   5   7   5   53.27    2.97
   5   7   5   51.51    3.73
  -5  -7   5   51.54    3.04
   5  -7  -5   56.90    2.80
  -5   7  -5   54.58    3.16
   7   7  -5    5.50    1.32
   7  -7   5    6.84    2.28
  -7   7   5    6.12    1.61
  -7  -7   5    6.40    0.70
   7  -7  -5    7.06    1.23
   7   7   5    7.46    1.94
   7   7   5    5.98    1.19
   9  -7   5   35.87    4.46
   9   7  -5   41.08    3.04
  -9   7   5   40.79    3.52
   9   7   5   39.79    4.00
   9   7   5   39.99    2.63
   9  -7  -5   39.01    2.54
  11  -7   5    2.96    1.99
  11   7   5    1.34    1.30
  11   7   5    2.11    0.91
  11  -7  -5    0.01    1.00
  13  -7   5   29.64    6.37
  13   7   5   22.97    4.50
  15  -7   5   -0.62    1.54
  15   7   5    0.34    1.66
   0   8  -5   21.03    1.99
   0   8   5   23.41    1.95
  -2   8   5  212.10    7.23
   2   8  -5  208.37    7.50
   2  -8   5  210.20    8.24
   2   8   5  207.74    6.87
   2   8   5  208.75    7.16
  -2   8  -5  195.32    7.17
   4   8  -5   15.95    1.89
   4  -8   5   19.00    2.47
  -4   8   5   17.73    1.90
   4   8   5   19.09    1.70
  -4  -8   5   17.76    1.72
  -4   8  -5   15.36    1.65
   4   8   5   17.59    2.01
   6  -8   5  118.48    7.17
   6   8  -5  120.18    5.48
  -6   8   5  113.54    6.80
  -6   8  -5  133.27    5.31
  -6  -8   5  120.96    4.35
   6  -8  -5  120.92    4.87
   6   8   5  128.30    4.92
   6   8   5  119.50    6.09
  -8   8   5   10.67    2.18
   8  -8   5   14.32    3.66
   8   8  -5    9.01    1.77
   8   8   5    9.52    2.35
   8  -8  -5   11.39    1.77
   8   8   5   10.70    1.57
 -10   8   5   53.38    4.49
  10  -8   5   57.55    6.04
  10   8   5   60.40    3.16
  10  -8  -5   57.80    3.36
  10   8   5   52.20    2.95
  10   8   5   53.89    4.84
  12  -8   5    5.03    2.91
  12   8   5    5.83    2.26
  14  -8   5   22.70    5.26
  14   8   5   26.46    4.85
  -1   9   5    2.53    0.89
   1   9  -5    3.61    1.10
  -1   9  -5    3.36    1.08
   1   9   5    4.47    0.97
   3   9  -5   15.95    1.82
  -3   9   5   14.10    1.69
   3  -9   5   15.36    2.72
  -3   9  -5   14.86    1.74
   3   9   5   16.19    1.60
   3   9   5   15.12    1.82
   5  -9   5    0.26    1.02
   5   9  -5    1.04    0.84
  -5  -9   5    1.60    0.73
   5   9   5   -0.79    0.58
  -5   9  -5    0.33    0.49
   5   9   5    1.17    0.58
   7   9  -5   16.21    1.96
   7  -9   5   17.78    3.60
  -7   9   5   15.79    2.57
   7   9   5   18.55    1.75
   7  -9  -5   19.41    1.91
   7   9   5   19.37    2.55
  -7   9  -5   23.25    2.13
   9   9  -5    2.82    1.48
   9  -9   5    5.33    2.32
  -9   9   5    4.84    1.51
   9   9   5    2.87    0.91
   9   9   5    2.86    1.54
   9  -9  -5    3.26    1.19
  11  -9   5   10.92    3.53
  11   9   5   16.00    1.65
  11   9   5   15.69    3.45
  11  -9  -5   12.03    1.87
  13  -9   5   -0.24    1.64
  13   9   5    7.15    2.51
  15  -9   5    9.91    4.36
  15   9   5    8.68    2.54
   0  10   5   66.37    3.54
   0  10  -5   68.39    3.94
   2  10  -5   28.88    2.55
   2 -10   5   29.25    2.95
  -2  10   5   33.31    2.53
   2  10   5   32.47    2.32
  -2  10  -5   33.10    2.63
   2  10   5   31.42    2.50
   4 -10   5   42.14    4.08
   4  10  -5   51.11    3.42
  -4  10   5   41.19    3.74
  -4  10  -5   50.36    3.23
   4  10   5   47.94    3.43
   4  10   5   48.59    2.76
  -6  10   5   19.05    2.23
   6 -10   5   17.76    3.46
   6  10   5   23.15    1.85
  -6 -10   5   18.64    1.39
  -6  10  -5   20.32    2.02
   6 -10  -5   19.91    2.22
   6  10   5   19.58    2.43
   8  10  -5   27.93    2.59
   8 -10   5   19.60    3.79
  -8  10   5   27.88    3.07
   8 -10  -5   27.46    2.64
   8  10   5   27.19    3.13
   8  10   5   26.62    2.06
  10  10  -5   13.73    2.16
  10 -10   5   10.56    3.23
 -10  10   5   11.98    2.63
  10  10   5    7.79    1.49
  10  10   5   13.04    2.85
  10 -10  -5   13.58    2.17
  10  10   5   10.36    1.44
  12 -10   5   15.78    4.29
  12  10   5    7.19    2.61
  14 -10   5    2.17    3.09
  14  10   5    3.60    2.19
  -1  11   5   48.77    3.12
   1  11  -5   43.13    3.24
  -1  11  -5   51.09    3.45
   1  11   5   49.87    2.98
  -3  11   5   64.62    4.13
   3 -11   5   65.77    4.82
   3  11  -5   65.79    4.08
   3  11   5   68.88    3.45
  -3  11  -5   65.18    3.89
   3  11   5   77.63    4.25
   5  11  -5   21.49    3.37
  -5  11   5   18.22    2.17
   5 -11   5   19.56    3.67
  -5 -11   5   12.27    1.51
   5  11   5   15.60    1.54
   5  11   5   15.44    2.04
  -5  11  -5   15.33    1.81
   7  11  -5   59.04    3.94
  -7  11   5   55.88    4.15
   7 -11   5   60.86    5.65
   7 -11  -5   57.47    3.98
  -7  11  -5   62.07    3.79
   7  11   5   59.99    3.08
   7  11   5   54.22    4.21
  -9  11   5    5.16    1.85
   9  11  -5    5.91    1.59
   9 -11   5    3.13    2.21
   9  11   5    4.01    0.97
   9 -11  -5    4.33    1.47
   9  11   5    2.85    1.49
  11 -11   5   36.16    6.18
  11  11   5   34.75    4.21
  13 -11   5    0.79    2.16
  13  11   5    1.19    1.50
  15 -11   5   18.33    5.40
  15  11   5   19.45    4.13
   0  12   5    1.03    0.67
   0  12  -5    0.41    0.55
   2  12  -5   27.93    2.72
  -2  12   5   29.97    3.13
   2  12   5   31.29    2.30
  -2  12  -5   26.29    2.54
  -4  12   5    0.44    0.51
   4  12  -5    1.96    1.02
   4 -12   5    1.86    1.10
  -4  12  -5    0.09    0.61
   4  12   5    0.12    0.53
   4  12   5    2.19    0.95
  -6  12   5   20.27    2.44
   6 -12   5   21.28    4.19
   6  12  -5   21.42    2.40
   6  12   5   19.40    2.45
  -6 -12   5   13.36    1.04
   6  12   5   19.64    1.73
  -6  12  -5   19.27    2.08
   6 -12  -5   17.36    2.86
   8 -12   5    0.69    1.09
  -8  12   5   -0.08    0.76
   8  12  -5    0.50    0.85
   8 -12  -5    1.16    0.97
   8  12   5    0.02    0.56
   8  12   5    1.50    1.27
  -8  12  -5   -0.26    0.84
  10 -12   5   13.79    3.86
  10  12  -5    7.26    1.96
 -10  12   5   13.75    3.01
  10  12   5   10.94    2.35
  10  12   5    9.01    1.35
  10  12   5   10.91    2.75
  12 -12   5    0.98    2.08
  12  12   5    0.70    1.56
  14 -12   5   -1.60    2.31
  14  12   5    2.84    1.72
   1  13  -5   15.73    2.48
   1  13   5   16.46    1.74
  -1  13  -5   15.40    2.67
   3  13  -5   26.42    2.71
  -3  13   5   31.80    2.76
  -3  13  -5   25.36    2.53
   3  13   5   26.36    2.16
  -5  13   5    3.04    1.17
   5  13  -5    4.65    1.38
   5 -13   5    5.30    1.95
   5  13   5    4.58    1.43
   5  13   5    3.82    1.01
  -5 -13   5    3.08    0.90
  -5  13  -5    6.73    1.57
   7  13  -5   27.58    2.90
   7 -13   5   25.44    4.90
  -7  13   5   23.01    2.84
  -7  13  -5   25.60    2.48
   7  13   5   22.63    1.92
   7  13   5   30.47    3.21
   7 -13  -5   25.94    3.00
  -9  13   5    3.12    1.48
   9  13  -5    1.44    0.83
   9 -13   5    0.23    1.39
   9  13   5    2.31    0.69
   9  13   5    1.94    1.20
   9 -13  -5    2.76    1.44
  11  13  -5   21.20    3.14
  11 -13   5   25.77    5.98
  11  13   5   23.66    4.07
  11 -13  -5   18.59    2.93
  13 -13   5    1.21    2.42
  13  13   5   -0.82    1.44
   0  14   5  192.21    7.34
   0  14  -5  205.07    8.14
  -2  14   5    9.26    1.74
   2  14  -5   13.15    2.34
  -2  14  -5   11.90    2.11
   2  14   5   13.51    1.60
  -4  14   5  155.82    6.97
   4 -14   5  154.61    8.73
   4  14  -5  158.57    7.16
   4  14   5  159.57    5.82
  -4  14  -5  153.78    6.77
  -6  14   5    7.72    1.85
   6 -14   5   15.15    3.59
   6  14  -5    7.40    1.76
   6  14   5    7.47    1.33
  -6  14  -5    9.01    2.21
   6  14   5   10.87    2.34
   8  14  -5   87.45    5.29
   8 -14   5   83.56    7.47
  -8  14   5   87.55    5.89
   8 -14  -5   79.44    5.62
   8  14   5   91.05    5.85
   8  14   5   91.24    3.88
  -8  14  -5   91.10    4.97
  10  14  -5    4.76    1.68
  10 -14   5    6.86    4.28
 -10  14   5    2.36    1.69
  10 -14  -5    5.34    1.71
  10  14   5    5.27    1.48
  10  14   5    4.03    2.45
  12 -14   5   40.78    7.71
  14 -14   5   -2.55    1.58
  -1  15   5    7.96    1.67
   1  15  -5    6.52    1.75
   1  15   5    6.70    1.38
  -1  15  -5    9.07    1.89
   3  15  -5    0.81    0.98
  -3  15   5    0.28    0.62
   3  15   5    1.74    0.89
  -3  15  -5    0.88    0.79
   5 -15   5   13.65    3.27
   5  15  -5   19.18    2.95
  -5  15   5   16.43    2.70
  -5  15  -5   19.71    2.21
   5  15   5   17.46    1.76
   7 -15   5   -0.73    0.89
   7  15  -5    0.48    0.89
  -7  15   5    1.79    1.21
  -7  15  -5   -1.26    0.66
   7 -15  -5   -0.78    1.18
   7  15   5    1.50    1.01
   7  15   5    1.29    0.66
  -9  15   5   24.29    4.07
   9 -15   5   13.70    3.81
   9  15  -5   15.01    2.64
  -9  15  -5   15.51    2.42
   9  15   5   17.08    1.66
   9  15   5   16.16    3.12
   9 -15  -5   22.03    3.85
  11 -15   5    4.14    3.20
  11  15  -5    4.97    1.39
  11 -15  -5    2.09    2.05
  11  15   5   -2.77    1.68
  11  15   5    1.31    1.37
  13 -15   5   17.72    5.41
   0  16   5    2.08    0.99
   0  16  -5    1.12    0.99
   2  16  -5   96.62    5.60
  -2  16   5  106.25    5.42
  -2  16  -5  104.50    5.67
   2  16   5   98.38    4.64
   4 -16   5    0.13    1.02
   4  16  -5    0.78    0.95
  -4  16   5    0.87    0.84
   4  16   5    1.49    0.75
  -4  16  -5    1.65    0.94
   6  16  -5   56.40    4.31
   6 -16   5   68.40    6.36
  -6  16   5   60.34    4.56
   6  16   5   61.72    3.54
  -6  16  -5   65.77    4.20
   8 -16   5   -0.31    1.35
  -8  16   5    1.07    1.27
   8  16  -5    0.78    1.13
   8  16   5    1.10    0.79
  -8  16  -5    0.07    0.99
   8 -16  -5    2.09    1.37
  10 -16   5   33.22    6.54
 -10  16   5   32.84    4.24
  10  16  -5   31.87    3.39
  10  16   5   32.11    3.32
  10 -16  -5   24.55    3.83
  12 -16   5    1.00    2.45
  14 -16   5   10.05    4.33
   1  17  -5   34.90    3.29
  -1  17   5   40.66    3.18
  -1  17  -5   34.85    3.23
   1  17   5   34.49    2.77
   3  17  -5   20.25    2.53
  -3  17   5   21.15    2.46
  -3  17  -5   25.39    2.74
   3  17   5   27.10    2.24
  -5  17   5   41.05    3.70
   5 -17   5   44.34    5.02
   5  17  -5   36.79    3.64
   5  17   5   43.72    2.82
  -5  17  -5   43.89    3.58
   7  17  -5    6.71    1.83
   7 -17   5    7.33    2.79
  -7  17   5    7.01    2.17
   7  17   5   10.85    1.81
  -7  17  -5    9.84    2.03
   7 -17  -5    8.00    2.49
   9  17  -5   33.14    3.49
  -9  17   5   29.26    3.79
  -9  17  -5   32.25    3.11
   9 -17  -5   19.51    3.66
   9  17   5   24.03    3.05
  11  17  -5    2.61    1.71
  11 -17   5    0.77    2.21
  11 -17  -5    1.03    2.16
  11  17   5    2.51    1.99
  13 -17   5   22.75    5.72
   0  18   5    0.89    0.81
   0  18  -5    2.29    1.15
   2  18  -5   55.24    4.29
  -2  18   5   55.76    3.95
   2  18   5   63.26    3.72
  -2  18  -5   53.42    4.13
  -4  18   5    0.39    0.79
   4  18  -5    0.82    1.01
   4  18   5    1.11    0.73
  -4  18  -5    1.96    1.16
  -6  18   5   35.28    3.71
   6  18  -5   32.84    3.50
   6 -18   5   43.21    5.40
   6  18   5   41.26    2.76
  -6  18  -5   34.16    3.25
   8 -18   5    0.54    1.43
   8  18  -5    2.35    1.59
  -8  18   5    1.77    1.28
  -8  18  -5   -0.99    0.85
   8  18   5    0.66    0.79
   8 -18  -5    2.53    1.57
  10  18  -5   19.74    3.27
 -10  18   5   19.31    4.09
 -10  18   5   23.91    2.83
  10 -18   5   23.81    6.56
  10 -18  -5   19.25    3.78
  10  18   5   25.31    3.23
  12 -18   5   -1.58    2.10
  -1  19   5   10.25    2.08
   1  19  -5   13.71    2.55
   1  19   5   13.55    2.15
  -1  19  -5   11.76    2.46
   3  19  -5    6.31    1.96
  -3  19   5    4.55    1.47
   3  19   5    5.98    1.36
  -3  19  -5    4.87    1.60
  -5  19   5   18.33    3.02
   5  19  -5   22.34    2.88
   5 -19   5   23.34    4.97
   5  19   5   22.29    2.07
  -5  19  -5   25.94    2.92
  -7  19   5    1.91    1.25
   7  19  -5    0.44    1.00
   7 -19   5   -0.29    1.30
   7  19   5    0.92    0.86
  -7  19  -5    1.90    1.23
   9 -19   5   21.59    5.18
  -9  19   5   20.03    3.70
   9  19  -5   14.07    2.91
   9 -19  -5   13.05    3.19
  -9  19  -5   14.86    2.62
   9  19   5   12.63    2.67
  11 -19   5    1.18    2.07
  11  19   5    0.64    1.94
  11 -19  -5    0.14    2.51
  13 -19   5   12.38    4.49
   0  20  -5   61.47    4.68
   0  20   5   63.60    4.14
   2  20  -5   28.71    3.29
  -2  20   5   27.06    2.85
  -2  20  -5   22.05    2.78
   2  20   5   25.89    2.48
  -4  20   5   57.14    4.48
   4  20  -5   52.90    4.49
  -4  20  -5   54.08    4.27
   4  20   5   55.05    3.52
   6 -20   5   18.65    4.34
   6  20  -5   19.57    3.36
  -6  20   5   19.38    3.39
  -6  20  -5   21.58    3.19
   6  20   5   17.83    1.86
   8 -20   5   35.65    6.76
   8  20  -5   32.32    3.59
  -8  20  -5   27.70    3.17
   8  20   5   33.08    2.61
   8  20   5   29.91    3.63
   8 -20  -5   21.42    4.00
 -10  20   5    4.12    1.92
  10 -20   5    9.65    3.91
  10 -20  -5    9.27    3.02
  10  20   5   11.52    2.61
  12 -20   5   12.92    5.16
   1  21  -5    5.14    1.80
  -1  21   5    5.90    1.60
   1  21   5    5.16    1.45
  -1  21  -5    7.05    1.96
   3  21  -5    8.84    2.27
  -3  21   5    9.89    2.28
  -3  21  -5   12.57    2.65
   3  21   5   13.68    2.08
   5  21  -5    0.63    1.04
  -5  21   5   -0.23    0.79
   5 -21   5    1.64    1.42
  -5  21  -5    0.04    0.95
   5  21   5    1.02    0.95
  -7  21   5   13.52    3.00
   7  21  -5   12.75    2.76
   7 -21   5    6.52    3.41
  -7  21  -5   14.16    2.49
   7  21   5   12.93    1.84
  -9  21   5   -0.12    1.16
   9 -21   5    3.11    2.47
  -9  21   5    0.15    1.18
   9 -21  -5   -1.80    1.25
  -9  21  -5    1.03    1.39
  11  21  -5   18.30    3.16
  11 -21   5    9.76    3.89
  11  21   5    7.47    2.99
  11 -21  -5    3.69    2.99
   0  22   5   12.02    2.16
   0  22  -5   16.67    3.26
  -2  22   5    2.07    1.25
   2  22  -5    2.90    1.50
  -2  22  -5    2.07    1.24
   2  22   5    4.68    1.33
   4  22  -5   11.69    2.76
  -4  22   5   11.47    2.58
  -4  22  -5   11.76    2.63
   4  22   5   13.14    2.10
  -6  22   5    1.05    1.23
   6  22  -5    4.38    1.90
   6 -22   5    1.58    1.88
  -6  22  -5    0.85    1.26
   6  22   5    1.76    0.97
   8 -22   5    5.04    2.80
  -8  22   5    5.35    2.10
   8  22   5    5.35    1.97
   8 -22  -5    3.87    1.95
  -8  22  -5   10.56    2.28
 -10  22   5    1.84    1.77
  10 -22   5    3.83    2.98
  10  22  -5   -1.30    1.29
  10 -22  -5   -0.79    2.32
  10  22   5    0.87    1.75
  12 -22   5    6.20    3.84
  -1  23   5   19.04    3.08
   1  23  -5   21.70    3.80
  -1  23  -5   17.68    3.15
   1  23   5   24.33    2.57
  -3  23   5   25.87    3.16
   3  23  -5   26.08    3.42
   3  23   5   21.87    2.39
  -3  23  -5   27.05    3.31
  -5  23   5   11.84    2.62
   5 -23   5    6.41    2.60
   5  23  -5   14.57    2.94
   5  23   5   11.76    1.96
  -5  23  -5    6.16    1.98
   7 -23   5   21.52    4.99
  -7  23   5   26.48    4.35
   7  23   5   24.54    4.15
  -7  23  -5   21.67    2.85
   7  23   5   24.31    2.54
   9 -23   5    2.09    2.17
   9  23  -5    1.27    1.67
   9  23   5    1.10    1.79
  -9  23  -5    3.14    1.87
  11 -23   5   11.34    4.00
  11  23  -5   11.89    3.08
  11 -23  -5   19.47    4.38
  11  23   5   12.21    3.45
   0  24   5   36.96    3.42
   0  24  -5   43.80    4.39
   2  24  -5    1.75    1.34
  -2  24   5    0.99    1.11
   2  24   5    1.46    1.00
  -2  24  -5    1.31    1.08
  -4  24   5   32.09    3.68
   4  24  -5   31.85    3.86
   4  24   5   33.93    2.94
  -4  24  -5   32.84    3.74
  -6  24   5    2.66    1.42
   6 -24   5   -1.28    1.00
   6  24  -5    2.84    1.74
  -6  24  -5   -1.14    1.24
   6  24   5   -1.86    0.80
   8 -24   5   17.02    4.56
  -8  24   5   16.95    3.54
   8  24  -5   18.88    3.49
  -8  24   5   20.82    3.32
  -8  24  -5   15.99    2.98
   8  24   5   15.32    3.39
  10 -24   5    0.51    2.37
  10  24  -5    0.75    1.68
 -10  24   5    0.99    1.93
  10  24   5    0.91    1.96
  -1  25   5    0.01    0.86
   1  25  -5    2.44    1.49
   1  25   5    1.72    1.12
  -1  25  -5    1.30    0.98
  -3  25   5    4.70    1.75
   3  25  -5    6.20    2.19
   3  25   5    4.96    1.43
  -3  25  -5    5.03    1.81
   5  25  -5    2.25    1.38
  -5  25   5    1.92    1.54
   5 -25   5   -0.75    1.29
  -5  25  -5    2.40    1.70
  -7  25   5    8.45    2.25
   7  25  -5    9.02    2.48
   7 -25   5    4.04    2.37
  -7  25   5    5.77    2.24
   7  25   5   -0.52    1.88
  -7  25  -5    5.82    2.95
   7  25   5    6.90    2.50
  -9  25   5    2.09    1.83
   9  25  -5    1.92    1.53
   9 -25   5    0.90    2.08
   9  25   5    1.81    1.69
   9 -25  -5    2.00    2.17
  -9  25  -5   -2.99    1.80
  11 -25   5   15.65    5.67
  11  25  -5    5.48    2.39
  11 -25  -5   -1.05    5.30
  11  25   5    3.56    3.54
   0  26  -5    6.95    2.41
   0  26   5    5.28    1.74
   2  26  -5   79.02    6.46
  -2  26   5   65.32    5.14
  -2  26  -5   63.06    6.22
   2  26   5   63.81    4.44
  -4  26   5    4.71    1.90
   4  26  -5    3.64    1.77
   4  26   5    2.18    1.18
   6  26  -5   53.98    5.13
  -6  26   5   49.82    4.61
  -6  26   5   43.29    4.68
   6 -26   5   30.60    5.74
   6  26   5   51.97    5.12
   6  26   5   53.31    3.60
  -6  26  -5   53.45    4.67
   8 -26   5    0.41    1.64
   8  26  -5   -1.10    1.42
  -8  26   5    1.01    1.43
   8  26   5    2.62    1.89
  -8  26  -5    2.13    1.75
   8 -26  -5    1.54    2.31
  10 -26   5   24.68    5.79
  10  26  -5   26.73    4.26
  10  26   5   27.05    4.76
  10 -26  -5   26.60    5.73
   1  27  -5    7.09    2.33
   1  27   5    6.97    2.01
  -1  27  -5    6.94    2.48
  -3  27   5    4.77    1.91
   3  27  -5    2.82    1.56
   3  27   5    4.98    1.58
  -3  27  -5    5.29    2.02
   5 -27   5    5.64    2.57
   5  27  -5    9.27    2.75
  -5  27   5    7.68    2.40
  -5  27  -5   10.02    2.54
   5  27   5   11.02    1.95
   5  27   5    9.27    2.85
   7 -27   5    0.99    1.85
   7  27  -5    3.00    1.87
  -7  27   5    0.77    1.65
  -7  27   5    3.46    1.49
  -7  27  -5    1.10    1.35
   7  27   5   -0.74    1.28
   9  27  -5    4.63    2.15
  -9  27   5    5.61    2.47
   9 -27   5    3.76    2.71
  -9  27  -5    7.23    2.66
   9  27   5    1.99    2.37
   9 -27  -5    4.68    2.93
   0  28  -5   16.18    3.39
   0  28   5   17.26    2.88
  -2  28   5    0.43    1.15
   2  28  -5   -0.79    1.06
  -2  28  -5    4.00    1.93
   2  28   5    1.46    1.07
  -4  28   5   13.11    2.95
  -4  28   5   14.40    3.20
   4  28  -5   15.18    3.55
   4  28   5   12.81    3.05
  -4  28  -5   12.85    3.14
   4  28   5   13.12    2.45
   6  28  -5    3.51    1.91
  -6  28   5    5.09    1.94
   6 -28   5    2.30    2.10
  -6  28   5    5.98    2.04
  -6  28  -5    1.64    1.58
   6  28   5    3.89    2.25
   6  28   5    1.40    1.59
   8 -28   5    3.92    2.14
   8  28  -5    8.40    2.67
  -8  28   5    2.62    2.22
   8  28   5    8.36    2.62
  -8  28  -5   10.19    2.68
   8 -28  -5    4.01    2.80
   1  29  -5   13.80    3.32
  -1  29   5    9.26    2.50
  -1  29  -5   10.86    3.00
   1  29   5   11.78    2.36
   1  29   5   11.28    2.83
  -3  29   5    5.55    2.04
  -3  29   5    4.21    2.07
   3  29  -5    2.81    1.98
  -3  29  -5    3.26    1.99
   3  29   5    2.38    1.54
   3  29   5    3.87    1.72
   5 -29   5   15.68    4.49
  -5  29   5   14.47    3.24
   5  29  -5   14.73    3.67
  -5  29   5   13.98    3.17
   5  29   5   20.37    4.13
  -5  29  -5   12.53    3.02
   7  29  -5   -1.17    1.63
  -7  29   5    4.19    2.07
   7 -29   5    0.66    2.01
   7  29   5    5.27    2.15
  -7  29  -5    4.43    2.06
   9  29  -5    7.41    2.79
   9 -29   5    6.87    3.90
  -9  29   5    9.30    2.79
   9 -29  -5    6.71    3.46
   9  29   5   21.11    3.96
   0  30   5   19.93    3.22
   0  30   5   16.62    3.45
   0  30  -5   20.38    3.90
   2  30  -5    2.88    2.19
  -2  30   5    2.48    1.55
  -2  30   5    2.61    1.38
   2  30   5    2.53    1.81
  -2  30  -5    2.24    1.84
   2  30   5    5.55    1.68
  -4  30   5   16.84    3.42
  -4  30   5   17.20    3.55
   4  30  -5   17.96    3.80
   4  30   5   18.25    2.70
   4  30   5   18.11    4.16
  -4  30  -5   13.23    3.28
   6  30  -5    3.48    1.95
   6 -30   5    0.18    1.85
  -6  30   5    2.61    1.81
   6  30   5    4.53    2.33
  -6  30  -5   -0.90    1.57
   8 -30   5   14.06    4.52
  -8  30   5   11.15    2.82
   8  30  -5   10.29    3.00
  -8  30  -5    9.34    2.82
   8 -30  -5    9.77    3.68
   8  30   5    6.54    2.84
  -1  31   5    2.03    1.36
   1  31  -5    0.82    1.86
  -1  31   5    0.45    1.07
   1  31   5   -0.24    0.95
   1  31   5    0.51    1.30
  -1  31  -5    1.66    1.65
   3  31  -5   -0.83    1.66
  -3  31   5   -2.11    0.89
  -3  31   5   -0.51    1.41
   3  31   5    1.19    1.88
   3  31   5    2.15    1.36
  -3  31  -5    1.38    1.75
  -5  31   5    0.88    1.52
   5 -31   5    2.88    2.11
   5  31  -5    5.95    2.70
   5  31   5    0.28    1.54
  -5  31  -5    5.02    2.08
  -7  31   5    4.01    2.25
   7  31  -5    0.41    1.67
   7 -31   5   -1.51    1.41
   7  31   5   -2.13    1.59
  -7  31  -5   -1.34    1.65
   7 -31  -5   -2.53    1.80
   0  32  -5   14.28    3.61
   0  32   5    7.98    2.50
   0  32   5   13.47    2.86
  -2  32   5   12.57    3.33
   2  32  -5    5.09    2.57
  -2  32   5    7.40    2.38
  -2  32  -5    6.53    2.59
   2  32   5   10.77    3.05
   2  32   5    9.28    2.40
  -4  32   5    8.67    2.74
   4  32  -5   13.13    3.55
   4 -32   5   12.14    4.17
  -4  32  -5    8.86    3.23
   4  32   5    9.24    3.07
  -6  32   5    4.90    2.34
   6 -32   5    4.37    3.22
   6  32  -5    5.22    2.59
  -6  32  -5    9.96    2.96
   6  32   5   12.11    3.40
  -1  33   5    4.63    2.08
   1  33  -5    4.19    2.22
  -1  33  -5    0.10    1.80
   1  33   5    1.97    1.90
   3  33  -5    3.93    2.46
  -3  33   5    4.53    2.23
  -3  33  -5    2.42    2.04
   3  33   5    4.48    2.10
   5  33  -5    0.34    1.94
   5 -33   5    2.32    2.86
  -5  33   5    0.38    1.54
  -5  33  -5   -1.79    2.00
   5  33   5    1.80    2.17
   0  34   5    0.59    1.93
   0  34  -5    7.59    2.83
  -2  34   5    2.16    1.74
   2  34  -5    3.75    2.35
  -2  34  -5    3.28    2.22
   2  34   5    3.08    2.07
   4 -34   5    0.26    1.99
   0   0   6  177.40    6.63
   2   0   6  137.56    5.46
  -2   0   6  132.87    5.41
   4   0   6  133.77    6.15
  -4   0   6  133.14    5.63
   6   0   6   96.07    5.78
  -6   0   6   96.14    5.04
   8   0   6   64.68    5.32
  -8   0   6   66.72    4.02
 -10   0   6   54.47    3.44
  10   0   6   57.53    5.50
  12   0   6   29.11    5.40
  14   0   6   25.29    4.86
  14   0   6   24.52    3.75
  -1   1   6    0.54    0.32
   1  -1   6   -0.01    0.46
  -1   1   6    0.38    0.42
   1   1  -6    0.15    0.53
   1   1   6    1.38    0.63
  -1  -1   6    0.68    0.33
  -1  -1   6   -0.37    0.23
  -3   1   6    1.68    0.68
   3  -1   6    1.63    0.88
   3   1   6    2.51    0.97
  -3  -1   6    1.46    0.71
  -5   1   6    0.61    0.72
   5  -1   6    0.98    0.93
  -5  -1   6   -0.30    0.57
   5   1   6    0.72    0.76
  -7   1   6    5.44    1.49
   7  -1   6    2.27    1.31
   7   1   6    2.56    1.48
  -7  -1   6    0.57    0.74
  -9   1   6   -0.55    0.69
   9  -1   6    0.44    0.96
   9   1   6   -1.68    0.62
  -9  -1   6   -0.86    0.58
  11  -1   6    1.91    1.57
  11   1   6    1.26    1.30
  13  -1   6    2.54    1.72
  13   1   6   -0.85    1.25
  13   1   6    2.24    1.27
  15  -1   6    2.27    1.92
  15   1   6   -0.88    1.56
   0   2   6  416.27   10.59
   0  -2   6  398.57   10.61
   0   2  -6  410.36   11.65
   2   2  -6   58.95    3.40
  -2   2   6   65.67    3.57
   2  -2   6   63.02    3.57
  -2   2  -6   63.90    3.40
  -2  -2   6   57.76    3.36
  -2  -2   6   60.37    1.81
   2   2   6   61.01    3.35
   4  -2   6  324.92   10.84
   4   2  -6  294.44    9.41
  -4   2   6  310.29    9.80
  -4  -2   6  303.07    9.65
   4   2   6  290.37   10.07
   6  -2   6   32.89    3.45
  -6   2   6   34.01    2.85
  -6  -2   6   33.37    2.77
   6   2   6   38.71    3.51
  -8   2   6  155.90    6.91
   8  -2   6  146.80    8.34
  -8  -2   6  140.66    5.83
   8   2   6  150.52    8.06
  10  -2   6   11.80    3.20
  10   2   6   10.83    2.77
  12  -2   6   54.18    6.00
  12   2   6   62.93    4.15
  12   2   6   52.87    5.71
  14  -2   6    0.59    1.75
  14   2   6    6.22    2.64
  -1   3   6    4.00    1.09
   1   3  -6    5.39    1.31
   1  -3   6    6.53    1.39
  -1  -3   6    5.91    0.98
  -1   3  -6    4.95    1.19
   1   3   6    3.23    1.02
   1   3   6    4.89    1.04
  -3   3   6    4.26    1.05
   3  -3   6    3.09    1.07
   3   3  -6    3.04    0.97
   3   3   6    3.52    1.12
  -3  -3   6    4.72    1.12
  -3   3  -6    3.84    0.98
   5   3  -6    4.81    1.21
  -5   3   6    6.43    1.54
   5  -3   6    5.41    1.82
   5   3   6    7.68    2.09
  -5  -3   6    3.71    1.21
  -7   3   6    3.05    1.17
   7   3   6    2.58    1.34
  -7  -3   6    2.30    0.90
   9  -3   6    4.37    1.96
  -9   3   6    4.20    1.47
   9   3   6    1.00    1.04
  -9  -3   6    3.35    1.00
  11  -3   6    1.10    1.30
  11   3   6    0.04    1.30
  11   3   6    1.15    1.04
  13  -3   6    3.63    2.20
  13   3   6    1.81    1.63
  13   3   6    1.46    1.31
  15  -3   6    1.73    2.28
  15   3   6    0.17    1.72
   0   4   6    3.45    1.03
   0   4   6    5.69    1.08
   0  -4   6    5.57    1.18
   0   4  -6    3.34    1.00
   2  -4   6  131.80    5.78
   2   4  -6  134.26    5.61
  -2   4   6  143.09    5.63
   2   4   6  141.68    5.50
  -2   4  -6  129.52    5.38
   2   4   6  143.94    5.76
  -2  -4   6  129.95    4.01
  -4   4   6    4.28    1.25
   4   4  -6    4.14    1.16
   4  -4   6    4.82    1.51
   4   4   6    4.61    1.14
   4   4   6    4.04    1.20
  -4   4  -6    4.96    1.18
  -4  -4   6    7.30    1.46
   6   4  -6   84.24    4.37
   6  -4   6   82.92    5.66
  -6   4   6   88.12    4.92
  -6  -4   6   77.94    4.40
   6   4   6   81.63    5.08
   8  -4   6    5.05    2.11
  -8   4   6    5.16    1.69
   8   4   6    2.58    1.41
  -8  -4   6    4.65    0.99
  10  -4   6   32.92    5.48
 -10   4   6   33.32    3.38
  10   4   6   30.86    2.88
  10   4   6   35.86    4.22
  12  -4   6    4.90    2.42
  12   4   6    5.27    1.42
  12   4   6    6.03    2.41
  14  -4   6   11.88    3.86
  14   4   6   11.47    3.48
   1   5  -6    2.75    0.99
  -1   5   6    1.92    0.78
   1  -5   6    2.39    0.85
   1   5   6    2.65    0.79
   1   5   6    2.99    0.98
  -1   5  -6    3.28    1.07
   3  -5   6    3.36    1.17
  -3   5   6    0.31    0.54
   3   5  -6    2.02    0.88
  -3   5  -6    2.24    0.86
  -3  -5   6    1.91    0.46
   3   5   6    2.10    0.79
  -3  -5   6    2.81    0.95
   3   5   6    1.47    0.76
   5  -5   6    2.51    1.23
   5   5  -6    0.99    0.72
   5   5   6    2.00    1.26
  -5  -5   6    1.65    0.87
  -5   5  -6    2.36    0.90
   5   5   6    2.40    0.91
   7   5  -6    2.85    1.02
   7  -5   6    1.79    1.41
  -7   5   6    0.23    0.75
   7   5   6    1.54    0.78
  -7  -5   6    0.98    0.71
   7   5   6    0.32    0.74
  -9   5   6    1.61    1.24
   9  -5   6    2.45    1.72
   9   5   6    0.80    0.71
   9   5   6    0.98    1.09
  -9  -5   6    0.86    0.60
 -11   5   6    0.52    1.28
  11  -5   6   -1.18    0.94
  11   5   6    2.11    1.04
  11   5   6    0.30    1.21
  13  -5   6   -0.47    1.31
  13   5   6    0.14    1.27
  15  -5   6   -1.13    1.63
  15   5   6    1.69    1.80
   0   6   6   49.62    3.10
   0  -6   6   47.94    2.98
   0   6  -6   50.61    3.28
   0   6   6   48.06    2.68
   2  -6   6  325.33   10.82
  -2   6   6  333.99   10.16
   2   6  -6  328.96   10.41
  -2   6  -6  347.35   10.44
  -2  -6   6  326.46    8.90
   2   6   6  320.54    9.92
   2   6   6  317.91    9.89
  -4   6   6   39.67    2.98
   4  -6   6   40.07    3.58
   4   6  -6   35.57    2.83
  -4   6  -6   42.89    2.91
   4   6   6   40.37    2.79
   4   6   6   38.15    3.07
  -4  -6   6   45.00    3.06
   6  -6   6  199.90    9.46
   6   6  -6  197.80    7.51
  -6   6   6  199.14    8.15
   6   6   6  203.60    8.46
  -6  -6   6  177.21    7.14
   6   6   6  200.99    7.24
   8   6  -6   26.17    2.64
  -8   6   6   29.16    3.07
   8  -6   6   26.15    4.53
   8   6   6   24.08    2.23
   8   6   6   28.58    3.36
 -10   6   6   87.92    5.89
  10  -6   6   91.90    7.47
  10   6   6   90.32    6.61
  10   6   6   91.06    4.60
  12  -6   6   15.85    4.24
  12   6   6   17.27    2.04
  12   6   6   12.78    3.38
  14  -6   6   45.53    7.85
  14   6   6   26.41    4.90
   1   7  -6    4.18    1.26
   1  -7   6    3.65    1.25
  -1   7   6    2.48    0.84
  -1  -7   6    6.13    1.33
   1   7   6    2.00    0.84
   1   7   6    3.42    0.95
  -1   7  -6    4.07    1.18
   3  -7   6    1.20    0.91
  -3   7   6    1.07    0.69
   3   7  -6    1.79    0.85
  -3   7  -6    1.25    0.79
   3   7   6    0.92    0.62
   3   7   6    0.25    0.53
   5  -7   6    2.55    1.42
  -5   7   6    2.65    1.06
   5   7  -6    1.05    0.77
  -5   7  -6    2.56    1.02
  -5  -7   6    3.98    1.18
   5   7   6    2.36    0.89
   5   7   6    1.79    1.06
   5  -7  -6    1.86    0.47
   7   7  -6   -0.03    0.66
  -7   7   6    0.48    0.83
   7  -7   6    0.97    1.01
   7   7   6    0.48    0.95
   7   7   6    1.05    0.73
  -7  -7   6    1.18    0.67
  -9   7   6    1.13    1.47
   9  -7   6    0.90    1.38
   9   7   6    1.11    1.06
   9   7   6    2.41    0.99
 -11   7   6    3.60    1.44
  11  -7   6   -3.48    1.51
  11   7   6    0.07    1.64
  11   7   6   -1.38    0.67
  13  -7   6    4.29    2.46
  13   7   6    1.64    1.65
  15  -7   6   -2.20    1.81
  15   7   6    2.15    1.94
   0  -8   6   70.24    3.99
   0   8  -6   71.50    4.13
   0   8   6   74.52    3.93
  -2   8   6  243.92    8.40
   2  -8   6  241.65    9.23
   2   8  -6  234.16    8.58
  -2   8  -6  248.88    8.66
   2   8   6  252.47    8.27
   2   8   6  238.34    8.15
   4  -8   6   46.02    4.75
   4   8  -6   50.24    3.54
  -4   8   6   54.10    4.52
  -4  -8   6   53.23    3.39
   4   8   6   51.50    3.13
  -4   8  -6   46.13    3.20
   4   8   6   46.06    3.51
   6  -8   6  143.10    8.09
  -6   8   6  136.76    6.66
   6   8  -6  137.45    6.23
   6   8   6  141.18    5.66
   6   8   6  143.94    6.95
   6  -8  -6  127.33    4.18
  -6   8  -6  144.73    6.03
   8   8  -6   22.83    2.49
  -8   8   6   26.20    3.06
   8  -8   6   24.12    4.22
   8   8   6   24.09    2.16
   8  -8  -6   18.86    1.29
   8   8   6   17.27    3.13
 -10   8   6   59.42    5.13
  10  -8   6   59.67    6.24
  10   8   6   57.40    5.26
  10   8   6   63.90    3.56
  12  -8   6   10.73    3.46
  12   8   6    4.35    1.88
  14  -8   6   18.04    4.90
  14   8   6   25.16    4.75
  -1   9   6    5.32    1.23
   1   9  -6    6.39    1.61
   1  -9   6    5.81    1.54
   1   9   6    5.19    1.24
  -1   9  -6    6.37    1.47
  -3   9   6    7.76    1.75
   3   9  -6    6.67    1.87
   3  -9   6    8.25    2.06
   3   9   6    8.50    1.82
  -3   9  -6    6.52    1.53
   3   9   6    7.03    1.37
  -5   9   6    2.93    1.09
   5  -9   6    0.75    1.00
   5   9  -6    2.48    1.16
   5   9   6    3.85    1.39
  -5   9  -6    2.63    1.11
  -5  -9   6    2.19    1.11
   5   9   6    2.41    0.88
   7   9  -6    5.76    1.59
  -7   9   6    4.79    1.66
   7  -9   6    3.64    1.95
   7   9   6    5.50    1.24
   7  -9  -6    5.70    1.72
  -7   9  -6    5.72    1.41
   7   9   6    7.50    2.02
   9  -9   6    0.40    1.08
  -9   9   6    3.07    1.46
   9   9  -6    1.01    0.93
   9   9   6    0.94    0.73
   9   9   6    1.06    1.25
 -11   9   6    1.15    1.37
  11  -9   6    5.95    2.94
  11   9   6    1.91    1.33
  11   9   6    2.02    0.95
  13  -9   6    1.05    1.72
  13   9   6   -1.68    1.21
  15  -9   6   -1.68    2.66
  15   9   6    1.46    3.11
   0  10  -6   79.67    4.57
   0  10   6   84.00    4.27
  -2  10   6   51.09    3.47
   2 -10   6   67.49    4.57
   2  10  -6   56.32    4.69
   2  10   6   65.52    3.58
   2  10   6   61.39    3.69
  -2  10  -6   61.58    3.89
   4  10  -6   65.64    4.15
   4 -10   6   67.28    5.04
  -4  10   6   66.13    4.10
   4  10   6   64.50    4.15
  -4  10  -6   60.24    3.84
   4  10   6   60.55    3.45
   6 -10   6   44.46    4.62
  -6  10   6   48.76    3.91
   6  10  -6   43.96    3.47
   6 -10  -6   43.82    2.80
  -6  10  -6   45.81    3.35
   6  10   6   45.96    3.80
   8 -10   6   35.94    6.11
  -8  10   6   28.04    3.51
   8  10  -6   34.93    3.14
   8 -10  -6   28.33    2.13
   8  10   6   26.35    3.21
   8  10   6   36.46    2.58
  10  10  -6   29.40    3.02
 -10  10   6   33.04    3.96
  10 -10   6   23.77    5.00
  10  10   6   28.23    2.26
  10  10   6   24.89    3.45
  12 -10   6    9.62    3.23
  12  10   6   15.66    3.82
  14 -10   6   12.67    4.53
  14  10   6   13.34    3.43
  -1  11   6    0.40    0.50
   1  11  -6    1.32    0.86
   1  11   6    0.07    0.52
   3  11  -6    0.64    0.71
  -3  11   6    0.17    0.58
   3 -11   6    0.01    0.91
  -3  11  -6   -0.55    0.77
   3  11   6   -0.20    0.35
  -5  11   6    0.86    0.79
   5  11  -6   -0.68    0.53
   5 -11   6    1.01    1.36
   5  11   6   -0.42    0.62
  -5  11  -6    0.80    0.75
  -5 -11   6   -0.14    0.71
   7 -11   6    1.17    1.27
  -7  11   6    0.03    0.75
   7  11  -6    0.32    0.75
   7  11   6   -0.55    0.44
   7  11   6    0.00    0.86
   7 -11  -6   -1.45    0.82
  -7  11  -6    0.22    0.71
   9  11  -6    2.59    1.35
  -9  11   6    1.50    1.18
   9 -11   6    2.21    1.73
   9 -11  -6    1.80    1.08
   9  11   6    0.63    0.70
   9  11   6    0.48    1.00
  11 -11   6    3.37    2.26
 -11  11   6    0.40    1.35
  11  11   6    1.34    1.45
  11  11   6   -1.25    1.64
  13 -11   6    0.47    2.43
  13  11   6    2.30    1.75
   0  12   6  483.03   13.69
   0  12  -6  474.68   14.49
   2  12  -6    4.93    1.39
   2 -12   6    3.19    1.50
  -2  12   6    6.08    1.39
  -2  12  -6    5.06    1.41
   2  12   6    5.46    1.20
  -4  12   6  358.12   11.91
   4 -12   6  353.66   13.85
   4  12  -6  360.17   12.11
   4  12   6  355.84   10.81
  -4  12  -6  360.35   11.72
   4  12   6  383.79   12.23
   6 -12   6    2.07    1.37
   6  12  -6    2.78    1.23
  -6  12   6    2.59    1.18
   6  12   6    3.21    1.33
   6 -12  -6    3.74    1.20
  -6 -12   6    0.28    0.74
  -6  12  -6    4.59    1.38
   6  12   6    2.89    0.89
  -8  12   6  211.39    9.78
   8 -12   6  195.95   11.35
   8  12  -6  193.59    8.36
   8  12   6  205.41    6.98
  -8  12  -6  189.72    7.81
   8  12   6  198.98    9.22
   8 -12  -6  182.80    7.12
 -10  12   6    4.43    1.79
  10  12  -6    0.14    1.00
  10  12   6    2.80    1.04
  12 -12   6   92.92    9.00
  12  12   6   83.43    6.64
  14 -12   6   -0.90    2.89
  14  12   6    0.93    1.58
  -1  13   6    3.02    1.13
   1  13  -6    3.23    1.18
  -1  13  -6    2.99    1.21
   1  13   6    3.29    1.08
   3  13  -6    2.20    1.04
  -3  13   6    0.83    0.79
   3 -13   6    1.69    1.16
   3  13   6    1.59    0.76
  -3  13  -6    3.58    1.21
  -5  13   6    4.79    1.58
   5  13  -6    4.00    1.45
   5 -13   6    2.18    1.55
   5  13   6    2.54    1.20
  -5 -13   6    2.71    0.99
   5  13   6    2.04    0.84
  -5  13  -6    3.85    1.29
   7  13  -6    1.43    1.07
  -7  13   6    0.12    0.79
   7 -13   6   -0.71    1.16
   7 -13  -6    1.46    1.07
  -7  13  -6   -0.10    0.89
   7  13   6    0.39    1.00
   7  13   6    0.97    0.70
   9 -13   6    1.25    1.65
   9  13  -6    4.05    1.46
  -9  13   6    3.15    1.71
   9  13   6    0.85    0.79
   9 -13  -6   -0.37    1.10
   9  13   6    0.23    1.01
  11 -13   6   -0.52    1.64
  11  13  -6    1.41    1.45
  11  13   6   -1.05    0.64
  13 -13   6   -0.77    2.14
  13  13   6    2.13    1.58
   0  14  -6   19.72    2.44
   0  14   6   21.44    2.26
  -2  14   6    2.00    0.99
   2  14  -6    3.04    1.21
   2  14   6    3.68    1.13
  -2  14  -6    4.97    1.43
  -4  14   6   11.66    2.18
   4 -14   6   14.47    3.13
   4  14  -6   15.82    2.58
   4  14   6   15.37    1.74
  -4  14  -6   13.30    2.37
  -6  14   6    1.18    1.02
   6  14  -6    1.32    1.06
   6 -14   6   -0.41    0.91
  -6  14  -6   -0.56    0.83
   6  14   6    2.43    1.42
   6  14   6    0.33    0.72
  -8  14   6    4.25    1.99
   8  14  -6    6.11    1.85
   8 -14   6    6.76    2.56
  -8  14  -6    6.89    1.81
   8  14   6    6.63    1.28
   8 -14  -6    5.74    1.79
   8  14   6    6.17    2.10
  10 -14   6    5.67    2.50
  10  14  -6    0.90    1.23
 -10  14   6   -1.34    1.17
  10  14   6    2.88    1.50
  10  14   6   -0.02    1.21
  12 -14   6    1.04    2.35
  12  14   6    2.16    1.71
  14 -14   6   -1.34    1.92
  -1  15   6    2.92    1.10
   1  15  -6    3.38    1.31
   1  15   6    3.59    1.19
  -1  15  -6    3.14    1.28
  -3  15   6    4.07    1.31
   3 -15   6    4.24    1.82
   3  15  -6    3.74    1.44
   3  15   6    2.26    0.92
  -3  15  -6    3.52    1.41
  -5  15   6    1.35    1.03
   5  15  -6    1.92    1.10
   5 -15   6    1.40    1.39
   5  15   6    2.46    0.87
  -5  15  -6    3.18    1.26
  -5 -15   6    0.59    0.71
  -7  15   6    1.91    1.18
   7 -15   6    0.69    1.22
   7  15  -6    1.12    1.11
   7 -15  -6    3.77    1.49
  -7  15  -6    2.24    1.20
   7  15   6    1.74    0.79
   7  15   6    2.72    1.37
   9  15  -6    1.17    1.16
   9 -15   6    2.74    2.31
  -9  15   6    1.01    1.24
  -9  15  -6   -1.51    1.14
   9  15   6   -0.23    0.80
   9  15   6    0.74    1.33
  11  15  -6    1.15    1.52
 -11  15   6    2.43    1.95
  11 -15   6    1.29    2.34
  11  15   6   -0.28    1.17
  11  15   6   -0.81    2.57
  13 -15   6    3.18    2.67
   0  16   6    4.92    1.43
   0  16  -6    5.86    1.69
   2  16  -6  136.15    7.10
  -2  16   6  149.62    6.87
   2  16   6  149.39    6.21
  -2  16  -6  150.25    7.21
  -4  16   6    6.42    1.70
   4  16  -6   11.43    2.35
   4 -16   6    6.23    2.28
  -4  16  -6    8.69    2.01
   4  16   6    8.59    1.60
  -6  16   6   93.45    5.96
   6 -16   6  105.70    7.97
   6  16  -6   90.96    5.73
   6  16   6   98.01    4.56
  -6  16  -6   90.85    5.33
  -8  16   6    3.83    1.98
   8 -16   6    5.79    2.75
   8  16  -6    6.58    1.95
   8  16   6   10.93    1.61
   8 -16  -6    4.96    1.95
  -8  16  -6    4.71    1.65
 -10  16   6   41.31    4.91
  10 -16   6   50.68    6.66
  10  16  -6   45.58    4.20
  10  16   6   40.01    3.84
  12 -16   6    7.96    3.29
   1  17  -6   -0.64    0.54
  -1  17   6    0.34    0.70
  -1  17  -6    0.79    0.97
   1  17   6    0.82    0.71
  -3  17   6   -0.36    0.53
   3 -17   6   -0.37    0.60
   3  17  -6   -0.51    0.71
   3  17   6   -0.02    0.61
  -3  17  -6   -0.82    0.61
   5  17  -6    0.35    0.96
   5 -17   6    0.25    1.06
  -5  17   6   -0.79    0.92
  -5  17  -6    0.31    0.93
   5  17   6    0.48    0.60
   7  17  -6   -0.30    0.80
  -7  17   6    0.01    0.96
   7 -17   6    0.00    1.31
   7 -17  -6    1.36    1.22
   7  17   6   -0.96    0.61
  -7  17  -6    1.11    1.08
   9  17  -6   -1.09    0.96
   9 -17   6   -0.26    2.00
  -9  17   6    7.12    3.75
   9  17   6   -1.51    0.81
   9 -17  -6    0.84    1.51
  -9  17  -6    2.42    1.48
  11  17  -6    1.35    1.72
  11  17   6   -1.91    2.00
  13 -17   6    0.71    2.49
   0  18  -6    1.87    1.34
   0  18   6    2.83    1.21
  -2  18   6  230.73    9.20
   2  18  -6  231.65    9.94
   2  18   6  227.06    8.36
  -2  18  -6  219.69    9.56
   4  18  -6    2.52    1.21
  -4  18   6    1.18    1.05
   4 -18   6    1.61    1.27
   4  18   6    0.45    0.72
  -4  18  -6    2.70    1.22
   6 -18   6  151.71   10.03
   6  18  -6  144.44    7.60
  -6  18   6  144.52    7.87
   6  18   6  144.70    5.95
  -6  18  -6  145.00    7.12
   8 -18   6    0.89    2.27
  -8  18   6    0.70    1.18
   8  18  -6   -1.01    1.00
   8 -18  -6   -2.42    1.26
  -8  18  -6    3.67    1.48
   8  18   6    1.17    0.97
  10 -18   6   76.89    8.20
  10  18  -6   72.17    5.35
 -10  18   6   66.96    6.47
  10  18   6   69.82    5.41
  12 -18   6    0.33    2.29
   1  19  -6   -0.23    0.76
  -1  19   6    1.56    0.86
   1  19   6    1.91    0.98
  -1  19  -6    0.18    0.79
   3  19  -6    2.01    1.26
  -3  19   6    0.78    0.84
  -3  19  -6    1.01    1.03
   3  19   6    2.87    1.14
   5  19  -6    2.25    1.36
   5 -19   6   -0.23    1.22
  -5  19   6    1.20    0.94
   5  19   6    1.40    0.86
  -5  19  -6   -0.93    0.80
   7  19  -6    2.57    1.33
   7 -19   6    1.15    1.99
  -7  19   6    2.03    1.41
   7  19   6    2.07    1.03
  -7  19  -6    0.64    1.18
   7 -19  -6   -0.26    1.26
  -9  19   6   -2.75    1.03
   9 -19   6    0.01    1.72
   9  19  -6    0.05    1.37
   9 -19  -6    0.47    1.80
   9  19   6   -0.52    1.20
  -9  19  -6   -0.68    1.60
  11  19  -6    0.05    1.63
  11 -19   6    1.04    2.42
  11  19   6    2.51    2.46
   0  20  -6    1.31    1.28
   0  20   6    0.19    0.72
  -2  20   6    0.35    0.83
   2  20  -6   -0.84    0.79
  -2  20  -6   -0.13    0.78
   2  20   6    0.19    0.73
   4  20  -6   -1.40    0.75
  -4  20   6   -0.08    0.87
   4  20   6   -0.55    0.68
  -4  20  -6   -0.15    0.77
   6 -20   6    1.54    1.82
  -6  20   6    0.28    0.85
   6  20  -6    0.98    0.95
  -6  20  -6    0.58    1.05
   6  20   6    0.58    0.82
   8 -20   6   -1.58    1.34
  -8  20   6    0.67    1.37
   8  20  -6    0.02    0.99
   8 -20  -6    0.66    1.46
   8  20   6   -1.35    0.89
  10 -20   6   -2.06    1.68
  10  20  -6   -0.20    1.33
 -10  20   6    1.96    1.98
 -10  20   6   -0.43    1.42
  10  20   6   -2.05    1.75
  10 -20  -6   -3.75    2.41
  12 -20   6    0.18    2.50
  -1  21   6    2.12    1.12
   1  21  -6    1.51    1.15
   1  21   6    2.37    1.11
  -1  21  -6   -0.14    0.80
   3  21  -6    2.34    1.46
  -3  21   6    1.05    0.82
  -3  21  -6   -1.15    0.68
   3  21   6    0.61    0.86
  -5  21   6    1.92    1.44
   5  21  -6    1.00    1.22
   5 -21   6    1.44    1.77
   5  21   6    2.01    1.03
  -5  21  -6    4.57    1.84
  -7  21   6    2.64    1.53
   7 -21   6   -0.11    1.64
   7  21  -6   -0.58    1.27
  -7  21  -6    1.06    1.08
   7 -21  -6   -0.02    1.33
   7  21   6    0.80    0.97
   9 -21   6    2.77    1.96
   9  21  -6    2.48    1.68
  -9  21   6    0.55    1.43
   9  21   6    1.61    1.33
   9 -21  -6    3.02    2.16
  -9  21  -6   -0.07    1.53
  11 -21   6   -1.21    1.43
  11  21  -6    3.76    2.13
  11  21   6    0.11    2.41
   0  22  -6  199.07    9.70
   0  22   6  206.61    8.69
   2  22  -6    1.54    1.25
  -2  22   6    2.68    1.17
   2  22   6    3.54    1.17
  -2  22  -6    1.37    1.31
  -4  22   6  159.82    8.34
   4  22  -6  159.88    8.69
   4  22   6  159.74    6.85
  -4  22  -6  157.73    8.23
   6  22  -6    0.99    1.25
   6 -22   6    0.70    1.67
  -6  22   6    3.09    1.83
  -6  22  -6    2.37    1.42
   6  22   6   -0.07    0.93
  -8  22   6   97.80    7.19
   8 -22   6   87.75    8.60
   8  22  -6   81.90    6.06
   8  22   6  108.67    7.17
   8 -22  -6   84.48    6.95
  -8  22  -6   82.29    5.66
  10  22  -6    2.25    1.66
  10 -22   6    1.20    2.50
 -10  22   6    2.94    2.10
  10  22   6   -1.54    1.74
  12 -22   6   50.59   12.46
  -1  23   6   -0.43    0.77
   1  23  -6    1.17    1.20
   1  23   6   -0.15    0.71
  -1  23  -6   -0.27    0.92
   3  23  -6    0.98    1.11
  -3  23   6    0.28    1.08
  -3  23  -6   -0.87    0.91
   3  23   6   -0.58    0.72
  -5  23   6    0.24    1.15
   5  23  -6   -1.28    1.35
   5 -23   6   -1.18    1.69
  -5  23  -6    0.34    1.12
   5  23   6   -0.17    0.72
  -7  23   6    2.51    1.70
   7 -23   6   -1.32    1.19
   7  23  -6   -0.57    1.12
  -7  23  -6    0.00    1.07
   7  23   6    0.63    1.05
  -9  23   6    0.60    1.65
   9 -23   6    0.12    1.88
   9  23  -6    0.68    1.51
  -9  23   6   -0.42    1.22
   9  23   6    4.19    2.05
  11 -23   6   -0.56    2.61
  11  23  -6   -2.01    2.00
  11  23   6    1.34    3.84
   0  24   6   41.95    3.71
   0  24  -6   45.03    4.56
   2  24  -6   17.23    3.63
  -2  24   6   11.66    2.48
  -2  24  -6   11.67    2.74
   2  24   6   13.64    2.42
   4 -24   6   32.75    7.35
  -4  24   6   34.96    3.91
   4  24  -6   36.47    4.32
  -4  24  -6   34.49    3.86
   4  24   6   31.48    2.95
   6  24  -6   10.52    2.84
   6 -24   6   15.50    4.15
  -6  24   6   10.10    2.69
  -6  24  -6   17.05    4.94
   6  24   6   12.66    2.00
   8  24  -6   15.93    3.38
   8 -24   6   15.09    4.49
  -8  24   6   15.24    3.68
   8  24   6   15.72    3.35
  -8  24  -6   15.79    3.06
 -10  24   6   10.34    2.80
  10  24  -6    7.15    2.42
  10 -24   6    5.17    2.91
  10  24   6    3.89    2.64
  -1  25   6    2.11    1.40
   1  25   6   -0.17    0.91
  -1  25  -6   -0.32    0.98
   3  25  -6    0.12    1.23
  -3  25   6    2.14    1.58
   3  25   6    1.15    1.06
   5 -25   6    0.13    1.66
  -5  25   6    0.33    1.33
   5  25  -6   -1.15    1.00
   5  25   6    0.81    1.03
  -5  25  -6   -1.20    1.18
   7 -25   6    1.23    1.49
  -7  25   6    0.83    1.35
   7  25  -6   -1.10    1.11
  -7  25  -6    0.44    1.40
   7  25   6    1.67    1.48
   7  25   6    4.28    1.89
   9  25  -6    0.52    1.63
  -9  25   6   -0.06    1.53
   9 -25   6   -3.56    1.63
   9  25   6    0.56    1.90
  -9  25  -6    2.70    2.12
   9 -25  -6   -0.24    2.43
   0  26  -6    7.93    2.43
   0  26   6    5.81    2.84
  -2  26   6   25.55    3.23
   2  26  -6   19.49    3.80
  -2  26  -6   15.12    3.36
   2  26   6   19.86    2.54
  -4  26   6    5.57    2.06
   4 -26   6    3.54    2.34
   4  26  -6    7.66    2.60
   4  26   6    5.65    1.63
  -4  26  -6    4.13    1.78
   6  26  -6   11.39    2.82
   6 -26   6    9.69    3.28
  -6  26   6   14.36    3.24
   6  26   6    9.68    2.05
  -6  26  -6   12.63    2.91
   6  26   6   13.09    3.15
  -8  26   6    1.73    1.49
   8 -26   6    1.61    1.90
   8  26  -6    3.77    1.98
  -8  26   6    1.91    1.91
   8  26   6    6.80    2.40
   8 -26  -6    1.87    2.77
  -8  26  -6    2.94    1.95
  10  26  -6   10.44    2.76
  10 -26   6    0.17    2.26
  10  26   6    4.36    2.80
   1  27  -6    1.05    1.21
  -1  27   6    1.88    1.15
   1  27   6    0.32    0.98
  -1  27  -6    1.22    1.33
  -3  27   6    0.31    1.24
   3  27  -6   -0.31    1.15
  -3  27  -6    2.50    1.82
   5  27  -6    0.55    1.36
   5 -27   6   -2.10    1.41
  -5  27   6    1.13    1.19
   5  27   6    2.14    1.32
  -5  27  -6   -0.12    1.11
  -7  27   6    0.74    1.37
   7 -27   6   -1.30    1.72
  -7  27   6    1.67    1.40
   7  27  -6    0.22    1.29
   7  27   6    2.35    1.80
  -7  27  -6    1.40    1.57
   9 -27   6   -1.25    1.86
  -9  27   6    1.51    1.98
   9  27  -6   -1.09    1.38
   9  27   6   -0.83    2.01
   9 -27  -6   -7.23    2.74
  -9  27  -6    7.33    3.31
   0  28  -6    0.87    1.64
   0  28   6    0.60    1.07
   2  28  -6   75.17    6.44
  -2  28   6   63.08    5.30
  -2  28  -6   81.31    6.46
   2  28   6   72.70    5.09
   4 -28   6    1.83    1.85
   4  28  -6    1.63    1.97
  -4  28   6    2.63    1.88
   4  28   6    2.65    1.23
  -4  28  -6    2.12    1.61
   6 -28   6   56.03    7.06
  -6  28   6   55.25    5.35
  -6  28   6   52.20    5.04
   6  28  -6   63.04    5.62
  -6  28  -6   53.79    4.96
   6  28   6   59.87    4.20
   6  28   6   66.59    5.98
  -8  28   6    2.54    1.98
   8  28  -6    5.66    2.19
   8 -28   6    2.03    2.08
  -8  28  -6    1.61    1.78
   8  28   6    2.01    2.14
   8 -28  -6    3.97    2.77
   1  29  -6   -0.61    1.28
  -1  29   6   -1.09    0.65
   1  29   6    0.52    0.93
  -1  29  -6    0.69    1.21
  -3  29   6    1.72    1.32
   3  29  -6    0.40    1.39
   3  29   6    1.46    1.32
  -3  29  -6   -1.47    1.10
  -5  29   6    0.92    1.65
   5  29  -6    0.99    1.55
   5 -29   6    1.87    1.86
  -5  29   6    0.45    1.31
   5  29   6    0.12    1.32
   5  29   6   -1.09    1.19
  -5  29  -6   -0.92    1.33
  -7  29   6   -3.09    1.32
   7 -29   6    1.60    2.19
  -7  29   6    2.66    1.91
   7  29  -6    0.60    1.91
   7 -29  -6   -0.08    2.48
  -7  29  -6    0.26    1.73
   7  29   6    2.41    2.34
   0  30  -6   13.46    3.42
   0  30   6   11.99    2.56
  -2  30   6   13.01    2.68
   2  30  -6   12.88    3.35
  -2  30  -6   11.91    3.18
   2  30   6   10.27    2.84
   2  30   6   12.06    2.50
  -4  30   6    8.86    2.63
   4  30  -6    8.06    2.87
  -4  30   6   11.54    3.03
   4 -30   6    7.15    2.87
  -4  30  -6   10.46    2.95
   4  30   6   11.73    3.14
   4  30   6   10.27    2.33
  -6  30   6    9.69    2.70
  -6  30   6   10.35    2.89
   6 -30   6    8.76    3.14
   6  30  -6    8.93    2.92
   6  30   6    9.83    3.25
  -6  30  -6   13.84    3.03
  -1  31   6   -1.33    1.22
  -1  31   6    1.10    1.50
   1  31  -6    0.63    1.30
   1  31   6    0.61    1.60
   1  31   6   -0.56    1.08
  -1  31  -6   -3.03    1.42
   3 -31   6    2.26    2.12
  -3  31   6    0.97    1.63
   3  31  -6    0.12    1.38
  -3  31   6   -0.46    1.38
   3  31   6    2.03    1.71
  -3  31  -6   -1.45    1.28
   3  31   6   -1.83    1.08
  -5  31   6   -0.30    1.56
   5 -31   6    0.87    1.91
  -5  31   6   -0.26    1.50
   5  31  -6    2.06    1.86
  -5  31  -6    1.18    1.73
   5  31   6    0.39    1.70
   5  31   6    2.07    1.98
   0  32  -6   35.38    5.58
   0  32   6   35.81    4.35
   0  32   6   25.67    3.34
  -2  32   6   11.77    2.71
  -2  32   6    9.42    2.76
   2  32  -6   12.48    3.60
   2  32   6   15.22    3.54
  -2  32  -6    8.71    3.01
   2  32   6    6.23    2.03
  -4  32   6   24.78    4.11
   4  32  -6   21.74    4.26
  -4  32   6   21.71    4.02
   4 -32   6   21.26    4.68
   4  32   6   25.64    3.58
  -4  32  -6   19.78    3.81
   4  32   6   25.12    4.79
   1  33  -6   -0.17    1.34
  -1  33   6   -0.21    1.09
  -1  33   6    0.65    1.52
   1  33   6    1.15    1.91
  -1  33  -6    2.76    2.06
   1  33   6    0.92    1.48
   3 -33   6    4.66    3.03
   3  33  -6   -0.29    1.76
  -3  33   6    0.97    1.49
  -3  33   6    1.47    1.57
   3  33   6    1.37    1.81
  -3  33  -6    1.70    1.83
   3  33   6   -3.36    1.55
   0  34   6   13.07    2.96
   0  34  -6   10.92    3.42
   0  34   6   13.97    3.93
   0   0   7    0.06    0.48
   0   0   7    0.17    0.41
  -2   0   7    0.15    0.51
   2   0   7    0.56    0.67
  -4   0   7    1.32    0.90
   4   0   7    0.24    0.62
   6   0   7   -0.48    0.57
  -6   0   7   -0.63    0.79
   8   0   7    1.73    1.23
  -8   0   7   -0.82    0.76
 -10   0   7    1.99    1.17
  10   0   7    1.46    1.22
  12   0   7   -1.14    1.28
  14   0   7    1.19    1.70
  14   0   7    1.44    1.93
   1  -1   7    4.91    1.11
  -1   1   7    6.22    1.32
  -1   1   7    5.84    0.76
   1   1   7    3.78    1.17
   1   1   7    5.61    1.20
  -1  -1   7    6.12    0.97
  -1  -1   7    3.36    1.07
   3  -1   7   15.70    2.00
  -3   1   7   15.18    1.80
  -3  -1   7   15.03    1.89
   3   1   7   16.57    2.00
   5  -1   7    0.09    0.82
  -5   1   7    0.76    0.73
   5   1   7    0.00    0.68
  -5  -1   7    0.20    0.67
  -7   1   7   17.02    2.99
   7  -1   7   17.06    3.34
  -7  -1   7   22.42    2.61
   7   1   7   24.30    4.10
   9  -1   7    1.78    1.38
  -9   1   7   -0.13    0.98
   9   1   7    0.96    1.19
  -9  -1   7    2.27    1.13
  11  -1   7   16.17    4.12
 -11   1   7   12.57    2.08
  11   1   7   20.05    4.10
  13  -1   7    0.63    1.72
  13   1   7   -1.05    1.45
  13   1   7   -1.47    1.27
  15  -1   7   12.15    4.27
  15   1   7    7.66    3.87
   0  -2   7   50.14    2.69
   0   2  -7   45.24    3.18
   0   2   7   49.64    2.58
   0   2   7   49.29    3.33
  -2   2   7  189.62    7.22
   2  -2   7  190.79    7.12
   2   2  -7  176.06    7.02
   2   2   7  187.96    6.87
  -2  -2   7  182.37    7.16
  -4   2   7   38.17    3.04
   4  -2   7   37.84    3.35
   4   2   7   38.10    3.18
  -4  -2   7   35.78    2.98
  -6   2   7  119.77    6.57
   6  -2   7  124.69    7.00
   6   2   7  124.05    6.72
  -6  -2   7  119.52    6.25
   8  -2   7   21.97    4.21
  -8   2   7   22.51    2.81
  -8  -2   7   19.15    2.34
   8   2   7   25.47    3.35
 -10   2   7   48.07    4.04
  10  -2   7   59.30    5.86
  10   2   7   66.38    5.89
 -10  -2   7   47.81    3.14
  12  -2   7    7.33    2.68
  12   2   7   10.64    2.18
  12   2   7    6.17    2.67
  14  -2   7   27.64    5.55
  14   2   7   32.19    5.76
   1  -3   7    0.53    0.49
  -1   3   7   -0.47    0.36
   1   3  -7    0.42    0.60
  -1  -3   7    0.33    0.47
  -1   3  -7    1.49    0.82
   1   3   7    0.48    0.54
   1   3   7    0.14    0.53
   3   3  -7    5.25    1.37
   3  -3   7    5.13    1.54
  -3   3   7    4.86    1.30
  -3  -3   7    4.00    1.22
   3   3   7    3.87    1.18
   3   3   7    4.28    1.21
  -5   3   7    5.94    1.62
   5  -3   7    4.75    1.67
  -5  -3   7    6.59    1.66
   5   3   7    7.11    1.99
  -7   3   7    7.87    2.06
   7  -3   7    8.38    2.28
  -7  -3   7   12.02    2.22
   7   3   7    9.15    2.22
   9  -3   7   14.04    3.50
  -9   3   7    9.63    2.24
  -9  -3   7    6.78    1.48
   9   3   7   14.70    3.45
  11  -3   7   11.80    3.68
 -11   3   7    9.06    1.97
  11   3   7   12.73    3.57
  11   3   7    8.35    1.88
  13  -3   7    5.32    2.71
  13   3   7    9.04    3.27
  13   3   7    6.11    1.84
  15  -3   7    2.29    3.10
  15   3   7    5.93    3.35
   0   4   7  236.96    7.04
   0   4  -7  217.42    8.11
   0   4   7  227.28    8.15
   0  -4   7  226.10    7.30
   2  -4   7   14.01    1.87
  -2   4   7   12.93    1.98
   2   4  -7   17.13    2.00
  -2  -4   7   13.11    1.00
   2   4   7   14.99    1.86
   2   4   7   12.26    1.59
  -2  -4   7   11.18    1.90
  -2   4  -7   14.21    1.77
   4  -4   7  178.20    8.09
   4   4  -7  174.20    7.30
  -4   4   7  160.50    8.49
  -4  -4   7  197.05    7.59
   4   4   7  178.33    7.44
   4   4   7  180.71    7.22
   6  -4   7   10.08    2.63
  -6   4   7   12.43    2.42
   6   4   7   11.71    2.52
  -6  -4   7    8.40    1.92
   6   4   7   10.25    1.83
   8  -4   7   99.21    6.98
  -8   4   7  105.41    6.42
  -8  -4   7   76.09    4.32
   8   4   7   94.29    5.15
   8   4   7   99.17    6.45
 -10   4   7    2.49    1.47
  10  -4   7    6.04    2.60
  10   4   7    3.06    1.69
  10   4   7    6.91    1.67
  12  -4   7   52.03    5.95
  12   4   7   47.38    3.60
  12   4   7   49.28    5.47
  14  -4   7    0.71    2.09
  14   4   7    0.75    1.76
  -1   5   7   12.70    2.01
   1   5  -7   14.86    1.90
   1  -5   7   15.91    1.82
   1   5   7   14.10    1.75
  -1   5  -7   18.50    2.05
   1   5   7   12.76    1.54
  -1  -5   7   15.55    1.45
  -3   5   7    3.56    1.84
   3   5  -7    4.72    1.48
   3  -5   7    3.60    1.38
   3   5   7    3.92    1.21
  -3  -5   7    6.40    1.46
   3   5   7    4.62    1.58
  -3   5  -7    5.49    1.39
  -5   5   7   19.80    2.46
   5   5  -7   15.09    2.37
   5  -5   7   19.38    3.37
  -5  -5   7   20.05    2.38
   5   5   7   17.23    2.32
   5   5   7   19.71    2.15
  -7   5   7    0.45    0.86
   7  -5   7    5.46    2.02
   7   5   7    0.87    0.98
   7   5   7    0.89    0.66
  -7  -5   7    1.22    0.87
  -9   5   7   12.86    2.89
   9  -5   7   16.36    3.61
   9   5   7   14.72    2.33
   9   5   7   11.82    2.76
  -9  -5   7   13.39    1.55
 -11   5   7   -0.14    1.32
  11  -5   7    1.41    1.62
  11   5   7   -0.68    0.82
  11   5   7   -0.84    1.14
  13  -5   7    8.26    3.23
  13   5   7   11.81    3.69
  15  -5   7    1.56    3.10
  15   5   7    0.46    2.69
   0   6   7   61.99    3.95
   0   6  -7   67.54    4.19
   0  -6   7   62.92    3.54
   2   6  -7   16.08    2.51
  -2   6   7   16.18    3.47
   2  -6   7   16.29    2.01
   2   6   7   18.12    1.96
  -2   6  -7   14.21    2.23
  -2  -6   7   17.29    1.42
  -4   6   7   57.02    3.80
   4  -6   7   53.47    4.33
   4   6  -7   48.95    3.56
  -4  -6   7   53.58    3.64
   4   6   7   47.59    4.12
   4   6   7   51.36    3.42
  -4   6  -7   49.42    3.43
  -6   6   7    7.87    1.98
   6   6  -7    9.68    1.98
   6  -6   7    9.81    2.85
   6   6   7   11.36    2.55
  -6  -6   7    8.79    1.92
   6   6   7    9.03    1.74
  -8   6   7   30.02    3.65
   8  -6   7   26.16    4.47
  -8  -6   7   19.00    1.91
   8   6   7   24.39    2.55
   8   6   7   22.66    3.73
  10  -6   7    7.88    2.90
 -10   6   7    5.57    2.18
  10   6   7    5.88    2.16
  10   6   7    6.76    1.51
  12  -6   7   11.18    3.65
  12   6   7   14.08    4.01
  12   6   7   12.20    2.04
  14  -6   7   -1.32    1.67
  14   6   7    2.69    2.17
   1   7  -7   12.51    2.17
   1  -7   7   16.82    2.04
  -1   7   7   12.60    1.98
  -1  -7   7   14.78    1.58
   1   7   7   15.82    1.70
   1   7   7   11.53    2.03
   3  -7   7    0.68    0.76
   3   7  -7    2.50    1.15
  -3   7   7    2.57    1.02
   3   7   7    3.49    1.26
   3   7   7    1.71    0.80
  -3   7  -7    0.85    0.88
  -3  -7   7    1.81    0.87
  -3  -7   7    2.00    0.61
   5  -7   7   28.64    3.43
   5   7  -7   28.42    2.77
  -5   7   7   27.45    2.83
  -5   7  -7   26.43    2.63
   5   7   7   24.84    2.81
   5   7   7   31.20    2.63
  -5  -7   7   33.46    2.98
   7  -7   7    1.27    1.19
   7   7  -7    0.68    0.93
  -7   7   7    1.14    1.11
   7   7   7   -0.30    0.72
   7   7   7    0.85    0.71
  -7  -7   7    0.57    0.82
   9  -7   7   26.19    4.73
  -9   7   7   24.90    4.02
   9   7   7   28.92    2.61
   9   7   7   26.26    3.48
 -11   7   7    0.44    1.55
  11  -7   7    1.19    1.33
  11   7   7    0.38    1.36
  11   7   7    2.75    1.25
  13  -7   7   14.22    4.13
  13   7   7   25.89    4.82
   0   8  -7   41.99    3.31
   0   8   7   40.20    3.03
   0  -8   7   36.68    2.88
  -2   8   7  188.52    7.40
   2   8  -7  180.47    7.62
   2  -8   7  192.56    8.10
   2   8   7  197.32    7.20
  -2  -8   7  182.96    6.36
   2   8   7  183.58    7.17
  -2   8  -7  181.95    7.51
   4  -8   7   36.36    3.60
  -4   8   7   34.09    3.05
   4   8  -7   34.87    3.07
  -4  -8   7   38.51    3.13
   4   8   7   32.29    2.97
  -4  -8   7   30.49    1.77
  -4   8  -7   29.03    2.80
   4   8   7   33.41    2.71
   6   8  -7  120.61    6.07
  -6   8   7  113.22    6.44
   6  -8   7  128.55    7.77
  -6   8  -7  112.26    6.96
   6   8   7  122.75    6.54
   6   8   7  125.84    5.61
  -8   8   7   19.47    3.42
   8  -8   7   18.55    3.87
   8   8  -7   17.92    2.80
   8   8   7   22.32    2.27
   8   8   7   15.32    3.05
 -10   8   7   56.73    5.44
  10  -8   7   53.58    7.20
  10   8   7   65.21    3.88
  12  -8   7   10.22    3.61
  12   8   7    9.15    1.77
  12   8   7    9.40    2.94
  14  -8   7   27.77    6.21
  14   8   7   29.35    5.29
  -1   9   7   -0.74    0.42
   1   9  -7   -0.14    0.51
   1  -9   7    1.90    0.88
  -1   9  -7    1.40    0.92
  -1  -9   7    0.55    0.62
   1   9   7    0.76    0.63
  -3   9   7    6.81    1.61
   3   9  -7    5.14    1.45
   3   9   7    2.48    1.57
  -3   9  -7    5.07    1.41
   3   9   7    4.17    1.19
  -5   9   7    0.56    0.81
   5  -9   7    0.40    0.95
   5   9  -7    1.18    0.83
   5   9   7    0.46    0.64
   5   9   7    1.47    1.04
  -5  -9   7    1.40    0.90
  -5   9  -7    0.49    0.82
   5  -9  -7    1.64    0.54
   7   9  -7    6.46    1.73
  -7   9   7    7.27    2.03
   7  -9   7    6.46    2.19
   7   9   7    8.20    2.20
   7   9   7    6.43    1.51
   9  -9   7   -0.47    1.50
  -9   9   7   -0.03    1.28
   9   9  -7    2.86    1.58
   9   9   7    2.47    1.60
   9   9   7    1.51    1.00
  11  -9   7   10.14    3.67
 -11   9   7    5.76    2.73
  11   9   7    9.36    3.15
  11   9   7    8.01    1.63
  13  -9   7    4.28    2.99
  13   9   7    1.61    2.14
   0 -10   7   61.06    4.03
   0  10   7   63.10    3.94
   0  10  -7   66.90    4.36
   2 -10   7   32.44    3.25
   2  10  -7   35.76    3.19
  -2  10   7   30.06    2.75
   2  10   7   35.61    2.83
  -2  10  -7   35.23    3.09
   2  10   7   35.02    2.81
   4 -10   7   53.71    4.65
   4  10  -7   47.49    3.74
  -4  10   7   52.40    3.89
  -4 -10   7   47.73    3.54
  -4  10  -7   45.00    3.58
   4  10   7   56.11    3.50
   4  10   7   53.74    3.87
   6  10  -7   24.33    2.78
   6 -10   7   18.38    3.73
  -6  10   7   25.07    2.87
   6  10   7   23.77    2.86
   6 -10  -7   17.11    1.21
   6  10   7   23.56    2.30
  -6  10  -7   24.35    2.61
  -8  10   7   35.21    4.03
   8 -10   7   39.92    4.91
   8  10  -7   26.38    3.10
   8  10   7   31.34    2.63
   8  10   7   23.29    3.18
  10 -10   7    7.01    2.79
 -10  10   7   11.30    3.11
  10  10   7   13.83    2.03
  10  10   7   17.80    3.68
  12 -10   7   17.75    4.70
  12  10   7   13.61    3.39
  14 -10   7    9.84    3.79
   1 -11   7    8.66    2.05
  -1  11   7    8.76    1.75
   1  11  -7    6.44    1.70
   1  11   7    8.46    1.67
  -1  11  -7    9.63    2.02
   3  11  -7   18.52    2.41
  -3  11   7   19.39    2.32
   3 -11   7   19.23    3.34
  -3  11  -7   20.07    2.38
   3  11   7   22.78    2.46
   3  11   7   20.13    2.12
  -5  11   7    2.67    1.24
   5 -11   7    1.28    1.06
   5  11  -7    0.74    0.93
  -5 -11   7    1.85    0.98
   5  11   7    1.79    1.28
  -5  11  -7    2.70    1.22
   5  11   7    1.67    0.89
   7  11  -7   19.95    3.15
   7 -11   7   21.50    4.24
  -7  11   7   17.56    3.19
   7  11   7   18.87    2.06
   7  11   7   14.78    2.84
  -7  11  -7   24.01    2.69
  -7 -11   7   11.24    1.29
   9 -11   7   -1.21    1.43
   9  11  -7    0.33    0.98
   9  11   7    0.67    0.73
   9  11   7    1.43    1.30
 -11  11   7   20.08    4.87
  11 -11   7    8.15    2.92
  11  11   7   14.52    2.12
  11  11   7   14.90    3.47
  13 -11   7   -2.79    1.61
  13  11   7    0.81    1.60
   0 -12   7    2.07    1.07
   0  12  -7    0.06    0.62
   0  12   7    0.15    0.56
  -2  12   7   25.30    2.68
   2  12  -7   28.10    2.90
   2 -12   7   25.18    3.09
   2  12   7   26.45    2.48
  -2  12  -7   28.67    2.87
   4  12  -7    0.48    0.86
   4 -12   7    1.64    1.25
  -4  12   7    1.33    0.90
   4  12   7   -0.34    0.63
   4  12   7    1.27    0.90
  -4  12  -7    1.52    0.97
   6  12  -7   19.14    3.04
   6 -12   7   17.18    3.79
  -6  12   7   15.21    2.89
   6  12   7   15.30    1.83
   6  12   7   15.90    2.76
  -6  12  -7   16.87    2.66
   6 -12  -7   15.16    1.82
   8 -12   7    3.13    2.17
  -8  12   7    0.41    1.35
   8  12  -7    0.56    1.13
   8  12   7   -0.37    0.67
   8  12   7    1.26    1.18
  10  12  -7    4.59    1.87
  10 -12   7   10.28    3.57
 -10  12   7   13.67    3.34
  10  12   7    5.53    2.29
  10  12   7    6.15    1.44
  12 -12   7    0.46    1.81
  12  12   7    0.15    1.44
  14 -12   7   -2.35    2.90
  14  12   7    5.32    2.85
   1  13  -7    0.52    0.82
   1 -13   7    2.49    1.28
  -1  13   7    0.96    0.89
  -1  13  -7    0.92    0.92
   1  13   7    2.01    1.07
  -3  13   7    8.11    1.88
   3 -13   7   10.52    2.81
   3  13  -7   10.41    2.25
  -3  13  -7   12.27    2.35
   3  13   7   10.81    1.86
   5 -13   7   -0.27    0.84
  -5  13   7    0.23    0.86
   5  13  -7    0.29    0.93
  -5 -13   7   -0.26    0.74
  -5  13  -7    0.91    0.85
   5  13   7    1.16    1.13
   5  13   7   -0.35    0.64
  -7  13   7   15.31    2.87
   7  13  -7   14.95    2.71
   7 -13   7   13.25    3.28
   7  13   7   12.53    2.00
   7 -13  -7   11.15    1.80
  -7  13  -7   14.43    2.59
   7  13   7   12.18    2.64
  -9  13   7   -1.73    0.94
   9  13  -7    2.59    1.42
   9  13   7    2.15    1.06
  11 -13   7   13.40    4.47
 -11  13   7   11.95    3.48
  11  13   7    7.83    2.28
  13 -13   7    2.54    2.45
  13  13   7    2.33    1.79
   0  14   7  161.65    6.99
   0  14  -7  157.24    7.53
   2  14  -7   17.98    3.04
  -2  14   7   20.17    2.47
   2 -14   7   22.96    3.87
  -2  14  -7   23.87    2.75
   2  14   7   20.35    2.21
   4  14  -7  134.09    6.99
   4 -14   7  135.99    8.26
  -4  14   7  132.80    6.81
   4  14   7  134.56    5.87
  -4  14  -7  129.26    6.58
   6 -14   7   15.34    3.63
   6  14  -7   14.56    2.76
  -6  14   7   13.98    2.64
   6  14   7   16.52    2.83
   6  14   7   13.14    2.01
  -6  14  -7   16.14    2.74
   6 -14  -7   16.91    2.32
   8  14  -7   67.81    5.10
  -8  14   7   68.21    5.76
   8 -14   7   72.39    6.98
   8  14   7   77.75    4.11
   8  14   7   84.49    5.81
  -8  14  -7   73.46    4.97
  10  14  -7    9.47    2.45
 -10  14   7   11.66    3.57
  10 -14   7    9.03    3.35
  10  14   7   11.77    2.85
  10  14   7    9.78    1.79
  12 -14   7   46.00    8.05
  12  14   7   41.18    4.88
  -1  15   7    1.98    0.99
   1  15  -7    1.49    1.12
   1 -15   7    2.15    1.41
   1  15   7    0.91    0.81
  -1  15  -7    5.48    1.67
   3  15  -7   -0.44    0.80
   3 -15   7   -0.90    0.73
  -3  15   7    0.88    0.93
  -3  15  -7    0.69    0.96
   3  15   7    0.38    0.63
  -5  15   7    4.00    1.43
   5  15  -7    3.69    1.47
   5 -15   7    3.06    1.77
   5  15   7    6.94    1.56
  -5  15  -7    4.72    1.55
  -5 -15   7    4.97    1.34
   7 -15   7    0.86    1.12
   7  15  -7    1.82    1.02
  -7  15  -7    3.58    1.58
   7  15   7    1.23    0.91
   7 -15  -7    1.05    1.19
   7  15   7    1.41    1.23
  -9  15   7    4.21    2.24
   9 -15   7    4.12    2.75
   9  15  -7    4.62    1.81
   9  15   7    4.74    1.90
   9  15   7    6.19    1.43
  11 -15   7    0.62    1.98
  11  15  -7    2.12    1.87
 -11  15   7    1.01    2.11
  11  15   7    0.50    1.50
  13 -15   7    3.94    2.75
   0  16   7    0.71    0.78
   0  16  -7    0.10    0.60
  -2  16   7   91.28    5.34
   2 -16   7   92.86    6.51
   2  16  -7   79.69    5.37
   2  16   7   87.50    4.86
  -2  16  -7   90.28    5.66
   4  16  -7    1.72    1.13
   4 -16   7    2.53    1.50
  -4  16   7    1.99    1.16
  -4  16  -7    2.27    1.24
   4  16   7    0.39    0.66
   6 -16   7   68.45    6.44
  -6  16   7   52.49    4.64
   6  16  -7   62.84    4.78
  -6  16  -7   60.82    4.39
   6  16   7   63.22    3.80
  -8  16   7    1.47    1.47
   8  16  -7   -1.04    0.85
   8 -16  -7   -2.14    1.43
  -8  16  -7    2.89    1.37
   8  16   7    1.36    0.85
 -10  16   7   29.67    5.62
  10 -16   7   29.36    5.74
  10  16  -7   38.20    3.78
  12 -16   7    0.89    2.15
   1  17  -7    8.09    2.20
  -1  17   7    7.57    1.78
  -1  17  -7   12.09    2.44
   1  17   7    8.01    1.74
   3 -17   7    2.68    1.72
  -3  17   7    1.86    1.13
   3  17  -7    0.70    0.86
  -3  17  -7    1.71    1.22
   3  17   7    1.61    1.02
   5  17  -7   16.54    2.94
  -5  17   7   12.87    2.58
   5 -17   7   15.10    3.62
  -5  17  -7   16.05    2.82
  -5 -17   7   14.99    1.86
   5  17   7   13.60    2.10
   7 -17   7    1.52    1.44
   7  17  -7    1.56    1.14
  -7  17   7    0.06    0.92
   7  17   7    0.51    0.68
  -7  17  -7   -0.91    0.88
   7 -17  -7    1.73    1.68
  -9  17   7    7.75    2.71
   9 -17   7   20.26    4.85
   9  17  -7   12.55    2.81
  -9  17  -7   14.07    2.78
   9  17   7   17.17    2.07
 -11  17   7    0.99    2.02
  11 -17   7   -0.07    2.13
  11  17  -7    3.44    1.96
   0  18   7    3.36    1.34
   0  18  -7   -0.47    0.79
   2  18  -7   51.77    4.37
  -2  18   7   37.50    3.56
   2 -18   7   43.22    4.70
  -2  18  -7   38.88    3.82
   2  18   7   47.58    3.48
   4 -18   7   -0.54    1.10
  -4  18   7   -0.38    0.78
   4  18  -7    0.97    1.18
  -4  18  -7    0.86    1.12
   4  18   7    1.21    0.89
   6  18  -7   30.37    3.53
   6 -18   7   27.33    5.24
  -6  18   7   26.64    4.11
  -6  18  -7   28.74    3.15
   6  18   7   27.37    2.53
   8 -18   7    0.42    1.46
   8  18  -7   -1.39    1.09
  -8  18   7    3.43    1.86
   8  18   7    0.11    0.85
  -8  18  -7    0.27    1.18
   8 -18  -7    0.67    1.81
 -10  18   7   20.74    4.43
  10  18  -7   19.20    3.40
  10 -18   7   24.03    5.87
  10  18   7   16.13    3.41
  12 -18   7    0.08    2.08
   1  19  -7    1.56    1.31
  -1  19   7    3.06    1.50
  -1  19  -7    1.56    1.16
   1  19   7    0.67    0.91
  -3  19   7    1.05    0.92
   3 -19   7   -0.85    0.81
   3  19  -7    0.65    1.13
   3  19   7    0.30    0.64
  -3  19  -7   -0.20    0.87
   5  19  -7   10.59    2.64
  -5  19   7    4.52    1.79
   5 -19   7    4.90    2.54
   5  19   7    4.19    1.36
  -5 -19   7    4.15    1.19
  -5  19  -7    5.89    1.95
  -7  19   7    1.13    1.40
   7  19  -7    1.79    1.42
   7 -19   7    3.26    2.29
   7 -19  -7    0.36    1.74
   7  19   7   -0.58    0.66
  -7  19  -7   -0.04    0.87
   9  19  -7    6.38    1.98
   9 -19   7    3.02    1.90
  -9  19   7    5.01    2.02
   9  19   7    1.15    1.37
  -9  19  -7    4.37    1.95
  11 -19   7   -4.05    2.17
  11  19  -7    0.18    2.02
 -11  19   7    2.60    2.28
   0  20  -7   70.60    5.39
   0  20   7   67.67    4.68
  -2  20   7   36.87    3.57
   2  20  -7   35.61    3.80
  -2  20  -7   30.29    3.55
   2  20   7   31.84    3.04
   4  20  -7   60.30    5.04
  -4  20   7   59.96    4.88
   4 -20   7   64.08    6.32
  -4  20  -7   55.86    4.65
   4  20   7   54.04    3.81
  -6  20   7   23.56    4.67
   6  20  -7   24.03    3.94
   6  20   7   24.71    2.45
  -6  20  -7   22.15    3.50
  -8  20   7   36.62    4.54
   8  20  -7   38.87    4.13
   8 -20   7   36.53    6.74
   8 -20  -7   28.39    4.33
  -8  20  -7   32.63    3.62
   8  20   7   37.88    2.92
 -10  20   7    7.20    3.19
  10 -20   7   11.68    3.72
  10  20  -7   17.96    3.36
  10  20   7    8.61    2.80
  12 -20   7   19.11    6.74
   1  21  -7    2.21    1.37
  -1  21   7    2.84    1.32
  -1  21  -7    2.94    1.54
   1  21   7    0.52    0.86
   3  21  -7    3.74    1.83
  -3  21   7    4.48    1.54
   3 -21   7    1.81    1.62
  -3  21  -7    4.14    1.74
   3  21   7    5.49    1.57
   5 -21   7    0.34    1.42
   5  21  -7    1.26    1.24
  -5  21  -7   -0.83    0.95
   5  21   7   -0.42    0.68
   7 -21   7    6.33    2.73
  -7  21   7    5.67    2.33
   7  21  -7    4.98    2.01
   7  21   7    4.43    1.41
  -7  21  -7    5.49    2.00
   7 -21  -7    7.22    2.30
  -9  21   7    4.67    1.75
   9  21  -7   -1.11    1.14
   9 -21   7    3.20    2.37
   9  21   7   -0.37    1.47
  -9  21  -7    0.71    1.84
  11 -21   7    7.14    4.04
  11  21  -7    4.31    2.36
   0  22   7   16.69    2.76
   0  22  -7   19.17    3.38
   2  22  -7    2.07    1.57
  -2  22   7    4.09    1.69
  -2  22  -7    1.23    1.30
   2  22   7    4.11    1.38
   4  22  -7   17.63    3.71
   4 -22   7   11.45    3.54
   4  22   7   14.96    2.38
  -4  22  -7   15.06    3.10
   6 -22   7    6.44    2.95
  -6  22   7    2.57    1.65
   6  22  -7    2.64    1.46
  -6  22  -7    2.41    1.49
   6  22   7    2.67    1.15
  -8  22   7    8.02    2.41
   8 -22   7    2.66    2.32
   8  22  -7   10.23    2.65
  -8  22  -7   11.46    3.30
   8 -22  -7    9.71    2.99
   8  22   7   11.55    2.08
 -10  22   7   -4.27    1.65
  10 -22   7   -0.18    2.12
  10  22  -7    2.36    1.85
 -10  22   7    1.84    2.37
  10  22   7   -3.18    2.00
   1  23  -7    1.17    1.42
  -1  23   7    3.11    1.43
   1  23   7    3.20    1.46
  -1  23  -7    2.51    1.73
   3  23  -7    8.37    3.16
  -3  23   7    4.71    2.34
   3 -23   7    7.69    2.66
   3  23   7    7.81    1.84
  -3  23  -7    6.85    2.33
  -5  23   7   -0.06    1.09
   5  23  -7    0.53    1.22
   5 -23   7    2.33    1.42
   5  23   7    2.04    0.92
   7  23  -7    7.73    2.42
   7 -23   7   13.55    3.72
  -7  23   7   13.63    3.16
   7  23   7    6.79    1.70
   7 -23  -7    3.46    2.45
  -7  23  -7    9.26    2.20
  -9  23   7   -0.95    1.46
   9  23  -7   -1.86    1.19
   9 -23   7    0.56    1.62
  -9  23  -7    1.45    1.74
   9  23   7   -0.32    1.80
  11 -23   7    3.62    5.28
  11  23  -7   12.13    3.07
   0  24   7   35.05    3.53
   0  24  -7   30.95    4.85
  -2  24   7    1.60    1.32
   2  24  -7    2.11    1.39
   2  24   7    2.42    1.12
  -2  24  -7    1.94    1.65
  -4  24   7   38.41    4.06
   4  24  -7   32.17    4.04
   4 -24   7   29.43    5.59
   4  24   7   27.74    2.91
  -4  24  -7   29.64    3.87
   6 -24   7    5.91    2.76
  -6  24   7   -1.77    0.86
   6  24  -7    1.89    1.60
   6  24   7    0.55    0.95
  -6  24  -7   -0.33    1.24
   8  24  -7   17.58    3.35
  -8  24   7   21.72    4.24
   8 -24   7   13.32    3.69
   8  24   7   16.98    3.72
  -8  24  -7   19.64    3.16
 -10  24   7    2.08    2.42
  10 -24   7    3.81    3.09
  10  24  -7   -0.71    1.60
  10  24   7   -1.69    2.33
   1  25  -7   -0.08    1.11
  -1  25   7    0.77    1.01
  -1  25  -7   -2.15    0.84
   3  25  -7    0.62    1.42
  -3  25   7    0.03    1.20
   3 -25   7   -1.63    0.95
  -3  25  -7    2.15    1.45
   3  25   7    2.38    1.48
  -5  25   7    0.07    1.28
   5  25  -7    0.27    1.28
   5 -25   7    1.53    1.55
  -5  25  -7    3.50    1.51
   5  25   7   -1.30    0.75
  -7  25   7    0.97    1.33
   7  25  -7    0.95    1.35
   7 -25   7    2.36    1.96
   7 -25  -7    3.81    2.58
  -7  25  -7    4.82    2.01
   7  25   7    0.51    2.13
  -9  25   7   -0.05    1.49
  -9  25   7   -0.51    1.62
   9  25  -7    1.10    1.73
   9 -25   7   -0.75    1.88
   9  25   7    0.83    2.02
  -9  25  -7    3.68    2.36
   0  26   7    5.65    1.92
   0  26  -7    2.83    1.89
   2  26  -7   70.74    6.12
  -2  26   7   75.33    5.56
  -2  26  -7   61.84    5.61
   2  26   7   65.68    4.65
   4 -26   7    3.63    2.43
   4  26  -7   10.30    3.01
  -4  26   7    6.52    2.34
   4  26   7    3.46    1.54
  -4  26  -7    6.11    2.35
   6  26  -7   49.37    5.01
  -6  26   7   47.43    5.04
   6 -26   7   56.86    6.80
   6  26   7   50.16    3.87
  -6  26  -7   47.83    4.52
  -8  26   7    1.99    2.00
  -8  26   7    2.43    2.01
   8  26  -7    2.35    1.78
   8 -26   7    6.42    3.41
   8 -26  -7    2.16    3.59
  -8  26  -7    7.34    2.46
   8  26   7    3.55    2.02
   1  27  -7    2.52    2.00
  -1  27   7    0.14    1.02
   1  27   7    2.10    1.40
  -1  27  -7    2.46    2.04
  -3  27   7    0.41    1.11
   3 -27   7   -0.05    1.26
   3  27  -7   -0.45    1.25
   3  27   7    1.51    1.18
  -3  27  -7    0.12    1.16
  -5  27   7    2.90    1.73
   5 -27   7    3.09    2.21
   5  27  -7    2.78    1.78
  -5  27  -7    3.91    1.70
   5  27   7    5.43    1.80
   7 -27   7   -0.50    1.55
  -7  27   7    2.30    1.56
   7  27  -7    2.92    1.74
   7  27   7   -2.89    1.26
   7 -27  -7    1.25    2.82
  -7  27  -7    1.03    1.57
   9 -27   7    7.23    4.19
  -9  27   7    4.60    2.48
   9  27   7    1.64    2.74
   0  28   7    7.09    2.25
   0  28  -7   14.27    3.38
  -2  28   7    0.34    1.34
   2  28  -7   -0.12    1.12
   2  28   7    1.27    1.33
  -2  28  -7    0.74    1.49
   4  28  -7   11.78    3.26
   4 -28   7    8.08    3.00
  -4  28   7   15.22    3.38
  -4  28  -7   16.20    3.84
   4  28   7   10.08    2.30
  -6  28   7    0.59    1.53
   6 -28   7    1.30    2.05
   6  28  -7    2.69    1.88
   6  28   7    0.69    1.45
   6  28   7   -0.90    1.42
  -6  28  -7    1.34    1.75
   8 -28   7    4.54    3.21
  -8  28   7    6.55    2.42
  -8  28   7    5.18    2.61
   8  28  -7   12.62    3.10
   8  28   7    7.28    3.11
  -8  28  -7    8.26    2.78
  -1  29   7   -0.21    1.41
   1  29  -7    3.62    2.15
   1  29   7   -0.94    1.21
  -1  29  -7    0.41    1.60
  -3  29   7    0.98    1.43
   3 -29   7    1.61    2.26
   3  29  -7    1.65    1.81
  -3  29  -7    0.73    1.61
   3  29   7    1.91    1.48
   5 -29   7    8.30    3.67
  -5  29   7    3.75    2.07
   5  29  -7    0.34    1.88
  -5  29  -7    2.66    2.07
   5  29   7    6.85    1.73
   5  29   7    6.37    2.26
  -7  29   7   -2.02    1.37
   7  29  -7   -0.60    1.43
   7 -29   7   -0.15    1.57
  -7  29   7   -2.11    1.30
  -7  29  -7   -3.19    1.52
   7  29   7    4.04    2.16
   7 -29  -7    3.67    3.30
   0  30   7   21.10    3.37
   0  30  -7   24.72    4.48
   2 -30   7    2.92    2.36
  -2  30   7    2.93    1.94
   2  30  -7    7.26    2.77
  -2  30  -7    5.04    2.44
   2  30   7    1.55    1.53
  -4  30   7   13.76    3.17
   4 -30   7   15.93    4.76
   4  30  -7   17.47    4.14
   4  30   7   18.06    3.99
  -4  30  -7   12.52    3.32
   4  30   7   16.52    2.77
   6  30  -7    0.45    1.62
   6 -30   7    0.08    1.75
  -6  30   7    3.50    1.95
  -6  30   7    1.67    1.72
   6  30   7    1.99    1.75
  -6  30  -7    2.59    2.05
  -1  31   7    1.50    1.41
  -1  31  -7   -0.47    1.39
   1  31   7   -2.28    1.02
   3 -31   7   -0.73    1.56
  -3  31   7   -0.43    1.22
   3  31  -7    0.34    1.86
   3  31   7    1.90    1.48
   3  31   7    0.33    1.35
  -3  31  -7    0.06    1.54
   5 -31   7   -1.58    2.07
  -5  31   7    1.93    1.78
  -5  31   7   -2.61    1.29
   5  31   7    1.37    1.73
   5  31   7    1.72    1.94
  -5  31  -7    1.69    1.92
   0  32   7   13.28    2.78
   0  32  -7   14.22    3.43
   0  32   7   15.22    3.43
   2 -32   7    8.41    3.09
  -2  32   7   12.21    2.82
  -2  32   7   12.27    3.10
   2  32  -7    6.41    2.89
  -2  32  -7   10.54    3.15
   2  32   7   15.16    2.90
   2  32   7    9.34    3.04
  -4  32   7   15.22    4.11
   4 -32   7   17.33    5.55
  -4  32  -7   10.16    3.29
   4  32   7    9.44    2.51
   1  33  -7    0.81    2.56
  -1  33   7    0.62    1.79
  -1  33   7   -0.98    1.30
   1  33   7   -1.27    1.28
  -1  33  -7    3.38    2.58
   1  33   7    1.59    1.68
   0   0   8   20.11    2.32
   0   0   8   20.94    1.74
   2   0   8  355.77   11.04
  -2   0   8  352.09   11.53
  -4   0   8   16.09    2.50
   4   0   8   22.29    3.41
  -6   0   8  244.78   10.26
   6   0   8  236.51   10.29
  -8   0   8    3.00    1.67
   8   0   8    7.93    2.57
 -10   0   8   70.01    4.47
  10   0   8   39.07    8.02
  12   0   8    1.40    1.96
  14   0   8   41.83    6.72
  14   0   8   33.24    3.97
   1  -1   8   24.99    2.12
  -1   1   8   19.78    2.24
  -1   1   8   22.99    1.52
  -1  -1   8   24.79    2.52
  -1  -1   8   23.16    1.54
   1   1   8   23.00    2.49
   1   1   8   23.38    2.04
   3  -1   8   18.02    2.18
  -3   1   8   13.12    2.24
   3   1   8   14.04    1.91
  -3  -1   8   18.44    2.74
   5  -1   8   21.82    2.77
  -5   1   8   19.49    2.52
   5   1   8   15.01    2.65
  -5  -1   8   23.46    2.66
  -7   1   8    6.39    1.95
   7  -1   8    7.23    2.27
   7   1   8    7.82    2.21
  -7  -1   8    7.42    2.25
  -9   1   8    9.47    2.32
   9  -1   8    9.40    2.53
  -9  -1   8    5.96    1.78
   9   1   8   13.10    3.28
  11  -1   8    1.60    1.71
  11   1   8    2.22    1.58
  13  -1   8    1.68    1.63
  13  -1   8    1.53    2.31
  13   1   8    2.73    2.79
  13   1   8    5.27    1.87
   0   2   8    4.49    1.01
   0  -2   8    3.30    0.96
   0   2   8    1.57    0.96
  -2   2   8   26.85    2.55
   2  -2   8   27.90    2.56
   2   2   8   24.51    2.27
   2   2   8   24.66    2.59
  -2  -2   8   22.78    2.70
   4  -2   8    3.08    1.27
  -4   2   8    3.40    1.29
   4   2   8    1.58    1.05
   6  -2   8   11.18    2.51
  -6   2   8   10.26    2.37
  -6  -2   8   18.03    3.32
   6   2   8   13.06    2.60
  -8   2   8    3.47    1.79
   8  -2   8    3.44    1.65
   8   2   8    3.68    1.78
  -8  -2   8    2.25    1.26
 -10   2   8    1.08    1.57
 -10  -2   8    2.72    1.36
  10   2   8    3.62    1.43
  12  -2   8    0.94    1.65
  12   2   8    2.78    1.88
  14  -2   8    3.03    2.19
  14  -2   8   -0.70    1.56
  14   2   8    2.08    2.13
  -1   3   8   62.43    4.05
   1  -3   8   67.13    3.76
   1   3  -8   69.82    4.38
   1   3   8   64.00    3.49
   1   3   8   68.78    4.29
  -1  -3   8   66.82    4.26
  -3   3   8   60.73    4.06
   3  -3   8   64.35    4.31
   3   3   8   72.61    4.27
   3   3   8   74.04    4.50
  -3  -3   8   54.40    6.34
  -5   3   8   43.77    3.68
   5  -3   8   39.64    3.81
  -5  -3   8   42.54    4.02
   5   3   8   42.60    3.51
   5   3   8   41.60    3.63
  -7   3   8   38.69    3.97
   7  -3   8   38.88    4.23
   7   3   8   44.47    3.61
  -7  -3   8   31.59    3.57
   7   3   8   37.93    3.91
   9  -3   8   21.07    3.94
  -9   3   8   21.13    3.65
   9   3   8   19.94    3.68
  -9  -3   8   15.57    2.42
   9   3   8   19.02    2.92
  11  -3   8   24.20    4.87
 -11   3   8   12.47    2.44
  11   3   8   23.34    2.84
  11   3   8   18.95    3.84
  13  -3   8   10.35    3.43
  13   3   8    7.88    3.01
  13   3   8    9.65    2.23
   0   4   8  168.70    5.77
   0   4   8  167.52    7.10
   0   4  -8  159.54    7.07
   0  -4   8  165.56    6.06
  -2   4   8   17.21    2.10
   2   4  -8   18.86    2.91
   2  -4   8   15.33    2.56
   2   4   8   18.02    2.18
  -2  -4   8   15.17    1.02
   2   4   8   16.84    1.91
   4  -4   8  128.95    6.83
   4   4  -8  129.96    6.32
  -4   4   8  132.03    6.45
   4   4   8  128.21    6.21
   4   4   8  132.19    6.40
  -4  -4   8  129.94    6.49
   6  -4   8    7.09    2.13
  -6   4   8    9.96    2.19
  -6  -4   8    8.47    2.17
   6   4   8    8.14    2.33
   6   4   8    6.83    1.71
  -8   4   8   63.02    5.38
   8  -4   8   69.92    6.00
   8   4   8   73.04    5.68
   8   4   8   73.40    4.75
 -10   4   8    1.58    1.58
  10  -4   8    3.99    2.86
  10   4   8    1.47    1.15
  10   4   8    4.63    2.64
  12  -4   8   36.10    6.62
  12   4   8   24.80    3.12
  12   4   8   28.24    5.19
  14  -4   8    0.57    2.01
  14   4   8    2.18    1.89
   1   5  -8    7.82    1.79
  -1   5   8    6.20    1.60
   1  -5   8    9.15    1.89
  -1   5  -8    9.01    1.84
   1   5   8    8.85    1.64
   1   5   8    5.30    1.46
  -1  -5   8    7.91    1.10
  -3   5   8    6.36    1.57
   3  -5   8    7.72    1.91
   3   5  -8    5.43    1.54
  -3  -5   8    3.59    1.55
  -3   5  -8    8.31    1.88
   3   5   8    4.88    1.39
   3   5   8    7.25    1.71
   5  -5   8    8.34    2.48
   5   5  -8    6.58    1.76
  -5   5   8    8.22    2.00
   5   5   8    4.15    1.31
   5   5   8    4.50    1.50
  -5  -5   8    7.15    1.80
  -7   5   8    4.04    1.90
   7  -5   8    3.00    1.71
   7   5   8    4.44    1.40
  -7  -5   8    1.93    1.21
   7   5   8    5.81    2.02
   9  -5   8    1.14    1.38
  -9   5   8    2.34    1.70
  -9  -5   8    2.78    1.08
   9   5   8    0.53    1.03
   9   5   8    3.97    1.97
 -11   5   8    3.09    1.78
  11  -5   8    2.93    2.10
  11   5   8    1.79    1.42
  11   5   8    4.25    1.56
  13  -5   8   -1.64    1.44
  13   5   8    2.36    2.13
  13   5   8    0.84    1.63
   0  -6   8  197.43    7.11
   0   6  -8  201.17    8.17
   0   6   8  187.18    7.70
   2   6  -8    2.10    1.11
  -2   6   8    1.22    0.94
   2  -6   8    0.30    0.74
  -2  -6   8    0.85    0.75
   2   6   8    1.67    0.89
  -2  -6   8    1.43    0.65
  -2   6  -8    2.30    1.19
   2   6   8    1.87    0.94
   4   6  -8  151.32    7.08
   4  -6   8  151.68    7.76
  -4   6   8  157.64    7.19
   4   6   8  154.22    7.05
  -4  -6   8  158.88    7.28
   4   6   8  162.35    6.96
   6  -6   8    2.41    1.26
  -6   6   8    1.31    0.95
   6   6  -8    0.29    0.93
  -6  -6   8   -1.19    0.79
   6   6   8    0.41    0.67
   6   6   8    1.45    1.13
  -8   6   8   69.75    5.86
   8  -6   8   88.00    6.83
   8   6   8   77.75    4.77
   8   6   8   80.25    5.91
 -10   6   8   -1.37    1.18
  10  -6   8    1.47    1.73
  10   6   8    0.20    1.28
  10   6   8    2.54    1.19
  12  -6   8   45.08    5.92
  12   6   8   34.62    3.29
  12   6   8   39.87    5.03
  14  -6   8    2.38    2.34
  14   6   8    3.12    2.19
   1   7  -8   24.03    2.68
   1  -7   8   24.16    2.51
  -1   7   8   27.09    2.62
  -1  -7   8   30.14    2.27
   1   7   8   27.28    2.32
   1   7   8   27.26    2.67
  -1   7  -8   20.76    2.46
   3   7  -8   24.39    2.67
   3  -7   8   26.22    3.04
  -3   7   8   28.73    2.80
   3   7   8   27.42    2.70
  -3   7  -8   23.97    2.58
   3   7   8   22.84    2.55
  -3  -7   8   23.45    3.70
  -3  -7   8   22.92    1.36
   5   7  -8   15.02    2.52
   5  -7   8   19.31    3.66
  -5   7   8   14.14    2.59
  -5  -7   8   17.91    2.80
   5   7   8   16.11    2.75
   5   7   8   17.11    2.17
   7   7  -8   17.97    2.97
  -7   7   8   19.03    3.42
   7  -7   8   16.48    3.64
   7   7   8   18.84    2.31
   7   7   8   15.99    3.17
  -9   7   8   10.84    2.95
   9  -7   8   14.13    3.50
   9   7   8    7.22    2.35
   9   7   8    5.95    1.59
 -11   7   8    6.77    2.49
  11  -7   8    6.27    2.83
  11   7   8   11.51    3.04
  11   7   8    5.33    1.63
  13  -7   8   -0.36    1.85
  13   7   8    1.70    1.92
   0  -8   8   24.92    2.38
   0   8  -8   16.37    2.60
   0   8   8   22.12    2.46
  -2   8   8    1.00    0.85
   2   8  -8    1.13    0.95
   2  -8   8    0.39    0.80
  -2   8  -8    0.53    0.78
  -2  -8   8    0.16    0.54
   2   8   8    0.55    0.60
   2   8   8    0.59    0.68
   4  -8   8   12.85    2.69
  -4   8   8   16.11    2.62
   4   8  -8   16.35    2.74
  -4   8  -8   19.28    2.90
  -4  -8   8   17.54    2.84
   4   8   8   13.45    2.23
   4   8   8   17.42    2.31
   6   8  -8    1.70    1.05
   6  -8   8   -0.64    0.81
  -6   8   8    1.50    1.27
   6   8   8    0.40    0.75
  -6  -8   8    0.02    0.85
   6   8   8    0.60    1.09
  -8   8   8    7.74    2.19
   8  -8   8    2.59    1.77
   8   8   8    7.98    1.84
  -8  -8   8    3.12    0.95
   8   8   8    4.87    1.89
  10  -8   8   -0.11    1.19
 -10   8   8   -0.05    1.56
  10   8   8    0.13    1.17
  10   8   8    2.13    1.08
 -12   8   8    3.84    2.22
  12  -8   8    2.66    2.43
  12   8   8    1.34    1.64
  12   8   8    2.05    1.46
  14  -8   8    1.22    2.86
  14   8   8    1.27    2.39
   1  -9   8   39.86    3.40
  -1   9   8   46.89    3.57
   1   9  -8   52.16    4.03
  -1   9  -8   48.92    3.89
   1   9   8   44.19    3.41
  -1  -9   8   47.34    3.20
   3  -9   8   41.18    3.79
   3   9  -8   33.01    3.31
  -3   9   8   44.94    3.57
  -3  -9   8   41.85    2.39
   3   9   8   41.65    3.28
   3   9   8   41.51    3.31
  -3   9  -8   34.52    3.25
  -3  -9   8   32.99    3.42
  -5   9   8   35.80    3.46
   5   9  -8   44.25    3.74
   5  -9   8   42.07    4.38
  -5  -9   8   29.42    3.08
   5   9   8   44.69    3.79
   5   9   8   37.64    3.09
  -5   9  -8   42.76    3.58
  -7   9   8   22.11    3.66
   7   9  -8   18.78    3.07
   7  -9   8   20.62    4.23
   7   9   8   19.39    3.49
   7   9   8   25.42    2.56
   9  -9   8   23.89    4.85
  -9   9   8   25.93    4.73
   9   9   8   21.20    3.91
   9   9   8   24.82    2.61
  11  -9   8    6.15    2.74
  11   9   8   12.88    3.46
  11   9   8   12.55    2.04
  13  -9   8    8.96    3.80
  13   9   8   12.20    3.29
   0 -10   8   37.49    3.14
   0  10  -8   36.23    3.36
   0  10   8   39.12    3.26
  -2  10   8  203.51    8.34
   2 -10   8  197.62    8.85
   2  10  -8  203.15    8.72
  -2  10  -8  204.11    8.66
  -2 -10   8  217.06    7.43
   2  10   8  196.80    7.96
   4  10  -8   26.52    3.06
  -4  10   8   28.77    3.02
   4 -10   8   33.31    3.71
   4  10   8   22.89    2.70
   4  10   8   27.55    2.62
  -4 -10   8   28.94    3.01
  -4  10  -8   32.65    3.18
   6  10  -8  130.35    6.86
   6 -10   8  130.63    8.28
  -6  10   8  134.46    7.42
  -6  10  -8  143.32    6.98
   6  10   8  136.65    7.18
   6  10   8  135.76    6.23
  -8  10   8   16.38    3.39
   8 -10   8    9.23    3.03
   8  10  -8   15.87    2.96
   8  10   8   12.78    2.73
   8  10   8   14.92    2.33
  10 -10   8   64.85    6.70
 -10  10   8   56.66    5.96
  10  10   8   61.39    3.89
  10  10   8   58.33    5.52
  12 -10   8    1.56    2.18
 -12  10   8   10.40    2.78
  12  10   8    5.29    2.23
   1 -11   8    1.73    1.07
  -1  11   8    1.61    0.86
   1  11  -8    2.99    1.46
  -1 -11   8    3.11    1.12
  -1  11  -8    3.17    1.37
   1  11   8    1.66    0.95
   3  11  -8    2.20    1.18
   3 -11   8    2.05    1.22
  -3  11   8    2.62    1.18
  -3 -11   8    3.76    1.07
   3  11   8    3.17    1.13
  -3  11  -8    2.68    1.28
   3  11   8    5.00    1.68
   5  11  -8    0.37    0.96
   5 -11   8    0.37    1.26
  -5  11   8    0.08    0.80
   5  11   8    0.92    0.91
  -5  11  -8    0.03    0.78
  -5 -11   8    1.34    1.00
   5  11   8    0.57    0.74
  -7  11   8    2.60    1.48
   7 -11   8    3.51    1.83
   7  11  -8    4.16    1.38
   7  11   8    1.97    0.97
  -7 -11   8    1.06    0.77
   7  11   8    1.15    1.19
   9 -11   8    2.39    2.22
   9  11  -8   -0.92    0.99
  -9  11   8    0.95    1.42
   9  11   8    2.35    1.01
   9  11   8    1.03    1.17
  11 -11   8    1.08    1.96
 -11  11   8   -1.33    1.64
  11  11   8    2.09    1.75
  11  11   8    2.54    1.21
  13 -11   8    1.35    2.53
  13  11   8    0.87    1.79
   0  12   8   29.69    2.89
   0 -12   8   29.85    2.97
   0  12  -8   30.90    3.21
   2 -12   8   49.73    4.38
  -2  12   8   55.98    4.09
   2  12  -8   55.00    4.37
   2  12   8   44.48    3.44
  -2  12  -8   62.08    4.43
  -2 -12   8   60.71    3.77
   4  12  -8   21.12    3.36
   4 -12   8   18.34    3.38
  -4  12   8   27.51    2.95
  -4 -12   8   24.37    4.35
   4  12   8   25.04    2.84
  -4  12  -8   22.24    2.70
   4  12   8   23.89    2.43
  -6  12   8   28.78    3.43
   6  12  -8   32.40    3.46
   6 -12   8   33.92    4.31
  -6  12  -8   34.86    3.40
   6  12   8   35.36    2.87
   6  12   8   32.87    3.48
   8  12  -8   14.64    2.85
  -8  12   8   17.91    3.62
   8 -12   8   21.39    4.59
   8  12   8   19.13    2.24
   8  12   8   16.71    3.25
 -10  12   8   13.13    3.77
  10 -12   8   11.44    3.53
  10  12   8   11.61    2.97
  10  12   8   11.21    2.10
  12 -12   8   16.18    4.72
  12  12   8   12.31    3.35
   1  13  -8   22.86    2.88
   1 -13   8   27.92    3.16
  -1  13   8   24.89    2.66
  -1  13  -8   26.30    3.04
   1  13   8   22.83    2.52
  -1 -13   8   25.58    2.70
   3 -13   8   19.07    3.40
  -3  13   8   24.63    2.77
   3  13  -8   22.01    2.79
  -3  13  -8   24.96    2.81
   3  13   8   18.39    2.26
  -5  13   8   15.66    2.75
   5  13  -8   17.90    3.02
   5 -13   8   16.56    3.64
   5  13   8   23.78    2.91
  -5  13  -8   15.07    2.75
  -5 -13   8    9.48    2.04
   5  13   8   16.97    2.15
   7 -13   8   17.03    4.30
   7  13  -8   18.92    3.13
  -7  13   8   15.49    3.26
  -7  13  -8   15.33    2.72
   7  13   8   15.13    3.15
   7  13   8   17.48    2.16
   9  13  -8    7.88    2.42
   9 -13   8    3.69    2.29
  -9  13   8    7.18    4.46
   9  13   8    7.63    1.66
   9  13   8    8.03    2.29
  11 -13   8    6.24    3.09
 -11  13   8    8.20    3.12
  11  13   8    8.44    2.79
  13 -13   8   -1.28    1.78
  13  13   8    4.44    1.90
   0 -14   8   38.99    3.63
   0  14  -8   43.10    3.94
   0  14   8   38.76    3.34
   2 -14   8   67.72    5.35
  -2  14   8   63.58    4.48
   2  14  -8   61.82    4.69
   2  14   8   71.38    4.40
  -2  14  -8   58.44    4.56
   4  14  -8   29.92    3.35
  -4  14   8   29.75    3.21
   4 -14   8   27.73    3.77
  -4  14  -8   25.82    3.02
   4  14   8   29.29    2.69
   6 -14   8   38.74    4.66
   6  14  -8   38.14    3.81
  -6  14   8   45.57    4.34
   6  14   8   40.25    3.13
  -6  14  -8   32.47    3.44
   6  14   8   38.40    3.85
   8 -14   8   21.05    5.76
   8  14  -8   15.81    3.03
  -8  14   8    8.51    2.64
   8  14   8   17.61    2.09
   8  14   8   17.94    4.71
  10 -14   8   29.17    5.78
 -10  14   8   21.30    4.81
  10  14   8   23.40    4.39
  10  14   8   19.13    2.21
  12 -14   8    3.28    2.52
  12  14   8    3.08    1.88
  -1  15   8   30.65    3.06
   1  15  -8   33.49    3.49
   1 -15   8   33.04    3.63
  -1  15  -8   26.89    3.12
   1  15   8   29.04    2.87
  -1 -15   8   32.76    3.29
   3 -15   8   23.28    4.11
   3  15  -8   28.51    3.27
  -3  15   8   25.02    2.90
  -3  15  -8   25.62    3.02
   3  15   8   27.42    2.70
   5 -15   8   29.30    4.99
   5  15  -8   28.37    3.34
  -5  15   8   23.62    3.07
  -5 -15   8   18.89    2.37
  -5  15  -8   22.12    2.84
   5  15   8   24.80    2.46
  -7  15   8    8.72    2.59
   7  15  -8   15.92    3.04
   7 -15   8   19.51    4.15
  -7  15  -8   15.35    2.90
   7  15   8   16.09    2.38
   9 -15   8   18.03    4.82
  -9  15   8   13.53    3.96
   9  15  -8   18.93    3.45
   9  15   8   13.77    3.09
   9  15   8   16.99    2.03
 -11  15   8    4.39    2.63
  11 -15   8   11.78    3.76
  11  15   8    8.71    2.73
  13 -15   8   11.96    5.40
   0  16  -8   93.54    6.06
   0  16   8   97.54    5.54
   0 -16   8   91.25    6.04
   2  16  -8    1.06    0.98
   2 -16   8   -1.54    0.68
  -2  16   8   -0.30    0.76
  -2  16  -8   -1.66    0.64
   2  16   8    1.31    0.95
   4 -16   8   75.77    6.37
   4  16  -8   69.59    5.27
  -4  16   8   73.80    5.29
   4  16   8   69.13    4.29
  -4  16  -8   72.52    5.11
  -6  16   8    0.22    0.99
   6  16  -8    4.22    1.53
   6 -16   8    0.16    1.13
   6  16   8    0.51    0.84
  -6  16  -8    3.65    1.42
  -6 -16   8    0.53    0.78
   6 -16  -8   -1.16    1.32
   8 -16   8   45.35    5.86
   8  16  -8   34.95    3.83
  -8  16   8   37.50    4.48
   8  16   8   43.31    3.23
  -8  16  -8   36.30    3.93
 -10  16   8   -1.16    1.59
  10  16  -8   -2.89    1.18
  10 -16   8    0.13    1.96
  10  16   8   -1.38    1.39
  12 -16   8   13.65    4.35
  -1  17   8    0.55    0.86
   1 -17   8    0.31    0.95
   1  17  -8    0.12    0.90
   1  17   8    0.35    0.77
  -1  17  -8   -0.56    0.64
   3 -17   8    0.04    0.99
   3  17  -8    0.83    1.17
  -3  17   8    2.83    1.45
   3  17   8   -0.28    0.58
  -3  17  -8    0.02    0.89
  -5  17   8   -1.18    0.80
   5  17  -8   -0.15    0.80
   5 -17   8    0.40    1.10
  -5  17  -8    0.70    0.93
   5  17   8    2.02    0.97
   7 -17   8    0.04    1.21
  -7  17   8    2.03    1.66
   7  17  -8    0.03    0.81
   7  17   8    1.38    0.90
  -7  17  -8   -0.60    0.91
  -9  17   8   -0.58    1.50
   9 -17   8    0.72    2.10
   9  17  -8    1.19    1.34
   9  17   8    0.44    1.15
 -11  17   8    2.71    2.35
  11 -17   8   -0.88    2.24
   0  18   8   44.62    3.76
   0 -18   8   31.86    3.86
   0  18  -8   44.88    4.28
   2  18  -8    7.24    2.14
  -2  18   8    7.35    1.88
   2 -18   8    6.43    2.16
  -2  18  -8    6.94    2.22
   2  18   8    7.76    1.76
   4 -18   8   31.21    4.33
  -4  18   8   34.43    3.74
   4  18  -8   27.94    3.53
  -4  18  -8   41.22    3.96
   4  18   8   36.10    3.06
   6  18  -8    8.26    2.54
   6 -18   8    6.87    3.02
  -6  18  -8    6.11    1.92
   6  18   8    6.86    1.66
  -8  18   8   17.96    3.92
   8  18  -8   13.23    2.88
   8 -18   8   27.09    5.37
   8  18   8   16.33    2.13
  -8  18  -8   22.89    3.58
  10 -18   8    5.13    3.20
  10  18  -8    2.65    1.72
 -10  18   8    2.22    1.99
  12 -18   8    9.00    4.45
   1  19  -8   20.19    3.59
   1 -19   8   17.39    3.39
  -1  19   8   18.78    3.00
   1  19   8   20.02    2.52
  -1  19  -8   15.98    3.13
   3  19  -8   12.77    2.82
  -3  19   8   15.53    2.95
   3 -19   8    8.46    2.75
  -3  19  -8   13.95    2.83
   3  19   8   17.53    2.65
   5 -19   8   12.82    3.70
  -5  19   8   18.39    5.24
   5  19  -8   16.31    3.26
  -5 -19   8   11.59    1.89
  -5  19  -8   21.24    2.72
   5  19   8   20.20    2.36
  -7  19   8    8.95    2.56
   7 -19   8    9.65    3.14
   7  19  -8   11.04    2.57
  -7  19  -8   11.52    2.59
   7  19   8   10.18    1.98
   9 -19   8   13.33    3.75
   9  19  -8    7.62    2.32
  -9  19   8    6.79    2.57
   9  19   8    7.37    1.90
  11 -19   8    3.93    3.04
  11  19  -8    7.52    2.74
 -11  19   8    3.66    2.87
   0  20  -8   46.49    4.50
   0  20   8   43.25    3.85
   2 -20   8   45.33    5.02
   2  20  -8   56.71    4.97
  -2  20   8   51.19    4.38
   2  20   8   46.49    3.74
  -2  20  -8   43.24    4.28
  -4  20   8   33.14    6.80
   4 -20   8   36.91    4.93
   4  20  -8   40.07    4.44
  -4  20  -8   36.24    3.96
   4  20   8   40.43    3.42
   6  20  -8   26.28    3.41
  -6  20   8   31.68    3.86
   6 -20   8   28.30    5.23
   6  20   8   31.66    3.00
  -6  20  -8   24.01    3.71
   8  20  -8   18.07    3.57
  -8  20   8   20.31    3.97
   8 -20   8   18.54    4.23
   8  20   8   21.46    2.50
 -10  20   8   20.05    4.88
  10  20  -8   15.34    3.45
  10 -20   8   10.35    3.72
  10  20   8   15.15    3.52
  -1  21   8   15.91    2.77
   1 -21   8   18.09    3.59
   1  21  -8   15.88    3.36
  -1  21  -8    9.56    2.59
   1  21   8   16.20    2.76
   3 -21   8   17.70    3.86
  -3  21  -8   20.86    3.70
   3  21   8   12.48    2.48
   5  21  -8   11.37    2.73
  -5  21   8    7.17    2.35
   5 -21   8   13.31    4.09
  -5  21  -8    7.98    2.46
   5  21   8    7.99    1.98
  -5 -21   8    5.63    1.44
   7 -21   8   14.02    3.68
  -7  21   8   10.77    2.68
   7  21  -8   11.47    2.79
  -7  21  -8   16.98    3.01
   7  21   8   11.47    2.07
   9 -21   8    2.53    2.33
   9  21  -8    5.13    2.27
  -9  21   8    3.90    2.28
  -9  21  -8    3.43    2.02
  11  21  -8    5.23    2.62
   0  22   8    8.93    2.08
  -2  22   8   11.27    2.60
   2  22  -8   11.73    2.86
   2 -22   8   14.29    3.72
   2  22   8    9.70    2.14
  -2  22  -8   15.04    5.17
  -4  22   8   15.22    2.98
   4 -22   8   15.50    4.04
   4  22  -8    8.09    2.41
  -4  22  -8    9.72    3.00
   4  22   8    8.71    1.99
   6 -22   8   13.11    3.89
  -6  22   8   11.63    2.86
   6  22  -8    8.69    2.42
  -6  22  -8    9.43    2.35
   6  22   8    8.52    1.93
   8  22  -8    6.67    2.18
   8 -22   8    5.98    2.69
  -8  22   8    4.85    2.55
  -8  22  -8    4.95    2.05
   8  22   8    6.39    2.10
  10 -22   8    6.42    2.99
 -10  22   8    6.29    2.89
  10  22  -8    0.71    1.85
  10  22   8   -1.47    2.49
  -1  23   8   -0.10    1.05
   1  23  -8   -0.72    0.94
   1 -23   8   -0.85    1.25
  -1  23  -8   -0.84    0.98
   3 -23   8   -0.32    1.55
   3  23  -8   -0.29    1.19
  -3  23   8    0.11    1.18
  -3  23  -8   -0.71    1.29
   5  23  -8    1.06    1.32
   5 -23   8    0.43    1.77
  -5  23   8    0.37    1.16
  -5  23  -8    1.28    1.36
  -7  23   8    0.74    1.72
   7  23  -8   -1.40    1.04
   7 -23   8   -1.00    1.70
  -7  23  -8    1.33    1.40
   7  23   8    0.38    1.21
  -9  23   8    0.73    1.90
   9 -23   8    0.21    1.83
   9  23  -8   -0.97    1.63
  -9  23  -8    4.08    2.42
   9  23   8   -3.32    1.54
   0  24   8    4.26    1.48
   0  24  -8    7.80    2.50
   2  24  -8   56.99    5.41
  -2  24   8   62.91    5.10
   2 -24   8   79.49    7.17
   2  24   8   61.58    4.57
  -2  24  -8   63.06    5.66
   4  24  -8    1.91    1.76
  -4  24   8    0.72    1.23
   4 -24   8    0.69    1.47
  -4  24  -8    2.30    1.74
   4  24   8    2.34    1.38
  -6  24   8   44.57    4.79
   6  24  -8   46.24    4.71
   6 -24   8   54.25    6.41
   6  24   8   46.06    3.66
  -6  24  -8   41.51    4.28
   8 -24   8    2.73    2.17
   8  24  -8   -0.47    1.73
  -8  24   8   -1.77    1.48
  -8  24  -8    1.52    1.75
   1 -25   8   20.28    4.51
  -1  25   8   13.79    2.78
   1  25  -8   11.69    3.25
   1  25   8   13.92    2.91
  -1  25  -8   16.46    3.52
   3  25  -8   11.92    3.23
  -3  25   8   11.43    2.98
   3 -25   8   11.83    3.30
   3  25   8   12.40    2.24
  -3  25  -8   11.77    2.90
  -5  25   8   13.23    3.04
   5  25  -8   10.48    3.19
   5 -25   8   11.67    3.44
  -5  25  -8   14.23    3.08
   5  25   8   10.39    2.14
   7 -25   8   10.12    3.50
  -7  25   8    6.58    2.73
   7  25  -8   11.45    3.10
   7  25   8    4.47    1.77
  -7  25  -8   -0.03    1.62
   9  25  -8    7.25    2.60
   9 -25   8   12.40    4.77
  -9  25   8    1.12    2.03
  -9  25   8    5.14    3.05
   9  25   8    8.48    2.97
   0  26  -8   14.43    3.33
   0  26   8   10.75    2.29
   2 -26   8    4.92    2.27
  -2  26   8    4.26    2.00
   2  26  -8    7.52    2.42
   2  26   8    0.69    1.32
  -2  26  -8    4.68    2.11
   4 -26   8    1.57    1.89
   4  26  -8    7.21    2.57
  -4  26   8    4.20    1.96
  -4  26  -8    5.34    2.22
   4  26   8    4.37    1.63
   6  26  -8    1.25    1.45
   6 -26   8    4.25    2.66
  -6  26   8    5.96    2.48
   6  26   8    2.55    1.53
  -6  26  -8    3.57    1.70
   8 -26   8    3.48    2.25
   8  26  -8    3.46    2.02
  -8  26   8    4.55    2.19
  -8  26  -8    7.12    2.51
   8  26   8    2.48    2.13
  -1  27   8    6.47    2.00
   1 -27   8   12.89    3.75
   1  27  -8    6.26    2.54
  -1  27  -8   10.39    2.88
   1  27   8    7.28    2.14
   3 -27   8    3.34    1.99
   3  27  -8    5.79    2.21
  -3  27   8    9.04    2.54
  -3  27  -8    2.34    2.05
   3  27   8    7.49    1.91
   5 -27   8    3.29    2.45
  -5  27   8    3.43    1.91
   5  27  -8    2.91    2.12
  -5  27  -8    5.65    2.23
   5  27   8    6.77    1.92
   7  27  -8    5.95    2.63
  -7  27   8    3.63    1.98
   7 -27   8    6.20    2.52
  -7  27  -8    5.27    2.12
   7  27   8   10.48    3.09
   0  28  -8   22.19    4.31
   0  28   8   23.05    3.63
   2 -28   8    3.20    1.86
  -2  28   8    3.58    1.84
   2  28  -8   -0.80    1.67
  -2  28  -8    0.84    1.70
   2  28   8    2.73    1.38
  -4  28   8   13.00    3.04
   4 -28   8   12.05    3.68
   4  28  -8   16.06    3.83
  -4  28  -8   21.40    4.05
   4  28   8   12.09    2.56
  -6  28   8    3.22    1.85
   6 -28   8    3.70    2.74
   6  28  -8    3.92    1.89
  -6  28  -8   -0.96    1.60
   6  28   8    1.93    1.83
   1  29  -8    1.19    1.85
   1 -29   8   -0.35    1.91
  -1  29   8    1.41    1.48
  -1  29  -8    2.16    1.77
   1  29   8    1.77    1.58
   3  29  -8   -1.50    1.45
  -3  29   8   -0.51    1.42
   3 -29   8    2.38    2.30
   3  29   8   -0.37    1.30
  -3  29  -8    1.77    1.92
   5 -29   8    0.94    2.13
  -5  29   8    2.38    1.76
   5  29  -8    1.04    1.77
   5  29   8    1.70    1.75
  -5  29  -8   -0.37    1.56
   0  30  -8   41.62    5.05
   0 -30   8   50.88    6.38
   0  30   8   34.75    4.02
   2 -30   8    7.92    3.48
   2  30  -8    2.09    1.80
  -2  30   8    5.21    2.04
  -2  30  -8    5.82    2.27
   2  30   8    5.21    2.04
  -4  30   8   31.83    4.07
   4  30  -8   37.64    4.86
   4 -30   8   37.88    7.16
   4  30   8   28.81    3.40
  -4  30  -8   33.95    4.35
   1 -31   8    7.54    3.29
   1  31  -8    5.62    2.31
  -1  31   8    7.72    2.39
  -1  31  -8   10.73    3.14
   1  31   8    7.87    2.31
   3 -31   8   12.29    3.88
  -3  31   8   10.98    2.80
   3  31  -8    8.72    3.11
  -3  31  -8   11.83    3.22
   3  31   8    8.94    2.45
   0 -32   8   -0.09    2.38
   0  32   8    2.43    1.76
   2  32  -8    0.04    2.03
   2 -32   8    7.27    4.10
  -2  32  -8    2.44    2.52
   2  32   8    1.88    2.33
   0   0   9   -0.06    0.52
   0   0   9    0.52    0.49
   2   0   9    1.15    0.85
  -2   0   9    0.92    0.90
   4   0   9    0.78    0.83
  -4   0   9   -0.10    0.72
  -6   0   9   -0.66    0.91
   6   0   9    0.38    1.02
   8   0   9    0.38    1.26
  -8   0   9   -1.60    1.14
 -10   0   9    2.31    1.29
  10   0   9   -2.08    1.30
  12   0   9   -0.04    1.13
  12   0   9   -0.50    1.17
  14   0   9    0.94    1.99
   1  -1   9   72.03    3.91
  -1   1   9   72.32    4.68
   1  -1   9   70.70    4.79
   1   1   9   73.67    3.88
   1   1   9   76.61    4.89
  -1  -1   9   74.15    3.07
  -1  -1   9   73.13    4.73
   3  -1   9   42.60    4.04
  -3   1   9   40.21    3.53
  -3  -1   9   44.32    3.63
   3   1   9   35.90    3.91
   3   1   9   43.33    3.73
  -5   1   9   71.49    5.19
   5  -1   9   81.34    5.46
   5   1   9   70.54    5.05
  -5  -1   9   75.43    5.28
   7  -1   9   15.26    3.17
  -7   1   9   13.84    3.25
  -7  -1   9   13.45    2.90
   7   1   9   19.28    3.80
  -9   1   9   29.50    3.72
  -9  -1   9   24.01    3.06
  11  -1   9    6.48    2.80
 -11   1   9    0.24    1.59
  11   1   9    2.54    1.91
  11   1   9    7.88    2.18
  13  -1   9   26.42    3.98
  13  -1   9   25.07    5.05
  13   1   9   40.75    5.31
  13   1   9   30.67    3.66
   0  -2   9    0.58    0.68
   0  -2   9   -0.28    0.50
   0   2   9   -0.19    0.52
   0   2   9   -0.47    0.41
   2  -2   9   20.84    2.29
  -2   2   9   20.14    2.48
   2   2   9   20.45    2.56
   2   2   9   24.06    2.36
  -2  -2   9   22.03    2.65
  -4   2   9   -0.89    0.66
   4  -2   9   -0.14    0.71
  -4  -2   9    0.67    0.95
   4   2   9    0.46    0.87
   4   2   9    1.08    0.82
  -6   2   9   17.36    3.17
   6  -2   9   18.66    3.51
  -6  -2   9   17.85    2.96
   6   2   9   13.30    2.52
   6   2   9   16.42    3.07
   8  -2   9   -0.85    0.73
  -8   2   9   -0.31    1.29
  -8  -2   9    1.92    1.30
   8   2   9   -0.69    0.94
   8   2   9    0.96    1.20
 -10   2   9    3.74    1.59
  10  -2   9    5.30    2.48
  10   2   9    5.93    1.86
  10   2   9    7.62    2.64
 -10  -2   9    4.08    1.38
  12  -2   9   -0.91    1.63
  12   2   9    2.68    2.14
  12   2   9    0.16    1.22
  14  -2   9    5.07    2.11
  14  -2   9   -1.11    3.59
  14   2   9    2.10    3.14
  -1   3   9    0.01    0.72
   1  -3   9   -0.89    0.50
  -1  -3   9   -0.03    0.77
   1   3   9   -1.07    0.48
  -1  -3   9    1.11    0.90
   1   3   9    0.83    0.85
   3  -3   9    2.57    1.17
  -3   3   9    2.50    1.10
  -3  -3   9    4.65    1.43
   3   3   9    2.38    1.03
   3   3   9    3.93    1.35
  -5   3   9   -0.02    0.85
   5  -3   9    0.15    0.97
   5   3   9   -0.36    0.93
  -5  -3   9    1.35    1.05
   5   3   9    1.48    0.92
   7  -3   9    4.37    1.86
  -7   3   9    4.89    1.93
  -7  -3   9    4.67    1.75
   7   3   9    6.19    2.10
   7   3   9    5.84    1.71
  -9   3   9    1.11    1.42
   9  -3   9    0.80    1.71
   9   3   9   -0.03    1.18
  -9  -3   9    1.13    1.14
   9   3   9    1.07    1.21
 -11   3   9    0.79    1.51
  11  -3   9    4.12    2.40
  11   3   9    3.23    2.21
  11   3   9    4.56    1.65
  13  -3   9   -1.25    1.74
  13   3   9    3.25    1.72
  13   3   9    3.21    2.15
   0   4   9   44.61    3.65
   0  -4   9   43.60    2.87
   0   4   9   48.68    2.85
  -2   4   9    3.69    1.29
   2  -4   9    5.82    1.62
  -2  -4   9    2.34    1.10
   2   4   9    3.22    1.31
   2   4   9    5.08    1.28
  -4   4   9   33.80    3.36
   4  -4   9   37.64    3.56
  -4  -4   9   35.81    3.45
   4   4   9   35.14    3.35
   4   4   9   37.81    3.40
   6  -4   9    3.88    1.68
  -6   4   9    7.56    2.17
   6   4   9    3.80    1.42
  -6  -4   9    3.29    1.47
   6   4   9    5.12    1.72
  -8   4   9   23.31    4.11
   8  -4   9   16.38    3.73
   8   4   9   17.17    2.82
   8   4   9   25.79    4.39
  10  -4   9    1.62    1.50
 -10   4   9    2.71    1.39
  10   4   9    1.61    1.39
  10   4   9    2.08    1.86
  12  -4   9   13.54    4.17
  12   4   9   13.80    2.49
  12   4   9    9.25    3.30
   1   5  -9   61.33    4.45
   1  -5   9   57.66    3.74
  -1   5   9   56.88    4.11
   1   5   9   58.57    3.44
  -1   5  -9   61.20    4.43
   1   5   9   58.36    4.21
  -1  -5   9   57.34    2.98
  -1  -5   9   57.31    4.28
   3   5  -9   88.57    5.46
  -3   5   9   89.54    5.36
   3  -5   9   83.65    5.26
   3   5   9   90.74    5.01
  -3  -5   9   88.39    5.40
   3   5   9   91.77    5.37
  -5   5   9   29.65    3.32
   5  -5   9   33.34    3.73
   5   5   9   30.77    3.22
  -5  -5   9   26.33    3.80
   5   5   9   25.18    2.86
   7  -5   9   85.61    6.60
  -7   5   9   80.66    6.22
   7   5   9   80.07    5.14
   7   5   9   80.27    5.84
  -9   5   9    3.25    1.96
   9   5   9    9.07    2.12
  11  -5   9   56.01    6.17
  11   5   9   53.12    4.18
  11   5   9   59.68    5.87
  13  -5   9    2.56    2.34
  13   5   9    0.56    1.47
  13   5   9    1.73    1.84
   0   6   9   21.64    2.55
   0   6  -9   24.03    2.76
   0  -6   9   21.55    2.08
   2  -6   9   21.39    3.27
   2   6  -9   14.58    2.64
  -2   6   9   14.84    2.48
  -2  -6   9   16.68    1.28
  -2  -6   9   14.52    2.74
  -2   6  -9   20.39    3.18
   2   6   9   17.38    2.04
   2   6   9   14.27    2.37
   4   6  -9   14.99    2.69
  -4   6   9   17.49    2.92
   4  -6   9   15.56    2.93
  -4  -6   9   20.10    3.16
   4   6   9   20.34    3.22
   4   6   9   15.42    2.51
  -6   6   9    9.39    2.39
   6  -6   9   10.65    2.80
   6   6   9    9.43    2.08
  -6  -6   9   10.15    2.40
   6   6   9   12.45    2.69
  -8   6   9   13.09    3.03
   8  -6   9   11.86    3.09
   8   6   9    9.59    2.54
   8   6   9    8.13    1.93
  10  -6   9    4.33    2.20
 -10   6   9    5.31    2.17
  10   6   9    6.22    2.64
  10   6   9    6.70    1.91
 -12   6   9   -0.71    1.61
  12  -6   9    4.13    2.50
  12   6   9    1.99    1.70
  12   6   9    1.32    2.03
   1   7  -9   43.78    3.82
  -1   7   9   43.11    3.54
   1  -7   9   42.49    3.34
   1   7   9   46.15    3.13
  -1  -7   9   42.22    2.78
   1   7   9   48.05    3.76
  -1   7  -9   42.27    3.71
  -3   7   9   58.79    4.31
   3   7  -9   52.99    4.22
   3  -7   9   48.92    4.17
   3   7   9   60.06    4.03
   3   7   9   54.24    4.03
  -3  -7   9   53.94    4.22
  -3   7  -9   50.75    4.04
   5   7  -9   22.22    2.80
  -5   7   9   23.39    2.95
   5  -7   9   21.32    3.65
   5   7   9   23.45    2.61
   5   7   9   21.09    2.85
  -5  -7   9   23.65    2.89
  -7   7   9   39.75    4.42
   7  -7   9   51.35    5.14
   7   7   9   38.60    3.49
   7   7   9   44.53    4.35
   9  -7   9   13.68    3.66
  -9   7   9    9.01    2.97
   9   7   9    7.45    1.96
   9   7   9    7.94    2.29
  11  -7   9   29.75    5.77
  11   7   9   27.99    3.03
  11   7   9   33.40    4.34
  13  -7   9    2.75    2.11
  13   7   9    2.71    2.39
   0   8   9    1.25    0.98
   0   8  -9    0.12    0.92
   0  -8   9    1.66    0.78
  -2   8   9   29.61    3.06
   2   8  -9   26.99    3.05
   2  -8   9   31.34    3.16
   2   8   9   29.54    2.73
  -2  -8   9   28.29    2.06
   2   8   9   32.97    3.18
  -2   8  -9   28.52    3.02
   4   8  -9   -1.23    0.84
   4  -8   9    1.98    1.32
  -4   8   9    1.29    0.89
   4   8   9    1.37    1.25
   4   8   9    0.74    0.82
  -4  -8   9    1.62    0.99
   6   8  -9   23.88    3.59
   6  -8   9   21.30    3.95
  -6   8   9   19.67    3.47
   6   8   9   22.81    2.65
   6   8   9   20.45    3.39
  -6  -8   9   15.01    2.66
   8  -8   9   -2.14    1.27
  -8   8   9    1.99    1.63
  -8  -8   9    0.81    0.89
   8   8   9    1.07    1.03
   8   8   9    0.57    1.02
  10  -8   9   10.58    3.42
 -10   8   9    7.60    2.81
  10   8   9   13.55    3.49
  10   8   9   15.76    2.53
 -12   8   9   -0.37    1.86
  12  -8   9    0.19    1.66
  12   8   9    1.03    1.71
  12   8   9   -1.23    1.12
   1  -9   9    5.53    1.52
   1   9  -9    4.80    1.57
  -1   9   9    4.19    1.43
   1   9   9    2.88    1.32
  -1   9  -9    6.79    1.88
  -1  -9   9    5.53    1.26
   3  -9   9   -0.23    0.78
  -3   9   9    0.56    1.00
   3   9  -9    0.50    0.89
   3   9   9    0.57    0.79
  -3   9  -9    1.68    1.09
  -3  -9   9   -0.05    0.65
   3   9   9   -0.71    0.65
   5   9  -9    8.88    2.12
  -5   9   9   13.85    2.68
   5  -9   9    9.77    2.47
   5   9   9   12.04    2.53
  -5  -9   9   11.29    2.45
   5   9   9    9.42    1.95
   7  -9   9    0.40    1.45
   7   9  -9   -0.18    0.89
  -7   9   9    0.20    1.27
   7   9   9    0.81    1.01
   7   9   9    3.26    1.66
   9  -9   9   12.67    3.64
  -9   9   9   10.43    2.84
   9   9   9   18.05    3.65
   9   9   9   10.33    2.17
 -11   9   9   -0.07    2.04
  11  -9   9   -0.48    1.38
  11   9   9    0.79    1.55
  11   9   9    1.55    1.22
  13  -9   9   11.58    3.76
  13   9   9    7.54    3.08
   0  10   9    5.12    1.53
   0  10  -9    2.59    1.22
   0 -10   9    5.25    1.45
  -2  10   9    2.17    1.17
   2  10  -9    1.12    1.11
   2 -10   9    0.34    0.93
  -2  10  -9    1.10    0.99
   2  10   9    1.92    1.07
  -2 -10   9    0.88    0.72
  -4  10   9    3.76    1.46
   4  10  -9    1.82    1.21
   4 -10   9    5.85    2.14
  -4  10  -9    4.80    1.58
  -4 -10   9    5.92    1.71
   4  10   9    3.25    1.42
   4  10   9    2.61    1.11
   6  10  -9   -0.01    0.87
  -6  10   9    2.13    1.41
   6 -10   9   -1.34    0.72
   6  10   9    0.84    0.88
  -6 -10   9    1.62    1.09
   6  10   9   -0.18    0.91
  -8  10   9   -0.97    1.37
   8 -10   9    1.48    2.20
   8  10   9    3.04    1.85
   8  10   9    3.91    1.39
  10 -10   9    1.74    1.74
 -10  10   9    0.36    1.57
  10  10   9    1.28    1.16
  10  10   9    0.60    1.40
  12 -10   9    3.00    2.82
 -12  10   9    1.17    2.22
  12  10   9    1.76    1.55
   1  11  -9   70.15    5.09
  -1  11   9   68.02    4.66
   1 -11   9   69.03    4.76
  -1 -11   9   73.47    4.31
   1  11   9   75.66    4.80
  -1  11  -9   74.45    5.20
  -3  11   9   45.72    3.94
   3  11  -9   46.94    4.14
   3 -11   9   53.89    4.69
  -3 -11   9   43.63    2.75
   3  11   9   47.19    3.71
  -3  11  -9   41.60    3.80
  -3 -11   9   51.63    4.13
  -5  11   9   81.67    5.57
   5 -11   9   73.22    6.02
   5  11  -9   74.16    5.24
   5  11   9   76.49    4.71
  -5 -11   9   66.81    4.78
  -5  11  -9   64.72    4.87
   5  11   9   83.78    5.44
   7 -11   9   19.46    3.98
  -7  11   9   24.69    4.39
   7  11  -9   24.30    3.82
   7  11   9   21.73    2.55
   7  11   9   24.78    4.05
  -9  11   9   42.15    5.48
   9 -11   9   59.14    6.43
   9  11   9   50.69    4.94
   9  11   9   54.15    3.91
 -11  11   9    2.75    2.46
  11 -11   9    7.58    3.01
  11  11   9    3.25    1.94
  11  11   9    6.49    1.68
  13  11   9   55.51   10.56
   0  12   9    2.29    1.12
   0  12  -9    1.87    1.17
   0 -12   9    2.00    1.15
  -2  12   9    5.09    1.60
   2 -12   9    7.20    2.21
   2  12  -9    4.22    1.73
   2  12   9    6.86    1.81
  -2  12  -9    2.93    1.31
  -2 -12   9    4.14    1.27
   4 -12   9    0.16    1.01
   4  12  -9    0.47    0.79
  -4  12   9    0.74    1.01
  -4 -12   9    2.01    1.38
  -4 -12   9    0.21    0.70
  -4  12  -9   -0.17    0.78
   4  12   9    2.32    1.05
   4  12   9    0.29    0.97
   6  12  -9    4.65    1.76
  -6  12   9    0.01    1.09
   6 -12   9    1.62    1.68
   6  12   9    2.88    1.61
   6  12   9    3.16    1.15
  -6  12  -9    4.08    1.68
  -6 -12   9    0.56    1.04
   8  12  -9    0.30    1.36
  -8  12   9    2.77    1.88
   8 -12   9   -0.63    1.32
   8  12   9   -1.43    0.92
   8  12   9    0.91    0.92
 -10  12   9    2.54    2.47
  10 -12   9   -1.57    1.27
  10  12   9    1.23    1.30
  10  12   9    2.55    1.88
 -12  12   9    3.76    2.86
  12 -12   9   -1.10    1.64
  12  12   9    0.38    1.65
   1  13  -9   32.22    3.57
   1 -13   9   40.09    3.71
  -1  13   9   32.88    3.30
   1  13   9   33.28    3.23
  -1 -13   9   28.11    2.87
  -1  13  -9   31.19    3.39
   3  13  -9   21.14    3.42
  -3  13   9   15.44    2.79
   3 -13   9   22.51    3.11
  -3 -13   9   21.40    2.12
  -3  13  -9   18.00    3.14
   3  13   9   22.42    2.57
   5  13  -9   34.30    3.65
  -5  13   9   38.82    3.86
   5 -13   9   27.94    3.88
  -5 -13   9   28.49    3.03
   5  13   9   40.22    3.87
   5  13   9   29.75    3.00
  -5  13  -9   37.89    3.66
   7  13  -9    9.23    2.31
   7 -13   9    7.73    2.68
  -7  13   9    5.32    2.30
   7  13   9    6.33    1.76
   7  13   9   10.83    2.70
   9 -13   9   28.18    5.62
  -9  13   9   27.10    5.01
   9  13  -9   24.80    3.95
   9  13   9   24.74    4.46
   9  13   9   22.57    2.57
  11 -13   9    1.04    1.87
 -11  13   9    4.62    2.40
  11  13   9    1.19    1.42
  11  13   9   -0.53    1.44
   0  14  -9   24.05    3.14
   0 -14   9   27.82    3.09
   0  14   9   26.36    2.93
  -2  14   9    4.12    1.52
   2  14  -9    2.57    1.34
   2 -14   9    3.06    1.40
   2  14   9    4.23    1.46
  -2  14  -9    2.35    1.19
  -2 -14   9    3.55    1.25
   4 -14   9   19.12    3.68
   4  14  -9   20.35    3.47
  -4  14   9   16.80    3.04
  -4 -14   9   23.96    2.78
  -4 -14   9   21.04    2.11
   4  14   9   18.10    2.37
  -4  14  -9   20.97    3.38
  -6  14   9    1.77    1.29
   6 -14   9    2.66    1.63
   6  14  -9    2.61    1.50
  -6 -14   9   -0.30    0.91
   6  14   9    3.06    1.20
  -6  14  -9    1.22    1.42
  -8  14   9    9.27    2.99
   8 -14   9   13.94    3.78
   8  14   9    8.03    2.38
   8  14   9   14.35    2.40
  10 -14   9    2.78    2.44
 -10  14   9    1.07    2.38
  10  14   9   -0.03    1.27
  10  14   9    3.04    1.78
 -12  14   9   -2.48    2.87
  12 -14   9   10.24    3.47
  12  14   9    3.19    1.97
   1  15  -9   10.54    2.74
   1 -15   9    4.98    1.77
  -1  15   9    6.98    1.92
  -1 -15   9    8.43    1.83
   1  15   9    7.42    1.92
  -1  15  -9   11.17    2.72
   3  15  -9   18.36    3.33
   3 -15   9   13.51    2.98
  -3  15   9   18.06    3.11
  -3  15  -9   19.87    3.30
  -3 -15   9   18.15    2.11
   3  15   9   18.87    2.90
   5 -15   9    0.87    1.07
   5  15  -9    2.65    1.41
  -5  15   9    1.41    1.28
  -5 -15   9    1.46    0.93
   5  15   9    2.39    1.24
  -5  15  -9   -0.76    0.96
  -5 -15   9    2.24    1.31
  -7  15   9   25.27    4.31
   7  15  -9   21.41    4.21
   7 -15   9   22.05    4.65
   7  15   9   15.33    2.43
  -7  15  -9   13.28    2.86
   9 -15   9    2.25    1.62
  -9  15   9    2.03    2.13
   9  15  -9    0.66    1.51
   9  15   9    2.53    1.23
 -11  15   9   12.09    4.30
  11 -15   9    9.12    3.13
   0  16   9    5.02    1.56
   0 -16   9    6.62    1.98
   0  16  -9    4.90    1.97
   2  16  -9   23.52    3.84
   2 -16   9   18.40    3.41
  -2  16   9   15.19    2.86
   2  16   9   22.73    2.66
  -2 -16   9   19.83    2.58
  -2  16  -9   21.66    3.58
   4  16  -9    4.97    1.80
   4 -16   9    6.87    2.48
  -4  16   9    6.26    1.89
  -4  16  -9    4.94    1.76
   4  16   9    4.71    1.54
  -4 -16   9    6.28    1.50
  -4 -16   9    3.15    1.33
   6  16  -9   15.29    3.36
  -6  16   9   11.98    2.99
   6 -16   9   16.08    5.65
  -6  16  -9   12.47    2.61
   6  16   9   14.36    2.37
   8  16  -9    2.53    1.72
  -8  16   9   -0.52    1.20
   8 -16   9    3.09    2.35
   8  16   9    2.88    1.22
  10 -16   9    8.20    3.12
 -10  16   9   14.45    4.22
  12 -16   9    1.96    3.32
 -12  16   9   -2.10    2.59
   1 -17   9   50.42    4.59
   1  17  -9   45.40    4.46
  -1  17   9   52.56    4.34
   1  17   9   42.30    3.79
  -1  17  -9   37.89    4.01
  -1 -17   9   45.47    4.00
  -3  17   9   50.83    4.45
   3  17  -9   54.83    4.90
   3 -17   9   54.26    5.36
   3  17   9   46.87    3.80
  -3 -17   9   53.63    3.99
  -3  17  -9   51.09    4.54
   5  17  -9   23.59    4.14
   5 -17   9   22.34    4.25
  -5  17   9   24.04    5.57
  -5  17  -9   28.81    3.42
  -5 -17   9   24.06    2.62
  -5 -17   9   23.91    2.93
   5  17   9   28.30    2.83
  -7  17   9   37.95    4.39
   7  17  -9   42.41    4.33
   7 -17   9   36.43    5.07
   7  17   9   45.53    3.56
  -7  17  -9   39.97    4.04
   9 -17   9   13.62    3.85
   9  17  -9   12.75    3.03
  -9  17   9   12.41    3.46
   9  17   9   14.73    2.36
  11 -17   9   32.21    6.12
 -11  17   9   25.53    5.17
   0 -18   9    3.49    1.41
   0  18   9    5.12    1.88
   0  18  -9    6.65    2.19
   2  18  -9    9.82    2.45
  -2  18   9    7.61    2.19
   2 -18   9    8.89    2.65
  -2  18  -9    7.66    2.36
   2  18   9    7.79    1.86
  -2 -18   9    7.96    1.97
   4 -18   9    1.80    1.60
   4  18  -9    3.64    2.80
  -4  18   9    3.84    2.14
  -4  18  -9    3.52    1.89
  -4 -18   9    3.40    1.36
   4  18   9    1.55    1.08
  -4 -18   9    0.42    1.00
   6  18  -9   10.29    2.65
   6 -18   9    5.31    2.38
  -6  18   9    6.17    2.31
  -6  18  -9    6.49    2.05
   6  18   9    8.87    1.94
   8 -18   9    2.14    1.92
   8  18  -9    0.62    1.41
  -8  18   9    7.01    2.50
   8  18   9    4.03    1.57
  10 -18   9    4.05    2.89
 -10  18   9    3.00    2.79
  10  18  -9    4.85    2.31
  -1  19   9    6.57    1.95
   1 -19   9    5.34    2.21
   1  19  -9    4.70    1.84
  -1  19  -9    4.33    1.96
   1  19   9    7.75    1.95
  -1 -19   9    5.78    1.67
   3 -19   9   17.26    4.08
  -3  19   9   10.55    2.79
  -3 -19   9   11.84    2.46
  -3  19  -9   12.59    2.87
   3  19   9   14.41    2.47
  -5  19   9    1.13    1.34
   5  19  -9    2.53    1.45
   5 -19   9    2.64    2.17
   5  19   9    1.24    0.97
  -5 -19   9   -0.59    0.90
  -7  19   9   13.35    3.10
   7  19  -9   22.96    3.85
   7 -19   9   14.38    4.02
   7  19   9   15.42    2.38
  -7  19  -9   16.98    3.07
   9  19  -9    1.57    1.76
   9 -19   9   -1.48    1.91
  -9  19   9   -0.49    1.72
   9  19   9   -1.18    1.35
  11 -19   9    8.33    3.82
 -11  19   9   11.96    4.72
   0 -20   9    8.89    2.51
   0  20   9    7.59    2.04
   2  20  -9    1.12    1.33
  -2  20   9    0.72    1.24
   2 -20   9    2.59    1.71
  -2 -20   9    1.45    1.29
   2  20   9   -0.32    0.83
   4 -20   9    5.00    2.59
  -4  20   9    6.07    2.03
   4  20  -9    6.38    2.11
   4  20   9    3.03    1.64
  -4  20  -9    7.37    2.37
   6  20  -9    2.44    1.42
   6 -20   9    2.92    1.59
   6  20   9    1.02    0.94
  -6  20  -9    1.42    1.29
   8 -20   9    6.50    2.89
   8  20  -9   -0.51    1.44
  -8  20   9    4.84    2.64
   8  20   9    2.37    1.54
  -8  20  -9    4.44    2.26
 -10  20   9    4.32    2.48
  10  20  -9   -0.90    1.70
  10 -20   9   -0.37    2.09
  10  20   9   -3.84    2.02
  -1  21   9   12.40    2.74
   1  21  -9   10.39    2.56
   1 -21   9    9.90    2.81
  -1 -21   9   11.17    2.80
   1  21   9    6.79    1.91
  -1  21  -9   11.26    2.92
   3 -21   9    8.10    3.62
   3  21  -9    6.27    2.05
  -3  21   9    8.96    2.46
   3  21   9    2.87    1.44
  -5  21   9   11.08    2.57
   5 -21   9    9.57    3.20
   5  21  -9   15.95    3.42
  -5 -21   9    9.27    1.89
   5  21   9   11.32    2.21
  -5  21  -9   16.26    3.34
   7 -21   9   -0.49    1.40
  -7  21   9    1.49    1.53
   7  21  -9   -0.14    1.42
  -7  21  -9    0.47    1.34
   7  21   9    1.71    1.08
   9 -21   9   11.86    4.10
   9  21  -9    8.33    2.79
  -9  21   9   11.86    3.27
   0  22   9    2.15    1.42
   0  22  -9    1.71    1.47
   0 -22   9    0.33    1.31
   2 -22   9   -0.96    2.20
   2  22  -9   -1.17    1.09
  -2  22   9    1.71    1.30
   2  22   9    0.58    1.00
  -2  22  -9   -1.33    0.96
  -2 -22   9    2.80    1.80
  -4  22   9   -0.18    1.18
   4 -22   9    3.85    2.26
   4  22  -9    0.66    1.55
   4  22   9    0.09    0.87
  -4  22  -9    1.52    1.50
   6 -22   9    2.20    1.79
  -6  22   9    2.37    1.73
   6  22  -9    0.72    1.45
   6  22   9   -0.01    1.10
  -6  22  -9   -0.53    1.47
   8 -22   9    4.57    2.70
   8  22  -9   -1.06    1.34
  -8  22   9    0.50    1.80
   8  22   9    3.11    1.43
  -8  22  -9    4.42    2.11
   1  23  -9   27.38    4.52
  -1  23   9   30.48    3.53
   1 -23   9   29.74    5.22
  -1  23  -9   30.22    3.89
  -1 -23   9   32.33    4.21
   1  23   9   27.06    3.26
  -3  23   9   15.21    3.14
   3  23  -9   13.31    3.15
   3 -23   9   28.89    5.38
  -3  23  -9   18.60    3.54
   3  23   9   17.52    2.94
  -5  23   9   31.61    4.04
   5  23  -9   29.94    3.91
   5 -23   9   20.75    4.29
  -5  23  -9   32.29    3.73
   5  23   9   29.76    3.19
   7 -23   9   10.80    3.41
   7  23  -9   17.98    3.61
  -7  23   9   10.96    3.15
  -7  23  -9    5.03    2.24
   7  23   9    9.38    2.16
  -9  23   9   23.09    4.99
   9  23  -9   16.23    3.41
   9 -23   9   29.44    6.39
   9  23   9   18.74    4.03
   0 -24   9    5.06    1.87
   0  24   9    7.10    1.99
   0  24  -9   12.78    3.19
  -2  24   9    1.76    1.27
   2  24  -9    2.90    1.53
   2 -24   9   -1.92    1.21
  -2 -24   9    1.14    1.79
  -2  24  -9    0.99    1.53
   2  24   9    0.19    1.13
   4 -24   9    6.69    2.96
  -4  24   9    6.71    2.30
   4  24  -9    4.75    2.07
   4  24   9    5.14    1.85
  -4  24  -9    8.08    2.60
  -6  24   9    0.57    1.35
   6  24  -9    1.80    1.58
   6 -24   9    0.64    1.84
   6  24   9    2.14    1.36
  -6  24  -9   -1.78    1.35
  -8  24   9    8.09    2.72
   8  24  -9    3.30    1.94
   8 -24   9    5.44    2.76
  -8  24  -9    4.90    2.29
  -1  25   9    5.94    1.93
   1 -25   9    1.12    1.55
   1  25  -9    6.36    2.50
  -1  25  -9    8.23    2.73
  -1 -25   9    4.57    2.13
   1  25   9    3.05    1.62
   3  25  -9    0.83    1.65
   3 -25   9   -1.65    1.40
  -3  25   9    0.78    1.38
  -3  25  -9    0.70    1.56
   3  25   9   -1.19    0.97
   5 -25   9    8.05    3.63
  -5  25   9    7.37    2.54
   5  25  -9    9.94    3.16
  -5  25  -9    7.61    2.25
   5  25   9    7.85    2.00
   7 -25   9   -1.14    2.14
   7  25  -9    0.33    1.49
  -7  25   9    1.49    1.77
   7  25   9   -0.98    1.65
  -7  25  -9   -0.37    1.64
   0 -26   9   -0.15    1.01
   0  26  -9    0.86    1.57
   0  26   9   -0.17    0.92
  -2  26   9   11.83    2.78
   2  26  -9   11.13    3.10
   2 -26   9   11.29    3.26
  -2  26  -9   12.56    3.28
  -2 -26   9    8.06    2.60
   2  26   9    9.56    2.35
  -4  26   9    0.46    1.21
   4 -26   9    0.91    2.44
   4  26  -9   -1.66    1.48
   4  26   9    0.72    1.29
  -4  26  -9    2.20    1.51
   6  26  -9   10.11    2.89
  -6  26   9   12.85    3.16
   6 -26   9    8.38    3.33
  -6  26  -9    5.03    2.29
  -1  27   9    8.72    2.31
   1 -27   9    7.65    2.50
   1  27  -9    5.61    2.48
  -1 -27   9    8.31    2.43
   1  27   9    4.85    1.84
  -1  27  -9    4.68    2.56
  -3  27   9    6.20    2.35
   3 -27   9   10.21    3.48
   3  27  -9   11.35    3.30
   3  27   9    6.33    2.18
  -3  27  -9   12.74    3.28
   5  27  -9    6.75    2.63
   5 -27   9    5.68    3.14
  -5  27   9    4.88    2.29
  -5  27  -9    5.03    2.17
   5  27   9    1.26    1.50
   0  28  -9    7.74    2.66
   0 -28   9    4.08    2.37
   0  28   9    4.66    1.75
   2 -28   9    8.52    3.22
   2  28  -9    4.43    2.35
  -2  28   9    2.39    1.88
  -2  28  -9    2.22    2.06
   2  28   9    4.05    1.56
  -2 -28   9    4.08    2.18
   4 -28   9    6.49    2.90
   4  28  -9    7.55    2.72
  -4  28   9    8.23    2.61
  -4  28  -9    6.86    2.39
   4  28   9    6.45    2.12
   6 -28   9    1.33    2.92
   1  29  -9   15.63    3.57
  -1  29   9   13.41    3.08
   1 -29   9   15.56    4.26
  -1  29  -9   15.30    3.36
  -1 -29   9   10.37    3.74
   1  29   9   13.30    2.86
   3 -29   9   11.45    3.93
  -3  29   9   15.79    3.39
   3  29  -9   23.03    4.37
  -3  29  -9   15.52    3.48
   3  29   9   15.61    2.85
  -3 -29   9   10.42    2.88
   0  30  -9   -0.81    1.74
   0 -30   9   -0.85    1.80
   0  30   9    2.08    1.44
  -2  30   9   -2.70    1.23
   2  30  -9    0.40    1.82
   2 -30   9   -0.95    1.78
  -2 -30   9   -2.11    1.85
   2  30   9   -2.32    1.24
  -2  30  -9   -1.30    1.36
   0   0  10    0.19    0.71
   0   0  10    2.31    0.86
   2   0  10   12.74    2.23
  -2   0  10   10.21    2.18
   2   0  10   13.42    2.58
   4   0  10    1.24    1.07
   4   0  10    1.39    1.02
  -4   0  10    2.32    1.49
  -6   0  10    3.75    1.74
   6   0  10    4.13    1.85
   8   0  10    1.74    1.31
  -8   0  10   -0.22    1.22
 -10   0  10    1.79    1.44
  10   0  10    1.96    1.51
  10   0  10    1.42    1.85
  12   0  10    2.83    1.92
  12   0  10    1.61    1.65
  -1   1  10   23.61    2.85
   1  -1  10   16.98    2.87
   1  -1  10   21.52    2.16
  -1  -1  10   19.76    1.44
  -1  -1  10   21.97    2.75
   1   1  10   22.83    2.21
   1   1  10   17.38    2.88
   3  -1  10   17.94    2.36
  -3   1  10   15.80    2.82
   3  -1  10   12.01    2.37
   3   1  10   17.59    2.90
   3   1  10   14.43    2.76
  -3  -1  10   15.29    2.95
  -5   1  10   16.19    3.06
   5  -1  10   20.48    3.42
  -5  -1  10   22.90    3.60
   5   1  10   17.94    2.98
   5   1  10   22.98    3.03
  -7   1  10    8.04    2.36
   7  -1  10    6.71    2.19
   7   1  10    9.79    2.29
  -7  -1  10    7.55    2.45
   7   1  10    8.15    2.58
   9  -1  10   18.63    4.24
   9   1  10   21.69    4.33
   9   1  10   13.48    3.00
  11  -1  10    1.41    1.41
  11  -1  10    4.28    2.24
  11   1  10    2.93    1.83
  11   1  10    4.36    2.52
  13  -1  10    5.53    2.81
  13  -1  10    6.56    2.44
  13   1  10    4.29    2.16
  13   1  10    9.08    3.30
   0   2  10   63.55    3.22
   0  -2  10   63.31    3.29
   0   2  10   56.08    4.35
   0  -2  10   57.39    4.49
   2  -2  10   75.28    5.32
  -2   2  10   76.19    5.18
   2  -2  10   83.13    4.83
   2   2  10   84.31    4.64
  -2  -2  10   87.15    5.48
  -4   2  10   39.46    3.81
   4  -2  10   45.19    4.00
   4   2  10   49.73    4.20
  -4  -2  10   49.77    4.26
   4   2  10   43.21    3.81
   6  -2  10   47.54    4.66
  -6   2  10   50.63    4.85
   6   2  10   53.19    4.52
   6   2  10   59.84    4.87
  -6  -2  10   56.08    4.89
  -8   2  10   18.94    3.76
   8  -2  10   19.81    3.87
   8   2  10   22.08    4.21
  -8  -2  10   11.75    2.45
   8   2  10   16.44    2.98
  10  -2  10   26.24    4.78
  10   2  10   21.89    4.76
  10   2  10   17.26    3.13
  12  -2  10    8.63    2.63
  12  -2  10    5.28    2.51
  12   2  10   10.61    2.46
  12   2  10    8.42    2.85
   1  -3  10   77.96    4.25
   1  -3  10   72.46    5.16
  -1   3  10   74.67    5.02
   1   3  10   76.68    4.02
  -1  -3  10   71.93    5.11
   1   3  10   72.33    5.00
  -3   3  10   64.08    4.72
   3  -3  10   77.37    4.96
   3   3  10   73.71    5.07
  -3  -3  10   70.78    5.07
   3   3  10   76.61    4.72
  -5   3  10   51.81    4.63
   5  -3  10   51.68    4.61
   5   3  10   54.86    4.48
   5   3  10   60.32    4.68
  -5  -3  10   61.63    4.99
   7  -3  10   50.38    5.05
  -7   3  10   49.80    5.05
   7   3  10   42.29    4.46
   7   3  10   51.69    4.39
   9  -3  10   37.98    6.06
   9   3  10   27.70    5.14
   9   3  10   34.46    5.53
  11  -3  10   26.83    5.17
  11   3  10   29.72    3.43
  11   3  10   21.43    4.25
  13  -3  10    6.67    3.29
  13  -3  10   12.53    2.65
  13   3  10   14.45    4.49
  13   3  10    7.58    2.53
   0  -4  10   23.89    2.02
   0   4  10   26.53    3.00
   0  -4  10   21.38    2.76
   2  -4  10    7.29    2.41
  -2   4  10    5.65    1.57
   2   4  10    2.38    1.22
  -2  -4  10    6.03    1.75
   4  -4  10   18.33    3.19
  -4   4  10   17.31    3.06
   4   4  10   19.36    3.19
  -4  -4  10   21.24    3.41
   4   4  10   22.28    2.77
   6  -4  10    1.01    1.70
  -6   4  10    2.57    1.50
  -6  -4  10    1.52    1.64
   6   4  10    2.73    1.64
   6   4  10    1.69    1.23
   8  -4  10    6.78    2.89
  -8   4  10    9.78    2.91
   8   4  10    8.37    2.16
   8   4  10    5.26    2.23
  10  -4  10    3.06    2.10
 -10   4  10    1.32    1.88
  10   4  10    1.22    1.24
  10   4  10    0.08    1.17
  12  -4  10    4.87    2.52
  12   4  10   -1.14    1.34
  12   4  10    3.14    1.60
   1  -5  10   13.34    2.30
  -1   5  10    9.37    2.19
   1   5  10    9.59    2.19
  -1  -5  10   10.63    1.35
   1   5  10   13.95    1.71
  -1  -5  10   14.62    2.80
   3  -5  10   15.02    2.84
  -3   5  10   10.80    2.29
  -3  -5  10   10.53    2.25
   3   5  10    8.98    1.88
   3   5  10   12.78    2.53
  -5   5  10   10.70    2.59
   5  -5  10   12.40    2.69
   5   5  10    8.83    2.41
  -5  -5  10    7.96    2.24
   5   5  10   10.27    2.22
   7  -5  10    7.48    2.64
  -7   5  10    5.99    2.22
  -7  -5  10    4.16    1.62
   7   5  10    6.73    2.05
   7   5  10    6.11    1.91
   9  -5  10    4.11    1.98
  -9   5  10    6.29    2.71
  -9  -5  10    3.11    1.10
   9   5  10    4.50    2.21
   9   5  10    5.04    2.35
  11  -5  10    1.84    1.98
 -11   5  10    1.24    2.11
  11   5  10    0.72    1.44
  11   5  10    5.57    2.64
  13   5  10    2.85    2.00
   0   6  10   31.84    3.27
   0  -6  10   35.35    2.74
   2  -6  10    6.94    1.81
  -2   6  10    6.17    1.72
   2   6  10    6.43    1.82
   2   6  10    7.17    1.58
  -2  -6  10   10.40    2.46
  -4   6  10   28.64    3.28
   4  -6  10   29.22    3.45
   4   6  10   29.41    3.17
   4   6  10   28.12    3.06
  -4  -6  10   30.01    3.51
  -6   6  10    1.72    1.47
   6  -6  10    2.19    1.52
   6   6  10    2.86    1.34
  -6  -6  10    1.47    1.19
   6   6  10    2.98    1.41
   8  -6  10   14.29    5.08
  -8   6  10   12.10    3.26
   8   6  10   12.90    2.50
 -10   6  10   -3.23    1.48
  10  -6  10   -2.04    1.09
  10   6  10    2.41    1.67
  10   6  10    0.88    1.23
  12  -6  10    4.11    2.81
 -12   6  10    1.29    1.89
  12   6  10    0.86    1.57
  12   6  10    3.00    2.02
   1   7 -10   31.71    3.54
  -1   7  10   31.84    3.27
   1  -7  10   36.60    3.13
   1   7  10   30.73    3.20
  -1  -7  10   32.69    2.35
  -1  -7  10   27.53    3.20
  -1   7 -10   30.85    3.40
   3  -7  10   32.04    3.37
  -3   7  10   33.18    3.44
   3   7 -10   29.11    3.34
   3   7  10   26.58    3.07
   3   7  10   29.32    2.94
  -3  -7  10   31.66    3.41
  -5   7  10   23.92    3.78
   5  -7  10   24.66    3.33
   5   7  10   24.51    2.88
  -5  -7  10   19.27    3.34
   5   7  10   19.13    3.15
  -7   7  10   20.72    3.85
   7  -7  10   20.58    4.23
   7   7  10   21.94    3.88
   7   7  10   22.71    2.87
   9  -7  10   17.29    4.19
   9   7  10   11.78    2.52
   9   7  10   11.42    2.86
 -11   7  10    0.17    2.43
  11  -7  10   15.44    4.12
  11   7  10   10.25    3.31
  11   7  10    8.27    2.04
   0  -8  10   71.70    4.21
   0   8 -10   68.66    5.10
   0   8  10   61.93    4.59
   2  -8  10   44.02    3.76
  -2   8  10   45.04    3.92
   2   8 -10   46.09    4.20
  -2   8 -10   46.55    4.20
   2   8  10   50.97    4.10
   2   8  10   49.43    3.58
  -2  -8  10   42.96    3.99
   4  -8  10   46.82    4.41
  -4   8  10   49.57    4.29
   4   8 -10   49.10    4.35
   4   8  10   51.66    4.08
   4   8  10   43.71    3.84
  -4  -8  10   48.77    4.25
  -6   8  10   32.95    4.01
   6  -8  10   35.72    4.28
   6   8  10   28.39    2.98
   6   8  10   31.59    3.57
  -6  -8  10   18.19    3.17
   8  -8  10   19.98    4.14
  -8   8  10   26.39    4.88
   8   8  10   18.41    3.57
   8   8  10   32.32    3.31
  10  -8  10   11.69    3.46
 -10   8  10    4.45    2.45
  10   8  10   13.90    3.43
  10   8  10   11.02    2.33
  12  -8  10    3.99    3.08
  12   8  10   10.31    3.21
  12   8  10    5.00    2.00
   1   9 -10   59.43    4.81
  -1   9  10   60.74    4.55
   1  -9  10   62.14    4.28
  -1   9 -10   63.19    4.85
  -1  -9  10   55.27    3.47
   1   9  10   57.92    4.40
   3  -9  10   42.68    4.12
  -3   9  10   50.40    4.21
   3   9 -10   55.19    4.66
  -3  -9  10   49.25    4.34
   3   9  10   49.29    3.84
   3   9  10   48.25    4.00
  -3   9 -10   52.20    4.46
   5  -9  10   57.63    5.24
   5   9 -10   46.90    4.47
  -5   9  10   48.23    4.48
   5   9  10   51.12    4.04
   5   9  10   51.01    4.34
  -5  -9  10   44.39    4.24
  -7   9  10   25.72    4.52
   7  -9  10   27.42    4.69
   7   9  10   31.01    3.21
   7   9  10   37.42    4.07
   9  -9  10   31.13    5.62
  -9   9  10   41.19    5.22
   9   9  10   37.75    3.54
   9   9  10   34.26    4.29
  11  -9  10   15.76    4.19
  11   9  10   17.00    3.78
  11   9  10   12.48    2.44
   0  10  10    1.70    1.18
   0  10 -10    2.79    1.49
   0 -10  10    1.28    0.95
  -2  10  10    3.78    1.49
   2 -10  10    5.99    1.81
   2  10 -10    3.33    1.67
  -2  10 -10    4.07    1.56
  -2 -10  10    3.73    1.51
  -2 -10  10    4.45    1.16
   2  10  10    4.82    1.55
   4  10 -10   -1.05    0.79
  -4  10  10   -0.02    0.95
   4 -10  10    0.49    1.02
  -4  10 -10    1.73    1.34
   4  10  10   -0.29    0.85
  -4 -10  10   -1.02    0.81
   4  10  10    1.50    1.06
   6  10 -10    0.84    1.20
   6 -10  10    2.91    2.11
  -6  10  10   -0.40    1.06
  -6 -10  10    1.30    1.33
   6  10  10    3.14    1.45
   6  10  10    5.07    1.92
   8 -10  10    0.49    1.13
  -8  10  10    2.46    2.04
   8  10  10   -1.91    0.83
   8  10  10    1.17    1.35
  10 -10  10   -0.73    1.46
 -10  10  10    0.26    1.83
  10  10  10   -1.37    0.99
  10  10  10   -1.18    1.17
  12 -10  10    1.48    2.02
 -12  10  10    2.38    2.32
  12  10  10    2.98    1.86
   1 -11  10    2.53    1.40
  -1  11  10    1.81    1.10
   1  11 -10    2.54    1.58
   1  11  10    1.84    1.24
  -1  11 -10    1.34    1.10
  -1 -11  10    2.12    1.11
   3 -11  10    3.41    1.55
   3  11 -10    2.50    1.44
  -3  11  10    1.03    1.08
  -3 -11  10    3.11    1.31
  -3  11 -10    4.25    1.78
   3  11  10    2.34    1.24
  -5  11  10    2.89    1.55
   5 -11  10    0.90    1.30
   5  11 -10   -0.71    1.06
  -5 -11  10    0.77    1.19
   5  11  10    3.71    1.52
   5  11  10    0.35    0.99
   7  11 -10    2.72    1.52
   7 -11  10    2.55    2.75
  -7 -11  10    1.05    1.06
   7  11  10    0.93    1.06
   9 -11  10   -0.63    1.21
  -9  11  10    1.67    2.11
   9  11  10    0.38    1.13
   9  11  10    0.33    1.55
 -11  11  10   -0.66    2.34
  11 -11  10    1.98    2.31
  11  11  10    1.94    2.01
  11  11  10    6.82    2.03
   0  12 -10   36.84    3.95
   0  12  10   33.05    3.43
   0 -12  10   40.73    3.46
   2  12 -10   77.38    5.63
   2 -12  10   76.26    5.43
  -2  12  10   69.86    5.11
  -2  12 -10   73.75    5.44
   2  12  10   78.35    5.15
  -2 -12  10   71.90    4.05
   4 -12  10   28.66    3.75
   4  12 -10   26.68    3.41
  -4  12  10   24.78    3.20
   4  12  10   29.03    3.04
  -4 -12  10   25.82    3.07
  -4  12 -10   31.03    3.51
   6 -12  10   56.81    5.63
   6  12 -10   45.90    4.45
  -6  12  10   42.17    4.66
   6  12  10   51.92    4.56
   6  12  10   52.34    4.04
  -8  12  10   10.19    2.84
   8 -12  10   10.46    3.02
   8  12  10   15.79    3.30
   8  12  10    9.07    2.17
  10 -12  10   23.84    5.14
 -10  12  10   19.34    4.74
  10  12  10   26.68    2.95
  10  12  10   25.17    4.25
 -12  12  10   -0.99    2.48
  12  12  10    3.46    2.98
   1  13 -10   25.16    3.27
  -1  13  10   25.91    3.08
   1 -13  10   21.94    2.90
   1  13  10   28.80    3.16
  -1 -13  10   33.01    3.41
  -1  13 -10   25.89    3.34
   3  13 -10   25.88    3.38
   3 -13  10   26.41    3.55
  -3  13  10   30.49    3.45
  -3 -13  10   26.69    3.15
  -3 -13  10   27.13    2.33
   3  13  10   28.19    3.06
  -3  13 -10   29.27    3.49
  -5  13  10   16.92    3.14
   5  13 -10   23.31    3.79
   5 -13  10   18.13    3.86
  -5 -13  10   16.50    2.96
  -5  13 -10   17.65    3.20
   5  13  10   21.74    2.73
   7  13 -10   20.33    3.70
   7 -13  10   26.08    5.02
  -7  13  10   19.21    4.00
   7  13  10   22.70    2.80
   7  13  10   23.46    3.87
  -9  13  10    9.55    3.35
   9 -13  10    8.36    3.13
   9  13  10    6.84    2.29
   9  13  10   12.16    2.28
  11 -13  10    9.90    3.40
 -11  13  10    3.67    3.41
  11  13  10   13.13    3.40
  11  13  10   11.96    2.40
   0  14  10    4.98    1.69
   0  14 -10    3.24    1.49
   0 -14  10    3.12    1.42
  -2  14  10    4.66    1.76
   2 -14  10    4.43    1.87
   2  14 -10    5.16    1.68
  -2  14 -10    7.54    2.17
   2  14  10    6.07    1.85
  -2 -14  10    9.16    1.75
   4 -14  10    2.84    1.46
   4  14 -10    2.03    1.40
  -4  14  10    6.38    2.21
  -4 -14  10    3.36    1.54
   4  14  10    3.57    1.40
  -4  14 -10    1.98    1.41
   6  14 -10    4.81    1.63
  -6  14  10    4.01    1.79
   6 -14  10    3.87    2.65
   6  14  10    3.99    1.43
  -6 -14  10    2.81    1.42
   8 -14  10   -0.55    1.61
  -8  14  10    2.27    1.78
   8  14 -10    2.53    1.65
   8  14  10    1.03    1.46
   8  14  10    2.96    1.46
  10 -14  10    1.54    2.10
 -10  14  10    5.44    2.91
  10  14  10    1.27    1.51
  10  14  10    0.87    1.41
   1 -15  10   33.61    3.65
  -1  15  10   31.58    3.41
   1  15 -10   31.13    3.74
   1  15  10   37.15    3.64
  -1  15 -10   42.80    4.29
  -1 -15  10   34.73    3.29
  -3  15  10   30.77    3.56
   3 -15  10   37.61    4.21
   3  15 -10   30.70    3.85
  -3  15 -10   30.66    3.74
  -3 -15  10   32.09    2.74
  -3 -15  10   32.96    3.41
   3  15  10   37.33    3.51
  -5  15  10   25.74    4.11
   5  15 -10   31.75    3.80
   5 -15  10   21.52    4.13
  -5  15 -10   27.54    4.25
   5  15  10   27.04    2.95
  -5 -15  10   21.09    2.61
   7 -15  10   23.89    4.69
   7  15 -10   24.79    4.07
  -7  15  10   30.14    3.83
   7  15  10   26.96    2.91
  -9  15  10   16.20    4.19
   9 -15  10   13.96    4.07
   9  15  10   16.81    2.82
  11 -15  10    9.14    3.21
 -11  15  10    8.59    4.18
   0  16  10   23.55    3.03
   0 -16  10   25.90    3.13
   0  16 -10   25.33    4.25
   2 -16  10    4.88    1.72
  -2  16  10    3.27    1.71
   2  16 -10    8.40    2.43
   2  16  10    6.08    1.78
  -2 -16  10    5.06    1.46
  -2  16 -10    6.69    2.28
  -4  16  10   15.16    3.04
   4 -16  10   19.60    4.09
   4  16 -10   17.52    3.39
  -4 -16  10   13.93    2.55
   4  16  10   22.71    2.67
  -4  16 -10   19.30    3.56
  -6  16  10    3.88    1.94
   6 -16  10    3.53    2.60
   6  16 -10    2.76    1.62
   6  16  10    3.15    1.36
  -6  16 -10    7.12    3.49
  -6 -16  10    1.13    1.06
  -8  16  10   11.66    3.57
   8  16 -10   10.31    2.77
   8 -16  10    7.55    3.41
   8  16  10    9.99    2.08
  10 -16  10    0.77    2.20
 -10  16  10    1.75    2.40
  10  16  10   -0.63    1.50
  -1  17  10    1.29    1.49
  -1 -17  10    0.19    1.05
  -1  17 -10   -0.79    0.99
   1  17  10    0.60    1.01
   3 -17  10   -0.30    1.03
   3  17 -10    0.92    1.38
  -3  17  10   -1.05    0.79
   3  17  10    0.21    0.78
  -3 -17  10   -0.11    1.13
   5 -17  10    1.14    1.39
   5  17 -10    0.47    1.31
  -5  17  10   -0.47    1.06
   5  17  10   -0.79    0.87
  -5  17 -10    0.94    1.47
  -5 -17  10   -0.82    0.90
   7  17 -10   -0.13    1.21
   7 -17  10    0.30    1.78
  -7  17  10   -0.24    1.09
   7  17  10   -0.92    0.91
   9  17 -10   -1.18    1.51
   9 -17  10    0.43    1.84
  -9  17  10   -0.31    1.60
   9  17  10   -0.84    1.21
   0  18  10   37.55    3.80
   0 -18  10   38.60    4.03
   0  18 -10   39.87    4.40
  -2  18  10   18.04    3.08
   2  18 -10   12.72    2.99
   2 -18  10   11.52    2.72
   2  18  10   12.68    2.76
  -2  18 -10   11.70    2.71
  -2 -18  10   13.39    2.52
   4  18 -10   30.60    4.81
   4 -18  10   41.80    7.08
  -4  18  10   27.31    4.29
   4  18  10   36.92    3.51
  -4 -18  10   28.47    3.05
  -4  18 -10   36.41    4.08
  -4 -18  10   27.33    3.55
   6 -18  10   16.92    4.06
   6  18 -10    8.62    2.58
  -6  18  10   12.20    2.95
  -6  18 -10    4.73    2.00
   6  18  10   10.24    2.09
   8  18 -10   16.51    3.49
  -8  18  10   10.23    3.27
   8 -18  10   19.61    4.85
   8  18  10   14.72    2.43
  10 -18  10    2.75    2.92
 -10  18  10    7.92    3.50
  -1  19  10   28.64    3.39
   1 -19  10   31.12    3.66
   1  19 -10   29.70    3.86
  -1  19 -10   19.70    3.79
  -1 -19  10   23.85    3.06
   1  19  10   26.39    3.08
   3  19 -10   21.07    3.79
  -3  19  10   15.45    3.14
  -3  19 -10   17.25    3.45
   3  19  10   20.63    3.23
  -3 -19  10   25.99    2.80
  -5  19  10   24.12    4.07
   5 -19  10   15.74    3.67
   5  19 -10   25.12    4.39
  -5  19 -10   30.80    3.59
  -5 -19  10   14.14    2.32
   5  19  10   24.00    2.72
   7 -19  10   15.37    3.83
  -7  19  10    9.73    2.85
   7  19 -10   10.29    2.86
  -7  19 -10   12.29    2.94
   7  19  10   14.44    2.58
   9 -19  10    9.38    3.50
   9  19 -10   19.75    3.71
  -9  19  10   11.34    3.26
   9  19  10   15.35    2.56
   0  20 -10   -1.33    0.78
   0 -20  10   -1.13    1.10
   0  20  10   -0.12    0.92
   2  20 -10   -1.19    0.92
  -2  20  10   -0.10    1.07
   2 -20  10    0.53    1.67
  -2  20 -10    1.64    1.57
   2  20  10   -0.58    0.94
  -2 -20  10    2.14    1.40
  -4  20  10   -0.27    1.01
   4 -20  10    0.70    1.23
   4  20 -10   -0.21    1.24
  -4  20 -10   -0.89    1.27
  -4 -20  10   -0.53    0.90
  -4 -20  10    2.78    1.51
   4  20  10    0.10    0.97
   6  20 -10   -0.24    1.08
  -6  20  10    0.43    1.09
   6 -20  10   -1.11    1.44
   6  20  10    0.17    1.12
  -6  20 -10   -2.20    1.07
  -8  20  10   -0.31    1.74
   8 -20  10    1.26    2.34
   8  20 -10   -0.82    1.43
   8  20  10   -1.66    1.19
   1 -21  10   29.97    7.04
   1  21 -10   21.56    3.85
  -1  21  10   17.68    3.21
   1  21  10   17.03    3.15
  -1  21 -10   20.72    4.00
  -1 -21  10   25.52    3.36
  -3  21  10   27.49    3.53
   3  21 -10   22.67    4.12
   3 -21  10   18.37    3.91
  -3 -21  10   27.86    3.18
  -3  21 -10   21.72    3.99
   3  21  10   22.23    2.72
   5 -21  10   19.66    4.53
   5  21 -10   19.94    3.98
  -5  21  10   15.58    3.39
   5  21  10   17.00    2.85
  -5  21 -10   16.67    3.42
   7  21 -10   15.36    3.53
   7 -21  10   20.86    4.90
  -7  21  10   19.94    4.02
  -7  21 -10   16.75    3.30
   7  21  10   13.66    2.56
   9 -21  10    2.46    3.23
  -9  21  10    8.02    4.04
   9  21 -10    6.82    2.66
   0  22 -10   20.71    3.93
   0  22  10   13.91    2.88
  -2  22  10   34.49    4.04
   2  22 -10   37.73    4.44
   2 -22  10   39.12    4.68
  -2  22 -10   31.01    4.03
   2  22  10   33.94    3.59
  -2 -22  10   35.76    3.89
   4 -22  10   10.22    3.33
   4  22 -10   15.32    3.57
  -4  22  10   14.61    3.10
  -4 -22  10   11.48    2.23
  -4 -22  10   11.74    2.68
   4  22  10    9.58    2.21
  -4  22 -10   17.32    3.56
   6  22 -10   22.87    4.25
   6 -22  10   31.19    5.49
  -6  22  10   22.63    4.07
   6  22  10   27.21    3.01
  -6  22 -10   22.62    3.83
   8  22 -10   10.67    2.98
  -8  22  10   14.47    3.82
   8 -22  10    7.83    3.65
   8  22  10    7.07    2.23
   1 -23  10   -0.97    1.17
  -1  23  10    0.86    1.39
   1  23 -10    0.65    1.26
  -1  23 -10    2.97    1.86
  -1 -23  10    3.55    1.44
   1  23  10   -0.86    0.97
   3  23 -10    0.90    1.52
  -3  23  10    1.75    1.41
   3 -23  10   -2.00    1.18
  -3  23 -10   -0.28    1.13
   3  23  10   -0.20    1.10
  -3 -23  10   -0.12    2.02
   5  23 -10    0.23    1.71
   5 -23  10    0.79    2.00
  -5  23  10    1.94    1.56
   5  23  10   -0.23    1.14
  -5  23 -10    1.40    1.67
   7 -23  10    0.11    2.19
  -7  23  10    1.11    1.75
   7  23 -10   -0.55    1.46
  -7  23 -10    0.57    1.95
   7  23  10   -1.29    1.35
   0  24  10   -1.69    0.88
   0 -24  10   -3.15    1.36
   0  24 -10    1.40    1.57
  -2  24  10    6.62    2.27
   2 -24  10    2.62    2.03
   2  24 -10    5.91    2.28
   2  24  10    0.71    1.13
  -2 -24  10    3.84    1.99
  -2  24 -10    4.82    2.35
   4  24 -10   -0.23    1.62
   4 -24  10   -0.36    1.56
  -4  24  10   -0.08    1.49
  -4 -24  10   -3.19    1.95
  -4  24 -10   -1.16    1.35
   4  24  10   -0.12    1.19
   6 -24  10    0.01    1.83
   6  24 -10    5.27    2.40
  -6  24  10   -0.13    1.42
   6  24  10    4.39    1.78
  -6  24 -10    2.53    1.78
   1  25 -10   18.37    3.93
   1 -25  10   18.08    3.58
  -1  25  10   21.76    3.61
  -1 -25  10   20.40    3.93
   1  25  10   13.53    2.95
  -1  25 -10   23.33    4.28
   3 -25  10   12.43    3.41
  -3  25  10   12.42    3.14
   3  25 -10   13.89    3.56
  -3 -25  10   15.33    3.05
   3  25  10   16.43    2.89
  -3  25 -10   19.64    3.90
   5  25 -10   14.85    3.60
  -5  25  10   14.93    3.28
   5 -25  10   13.00    4.00
  -5  25 -10   13.97    3.13
   5  25  10   17.56    2.86
   0  26  10    5.68    2.23
   0 -26  10    7.30    2.52
   0  26 -10   12.23    3.03
   2  26 -10    6.22    2.47
   2 -26  10    2.59    1.91
  -2  26  10    6.01    2.21
   2  26  10    5.50    1.91
  -2  26 -10    1.90    1.98
  -2 -26  10   -0.68    2.05
   4  26 -10    8.35    2.82
  -4  26  10    4.22    2.31
   4 -26  10    5.12    2.80
  -4  26 -10    7.25    2.88
   4  26  10    7.98    2.20
  -6  26  10    1.55    2.88
   6  26  10    4.40    1.91
  -6  26 -10   -1.07    1.80
  -1  27  10    8.24    2.51
   1 -27  10    9.76    2.86
   1  27 -10   11.98    3.18
  -1  27 -10    9.27    2.93
   1  27  10    4.37    1.98
  -1 -27  10    7.05    2.69
   3 -27  10    7.78    2.88
   3  27 -10    9.94    2.96
  -3  27  10    9.79    2.90
  -3 -27  10    8.69    2.80
  -3  27 -10   10.94    3.01
   3  27  10   12.10    2.54
  -5  27  10    5.90    4.20
   5 -27  10    6.44    3.98
   5  27  10    7.52    2.17
  -5  27 -10    1.99    2.51
   0 -28  10   18.13    4.09
   0  28 -10   15.22    3.50
   0  28  10   12.10    2.81
   2 -28  10    2.61    2.09
  -2  28  10    2.60    1.86
   2  28 -10    0.96    1.74
  -2  28 -10    5.84    2.47
  -2 -28  10    3.85    2.68
   2  28  10    4.88    1.93
   1 -29  10    0.29    2.19
  -1 -29  10   -1.14    2.02
   0   0  11    1.81    0.80
   0   0  11    1.48    1.04
  -2   0  11   -0.02    0.91
   2   0  11    0.73    0.90
   2   0  11   -0.12    0.75
  -4   0  11    0.37    0.98
   4   0  11    0.78    0.94
   4   0  11    0.60    0.91
   6   0  11    0.89    1.17
  -6   0  11   -0.01    1.35
   6   0  11   -0.21    0.92
   8   0  11    1.08    1.16
   8   0  11    1.27    1.52
  -8   0  11    1.32    1.61
 -10   0  11    0.18    1.49
  10   0  11   -1.49    0.96
  10   0  11   -0.66    1.29
  12   0  11    1.88    1.65
  12   0  11   -2.73    1.20
   1  -1  11   24.34    3.16
  -1   1  11   20.79    3.49
   1  -1  11   19.60    2.15
   1   1  11   20.11    3.22
   1   1  11   19.99    2.19
  -1  -1  11   23.50    2.99
   3  -1  11   32.85    3.21
  -3   1  11   30.44    3.52
   3   1  11   29.49    3.05
   3   1  11   30.72    3.58
  -3  -1  11   34.24    3.64
   5  -1  11   17.28    3.28
  -5   1  11   15.94    3.26
   5  -1  11    5.64    1.95
  -5  -1  11   11.81    2.67
   5   1  11    9.21    2.35
   5   1  11   12.93    2.83
  -7   1  11   25.41    4.20
   7  -1  11   36.48    4.28
   7  -1  11   20.84    3.54
   7   1  11   28.56    4.96
  -7  -1  11   22.57    3.79
   7   1  11   28.90    3.79
   9  -1  11    9.81    3.16
  -9   1  11   -0.25    1.56
   9  -1  11    4.49    1.81
   9   1  11    4.01    2.01
   9   1  11    2.98    1.83
  -9  -1  11   -0.41    1.40
  11  -1  11   19.96    3.65
  11  -1  11   19.60    4.49
  11   1  11   25.67    4.04
  11   1  11   14.24    3.78
   0  -2  11   41.96    4.01
   0   2  11   42.62    4.05
   0  -2  11   38.20    2.52
   2  -2  11    7.81    1.85
   2  -2  11    5.56    1.87
  -2   2  11    4.00    1.59
   2   2  11    6.41    1.94
  -2  -2  11    3.70    1.64
   2   2  11   12.25    2.12
   4  -2  11   29.39    3.36
  -4   2  11   35.18    3.80
   4  -2  11   30.53    3.65
   4   2  11   35.64    3.76
   4   2  11   37.42    3.52
  -4  -2  11   33.06    3.81
   6  -2  11    3.25    1.70
  -6   2  11    4.47    1.96
  -6  -2  11    5.21    1.81
   6   2  11    5.97    2.20
   6   2  11    2.64    1.28
  -8   2  11   12.86    3.49
   8  -2  11   22.24    4.52
   8   2  11   22.06    4.19
   8   2  11   21.81    3.57
  10  -2  11    2.87    1.65
  10  -2  11   -0.42    1.69
 -10   2  11    2.91    1.76
  10   2  11    2.18    1.97
  10   2  11    4.19    1.86
  12  -2  11   10.97    3.42
  12  -2  11   10.45    2.55
  12   2  11    8.77    3.29
  12   2  11    6.66    2.23
  -1   3  11   -0.63    0.74
   1  -3  11    0.66    0.87
   1  -3  11    1.49    1.13
   1   3  11    0.77    1.05
  -1  -3  11   -0.79    0.85
   1   3  11    1.38    0.95
   3  -3  11    0.34    0.83
  -3   3  11   -1.14    0.82
   3  -3  11    1.73    1.23
   3   3  11   -0.77    0.93
  -3  -3  11    1.22    1.08
   3   3  11    0.84    0.96
  -5   3  11    5.05    1.90
   5  -3  11    5.74    2.01
   5   3  11    2.78    1.43
  -5  -3  11    1.90    1.44
   5   3  11    5.42    1.85
   7  -3  11    5.63    2.40
  -7   3  11    0.06    1.58
   7   3  11    3.41    1.55
   7   3  11    4.90    2.01
  -9   3  11    3.96    2.43
   9  -3  11    5.68    2.48
  -9  -3  11    2.38    1.44
   9   3  11    6.77    2.48
   9   3  11    5.00    2.04
  11  -3  11    4.74    2.39
  11  -3  11    5.31    2.12
 -11   3  11   -1.25    1.56
  11   3  11   -0.35    1.49
  11   3  11    1.68    2.00
   0   4  11    1.95    1.32
   0  -4  11    2.29    1.43
   0  -4  11    3.06    1.03
  -2   4  11   50.91    4.34
   2  -4  11   56.49    3.95
   2  -4  11   52.78    4.69
  -2  -4  11   52.65    4.51
   2   4  11   53.06    3.66
   2   4  11   49.31    4.39
   4  -4  11   -0.30    1.08
  -4   4  11    1.00    1.16
   4   4  11    3.52    1.46
  -4  -4  11    1.85    1.50
   4   4  11    3.85    1.58
  -6   4  11   39.42    4.30
   6  -4  11   36.83    4.12
   6   4  11   32.56    3.76
  -6  -4  11   31.64    4.04
   6   4  11   35.19    3.75
   8  -4  11    1.43    1.63
  -8   4  11   -0.33    1.73
   8   4  11    2.37    1.41
   8   4  11    1.50    1.46
  -8  -4  11   -1.28    1.17
  10  -4  11   12.92    3.62
 -10   4  11    3.84    2.67
  10   4  11   12.93    3.37
  10   4  11   24.39    3.68
  12  -4  11    0.41    1.85
  12  -4  11    1.51    1.87
  12   4  11    1.76    2.24
  -1   5  11   27.91    3.35
   1  -5  11   28.39    2.68
   1  -5  11   31.84    3.60
   1   5  11   31.40    3.49
  -1  -5  11   29.32    3.42
  -3   5  11   16.25    2.94
   3  -5  11   19.46    3.08
   3   5  11   23.55    2.75
  -3  -5  11   19.56    3.29
   3   5  11   18.10    3.19
  -5   5  11   33.65    3.88
   5  -5  11   24.90    3.44
  -5  -5  11   35.35    3.77
   5   5  11   27.28    3.18
   5   5  11   28.53    3.36
  -7   5  11    9.58    2.99
   7   5  11   11.22    2.49
   9  -5  11   22.98    4.93
   9   5  11   20.08    3.44
   9   5  11   24.80    4.55
 -11   5  11   -0.71    1.84
  11  -5  11    5.32    2.73
  11   5  11    1.83    1.70
  11   5  11    3.46    2.26
   0   6  11    5.77    1.81
   0  -6  11    6.79    1.53
   0  -6  11    5.79    1.92
  -2   6  11   15.02    2.80
   2  -6  11   18.58    3.01
   2   6  11   19.90    2.28
  -2  -6  11   14.02    2.79
   2   6  11   15.96    2.92
  -4   6  11    5.94    2.15
   4  -6  11    6.40    1.78
   4   6  11    8.92    2.32
   4   6  11    6.81    1.85
  -4  -6  11    5.11    1.87
   6  -6  11   14.95    3.43
  -6   6  11    6.52    2.30
   6   6  11   12.24    2.75
   6   6  11    8.79    2.29
  -6  -6  11    5.34    2.26
  -8   6  11    2.49    2.11
   8  -6  11    3.68    1.97
   8   6  11    1.54    1.58
  -8  -6  11    0.76    1.17
   8   6  11    3.96    1.79
  10  -6  11    7.64    3.02
 -10   6  11    1.03    2.07
  10   6  11    5.54    2.26
  10   6  11    4.38    1.96
  12  -6  11    1.58    4.18
  12   6  11    1.58    3.49
  12   6  11    1.86    1.82
   1  -7  11   23.89    2.66
  -1   7  11   20.83    3.33
  -1  -7  11   19.88    1.86
   1   7  11   24.42    3.00
  -1  -7  11   22.73    3.54
  -3   7  11   10.01    2.43
   3  -7  11   10.98    2.39
   3   7  11   12.65    2.60
  -3  -7  11   10.28    2.44
   3   7  11   10.23    2.08
   5  -7  11   33.91    3.99
  -5   7  11   30.08    3.74
   5   7  11   38.68    3.79
   5   7  11   30.77    3.40
  -5  -7  11   33.05    3.77
  -7   7  11    5.36    2.80
   7  -7  11    2.72    1.82
   7   7  11    1.58    1.30
   7   7  11    3.45    1.87
  -7  -7  11    0.43    1.20
  -9   7  11   19.32    4.27
   9  -7  11   27.46    4.91
   9   7  11   32.03    3.55
   9   7  11   29.46    5.04
  11  -7  11   -0.28    1.80
  11   7  11    0.00    1.42
  11   7  11    1.02    1.76
   0   8  11   42.45    4.03
   0  -8  11   45.97    3.32
   2  -8  11    9.49    2.06
  -2   8  11    4.95    1.71
  -2  -8  11   12.59    2.71
   2   8  11    6.08    1.87
   4  -8  11   41.76    4.15
  -4   8  11   41.22    4.07
   4   8  11   42.13    3.99
  -4  -8  11   41.03    4.20
   4   8  11   43.36    3.76
  -6   8  11    6.71    2.65
   6  -8  11    3.82    1.93
  -6  -8  11    4.91    2.07
   6   8  11   10.19    3.51
   6   8  11    7.40    2.12
  -8   8  11   27.51    5.25
   8  -8  11   17.48    4.05
   8   8  11   35.24    4.04
   8   8  11   24.15    3.59
  10  -8  11   -0.31    1.88
 -10   8  11    3.70    2.40
  10   8  11    1.34    1.46
  10   8  11    3.51    2.01
   1  -9  11    0.99    1.07
   1   9 -11    2.37    1.41
  -1   9  11   -0.07    0.87
  -1  -9  11    1.41    1.05
  -1  -9  11    1.40    1.04
   1   9  11    1.00    0.99
   3  -9  11    4.87    1.69
   3   9 -11    2.87    1.56
  -3   9  11   -0.07    0.76
   3   9  11    1.82    1.31
  -3  -9  11    5.08    1.68
   5  -9  11    0.00    1.21
  -5   9  11    0.92    1.28
   5   9  11   -0.11    1.17
  -5  -9  11    1.42    1.31
   5   9  11   -0.04    1.10
   7  -9  11    7.15    2.44
  -7   9  11    3.86    2.18
   7   9  11    9.31    2.10
   7   9  11    5.02    2.09
  -7  -9  11    2.04    1.32
   9  -9  11    2.35    2.20
   9   9  11   -0.05    1.40
   9   9  11   -0.45    1.41
  11  -9  11    3.35    2.53
 -11   9  11    0.73    2.45
  11   9  11    6.39    2.41
  11   9  11    2.97    1.73
   0  10 -11    4.32    2.15
   0  10  11    4.03    1.54
   2 -10  11   16.71    2.92
   2  10 -11   10.91    2.74
  -2  10  11    8.94    2.37
  -2  10 -11   13.46    2.95
  -2 -10  11   19.60    3.45
   2  10  11    9.85    2.32
  -4  10  11    7.47    2.28
   4 -10  11    8.48    2.48
   4  10 -11    5.55    2.29
  -4 -10  11    7.30    2.04
   4  10  11    8.06    2.00
   4  10  11    7.05    2.00
  -6  10  11    9.77    2.73
   6  10  11   10.54    2.37
  -6 -10  11   10.58    2.08
   6  10  11    8.01    2.54
  -8  10  11    4.42    2.36
   8 -10  11    5.30    2.46
   8  10  11    5.30    1.67
   8  10  11    3.34    1.81
  10 -10  11    5.21    2.50
 -10  10  11   11.16    3.34
  10  10  11    6.01    2.15
  10  10  11    8.38    2.13
  -1  11  11   25.13    3.14
   1  11 -11   23.74    3.89
   1 -11  11   28.76    3.05
   1  11  11   30.94    3.40
  -1 -11  11   25.32    2.57
  -1  11 -11   25.27    4.12
   3  11 -11   37.03    4.06
  -3  11  11   27.65    3.43
   3 -11  11   28.20    3.40
  -3 -11  11   39.36    3.96
   3  11  11   32.00    3.49
   5  11 -11   11.36    2.97
  -5  11  11   13.12    2.94
   5 -11  11   11.76    2.90
   5  11  11   10.91    2.44
  -5 -11  11    9.07    2.27
  -7  11  11   21.29    4.12
   7 -11  11   34.50    4.54
   7  11  11   28.30    3.25
   7  11  11   29.12    3.67
   9 -11  11    8.80    3.39
  -9  11  11    8.11    2.83
   9  11  11    2.35    1.45
   9  11  11    5.93    2.26
 -11  11  11   11.00    3.80
  11 -11  11   24.83    5.12
  11  11  11   23.26    4.78
  11  11  11   19.63    3.09
   0 -12  11    8.52    2.16
   0  12 -11    6.49    2.42
   0  12  11    5.75    1.88
  -2  12  11   -0.70    0.68
   2  12 -11    2.83    1.43
   2 -12  11   -1.08    1.00
  -2 -12  11   -1.54    0.71
  -2  12 -11    1.49    1.45
   2  12  11    0.70    1.08
   4  12 -11    5.22    2.09
   4 -12  11    6.26    2.10
  -4  12  11    6.14    2.12
   4  12  11    7.06    3.11
  -4 -12  11    7.47    2.00
  -6  12  11    1.03    1.41
   6 -12  11    0.65    1.49
   6  12 -11   -0.24    1.17
   6  12  11   -0.56    1.06
   6  12  11   -1.25    0.80
  -6 -12  11    0.65    1.04
   8 -12  11    4.30    2.45
  -8  12  11    6.80    2.39
   8  12  11    4.83    1.72
   8  12  11    3.49    2.09
  10 -12  11    0.54    1.74
 -10  12  11   -3.36    1.93
  10  12  11    2.45    1.89
  10  12  11    1.01    1.39
  -1  13  11    7.39    2.15
   1  13 -11    9.19    2.62
   1 -13  11   10.90    2.42
  -1 -13  11    8.96    2.03
   1  13  11    9.81    2.32
  -1  13 -11    9.63    2.60
   3 -13  11   12.79    2.70
  -3  13  11   15.02    3.00
   3  13 -11   16.89    3.52
  -3  13 -11   20.43    3.60
   3  13  11   15.30    4.43
  -3 -13  11   21.19    3.42
   5 -13  11    5.21    2.84
   5  13 -11    0.50    1.50
  -5  13  11    0.64    1.20
  -5 -13  11    3.04    1.48
   5  13  11    3.65    1.48
  -7  13  11   19.39    3.86
   7 -13  11   21.47    4.68
   7  13  11   15.08    2.75
  -9  13  11    3.54    2.15
   9 -13  11    0.51    1.92
   9  13  11    1.30    1.36
   9  13  11    2.12    1.53
   0 -14  11    6.73    1.69
  -2  14  11   37.74    3.96
   2 -14  11   35.38    3.76
   2  14 -11   39.18    4.23
   2  14  11   29.48    3.74
  -2 -14  11   38.45    3.93
  -2 -14  11   35.22    2.81
  -2  14 -11   33.96    6.28
  -4  14  11    6.30    1.99
   4  14 -11    5.65    2.03
   4 -14  11    6.72    2.24
  -4 -14  11    1.97    1.45
  -4  14 -11    5.08    2.11
   4  14  11    2.53    1.35
   6 -14  11   32.68    5.40
  -6  14  11   30.80    3.90
   6  14 -11   24.83    4.11
   6  14  11   23.77    2.97
   8 -14  11    2.00    1.85
  -8  14  11    3.96    2.14
   8  14  11    2.35    1.57
 -10  14  11   16.78    4.94
  10 -14  11   17.00    4.48
  10  14  11   14.45    2.74
  -1  15  11    5.34    1.81
   1  15 -11    6.53    2.34
   1 -15  11    3.49    1.48
  -1 -15  11    2.94    1.60
   1  15  11    6.11    1.93
  -1  15 -11    2.48    1.49
   3  15 -11    1.16    1.41
   3 -15  11    3.71    1.66
  -3  15  11    2.85    1.77
  -3 -15  11    3.60    1.50
   3  15  11    4.35    1.67
  -3  15 -11    1.25    1.40
   5 -15  11    7.74    2.66
   5  15 -11    8.31    2.37
  -5  15  11    3.18    1.87
   5  15  11    5.20    1.81
  -5 -15  11    3.76    1.56
  -5  15 -11    4.91    1.85
   7 -15  11   -1.99    1.46
   7  15 -11    1.37    1.51
  -7  15  11    0.74    1.70
   7  15  11   -0.82    0.92
   9 -15  11    4.76    2.87
  -9  15  11    8.68    3.67
   9  15  11    2.88    1.59
   0  16 -11   24.11    4.15
   0 -16  11   21.48    3.39
   0  16  11   26.62    3.29
   2  16 -11    0.80    0.96
   2 -16  11   -1.67    1.10
  -2  16  11    0.82    1.21
   2  16  11   -1.05    0.74
  -2  16 -11    1.53    1.26
  -2 -16  11    5.02    1.51
   4  16 -11   19.93    3.78
   4 -16  11   23.09    4.22
  -4  16  11   15.00    3.03
  -4 -16  11   26.85    3.83
   4  16  11   18.93    3.04
  -4  16 -11   23.65    4.11
   6 -16  11    0.86    1.70
  -6  16  11   -0.06    1.30
   6  16 -11   -0.36    1.38
   6  16  11    0.13    0.94
   8 -16  11   11.81    3.75
  -8  16  11   14.55    3.62
   8  16  11   11.26    2.31
  10 -16  11   -2.29    1.98
 -10  16  11   -4.50    3.17
  10  16  11    3.44    1.94
   1  17 -11   21.47    3.97
  -1  17  11   20.94    3.49
   1 -17  11   20.82    3.56
   1  17  11   23.59    3.02
  -1  17 -11   20.43    4.02
  -1 -17  11   24.01    3.01
   3  17 -11   12.72    3.20
  -3  17  11   13.56    2.84
  -3  17 -11    9.76    2.67
  -3 -17  11    8.54    2.14
   3  17  11   12.25    2.54
   5 -17  11   22.35    4.23
  -5  17  11   27.95    3.63
   5  17 -11   27.80    4.53
  -5 -17  11   28.41    2.82
  -5  17 -11   31.15    3.85
   5  17  11   28.51    3.09
   7 -17  11    9.07    3.03
   7  17 -11    5.22    2.26
  -7  17  11    4.99    2.17
   7  17  11    2.68    1.57
  -9  17  11   29.00    5.56
   9 -17  11   22.48    5.38
   9  17  11   18.82    2.86
   0 -18  11   10.95    2.36
   0  18  11   14.42    3.03
   0  18 -11   10.79    2.78
   2  18 -11    1.03    1.60
  -2  18  11   -0.95    1.04
   2 -18  11    0.15    1.10
  -2 -18  11   -0.05    1.46
   2  18  11   -0.02    0.95
  -2  18 -11   -0.68    1.01
   4  18 -11   10.47    2.94
   4 -18  11   10.78    2.69
  -4  18  11    8.77    2.34
   4  18  11    8.25    1.94
  -4  18 -11    9.44    2.60
  -4 -18  11    8.32    2.20
   6 -18  11   -0.63    1.45
   6  18 -11    1.77    1.38
  -6  18  11    0.29    1.41
   6  18  11   -0.79    0.97
   8  18 -11    3.08    2.01
  -8  18  11   10.27    3.03
   8 -18  11    7.32    2.92
   8  18  11    7.49    2.09
   1  19 -11    3.80    1.66
   1 -19  11    4.57    1.76
  -1  19  11    2.29    1.54
  -1  19 -11    8.72    2.75
  -1 -19  11    0.43    1.21
   1  19  11    4.56    1.48
  -3  19  11    2.25    1.62
   3 -19  11   -0.16    1.27
   3  19 -11    1.76    1.66
  -3  19 -11   -1.01    1.15
  -3 -19  11    3.71    1.97
   3  19  11    0.68    1.28
   5  19 -11    7.04    2.40
   5 -19  11    3.74    2.27
  -5  19  11    9.84    2.66
  -5 -19  11    6.77    1.69
   5  19  11    5.93    1.80
  -5  19 -11    6.37    2.10
   7  19 -11    1.86    1.65
   7 -19  11    1.12    1.83
  -7  19  11   -3.01    1.39
   7  19  11   -0.02    1.39
   0  20  11    7.74    2.28
   0 -20  11   10.88    2.44
   0  20 -11    7.40    2.47
   2 -20  11   12.52    2.85
   2  20 -11   22.45    4.11
  -2  20  11   17.25    3.45
   2  20  11   18.09    3.17
  -2  20 -11   16.67    3.54
  -2 -20  11   15.38    2.54
   4 -20  11    3.59    2.05
   4  20 -11    3.80    2.12
  -4  20  11    3.29    2.01
   4  20  11    9.78    2.19
  -4  20 -11    4.16    2.05
  -4 -20  11    4.29    1.76
   6  20 -11   16.51    3.41
   6 -20  11   12.47    3.65
  -6  20  11   11.10    2.98
   6  20  11   14.70    2.58
  -6  20 -11   12.29    2.91
   8  20 -11    3.58    2.05
  -8  20  11    1.29    2.03
   8 -20  11    4.92    2.95
   8  20  11    0.79    1.62
   1 -21  11    9.22    2.50
  -1  21  11    4.00    1.71
   1  21 -11    2.03    1.63
   1  21  11    4.18    1.62
  -1  21 -11    2.97    1.97
  -1 -21  11    2.27    1.74
   3  21 -11    7.84    2.74
   3 -21  11    2.26    1.97
  -3  21  11    5.38    2.27
  -3  21 -11    5.22    2.40
   3  21  11    5.86    1.72
  -3 -21  11    4.91    1.98
   5  21 -11    1.61    1.49
   5 -21  11    0.07    1.61
  -5  21  11    1.07    1.29
   5  21  11    0.90    1.18
  -5  21 -11   -0.29    1.50
   7 -21  11    8.18    3.50
   7  21 -11    5.56    2.18
  -7  21  11    5.20    2.47
   7  21  11    4.58    1.85
   0  22  11    1.19    1.40
   0  22 -11    1.75    1.59
   0 -22  11   -0.04    1.21
  -2  22  11    2.70    1.95
   2  22 -11    1.92    1.85
   2 -22  11    1.20    1.46
   2  22  11    1.53    1.49
  -2  22 -11    7.75    2.51
  -4  22  11    0.24    1.29
   4  22 -11    0.18    1.54
   4 -22  11    0.33    1.56
  -4 -22  11   -2.50    1.14
   4  22  11   -0.69    1.27
  -4  22 -11    1.46    1.53
  -6  22  11   -0.47    1.22
   6  22 -11    4.15    2.25
   6 -22  11    4.33    2.81
  -6  22 -11    2.84    2.03
   6  22  11    4.89    1.63
  -1  23  11   13.08    3.02
   1  23 -11   11.52    3.06
   1 -23  11    4.57    2.00
  -1  23 -11   13.67    3.39
  -1 -23  11    9.65    2.48
   1  23  11   10.57    2.47
   3 -23  11   18.14    4.32
  -3  23  11   16.13    3.35
   3  23 -11   12.20    3.34
   3  23  11   12.24    2.51
  -3 -23  11   13.89    2.72
  -3  23 -11   13.86    3.47
  -5  23  11    3.23    2.03
   5 -23  11    6.99    2.81
   5  23 -11    3.88    2.19
  -5  23 -11    1.67    1.93
   5  23  11    0.66    1.27
   0  24  11    0.51    1.36
   0  24 -11    1.13    1.95
   0 -24  11    2.44    1.83
  -2  24  11    8.08    2.41
   2 -24  11   11.28    3.15
   2  24 -11    8.71    3.08
  -2  24 -11    7.62    2.71
  -2 -24  11    4.76    2.41
   2  24  11    7.93    2.32
  -4  24  11    0.27    1.56
   4 -24  11    2.79    2.28
   4  24 -11   -1.03    1.44
  -4  24 -11    0.05    1.57
   4  24  11    0.20    1.45
   6 -24  11   -0.85    3.58
   1 -25  11    2.09    2.04
  -1  25  11    1.62    1.57
   1  25 -11    1.51    1.64
  -1 -25  11    0.29    1.78
  -1  25 -11   -0.76    1.49
   1  25  11    1.63    1.53
  -3  25  11    0.05    1.77
   3 -25  11   -0.02    1.69
   3  25 -11    2.01    2.00
  -3 -25  11    3.79    1.86
  -3  25 -11    0.50    1.61
   3  25  11    1.17    1.27
   5  25 -11    2.03    2.09
  -5  25  11    0.33    1.83
   5 -25  11    1.62    3.11
   5  25  11   -0.06    1.84
   0  26  11   15.86    3.14
   0 -26  11   19.46    3.78
   0  26 -11   22.32    4.36
  -2  26  11   -0.01    1.37
   2 -26  11    2.23    2.14
   2  26 -11   -0.08    1.88
  -2  26 -11   -0.55    1.65
  -2 -26  11    0.20    2.37
   2  26  11    0.90    1.48
   1 -27  11    3.15    2.75
   1  27  11    6.74    3.04
  -1 -27  11    5.57    2.50
   0   0  12  184.60    9.28
  -2   0  12    1.98    1.29
   2   0  12    1.52    1.23
   2   0  12    2.12    1.34
  -4   0  12  149.91    8.54
   4   0  12  147.22    7.52
  -6   0  12    0.21    1.44
   6   0  12    1.06    1.21
   6   0  12    1.14    1.41
   8   0  12   89.01    6.44
   8   0  12   76.83    6.55
  10   0  12    0.80    1.87
 -10   0  12   -2.03    2.25
  10   0  12    1.81    2.03
   1  -1  12    2.53    1.15
  -1   1  12    4.77    1.82
   1  -1  12    4.04    1.61
   1   1  12    3.82    1.35
   1   1  12    4.00    1.73
  -1  -1  12    6.10    2.02
  -3   1  12    4.46    1.80
   3  -1  12    3.09    1.46
   3  -1  12    1.90    1.32
   3   1  12    1.97    1.27
  -3  -1  12    2.60    1.45
   3   1  12    3.46    1.61
  -5   1  12    3.14    1.74
   5  -1  12    1.76    1.32
   5  -1  12    5.46    2.01
   5   1  12    1.58    1.52
   5   1  12    3.11    1.69
  -5  -1  12    4.90    1.91
  -7   1  12   -0.11    1.49
   7  -1  12   -0.66    1.14
   7  -1  12    0.45    1.26
   7   1  12   -1.91    1.31
   7   1  12   -1.23    0.96
  -7  -1  12   -4.66    2.19
  -9   1  12   -0.19    1.91
   9  -1  12    5.39    2.21
   9  -1  12    0.99    1.48
   9   1  12    2.45    2.10
  -9  -1  12    0.57    1.52
   9   1  12    1.55    1.55
  11  -1  12    1.59    1.74
  11  -1  12   -3.29    1.46
  11   1  12    0.40    1.65
  11   1  12   -0.27    1.64
   0   2  12   22.89    3.67
   0  -2  12   19.77    3.42
  -2   2  12    1.28    1.35
   2  -2  12    0.69    1.22
   2  -2  12    2.92    1.37
   2   2  12    3.31    1.60
  -2  -2  12    2.60    1.62
   2   2  12    3.46    1.29
  -4   2  12   17.02    3.30
   4  -2  12   13.01    3.08
   4  -2  12   19.19    3.24
   4   2  12   18.01    5.11
  -4  -2  12   16.34    3.30
   4   2  12   19.10    3.13
   6  -2  12    3.01    1.66
   6  -2  12    2.83    1.51
   6   2  12    1.05    1.35
  -6  -2  12    5.36    2.30
   6   2  12    2.87    1.58
   8  -2  12    5.30    2.21
   8  -2  12    9.10    2.75
  -8   2  12    6.76    2.67
  -8  -2  12    3.99    2.07
   8   2  12   11.03    2.76
   8   2  12    9.92    2.78
  10  -2  12    1.32    2.11
 -10   2  12   -1.83    1.47
  10  -2  12    1.89    1.75
  10   2  12    1.91    2.22
  10   2  12    0.42    1.44
   1  -3  12    7.77    1.64
   1  -3  12    8.62    2.36
  -1   3  12    5.36    1.88
   1   3  12    8.74    2.26
  -1  -3  12    4.95    1.83
   3  -3  12    7.41    2.08
  -3   3  12    7.41    2.34
   3  -3  12    7.72    2.44
   3   3  12    9.08    2.05
   3   3  12    4.98    1.96
  -3  -3  12    9.29    2.33
  -5   3  12    2.27    1.79
   5  -3  12    2.38    1.49
   5  -3  12    3.47    1.85
  -5  -3  12    4.09    1.88
   5   3  12    5.46    2.08
   5   3  12    5.89    1.96
   7  -3  12    7.14    2.35
  -7   3  12    3.39    2.48
   7  -3  12    9.46    2.84
   7   3  12    3.92    1.92
  -7  -3  12    4.77    2.24
   7   3  12    4.11    2.06
  -9   3  12   -0.43    1.99
   9  -3  12    0.47    1.63
   9  -3  12    1.23    1.59
   9   3  12    3.84    1.64
   9   3  12    2.87    2.15
  -9  -3  12    2.77    1.55
  11  -3  12    4.95    2.41
  11  -3  12    3.97    2.81
  11   3  12    2.80    2.62
  11   3  12    1.20    1.78
   0  -4  12    1.90    1.73
   0  -4  12    2.66    1.56
   0   4  12    0.16    0.94
  -2   4  12   74.74    5.63
   2  -4  12   75.41    4.70
   2  -4  12   72.96    5.83
   2   4  12   86.62    6.00
  -2  -4  12   72.50    5.66
   2   4  12   74.70    4.38
  -4   4  12    2.15    1.67
   4  -4  12    1.25    1.39
   4  -4  12    2.15    1.37
  -4  -4  12    3.34    1.65
   4   4  12    1.32    1.24
   4   4  12    0.25    0.94
  -6   4  12   49.34    5.01
   6   4  12   45.73    7.76
   6   4  12   48.68    4.52
  -6  -4  12   43.05    4.66
  -8   4  12   -0.06    2.00
   8  -4  12    2.69    1.80
   8  -4  12    0.14    1.65
  -8  -4  12   -0.44    1.31
   8   4  12    0.47    1.15
   8   4  12    1.65    1.60
  10  -4  12   25.07    4.81
  10  -4  12   25.49    4.26
  10   4  12   23.55    3.84
  10   4  12   24.92    4.48
   1  -5  12    0.42    1.13
  -1   5  12    0.52    1.25
   1   5  12    0.52    1.08
  -1  -5  12    0.26    1.07
  -3   5  12   -0.28    0.95
   3  -5  12    0.04    1.13
   3   5  12    1.07    1.01
  -3  -5  12   -1.84    0.92
  -5   5  12    2.85    1.79
   5  -5  12   -0.71    1.13
  -5  -5  12    1.68    1.41
   5   5  12    0.21    1.17
   5   5  12    0.95    1.25
   7  -5  12    1.03    1.41
  -7   5  12   -2.66    1.25
   7   5  12    1.96    1.61
   7   5  12    0.06    1.07
  -7  -5  12   -2.17    1.19
   9  -5  12    2.33    2.03
  -9   5  12   -3.64    1.68
   9   5  12    0.30    1.68
   9   5  12    1.07    1.38
  11  -5  12    2.02    1.79
 -11   5  12   -3.02    1.88
  11  -5  12    3.08    3.15
  11   5  12   -0.57    2.09
  11   5  12   -2.35    1.46
   0  -6  12    3.08    1.70
   0  -6  12    4.74    1.23
   0   6  12    6.47    2.04
   2  -6  12  110.64    7.23
   2  -6  12  107.98    5.79
  -2   6  12  100.46    6.59
   2   6  12   97.11    6.54
  -2  -6  12  110.66    6.95
  -4   6  12    2.82    2.01
   4  -6  12    3.64    1.59
   4   6  12    3.03    1.55
  -4  -6  12    2.16    1.67
   4   6  12    3.84    1.56
   6  -6  12   66.76    6.06
  -6   6  12   90.41    6.73
   6   6  12   70.15    6.05
  -6  -6  12   64.55    5.36
   6   6  12   65.63    5.31
  -8   6  12    3.78    2.63
   8  -6  12    1.68    1.65
   8   6  12    2.78    1.83
   8   6  12    1.63    1.38
  -8  -6  12   -0.70    1.27
  10  -6  12   41.84    5.36
  10   6  12   38.69    4.94
  10   6  12   39.90    4.07
   1  -7  12    0.46    0.97
  -1   7  12    0.22    1.21
   1  -7  12    1.91    1.18
   1   7  12    4.14    1.67
  -1  -7  12    1.61    1.43
   3  -7  12    2.98    1.44
   3   7  12    0.98    1.05
   3   7  12    0.76    1.18
  -3  -7  12    2.44    1.47
   5  -7  12    0.85    1.55
  -5   7  12    1.25    1.38
  -5  -7  12    0.47    1.23
   5   7  12    0.92    1.37
   5   7  12    3.20    1.55
   7  -7  12    1.23    1.64
  -7   7  12   -0.10    1.57
  -7  -7  12    1.04    1.38
   7   7  12    2.38    1.81
   7   7  12    0.72    0.97
  -9   7  12   -1.88    2.20
   9  -7  12    3.28    2.10
   9   7  12    1.77    1.53
   9   7  12    0.50    1.55
   0  -8  12    1.41    1.12
   0  -8  12   -0.59    0.81
   0   8  12   -0.07    1.03
   2  -8  12   15.23    2.60
  -2   8  12   14.35    3.97
  -2  -8  12   18.43    3.43
   2   8  12   15.15    3.10
   4  -8  12   -0.09    1.26
  -4   8  12    0.22    0.99
   4   8  12   -0.99    0.93
  -4  -8  12    0.57    1.11
   4   8  12    2.69    1.48
  -6   8  12    9.17    2.83
   6  -8  12    9.18    2.83
  -6  -8  12    8.41    2.31
   6   8  12   12.51    2.77
   6   8  12    9.53    2.20
   8  -8  12    1.14    1.53
  -8   8  12    0.21    1.89
   8   8  12    0.72    1.60
   8   8  12    1.45    1.33
 -10   8  12    1.95    2.71
  10  -8  12    4.31    2.72
  10   8  12    3.51    1.66
  10   8  12   -0.19    1.76
   1  -9  12    7.50    1.92
  -1   9  12    4.45    1.70
   1   9  12    3.84    1.78
  -1  -9  12    5.25    2.07
   3  -9  12    3.54    1.68
  -3   9  12    5.55    1.90
  -3  -9  12    4.34    1.87
   3   9  12    1.60    1.31
   5  -9  12    4.50    2.24
  -5   9  12    6.79    2.34
   5   9  12    6.00    1.99
  -5  -9  12    4.12    1.92
   5   9  12    4.92    1.71
  -7   9  12   -0.24    1.55
   7  -9  12    1.63    1.62
   7   9  12    2.57    1.38
   7   9  12    2.78    1.86
  -9   9  12    5.66    3.07
   9  -9  12    3.33    2.13
   9   9  12    2.92    1.93
   9   9  12    2.00    1.68
   0 -10  12  100.28    6.92
   0  10  12  103.81    6.63
   2 -10  12    4.93    1.68
  -2  10  12    3.96    1.84
  -2 -10  12    1.53    1.26
   2  10  12    2.79    1.61
  -4  10  12   77.54    6.00
   4 -10  12   81.54    6.00
  -4 -10  12   78.84    5.93
   4  10  12   76.81    5.53
   6 -10  12    1.03    1.45
  -6  10  12    3.65    2.11
   6  10  12    4.49    1.72
  -6 -10  12    3.04    1.47
   6  10  12    3.94    1.66
  -8  10  12   44.34    5.72
   8 -10  12   50.51    5.74
   8  10  12   64.18    5.56
   8  10  12   50.36    4.46
  10 -10  12    0.16    1.82
 -10  10  12   -2.38    2.51
  10  10  12    0.14    1.31
  10  10  12    0.12    1.73
  -1  11  12   -0.84    1.03
   1 -11  12   -1.96    1.15
   1  11  12    0.24    1.09
  -1 -11  12    0.62    1.21
   3 -11  12    0.75    1.46
  -3  11  12    1.05    1.37
  -3 -11  12   -0.67    0.96
   3  11  12    1.86    1.35
   5 -11  12   -0.40    1.28
  -5  11  12   -0.39    1.09
  -5 -11  12   -2.00    1.28
   5  11  12    0.30    1.32
  -7  11  12    0.41    1.63
   7 -11  12   -0.79    1.31
   7  11  12    1.69    1.47
  -7 -11  12   -0.95    1.21
   7  11  12    2.41    1.70
   9 -11  12   -2.31    1.40
  -9  11  12    1.09    2.31
   9  11  12    2.13    1.97
   9  11  12    0.73    1.37
   0  12 -12   52.36    5.08
   0 -12  12   44.66    3.57
   0  12  12   47.84    4.42
   2 -12  12   18.61    3.17
  -2  12  12   19.42    3.44
   2  12 -12   17.54    3.57
   2  12  12   14.58    2.91
  -2 -12  12   18.73    4.08
   4 -12  12   38.89    4.51
  -4  12  12   38.50    4.33
  -4 -12  12   40.88    3.98
   4  12  12   39.34    3.92
   6 -12  12   14.75    3.14
  -6  12  12    9.86    2.76
   6  12  12   15.82    2.95
  -6 -12  12   13.46    2.39
  -8  12  12   17.23    4.02
   8 -12  12   25.11    4.98
   8  12  12   19.31    3.36
 -10  12  12    4.36    3.96
  10 -12  12    6.00    4.50
  10  12  12   10.20    2.33
   1  13 -12    1.41    1.62
  -1  13  12   -0.87    0.99
   1 -13  12    1.77    1.41
  -1  13 -12    0.90    1.51
   1  13  12    1.57    1.34
  -1 -13  12    0.75    1.22
   3 -13  12    1.75    1.58
  -3  13  12   -0.45    1.26
   3  13 -12    3.55    1.93
   3  13  12    0.62    1.10
   5 -13  12    1.85    1.79
  -5  13  12    1.63    1.58
   5  13  12    0.29    1.16
  -5 -13  12    1.87    1.52
   7 -13  12    8.91    2.49
  -7  13  12    2.90    2.04
   7  13  12    2.90    1.39
  -9  13  12   -1.50    2.12
   9 -13  12   -2.36    1.91
   9  13  12    2.26    1.67
   0  14 -12   26.19    4.28
   0  14  12   26.92    3.40
   0 -14  12   32.86    3.35
   2  14 -12   14.75    3.53
   2 -14  12   13.56    3.01
  -2  14  12   13.99    2.92
  -2  14 -12   14.38    3.16
   2  14  12   10.83    2.50
  -2 -14  12   11.15    2.59
  -4  14  12   20.22    3.64
   4  14 -12   24.98    4.36
   4 -14  12   22.05    3.97
   4  14  12   23.66    3.01
  -4 -14  12   15.26    4.92
  -6  14  12    9.08    2.84
   6 -14  12   12.27    3.27
   6  14  12    4.13    1.83
  -6 -14  12    6.24    1.81
   8 -14  12    7.77    2.85
  -8  14  12   16.32    4.03
   8  14  12   12.45    2.80
   1  15 -12    1.88    1.66
  -1  15  12    2.84    1.62
   1 -15  12    3.38    1.62
  -1  15 -12    4.46    1.93
   1  15  12    0.80    1.25
  -1 -15  12    2.03    1.45
   3 -15  12   -0.18    1.64
  -3  15  12    2.09    1.38
   3  15 -12    2.83    1.72
  -3  15 -12    4.34    1.73
   3  15  12    2.12    1.51
  -3 -15  12    2.40    1.57
  -5  15  12    4.57    2.13
   5  15 -12    1.35    1.82
   5 -15  12    2.78    2.12
  -5 -15  12    3.60    1.63
   5  15  12    0.63    1.47
  -7  15  12    2.17    1.75
   7 -15  12   -0.29    1.80
   7  15  12    1.99    1.57
   9 -15  12    1.05    2.57
  -9  15  12   -1.29    2.77
   9  15  12   -0.26    1.58
   0 -16  12    3.17    1.56
   0  16 -12    2.96    1.77
   0  16  12    4.21    1.88
   2 -16  12   43.24    4.42
   2  16 -12   51.90    5.24
  -2  16  12   56.39    5.03
  -2 -16  12   57.99    4.70
   2  16  12   58.52    4.75
  -2  16 -12   55.70    5.26
   4  16 -12   -0.54    1.48
   4 -16  12    3.74    1.94
  -4  16  12    2.79    1.73
   4  16  12    0.44    1.31
  -4 -16  12    3.34    1.59
   6  16 -12   30.07    4.77
   6 -16  12   25.30    4.52
  -6  16  12   37.15    4.46
   6  16  12   31.88    3.56
   8 -16  12    4.57    2.61
  -8  16  12    4.14    2.16
   8  16  12    2.82    1.73
  -1  17  12    1.46    1.41
   1 -17  12    1.57    1.29
   1  17 -12    1.25    1.52
  -1  17 -12    1.76    1.70
   1  17  12    2.16    1.40
   3 -17  12    1.15    1.62
  -3  17  12    1.64    1.78
   3  17 -12    2.13    1.68
  -3 -17  12    0.77    1.18
  -3  17 -12    0.64    1.22
   3  17  12    0.14    0.98
   5 -17  12   -2.37    1.29
  -5  17  12    2.39    1.57
   5  17 -12    0.96    1.49
   5  17  12    1.80    1.20
  -5 -17  12    0.11    1.37
  -7  17  12   -0.52    1.61
   7 -17  12   -0.39    1.70
   7  17  12    0.01    1.27
   0  18  12    7.67    2.42
   0  18 -12    6.16    2.35
   0 -18  12    9.86    2.29
  -2  18  12   28.64    3.74
   2  18 -12   30.54    4.90
   2 -18  12   29.73    3.76
   2  18  12   25.40    3.87
  -2 -18  12   34.51    3.62
  -2  18 -12   32.99    4.22
  -4  18  12    7.52    2.52
   4 -18  12    6.10    2.22
   4  18 -12    7.02    2.63
  -4  18 -12    7.66    2.42
   4  18  12    7.94    2.23
  -4 -18  12    6.69    1.85
   6  18 -12   17.62    3.63
   6 -18  12   25.74    4.95
  -6  18  12   21.09    3.60
   6  18  12   17.33    3.05
   1  19 -12    1.18    1.43
   1 -19  12    2.74    1.85
  -1  19  12    4.99    1.92
  -1  19 -12    2.63    1.60
   1  19  12    0.60    1.29
   3 -19  12    2.42    2.04
  -3  19  12   -0.56    1.23
   3  19 -12    1.51    1.63
   3  19  12    2.39    1.57
  -3 -19  12    0.56    1.23
  -3  19 -12    3.12    2.10
  -5  19  12    4.27    1.95
   5  19 -12    6.64    2.38
   5 -19  12    3.73    2.03
   7 -19  12   -2.22    1.89
   7  19 -12   -2.54    1.19
  -7  19  12    3.86    2.33
   7  19  12    1.73    1.53
   0  20  12   17.63    3.40
   0 -20  12   15.25    2.98
   0  20 -12   17.72    3.82
  -2  20  12   19.58    3.69
   2  20 -12   19.89    4.12
   2 -20  12   19.91    3.55
  -2 -20  12   16.16    2.88
  -2  20 -12   23.12    4.02
   2  20  12   15.79    2.95
   4 -20  12   20.85    4.04
  -4  20  12   14.60    3.14
   4  20 -12   12.33    3.19
  -4  20 -12   16.41    3.61
   4  20  12   16.23    2.93
  -4 -20  12   17.30    2.68
   6 -20  12   14.71    3.66
   6  20 -12    8.28    2.73
  -6  20  12   13.16    3.26
   6  20  12    7.27    2.15
   1  21 -12    0.26    1.69
  -1  21  12   -0.23    1.18
   1 -21  12    2.68    1.69
  -1  21 -12    0.76    1.49
   1  21  12    0.96    1.42
  -3  21  12    3.73    2.04
   3 -21  12    2.54    2.20
   3  21 -12    2.72    1.81
  -3 -21  12    3.81    1.71
  -3  21 -12    0.73    1.96
   3  21  12    3.97    1.83
   5  21 -12    0.34    1.56
   5 -21  12    1.20    2.13
  -5  21  12    2.23    1.97
  -5  21 -12    2.88    1.82
   5  21  12    1.24    1.47
   0  22  12   17.24    3.41
   0 -22  12    9.88    2.45
   0  22 -12   22.88    4.41
   2 -22  12    9.16    2.49
  -2  22  12    7.20    2.56
   2  22 -12   10.30    2.91
  -2 -22  12    9.73    2.31
   2  22  12    4.33    1.71
  -2  22 -12    6.59    2.17
   4  22 -12   13.54    3.54
   4 -22  12   10.36    3.32
  -4  22  12   11.81    3.07
   4  22  12   11.92    2.63
  -4  22 -12   12.02    3.18
  -1  23  12   -0.79    1.36
   1 -23  12   -0.37    1.98
   1  23 -12    1.65    1.69
   1  23  12    1.88    1.27
  -1  23 -12   -0.03    1.38
   3  23 -12    0.52    1.46
   3 -23  12   -2.33    1.68
  -3  23  12   -1.44    1.35
  -3 -23  12    0.07    1.64
  -3  23 -12    0.66    1.85
   3  23  12   -0.56    1.27
   0  24 -12   40.68    4.75
   0 -24  12   37.87    4.69
   0  24  12   33.13    3.96
   2 -24  12    1.12    2.04
  -2  24  12    1.79    1.84
   2  24 -12   -2.08    1.17
  -2  24 -12    3.28    2.01
   2  24  12    1.74    1.65
  -2 -24  12    0.56    1.47
   1 -25  12    2.51    2.19
  -1  25  12    1.22    2.24
   1  25 -12   -0.14    1.98
   1  25  12   -0.74    2.90
  -1  25 -12    2.46    2.78
   0   0  13   -1.62    0.78
  -2   0  13   -1.09    1.00
   2   0  13    0.05    1.16
   2   0  13    3.25    1.38
  -4   0  13   -1.96    1.12
   4   0  13   -1.37    1.03
   4   0  13   -1.96    1.03
  -6   0  13    0.41    1.62
   6   0  13    0.99    1.43
   6   0  13    1.91    1.61
  -8   0  13   -2.27    1.50
   8   0  13   -1.60    1.31
   8   0  13   -1.85    1.52
  10   0  13    2.05    2.37
  10   0  13   -1.31    1.39
   1  -1  13    0.77    1.17
  -1   1  13    1.75    1.51
   1   1  13    0.97    1.08
  -1  -1  13    1.18    1.34
   3  -1  13    5.51    1.76
   3  -1  13    3.21    1.69
  -3   1  13    1.50    1.57
   3   1  13    3.30    1.50
   3   1  13    3.64    1.79
  -3  -1  13    3.50    1.67
   5  -1  13    0.17    1.41
  -5   1  13    0.47    1.30
   5   1  13    0.73    2.00
   5   1  13   -0.31    1.26
  -5  -1  13   -0.34    1.25
   7  -1  13    6.72    2.24
   7  -1  13    5.05    2.30
  -7   1  13    7.25    2.55
   7   1  13    6.69    2.14
   7   1  13    6.01    2.26
  -9   1  13   -3.61    1.63
   9  -1  13    1.28    2.20
   9  -1  13    1.34    1.56
  -9  -1  13   -0.26    1.90
   9   1  13    0.73    1.69
   9   1  13    0.92    1.38
   0  -2  13   46.82    4.65
   0   2  13   46.88    4.63
   2  -2  13   17.56    3.55
   2  -2  13   22.77    2.57
  -2   2  13   24.33    3.86
   2   2  13   17.20    2.21
  -2  -2  13   21.19    3.66
   2   2  13   11.05    2.94
  -4   2  13   42.56    4.70
   4  -2  13   36.47    3.83
   4  -2  13   38.26    4.48
  -4  -2  13   46.19    4.70
   4   2  13   43.39    4.55
   4   2  13   42.53    3.90
   6  -2  13   10.71    2.42
   6  -2  13   17.10    3.56
  -6   2  13    6.79    2.56
   6   2  13   13.27    3.04
   6   2  13   14.88    3.17
  -6  -2  13   13.39    3.30
  -8   2  13   21.15    4.10
   8  -2  13   27.16    4.69
   8  -2  13   22.31    3.89
  -8  -2  13   16.51    3.25
   8   2  13   29.69    4.48
   8   2  13   27.32    4.58
  10  -2  13    3.97    2.71
 -10   2  13    3.15    2.69
  10  -2  13   12.30    4.57
  10   2  13    2.75    2.79
  10   2  13    8.54    2.74
  -1   3  13   -0.14    1.06
   1  -3  13    0.11    1.24
  -1  -3  13    1.79    1.51
   1   3  13    0.37    1.23
  -3   3  13   -0.80    0.83
   3  -3  13   -0.73    1.01
   3  -3  13    0.21    1.11
   3   3  13   -0.20    1.21
  -3  -3  13   -1.11    1.23
   3   3  13   -0.20    0.99
  -5   3  13   -0.62    1.31
   5  -3  13    3.58    1.91
   5   3  13    1.68    1.55
   7  -3  13    1.31    1.54
   7  -3  13   -0.47    1.29
  -7   3  13    2.13    1.70
   7   3  13    0.43    1.50
   7   3  13    0.62    1.44
  -7  -3  13   -1.15    1.41
  -9   3  13    1.05    1.91
   9  -3  13    2.39    1.76
   9  -3  13   -1.46    1.80
   9   3  13    0.18    1.38
   9   3  13    1.01    1.76
   0  -4  13   10.37    2.55
   0   4  13    9.85    2.73
   2  -4  13   51.09    4.99
  -2   4  13   43.11    4.56
   2  -4  13   48.21    3.67
   2   4  13   46.55    4.69
  -2  -4  13   48.22    4.73
  -4   4  13   10.11    2.58
   4  -4  13    7.65    2.18
   4  -4  13    3.76    1.84
   4   4  13    6.17    2.18
  -4  -4  13    4.01    2.08
   4   4  13    4.90    2.14
   6  -4  13   35.62    4.37
  -6   4  13   39.92    4.62
   6  -4  13   28.13    3.88
   6   4  13   34.73    4.02
   6   4  13   38.23    4.06
  -6  -4  13   30.29    4.67
   8  -4  13    7.51    2.52
  -8   4  13   -3.60    1.92
   8  -4  13    4.91    2.37
   8   4  13    2.48    2.10
  -8  -4  13    3.04    1.79
   8   4  13    4.66    1.95
  10  -4  13   16.95    5.56
 -10   4  13    6.17    2.58
  -1   5  13    1.87    1.57
   1  -5  13    0.32    1.11
   1   5  13    1.18    1.39
  -1  -5  13    0.48    1.20
   3  -5  13    1.26    1.33
   3  -5  13    0.53    1.14
  -3   5  13    1.33    1.52
   3   5  13    1.09    1.19
  -3  -5  13   -1.16    0.95
  -5   5  13    7.82    2.43
   5  -5  13    2.61    1.70
   5  -5  13    7.12    2.35
   5   5  13    3.85    1.83
  -5  -5  13    4.22    2.14
   5   5  13    5.72    2.06
   7  -5  13    1.50    1.81
   7  -5  13    1.01    1.58
  -7   5  13    4.68    2.55
   7   5  13   -0.54    1.42
  -7  -5  13    5.81    1.85
   7   5  13    1.67    1.62
  -9   5  13    2.75    2.76
   9  -5  13    5.01    2.24
   9  -5  13    5.93    2.48
   9   5  13    6.61    2.20
   9   5  13    4.50    2.43
   0  -6  13    0.63    1.46
   0   6  13    1.29    1.21
   2  -6  13   14.42    2.40
  -2   6  13   10.25    2.61
  -2  -6  13   13.36    3.20
   2   6  13    8.97    2.37
   4  -6  13    1.44    1.49
   4  -6  13    0.78    1.33
  -4   6  13    1.89    1.62
   4   6  13    2.00    1.35
  -4  -6  13    3.03    1.69
   4   6  13    3.34    1.55
   6  -6  13   10.00    2.94
   6  -6  13    9.32    2.78
  -6   6  13   11.14    3.35
   6   6  13    5.12    2.02
   6   6  13    4.25    2.02
  -6  -6  13    4.89    2.36
   8  -6  13    2.18    2.19
   8  -6  13    4.88    2.08
  -8   6  13   -1.81    1.93
  -8  -6  13   -2.06    1.48
   8   6  13    1.62    1.56
   8   6  13    1.89    1.76
  -1   7  13   -0.01    0.98
   1  -7  13   -0.84    1.01
  -1  -7  13   -0.02    1.14
   1   7  13    0.77    1.20
  -3   7  13   -0.88    1.04
   3  -7  13   -1.18    0.71
   3  -7  13    3.44    1.54
  -3  -7  13    0.34    1.48
   3   7  13   -0.51    1.03
   5  -7  13    3.05    1.84
  -5   7  13    2.99    1.85
  -5  -7  13    1.65    1.53
   5   7  13    3.27    1.74
   5   7  13    1.26    1.50
   7  -7  13    0.06    1.54
  -7   7  13   -1.27    1.60
   7   7  13    2.06    1.65
  -7  -7  13    1.08    1.45
   7   7  13    0.06    1.50
  -9   7  13    0.69    2.49
   9  -7  13    2.37    2.32
   9  -7  13    0.16    1.36
   9   7  13    2.78    2.32
   9   7  13    2.73    1.85
   0  -8  13   49.53    4.84
   0   8  13   60.97    5.23
  -2   8  13   16.95    3.18
   2  -8  13   11.55    2.88
   2  -8  13   16.53    2.48
  -2  -8  13   15.76    3.27
   2   8  13   11.31    2.70
   4  -8  13   46.52    4.63
  -4   8  13   46.54    4.72
   4  -8  13   42.09    4.72
  -4  -8  13   38.88    4.39
   4   8  13   39.28    4.30
   6  -8  13   12.09    3.10
  -6   8  13   13.27    3.19
  -6  -8  13    9.14    2.49
   6   8  13    6.78    2.15
   6   8  13    8.17    2.25
  -8   8  13   22.89    4.65
   8  -8  13   31.26    5.22
   8   8  13   36.10    4.31
   8   8  13   23.46    3.88
  -1   9  13   -0.36    0.98
   1  -9  13   -2.09    1.77
   1  -9  13    0.23    1.18
  -1  -9  13    1.74    1.54
   1   9  13   -0.35    1.00
  -3   9  13    0.81    1.07
   3  -9  13    0.83    1.42
   3  -9  13    0.17    1.19
   3   9  13    0.59    1.13
  -3  -9  13    0.01    1.24
  -5   9  13    0.26    1.61
   5  -9  13    2.14    1.52
   5   9  13    2.43    1.47
  -5  -9  13    2.31    1.50
   7  -9  13    2.68    1.87
  -7   9  13    0.79    2.06
   7   9  13    5.51    2.06
  -7  -9  13    3.85    1.71
   7   9  13    1.77    1.47
   9  -9  13    5.53    2.92
  -9   9  13    2.69    2.54
   9   9  13    2.10    2.16
   9   9  13    4.31    2.00
   0  10  13   12.25    2.80
   0 -10  13   11.37    3.06
   2 -10  13   16.93    3.50
  -2  10  13   13.96    2.96
   2 -10  13   18.01    2.69
  -2 -10  13   21.29    3.53
   2  10  13   15.37    3.22
  -4  10  13    9.12    2.53
   4 -10  13   11.04    2.56
   4  10  13   13.84    3.03
  -4 -10  13   18.94    3.29
  -6  10  13   16.12    3.26
   6 -10  13   14.65    3.14
   6  10  13   12.82    3.03
  -6 -10  13    7.67    2.15
  -8  10  13    4.67    2.98
   8 -10  13    2.51    2.36
   8  10  13    7.27    2.24
   8  10  13    8.43    2.37
  -1  11  13   -1.00    1.16
   1 -11  13    0.14    1.53
   1 -11  13   -0.74    1.04
  -1 -11  13    0.36    1.07
   1  11  13    0.46    1.18
  -3  11  13   -1.51    1.12
   3 -11  13    0.02    1.30
  -3 -11  13    1.34    1.65
   3  11  13    0.40    1.14
  -5  11  13    1.79    1.50
   5 -11  13   -1.16    1.38
  -5 -11  13   -2.58    1.26
   5  11  13    0.79    1.37
  -7  11  13    1.70    2.07
   7 -11  13    2.50    1.80
   7  11  13   -0.08    1.46
   0  12  13    5.93    1.98
   0 -12  13    8.39    2.28
   2 -12  13    2.10    1.49
  -2  12  13   -0.72    1.03
   2  12  13    0.82    1.35
  -2 -12  13    1.12    1.40
   4 -12  13    5.06    2.21
  -4  12  13    4.64    2.18
   4  12  13    2.31    1.63
  -4 -12  13    1.31    1.50
  -6  12  13    0.17    1.88
   6 -12  13    1.60    1.70
  -6 -12  13    5.11    1.63
   6  12  13    0.61    1.45
   8 -12  13    3.46    2.16
  -8  12  13   -1.17    2.29
   8  12  13    4.50    1.94
   1 -13  13    1.22    1.53
  -1  13  13    2.05    1.52
   1 -13  13    0.28    1.04
   1  13  13   -0.18    1.01
  -1 -13  13    1.95    1.24
  -3  13  13    3.24    1.76
   3 -13  13   -0.77    1.35
   3  13  13    1.72    1.32
  -3 -13  13    0.09    1.30
   5 -13  13   -0.33    1.13
  -5  13  13   -0.24    1.45
  -5 -13  13   -0.81    1.23
   5  13  13   -0.28    1.03
   7 -13  13   -2.76    1.84
  -7  13  13   -0.43    1.65
   7  13  13    1.40    1.15
   0  14  13    9.21    2.60
   0 -14  13   14.68    3.01
   2 -14  13   38.06    4.68
  -2  14  13   46.61    4.65
   2  14  13   42.41    4.30
  -2 -14  13   43.47    4.14
  -4  14  13   11.20    2.69
   4 -14  13    9.84    2.39
  -4 -14  13    8.69    2.17
   4  14  13   10.70    2.47
  -6  14  13   41.64    4.90
   6 -14  13   26.55    4.36
   6  14  13   26.36    3.39
   1 -15  13    0.32    1.78
  -1  15  13    0.72    1.30
  -1 -15  13    0.96    1.16
   1  15  13    1.22    1.33
   3 -15  13   -0.09    1.44
  -3  15  13    0.54    1.45
  -3 -15  13   -0.16    1.37
   3  15  13   -0.66    1.40
   5 -15  13    4.25    1.99
  -5  15  13    1.68    1.73
   5  15  13    2.84    1.69
  -5 -15  13    2.92    1.80
  -7  15  13    1.55    1.80
   7 -15  13    5.45    2.50
   7  15  13    1.32    1.44
   0 -16  13   20.70    3.52
   0  16  13   21.23    3.64
   0  16 -13   19.46    4.00
   2  16 -13    0.15    1.57
  -2  16  13    1.57    1.41
   2 -16  13   -0.52    1.49
  -2 -16  13    2.71    1.52
   2  16  13    2.20    1.56
  -4  16  13   16.91    3.17
   4 -16  13   18.60    3.69
   4  16  13   21.61    3.47
  -4 -16  13   12.09    2.65
  -6  16  13    0.70    1.49
   6 -16  13    0.40    1.71
   6  16  13    0.35    1.38
  -1  17  13    0.59    1.32
   1  17 -13    1.39    1.77
   1 -17  13   -3.16    1.88
   1  17  13    2.11    1.39
  -1 -17  13    2.67    1.48
  -1  17 -13   -1.91    1.28
   3 -17  13    1.99    1.99
  -3  17  13   -0.39    1.37
   3  17 -13   -1.22    1.40
   3  17  13   -1.33    1.14
  -3 -17  13   -2.06    1.25
   5 -17  13    4.58    2.56
   5  17  13    0.57    1.39
   0  18 -13   14.77    3.68
   0 -18  13   13.85    3.07
   0  18  13    9.94    2.48
   2  18 -13   -0.24    1.61
  -2  18  13    1.96    1.80
   2 -18  13    2.17    1.86
  -2 -18  13    2.72    1.70
   2  18  13   -0.32    1.46
   4  18 -13   12.48    3.42
  -4  18  13    8.03    2.69
   4 -18  13   17.22    3.46
   4  18  13   10.18    2.53
  -4 -18  13    9.36    2.27
   6 -18  13    2.61    2.99
  -6  18  13   -1.80    1.67
   1  19 -13    1.13    1.55
  -1  19  13    0.29    1.40
   1  19  13   -0.50    1.26
  -1 -19  13    1.20    1.41
  -1  19 -13   -0.38    1.56
   3 -19  13    4.66    2.20
  -3  19  13   -2.58    1.26
   3  19 -13    2.69    2.09
  -3 -19  13    0.41    1.48
   3  19  13    0.49    1.19
   5 -19  13    0.19    1.91
   5  19  13    2.66    1.82
   0  20 -13   15.38    3.47
   0  20  13   11.36    2.89
   2  20 -13   20.87    4.00
   2 -20  13   24.83    4.25
  -2  20  13   20.25    3.92
   2  20  13   19.35    3.54
  -2 -20  13   18.84    3.23
  -2  20 -13   27.45    4.70
   4 -20  13    9.15    3.06
   4  20  13   11.50    2.57
  -1  21  13    0.00    1.35
   1  21 -13   -1.96    1.27
  -1 -21  13   -1.67    1.15
  -1  21 -13    0.42    1.56
   1  21  13    1.27    1.54
   3 -21  13    2.66    2.12
  -3 -21  13   -0.02    1.54
   3  21  13    2.26    2.20
   0  22  13    2.67    2.96
   0   0  14    7.24    2.36
   2   0  14   30.15    4.71
  -2   0  14   25.31    4.14
  -4   0  14    3.85    2.18
   4   0  14    7.89    2.65
   6   0  14   22.01    3.79
   6   0  14   21.59    3.82
  -6   0  14   20.95    4.13
   8   0  14    8.23    2.52
  -8   0  14    6.03    2.24
   8   0  14    8.42    2.76
  -1   1  14    1.99    1.72
   1   1  14    3.21    1.84
  -1  -1  14    1.89    1.67
   3  -1  14    2.54    1.86
  -3   1  14    1.22    1.50
   3  -1  14    3.82    1.54
   3   1  14    2.99    1.74
   3   1  14    4.27    1.61
  -3  -1  14    4.11    2.10
   5  -1  14    4.42    2.15
   5  -1  14    2.14    1.59
  -5   1  14   -1.87    1.50
   5   1  14    1.17    1.48
  -5  -1  14    1.05    1.53
   5   1  14   -0.67    1.64
   7  -1  14    7.90    2.78
   7  -1  14    1.36    1.63
  -7   1  14    3.48    2.46
   7   1  14    2.75    1.96
  -7  -1  14    4.88    2.57
   7   1  14    1.98    1.62
   0   2  14    4.39    1.88
   0  -2  14    6.53    2.43
  -2   2  14   39.14    4.43
   2  -2  14   45.96    4.85
  -2  -2  14   50.34    4.88
   2   2  14   41.22    4.54
   4  -2  14    4.94    2.15
  -4   2  14    7.11    2.51
   4   2  14    4.81    2.15
  -4  -2  14    8.55    2.74
  -6   2  14   34.97    5.32
   6  -2  14   35.85    4.07
   6  -2  14   37.36    4.34
  -6  -2  14   29.10    4.66
   6   2  14   31.27    3.99
   6   2  14   28.28    3.64
   8  -2  14    2.06    2.02
   8  -2  14    2.27    2.17
  -8   2  14   -1.17    2.01
   8   2  14    0.85    1.72
   8   2  14    3.56    1.93
  -8  -2  14    0.08    2.21
   1  -3  14   11.81    2.94
  -1   3  14    9.87    2.66
   1   3  14   10.38    2.60
  -1  -3  14   11.44    2.83
   3  -3  14    8.86    2.12
  -3   3  14   10.72    3.08
   3  -3  14    5.69    2.34
  -3  -3  14   10.90    2.59
   3   3  14    6.02    2.31
   5  -3  14    4.03    1.97
  -5   3  14   10.85    3.00
   5  -3  14    8.83    2.44
   5   3  14   11.01    2.95
  -5  -3  14    9.54    2.97
   5   3  14   11.87    2.71
  -7   3  14    3.69    2.55
   7  -3  14    4.57    2.28
   7  -3  14    6.09    2.43
   7   3  14    7.87    2.41
  -7  -3  14    7.55    2.61
   7   3  14    8.84    2.81
   0   4  14   24.00    4.01
   0  -4  14   22.27    3.97
   2  -4  14   -0.41    1.01
  -2   4  14    0.14    1.19
   2   4  14   -0.29    0.79
  -2  -4  14    0.93    1.29
  -4   4  14   24.59    4.16
   4  -4  14   18.32    2.89
   4  -4  14   17.20    3.83
   4   4  14   22.63    3.01
   4   4  14   14.67    3.31
  -4  -4  14   16.02    3.56
  -6   4  14    0.42    1.86
   6  -4  14   -1.34    1.35
   6  -4  14   -0.04    1.42
   6   4  14    0.38    1.48
   6   4  14    1.16    1.50
  -6  -4  14    0.01    1.65
   8  -4  14    9.78    3.21
   8  -4  14    6.55    2.74
  -8   4  14    4.31    3.39
   8   4  14    6.44    2.26
   8   4  14   12.70    2.98
  -8  -4  14    7.91    2.58
  -1   5  14    2.40    1.86
   1  -5  14    3.09    1.82
   1   5  14   -0.01    1.19
  -1  -5  14    0.65    1.66
  -3   5  14    2.85    1.69
   3  -5  14    2.85    1.83
   3  -5  14    2.11    1.86
   3   5  14    0.95    1.55
  -3  -5  14    1.17    1.41
   5  -5  14   -1.00    1.50
  -5   5  14   -1.01    1.21
   5  -5  14    0.72    1.26
   5   5  14    2.21    1.52
  -5  -5  14    1.50    1.63
   5   5  14    0.68    1.54
   7  -5  14    4.73    2.28
  -7   5  14    0.69    2.25
   7  -5  14    0.66    1.54
  -7  -5  14    0.28    1.72
   7   5  14    1.78    1.60
   7   5  14    1.24    1.52
   0   6  14   53.83    5.21
   0  -6  14   47.50    4.92
  -2   6  14    0.81    1.45
   2  -6  14    4.05    1.84
  -2  -6  14    4.22    1.74
   2   6  14    2.67    1.71
  -4   6  14   40.81    4.72
   4  -6  14   44.59    4.09
   4  -6  14   49.76    5.15
   4   6  14   38.70    4.36
  -4  -6  14   40.59    4.62
   6  -6  14    4.43    2.00
  -6   6  14    6.51    2.55
   6  -6  14    4.67    2.12
   6   6  14    1.35    1.73
   6   6  14    1.90    1.76
  -6  -6  14    5.31    2.39
  -8   6  14   20.41    4.36
   8  -6  14   28.93    4.82
   8   6  14   23.81    4.05
   8   6  14   29.76    4.82
   1  -7  14    6.29    2.52
  -1   7  14    4.07    1.79
  -1  -7  14    3.74    1.93
   1   7  14    3.57    1.98
   3  -7  14    2.62    1.80
  -3   7  14    2.50    1.55
   3  -7  14    3.36    2.15
  -3  -7  14    1.35    1.52
   3   7  14    5.07    1.93
  -5   7  14    4.78    2.17
   5  -7  14    3.07    1.75
   5  -7  14    4.26    1.82
  -5  -7  14    2.35    1.97
   5   7  14    2.13    1.95
   7  -7  14    0.35    1.43
   7  -7  14    1.31    2.03
  -7   7  14   -0.39    1.83
  -7  -7  14   -0.79    1.62
   7   7  14    2.31    1.90
   7   7  14    2.78    1.70
   0   8  14   29.38    3.76
   0  -8  14   27.33    4.35
   2  -8  14   10.74    2.94
  -2   8  14    9.99    2.70
  -2  -8  14    7.98    2.41
   2   8  14    7.26    2.36
   4  -8  14   29.18    4.76
   4  -8  14   22.94    3.66
  -4   8  14   23.99    4.42
  -4  -8  14   24.31    4.15
   4   8  14   23.50    3.92
  -6   8  14    6.73    2.48
   6  -8  14    4.15    2.21
   6  -8  14    1.89    1.59
  -6  -8  14    4.94    2.07
   6   8  14    2.95    1.83
  -1   9  14    5.65    2.11
   1  -9  14   10.57    2.68
   1   9  14    8.40    2.59
  -1  -9  14   10.01    2.83
  -3   9  14    5.36    2.14
   3  -9  14   11.36    3.14
   3  -9  14    8.84    2.86
  -3  -9  14    7.32    2.25
   3   9  14   10.97    2.82
  -5   9  14    6.03    2.37
   5  -9  14    3.78    2.09
   5  -9  14    6.67    2.25
   5   9  14    5.87    2.10
  -5  -9  14    7.65    2.56
  -7   9  14    7.54    2.95
   7  -9  14    9.91    2.89
   7  -9  14    5.97    2.71
   7   9  14    6.18    2.01
   0 -10  14    1.49    1.71
   0  10  14    6.12    2.15
   2 -10  14   18.37    3.76
  -2  10  14   12.75    3.03
  -2 -10  14   20.96    3.64
   2  10  14   16.20    3.44
   4 -10  14    3.87    1.94
   4 -10  14    7.21    2.66
  -4  10  14    1.79    1.83
  -4 -10  14    4.90    2.01
   4  10  14    4.57    1.87
  -6  10  14   16.00    3.54
   6 -10  14    9.23    2.96
   6 -10  14    8.32    2.77
  -6 -10  14    5.37    2.11
   6  10  14    9.57    2.59
   1 -11  14    2.54    1.45
  -1  11  14   -0.05    1.37
   1  11  14    2.98    1.87
  -1 -11  14    0.22    1.38
  -3  11  14    1.04    1.31
   3 -11  14   -2.61    1.16
   3 -11  14   -0.50    1.61
  -3 -11  14   -1.00    1.25
   3  11  14   -2.13    0.97
   5 -11  14    3.16    2.09
   5 -11  14    0.17    1.40
  -5  11  14   -2.02    1.32
  -5 -11  14    1.15    1.73
   5  11  14   -0.63    1.36
   7 -11  14   -2.64    1.67
   0  12  14    2.92    1.85
   0 -12  14    1.59    1.60
   2 -12  14   65.84    5.94
  -2  12  14   61.46    5.58
   2  12  14   51.87    5.03
  -2 -12  14   61.80    5.17
  -4  12  14    1.18    1.30
   4 -12  14    3.25    2.32
  -4 -12  14    0.18    1.49
   4  12  14   -0.58    1.08
  -6  12  14   44.09    4.98
   6 -12  14   52.90    5.04
  -6 -12  14   22.60    5.30
   6  12  14   35.93    4.05
   1 -13  14    2.40    1.99
  -1  13  14    4.93    2.23
   1  13  14    5.62    2.21
  -1 -13  14    2.12    1.93
   3 -13  14    6.64    2.39
  -3  13  14    7.61    2.49
   3 -13  14    5.39    2.18
  -3 -13  14    5.24    2.15
   3  13  14    7.06    2.20
  -5  13  14    4.95    1.98
   5 -13  14    4.24    2.12
   5  13  14    5.23    1.93
  -5 -13  14    3.05    1.92
   0 -14  14    2.04    1.76
   0  14  14    1.00    1.63
   2 -14  14    4.34    2.11
  -2  14  14    3.53    1.99
   2  14  14    4.60    2.04
  -2 -14  14    5.35    1.92
   4 -14  14    3.45    2.03
  -4  14  14    1.27    1.86
   4  14  14   -0.24    1.48
  -4 -14  14    1.36    1.74
   1 -15  14    5.38    2.12
  -1  15  14    5.00    2.30
   1  15  14    5.44    2.14
  -1 -15  14    5.93    2.08
   3 -15  14    8.77    3.03
  -3  15  14    5.19    2.30
  -3 -15  14    2.57    1.81
   3  15  14    5.07    2.20
   5 -15  14    2.75    1.93
   5  15  14    9.15    3.68
  -5 -15  14    4.24    2.19
   0 -16  14   19.52    3.71
   0  16  14   27.74    4.36
  -2  16  14    0.24    1.31
   2 -16  14    0.12    1.29
  -2 -16  14    0.46    1.52
   2  16  14    2.31    1.59
  -4  16  14   20.41    4.82
   4 -16  14   20.49    3.52
   4  16  14   23.25    3.75
  -4 -16  14   14.70    2.86
   1 -17  14    1.26    1.73
  -1  17  14   -0.82    1.19
  -1 -17  14   -0.29    1.54
   1  17  14    0.36    1.24
  -3  17  14   -0.25    1.58
   3  17  14   -1.97    1.23
  -3 -17  14   -0.43    1.52
   0 -18  14   39.75    4.36
   0  18  14   27.32    4.53
   2 -18  14   -0.73    1.51
  -2 -18  14   -0.62    1.39
   0   0  15   -0.58    1.23
  -2   0  15   -1.62    1.30
   2   0  15    0.07    1.36
   4   0  15   -0.45    1.05
  -4   0  15    1.35    1.56
  -6   0  15    0.73    1.54
   6   0  15   -0.05    1.70
   6   0  15   -1.15    1.34
   1  -1  15   18.85    3.64
  -1   1  15    9.22    2.81
  -1  -1  15   16.56    3.53
   1   1  15   13.79    3.47
  -3   1  15    8.86    3.01
   3  -1  15   11.77    2.97
   3   1  15    5.27    2.26
  -3  -1  15   14.75    3.43
   5  -1  15   22.38    3.59
   5  -1  15   12.75    3.09
  -5   1  15   16.04    3.61
   5   1  15   20.54    3.66
   5   1  15   14.63    3.07
  -5  -1  15   17.66    3.68
   0   2  15    9.50    2.77
   0  -2  15   11.39    2.89
  -2   2  15    4.10    1.95
   2  -2  15    2.88    1.82
  -2  -2  15    0.75    1.59
   2   2  15   -0.53    1.55
   4  -2  15   10.86    3.19
  -4   2  15    4.82    2.42
   4   2  15    7.65    2.53
  -4  -2  15    4.60    2.26
   6  -2  15   -0.07    2.04
  -6   2  15    1.82    1.75
   6  -2  15    1.08    1.39
   6   2  15   -0.90    1.09
   6   2  15    4.95    2.17
  -6  -2  15   -1.69    2.01
   1  -3  15   -2.52    1.25
  -1   3  15   -2.07    1.22
  -1  -3  15   -1.55    1.17
   1   3  15    0.20    1.37
   3  -3  15   -1.80    1.32
  -3   3  15   -0.61    1.57
   3   3  15    1.09    1.62
  -3  -3  15    0.62    1.72
   5  -3  15    0.09    1.21
   5  -3  15    2.78    2.08
  -5   3  15    0.67    2.03
   5   3  15   -1.97    1.10
  -5  -3  15    0.85    1.53
   0  -4  15    0.81    1.40
   0   4  15   -0.72    1.36
  -2   4  15    9.90    3.08
   2  -4  15   10.30    2.88
  -2  -4  15    7.76    2.64
   2   4  15   11.39    2.94
   4  -4  15    1.90    1.78
  -4   4  15    0.17    1.69
   4   4  15   -0.30    1.43
  -4  -4  15   -2.11    1.38
  -6   4  15    7.23    2.82
   6  -4  15    3.47    2.61
   6  -4  15    6.40    2.72
  -6  -4  15    9.19    2.81
   6   4  15    3.87    2.30
   6   4  15    8.66    2.70
   1  -5  15   14.61    3.32
  -1   5  15   21.21    3.96
  -1  -5  15   17.69    3.45
   1   5  15   16.02    3.39
   3  -5  15   19.94    4.04
  -3   5  15   12.84    3.25
  -3  -5  15   20.56    3.75
   3   5  15   16.58    3.56
   5  -5  15    7.41    2.61
  -5   5  15   15.49    3.45
   5  -5  15    4.30    2.85
   5   5  15    8.49    2.70
  -5  -5  15    7.41    2.99
   0   6  15    2.17    1.75
   0  -6  15    1.93    1.62
  -2   6  15    0.55    1.66
   2  -6  15    9.60    2.76
   2   6  15    3.12    1.97
  -2  -6  15    5.96    2.35
   4  -6  15    1.58    1.83
  -4   6  15    0.81    1.86
  -4  -6  15    2.60    1.64
   4   6  15    0.58    1.56
   6  -6  15    1.51    2.28
   6  -6  15    2.26    2.18
  -6  -6  15    5.94    2.50
   6   6  15    5.15    3.20
   1  -7  15    7.30    2.61
  -1   7  15    4.37    2.00
  -1  -7  15    6.89    2.30
   1   7  15    6.60    2.42
  -3   7  15   13.81    3.42
   3  -7  15   13.36    3.18
  -3  -7  15   16.50    3.57
   3   7  15   11.64    3.03
  -5   7  15    3.43    2.10
   5  -7  15    4.92    2.48
   5  -7  15    3.33    2.79
  -5  -7  15    2.21    1.88
   5   7  15    4.07    1.98
   0  -8  15    8.54    2.60
   0   8  15    7.18    2.20
  -2   8  15    0.35    1.67
   2  -8  15    0.78    1.64
  -2  -8  15    2.88    1.66
   2   8  15    0.20    1.33
   4  -8  15   10.07    2.93
  -4   8  15    5.34    2.44
   4   8  15    3.24    2.12
  -4  -8  15    9.33    2.57
  -1   9  15    2.32    1.80
   1  -9  15    2.04    1.83
   1   9  15    0.13    1.29
  -1  -9  15    2.54    1.83
  -3   9  15    2.35    1.76
   3  -9  15    0.54    1.45
  -3  -9  15    3.51    1.64
   3   9  15   -1.39    1.12
   5  -9  15    0.81    2.43
  -5  -9  15   -0.91    1.63
   0 -10  15   -2.45    1.32
   0  10  15   -0.44    1.55
   2 -10  15    8.16    2.60
  -2  10  15   -0.83    1.46
   2  10  15    2.85    1.89
  -2 -10  15    4.61    2.18
  -4  10  15    2.31    1.68
   4 -10  15    0.48    1.70
   4  10  15    0.32    1.26
  -4 -10  15   -1.65    1.35
  -1  11  15   10.60    2.77
   1 -11  15   14.47    3.39
  -1 -11  15   11.75    2.87
   1  11  15   10.03    2.86
  -3  11  15   15.07    3.43
   3 -11  15    7.14    2.49
  -3 -11  15   10.92    2.64
   3  11  15    7.01    2.32
   0 -12  15   -0.55    1.49
   0  12  15    2.37    1.77
   2 -12  15   -0.87    1.22
  -2  12  15    0.01    1.40
  -2 -12  15   -2.71    1.17
   2  12  15   -0.84    1.20
  -1  13  15    4.70    2.20
   1 -13  15    9.20    2.66
   1  13  15    3.79    2.00
  -1 -13  15    3.13    1.85
   0 -14  15    1.46    1.72
   0   0  16   15.37    3.30
   2   0  16    9.81    3.37
  -2   0  16    9.96    2.81
   1  -1  16    3.38    2.02
  -1   1  16    1.16    1.65
  -1  -1  16    2.51    1.87
   1   1  16    3.92    2.14
   3  -1  16    3.96    2.66
   3   1  16    2.10    2.40
   0   2  16   -0.70    1.55
   0  -2  16    2.39    1.92
   2  -2  16   -2.32    1.08
  -2   2  16    0.84    1.91
   2   2  16    4.69    3.07
  -2  -2  16    1.31    1.92
  -1   3  16   14.89    3.46
   1  -3  16   12.54    3.09
  -1  -3  16   16.57    3.53
   1   3  16   14.91    3.95
   0   4  16    8.22    2.49
   0  -4  16   13.69    3.27
  -2   4  16    7.12    3.61
  -2  -4  16    6.50    3.04
   1  -5  16   -0.87    1.90
  -1  -5  16    0.28    2.04
   1   5  16    1.27    2.11
   0  -6  16    4.71    3.00
   0   0   0    0.00    0.00


;
_shelx_hkl_checksum              35797
loop_
_space_group_symop_operation_xyz
'x, y, z'
'-x, -y+1/2, z+1/2'
'-x, y+1/2, -z+1/2'
'x, -y, -z'
'x+1/2, y+1/2, z'
'-x+1/2, -y+1, z+1/2'
'-x+1/2, y+1, -z+1/2'
'x+1/2, -y+1/2, -z'
'-x, -y, -z'
'x, y-1/2, -z-1/2'
'x, -y-1/2, z-1/2'
'-x, y, z'
'-x+1/2, -y+1/2, -z'
'x+1/2, y, -z-1/2'
'x+1/2, -y, z-1/2'
'-x+1/2, y+1/2, z'
loop_
_atom_site_type_symbol
_atom_site_label
_atom_site_fract_x
_atom_site_fract_y
_atom_site_fract_z
_atom_site_U_iso_or_equiv
_atom_site_adp_type
_atom_site_calc_flag
_atom_site_refinement_flags_adp
_atom_site_refinement_flags_occupancy
_atom_site_refinement_flags_posn
_atom_site_occupancy
_atom_site_disorder_assembly
_atom_site_disorder_group
C C1 0.5 0.6277(5) 0.7289(10) 0.0231(18) Uani d T P S 1 . .
H H1A 0.5 0.665166 0.807148 0.035 Uiso calc U P R 1 . .
H H1B 0.408809 0.599057 0.742957 0.035 Uiso calc U P R 0.5 . .
H H1C 0.591191 0.599057 0.742957 0.035 Uiso calc U P R 0.5 . .
I I1 0.75 0.70254(3) 0.25 0.01449(12) Uani d T P S 1 . .
I I2 0.23884(5) 0.5 0.5 0.01157(11) Uani d T P S 1 . .
N N1 0.5 0.6579(4) 0.5682(8) 0.0183(14) Uani d T P S 1 . .
H H1D 0.583112 0.685988 0.562261 0.022 Uiso calc U P R 0.5 . .
H H1E 0.416888 0.685988 0.56226 0.022 Uiso calc U P R 0.5 . .
Pb Pb1 0.5 0.58753(2) 0.32861(3) 0.01105(9) Uani d T P S 1 . .
loop_
_atom_site_aniso_label
_atom_site_aniso_U_11
_atom_site_aniso_U_22
_atom_site_aniso_U_33
_atom_site_aniso_U_12
_atom_site_aniso_U_13
_atom_site_aniso_U_23
C1 0.041(5) 0.013(4) 0.016(4) 0 0 -0.001(3)
I1 0.0137(2) 0.0101(2) 0.0196(2) 0 0.00539(18) 0
I2 0.0110(2) 0.0134(2) 0.0104(2) 0 0 0.00072(16)
N1 0.027(4) 0.013(3) 0.014(3) 0 0 0.000(2)
Pb1 0.01237(14) 0.01070(14) 0.01008(13) 0 0 0.00047(10)
loop_
_atom_type_symbol
_atom_type_description
_atom_type_scat_dispersion_real
_atom_type_scat_dispersion_imag
_atom_type_scat_source
C C 0.0033 0.0016 'International Tables Vol C Tables 4.2.6.8 and 6.1.1.4'
H H 0.0000 0.0000 'International Tables Vol C Tables 4.2.6.8 and 6.1.1.4'
I I -0.4742 1.8119 'International Tables Vol C Tables 4.2.6.8 and 6.1.1.4'
N N 0.0061 0.0033 'International Tables Vol C Tables 4.2.6.8 and 6.1.1.4'
Pb Pb -3.3944 10.1111 'International Tables Vol C Tables 4.2.6.8 and 6.1.1.4'
loop_
_geom_angle_atom_site_label_1
_geom_angle_atom_site_label_2
_geom_angle_atom_site_label_3
_geom_angle_site_symmetry_1
_geom_angle_site_symmetry_3
_geom_angle
_geom_angle_publ_flag
N1 C1 H1A . . 109.5 ?
N1 C1 H1B . . 109.5 ?
H1A C1 H1B . . 109.5 ?
N1 C1 H1C . . 109.5 ?
H1A C1 H1C . . 109.5 ?
H1B C1 H1C . . 109.5 ?
Pb1 I1 Pb1 14_556 . 91.904(16) ?
Pb1 I2 Pb1 . 9_666 88.353(14) ?
C1 N1 Pb1 . . 123.1(5) ?
C1 N1 H1D . . 106.5 ?
Pb1 N1 H1D . . 106.5 ?
C1 N1 H1E . . 106.5 ?
Pb1 N1 H1E . . 106.5 ?
H1D N1 H1E . . 106.5 ?
N1 Pb1 I1 . . 77.73(12) ?
N1 Pb1 I1 . 14_456 77.73(12) ?
I1 Pb1 I1 . 14_456 86.903(14) ?
N1 Pb1 I2 . 9_666 85.15(12) ?
I1 Pb1 I2 . 9_666 88.220(9) ?
I1 Pb1 I2 14_456 9_666 162.828(11) ?
N1 Pb1 I2 . . 85.15(12) ?
I1 Pb1 I2 . . 162.828(11) ?
I1 Pb1 I2 14_456 . 88.220(9) ?
I2 Pb1 I2 9_666 . 91.647(14) ?
loop_
_geom_bond_atom_site_label_1
_geom_bond_atom_site_label_2
_geom_bond_site_symmetry_2
_geom_bond_distance
_geom_bond_publ_flag
C1 N1 . 1.481(11) ?
C1 H1A . 0.98 ?
C1 H1B . 0.98 ?
C1 H1C . 0.98 ?
I1 Pb1 14_556 3.1896(4) ?
I1 Pb1 . 3.1897(4) ?
I2 Pb1 . 3.1952(4) ?
I2 Pb1 9_666 3.1952(4) ?
N1 Pb1 . 2.442(7) ?
N1 H1D . 0.91 ?
N1 H1E . 0.91 ?
