#------------------------------------------------------------------------------
#$Date: 2020-10-04 06:14:06 +0300 (Sun, 04 Oct 2020) $
#$Revision: 257076 $
#$URL: file:///home/coder/svn-repositories/cod/cif/4/51/75/4517506.cif $
#------------------------------------------------------------------------------
#
# This file is available in the Crystallography Open Database (COD),
# http://www.crystallography.net/
#
# All data on this site have been placed in the public domain by the
# contributors.
#
data_4517506
loop_
_publ_author_name
'Mondal, Amita'
'Hazra, Abhijit'
'Chakrabarty, Jitamanyu'
'Bose K, Jagadeesh C.'
'Banerjee, Priyabrata'
_publ_section_title
;
 Tandem Detection of Sub-Nano Molar Level CN-- and Hg2+ in Aqueous Medium
 by a Suitable Molecular Sensor: A Viable Solution for Detection of CN--
 and Development of the RGB-Based Sensory Device
;
_journal_issue                   12
_journal_name_full               'ACS Omega'
_journal_page_first              6576
_journal_page_last               6587
_journal_paper_doi               10.1021/acsomega.9b04311
_journal_volume                  5
_journal_year                    2020
_chemical_formula_moiety         'C15 H8 Cl4 F6 N4 O'
_chemical_formula_sum            'C15 H8 Cl4 F6 N4 O'
_chemical_formula_weight         516.05
_space_group_crystal_system      orthorhombic
_space_group_IT_number           18
_space_group_name_Hall           'P 2 2ab'
_space_group_name_H-M_alt        'P 21 21 2'
_atom_sites_solution_hydrogens   geom
_atom_sites_solution_primary     direct
_audit_creation_date             2019-01-29
_audit_creation_method
;
Olex2 1.2
(compiled 2018.05.29 svn.r3508 for OlexSys, GUI svn.r5506)
;
_cell_angle_alpha                90
_cell_angle_beta                 90
_cell_angle_gamma                90
_cell_formula_units_Z            2
_cell_length_a                   12.627(4)
_cell_length_b                   16.990(5)
_cell_length_c                   4.5162(13)
_cell_measurement_reflns_used    6776
_cell_measurement_temperature    273(2)
_cell_measurement_theta_max      23.70
_cell_measurement_theta_min      2.40
_cell_volume                     968.9(5)
_computing_cell_refinement       'Bruker SAINT'
_computing_data_collection       'Bruker APEX2'
_computing_data_reduction        'Bruker SAINT'
_computing_molecular_graphics    'Olex2 (Dolomanov et al., 2009)'
_computing_publication_material  'Olex2 (Dolomanov et al., 2009)'
_computing_structure_refinement  'XL (Sheldrick, 2008)'
_computing_structure_solution    'ShelXS (Sheldrick, 2008)'
_diffrn_ambient_temperature      273.15
_diffrn_measured_fraction_theta_full 1.000
_diffrn_measured_fraction_theta_max 1.000
_diffrn_measurement_device_type  'Bruker APEX-II CCD'
_diffrn_measurement_method       '\f and \w scans'
_diffrn_radiation_type           MoK\a
_diffrn_radiation_wavelength     0.71073
_diffrn_reflns_av_R_equivalents  0.0375
_diffrn_reflns_av_unetI/netI     0.0162
_diffrn_reflns_Laue_measured_fraction_full 1.000
_diffrn_reflns_Laue_measured_fraction_max 1.000
_diffrn_reflns_limit_h_max       15
_diffrn_reflns_limit_h_min       -15
_diffrn_reflns_limit_k_max       21
_diffrn_reflns_limit_k_min       -21
_diffrn_reflns_limit_l_max       5
_diffrn_reflns_limit_l_min       -5
_diffrn_reflns_number            22892
_diffrn_reflns_point_group_measured_fraction_full 1.000
_diffrn_reflns_point_group_measured_fraction_max 0.998
_diffrn_reflns_theta_full        25.242
_diffrn_reflns_theta_max         26.460
_diffrn_reflns_theta_min         2.009
_exptl_absorpt_coefficient_mu    0.683
_exptl_absorpt_correction_T_max  .932
_exptl_absorpt_correction_T_min  .904
_exptl_absorpt_correction_type   multi-scan
_exptl_absorpt_process_details   SADABS
_exptl_crystal_colour            colourless
_exptl_crystal_colour_primary    colourless
_exptl_crystal_density_diffrn    1.769
_exptl_crystal_description       rectangular
_exptl_crystal_F_000             512
_exptl_crystal_size_max          0.18
_exptl_crystal_size_mid          0.12
_exptl_crystal_size_min          0.1
_refine_diff_density_max         0.396
_refine_diff_density_min         -0.338
_refine_diff_density_rms         0.037
_refine_ls_abs_structure_details
;
 Flack x determined using 641 quotients [(I+)-(I-)]/[(I+)+(I-)]
 (Parsons, Flack and Wagner, Acta Cryst. B69 (2013) 249-259).
;
_refine_ls_abs_structure_Flack   0.39(2)
_refine_ls_extinction_method     none
_refine_ls_goodness_of_fit_ref   1.028
_refine_ls_hydrogen_treatment    constr
_refine_ls_matrix_type           full
_refine_ls_number_parameters     165
_refine_ls_number_reflns         2000
_refine_ls_number_restraints     0
_refine_ls_restrained_S_all      1.028
_refine_ls_R_factor_all          0.0448
_refine_ls_R_factor_gt           0.0370
_refine_ls_shift/su_max          0.000
_refine_ls_shift/su_mean         0.000
_refine_ls_structure_factor_coef Fsqd
_refine_ls_weighting_details
'w=1/[\s^2^(Fo^2^)+(0.0318P)^2^+0.4957P] where P=(Fo^2^+2Fc^2^)/3'
_refine_ls_weighting_scheme      calc
_refine_ls_wR_factor_gt          0.0850
_refine_ls_wR_factor_ref         0.0903
_reflns_Friedel_coverage         0.657
_reflns_Friedel_fraction_full    1.000
_reflns_Friedel_fraction_max     0.995
_reflns_number_gt                1738
_reflns_number_total             2000
_reflns_threshold_expression     'I > 2\s(I)'
_cod_data_source_file            ao9b04311_si_002.cif
_cod_data_source_block           test6_a
_cod_depositor_comments
;Adding full bibliography for 4517506.cif.

 Adding full bibliography for 4517506.cif.
;
_cod_database_code               4517506
_shelx_shelxl_version_number     2016/6
_shelx_space_group_comment
;
The symmetry employed for this shelxl refinement is uniquely defined
by the following loop, which should always be used as a source of
symmetry information in preference to the above space-group names.
They are only intended as comments.
;
_olex2_refinement_description
;
1. Fixed Uiso
 At 1.2 times of:
  All C(H) groups, All N(H) groups
2. Others
 Sof(F1AA)=Sof(F0AA)=Sof(F2AA)=1-FVAR(1)
 Sof(F1)=Sof(F3)=Sof(F2)=FVAR(1)
3.a Aromatic/amide H refined with riding coordinates:
 N004(H004), N1(H1), C00B(H00B), C00C(H00C)
;
_shelx_res_file
;
TITL TEST6_a.res in P2(1)2(1)2
    test6_a.res
    created by SHELXL-2016/6 at 15:55:38 on 29-Jan-2019
CELL 0.71073 12.6273 16.9902 4.5162 90 90 90
ZERR 2 0.0036 0.005 0.0013 0 0 0
LATT -1
SYMM -X,-Y,+Z
SYMM 0.5-X,0.5+Y,-Z
SYMM 0.5+X,0.5-Y,-Z
SFAC C H Cl F N O
UNIT 30 16 8 12 8 2

L.S. 10
PLAN  20
TEMP 0
FREE F1 F3
BOND $H
fmap 2
acta
REM <olex2.extras>
REM <HklSrc "%.\\TEST6_a.hkl">
REM </olex2.extras>

WGHT    0.031800    0.495700
FVAR       0.81293   0.48258
CL1   3    0.462259    0.317897   -0.096303    11.00000    0.07106    0.07184 =
         0.12139    0.00971   -0.04061   -0.00622
CL2   3    0.834024    0.378639    0.470153    11.00000    0.06395    0.06516 =
         0.15507   -0.00974   -0.04415    0.00653
O1    6    0.500000    0.500000    0.411733    10.50000    0.09878    0.08321 =
         0.02932    0.00000    0.00000   -0.00571
N004  5    0.576650    0.466375   -0.018642    11.00000    0.06041    0.04752 =
         0.04858    0.00730    0.00431    0.01590
AFIX  43
H004  2    0.575724    0.471552   -0.208051    11.00000   -1.20000
AFIX   0
C005  1    0.500000    0.500000    0.142687    10.50000    0.05367    0.03855 =
         0.03559    0.00000    0.00000   -0.00317
C006  1    0.649350    0.346520    0.193336    11.00000    0.04114    0.04089 =
         0.05367    0.00161    0.00605    0.00873
N1    5    0.656498    0.423935    0.110629    11.00000    0.04811    0.04403 =
         0.12093    0.01800   -0.01700    0.00158
AFIX  43
H1    2    0.715573    0.447680    0.142252    11.00000   -1.20000
AFIX   0
C008  1    0.570963    0.292106    0.116397    11.00000    0.04550    0.04661 =
         0.05477    0.00203    0.00492    0.00343
C009  1    0.732040    0.316127    0.366784    11.00000    0.04541    0.04644 =
         0.06902   -0.00493   -0.00430    0.01070
C00A  1    0.659437    0.187374    0.370195    11.00000    0.06591    0.04350 =
         0.06799    0.00991    0.01576    0.01510
C00B  1    0.576277    0.214238    0.200954    11.00000    0.05930    0.04526 =
         0.06849   -0.00142    0.01376   -0.00172
AFIX  43
H00B  2    0.523200    0.179541    0.143137    11.00000   -1.20000
AFIX   0
C00C  1    0.737515    0.238916    0.455363    11.00000    0.06027    0.05670 =
         0.07249    0.00499   -0.00098    0.02380
AFIX  43
H00C  2    0.793599    0.221671    0.572007    11.00000   -1.20000
AFIX   0
PART 1
F1    4    0.744322    0.069110    0.331731    21.00000    0.07277    0.04079 =
         0.22959    0.00632    0.02910    0.02682
F3    4    0.666902    0.089454    0.717452    21.00000    0.62878    0.09137 =
         0.06132    0.03067    0.04393    0.10785
PART 0
C00F  1    0.666267    0.101784    0.454473    11.00000    0.11366    0.04934 =
         0.08566    0.01087    0.02197    0.01849
PART 2
F1AA  4    0.589936    0.080119    0.620338   -21.00000    0.08966    0.07312 =
         0.18311    0.06119    0.02406   -0.00074
F0AA  4    0.746790    0.085559    0.635461   -21.00000    0.11732    0.08489 =
         0.25116    0.08176   -0.04631    0.01662
F2AA  4    0.679627    0.055604    0.251611   -21.00000    0.64028    0.05914 =
         0.08778    0.00344    0.06280    0.06007
PART 0
PART 1
F2    4    0.585708    0.059532    0.327797    21.00000    0.09320    0.04714 =
         0.21410    0.03042   -0.01179   -0.01660
HKLF 4




REM  TEST6_a.res in P2(1)2(1)2
REM R1 =  0.0370 for    1738 Fo > 4sig(Fo)  and  0.0448 for all    2000 data
REM    165 parameters refined using      0 restraints

END

WGHT      0.0318      0.4957

REM Highest difference peak  0.396,  deepest hole -0.338,  1-sigma level  0.037
Q1    1   0.4575  0.3306  0.0993  11.00000  0.05    0.40
Q2    1   0.5187  0.3193 -0.1700  11.00000  0.05    0.24
Q3    1   0.4536  0.2773 -0.1077  11.00000  0.05    0.14
Q4    1   0.6175  0.3134  0.1081  11.00000  0.05    0.14
Q5    1   0.7370  0.3181  0.6615  11.00000  0.05    0.14
Q6    1   0.7139  0.4661  0.2475  11.00000  0.05    0.13
Q7    1   0.6015  0.4401 -0.5163  11.00000  0.05    0.12
Q8    1   0.6756  0.1479  0.4086  11.00000  0.05    0.12
Q9    1   0.5247  0.4401 -0.0301  11.00000  0.05    0.11
Q10   1   0.6667  0.4704  0.4838  11.00000  0.05    0.11
Q11   1   0.5808  0.3185  0.3133  11.00000  0.05    0.11
Q12   1   0.5858  0.1252  0.4500  11.00000  0.05    0.11
Q13   1   0.5776  0.4697 -0.3522  11.00000  0.05    0.11
Q14   1   0.5359  0.3063  0.0815  11.00000  0.05    0.10
Q15   1   0.5140  0.4778 -0.3236  11.00000  0.05    0.10
Q16   1   0.5205  0.4756  0.4778  11.00000  0.05    0.10
Q17   1   0.5612  0.2513 -0.0939  11.00000  0.05    0.10
Q18   1   0.7658  0.3784  0.5991  11.00000  0.05    0.10
Q19   1   0.8223  0.3339  0.5415  11.00000  0.05    0.10
Q20   1   0.9432  0.1535  0.5788  11.00000  0.05    0.10
;
_shelx_res_checksum              12184
_shelx_hkl_file
;
   0   0  -1 1137.79   38.80
   0   0  -1 1182.58   39.00
   0   0  -1 1171.88   38.90
   0   0   1 1123.09   38.30
   0   0   1 1122.49   38.50
   0   0   1 1150.98   38.60
   0   0   1 1110.19   38.60
   0   0   1 1156.98   38.40
   0   0   1 1154.18   38.50
   0   0   1 1201.38   38.50
   0   0  -2  446.66   17.20
   0   0  -2  457.25   17.50
   0   0  -2  464.45   17.50
   0   0   2  470.75   16.80
   0   0   2  468.55   16.60
   0   0   2  460.05   17.00
   0   0   2  477.55   16.70
   0   0   2  474.45   16.50
   0   0   2  465.95   17.00
   0   0  -3  113.19    6.30
   0   0  -3  102.69    6.40
   0   0  -3  114.49    6.60
   0   0   3  106.29    6.00
   0   0   3  110.19    5.20
   0   0   3  106.09    5.50
   0   0   3  116.59    5.80
   0   0   3  116.69    5.60
   0   0   3  117.39    5.50
   0   0   3  119.19    6.20
   0   0  -4   20.10    3.70
   0   0  -4   22.60    3.90
   0   0  -4   14.70    3.30
   0   0   4   30.80    4.10
   0   0   4   26.70    3.10
   0   0   4   24.50    3.30
   0   0   4   23.60    3.30
   0   0   4   18.30    3.40
   0   0  -5    4.00    2.80
   0   0  -5    3.20    2.50
   0   0   5    3.10    2.60
   0   0   5    3.30    2.70
  -1   0   5    2.60    3.00
  -1   0   5    0.70    2.10
  -1   0   5    4.40    2.50
  -1   0   5    1.90    2.70
   1   0  -5    3.00    2.50
   1   0  -5   10.30    3.30
  -1   0   4   74.99    4.80
  -1   0   4   80.39    5.70
  -1   0   4   64.49    5.30
  -1   0   4   80.09    5.30
   1   0  -4   74.29    5.80
   1   0  -4   67.49    5.60
   1   0  -4   72.69    5.70
  -1   0   3   16.40    2.40
  -1   0   3   19.30    2.70
  -1   0   3   14.60    2.10
  -1   0   3   16.90    2.30
  -1   0   3   20.90    2.50
  -1   0   3   17.20    1.90
  -1   0   3   20.90    2.90
   1   0  -3   15.40    2.60
   1   0  -3   19.10    3.00
   1   0  -3   16.40    2.80
   1   0  -3   19.00    2.90
  -1   0   2   23.70    2.30
  -1   0   2   24.90    2.20
  -1   0   2   27.40    2.60
  -1   0   2   25.70    2.00
  -1   0   2   21.50    2.20
  -1   0   2   26.10    1.60
  -1   0   2   22.50    1.90
   1   0  -2   22.60    2.40
   1   0  -2   22.70    2.50
   1   0  -2   26.30    2.60
  -1   0   1  760.52   25.90
  -1   0   1  793.82   25.90
  -1   0   1  784.72   25.80
  -1   0   1  742.03   25.90
  -1   0   1  723.83   25.90
   1   0  -1  754.52   26.10
   1   0  -1  787.42   26.00
  -1   0   0    0.00    0.10
  -1   0  -1  802.12   27.30
  -1   0  -1  831.12   26.90
  -1   0  -1  775.02   27.00
   1   0   1  744.03   26.40
   1   0   1  787.42   26.40
   1   0   1  768.82   26.10
   1   0   1  769.82   26.40
   1   0   1  767.62   26.50
   1   0   1  791.82   26.30
   1   0   1  767.52   26.10
  -1   0  -2   23.80    3.00
  -1   0  -2   29.70    2.90
  -1   0  -2   23.80    2.90
   1   0   2   25.20    1.70
   1   0   2   23.50    1.90
   1   0   2   19.50    1.90
   1   0   2   24.20    1.80
   1   0   2   28.50    2.30
   1   0   2   21.90    2.30
   1   0   2   28.40    2.60
  -1   0  -3   19.00    3.10
  -1   0  -3   17.60    3.10
  -1   0  -3   14.70    2.70
  -1   0  -3   15.10    2.60
   1   0   3   13.50    2.20
   1   0   3   15.60    2.50
   1   0   3   20.70    2.50
   1   0   3   22.10    2.20
   1   0   3   22.30    2.50
   1   0   3   14.10    2.10
   1   0   3   17.30    2.70
  -1   0  -4   62.99    6.50
  -1   0  -4   60.49    5.20
  -1   0  -4   77.99    5.80
  -1   0  -4   74.99    5.30
   1   0   4   74.69    5.50
   1   0   4   64.89    4.50
   1   0   4   81.29    4.70
   1   0   4   71.59    5.20
   1   0   4   75.99    4.70
   1   0   4   77.69    5.50
  -1   0  -5    3.60    2.80
  -1   0  -5    3.20    2.50
  -1   0  -5    2.70    2.40
   1   0   5    0.30    2.30
   1   0   5    1.30    2.50
   1   0   5    3.30    3.50
  -2   0   5    0.30    2.40
  -2   0   5    1.20    2.20
  -2   0   5   -4.10    1.80
  -2   0   5   -2.90    2.20
   2   0  -5    2.00    2.60
   2   0  -5    1.40    2.40
  -2   0   4   47.70    4.90
  -2   0   4   55.89    5.60
  -2   0   4   52.89    4.80
  -2   0   4   50.39    5.10
   2   0  -4   46.70    5.30
   2   0  -4   53.09    5.60
   2   0  -4   47.10    5.10
  -2   0   3    9.60    2.10
  -2   0   3    8.60    2.00
  -2   0   3   11.20    2.10
  -2   0   3    9.70    1.90
  -2   0   3   12.60    2.20
   2   0  -3    9.90    1.90
   2   0  -3    8.40    2.10
   2   0  -3    7.60    2.10
   2   0  -3    9.10    2.10
  -2   0   2    1.40    1.00
  -2   0   2    0.40    0.50
  -2   0   2    1.40    1.00
  -2   0   2    1.50    0.90
  -2   0   2    0.60    0.80
  -2   0   2    1.20    1.00
   2   0  -2    0.20    0.70
   2   0  -2    0.90    0.90
   2   0  -2   -0.30    1.00
   2   0  -2    2.60    1.20
  -2   0   1 8802.82  301.47
  -2   0   1 9313.57  302.57
  -2   0   1 9034.60  301.07
  -2   0   1 9365.46  302.37
  -2   0   1 9262.27  301.87
   2   0  -1 8885.81  301.27
   2   0  -1 9397.46  303.27
   2   0  -1 9098.29  302.27
  -2   0   0  247.48    8.80
  -2   0   0  261.37    9.40
  -2   0   0  261.87    8.80
  -2   0   0  248.58    9.50
   2   0   0  260.87    8.90
   2   0   0  262.47    8.80
   2   0   0  265.27    8.90
   2   0   0  239.28    8.80
  -2   0  -1 9795.32  312.07
  -2   0  -1 9399.26  312.37
  -2   0  -1 9999.00  313.37
  -2   0  -1 9922.41  312.87
   2   0   1 9276.77  311.87
   2   0   1 9219.08  312.77
   2   0   1 8738.63  312.77
   2   0   1 9651.23  313.27
   2   0   1 9111.89  312.87
   2   0   1 9277.57  312.17
   2   0   1 9591.24  311.97
  -2   0  -2    1.00    0.80
  -2   0  -2    1.70    0.90
  -2   0  -2   -1.10    1.20
  -2   0  -2    1.00    1.30
  -2   0  -2    0.40    1.20
   2   0   2   -0.70    0.80
   2   0   2   -0.50    0.70
   2   0   2    1.90    0.90
   2   0   2    1.00    0.70
   2   0   2   -0.80    0.80
   2   0   2   -0.20    0.70
   2   0   2    0.90    0.90
  -2   0  -3   11.30    2.60
  -2   0  -3    4.30    2.00
  -2   0  -3    5.50    2.30
  -2   0  -3   15.10    2.30
   2   0   3    9.80    1.80
   2   0   3   11.80    2.30
   2   0   3    9.50    2.00
   2   0   3    9.20    1.60
   2   0   3   12.60    1.80
   2   0   3   11.50    2.20
   2   0   3   13.80    2.20
  -2   0  -4   42.20    5.60
  -2   0  -4   43.80    5.00
  -2   0  -4   50.69    6.00
  -2   0  -4   47.70    4.50
  -2   0  -4   41.40    4.50
   2   0   4   47.40    4.30
   2   0   4   48.40    4.90
   2   0   4   49.30    5.20
   2   0   4   45.90    4.30
   2   0   4   44.30    4.70
   2   0   4   47.70    4.70
  -2   0  -5   -0.30    2.50
  -2   0  -5    0.60    2.20
  -2   0  -5   -0.20    2.20
   2   0   5    3.50    2.50
   2   0   5   -1.00    2.30
   2   0   5    3.90    2.80
  -3   0   5   -0.10    2.10
  -3   0   5   -0.10    2.00
  -3   0   5    2.80    2.80
  -3   0   5   -4.30    1.80
   3   0  -5    2.80    2.50
   3   0  -5   -0.40    2.40
  -3   0   4    2.30    1.80
  -3   0   4    3.20    2.10
  -3   0   4   -0.80    1.80
  -3   0   4    1.70    2.00
  -3   0   4    1.90    1.80
   3   0  -4    1.00    1.90
   3   0  -4    2.60    1.90
  -3   0   3   15.30    2.50
  -3   0   3   18.60    2.60
  -3   0   3   17.90    2.70
  -3   0   3   17.40    2.80
  -3   0   3   23.30    2.90
   3   0  -3   19.50    2.90
   3   0  -3   17.40    2.60
   3   0  -3   19.90    3.00
  -3   0   2  425.36   16.40
  -3   0   2  431.66   16.30
  -3   0   2  460.65   16.30
  -3   0   2  435.66   16.40
  -3   0   2  464.95   16.60
   3   0  -2  464.15   16.30
   3   0  -2  437.56   16.60
   3   0  -2  420.06   16.50
  -3   0   1  984.20   34.90
  -3   0   1 1074.69   35.40
  -3   0   1 1014.10   35.10
  -3   0   1 1068.49   35.00
   3   0  -1 1003.20   35.00
   3   0  -1 1021.90   35.00
   3   0  -1 1058.49   34.80
  -3   0   0    0.50    0.80
  -3   0   0    0.00    0.30
  -3   0   0    0.20    0.30
  -3   0   0    1.00    0.70
   3   0   0    1.00    0.40
   3   0   0   -0.50    0.40
   3   0   0    0.80    0.30
   3   0   0    0.00    0.30
  -3   0  -1 1036.80   35.40
  -3   0  -1 1075.09   35.30
  -3   0  -1 1034.70   36.90
  -3   0  -1 1063.79   37.10
   3   0   1 1038.40   35.40
   3   0   1 1058.39   35.80
   3   0   1 1043.90   35.20
  -3   0  -2  456.55   16.00
  -3   0  -2  462.75   18.00
  -3   0  -2  434.36   18.20
  -3   0  -2  474.05   17.80
  -3   0  -2  455.85   16.20
   3   0   2  444.86   16.60
   3   0   2  452.95   15.60
   3   0   2  439.96   16.20
   3   0   2  446.36   15.70
   3   0   2  429.06   16.20
   3   0   2  445.26   16.80
  -3   0  -3   18.60    2.50
  -3   0  -3   16.40    3.40
  -3   0  -3   19.50    2.30
  -3   0  -3   14.00    3.10
  -3   0  -3    8.90    2.60
   3   0   3   17.30    2.00
   3   0   3   17.70    2.70
   3   0   3   21.00    3.00
   3   0   3   21.00    2.40
   3   0   3   22.50    2.90
   3   0   3   19.30    2.60
   3   0   3   12.20    1.70
  -3   0  -4   -0.30    2.30
  -3   0  -4    0.30    1.60
  -3   0  -4   -0.90    2.00
   3   0   4    1.80    2.10
   3   0   4   -1.90    1.40
   3   0   4    0.70    2.00
   3   0   4    0.10    1.60
  -3   0  -5   -1.60    2.50
  -3   0  -5   -2.80    1.70
  -3   0  -5   -3.20    1.90
   3   0   5    3.00    2.70
   3   0   5    0.90    2.40
   3   0   5    1.60    2.50
  -4   0   5   -2.10    2.20
  -4   0   5   -0.50    2.40
  -4   0   5   -1.20    2.00
  -4   0   5   -1.00    2.40
   4   0  -5    0.50    2.20
   4   0  -5   -2.70    2.00
  -4   0   4   43.60    4.90
  -4   0   4   41.20    4.80
  -4   0   4   39.20    4.80
  -4   0   4   39.30    4.40
  -4   0   4   37.40    4.30
   4   0  -4   35.10    4.70
   4   0  -4   37.90    4.80
  -4   0   3    0.10    1.10
  -4   0   3    2.90    1.70
  -4   0   3    2.20    1.50
  -4   0   3    2.20    1.50
  -4   0   3    1.40    1.40
   4   0  -3    2.10    1.40
   4   0  -3    3.20    1.70
   4   0  -3    2.30    1.40
  -4   0   2    5.00    1.40
  -4   0   2    2.00    1.20
  -4   0   2    5.60    1.50
  -4   0   2    3.10    1.40
  -4   0   2    1.60    1.10
   4   0  -2    4.00    1.40
   4   0  -2    3.50    1.30
   4   0  -2    7.10    1.40
  -4   0   1    2.30    0.90
  -4   0   1    1.10    0.90
  -4   0   1    1.50    0.70
  -4   0   1    1.80    0.80
   4   0  -1    3.00    0.70
   4   0  -1    3.10    0.90
   4   0  -1    0.00    0.60
  -4   0   0    3.80    1.20
  -4   0   0    2.20    0.60
  -4   0   0    4.60    1.30
  -4   0   0    2.20    0.60
   4   0   0    2.50    0.70
   4   0   0    3.20    0.50
   4   0   0    4.50    0.70
   4   0   0    3.40    0.70
  -4   0  -1   -1.40    1.00
  -4   0  -1    2.10    0.70
  -4   0  -1    1.90    0.60
  -4   0  -1   -0.30    1.20
   4   0   1    2.30    0.70
   4   0   1    1.60    0.80
   4   0   1    1.90    0.90
   4   0   1    2.60    0.60
  -4   0  -2    2.40    1.00
  -4   0  -2    2.50    1.80
  -4   0  -2    6.50    2.20
  -4   0  -2    1.70    1.60
  -4   0  -2    4.30    1.20
   4   0   2    2.70    1.20
   4   0   2    2.60    0.80
   4   0   2    2.60    1.20
   4   0   2    4.90    1.40
   4   0   2    4.50    1.20
   4   0   2    3.50    0.90
   4   0   2    4.80    1.50
  -4   0  -3    2.50    1.20
  -4   0  -3    0.80    1.90
  -4   0  -3   -0.70    1.70
  -4   0  -3    0.10    1.60
  -4   0  -3    1.20    1.30
   4   0   3    0.90    1.30
   4   0   3    1.90    1.50
   4   0   3    1.20    1.20
   4   0   3    2.10    1.00
   4   0   3    1.00    0.90
   4   0   3    3.60    1.70
   4   0   3    1.90    1.50
  -4   0  -4   41.00    5.70
  -4   0  -4   35.00    5.70
   4   0   4   32.70    4.00
   4   0   4   40.20    4.70
   4   0   4   39.60    4.40
   4   0   4   39.70    4.90
  -4   0  -5    0.00    2.30
  -4   0  -5    3.00    2.80
  -4   0  -5   -1.50    2.00
  -4   0  -5   -1.80    3.00
   4   0   5   -1.10    2.40
   4   0   5    2.70    2.80
   4   0   5    2.20    2.50
  -5   0   5    2.40    2.90
  -5   0   5   -2.20    2.80
  -5   0   5   -0.40    2.60
  -5   0   5    3.80    2.80
   5   0  -5    0.30    2.00
   5   0  -5    4.00    2.90
  -5   0   4    3.20    2.20
  -5   0   4   -3.30    1.60
  -5   0   4    0.00    2.00
  -5   0   4   -0.10    1.90
  -5   0   4    3.70    2.30
   5   0  -4    3.00    2.10
   5   0  -4   -3.10    1.60
  -5   0   3   71.29    4.80
  -5   0   3   57.19    4.30
  -5   0   3   61.99    4.50
  -5   0   3   63.09    4.70
   5   0  -3   63.09    4.60
   5   0  -3   56.19    4.60
  -5   0   2  369.86   14.50
  -5   0   2  379.66   15.10
  -5   0   2  377.86   14.70
  -5   0   2  399.36   15.10
   5   0  -2  399.56   14.90
   5   0  -2  376.96   14.80
   5   0  -2  380.56   14.20
  -5   0   1    1.30    0.80
  -5   0   1   -1.40    0.70
  -5   0   1   -1.40    0.60
  -5   0   1    0.50    0.80
  -5   0   1    0.10    0.80
   5   0  -1   -0.30    0.60
   5   0  -1   -0.20    0.40
   5   0  -1    0.70    0.70
   5   0  -1    0.70    0.60
  -5   0   0    0.40    0.50
  -5   0   0   -0.10    0.50
  -5   0   0    0.60    1.10
  -5   0   0    0.60    1.00
   5   0   0    1.10    0.70
   5   0   0   -0.30    0.40
   5   0   0    0.10    0.60
   5   0   0   -0.10    0.40
  -5   0  -1   -1.10    1.10
  -5   0  -1   -0.20    0.50
  -5   0  -1   -0.50    1.20
  -5   0  -1    0.70    0.60
   5   0   1    1.10    0.90
   5   0   1   -0.60    0.70
   5   0   1    0.80    0.70
   5   0   1    0.80    0.50
  -5   0  -2  389.36   14.30
  -5   0  -2  401.26   16.90
  -5   0  -2  371.96   14.10
  -5   0  -2  377.36   17.10
   5   0   2  386.56   14.60
   5   0   2  371.06   14.10
   5   0   2  382.16   15.10
   5   0   2  398.66   15.10
  -5   0  -3   60.39    6.40
  -5   0  -3   55.19    6.60
  -5   0  -3   60.69    6.40
   5   0   3   62.49    4.10
   5   0   3   51.09    4.40
   5   0   3   59.79    4.40
   5   0   3   66.39    4.20
   5   0   3   61.79    4.50
  -5   0  -4   -2.60    1.80
  -5   0  -4   -1.50    2.20
   5   0   4    2.30    1.90
   5   0   4    3.10    2.40
   5   0   4    0.20    1.90
   5   0   4    1.00    2.00
  -5   0  -5    2.70    3.00
  -5   0  -5   -2.40    2.20
  -5   0  -5   -0.80    2.80
   5   0   5    1.20    2.60
   5   0   5    4.60    2.90
   5   0   5    2.10    2.80
  -6   0   5    0.00    2.60
  -6   0   5    1.80    2.70
  -6   0   5    1.10    2.80
   6   0  -5   -1.80    2.20
   6   0  -5    1.90    2.60
  -6   0   4   13.30    3.10
  -6   0   4   13.60    3.30
  -6   0   4   11.90    3.10
  -6   0   4    9.60    2.90
   6   0  -4   13.10    3.20
   6   0  -4   13.10    3.10
  -6   0   3  223.08   10.60
  -6   0   3  238.18   10.70
  -6   0   3  247.08   11.20
  -6   0   3  221.18   10.80
   6   0  -3  234.88   10.80
   6   0  -3  248.78   11.20
  -6   0   2   50.89    3.80
  -6   0   2   50.19    3.60
  -6   0   2   58.79    4.20
  -6   0   2   51.39    3.50
   6   0  -2   56.49    3.80
   6   0  -2   52.59    3.10
   6   0  -2   50.69    3.60
  -6   0   1  344.47   12.70
  -6   0   1  321.77   12.60
  -6   0   1  329.87   13.70
  -6   0   1  330.97   12.90
  -6   0   1  347.57   12.30
   6   0  -1  322.57   12.40
   6   0  -1  330.57   12.10
   6   0  -1  338.87   12.50
   6   0  -1  330.77   11.70
  -6   0   0   43.30    2.60
  -6   0   0   46.20    2.50
  -6   0   0   42.90    4.40
  -6   0   0   42.90    4.10
   6   0   0   42.80    2.70
   6   0   0   41.80    2.60
   6   0   0   42.70    2.40
   6   0   0   42.20    2.20
  -6   0  -1  314.07   14.50
  -6   0  -1  339.27   11.90
  -6   0  -1  340.57   14.80
  -6   0  -1  331.27   11.70
   6   0   1  316.17   11.60
   6   0   1  344.77   12.20
   6   0   1  318.97   12.70
   6   0   1  318.77   12.80
  -6   0  -2   46.60    5.70
  -6   0  -2   42.60    5.50
  -6   0  -2   50.19    3.20
  -6   0  -2   51.09    3.00
   6   0   2   57.89    4.00
   6   0   2   54.89    3.50
   6   0   2   47.90    3.00
   6   0   2   47.70    3.70
  -6   0  -3  222.18   12.30
  -6   0  -3  222.68   12.40
  -6   0  -3  211.18   12.80
   6   0   3  242.68   11.00
   6   0   3  234.38   10.40
   6   0   3  219.88   10.50
   6   0   3  221.28    9.70
  -6   0  -4    8.80    3.80
  -6   0  -4   19.30    4.40
   6   0   4   12.30    3.20
   6   0   4   13.10    3.10
   6   0   4   13.30    3.00
  -6   0  -5   -2.30    2.90
  -6   0  -5    1.40    2.50
  -6   0  -5    1.70    3.00
   6   0   5   -1.50    2.30
   6   0   5    2.80    2.50
   6   0   5    0.50    2.70
  -7   0   5    4.60    3.40
  -7   0   5    0.80    2.60
   7   0  -5    2.40    2.70
   7   0  -5   -0.70    2.30
  -7   0   4    7.00    2.80
  -7   0   4    8.80    3.00
  -7   0   4    8.80    3.00
  -7   0   4    8.40    3.20
   7   0  -4    8.80    2.90
   7   0  -4    6.20    2.60
  -7   0   3    3.50    1.90
  -7   0   3   -1.00    1.70
  -7   0   3   -0.70    1.60
  -7   0   3    1.10    1.70
   7   0  -3   -2.10    1.30
   7   0  -3    0.10    1.70
  -7   0   2   35.50    3.00
  -7   0   2   41.70    4.10
  -7   0   2   37.90    3.80
  -7   0   2   36.30    4.20
   7   0  -2   41.20    2.70
   7   0  -2   42.50    3.30
   7   0  -2   39.70    3.30
  -7   0   1   12.20    2.10
  -7   0   1   10.70    1.80
  -7   0   1    9.40    1.50
  -7   0   1    7.70    2.00
  -7   0   1    8.30    1.90
   7   0  -1   12.40    1.60
   7   0  -1   10.70    1.30
   7   0  -1   10.00    1.70
   7   0  -1   11.90    1.70
  -7   0   0    0.00    0.80
  -7   0   0   -0.60    1.20
  -7   0   0    2.60    1.30
  -7   0   0   -0.90    0.70
   7   0   0   -0.60    0.50
   7   0   0   -1.40    0.80
   7   0   0    0.30    0.70
   7   0   0   -0.10    0.70
  -7   0  -1    7.90    2.40
  -7   0  -1   14.30    3.20
  -7   0  -1   12.10    1.50
  -7   0  -1   12.30    1.40
   7   0   1   11.20    1.20
   7   0   1   10.70    2.00
   7   0   1   12.60    1.70
   7   0   1    7.70    1.90
  -7   0  -2   40.90    2.70
  -7   0  -2   40.30    5.50
  -7   0  -2   36.50    5.40
   7   0   2   41.00    4.00
   7   0   2   42.00    3.30
   7   0   2   34.70    2.50
   7   0   2   33.60    3.80
  -7   0  -3   -2.10    2.00
  -7   0  -3    0.10    2.10
  -7   0  -3   -2.50    2.10
   7   0   3   -1.60    1.60
   7   0   3    2.20    1.80
   7   0   3    0.90    1.60
  -7   0  -4    3.80    2.90
  -7   0  -4    5.50    3.10
   7   0   4    7.00    2.90
   7   0   4    4.00    2.40
   7   0   4   11.60    3.10
  -7   0  -5    3.60    3.30
  -7   0  -5    1.30    3.40
   7   0   5   -1.40    2.60
   7   0   5    2.60    3.00
   7   0   5   -3.40    2.10
  -8   0   4   14.90    3.40
  -8   0   4   10.10    3.30
  -8   0   4   16.10    3.70
  -8   0   4   10.80    3.20
   8   0  -4   11.30    3.20
   8   0  -4   14.20    3.30
  -8   0   3   -1.90    1.50
  -8   0   3    2.20    2.30
  -8   0   3   -0.50    1.70
  -8   0   3    0.00    1.80
   8   0  -3   -0.60    1.60
   8   0  -3   -1.20    1.40
  -8   0   2  227.38   10.30
  -8   0   2  245.88    9.90
  -8   0   2  217.28   10.50
  -8   0   2  227.08   11.20
   8   0  -2  239.08   10.10
   8   0  -2  227.18   10.10
  -8   0   1  157.48    8.40
  -8   0   1  139.69    6.90
  -8   0   1  153.48    7.50
  -8   0   1  160.98    7.50
   8   0  -1  153.18    6.60
   8   0  -1  149.88    6.60
   8   0  -1  148.29    6.20
   8   0  -1  156.18    6.90
  -8   0   0  136.49    6.10
  -8   0   0  132.69    6.20
  -8   0   0  133.79    7.90
  -8   0   0  113.69    7.40
   8   0   0  144.69    6.50
   8   0   0  132.89    6.30
   8   0   0  145.59    6.00
   8   0   0  127.49    5.40
  -8   0  -1  156.18    6.30
  -8   0  -1  145.69    9.00
  -8   0  -1  160.58    9.50
  -8   0  -1  161.48    6.50
   8   0   1  144.89    5.90
   8   0   1  148.59    7.40
   8   0   1  161.18    7.50
   8   0   1  139.59    6.60
  -8   0  -2  231.08   13.00
  -8   0  -2  219.88   12.60
   8   0   2  224.18   10.40
   8   0   2  218.98   10.30
  -8   0  -3    2.20    2.40
  -8   0  -3   -3.70    2.20
  -8   0  -3    4.00    3.30
   8   0   3    0.30    1.50
   8   0   3    2.40    1.90
   8   0   3   -0.50    1.70
  -8   0  -4   11.20    3.90
  -8   0  -4   12.50    4.80
   8   0   4   15.10    3.50
   8   0   4   11.00    3.00
   8   0   4   13.60    3.80
  -9   0   4   -0.50    2.20
  -9   0   4   -1.70    2.00
  -9   0   4    1.90    2.50
  -9   0   4    0.40    2.90
   9   0  -4    0.30    2.10
   9   0  -4   -0.60    2.20
  -9   0   3   39.30    5.00
  -9   0   3   39.30    4.70
  -9   0   3   46.50    4.70
  -9   0   3   38.50    5.10
   9   0  -3   42.70    4.60
   9   0  -3   38.70    4.50
  -9   0   2   26.50    4.20
  -9   0   2   37.30    4.30
  -9   0   2   39.60    3.60
  -9   0   2   31.80    3.80
   9   0  -2   29.40    3.30
   9   0  -2   31.50    3.50
  -9   0   1    0.50    1.40
  -9   0   1    1.40    1.50
  -9   0   1   -1.20    1.50
   9   0  -1    1.60    1.00
   9   0  -1    0.00    1.20
   9   0  -1    0.90    1.20
  -9   0   0    0.80    1.30
  -9   0   0   -0.30    1.70
  -9   0   0    1.10    2.10
  -9   0   0   -0.20    0.90
   9   0   0   -0.90    1.00
   9   0   0    1.60    1.20
   9   0   0   -0.40    0.70
   9   0   0    1.00    1.00
  -9   0  -1    1.60    1.20
  -9   0  -1   -0.10    1.00
  -9   0  -1    0.90    2.20
  -9   0  -1   -1.00    2.30
   9   0   1    1.00    1.10
   9   0   1    2.60    1.70
   9   0   1   -4.60    1.30
  -9   0  -2   33.80    5.80
  -9   0  -2   37.20    5.90
   9   0   2   26.50    3.10
   9   0   2   26.70    3.70
   9   0   2   33.70    4.00
  -9   0  -3   37.40    6.50
  -9   0  -3   49.50    6.80
  -9   0  -3   42.10    6.70
   9   0   3   38.20    4.50
   9   0   3   35.10    4.80
   9   0   3   37.90    4.80
  -9   0  -4    5.40    3.40
  -9   0  -4    4.90    3.70
   9   0   4    0.50    2.30
   9   0   4   -2.00    2.00
   9   0   4   -0.30    2.00
 -10   0   4   -1.30    2.30
 -10   0   4    0.70    2.40
 -10   0   4    1.10    2.90
 -10   0   4    1.30    2.60
  10   0  -4    1.10    2.20
  10   0  -4    1.80    2.50
 -10   0   3   -0.10    2.00
 -10   0   3    1.50    2.10
 -10   0   3    1.70    1.80
 -10   0   3    1.20    2.20
  10   0  -3   -3.30    1.80
  10   0  -3   -0.50    1.60
 -10   0   2   38.80    5.40
 -10   0   2   49.30    4.90
 -10   0   2   36.30    4.60
  10   0  -2   46.50    3.80
  10   0  -2   42.20    4.10
 -10   0   1    0.00    1.70
 -10   0   1    4.00    2.10
 -10   0   1   -0.30    2.00
  10   0  -1    2.40    1.30
  10   0  -1    0.20    1.40
  10   0  -1    2.40    1.60
 -10   0   0  817.72   29.10
 -10   0   0  778.42   29.30
 -10   0   0  812.32   32.10
 -10   0   0  853.11   32.40
  10   0   0  852.21   28.90
  10   0   0  807.32   29.40
  10   0   0  805.82   29.60
 -10   0  -1   -1.80    2.70
 -10   0  -1    5.60    3.10
  10   0   1    3.10    1.90
  10   0   1    2.00    1.60
  10   0   1   -0.20    1.20
 -10   0  -2   48.70    7.20
 -10   0  -2   41.20    6.30
  10   0   2   37.30    4.40
  10   0   2   30.70    3.60
  10   0   2   33.80    4.40
 -10   0  -3    7.30    4.00
 -10   0  -3   -0.90    2.80
 -10   0  -3   -1.00    2.50
  10   0   3    0.30    2.10
  10   0   3   -0.60    1.90
  10   0   3   -0.20    2.00
 -10   0  -4    0.30    2.80
 -10   0  -4   -0.50    3.70
  10   0   4    3.90    2.80
  10   0   4    2.90    3.20
  10   0   4    2.80    2.80
 -11   0   4   -0.90    2.50
 -11   0   4    0.50    2.40
 -11   0   4    1.30    3.10
  11   0  -4    1.10    2.40
  11   0  -4    5.30    3.10
 -11   0   3   20.90    3.50
 -11   0   3   25.60    4.80
 -11   0   3   24.90    4.80
 -11   0   3   24.70    4.30
  11   0  -3   23.60    3.90
  11   0  -3   21.60    3.60
 -11   0   2   23.70    4.60
 -11   0   2   23.70    3.80
 -11   0   2   22.60    3.90
  11   0  -2   24.00    3.30
  11   0  -2   18.20    3.00
 -11   0   1    3.80    2.70
 -11   0   1    7.10    2.60
 -11   0   1    6.70    2.20
  11   0  -1    6.10    1.90
 -11   0   0    3.70    1.90
 -11   0   0    2.20    1.90
 -11   0   0    2.40    2.50
 -11   0   0   -0.20    2.90
  11   0   0    3.20    1.50
  11   0   0    3.20    1.80
  11   0   0    0.60    1.50
 -11   0  -1    5.50    3.10
 -11   0  -1    8.20    3.60
  11   0   1    4.50    2.20
  11   0   1    5.30    2.50
  11   0   1    2.30    1.80
 -11   0  -2   20.30    5.30
 -11   0  -2   14.90    4.50
  11   0   2   22.50    3.90
  11   0   2    9.50    2.40
  11   0   2   19.30    3.60
 -11   0  -3   17.20    5.20
 -11   0  -3   20.60    5.30
 -11   0  -3   14.50    5.00
  11   0   3   28.20    4.70
  11   0   3   18.10    3.50
  11   0   3   19.80    3.90
 -11   0  -4    2.40    3.50
 -11   0  -4   -0.60    3.70
  11   0   4    1.80    2.70
  11   0   4    0.50    2.80
  11   0   4    1.10    2.80
 -12   0   3    8.80    3.30
 -12   0   3   11.20    3.90
 -12   0   3   12.70    3.80
  12   0  -3   10.30    3.10
  12   0  -3   11.50    3.10
 -12   0   2   12.10    3.80
 -12   0   2   16.60    3.70
 -12   0   2   10.10    3.00
  12   0  -2   11.90    2.60
 -12   0   1  173.78   10.90
 -12   0   1  172.08    8.90
 -12   0   1  186.18    9.70
  12   0  -1  171.48    8.40
 -12   0   0  325.07   16.50
 -12   0   0  311.27   13.80
 -12   0   0  315.97   13.50
  12   0   0  351.46   13.30
  12   0   0  306.07   13.70
  12   0   0  343.37   14.30
 -12   0  -1  186.38   11.60
 -12   0  -1  200.68   13.10
  12   0   1  159.88    8.30
  12   0   1  164.88    9.20
  12   0   1  180.48    9.30
 -12   0  -2    3.60    4.00
 -12   0  -2   11.40    4.40
  12   0   2    2.70    2.10
  12   0   2   16.90    3.70
  12   0   2   15.70    3.50
 -12   0  -3    8.90    4.20
 -12   0  -3    9.50    5.10
  12   0   3   12.90    3.20
  12   0   3   11.10    3.50
  12   0   3   13.00    3.60
 -13   0   3   -0.20    2.70
 -13   0   3    7.70    3.90
 -13   0   3    4.50    3.40
  13   0  -3    6.30    2.80
 -13   0   2   65.19    6.50
 -13   0   2   66.29    7.80
 -13   0   2   65.99    6.90
  13   0  -2   70.39    5.30
 -13   0   1  100.89    7.20
 -13   0   1   77.09    8.40
 -13   0   1   88.59    6.20
  13   0  -1   92.09    5.60
 -13   0   0    1.00    2.50
  13   0   0    2.20    2.30
  13   0   0   -0.10    1.40
 -13   0  -1   90.89   10.10
 -13   0  -1  102.49   10.20
  13   0   1   95.19    6.80
  13   0   1   94.39    6.90
  13   0   1   89.89    5.80
 -13   0  -2   59.39    8.10
 -13   0  -2   80.39   10.40
  13   0   2   72.89    6.40
  13   0   2   72.69    7.20
 -13   0  -3    0.10    4.90
 -13   0  -3    5.40    4.10
  13   0   3    2.00    2.60
  13   0   3    1.10    3.20
  13   0   3    9.80    3.90
 -14   0   2   21.50    4.80
 -14   0   2   21.60    4.10
 -14   0   2   21.10    5.10
  14   0  -2   17.40    3.30
 -14   0   1   23.00    4.50
 -14   0   1   11.20    4.20
 -14   0   1   16.60    3.50
  14   0  -1   16.70    3.00
 -14   0   0   -1.40    2.70
  14   0   0    0.30    1.60
 -14   0  -1   10.30    4.20
 -14   0  -1    9.80    5.20
  14   0   1    8.20    3.40
  14   0   1   14.20    3.10
  14   0   1   15.60    3.70
 -14   0  -2   16.50    6.30
 -14   0  -2   15.40    5.00
  14   0   2   16.60    4.00
  14   0   2   21.20    3.70
  14   0   2   17.90    4.10
 -15   0   1    8.00    3.60
  15   0  -1    7.80    2.80
 -15   0   0    0.50    3.00
  15   0   0   -0.40    1.50
 -15   0  -1    5.80    4.20
  15   0   1    7.10    2.60
  15   0   1    2.50    3.00
  15   0   1   10.80    4.80
  15  -1   1   18.60    3.50
  15  -1   1   24.00    4.50
  15  -1   1   25.30    5.90
 -15   1  -1   22.90    5.70
  15  -1   0    4.70    2.30
 -15   1   0    9.90    4.00
  15  -1  -1   35.50    4.30
 -15   1   1   26.80    5.80
  14  -1   2   -0.70    2.60
  14  -1   2    7.70    3.50
  14  -1   2   -1.80    2.10
 -14   1  -2   -1.80    3.70
 -14   1  -2    0.30    4.10
 -14   1  -2    0.70    4.10
  14  -1   1   21.50    3.50
  14  -1   1   24.70    4.20
  14  -1   1   17.50    4.00
 -14   1  -1   11.00    5.70
 -14   1  -1   16.30    4.70
  14  -1   0   17.40    2.90
 -14   1   0   23.10    4.90
  14  -1  -1   24.00    3.30
 -14   1   1   14.00    4.40
 -14   1   1   10.60    3.70
  14  -1  -2    1.10    1.90
 -14   1   2    2.60    3.40
 -14   1   2    2.00    2.60
 -14   1   2   -1.50    3.10
  13  -1   3    0.90    2.90
  13  -1   3    1.80    2.70
  13  -1   3   -0.50    2.50
 -13   1  -3   -5.00    3.40
 -13   1  -3   -8.00    3.40
  13  -1   2    3.10    2.90
  13  -1   2    4.80    2.90
  13  -1   2    3.20    2.20
 -13   1  -2    0.40    3.30
 -13   1  -2    3.00    3.50
 -13   1  -2    3.90    4.20
  13  -1   1   20.10    3.50
  13  -1   1   22.60    4.10
  13  -1   1   18.30    3.80
 -13   1  -1   20.70    5.00
 -13   1  -1   23.70    6.00
  13  -1   0   -0.40    1.40
  13  -1   0    1.30    2.40
 -13   1   0   -0.80    2.00
  13  -1  -1   27.30    3.50
 -13   1   1   18.10    3.70
 -13   1   1   30.10    4.20
 -13   1   1   18.10    4.60
  13  -1  -2   -0.60    2.00
 -13   1   2   -1.50    2.30
 -13   1   2    4.60    2.90
 -13   1   2    9.40    3.40
  13  -1  -3    0.10    2.00
  13  -1  -3    1.50    2.20
 -13   1   3    4.00    3.10
 -13   1   3   -1.00    2.60
 -13   1   3    3.80    3.00
  12  -1   3   25.20    4.60
  12  -1   3   38.20    5.50
 -12   1  -3   19.80    5.30
 -12   1  -3   36.80    7.50
  12  -1   2    4.90    2.20
  12  -1   2   10.80    3.30
  12  -1   2   13.40    3.50
 -12   1  -2   12.00    4.10
 -12   1  -2   13.60    5.60
  12  -1   1   13.80    3.40
  12  -1   1   12.20    2.80
  12  -1   1   15.00    3.30
 -12   1  -1   10.50    3.90
 -12   1  -1    9.00    4.70
  12  -1   0  152.18    7.20
  12  -1   0  148.19    8.10
  12  -1   0  140.79    7.60
 -12   1   0  125.29    9.30
  12  -1  -1   11.40    2.40
 -12   1   1    9.10    3.00
 -12   1   1    7.50    3.00
 -12   1   1   14.70    3.00
  12  -1  -2   12.60    2.60
  12  -1  -2    8.70    2.40
 -12   1   2    9.80    3.10
 -12   1   2    9.80    3.40
 -12   1   2    3.50    2.80
  12  -1  -3   34.40    4.50
  12  -1  -3   35.90    4.60
 -12   1   3   35.50    5.60
 -12   1   3   21.60    4.20
 -12   1   3   28.30    5.30
  11  -1   4   11.30    3.60
  11  -1   4    9.60    3.70
  11  -1   4    0.70    2.80
 -11   1  -4    0.50    3.90
 -11   1  -4    8.20    4.20
  11  -1   3   10.00    3.50
  11  -1   3   14.50    3.80
  11  -1   3   13.20    3.30
 -11   1  -3   13.20    5.30
 -11   1  -3    9.90    4.10
  11  -1   2   32.30    4.40
  11  -1   2   17.80    3.10
  11  -1   2   29.70    4.40
 -11   1  -2   30.00    5.70
 -11   1  -2   24.30    5.90
  11  -1   1   51.59    4.10
  11  -1   1   71.49    5.40
  11  -1   1   62.59    5.00
 -11   1  -1   58.49    7.70
 -11   1  -1   79.19    8.10
  11  -1   0   62.39    4.10
  11  -1   0   56.69    4.50
  11  -1   0   54.49    4.80
 -11   1   0   51.99    6.30
 -11   1   0   58.29    4.40
 -11   1   0   53.69    3.90
 -11   1   0   60.29    7.10
  11  -1  -1   71.89    4.20
  11  -1  -1   67.99    4.70
 -11   1   1   71.79    5.10
 -11   1   1   69.19    5.20
 -11   1   1   57.99    6.70
  11  -1  -2   31.00    3.90
  11  -1  -2   32.50    3.70
 -11   1   2   27.30    4.20
 -11   1   2   30.10    4.20
 -11   1   2   35.70    5.40
  11  -1  -3   11.00    2.80
  11  -1  -3   12.90    3.00
 -11   1   3   13.30    3.60
 -11   1   3   14.60    3.80
 -11   1   3    8.30    2.90
  11  -1  -4    4.30    3.00
  11  -1  -4    2.40    2.70
 -11   1   4    0.20    3.20
 -11   1   4    8.50    3.40
 -11   1   4    3.20    2.50
  10  -1   4   16.10    4.10
  10  -1   4   15.20    3.90
  10  -1   4   17.60    4.10
 -10   1  -4   17.00    4.90
 -10   1  -4   14.80    5.30
  10  -1   3    5.40    2.50
  10  -1   3    4.00    2.30
  10  -1   3    6.60    2.70
 -10   1  -3    2.50    3.10
 -10   1  -3    6.20    4.00
  10  -1   2   41.90    4.70
  10  -1   2   35.50    4.50
  10  -1   2   25.10    3.40
 -10   1  -2   30.00    5.80
 -10   1  -2   38.50    5.80
  10  -1   1  243.88   11.00
  10  -1   1  198.78    9.80
  10  -1   1  244.48   10.90
 -10   1  -1  275.87   14.20
 -10   1  -1  254.77   12.90
  10  -1   0   33.90    2.50
  10  -1   0   36.70    3.80
  10  -1   0   38.90    2.90
  10  -1   0   28.50    3.40
 -10   1   0   29.10    5.00
 -10   1   0   36.10    3.40
 -10   1   0   28.40    3.20
 -10   1   0   26.00    4.30
  10  -1  -1  267.97   10.50
  10  -1  -1  249.88   10.80
  10  -1  -1  262.17   10.90
 -10   1   1  250.27   11.10
 -10   1   1  258.17   11.60
 -10   1   1  279.27   13.20
  10  -1  -2   34.30    3.70
  10  -1  -2   37.70    3.70
 -10   1   2   26.80    4.50
 -10   1   2   29.40    4.30
 -10   1   2   39.30    4.30
  10  -1  -3    2.10    2.20
  10  -1  -3    2.50    2.00
 -10   1   3    4.30    2.60
 -10   1   3    5.90    2.50
 -10   1   3    6.20    2.40
 -10   1   3    7.70    2.80
  10  -1  -4   18.40    3.80
  10  -1  -4   22.00    4.10
 -10   1   4   15.70    4.10
 -10   1   4   17.60    3.80
 -10   1   4   13.60    4.00
 -10   1   4   12.10    3.60
   9  -1   4    2.10    3.10
   9  -1   4    4.40    2.60
   9  -1   4    1.20    2.50
  -9   1  -4    0.80    2.60
  -9   1  -4    0.00    3.00
   9  -1   3   56.89    6.10
   9  -1   3   62.99    6.00
   9  -1   3   66.89    5.20
  -9   1  -3   65.89    7.90
  -9   1  -3   68.59    8.80
  -9   1  -3   69.19   12.20
   9  -1   2   28.50    3.70
   9  -1   2   20.90    3.30
   9  -1   2   19.10    2.90
  -9   1  -2   26.00    5.20
  -9   1  -2   31.00    5.20
   9  -1   1  533.35   20.40
   9  -1   1  544.65   20.60
   9  -1   1  520.35   18.90
  -9   1  -1  548.45   19.20
  -9   1  -1  558.44   23.50
  -9   1  -1  486.75   19.30
  -9   1  -1  559.14   22.60
   9  -1   0   35.00    2.60
   9  -1   0   37.60    3.10
   9  -1   0   32.50    2.30
   9  -1   0   29.10    3.10
  -9   1   0   45.90    5.40
  -9   1   0   32.30    3.00
  -9   1   0   27.80    3.00
  -9   1   0   32.20    4.50
   9  -1  -1  549.85   19.90
   9  -1  -1  559.54   20.10
   9  -1  -1  535.15   20.30
  -9   1   1  568.64   21.10
  -9   1   1  557.44   22.40
  -9   1   1  543.65   20.60
   9  -1  -2   27.70    3.30
   9  -1  -2   28.10    3.20
  -9   1   2   33.70    4.60
  -9   1   2   26.70    3.80
  -9   1   2   27.70    3.50
  -9   1   2   35.50    3.60
   9  -1  -3   77.79    5.40
   9  -1  -3   59.69    5.10
  -9   1   3   75.89    5.60
  -9   1   3   72.19    5.20
  -9   1   3   74.09    6.00
  -9   1   3   69.19    7.00
   9  -1  -4   -0.20    2.30
   9  -1  -4    2.90    2.40
  -9   1   4   -1.00    2.10
  -9   1   4    2.10    2.60
  -9   1   4   -0.10    2.40
  -9   1   4   -0.50    2.20
   8  -1   4   -2.20    2.10
   8  -1   4   -0.20    2.40
   8  -1   4    8.40    3.00
  -8   1  -4    4.70    3.80
  -8   1  -4    6.70    3.50
   8  -1   3   27.60    4.10
   8  -1   3   28.30    3.90
   8  -1   3   37.70    4.40
  -8   1  -3   31.30    5.40
  -8   1  -3   27.00    5.50
  -8   1  -3   27.50    5.30
   8  -1   2   60.19    4.20
   8  -1   2   67.29    4.80
   8  -1   2   55.49    3.50
   8  -1   2   61.99    4.70
  -8   1  -2   60.79    7.20
  -8   1  -2   68.39    7.30
   8  -1   1   43.40    3.60
   8  -1   1   47.00    3.10
   8  -1   1   47.60    3.60
   8  -1   1   48.00    2.70
  -8   1  -1   50.59    2.80
  -8   1  -1   48.30    2.70
  -8   1  -1   41.90    5.50
  -8   1  -1   55.79    5.90
   8  -1   0  871.51   28.80
   8  -1   0  775.62   28.30
   8  -1   0  850.21   29.30
   8  -1   0  822.12   29.20
  -8   1   0  828.82   29.10
  -8   1   0  808.52   31.10
  -8   1   0  810.42   31.30
  -8   1   0  853.21   28.90
   8  -1  -1   55.49    3.50
   8  -1  -1   55.29    3.20
   8  -1  -1   55.39    3.20
  -8   1   1   44.60    4.20
  -8   1   1   49.40    3.70
  -8   1   1   54.89    4.60
  -8   1   1   53.59    3.60
   8  -1  -2   58.09    4.20
   8  -1  -2   64.99    4.30
  -8   1   2   66.69    4.90
  -8   1   2   57.29    4.30
  -8   1   2   65.39    5.30
  -8   1   2   67.49    4.30
   8  -1  -3   31.10    4.00
   8  -1  -3   33.90    4.00
  -8   1   3   37.50    4.20
  -8   1   3   32.30    4.30
  -8   1   3   33.90    4.50
  -8   1   3   31.80    4.00
   8  -1  -4    4.50    2.40
   8  -1  -4   -1.20    1.90
  -8   1   4    1.40    2.40
  -8   1   4    5.60    2.70
  -8   1   4    3.40    2.40
  -8   1   4    2.70    2.60
   7  -1   5    0.20    2.40
   7  -1   5   -3.00    2.20
   7  -1   5   -0.60    2.60
  -7   1  -5    1.80    3.20
  -7   1  -5   -3.20    3.40
   7  -1   4    5.90    2.50
   7  -1   4    8.90    3.00
   7  -1   4    7.70    2.80
  -7   1  -4    9.40    3.80
  -7   1  -4   12.80    4.30
   7  -1   3   91.99    5.40
   7  -1   3   98.29    6.40
   7  -1   3   91.29    5.90
   7  -1   3  100.19    6.30
  -7   1  -3  108.49    8.10
  -7   1  -3   97.29    9.60
  -7   1  -3  100.79    8.00
   7  -1   2  293.37   12.60
   7  -1   2  291.17   11.90
   7  -1   2  283.87   11.20
   7  -1   2  300.27   12.50
  -7   1  -2  290.17   14.90
  -7   1  -2  290.67   14.00
  -7   1  -2  309.47   14.50
   7  -1   1  105.39    5.60
   7  -1   1  108.39    5.10
   7  -1   1  106.89    4.60
   7  -1   1  107.69    5.70
  -7   1  -1  109.19    4.60
  -7   1  -1  109.39    6.90
  -7   1  -1  110.09    7.50
  -7   1  -1  107.49    4.50
   7  -1   0    2.90    0.80
   7  -1   0    2.40    1.10
   7  -1   0    3.50    1.00
   7  -1   0    3.70    1.20
  -7   1   0    1.40    0.90
  -7   1   0   -0.90    1.20
  -7   1   0    5.60    1.80
  -7   1   0    2.00    1.00
   7  -1  -1  111.69    5.10
   7  -1  -1  109.79    4.80
   7  -1  -1   98.19    5.10
  -7   1   1  106.79    5.50
  -7   1   1  108.29    6.30
  -7   1   1  106.99    5.60
  -7   1   1  115.89    5.40
   7  -1  -2  317.97   12.70
   7  -1  -2  316.67   12.80
  -7   1   2  317.07   12.90
  -7   1   2  305.27   13.20
  -7   1   2  317.47   12.60
  -7   1   2  318.27   13.70
   7  -1  -3  103.29    6.20
   7  -1  -3  104.69    6.40
  -7   1   3  100.29    6.20
  -7   1   3  111.19    6.30
  -7   1   3  105.69    6.70
  -7   1   3   96.69    6.60
   7  -1  -4    9.20    2.90
   7  -1  -4   12.70    3.50
  -7   1   4    8.50    2.90
  -7   1   4   11.00    3.20
  -7   1   4    6.40    2.80
  -7   1   4   14.90    3.60
   7  -1  -5   -1.90    2.60
   7  -1  -5    0.00    2.40
  -7   1   5   -2.60    2.40
  -7   1   5    1.10    3.00
   6  -1   5    5.10    3.10
   6  -1   5    4.30    2.80
   6  -1   5   -1.20    2.30
  -6   1  -5   -2.70    3.30
  -6   1  -5    1.80    2.80
  -6   1  -5    1.40    2.20
   6  -1   4    1.60    2.00
   6  -1   4    4.40    2.40
   6  -1   4    3.80    2.50
   6  -1   4    2.20    2.20
  -6   1  -4   -2.40    2.30
  -6   1  -4    2.00    2.50
   6  -1   3   17.40    3.10
   6  -1   3   16.70    3.10
   6  -1   3   13.50    2.60
   6  -1   3   18.60    2.70
  -6   1  -3   13.90    3.70
  -6   1  -3   15.80    3.80
  -6   1  -3   22.20    4.50
   6  -1   2   35.00    2.90
   6  -1   2   39.80    3.30
   6  -1   2   44.40    4.00
   6  -1   2   35.80    2.60
  -6   1  -2   39.40    2.40
  -6   1  -2   37.50    2.40
  -6   1  -2   34.80    4.60
  -6   1  -2   36.10    5.00
  -6   1  -2   38.80    4.90
   6  -1   1  502.25   17.60
   6  -1   1  493.65   18.70
   6  -1   1  505.95   18.70
  -6   1  -1  517.35   17.50
  -6   1  -1  499.15   20.20
  -6   1  -1  514.35   20.70
  -6   1  -1  510.95   17.40
   6  -1   0  266.17   10.10
   6  -1   0  251.17    9.60
   6  -1   0  272.57    9.90
   6  -1   0  269.07   10.20
  -6   1   0  283.17   11.70
  -6   1   0  263.27   11.40
  -6   1   0  273.17    9.90
  -6   1   0  256.87   10.00
   6  -1  -1  477.75   18.00
   6  -1  -1  500.05   18.10
   6  -1  -1  518.05   17.60
  -6   1   1  532.65   18.00
  -6   1   1  488.25   18.40
  -6   1   1  475.15   18.20
  -6   1   1  509.65   19.30
  -6   1   1  523.75   18.30
   6  -1  -2   31.00    2.20
   6  -1  -2   34.30    2.90
   6  -1  -2   35.40    3.40
  -6   1   2   36.70    3.60
  -6   1   2   34.30    3.80
  -6   1   2   39.20    3.50
  -6   1   2   35.70    2.80
   6  -1  -3   18.60    2.90
   6  -1  -3   18.00    3.00
  -6   1   3   19.20    2.90
  -6   1   3   13.70    2.90
  -6   1   3   16.30    2.90
  -6   1   3   18.90    3.20
   6  -1  -4    6.40    2.50
   6  -1  -4    4.70    2.40
  -6   1   4    1.50    2.20
  -6   1   4    0.20    2.30
  -6   1   4    5.20    2.50
  -6   1   4   -0.80    2.10
   6  -1  -5    0.70    2.60
   6  -1  -5    3.50    2.90
  -6   1   5    3.70    2.80
  -6   1   5   -3.20    2.40
  -6   1   5   -0.80    2.40
   5  -1   5   -1.60    2.40
   5  -1   5    2.00    2.80
   5  -1   5    3.80    2.80
  -5   1  -5    0.00    2.50
  -5   1  -5    4.50    3.40
  -5   1  -5   -1.70    2.80
   5  -1   4   57.99    4.90
   5  -1   4   51.19    5.70
   5  -1   4   57.69    5.90
   5  -1   4   61.39    5.70
  -5   1  -4   49.60    6.90
  -5   1  -4   64.69    7.40
   5  -1   3   40.70    4.10
   5  -1   3   43.80    4.20
   5  -1   3   38.10    4.20
   5  -1   3   28.90    3.20
  -5   1  -3   40.60    5.60
  -5   1  -3   27.00    4.50
  -5   1  -3   35.40    4.90
   5  -1   2  377.46   14.50
   5  -1   2  404.86   15.60
   5  -1   2  388.46   15.00
   5  -1   2  397.66   15.40
  -5   1  -2  388.16   17.40
  -5   1  -2  404.36   14.40
  -5   1  -2  388.16   16.80
  -5   1  -2  402.46   14.20
  -5   1  -2  408.96   17.00
   5  -1   1   63.09    3.00
   5  -1   1   64.19    3.30
   5  -1   1   59.79    3.60
   5  -1   1   60.29    3.70
  -5   1  -1   69.99    2.80
  -5   1  -1   69.19    5.00
  -5   1  -1   73.89    2.90
  -5   1  -1   67.89    4.70
   5  -1   0   34.90    1.80
   5  -1   0   33.80    2.10
   5  -1   0   32.20    2.10
   5  -1   0   32.70    1.90
  -5   1   0   33.10    2.80
  -5   1   0   34.20    3.40
  -5   1   0   32.30    1.90
  -5   1   0   32.70    2.00
   5  -1  -1   68.89    3.50
   5  -1  -1   67.69    3.00
   5  -1  -1   68.49    3.50
  -5   1   1   65.59    3.30
  -5   1   1   65.99    3.30
  -5   1   1   64.19    3.50
  -5   1   1   64.59    3.60
  -5   1   1   57.79    3.90
   5  -1  -2  402.36   15.30
   5  -1  -2  391.76   15.40
   5  -1  -2  408.06   14.50
  -5   1   2  404.06   15.80
  -5   1   2  404.86   15.20
  -5   1   2  397.66   15.30
  -5   1   2  400.76   15.60
   5  -1  -3   39.00    4.20
   5  -1  -3   33.30    3.70
  -5   1   3   37.10    3.90
  -5   1   3   44.90    4.40
  -5   1   3   50.09    4.80
  -5   1   3   39.00    4.00
   5  -1  -4   60.69    5.10
   5  -1  -4   62.79    5.40
  -5   1   4   48.60    5.30
  -5   1   4   59.39    5.20
  -5   1   4   52.59    5.30
  -5   1   4   61.29    6.10
   5  -1  -5   -0.50    2.40
   5  -1  -5   -1.40    2.00
  -5   1   5   -1.00    2.60
  -5   1   5   -2.20    2.00
  -5   1   5   -0.20    2.50
   4  -1   5    3.90    2.90
   4  -1   5   -2.30    2.30
   4  -1   5    0.70    2.50
  -4   1  -5    0.70    3.50
  -4   1  -5   -0.30    2.30
  -4   1  -5    1.70    3.00
   4  -1   4   13.50    3.00
   4  -1   4    9.60    2.60
   4  -1   4   11.90    2.90
   4  -1   4   10.20    3.00
  -4   1  -4    9.70    3.30
  -4   1  -4   12.10    3.80
   4  -1   3   33.80    3.50
   4  -1   3   48.60    4.50
   4  -1   3   46.40    4.50
   4  -1   3   38.50    3.00
   4  -1   3   40.40    4.00
  -4   1  -3   37.20    5.00
  -4   1  -3   41.20    3.00
  -4   1  -3   40.00    5.30
  -4   1  -3   42.50    5.00
   4  -1   2  102.59    5.20
   4  -1   2  103.39    3.90
   4  -1   2   99.49    5.30
   4  -1   2   90.39    4.70
   4  -1   2   97.09    4.00
   4  -1   2   94.89    4.90
  -4   1  -2  101.69    6.20
  -4   1  -2   97.69    4.40
  -4   1  -2   95.39    6.20
  -4   1  -2   99.59    6.60
  -4   1  -2   98.89    4.30
   4  -1   1  397.66   14.00
   4  -1   1  410.06   14.40
   4  -1   1  397.56   14.70
   4  -1   1  403.26   14.80
  -4   1  -1  406.46   13.80
  -4   1  -1  397.66   15.80
  -4   1  -1  397.36   16.20
   4  -1   0   48.80    2.40
   4  -1   0   55.99    2.60
   4  -1   0   48.30    2.30
   4  -1   0   52.49    2.50
  -4   1   0   54.19    3.30
  -4   1   0   50.29    2.40
  -4   1   0   52.59    3.40
  -4   1   0   54.49    2.40
   4  -1  -1  409.56   14.60
   4  -1  -1  410.96   14.00
   4  -1  -1  391.66   14.60
  -4   1   1  387.46   14.80
  -4   1   1  449.16   14.60
  -4   1   1  409.56   15.30
  -4   1   1  402.96   14.70
  -4   1   1  400.76   14.50
   4  -1  -2   92.49    5.20
   4  -1  -2  103.39    5.20
   4  -1  -2  102.79    4.60
  -4   1   2  100.39    5.30
  -4   1   2  103.89    5.20
  -4   1   2  103.49    5.40
  -4   1   2   97.99    5.10
   4  -1  -3   41.50    3.60
   4  -1  -3   38.10    4.20
   4  -1  -3   38.80    4.10
  -4   1   3   40.60    3.90
  -4   1   3   45.50    3.70
  -4   1   3   44.50    4.30
  -4   1   3   44.10    3.70
  -4   1   3   43.10    4.30
   4  -1  -4    7.70    2.80
   4  -1  -4   10.10    2.80
  -4   1   4   13.70    2.80
  -4   1   4    7.40    2.70
  -4   1   4   10.30    2.70
  -4   1   4    6.20    2.10
  -4   1   4   15.10    3.30
   4  -1  -5   -0.40    2.20
   4  -1  -5   -0.10    2.10
  -4   1   5    1.50    2.30
  -4   1   5    0.30    2.60
  -4   1   5   -1.00    2.40
  -4   1   5   -0.40    2.10
   3  -1   5    1.80    2.50
   3  -1   5    4.90    2.70
   3  -1   5    0.20    2.30
  -3   1  -5    2.00    2.50
  -3   1  -5    3.00    2.60
  -3   1  -5    1.00    2.20
   3  -1   4    2.10    1.60
   3  -1   4   -2.00    1.50
   3  -1   4   -0.60    1.90
   3  -1   4    1.60    2.10
  -3   1  -4   -1.50    1.40
  -3   1  -4    1.40    2.20
  -3   1  -4   -1.10    1.90
   3  -1   3   18.40    2.70
   3  -1   3   24.40    2.50
   3  -1   3   24.10    3.10
   3  -1   3   16.40    2.40
   3  -1   3   16.40    2.60
   3  -1   3   17.90    1.90
   3  -1   3   16.60    1.90
  -3   1  -3   22.80    3.40
  -3   1  -3   16.30    3.40
  -3   1  -3   21.30    2.50
  -3   1  -3   20.40    2.30
  -3   1  -3   18.80    3.50
   3  -1   2 1037.70   36.80
   3  -1   2 1056.29   37.00
   3  -1   2 1033.40   37.00
   3  -1   2 1055.89   37.30
   3  -1   2 1088.29   36.50
   3  -1   2 1064.29   36.00
   3  -1   2 1056.99   35.80
  -3   1  -2 1071.79   38.90
  -3   1  -2 1098.79   36.40
  -3   1  -2 1114.29   38.70
  -3   1  -2 1060.29   37.90
  -3   1  -2 1107.09   36.20
   3  -1   1 2316.27   75.79
   3  -1   1 2222.38   75.99
   3  -1   1 2319.97   76.19
   3  -1   1 2275.67   76.29
  -3   1  -1 2141.59   75.69
  -3   1  -1 2346.87   75.49
  -3   1  -1 2287.87   77.09
  -3   1  -1 2352.86   77.69
   3  -1   0 4683.03  164.88
   3  -1   0 4787.92  165.18
   3  -1   0 5359.16  164.38
   3  -1   0 5123.59  164.28
  -3   1   0 5036.80  164.18
  -3   1   0 5038.00  164.08
  -3   1   0 4882.71  164.98
  -3   1   0 4951.50  165.08
   3  -1  -1 2307.17   75.99
   3  -1  -1 2266.07   76.59
   3  -1  -1 2397.86   76.59
  -3   1   1 2244.98   76.59
  -3   1   1 2284.47   76.49
  -3   1   1 2356.36   76.99
  -3   1   1 2213.58   76.39
   3  -1  -2 1089.19   36.70
   3  -1  -2 1056.59   37.30
   3  -1  -2 1067.59   37.40
  -3   1   2 1077.89   37.30
  -3   1   2 1074.19   37.00
  -3   1   2 1098.29   37.30
  -3   1   2 1085.99   37.10
  -3   1   2 1035.00   37.10
   3  -1  -3   20.40    2.60
   3  -1  -3   19.30    3.00
   3  -1  -3   17.60    2.70
  -3   1   3   18.30    2.70
  -3   1   3   16.90    2.70
  -3   1   3   19.10    2.70
  -3   1   3   17.90    2.70
  -3   1   3   21.70    2.80
   3  -1  -4    0.90    1.90
   3  -1  -4   -0.30    1.70
  -3   1   4    1.70    1.60
  -3   1   4    1.20    1.80
  -3   1   4    2.40    1.90
  -3   1   4   -1.00    2.00
  -3   1   4   -1.50    1.60
   3  -1  -5    2.30    3.00
   3  -1  -5    0.40    2.00
  -3   1   5   -0.10    2.30
  -3   1   5    2.50    2.20
  -3   1   5    3.10    2.50
  -3   1   5    1.10    2.80
   2  -1   5    8.90    3.10
   2  -1   5    3.90    2.70
   2  -1   5    3.10    2.60
  -2   1  -5    5.40    3.10
  -2   1  -5    2.00    2.50
  -2   1  -5    5.60    2.60
   2  -1   4   30.70    4.00
   2  -1   4   23.70    3.80
   2  -1   4   19.40    3.40
   2  -1   4   19.30    2.90
  -2   1  -4   16.40    3.30
  -2   1  -4   17.10    3.80
  -2   1  -4   19.70    3.90
   2  -1   3    2.00    1.20
   2  -1   3    1.80    1.00
   2  -1   3    1.50    1.10
   2  -1   3    2.20    1.10
   2  -1   3    1.20    1.30
   2  -1   3    1.90    1.40
   2  -1   3    3.60    1.50
  -2   1  -3    2.60    1.80
  -2   1  -3    2.40    1.30
  -2   1  -3    1.80    1.70
  -2   1  -3    0.40    1.60
   2  -1   2  749.23   27.20
   2  -1   2  763.42   27.00
   2  -1   2  750.72   27.20
   2  -1   2  786.92   26.50
   2  -1   2  763.92   26.30
   2  -1   2  786.42   26.20
   2  -1   2  777.42   27.10
  -2   1  -2  811.32   27.60
  -2   1  -2  782.72   28.60
  -2   1  -2  750.92   28.20
   2  -1   1  141.49    5.70
   2  -1   1  141.49    5.60
   2  -1   1  145.69    5.00
   2  -1   1  135.99    5.40
   2  -1   1  137.89    5.70
   2  -1   1  140.89    5.00
  -2   1  -1  143.59    5.10
  -2   1  -1  135.09    6.60
  -2   1  -1  149.09    6.20
  -2   1  -1  140.79    6.30
   2  -1   0 2304.97   76.09
   2  -1   0 2161.98   75.99
   2  -1   0 2385.76   76.19
  -2   1   0 2338.17   76.09
  -2   1   0 2321.57   75.99
  -2   1   0 2374.16   76.79
  -2   1   0 2252.57   76.49
   2  -1  -1  144.49    5.80
   2  -1  -1  144.19    5.80
   2  -1  -1  148.49    5.40
  -2   1   1  150.48    5.80
  -2   1   1  134.59    5.60
  -2   1   1  156.28    6.00
   2  -1  -2  770.22   27.50
   2  -1  -2  748.73   27.40
   2  -1  -2  776.32   26.80
   2  -1  -2  775.42   27.10
  -2   1   2  785.62   26.10
  -2   1   2  753.42   27.20
  -2   1   2  795.42   27.30
  -2   1   2  769.02   27.20
  -2   1   2  785.92   27.10
  -2   1   2  795.22   27.40
   2  -1  -3    2.30    1.50
   2  -1  -3    2.80    1.40
   2  -1  -3    2.40    1.20
   2  -1  -3    2.80    1.60
  -2   1   3    2.10    1.30
  -2   1   3    1.20    1.20
  -2   1   3    0.30    1.10
  -2   1   3    1.10    1.40
  -2   1   3    2.80    1.60
   2  -1  -4   23.10    3.80
   2  -1  -4   22.90    3.60
  -2   1   4   21.80    3.20
  -2   1   4   23.10    3.60
  -2   1   4   15.70    3.20
  -2   1   4   22.30    3.30
  -2   1   4   24.50    3.90
   2  -1  -5    2.40    2.50
   2  -1  -5    6.20    3.00
  -2   1   5    8.00    2.80
  -2   1   5    8.00    3.50
  -2   1   5   10.30    3.00
  -2   1   5    7.90    3.30
   1  -1   5    0.20    2.30
   1  -1   5    3.40    2.70
   1  -1   5    3.30    2.40
  -1   1  -5    1.30    2.40
  -1   1  -5    4.10    2.80
  -1   1  -5    4.50    2.80
   1  -1   4   38.80    4.70
   1  -1   4   39.80    4.30
   1  -1   4   40.80    4.70
   1  -1   4   36.00    3.60
   1  -1   4   45.00    4.10
   1  -1   4   38.50    3.60
  -1   1  -4   34.00    4.80
  -1   1  -4   35.80    5.00
  -1   1  -4   29.40    4.30
   1  -1   3  158.18    7.50
   1  -1   3  146.89    6.80
   1  -1   3  152.38    7.50
   1  -1   3  166.08    7.00
   1  -1   3  151.38    6.70
   1  -1   3  149.29    7.50
   1  -1   3  158.18    6.70
  -1   1  -3  153.58    8.30
  -1   1  -3  148.99    7.80
  -1   1  -3  153.38    8.50
  -1   1  -3  154.18    7.70
   1  -1   2  172.08    6.90
   1  -1   2  164.58    7.40
   1  -1   2  168.58    6.70
   1  -1   2  169.88    7.40
   1  -1   2  186.08    6.90
   1  -1   2  182.48    7.10
   1  -1   2  179.08    7.40
  -1   1  -2  172.78    8.30
  -1   1  -2  165.18    8.00
  -1   1  -2  184.28    7.50
   1  -1   1 6950.21  229.18
   1  -1   1 6881.71  229.68
   1  -1   1 6900.01  229.88
   1  -1   1 6896.41  229.18
   1  -1   1 6844.92  229.08
   1  -1   1 6777.52  229.88
   1  -1   1 6856.51  228.98
  -1   1  -1 7153.08  229.88
  -1   1  -1 7081.79  229.68
  -1   1  -1 7166.38  229.58
   1  -1   0  430.26   13.10
  -1   1   0  341.27   12.80
   1  -1  -1 6676.53  227.08
   1  -1  -1 6932.41  227.08
   1  -1  -1 7060.09  228.28
  -1   1   1 6786.22  227.88
  -1   1   1 6853.71  227.08
  -1   1   1 7127.39  227.18
  -1   1   1 6641.34  227.38
  -1   1   1 6837.22  226.88
  -1   1   1 6961.30  226.58
  -1   1   1 7012.30  226.98
   1  -1  -2  181.28    7.60
   1  -1  -2  168.38    7.50
   1  -1  -2  179.58    7.50
   1  -1  -2  173.88    7.50
  -1   1   2  177.68    6.70
  -1   1   2  176.48    7.30
  -1   1   2  169.08    7.30
  -1   1   2  190.08    7.50
  -1   1   2  168.18    6.90
  -1   1   2  172.28    7.10
  -1   1   2  176.98    7.30
   1  -1  -3  159.58    7.90
   1  -1  -3  149.88    7.80
   1  -1  -3  159.98    7.90
   1  -1  -3  166.18    8.00
  -1   1   3  168.18    7.30
  -1   1   3  153.38    7.00
  -1   1   3  168.28    7.80
  -1   1   3  153.18    7.60
  -1   1   3  160.68    7.40
  -1   1   3  151.48    6.60
  -1   1   3  167.58    7.50
   1  -1  -4   39.40    4.90
   1  -1  -4   30.30    4.10
   1  -1  -4   34.60    4.40
  -1   1   4   46.00    5.10
  -1   1   4   33.70    4.20
  -1   1   4   33.50    3.70
  -1   1   4   40.60    4.30
  -1   1   4   39.00    3.90
  -1   1   4   39.00    4.00
   1  -1  -5    7.90    3.30
   1  -1  -5    6.80    2.80
   1  -1  -5    5.60    2.80
  -1   1   5    6.40    3.20
  -1   1   5    6.70    2.60
  -1   1   5    8.50    3.30
  -1   1   5    3.60    2.40
   0  -1   5    3.40    3.00
   0  -1   5    1.80    2.50
   0   1  -5    4.90    2.90
   0   1  -5    6.00    2.70
   0  -1   4   17.90    3.10
   0  -1   4   11.70    2.90
   0  -1   4   20.80    2.80
   0  -1   4   22.10    3.10
   0  -1   4   22.40    3.70
   0   1  -4   26.40    4.10
   0   1  -4   16.40    3.30
   0  -1   3   34.30    3.60
   0  -1   3   31.20    2.60
   0  -1   3   30.80    2.50
   0  -1   3   33.20    2.60
   0  -1   3   29.60    3.20
   0  -1   3   35.60    2.90
   0  -1   3   38.90    3.80
   0   1  -3   35.30    4.10
   0   1  -3   43.20    4.20
   0   1  -3   35.00    4.00
   0  -1   2   61.09    3.60
   0  -1   2   67.99    3.20
   0  -1   2   64.89    3.60
   0  -1   2   65.89    3.20
   0  -1   2   56.79    3.30
   0  -1   2   56.79    3.00
   0  -1   2   62.59    3.30
   0   1  -2   60.09    3.70
   0   1  -2   60.99    3.90
   0   1  -2   64.69    4.00
   0  -1   1  199.28    6.90
   0  -1   1  213.58    7.00
   0  -1   1  178.48    7.20
   0  -1   1  189.38    7.20
   0  -1   1  182.78    7.10
   0   1  -1  192.58    7.50
   0   1  -1  194.78    7.60
   0  -1   0    0.00    0.10
   0   1   0   -0.10    0.10
   0  -1  -1  194.58    7.10
   0  -1  -1  181.38    7.00
   0  -1  -1  194.88    7.30
   0   1   1  188.98    7.00
   0   1   1  186.58    6.90
   0   1   1  192.28    7.00
   0  -1  -2   62.69    3.80
   0  -1  -2   61.49    3.60
   0  -1  -2   61.09    3.50
   0  -1  -2   59.69    3.90
   0   1   2   60.99    3.20
   0   1   2   55.49    3.20
   0   1   2   63.79    3.10
   0   1   2   64.89    3.50
   0   1   2   64.09    3.30
   0   1   2   61.59    3.40
   0   1   2   55.99    3.30
   0  -1  -3   35.70    4.00
   0  -1  -3   33.80    3.80
   0  -1  -3   35.10    3.80
   0  -1  -3   29.70    3.50
   0   1   3   35.10    3.40
   0   1   3   38.60    3.80
   0   1   3   37.40    3.20
   0   1   3   38.70    3.50
   0   1   3   33.50    3.50
   0   1   3   31.60    2.50
   0   1   3   34.10    3.30
   0  -1  -4   14.40    3.10
   0  -1  -4   22.50    3.70
   0  -1  -4   18.40    3.30
   0   1   4   24.20    3.80
   0   1   4   18.20    2.80
   0   1   4   17.20    2.90
   0   1   4   16.50    2.70
   0   1   4   22.80    3.10
   0   1   4   23.10    3.50
   0  -1  -5    6.70    3.60
   0  -1  -5    2.00    2.30
   0  -1  -5    5.40    2.90
   0   1   5    3.60    2.60
   0   1   5    4.20    2.80
  -1  -1   5    8.50    3.40
  -1  -1   5    2.00    2.70
   1   1  -5    5.70    2.80
   1   1  -5    3.20    2.50
  -1  -1   4   40.90    4.00
  -1  -1   4   45.90    4.50
  -1  -1   4   42.60    4.70
  -1  -1   4   39.00    4.70
   1   1  -4   28.50    4.20
   1   1  -4   34.80    4.60
   1   1  -4   38.10    4.70
  -1  -1   3  158.48    7.10
  -1  -1   3  149.39    7.70
  -1  -1   3  168.48    7.50
  -1  -1   3  159.08    7.20
  -1  -1   3  162.98    7.80
   1   1  -3  162.08    8.20
   1   1  -3  170.88    8.30
   1   1  -3  155.78    7.80
  -1  -1   2  178.18    7.10
  -1  -1   2  184.18    7.60
  -1  -1   2  169.38    7.40
  -1  -1   2  178.18    6.70
  -1  -1   2  178.68    7.20
  -1  -1   2  178.08    7.10
  -1  -1   2  173.98    7.30
   1   1  -2  185.88    7.60
   1   1  -2  168.18    7.70
   1   1  -2  172.68    7.80
  -1  -1   1 6552.44  223.38
  -1  -1   1 6612.74  223.28
  -1  -1   1 6919.31  224.78
  -1  -1   1 6828.12  223.58
  -1  -1   1 6673.23  223.58
   1   1  -1 6983.70  223.78
   1   1  -1 6896.61  223.88
   1   1  -1 6788.22  223.68
  -1  -1   0  341.37   12.20
   1   1   0  365.26   12.20
  -1  -1  -1 6933.81  229.48
  -1  -1  -1 7457.65  229.58
  -1  -1  -1 7289.87  228.78
   1   1   1 6842.22  228.88
   1   1   1 6823.82  229.38
   1   1   1 6756.52  229.48
   1   1   1 6631.14  229.58
   1   1   1 6815.42  229.28
   1   1   1 7062.89  228.88
   1   1   1 6841.12  229.38
  -1  -1  -2  167.78    7.40
  -1  -1  -2  179.58    8.30
  -1  -1  -2  180.28    8.10
  -1  -1  -2  167.18    7.30
   1   1   2  173.78    6.80
   1   1   2  174.08    7.00
   1   1   2  168.48    7.20
   1   1   2  184.78    7.20
   1   1   2  174.68    7.00
   1   1   2  171.28    7.20
   1   1   2  172.98    7.20
  -1  -1  -3  155.28    8.30
  -1  -1  -3  164.88    8.40
  -1  -1  -3  162.58    7.60
  -1  -1  -3  155.48    7.70
  -1  -1  -3  148.79    7.50
  -1  -1  -3  146.59    8.40
   1   1   3  147.79    7.40
   1   1   3  169.58    7.30
   1   1   3  141.59    6.80
   1   1   3  166.98    7.60
   1   1   3  149.09    6.70
   1   1   3  155.48    7.00
   1   1   3  158.08    7.40
  -1  -1  -4   32.90    4.70
  -1  -1  -4   37.30    4.90
  -1  -1  -4   32.00    4.90
  -1  -1  -4   35.30    4.40
  -1  -1  -4   40.70    4.90
  -1  -1  -4   36.30    4.40
   1   1   4   41.00    4.00
   1   1   4   35.90    4.00
   1   1   4   41.50    4.70
   1   1   4   37.70    3.80
   1   1   4   34.50    4.20
   1   1   4   34.70    3.50
  -1  -1  -5    4.30    2.60
  -1  -1  -5    9.80    3.20
   1   1   5    7.20    3.00
   1   1   5    7.50    3.00
  -2  -1   5    6.00    2.80
  -2  -1   5    5.90    3.00
  -2  -1   5   11.00    3.30
  -2  -1   5    5.90    2.60
   2   1  -5    6.60    2.90
   2   1  -5    4.70    2.70
  -2  -1   4   20.00    3.20
  -2  -1   4   23.70    3.80
  -2  -1   4   19.30    3.10
  -2  -1   4   25.50    3.70
   2   1  -4   16.10    3.20
   2   1  -4   18.40    3.50
   2   1  -4   18.80    3.50
  -2  -1   3    0.30    1.30
  -2  -1   3    3.20    1.60
  -2  -1   3    3.10    1.50
  -2  -1   3    1.10    1.20
  -2  -1   3    1.60    1.20
   2   1  -3    2.00    1.40
   2   1  -3    2.50    1.30
   2   1  -3    2.40    1.60
   2   1  -3    0.10    1.40
  -2  -1   2  787.02   27.10
  -2  -1   2  757.22   26.80
  -2  -1   2  776.42   26.80
  -2  -1   2  763.92   27.10
  -2  -1   2  766.02   27.20
   2   1  -2  768.92   27.30
   2   1  -2  774.42   26.60
   2   1  -2  760.42   27.40
  -2  -1   1  148.59    5.70
  -2  -1   1  140.19    5.60
  -2  -1   1  142.99    5.60
  -2  -1   1  132.69    5.60
   2   1  -1  152.48    5.80
   2   1  -1  139.99    5.80
  -2  -1   0 2331.57   76.69
  -2  -1   0 2340.27   76.79
  -2  -1   0 2174.08   77.59
   2   1   0 2439.86   76.69
   2   1   0 2301.47   76.49
   2   1   0 2329.77   76.69
  -2  -1  -1  152.38    5.60
  -2  -1  -1  150.38    6.80
  -2  -1  -1  133.19    5.60
  -2  -1  -1  146.89    6.60
   2   1   1  145.29    5.30
   2   1   1  144.19    5.40
   2   1   1  143.49    5.40
   2   1   1  134.29    5.70
   2   1   1  152.88    5.60
   2   1   1  138.99    5.60
   2   1   1  146.19    5.80
  -2  -1  -2  803.62   28.00
  -2  -1  -2  772.82   28.00
  -2  -1  -2  742.63   26.70
  -2  -1  -2  804.42   26.60
  -2  -1  -2  733.63   28.30
   2   1   2  761.52   26.80
   2   1   2  761.92   26.80
   2   1   2  782.12   26.70
   2   1   2  745.13   26.60
   2   1   2  756.22   26.20
   2   1   2  753.72   26.90
   2   1   2  768.32   26.30
  -2  -1  -3    2.80    1.30
  -2  -1  -3   -0.70    1.20
  -2  -1  -3    2.20    1.40
  -2  -1  -3    0.80    1.40
  -2  -1  -3    1.50    1.50
  -2  -1  -3    0.10    1.30
   2   1   3    0.60    1.30
   2   1   3   -0.10    1.00
   2   1   3    1.40    1.00
   2   1   3    1.00    1.20
   2   1   3    0.90    1.40
   2   1   3    0.60    1.10
   2   1   3    2.40    1.30
  -2  -1  -4   14.80    3.40
  -2  -1  -4   19.50    3.40
  -2  -1  -4   22.30    3.60
  -2  -1  -4   20.60    4.00
  -2  -1  -4   22.70    3.20
  -2  -1  -4   21.50    3.40
   2   1   4   24.20    3.60
   2   1   4   19.20    2.80
   2   1   4   18.90    2.90
   2   1   4   23.70    2.70
   2   1   4   24.50    3.70
   2   1   4   24.90    3.60
  -2  -1  -5    5.40    2.70
  -2  -1  -5    8.10    2.70
  -2  -1  -5    4.70    2.70
   2   1   5    2.90    2.50
   2   1   5    5.00    3.10
   2   1   5    4.20    2.30
  -3  -1   5    1.40    2.20
  -3  -1   5   -0.70    2.50
  -3  -1   5   -1.50    2.10
  -3  -1   5   -1.10    2.40
   3   1  -5    0.40    2.00
   3   1  -5    0.50    2.40
  -3  -1   4    0.50    1.60
  -3  -1   4    1.50    1.90
  -3  -1   4   -0.80    1.50
  -3  -1   4   -1.90    1.60
   3   1  -4   -0.10    1.70
   3   1  -4    0.50    1.70
  -3  -1   3   24.60    3.00
  -3  -1   3   20.70    2.90
  -3  -1   3   15.90    2.60
  -3  -1   3   21.00    2.60
  -3  -1   3   22.20    2.80
   3   1  -3   14.90    2.60
   3   1  -3   12.90    2.60
   3   1  -3   22.90    3.00
  -3  -1   2 1066.99   36.40
  -3  -1   2 1094.79   36.50
  -3  -1   2 1034.80   36.60
  -3  -1   2 1026.10   36.50
  -3  -1   2 1082.39   36.70
   3   1  -2 1030.00   36.80
   3   1  -2 1086.69   36.70
   3   1  -2 1016.10   36.80
  -3  -1   1 2290.97   75.59
  -3  -1   1 2333.47   75.79
  -3  -1   1 2223.08   75.29
  -3  -1   1 2288.47   75.39
   3   1  -1 2261.67   75.39
   3   1  -1 2264.87   75.49
   3   1  -1 2174.78   75.49
  -3  -1   0 5024.20  164.68
  -3  -1   0 4833.32  165.98
  -3  -1   0 4915.01  164.58
   3   1   0 4621.64  165.68
   3   1   0 5115.49  164.98
   3   1   0 5159.38  164.68
   3   1   0 5273.37  164.68
  -3  -1  -1 2331.77   79.39
  -3  -1  -1 2391.36   79.49
  -3  -1  -1 2319.07   77.99
  -3  -1  -1 2391.76   77.79
   3   1   1 2301.57   77.89
   3   1   1 2332.77   77.39
   3   1   1 2283.47   77.99
   3   1   1 2335.57   77.59
   3   1   1 2347.17   78.09
  -3  -1  -2 1087.49   36.60
  -3  -1  -2 1037.60   38.60
  -3  -1  -2 1115.29   36.40
  -3  -1  -2 1073.09   38.20
   3   1   2 1051.39   35.80
   3   1   2 1079.49   36.50
   3   1   2 1037.70   36.30
   3   1   2 1039.80   36.70
   3   1   2 1031.80   36.50
   3   1   2 1072.29   36.00
   3   1   2 1048.80   36.90
  -3  -1  -3   19.50    3.50
  -3  -1  -3   23.70    3.80
  -3  -1  -3   19.00    2.60
  -3  -1  -3   17.90    3.50
  -3  -1  -3   22.20    2.60
   3   1   3   20.60    2.10
   3   1   3   21.30    2.30
   3   1   3   23.40    2.70
   3   1   3   23.80    2.80
   3   1   3   16.40    2.60
   3   1   3   20.60    2.80
   3   1   3   17.50    2.70
  -3  -1  -4   -1.70    1.70
  -3  -1  -4    0.30    1.90
  -3  -1  -4    0.80    2.10
  -3  -1  -4    0.10    2.00
   3   1   4   -0.70    1.70
   3   1   4    0.80    1.50
   3   1   4    0.90    1.70
   3   1   4    0.70    1.90
  -3  -1  -5    0.10    2.10
  -3  -1  -5    1.40    2.60
  -3  -1  -5    0.30    2.20
   3   1   5    2.40    2.60
   3   1   5    1.20    2.50
   3   1   5   -0.50    2.20
  -4  -1   5    0.10    2.40
  -4  -1   5   -3.20    2.30
  -4  -1   5   -2.30    2.20
  -4  -1   5    0.70    2.40
   4   1  -5   -3.70    1.90
   4   1  -5    0.20    2.10
  -4  -1   4    8.50    2.60
  -4  -1   4   10.40    3.20
  -4  -1   4   17.60    3.20
  -4  -1   4    7.60    2.60
   4   1  -4   13.40    3.30
   4   1  -4   10.20    2.80
  -4  -1   3   41.50    4.00
  -4  -1   3   44.20    4.00
  -4  -1   3   40.30    4.20
  -4  -1   3   39.20    4.00
  -4  -1   3   46.00    3.70
   4   1  -3   38.40    4.20
   4   1  -3   46.40    3.70
   4   1  -3   45.50    4.60
  -4  -1   2  111.99    5.20
  -4  -1   2   93.09    5.00
  -4  -1   2   99.59    5.20
  -4  -1   2   98.29    5.20
  -4  -1   2   94.79    4.90
   4   1  -2   88.59    5.00
   4   1  -2   94.89    5.20
   4   1  -2  102.59    5.10
  -4  -1   1  379.36   14.30
  -4  -1   1  402.96   15.20
  -4  -1   1  424.66   14.90
  -4  -1   1  402.06   14.50
   4   1  -1  399.46   14.40
   4   1  -1  394.96   14.50
   4   1  -1  400.06   14.50
   4   1  -1  422.56   13.70
  -4  -1   0   51.39    3.30
  -4  -1   0   48.80    2.40
  -4  -1   0   47.20    2.50
  -4  -1   0   56.19    3.70
   4   1   0   53.59    2.10
   4   1   0   50.49    2.50
   4   1   0   50.99    2.50
   4   1   0   45.40    2.30
  -4  -1  -1  415.26   14.40
  -4  -1  -1  391.96   16.30
  -4  -1  -1  390.96   14.50
  -4  -1  -1  390.56   16.10
   4   1   1  417.66   14.20
   4   1   1  383.46   13.70
   4   1   1  403.96   14.70
  -4  -1  -2   93.49    6.40
  -4  -1  -2  101.29    4.90
  -4  -1  -2   90.09    6.20
  -4  -1  -2   93.29    4.60
   4   1   2   89.29    5.00
   4   1   2   97.59    4.50
   4   1   2   91.29    4.80
   4   1   2   97.49    4.10
   4   1   2   95.89    4.30
   4   1   2   96.69    4.80
   4   1   2  101.79    5.10
  -4  -1  -3   35.70    5.00
  -4  -1  -3   39.60    3.60
  -4  -1  -3   46.30    3.20
  -4  -1  -3   34.40    4.70
  -4  -1  -3   41.90    5.10
   4   1   3   33.60    2.60
   4   1   3   35.80    3.00
   4   1   3   39.70    3.20
   4   1   3   42.30    3.60
   4   1   3   39.60    2.50
   4   1   3   38.10    3.30
   4   1   3   34.20    3.70
  -4  -1  -4   12.10    3.10
  -4  -1  -4   14.40    4.10
  -4  -1  -4   11.00    3.40
   4   1   4   10.70    2.80
   4   1   4    6.30    2.40
   4   1   4   12.70    2.90
   4   1   4   13.70    3.10
  -4  -1  -5    0.80    2.60
  -4  -1  -5   -2.00    2.20
  -4  -1  -5    0.00    2.10
  -4  -1  -5   -1.40    3.60
   4   1   5    1.10    2.40
   4   1   5    1.20    2.40
  -5  -1   5    2.40    2.70
  -5  -1   5    0.20    2.30
  -5  -1   5    1.00    2.60
  -5  -1   5   -1.10    2.60
   5   1  -5   -1.90    2.20
   5   1  -5   -1.60    2.00
  -5  -1   4   64.29    6.30
  -5  -1   4   69.59    5.70
  -5  -1   4   48.20    5.40
  -5  -1   4   50.99    5.30
   5   1  -4   63.59    5.40
   5   1  -4   62.09    6.30
  -5  -1   3   44.20    3.80
  -5  -1   3   33.50    4.00
  -5  -1   3   42.30    4.20
  -5  -1   3   38.20    3.90
  -5  -1   3   45.00    3.80
   5   1  -3   35.60    4.10
   5   1  -3   36.00    4.00
   5   1  -3   37.20    3.80
  -5  -1   2  429.06   15.70
  -5  -1   2  407.36   15.30
  -5  -1   2  399.26   15.70
  -5  -1   2  392.96   15.20
   5   1  -2  397.06   15.40
   5   1  -2  402.16   15.10
   5   1  -2  387.06   15.50
  -5  -1   1   77.09    3.60
  -5  -1   1   62.59    3.50
  -5  -1   1   65.09    3.20
  -5  -1   1   67.89    3.70
  -5  -1   1   71.89    4.30
   5   1  -1   66.79    3.40
   5   1  -1   62.39    2.80
   5   1  -1   64.19    3.30
   5   1  -1   62.29    3.40
  -5  -1   0   42.60    4.10
  -5  -1   0   36.50    2.30
  -5  -1   0   39.80    3.70
  -5  -1   0   34.00    2.10
   5   1   0   37.50    1.70
   5   1   0   31.80    2.20
   5   1   0   31.90    1.90
   5   1   0   35.10    2.30
  -5  -1  -1   64.59    3.20
  -5  -1  -1   56.49    4.80
  -5  -1  -1   66.69    4.90
  -5  -1  -1   71.99    3.50
   5   1   1   65.19    3.70
   5   1   1   69.29    3.20
   5   1   1   61.49    2.70
   5   1   1   58.79    3.60
  -5  -1  -2  385.46   17.40
  -5  -1  -2  389.06   17.30
  -5  -1  -2  410.86   14.80
  -5  -1  -2  402.16   15.00
   5   1   2  388.06   14.80
   5   1   2  400.06   15.40
   5   1   2  388.96   14.30
   5   1   2  385.66   15.40
  -5  -1  -3   44.90    5.90
  -5  -1  -3   37.70    3.80
  -5  -1  -3   37.20    5.40
  -5  -1  -3   38.60    3.50
  -5  -1  -3   40.40    5.30
   5   1   3   31.30    3.60
   5   1   3   31.60    3.80
   5   1   3   34.80    3.00
   5   1   3   41.40    3.40
   5   1   3   39.40    3.20
   5   1   3   40.00    4.10
  -5  -1  -4   55.49    6.90
  -5  -1  -4   54.49    7.20
   5   1   4   54.79    4.60
   5   1   4   57.69    5.10
   5   1   4   56.29    5.80
   5   1   4   58.49    5.60
  -5  -1  -5    0.50    2.60
  -5  -1  -5    2.00    3.30
  -5  -1  -5    0.90    2.40
   5   1   5    0.30    2.40
   5   1   5   -0.50    2.30
   5   1   5   -0.30    2.40
  -6  -1   5   -1.20    2.20
  -6  -1   5    4.00    3.00
  -6  -1   5    2.10    3.00
   6   1  -5    2.10    2.40
   6   1  -5    1.30    2.50
  -6  -1   4    0.70    2.10
  -6  -1   4    4.30    2.70
  -6  -1   4    1.70    3.30
  -6  -1   4    7.20    3.00
   6   1  -4    1.70    1.90
   6   1  -4    5.00    2.50
  -6  -1   3   17.10    3.20
  -6  -1   3   16.60    2.90
  -6  -1   3   18.50    3.10
  -6  -1   3   14.70    2.80
   6   1  -3   15.00    2.80
   6   1  -3   14.00    2.90
  -6  -1   2   40.90    3.70
  -6  -1   2   38.20    3.80
  -6  -1   2   41.70    3.10
  -6  -1   2   37.30    4.00
   6   1  -2   39.30    3.10
   6   1  -2   33.20    3.40
   6   1  -2   39.40    2.90
  -6  -1   1  515.95   19.70
  -6  -1   1  529.05   18.70
  -6  -1   1  494.45   18.00
  -6  -1   1  480.75   18.40
  -6  -1   1  540.35   18.90
   6   1  -1  501.55   18.10
   6   1  -1  534.05   18.40
   6   1  -1  518.65   17.70
   6   1  -1  485.05   18.20
  -6  -1   0  258.47   10.10
  -6  -1   0  282.37   11.90
  -6  -1   0  266.67   12.20
  -6  -1   0  272.97   10.40
   6   1   0  279.77   10.50
   6   1   0  265.17   10.00
   6   1   0  270.97    9.60
   6   1   0  278.17   10.40
  -6  -1  -1  498.45   20.80
  -6  -1  -1  495.25   20.40
  -6  -1  -1  511.15   17.80
  -6  -1  -1  524.55   17.70
   6   1   1  510.75   17.80
   6   1   1  478.55   18.40
   6   1   1  488.15   17.10
   6   1   1  483.55   18.40
  -6  -1  -2   37.20    3.00
  -6  -1  -2   48.00    5.90
  -6  -1  -2   33.20    3.00
  -6  -1  -2   43.50    5.50
   6   1   2   36.20    2.40
   6   1   2   42.80    3.90
   6   1   2   31.30    3.50
   6   1   2   35.50    2.80
  -6  -1  -3   12.50    3.60
  -6  -1  -3   10.20    3.40
  -6  -1  -3   19.10    4.20
   6   1   3   15.10    2.30
   6   1   3   20.00    3.20
   6   1   3   19.20    3.20
   6   1   3   19.40    2.90
  -6  -1  -4    1.50    2.80
  -6  -1  -4    6.00    3.00
   6   1   4    7.00    2.60
   6   1   4    4.00    2.40
   6   1   4    3.60    2.10
  -6  -1  -5    2.60    3.20
  -6  -1  -5    2.10    3.40
  -6  -1  -5    3.90    2.70
   6   1   5    0.90    2.90
   6   1   5    2.40    2.80
   6   1   5    0.80    2.60
  -7  -1   5   -1.40    2.80
  -7  -1   5    1.50    3.10
  -7  -1   5    3.70    2.80
   7   1  -5   -1.80    2.30
   7   1  -5   -1.60    2.70
  -7  -1   4    8.40    3.00
  -7  -1   4   10.20    3.30
  -7  -1   4    9.80    3.10
  -7  -1   4    4.90    2.40
   7   1  -4   10.70    3.10
   7   1  -4    9.20    3.00
  -7  -1   3  102.09    6.60
  -7  -1   3  106.59    6.20
  -7  -1   3   96.09    6.10
   7   1  -3   94.99    6.10
   7   1  -3  100.59    6.40
  -7  -1   2  313.37   12.80
  -7  -1   2  297.37   12.30
  -7  -1   2  316.07   13.60
  -7  -1   2  311.97   13.10
   7   1  -2  335.17   12.80
   7   1  -2  312.87   12.70
   7   1  -2  302.57   12.10
  -7  -1   1  106.49    4.80
  -7  -1   1  106.89    5.40
  -7  -1   1  110.49    6.50
  -7  -1   1  105.29    5.60
  -7  -1   1  115.19    5.80
   7   1  -1  103.09    5.10
   7   1  -1  108.89    5.00
   7   1  -1  105.59    4.60
   7   1  -1  107.49    5.00
  -7  -1   0    3.10    1.10
  -7  -1   0    2.20    1.00
  -7  -1   0    1.90    1.50
  -7  -1   0   -0.60    1.40
   7   1   0    2.40    0.90
   7   1   0    2.70    0.70
   7   1   0    2.80    1.10
   7   1   0    0.90    1.00
  -7  -1  -1  106.99    4.90
  -7  -1  -1  105.19    7.30
  -7  -1  -1   96.69    7.20
  -7  -1  -1  110.79    4.70
   7   1   1  101.89    4.20
   7   1   1  102.09    4.80
   7   1   1   98.29    5.50
   7   1   1  102.69    5.50
  -7  -1  -2  305.57   15.50
  -7  -1  -2  285.97   15.40
  -7  -1  -2  326.27   12.10
  -7  -1  -2  333.87   12.40
   7   1   2  306.77   13.20
   7   1   2  325.07   13.30
   7   1   2  298.07   12.40
  -7  -1  -3   95.89    9.40
  -7  -1  -3   99.69    7.70
  -7  -1  -3   96.49    9.50
   7   1   3   94.49    6.20
   7   1   3   94.29    6.20
   7   1   3   84.89    5.50
  -7  -1  -4   14.30    4.40
  -7  -1  -4   12.70    3.80
   7   1   4    6.30    2.70
   7   1   4   12.50    3.00
   7   1   4    8.90    3.00
  -7  -1  -5   -2.10    3.10
  -7  -1  -5    2.30    3.20
  -7  -1  -5    2.20    2.60
   7   1   5    0.70    2.90
   7   1   5    1.40    2.70
   7   1   5   -1.80    2.30
  -8  -1   4    0.80    2.20
  -8  -1   4   -0.90    2.50
  -8  -1   4    6.20    2.70
  -8  -1   4    5.70    2.70
   8   1  -4    2.90    2.40
   8   1  -4    2.80    2.30
  -8  -1   3   29.60    3.90
  -8  -1   3   32.30    3.90
  -8  -1   3   32.30    4.40
  -8  -1   3   30.30    4.20
   8   1  -3   30.70    3.90
   8   1  -3   33.10    4.00
  -8  -1   2   66.09    4.90
  -8  -1   2   62.59    4.10
  -8  -1   2   66.49    4.60
  -8  -1   2   59.09    5.10
   8   1  -2   66.19    4.40
   8   1  -2   63.39    3.90
   8   1  -2   70.89    4.50
  -8  -1   1   56.59    4.00
  -8  -1   1   54.79    5.50
  -8  -1   1   50.09    3.60
  -8  -1   1   53.59    4.10
   8   1  -1   55.39    3.40
   8   1  -1   49.40    3.10
   8   1  -1   49.80    3.30
   8   1  -1   48.70    2.90
  -8  -1   0  822.32   31.20
  -8  -1   0  816.32   29.00
  -8  -1   0  787.32   31.30
  -8  -1   0  798.32   28.70
   8   1   0  837.92   29.10
   8   1   0  863.61   28.50
   8   1   0  771.12   27.90
   8   1   0  867.81   29.30
  -8  -1  -1   46.20    6.00
  -8  -1  -1   51.09    3.00
  -8  -1  -1   51.59    6.20
  -8  -1  -1   53.39    3.20
   8   1   1   45.60    3.10
   8   1   1   49.90    3.70
   8   1   1   50.29    3.80
  -8  -1  -2   72.59    8.00
  -8  -1  -2   65.99    7.40
   8   1   2   54.29    3.90
   8   1   2   57.29    4.60
   8   1   2   65.89    4.70
  -8  -1  -3   32.70    5.90
  -8  -1  -3   33.50    6.20
  -8  -1  -3   39.10    5.90
   8   1   3   26.60    3.50
   8   1   3   41.00    4.70
   8   1   3   31.10    4.10
  -8  -1  -4    0.00    3.10
  -8  -1  -4    5.00    3.30
   8   1   4    6.30    2.90
   8   1   4    4.70    2.60
   8   1   4    3.80    2.40
  -9  -1   4    5.80    3.00
  -9  -1   4    1.20    2.80
  -9  -1   4   -1.10    2.20
  -9  -1   4    0.20    2.20
   9   1  -4    0.10    2.20
   9   1  -4    4.40    2.60
  -9  -1   3   62.09    6.30
  -9  -1   3   77.19    5.70
  -9  -1   3   67.19    5.10
   9   1  -3   71.79    5.30
   9   1  -3   72.09    5.40
  -9  -1   2   35.30    4.70
  -9  -1   2   25.80    3.50
  -9  -1   2   28.70    3.90
  -9  -1   2   28.60    3.20
   9   1  -2   27.30    3.30
   9   1  -2   23.10    2.90
  -9  -1   1  568.64   21.10
  -9  -1   1  565.54   22.60
  -9  -1   1  552.24   20.60
   9   1  -1  537.05   20.10
   9   1  -1  533.95   19.70
   9   1  -1  550.84   20.20
  -9  -1   0   33.10    4.50
  -9  -1   0   35.20    4.90
  -9  -1   0   32.30    3.10
  -9  -1   0   40.00    3.60
   9   1   0   34.00    3.40
   9   1   0   29.70    2.10
   9   1   0   35.40    2.70
   9   1   0   40.10    3.50
  -9  -1  -1  551.34   23.70
  -9  -1  -1  532.65   19.40
  -9  -1  -1  545.15   19.70
  -9  -1  -1  547.55   23.60
   9   1   1  554.84   20.80
   9   1   1  521.15   20.70
  -9  -1  -2   30.30    5.40
  -9  -1  -2   28.50    5.30
   9   1   2   25.30    3.10
   9   1   2   25.90    3.70
   9   1   2   21.90    3.50
  -9  -1  -3   51.19    7.60
  -9  -1  -3   55.89    7.30
  -9  -1  -3   49.50    7.70
   9   1   3   72.99    5.70
   9   1   3   67.39    5.00
   9   1   3   65.69    5.70
  -9  -1  -4    0.60    3.00
  -9  -1  -4    0.40    2.80
   9   1   4    1.50    2.40
   9   1   4    4.30    2.70
   9   1   4    2.10    2.60
 -10  -1   4   17.70    3.90
 -10  -1   4   12.20    3.30
 -10  -1   4   14.10    3.80
 -10  -1   4   21.60    4.50
  10   1  -4   18.00    3.90
  10   1  -4   21.50    4.00
 -10  -1   3    5.20    2.50
 -10  -1   3    5.10    2.70
 -10  -1   3    2.70    2.70
 -10  -1   3    5.60    2.20
  10   1  -3    7.20    2.40
  10   1  -3   11.80    3.00
 -10  -1   2   39.60    3.70
 -10  -1   2   36.90    4.30
 -10  -1   2   33.10    4.90
 -10  -1   2   34.00    4.60
  10   1  -2   28.60    3.50
  10   1  -2   35.60    3.80
 -10  -1   1  260.17   11.80
 -10  -1   1  253.27   11.30
 -10  -1   1  279.07   13.50
  10   1  -1  257.37   10.90
  10   1  -1  277.27   11.20
  10   1  -1  260.97   10.40
 -10  -1   0   33.50    5.30
 -10  -1   0   38.30    3.80
 -10  -1   0   38.40    3.70
 -10  -1   0   28.70    4.90
  10   1   0   35.20    3.80
  10   1   0   35.10    3.60
  10   1   0   37.80    2.90
 -10  -1  -1  264.77   10.90
 -10  -1  -1  272.67   14.70
 -10  -1  -1  263.37   14.40
 -10  -1  -1  259.07   10.60
  10   1   1  279.07   12.10
  10   1   1  262.87   11.90
 -10  -1  -2   31.70    6.00
 -10  -1  -2   23.00    5.20
  10   1   2   38.80    4.70
  10   1   2   28.00    3.80
  10   1   2   20.10    2.90
 -10  -1  -3    4.60    3.70
 -10  -1  -3    4.70    3.50
 -10  -1  -3    5.30    3.80
  10   1   3   -0.40    2.00
  10   1   3    0.90    2.00
  10   1   3    1.50    2.20
 -10  -1  -4   15.70    5.40
 -10  -1  -4   21.80    5.40
  10   1   4   14.60    3.80
  10   1   4   12.00    3.80
 -11  -1   4    3.70    2.90
 -11  -1   4    5.40    3.10
 -11  -1   4    5.60    3.70
  11   1  -4    6.60    3.00
  11   1  -4    6.30    2.90
 -11  -1   3   12.70    3.70
 -11  -1   3    9.60    3.50
 -11  -1   3   14.30    3.10
 -11  -1   3   14.30    3.50
  11   1  -3   14.10    3.30
  11   1  -3    8.90    2.90
 -11  -1   2   29.80    4.60
 -11  -1   2   30.90    4.20
 -11  -1   2   24.00    4.60
  11   1  -2   29.40    3.50
  11   1  -2   30.40    3.70
 -11  -1   1   76.69    5.50
 -11  -1   1   53.19    6.60
 -11  -1   1   76.69    5.10
  11   1  -1   73.59    4.90
  11   1  -1   69.19    4.70
 -11  -1   0   53.49    4.00
 -11  -1   0   48.40    6.30
 -11  -1   0   57.79    4.50
 -11  -1   0   45.10    6.20
  11   1   0   60.89    3.90
  11   1   0   48.00    4.30
  11   1   0   57.99    4.40
 -11  -1  -1   80.39    8.90
 -11  -1  -1   57.19    7.30
  11   1   1   67.89    5.10
  11   1   1   46.50    4.00
  11   1   1   71.99    5.20
 -11  -1  -2   40.20    6.60
 -11  -1  -2   24.00    5.70
  11   1   2   25.20    4.20
  11   1   2   21.20    3.30
  11   1   2   26.40    4.20
 -11  -1  -3    9.60    4.50
 -11  -1  -3    9.60    4.00
 -11  -1  -3   13.20    4.70
  11   1   3    9.40    3.50
  11   1   3   11.60    3.40
  11   1   3    8.20    2.80
 -11  -1  -4    7.00    5.10
 -11  -1  -4    3.40    3.80
  11   1   4    4.20    3.10
  11   1   4    2.60    3.00
 -12  -1   3   38.30    4.50
 -12  -1   3   26.30    4.80
 -12  -1   3   26.30    4.50
 -12  -1   3   28.00    5.30
  12   1  -3   32.40    4.40
  12   1  -3   35.90    4.60
 -12  -1   2    9.50    3.40
 -12  -1   2   17.20    3.40
 -12  -1   2    8.50    3.10
  12   1  -2    9.00    2.40
 -12  -1   1    7.90    2.60
 -12  -1   1   15.20    3.10
 -12  -1   1    6.70    3.40
  12   1  -1   11.80    2.40
 -12  -1   0  131.59    7.40
 -12  -1   0  125.59    9.40
 -12  -1   0  152.38   12.20
 -12  -1   0  146.79    7.90
  12   1   0  157.18    7.10
  12   1   0  138.09    7.90
  12   1   0  149.39    7.80
 -12  -1  -1   11.50    4.90
 -12  -1  -1   11.80    4.00
  12   1   1   11.50    2.90
  12   1   1    9.10    2.20
  12   1   1   14.10    3.30
 -12  -1  -2   12.70    4.70
 -12  -1  -2    5.60    4.00
  12   1   2    7.80    2.30
  12   1   2   13.40    3.60
  12   1   2   10.10    3.10
 -12  -1  -3   21.40    5.80
 -12  -1  -3   40.10    7.60
 -12  -1  -3   23.80    6.70
  12   1   3   28.00    4.70
  12   1   3   23.60    4.50
  12   1   3   20.00    4.30
 -13  -1   3   -0.90    2.40
 -13  -1   3    1.10    3.20
 -13  -1   3   -0.80    2.60
  13   1  -3   -0.50    2.30
 -13  -1   2    8.10    3.20
 -13  -1   2   -1.30    2.60
 -13  -1   2    1.00    2.90
  13   1  -2    2.30    2.00
 -13  -1   1   23.80    4.10
 -13  -1   1   25.10    4.10
 -13  -1   1   23.40    4.90
  13   1  -1   24.00    3.30
 -13  -1   0    1.60    2.80
  13   1   0   -0.10    1.80
  13   1   0   -2.00    1.10
 -13  -1  -1   33.30    6.70
 -13  -1  -1   13.60    4.40
  13   1   1   18.00    3.70
  13   1   1   17.60    3.70
  13   1   1   19.60    3.10
 -13  -1  -2    1.80    3.70
 -13  -1  -2    1.10    3.50
  13   1   2    2.60    2.90
  13   1   2    3.30    2.90
  13   1   2    2.90    2.10
 -13  -1  -3   -3.40    3.00
 -13  -1  -3   -0.90    4.20
 -13  -1  -3    1.30    3.90
  13   1   3    0.20    2.50
  13   1   3    1.00    2.50
 -14  -1   2    0.90    3.20
 -14  -1   2   -1.80    2.80
 -14  -1   2   -0.40    2.80
  14   1  -2    0.80    2.00
 -14  -1   1   24.10    4.10
 -14  -1   1   19.20    5.00
 -14  -1   1   30.70    4.90
  14   1  -1   24.00    3.40
 -14  -1   0   23.50    5.20
  14   1   0   25.30    3.30
  14   1   0   23.90    4.00
 -14  -1  -1   18.50    5.40
 -14  -1  -1    7.90    5.40
  14   1   1   20.20    3.40
  14   1   1   19.50    4.00
  14   1   1   28.90    4.60
 -14  -1  -2    2.40    5.10
 -14  -1  -2    5.90    4.30
  14   1   2    5.00    3.10
  14   1   2   -1.60    1.80
  14   1   2    3.70    2.90
 -15  -1   1   12.90    5.50
 -15  -1   1   21.30    5.40
  15   1  -1   30.30    4.00
 -15  -1   0    7.70    4.10
  15   1   0    8.00    2.30
 -15  -1  -1   16.70    5.50
  15   1   1   26.70    5.10
  15   1   1   23.20    5.30
  15   1   1   20.20    3.50
  15  -2   1   13.60    3.10
 -15   2  -1    9.30    4.80
  15  -2   0   23.60    3.60
 -15   2   0   19.90    5.10
  15  -2  -1   10.40    3.00
 -15   2   1    1.80    3.40
  14  -2   2   15.80    4.10
  14  -2   2   16.20    4.10
  14  -2   2    5.30    2.60
 -14   2  -2   10.40    4.50
 -14   2  -2   11.10    4.70
 -14   2  -2   13.30    5.50
  14  -2   1    5.10    3.00
  14  -2   1    2.70    2.20
  14  -2   1    3.00    2.80
 -14   2  -1    3.50    3.50
 -14   2  -1    6.00    4.90
  14  -2   0    6.70    2.20
 -14   2   0   -0.90    2.80
  14  -2  -1    1.80    2.20
 -14   2   1    0.30    2.80
  14  -2  -2   16.10    3.10
 -14   2   2    7.60    3.60
 -14   2   2   18.60    5.00
 -14   2   2    9.10    3.20
  13  -2   3    0.30    3.00
  13  -2   3   13.60    4.10
  13  -2   3    2.30    2.60
 -13   2  -3   10.20    5.60
 -13   2  -3    2.30    3.70
  13  -2   2   39.80    5.50
  13  -2   2   26.40    4.60
 -13   2  -2   35.10    6.30
 -13   2  -2   15.60    5.60
 -13   2  -2   34.50    5.90
  13  -2   1   32.90    4.50
  13  -2   1   32.20    4.70
  13  -2   1   29.00    3.80
 -13   2  -1   38.60    7.30
 -13   2  -1   25.00    5.10
  13  -2   0   12.70    2.50
 -13   2   0    3.60    3.00
  13  -2  -1   42.80    4.40
 -13   2   1   27.90    5.20
 -13   2   1   29.10    4.30
 -13   2   1   43.30    4.90
  13  -2  -2   28.60    3.90
 -13   2   2   32.20    5.50
 -13   2   2   36.70    4.90
 -13   2   2   37.30    5.30
  13  -2  -3    1.90    2.40
  13  -2  -3    2.80    2.60
 -13   2   3    2.00    3.00
 -13   2   3    6.30    3.00
 -13   2   3    4.00    3.40
  12  -2   3    9.00    3.40
  12  -2   3   10.90    3.40
  12  -2   3    7.10    2.80
 -12   2  -3    3.70    3.50
 -12   2  -3    3.40    4.30
  12  -2   2   30.20    4.80
  12  -2   2   24.90    4.30
 -12   2  -2   35.60    7.00
 -12   2  -2   34.30    5.80
 -12   2  -2   29.30    5.70
  12  -2   1   35.70    4.60
  12  -2   1   27.90    3.60
  12  -2   1   32.30    4.30
 -12   2  -1   20.00    4.70
 -12   2  -1   29.70    6.30
  12  -2   0   38.90    4.50
  12  -2   0   41.50    4.00
 -12   2   0   45.50    6.20
  12  -2  -1   34.60    3.70
 -12   2   1   34.10    5.40
 -12   2   1   22.50    3.90
 -12   2   1   24.30    3.60
  12  -2  -2   26.00    3.50
  12  -2  -2   24.20    3.30
 -12   2   2   33.50    4.80
 -12   2   2   33.80    5.60
 -12   2   2   33.00    4.40
  12  -2  -3    4.70    2.50
  12  -2  -3    7.10    2.80
 -12   2   3    6.40    2.90
 -12   2   3   13.90    4.10
 -12   2   3    3.30    3.20
  11  -2   4    7.00    3.40
  11  -2   4    1.90    3.10
 -11   2  -4   -0.10    3.80
 -11   2  -4    9.40    4.40
  11  -2   3   28.80    4.80
  11  -2   3   28.80    4.70
  11  -2   3   20.50    3.80
 -11   2  -3   26.70    5.70
 -11   2  -3   26.50    6.40
  11  -2   2   24.50    3.50
  11  -2   2   37.00    4.80
  11  -2   2   32.30    4.50
 -11   2  -2   28.90    5.40
 -11   2  -2   29.80    5.20
 -11   2  -2   29.50    5.90
  11  -2   1   -0.20    1.50
  11  -2   1    0.80    1.80
  11  -2   1    0.90    1.90
 -11   2  -1   -0.30    2.20
 -11   2  -1   -4.20    2.80
  11  -2   0  215.08    8.90
  11  -2   0  190.08    9.40
  11  -2   0  195.88    9.20
 -11   2   0  185.78   11.70
 -11   2   0  217.48    9.40
 -11   2   0  190.38    8.80
 -11   2   0  203.58   11.40
  11  -2  -1    0.90    1.40
  11  -2  -1    0.50    1.20
 -11   2   1    1.40    2.40
 -11   2   1    1.00    1.80
 -11   2   1   -1.80    1.70
  11  -2  -2   39.00    4.00
  11  -2  -2   32.00    3.80
 -11   2   2   31.20    4.90
 -11   2   2   39.50    5.10
 -11   2   2   39.60    4.60
  11  -2  -3   27.90    4.00
  11  -2  -3   29.70    4.10
 -11   2   3   36.10    4.80
 -11   2   3   29.80    5.00
 -11   2   3   27.00    5.00
  11  -2  -4    3.60    2.60
  11  -2  -4    4.80    2.80
 -11   2   4    4.80    3.00
  10  -2   4    2.90    2.80
  10  -2   4    3.60    2.80
  10  -2   4    5.50    3.10
 -10   2  -4    1.50    3.20
 -10   2  -4    1.20    3.60
  10  -2   3    7.50    2.80
  10  -2   3    6.00    2.20
  10  -2   3    7.50    2.90
 -10   2  -3    4.30    3.80
 -10   2  -3    8.90    3.70
  10  -2   2   10.10    2.30
  10  -2   2   13.80    3.10
  10  -2   2   11.00    2.80
 -10   2  -2   12.60    3.90
 -10   2  -2   15.80    4.00
 -10   2  -2    0.30    3.30
  10  -2   1   45.50    4.60
  10  -2   1   39.50    4.40
  10  -2   1   36.70    3.30
 -10   2  -1   33.00    5.60
 -10   2  -1   50.89    5.90
  10  -2   0  148.09    7.40
  10  -2   0  159.78    7.50
  10  -2   0  159.58    7.00
  10  -2   0  150.28    6.50
 -10   2   0  149.09    9.60
 -10   2   0  146.39    8.90
 -10   2   0  152.28    7.30
 -10   2   0  142.39    6.90
  10  -2  -1   46.40    3.60
  10  -2  -1   48.90    3.40
 -10   2   1   49.00    5.70
 -10   2   1   41.50    4.40
 -10   2   1   44.20    4.20
  10  -2  -2   13.90    2.60
  10  -2  -2   16.60    2.70
 -10   2   2   12.20    2.70
 -10   2   2   15.00    3.10
 -10   2   2    8.70    3.00
  10  -2  -3    8.10    2.50
  10  -2  -3    7.20    2.40
 -10   2   3    8.40    2.70
 -10   2   3    7.20    3.00
 -10   2   3    2.80    2.30
 -10   2   3    8.10    3.00
  10  -2  -4    6.60    3.10
  10  -2  -4    0.20    2.20
 -10   2   4    2.70    2.90
 -10   2   4    3.80    2.70
 -10   2   4    6.90    3.50
 -10   2   4    0.60    2.40
   9  -2   4    0.60    2.50
   9  -2   4    9.40    3.00
   9  -2   4    1.50    2.90
  -9   2  -4   13.10    4.90
  -9   2  -4    9.80    4.00
   9  -2   3    6.00    2.60
   9  -2   3    3.00    2.30
   9  -2   3    2.10    1.90
  -9   2  -3    3.60    2.80
  -9   2  -3    2.60    3.30
   9  -2   2   28.70    3.80
   9  -2   2   24.00    3.60
   9  -2   2   24.30    3.20
  -9   2  -2   20.70    4.30
  -9   2  -2   29.30    4.90
  -9   2  -2   31.30    5.60
   9  -2   1   45.70    3.40
   9  -2   1   49.90    4.50
   9  -2   1   47.20    2.90
   9  -2   1   48.60    4.10
  -9   2  -1   42.60    6.00
  -9   2  -1   53.39    5.80
   9  -2   0   17.80    2.50
   9  -2   0   19.90    2.10
   9  -2   0   25.80    2.50
   9  -2   0   19.30    2.40
  -9   2   0   17.90    2.30
  -9   2   0   16.20    2.20
  -9   2   0   18.10    3.60
  -9   2   0   14.10    3.10
   9  -2  -1   45.70    3.50
   9  -2  -1   52.39    3.40
   9  -2  -1   57.49    3.50
  -9   2   1   51.39    4.00
  -9   2   1   48.70    5.30
  -9   2   1   53.29    4.40
   9  -2  -2   26.50    3.20
   9  -2  -2   30.80    3.40
  -9   2   2   26.10    3.30
  -9   2   2   23.50    3.50
  -9   2   2   26.90    4.20
   9  -2  -3    5.70    2.20
   9  -2  -3    2.40    2.00
  -9   2   3    0.90    2.10
  -9   2   3    3.10    2.00
  -9   2   3    2.00    2.40
  -9   2   3    4.00    2.20
   9  -2  -4    7.50    2.90
   9  -2  -4   12.90    3.40
  -9   2   4    1.40    2.30
  -9   2   4    9.50    3.60
  -9   2   4   13.00    3.70
  -9   2   4    7.40    3.10
   8  -2   4   13.60    3.50
   8  -2   4   14.00    3.70
   8  -2   4    9.50    3.20
  -8   2  -4    7.20    3.70
  -8   2  -4    9.70    4.50
   8  -2   3   14.50    3.10
   8  -2   3    9.90    2.80
   8  -2   3    8.90    2.40
  -8   2  -3   14.10    4.30
  -8   2  -3    9.30    3.30
   8  -2   2  496.05   19.30
   8  -2   2  513.45   19.20
   8  -2   2  445.26   17.60
  -8   2  -2  457.45   20.70
  -8   2  -2  498.75   20.70
  -8   2  -2  488.75   22.10
   8  -2   1   44.90    3.50
   8  -2   1   44.30    3.60
   8  -2   1   42.00    3.00
   8  -2   1   43.00    2.60
  -8   2  -1   47.00    5.20
  -8   2  -1   44.20    2.50
  -8   2  -1   45.80    5.80
   8  -2   0   69.79    4.00
   8  -2   0   63.49    3.30
   8  -2   0   57.89    3.70
   8  -2   0   67.99    3.60
  -8   2   0   64.59    3.80
  -8   2   0   65.59    3.60
  -8   2   0   65.09    6.10
  -8   2   0   63.69    4.80
   8  -2  -1   52.79    3.10
   8  -2  -1   49.60    3.30
   8  -2  -1   47.20    3.00
  -8   2   1   50.99    5.10
  -8   2   1   44.10    3.50
  -8   2   1   46.70    3.50
  -8   2   1   42.50    4.10
   8  -2  -2  513.05   19.50
   8  -2  -2  529.55   19.50
  -8   2   2  503.05   19.70
  -8   2   2  473.55   19.90
  -8   2   2  550.74   19.40
  -8   2   2  500.25   20.80
   8  -2  -3   14.10    2.80
   8  -2  -3   14.00    3.10
  -8   2   3    9.20    2.80
  -8   2   3   15.40    2.80
  -8   2   3   12.00    2.80
  -8   2   3   15.00    3.40
   8  -2  -4   18.00    3.90
   8  -2  -4   14.20    3.10
  -8   2   4   12.00    3.20
  -8   2   4   14.30    3.50
  -8   2   4    7.20    3.10
  -8   2   4    8.80    3.10
   7  -2   5   -0.60    2.30
   7  -2   5   -1.10    2.90
  -7   2  -5   -2.50    2.70
  -7   2  -5    0.10    3.20
   7  -2   4   32.80    4.70
   7  -2   4   19.80    3.80
   7  -2   4   38.40    5.50
  -7   2  -4   34.10    5.90
  -7   2  -4   32.00    6.10
   7  -2   3   51.79    4.30
   7  -2   3   51.39    5.30
   7  -2   3   46.90    4.90
   7  -2   3   46.30    3.80
  -7   2  -3   41.50    6.40
  -7   2  -3   39.50    5.60
   7  -2   2   47.60    4.00
   7  -2   2   39.30    2.90
   7  -2   2   44.90    3.50
   7  -2   2   48.40    4.40
  -7   2  -2   49.30    5.70
  -7   2  -2   50.39    5.50
  -7   2  -2   49.10    6.20
   7  -2   1  731.83   25.80
   7  -2   1  723.13   26.40
   7  -2   1  708.43   25.30
   7  -2   1  759.32   26.60
  -7   2  -1  726.13   25.00
  -7   2  -1  785.72   28.00
  -7   2  -1  717.73   28.70
  -7   2  -1  723.53   24.90
   7  -2   0  140.79    5.70
   7  -2   0  128.49    5.90
   7  -2   0  128.59    5.50
  -7   2   0  121.79    7.20
  -7   2   0  130.29    5.80
  -7   2   0  135.29    7.20
  -7   2   0  136.29    5.70
   7  -2  -1  727.63   25.90
   7  -2  -1  716.03   26.10
   7  -2  -1  764.22   25.60
  -7   2   1  729.73   26.20
  -7   2   1  773.02   26.60
  -7   2   1  738.93   26.60
  -7   2   1  728.33   27.50
   7  -2  -2   53.79    3.80
   7  -2  -2   55.59    3.80
  -7   2   2   53.69    4.20
  -7   2   2   46.60    3.70
  -7   2   2   52.49    3.60
  -7   2   2   47.80    4.90
   7  -2  -3   54.69    4.60
   7  -2  -3   56.79    4.40
  -7   2   3   48.20    5.10
  -7   2   3   58.99    4.50
  -7   2   3   55.39    5.60
  -7   2   3   56.29    5.10
   7  -2  -4   35.80    4.60
   7  -2  -4   31.10    4.70
  -7   2   4   35.50    5.00
  -7   2   4   34.20    4.70
  -7   2   4   39.20    4.90
  -7   2   4   31.60    4.70
   7  -2  -5   -0.90    2.50
   7  -2  -5   -1.00    2.20
  -7   2   5   -0.50    2.60
  -7   2   5    0.80    2.70
   6  -2   5    1.80    2.50
   6  -2   5    3.80    3.10
  -6   2  -5   -1.20    2.80
  -6   2  -5   -2.30    3.40
   6  -2   4   15.90    3.60
   6  -2   4   15.70    3.10
   6  -2   4   13.40    3.40
   6  -2   4   12.00    3.10
  -6   2  -4   10.40    4.20
  -6   2  -4    7.50    3.30
   6  -2   3  153.88    7.50
   6  -2   3  150.18    7.90
   6  -2   3  161.78    8.60
   6  -2   3  143.99    8.00
  -6   2  -3  160.78    9.80
  -6   2  -3  147.69   10.20
   6  -2   2    4.80    1.40
   6  -2   2    4.00    1.20
   6  -2   2    8.00    2.00
   6  -2   2    4.50    1.60
  -6   2  -2    0.70    1.90
  -6   2  -2    2.40    2.20
  -6   2  -2    4.70    2.30
   6  -2   1   78.99    3.70
   6  -2   1   79.29    4.50
   6  -2   1   79.89    4.50
   6  -2   1   86.79    4.10
  -6   2  -1   81.59    6.10
  -6   2  -1   80.99    3.30
  -6   2  -1   79.69    3.40
  -6   2  -1   84.29    5.30
   6  -2   0   51.19    2.70
   6  -2   0   48.80    2.80
   6  -2   0   44.90    2.50
   6  -2   0   46.20    2.80
  -6   2   0   44.80    2.60
  -6   2   0   49.10    4.00
  -6   2   0   48.30    2.60
  -6   2   0   50.89    3.70
   6  -2  -1   81.29    4.10
   6  -2  -1   85.09    4.20
   6  -2  -1   82.19    3.60
  -6   2   1   79.19    4.30
  -6   2   1   83.29    4.50
  -6   2   1   84.99    5.00
  -6   2   1   77.69    4.20
   6  -2  -2    2.70    1.40
   6  -2  -2    5.50    1.60
  -6   2   2    2.80    1.30
  -6   2   2    5.50    1.80
  -6   2   2    3.00    1.30
  -6   2   2   15.50    2.60
   6  -2  -3  163.68    8.10
   6  -2  -3  163.98    8.40
  -6   2   3  164.58    8.10
  -6   2   3  147.79    8.30
  -6   2   3  153.68    7.90
  -6   2   3  153.28    8.40
   6  -2  -4   16.00    3.40
   6  -2  -4   16.50    3.30
  -6   2   4   18.20    3.60
  -6   2   4   16.70    3.40
  -6   2   4   15.40    3.40
  -6   2   4   16.10    3.60
   6  -2  -5    3.00    2.50
   6  -2  -5    1.70    2.80
  -6   2   5    4.30    3.00
  -6   2   5    5.40    3.10
   5  -2   5   -1.20    2.00
   5  -2   5   -1.70    2.40
   5  -2   5   -3.20    2.10
  -5   2  -5    5.20    2.90
  -5   2  -5    2.90    3.40
  -5   2  -5    3.70    3.80
   5  -2   4    6.30    2.30
   5  -2   4    5.20    2.30
   5  -2   4    7.60    2.80
   5  -2   4    0.10    1.80
  -5   2  -4   -0.30    2.20
  -5   2  -4    5.40    3.10
   5  -2   3  133.79    7.20
   5  -2   3  132.29    6.80
   5  -2   3  139.59    7.30
   5  -2   3  138.09    7.50
  -5   2  -3  123.09    9.00
  -5   2  -3  134.89    8.70
   5  -2   2  270.17   11.30
   5  -2   2  260.77   10.80
   5  -2   2  259.77   11.00
   5  -2   2  249.48   10.30
  -5   2  -2  235.08   12.70
  -5   2  -2  285.47   12.30
  -5   2  -2  267.07   12.50
  -5   2  -2  275.47    9.70
  -5   2  -2  277.27    9.50
   5  -2   1  283.47   11.50
   5  -2   1  304.67   10.80
   5  -2   1  302.97   11.60
   5  -2   1  292.57   11.10
  -5   2  -1  294.57   10.20
  -5   2  -1  297.37   10.30
  -5   2  -1  299.07   13.30
  -5   2  -1  318.27   12.60
   5  -2   0 3765.02  122.29
   5  -2   0 3753.72  122.29
   5  -2   0 3715.43  121.99
   5  -2   0 3424.56  121.89
  -5   2   0 3743.13  121.89
  -5   2   0 3691.33  123.29
  -5   2   0 3693.33  123.69
  -5   2   0 3705.73  122.09
   5  -2  -1  304.47   10.60
   5  -2  -1  293.27   11.30
   5  -2  -1  302.67   11.40
  -5   2   1  311.57   11.30
  -5   2   1  306.77   12.20
  -5   2   1  299.87   11.60
  -5   2   1  302.07   11.40
   5  -2  -2  279.17   11.40
   5  -2  -2  274.07   10.10
   5  -2  -2  288.17   11.30
  -5   2   2  283.07   11.40
  -5   2   2  269.37   11.10
  -5   2   2  285.67   11.60
  -5   2   2  281.07   11.90
   5  -2  -3  142.89    7.40
   5  -2  -3  139.99    7.50
  -5   2   3  124.69    7.30
  -5   2   3  146.89    7.30
  -5   2   3  150.08    7.40
  -5   2   3  128.79    7.40
   5  -2  -4    3.00    2.20
   5  -2  -4    2.50    2.10
  -5   2   4    5.70    2.50
  -5   2   4    7.70    2.50
  -5   2   4    9.70    2.80
  -5   2   4    3.90    2.20
   5  -2  -5   -0.90    2.10
   5  -2  -5    0.20    2.40
  -5   2   5    0.90    2.60
  -5   2   5    0.20    2.30
  -5   2   5    0.10    2.40
   4  -2   5    6.20    2.90
   4  -2   5   -1.90    2.20
   4  -2   5    0.70    2.50
  -4   2  -5   -2.60    3.10
  -4   2  -5    0.50    2.40
  -4   2  -5    0.90    3.00
   4  -2   4    2.00    1.90
   4  -2   4    2.90    2.30
   4  -2   4    3.00    2.10
   4  -2   4    3.20    2.30
  -4   2  -4    2.80    2.60
  -4   2  -4    3.60    2.80
   4  -2   3  129.19    6.70
   4  -2   3  115.69    6.40
   4  -2   3  127.19    7.10
   4  -2   3  131.19    6.90
  -4   2  -3  121.79    8.40
  -4   2  -3  132.29    8.30
  -4   2  -3  137.59    8.30
   4  -2   2  106.89    4.00
   4  -2   2   98.09    5.50
   4  -2   2  107.19    5.50
   4  -2   2   97.79    5.00
   4  -2   2  104.29    5.30
   4  -2   2  104.59    4.00
  -4   2  -2   98.39    6.80
  -4   2  -2  104.99    6.10
  -4   2  -2  105.69    6.50
  -4   2  -2  101.79    4.20
  -4   2  -2  105.89    4.40
   4  -2   1   36.30    2.50
   4  -2   1   41.10    2.20
   4  -2   1   41.60    2.40
   4  -2   1   44.60    2.70
  -4   2  -1   40.00    4.10
  -4   2  -1   37.90    3.20
  -4   2  -1   40.30    3.10
  -4   2  -1   37.60    1.60
   4  -2   0  325.37   11.00
   4  -2   0  296.97   11.00
   4  -2   0  311.87   10.80
   4  -2   0  277.57   10.70
  -4   2   0  308.17   11.70
  -4   2   0  308.37   10.70
  -4   2   0  306.97   10.80
   4  -2  -1   42.10    2.50
   4  -2  -1   40.70    1.80
   4  -2  -1   37.50    2.30
  -4   2   1   39.70    2.60
  -4   2   1   41.30    2.30
  -4   2   1   40.30    2.50
  -4   2   1   36.30    2.80
  -4   2   1   39.70    2.20
   4  -2  -2  111.49    4.60
   4  -2  -2  105.29    5.50
   4  -2  -2  108.19    5.40
  -4   2   2  109.89    5.40
  -4   2   2  105.99    5.60
  -4   2   2  109.89    5.30
  -4   2   2  102.49    5.60
   4  -2  -3  134.09    7.30
   4  -2  -3  128.99    7.00
  -4   2   3  128.99    7.10
  -4   2   3  138.39    7.00
  -4   2   3  157.28    7.20
  -4   2   3  135.59    6.90
  -4   2   3  129.09    7.10
   4  -2  -4    2.80    2.40
   4  -2  -4    0.20    1.70
  -4   2   4    5.10    2.00
  -4   2   4    4.80    2.30
  -4   2   4    5.60    2.30
  -4   2   4    5.20    2.30
  -4   2   4    1.20    2.10
   4  -2  -5   -1.50    2.40
   4  -2  -5    5.00    2.60
  -4   2   5   -1.50    2.30
  -4   2   5    2.10    2.90
  -4   2   5    1.30    2.30
  -4   2   5    2.60    2.60
   3  -2   5    6.90    2.80
   3  -2   5    3.70    2.90
   3  -2   5    4.90    3.20
  -3   2  -5    7.20    3.60
  -3   2  -5    5.30    2.70
   3  -2   4   10.70    3.00
   3  -2   4   16.70    3.50
   3  -2   4   18.10    3.00
   3  -2   4   18.50    3.40
  -3   2  -4   17.60    4.10
  -3   2  -4   15.70    3.80
   3  -2   3   92.79    6.00
   3  -2   3   87.39    4.20
   3  -2   3   89.79    4.20
   3  -2   3   87.99    5.50
   3  -2   3   83.69    5.20
   3  -2   3   97.49    5.60
   3  -2   3   84.99    5.10
  -3   2  -3   90.29    4.70
  -3   2  -3   91.59    5.70
  -3   2  -3   97.69    4.60
  -3   2  -3   99.59    6.70
  -3   2  -3   97.59    6.90
   3  -2   2   38.80    2.90
   3  -2   2   43.70    3.00
   3  -2   2   37.30    2.70
   3  -2   2   39.20    2.00
   3  -2   2   39.90    1.90
   3  -2   2   40.60    3.10
  -3   2  -2   38.00    2.20
  -3   2  -2   39.70    3.30
  -3   2  -2   41.00    2.20
  -3   2  -2   40.60    4.50
  -3   2  -2   46.80    4.60
   3  -2   1  366.66   13.60
   3  -2   1  371.36   13.40
   3  -2   1  374.36   13.70
   3  -2   1  352.56   13.10
  -3   2  -1  379.36   14.90
  -3   2  -1  372.16   14.40
  -3   2  -1  404.06   14.10
   3  -2   0  174.48    6.20
   3  -2   0  153.88    6.10
   3  -2   0  166.48    6.10
  -3   2   0  171.28    7.10
  -3   2   0  165.68    6.10
  -3   2   0  169.98    6.70
  -3   2   0  170.48    6.00
   3  -2  -1  365.86   13.40
   3  -2  -1  365.76   13.50
  -3   2   1  387.86   13.40
  -3   2   1  382.26   14.00
  -3   2   1  364.16   13.60
  -3   2   1  388.26   13.00
  -3   2   1  381.06   13.50
   3  -2  -2   41.80    2.90
   3  -2  -2   42.30    2.50
   3  -2  -2   42.80    3.10
  -3   2   2   37.80    2.80
  -3   2   2   40.90    3.10
  -3   2   2   36.00    2.70
  -3   2   2   39.40    3.00
  -3   2   2   38.10    1.80
  -3   2   2   41.10    2.80
   3  -2  -3   91.79    5.10
   3  -2  -3   97.79    5.80
   3  -2  -3  101.39    5.80
  -3   2   3   94.89    5.60
  -3   2   3   94.79    5.40
  -3   2   3   99.89    5.70
  -3   2   3   95.59    5.50
  -3   2   3   94.89    5.30
   3  -2  -4   11.70    2.80
   3  -2  -4   19.60    3.60
  -3   2   4   17.40    3.40
  -3   2   4   11.40    2.70
  -3   2   4   16.50    3.20
  -3   2   4   13.60    2.80
  -3   2   4   18.00    3.40
   3  -2  -5    3.70    2.70
   3  -2  -5    4.10    2.50
  -3   2   5    8.20    3.20
  -3   2   5    1.40    2.30
  -3   2   5    2.10    2.40
  -3   2   5    4.80    3.00
   2  -2   5   16.80    4.00
   2  -2   5   19.60    4.40
   2  -2   5   18.10    3.80
  -2   2  -5   17.60    3.90
  -2   2  -5    9.30    3.50
   2  -2   4   12.60    2.90
   2  -2   4    9.80    2.70
   2  -2   4    9.80    2.30
   2  -2   4   10.70    2.80
  -2   2  -4    7.00    2.60
  -2   2  -4   12.30    3.60
  -2   2  -4   11.20    3.00
   2  -2   3   37.60    3.50
   2  -2   3   39.30    2.60
   2  -2   3   36.00    3.80
   2  -2   3   40.70    3.50
   2  -2   3   40.80    2.70
   2  -2   3   44.10    2.60
   2  -2   3   31.80    3.50
  -2   2  -3   39.00    4.70
  -2   2  -3   35.60    3.80
  -2   2  -3   40.90    4.80
   2  -2   2  920.31   32.00
   2  -2   2  894.91   31.90
   2  -2   2  953.80   30.90
   2  -2   2  900.91   31.60
   2  -2   2  891.01   30.80
   2  -2   2  932.91   30.80
   2  -2   2  902.41   31.70
  -2   2  -2  922.21   31.90
  -2   2  -2  893.31   33.00
  -2   2  -2  911.91   33.30
   2  -2   1 1831.12   58.59
   2  -2   1 1764.22   59.49
   2  -2   1 1832.92   59.49
   2  -2   1 1714.03   59.29
   2  -2   1 1823.72   59.69
  -2   2  -1 1779.82   60.29
  -2   2  -1 1767.82   60.69
  -2   2  -1 1718.03   59.59
   2  -2   0   11.30    0.80
   2  -2   0   13.90    0.80
   2  -2   0    9.80    0.80
  -2   2   0   12.30    1.00
  -2   2   0   10.70    0.70
  -2   2   0   11.70    1.00
  -2   2   0   10.90    0.80
  -2   2   0   11.90    1.40
   2  -2  -1 1806.52   59.49
   2  -2  -1 1772.32   59.59
  -2   2   1 1837.82   59.59
  -2   2   1 1716.23   59.69
  -2   2   1 1766.52   59.49
  -2   2   1 1794.02   59.89
  -2   2   1 1786.12   58.99
   2  -2  -2  905.41   31.80
   2  -2  -2  924.41   31.40
   2  -2  -2  870.31   31.80
  -2   2   2  952.90   32.00
  -2   2   2  874.01   31.60
  -2   2   2  928.11   31.60
  -2   2   2  884.61   30.60
  -2   2   2  944.01   31.90
  -2   2   2  913.21   31.60
  -2   2   2  922.51   30.90
   2  -2  -3   36.90    3.90
   2  -2  -3   36.80    3.10
   2  -2  -3   37.80    3.60
   2  -2  -3   37.80    3.90
  -2   2   3   41.90    3.70
  -2   2   3   40.20    2.80
  -2   2   3   43.40    3.50
  -2   2   3   37.30    3.70
  -2   2   3   38.60    3.30
  -2   2   3   41.10    3.90
   2  -2  -4    7.80    2.60
   2  -2  -4    9.80    2.70
  -2   2   4   15.00    3.10
  -2   2   4    5.20    2.30
  -2   2   4   11.90    2.50
  -2   2   4   11.80    2.50
  -2   2   4   11.40    2.80
   2  -2  -5   16.00    3.80
   2  -2  -5   20.30    4.30
  -2   2   5   17.70    4.10
  -2   2   5   21.90    4.20
  -2   2   5    9.70    3.10
  -2   2   5   13.20    3.10
   1  -2   5    0.20    2.60
   1  -2   5   -0.10    2.40
  -1   2  -5    3.50    2.70
  -1   2  -5    2.20    2.60
  -1   2  -5    4.30    2.70
   1  -2   4    3.00    2.20
   1  -2   4    6.20    2.40
   1  -2   4    3.10    2.20
   1  -2   4    2.40    1.90
  -1   2  -4    1.00    2.00
  -1   2  -4    2.20    1.90
  -1   2  -4    5.90    2.60
   1  -2   3  156.28    7.80
   1  -2   3  165.08    6.90
   1  -2   3  170.88    6.80
   1  -2   3  153.78    7.80
   1  -2   3  151.68    6.90
   1  -2   3  157.68    7.70
   1  -2   3  160.18    7.10
  -1   2  -3  165.28    8.20
  -1   2  -3  167.58    8.90
  -1   2  -3  163.38    7.70
  -1   2  -3  160.48    8.70
   1  -2   2  353.06   13.90
   1  -2   2  358.26   13.90
   1  -2   2  389.46   13.00
   1  -2   2  371.96   13.10
   1  -2   2  360.86   13.90
   1  -2   2  354.26   13.50
   1  -2   2  366.56   13.30
  -1   2  -2  396.66   13.70
  -1   2  -2  377.66   14.90
  -1   2  -2  368.56   14.90
   1  -2   1   42.80    2.50
   1  -2   1   53.79    2.60
   1  -2   1   47.00    1.90
   1  -2   1   46.10    2.00
   1  -2   1   47.50    2.40
  -1   2  -1   45.30    3.00
  -1   2  -1   44.60    2.90
   1  -2   0    7.40    0.60
   1  -2   0    9.50    0.50
   1  -2   0    8.90    0.60
  -1   2   0    8.10    1.00
  -1   2   0    8.30    0.60
  -1   2   0    7.50    0.70
   1  -2  -1   49.10    2.40
   1  -2  -1   46.40    2.40
   1  -2  -1   47.10    2.40
  -1   2   1   49.50    2.40
  -1   2   1   47.50    2.50
  -1   2   1   49.70    2.10
  -1   2   1   49.70    2.30
  -1   2   1   47.30    2.10
  -1   2   1   54.29    2.70
  -1   2   1   49.00    2.40
   1  -2  -2  369.96   14.00
   1  -2  -2  353.56   13.80
   1  -2  -2  366.06   13.70
  -1   2   2  362.56   13.00
  -1   2   2  379.46   13.80
  -1   2   2  370.96   13.70
  -1   2   2  368.46   13.70
  -1   2   2  374.76   13.90
  -1   2   2  363.76   13.20
  -1   2   2  377.86   13.60
   1  -2  -3  179.18    8.20
   1  -2  -3  156.98    7.80
   1  -2  -3  161.88    8.00
   1  -2  -3  162.28    8.10
  -1   2   3  170.28    7.80
  -1   2   3  155.78    7.10
  -1   2   3  169.48    7.70
  -1   2   3  165.28    7.70
  -1   2   3  155.08    6.70
  -1   2   3  164.98    7.80
  -1   2   3  168.58    7.40
   1  -2  -4    0.10    1.60
   1  -2  -4    1.50    1.90
  -1   2   4    3.40    1.70
  -1   2   4    2.70    2.00
  -1   2   4    3.90    2.20
  -1   2   4    2.50    1.70
  -1   2   4    1.50    1.90
   1  -2  -5    2.80    2.90
   1  -2  -5   -0.50    2.20
   1  -2  -5    3.90    2.80
  -1   2   5   -1.40    2.00
  -1   2   5    6.00    2.50
  -1   2   5    1.70    2.10
  -1   2   5    3.00    2.70
   0  -2   5    2.60    2.60
   0  -2   5    3.90    2.80
   0   2  -5    4.80    2.70
   0   2  -5    7.00    2.90
   0   2  -5    6.10    3.10
   0  -2   4   43.40    4.20
   0  -2   4   47.60    5.10
   0  -2   4   43.70    3.90
   0  -2   4   39.00    4.60
   0   2  -4   37.00    4.70
   0   2  -4   32.00    4.50
   0  -2   3  156.68    7.70
   0  -2   3  150.88    6.90
   0  -2   3  146.39    6.60
   0  -2   3  147.79    7.10
   0  -2   3  153.58    6.50
   0  -2   3  149.79    7.50
   0   2  -3  152.08    7.80
   0   2  -3  143.99    7.90
   0   2  -3  144.19    8.00
   0  -2   2    1.10    0.90
   0  -2   2    2.20    0.90
   0  -2   2    0.00    0.60
   0  -2   2    2.30    0.80
   0  -2   2    1.60    0.80
   0  -2   2    0.60    0.90
   0   2  -2    1.10    1.10
   0   2  -2    1.50    1.20
   0   2  -2   -1.10    0.80
   0  -2   1  130.29    5.30
   0  -2   1  131.69    4.90
   0  -2   1  131.39    5.30
   0  -2   1  132.59    5.30
   0   2  -1  130.49    5.70
   0   2  -1  133.09    5.70
   0  -2   0   30.10    1.10
   0  -2   0   25.60    1.30
   0  -2   0   24.20    1.40
   0   2   0   33.80    1.50
   0   2   0   24.50    1.30
   0   2   0   26.60    1.20
   0  -2  -1  130.19    5.10
   0  -2  -1  123.99    5.30
   0  -2  -1  126.59    5.10
   0   2   1  131.39    5.00
   0   2   1  124.69    4.90
   0   2   1  135.79    5.00
   0   2   1  128.79    5.10
   0   2   1  137.29    4.90
   0   2   1  129.09    4.90
   0  -2  -2   -0.30    0.70
   0  -2  -2   -1.10    0.80
   0  -2  -2    0.00    0.90
   0   2   2    1.30    0.80
   0   2   2    0.00    0.80
   0   2   2    0.90    0.70
   0   2   2    1.50    1.00
   0   2   2    0.70    0.80
   0   2   2    0.00    0.60
   0   2   2    1.30    1.00
   0  -2  -3  148.99    7.40
   0  -2  -3  156.98    7.70
   0  -2  -3  151.98    7.90
   0  -2  -3  137.19    7.20
   0   2   3  135.79    6.80
   0   2   3  143.59    6.40
   0   2   3  148.89    7.10
   0   2   3  146.59    6.70
   0   2   3  139.09    6.70
   0   2   3  149.39    7.10
   0   2   3  148.69    7.10
   0  -2  -4   40.70    4.70
   0  -2  -4   37.50    4.80
   0  -2  -4   36.80    4.60
   0  -2  -4   41.80    4.90
   0   2   4   48.70    4.60
   0   2   4   39.60    4.10
   0   2   4   39.50    4.00
   0   2   4   37.20    4.40
   0   2   4   36.80    4.10
   0   2   4   42.30    4.70
   0  -2  -5    4.70    3.10
   0  -2  -5    6.60    2.80
   0  -2  -5    2.20    3.10
   0  -2  -5    4.40    2.70
   0   2   5    4.70    2.90
   0   2   5    3.40    2.70
   0   2   5    1.90    2.10
   0   2   5    3.10    2.30
  -1  -2   5    0.50    2.60
  -1  -2   5    2.70    2.70
   1   2  -5   -0.20    2.40
   1   2  -5    4.10    2.60
  -1  -2   4    5.10    2.00
  -1  -2   4    2.50    2.00
  -1  -2   4    4.60    1.70
  -1  -2   4    2.90    2.10
   1   2  -4    0.10    1.80
   1   2  -4    2.50    2.10
  -1  -2   3  162.28    7.20
  -1  -2   3  165.68    7.50
  -1  -2   3  167.78    8.00
  -1  -2   3  156.98    7.80
  -1  -2   3  158.38    6.90
   1   2  -3  158.58    8.00
   1   2  -3  162.48    8.20
   1   2  -3  160.48    8.40
  -1  -2   2  365.86   13.50
  -1  -2   2  368.36   14.00
  -1  -2   2  361.36   13.60
  -1  -2   2  393.16   13.40
   1   2  -2  377.76   14.10
   1   2  -2  366.26   14.40
   1   2  -2  360.06   14.20
  -1  -2   1   46.60    2.30
  -1  -2   1   47.60    2.20
  -1  -2   1   49.99    2.40
  -1  -2   1   46.10    2.50
  -1  -2   1   50.49    2.60
   1   2  -1   55.29    2.90
   1   2  -1   47.50    2.60
   1   2  -1   53.29    2.60
  -1  -2   0    8.20    1.00
  -1  -2   0    8.50    0.90
  -1  -2   0    8.80    1.20
   1   2   0    8.70    0.70
   1   2   0    8.30    0.90
   1   2   0    7.80    0.70
  -1  -2  -1   47.50    2.20
  -1  -2  -1   47.50    2.50
  -1  -2  -1   49.80    2.50
  -1  -2  -1   55.29    3.20
   1   2   1   44.20    2.20
   1   2   1   48.50    2.40
   1   2   1   50.39    2.60
   1   2   1   44.30    2.30
   1   2   1   43.30    2.10
   1   2   1   47.00    2.20
   1   2   1   50.19    2.40
  -1  -2  -2  359.36   13.60
  -1  -2  -2  357.56   13.70
  -1  -2  -2  384.86   14.40
  -1  -2  -2  358.26   14.70
  -1  -2  -2  372.26   13.80
   1   2   2  358.66   13.20
   1   2   2  371.56   13.70
   1   2   2  363.36   13.50
   1   2   2  372.96   13.40
   1   2   2  354.16   13.30
   1   2   2  365.16   13.50
   1   2   2  358.96   13.40
  -1  -2  -3  150.98    7.70
  -1  -2  -3  157.08    8.60
  -1  -2  -3  172.28    8.90
  -1  -2  -3  168.48    8.50
  -1  -2  -3  159.18    7.80
  -1  -2  -3  174.08    8.00
   1   2   3  159.08    7.00
   1   2   3  159.08    7.40
   1   2   3  159.68    7.20
   1   2   3  166.78    7.30
   1   2   3  159.08    7.40
   1   2   3  157.58    7.50
   1   2   3  156.48    7.50
  -1  -2  -4    1.20    1.90
  -1  -2  -4    3.80    2.70
  -1  -2  -4    3.40    1.90
  -1  -2  -4    2.80    2.30
  -1  -2  -4    2.90    1.80
  -1  -2  -4    4.40    2.40
  -1  -2  -4    1.40    1.90
   1   2   4    3.70    2.10
   1   2   4    2.10    2.00
   1   2   4    5.00    2.20
   1   2   4    2.80    1.80
   1   2   4    2.50    1.60
   1   2   4    2.30    1.80
   1   2   4    1.00    1.50
  -1  -2  -5    2.40    2.30
  -1  -2  -5    3.70    2.40
   1   2   5    1.00    2.40
   1   2   5   -2.20    2.20
  -2  -2   5   14.50    4.00
  -2  -2   5   13.50    3.80
  -2  -2   5   14.90    3.30
  -2  -2   5   13.40    3.80
   2   2  -5   18.20    3.90
   2   2  -5   18.00    4.10
  -2  -2   4    9.90    2.80
  -2  -2   4   11.80    2.60
  -2  -2   4    9.10    2.30
  -2  -2   4   11.50    3.10
   2   2  -4    7.40    2.60
   2   2  -4    9.60    3.00
   2   2  -4    9.00    2.60
  -2  -2   3   41.50    4.10
  -2  -2   3   43.30    3.00
  -2  -2   3   41.50    3.40
  -2  -2   3   37.10    3.80
  -2  -2   3   40.60    3.10
   2   2  -3   36.00    4.00
   2   2  -3   42.80    4.30
   2   2  -3   39.80    3.20
  -2  -2   2  904.91   31.20
  -2  -2   2  924.11   31.40
  -2  -2   2  926.81   31.70
  -2  -2   2  882.91   31.50
  -2  -2   2  920.01   31.10
   2   2  -2  906.41   31.90
   2   2  -2  891.41   31.10
   2   2  -2  862.71   31.80
  -2  -2   1 1793.82   59.39
  -2  -2   1 1795.42   59.19
  -2  -2   1 1793.92   59.29
  -2  -2   1 1783.22   59.39
  -2  -2   1 1723.73   59.29
   2   2  -1 1759.02   59.59
   2   2  -1 1800.02   58.89
   2   2  -1 1748.13   59.49
  -2  -2   0   12.80    1.80
  -2  -2   0   13.60    1.30
  -2  -2   0   11.00    1.10
   2   2   0   12.00    1.00
   2   2   0   11.60    0.70
   2   2   0   10.00    0.80
  -2  -2  -1 1960.40   60.39
  -2  -2  -1 1764.32   60.49
  -2  -2  -1 1859.61   61.59
   2   2   1 1803.62   59.99
   2   2   1 1770.82   59.89
   2   2   1 1818.12   59.89
   2   2   1 1722.73   60.29
   2   2   1 1733.23   59.69
   2   2   1 1834.62   60.29
   2   2   1 1773.72   60.29
  -2  -2  -2  954.80   33.10
  -2  -2  -2  924.61   31.50
  -2  -2  -2  917.61   31.70
  -2  -2  -2  905.71   33.20
   2   2   2  897.41   31.40
   2   2   2  892.91   31.10
   2   2   2  892.21   31.50
   2   2   2  901.11   31.00
   2   2   2  891.01   31.60
   2   2   2  923.61   31.60
   2   2   2  896.61   31.20
  -2  -2  -3   37.00    4.40
  -2  -2  -3   38.70    4.60
  -2  -2  -3   43.70    4.10
  -2  -2  -3   37.30    3.80
  -2  -2  -3   40.00    3.10
  -2  -2  -3   44.20    5.00
  -2  -2  -3   37.80    3.20
   2   2   3   37.80    3.20
   2   2   3   41.60    3.00
   2   2   3   41.30    3.10
   2   2   3   36.40    2.60
   2   2   3   39.60    3.50
   2   2   3   38.60    3.20
   2   2   3   36.10    3.10
  -2  -2  -4   12.00    2.60
  -2  -2  -4   12.50    2.90
  -2  -2  -4   12.20    3.10
  -2  -2  -4    9.60    3.40
  -2  -2  -4   10.90    2.70
  -2  -2  -4    6.40    2.50
  -2  -2  -4   11.50    2.40
   2   2   4    7.10    2.30
   2   2   4   11.30    2.50
   2   2   4   13.00    2.30
   2   2   4   11.90    2.80
   2   2   4   10.20    2.50
   2   2   4    9.30    2.20
   2   2   4   15.40    2.50
  -2  -2  -5   19.00    3.80
  -2  -2  -5    8.00    3.00
   2   2   5   15.50    3.60
   2   2   5   17.80    3.80
  -3  -2   5    5.80    3.70
  -3  -2   5    8.90    3.50
  -3  -2   5    0.60    2.20
  -3  -2   5    3.30    2.60
   3   2  -5    3.50    2.60
   3   2  -5    3.20    2.60
  -3  -2   4   17.50    3.10
  -3  -2   4   18.90    3.40
  -3  -2   4   17.80    3.30
  -3  -2   4   17.70    3.00
   3   2  -4   19.70    3.70
   3   2  -4   12.60    3.00
   3   2  -4   15.40    3.20
  -3  -2   3   97.19    5.00
  -3  -2   3   95.29    5.40
  -3  -2   3   86.99    5.50
  -3  -2   3   94.69    5.20
  -3  -2   3   90.09    5.50
   3   2  -3   91.79    5.90
   3   2  -3   93.39    5.80
   3   2  -3   99.09    5.90
  -3  -2   2   38.40    2.80
  -3  -2   2   39.00    2.90
  -3  -2   2   45.70    2.80
  -3  -2   2   38.60    3.10
  -3  -2   2   41.10    2.80
   3   2  -2   39.60    3.00
   3   2  -2   37.70    3.00
   3   2  -2   38.40    2.20
  -3  -2   1  386.36   13.90
  -3  -2   1  354.96   13.30
  -3  -2   1  366.36   13.50
  -3  -2   1  369.46   13.40
  -3  -2   1  385.26   13.40
   3   2  -1  375.26   13.70
   3   2  -1  392.26   12.80
   3   2  -1  352.26   13.40
  -3  -2   0  150.48    7.60
  -3  -2   0  173.58    6.50
  -3  -2   0  173.18    6.60
   3   2   0  168.58    6.50
   3   2   0  170.58    6.10
   3   2   0  176.18    6.40
  -3  -2  -1  375.16   13.30
  -3  -2  -1  386.26   14.90
  -3  -2  -1  373.16   13.50
   3   2   1  371.76   13.30
   3   2   1  356.66   12.50
   3   2   1  356.86   13.30
   3   2   1  367.06   12.80
   3   2   1  341.47   13.30
  -3  -2  -2   40.40    2.90
  -3  -2  -2   41.40    4.40
  -3  -2  -2   34.90    4.20
  -3  -2  -2   40.70    2.70
   3   2   2   39.30    2.70
   3   2   2   38.30    2.30
   3   2   2   38.90    2.90
   3   2   2   38.20    2.50
   3   2   2   38.20    2.90
   3   2   2   41.70    2.50
   3   2   2   42.80    2.90
  -3  -2  -3   87.59    6.60
  -3  -2  -3   96.29    5.20
  -3  -2  -3   95.69    6.60
  -3  -2  -3   93.59    6.70
  -3  -2  -3   96.89    5.40
   3   2   3   90.09    5.10
   3   2   3   89.49    5.00
   3   2   3   89.99    5.20
   3   2   3   89.69    4.70
   3   2   3   88.29    5.20
   3   2   3   96.39    4.60
   3   2   3   93.69    5.40
  -3  -2  -4   14.80    2.90
  -3  -2  -4   17.60    4.10
  -3  -2  -4   17.60    3.30
  -3  -2  -4   14.00    3.60
  -3  -2  -4   17.90    3.30
  -3  -2  -4   18.50    4.20
  -3  -2  -4   14.20    2.80
   3   2   4   13.40    2.40
   3   2   4   15.80    2.50
   3   2   4   16.50    3.10
   3   2   4   19.10    3.00
   3   2   4   15.40    3.20
   3   2   4   14.70    2.70
   3   2   4   13.00    2.60
  -3  -2  -5    4.40    2.70
  -3  -2  -5    1.00    2.70
  -3  -2  -5    4.50    2.50
   3   2   5    4.80    2.60
   3   2   5    1.90    2.70
   3   2   5    3.40    2.70
  -4  -2   5   -1.60    2.50
  -4  -2   5   -1.80    2.10
  -4  -2   5    5.70    3.00
  -4  -2   5   10.40    3.10
   4   2  -5   -0.90    2.20
   4   2  -5    1.00    2.50
  -4  -2   4    4.20    2.30
  -4  -2   4    6.60    2.70
  -4  -2   4    1.60    1.80
  -4  -2   4    3.40    2.10
   4   2  -4    2.80    2.30
   4   2  -4    4.10    2.30
  -4  -2   3  135.49    7.10
  -4  -2   3  144.99    7.20
  -4  -2   3  119.09    6.60
  -4  -2   3  135.09    7.10
  -4  -2   3  136.09    6.70
   4   2  -3  129.69    7.30
   4   2  -3  130.09    7.10
   4   2  -3  139.39    7.40
  -4  -2   2  100.59    5.40
  -4  -2   2  114.79    5.50
  -4  -2   2  108.49    5.30
  -4  -2   2  108.39    5.40
  -4  -2   2  105.79    5.40
   4   2  -2  113.39    5.60
   4   2  -2  104.59    5.50
   4   2  -2  103.49    5.50
  -4  -2   1   41.20    2.60
  -4  -2   1   38.90    2.90
  -4  -2   1   37.20    2.30
  -4  -2   1   39.70    2.40
   4   2  -1   40.00    2.50
   4   2  -1   39.70    2.40
   4   2  -1   39.50    2.50
   4   2  -1   40.10    1.90
  -4  -2   0  298.27   11.00
  -4  -2   0  292.87   12.70
  -4  -2   0  303.27   11.20
   4   2   0  303.17   11.10
   4   2   0  299.07   10.70
   4   2   0  311.17   10.40
   4   2   0  323.27   11.10
  -4  -2  -1   38.90    2.70
  -4  -2  -1   39.40    2.50
  -4  -2  -1   43.00    4.50
   4   2   1   41.00    2.10
   4   2   1   40.20    2.60
   4   2   1   35.70    2.50
   4   2   1   41.00    1.80
  -4  -2  -2   99.39    6.80
  -4  -2  -2  107.09    5.20
  -4  -2  -2   99.29    6.70
  -4  -2  -2  108.69    5.40
   4   2   2  100.29    4.90
   4   2   2   99.59    4.60
   4   2   2  101.79    4.60
   4   2   2  106.99    5.40
   4   2   2  101.49    5.40
   4   2   2  109.59    5.30
   4   2   2  103.49    4.50
  -4  -2  -3  133.79    6.70
  -4  -2  -3  126.89    6.40
  -4  -2  -3  111.19    8.10
  -4  -2  -3  130.79    8.10
  -4  -2  -3  125.99    8.30
   4   2   3  123.59    6.70
   4   2   3  131.39    6.50
   4   2   3  133.89    6.60
   4   2   3  126.89    5.70
   4   2   3  129.89    5.90
   4   2   3  127.29    6.20
   4   2   3  122.59    6.90
  -4  -2  -4    3.20    2.80
  -4  -2  -4    3.00    1.90
  -4  -2  -4    4.00    2.10
  -4  -2  -4    4.40    3.10
  -4  -2  -4    3.60    2.50
   4   2   4    4.30    2.00
   4   2   4    5.80    2.10
   4   2   4    2.20    1.90
   4   2   4    1.20    2.10
  -4  -2  -5    3.40    3.10
  -4  -2  -5    1.40    4.90
  -4  -2  -5    5.40    2.90
   4   2   5    2.90    2.80
   4   2   5    3.00    2.70
  -5  -2   5    3.10    2.80
  -5  -2   5    2.50    2.70
  -5  -2   5    5.70    3.20
  -5  -2   5   -0.10    2.50
   5   2  -5    1.90    2.50
   5   2  -5    4.70    2.90
  -5  -2   4    8.90    2.80
  -5  -2   4    6.10    2.50
  -5  -2   4    3.90    2.50
  -5  -2   4    3.80    2.10
   5   2  -4    1.00    2.10
   5   2  -4    3.40    2.10
  -5  -2   3  150.98    7.80
  -5  -2   3  150.08    7.60
  -5  -2   3  141.09    7.60
  -5  -2   3  146.69    7.40
  -5  -2   3  141.19    7.30
   5   2  -3  136.79    7.60
   5   2  -3  141.39    7.80
   5   2  -3  141.19    7.50
  -5  -2   2  272.27   11.30
  -5  -2   2  261.97   10.90
  -5  -2   2  259.17   11.20
  -5  -2   2  287.77   11.10
   5   2  -2  276.37   11.20
   5   2  -2  274.27   11.10
   5   2  -2  269.47   11.30
  -5  -2   1  295.07   11.50
  -5  -2   1  299.17   11.40
  -5  -2   1  301.57   12.30
  -5  -2   1  298.87   11.00
   5   2  -1  305.77   11.40
   5   2  -1  286.47   11.20
   5   2  -1  314.37   10.60
   5   2  -1  288.97   11.20
  -5  -2   0 3709.33  123.69
  -5  -2   0 3529.55  125.79
  -5  -2   0 3707.23  123.59
   5   2   0 3966.30  122.89
   5   2   0 3540.25  123.19
   5   2   0 3860.11  123.69
   5   2   0 3760.32  123.79
  -5  -2  -1  309.97   11.60
  -5  -2  -1  311.77   11.40
  -5  -2  -1  268.27   13.40
  -5  -2  -1  294.27   13.30
   5   2   1  303.57   11.60
   5   2   1  305.27   11.60
   5   2   1  306.77   10.90
   5   2   1  281.67   10.30
  -5  -2  -2  280.47   10.90
  -5  -2  -2  282.97   13.30
  -5  -2  -2  278.77   11.10
  -5  -2  -2  260.47   13.10
   5   2   2  272.77   11.20
   5   2   2  266.17   10.50
   5   2   2  252.07   10.00
   5   2   2  260.77   11.00
   5   2   2  260.17   11.10
  -5  -2  -3  141.69    6.90
  -5  -2  -3  157.38    7.40
  -5  -2  -3  131.19    8.90
  -5  -2  -3  133.99    8.60
  -5  -2  -3  130.39    9.10
   5   2   3  120.69    6.40
   5   2   3  139.79    7.30
   5   2   3  135.39    7.30
   5   2   3  130.39    6.10
   5   2   3  136.99    7.00
   5   2   3  141.79    6.00
   5   2   3  135.39    7.00
  -5  -2  -4    2.40    2.30
  -5  -2  -4    4.90    2.80
   5   2   4    5.90    2.30
   5   2   4    7.40    2.40
   5   2   4    0.30    2.00
  -5  -2  -5   -0.20    2.80
  -5  -2  -5    1.30    2.40
  -5  -2  -5    5.20    3.30
   5   2   5    2.60    2.70
   5   2   5    2.10    2.90
   5   2   5   -2.20    2.50
  -6  -2   5    6.90    3.10
  -6  -2   5    1.40    2.50
  -6  -2   5    2.50    3.00
   6   2  -5    5.10    3.30
   6   2  -5    1.50    2.40
  -6  -2   4   14.70    3.30
  -6  -2   4   20.50    3.50
  -6  -2   4   17.10    3.40
  -6  -2   4   11.50    3.10
   6   2  -4   19.00    3.80
   6   2  -4   15.30    3.40
  -6  -2   3  155.58    8.40
  -6  -2   3  166.68    8.30
  -6  -2   3  162.38    8.30
  -6  -2   3  156.68    8.10
   6   2  -3  173.48    8.30
   6   2  -3  158.98    8.50
   6   2  -3  145.99    8.20
  -6  -2   2    4.50    1.70
  -6  -2   2    3.00    1.30
  -6  -2   2    3.10    1.40
  -6  -2   2    2.80    1.40
   6   2  -2    3.80    1.50
   6   2  -2    3.60    1.60
   6   2  -2    4.50    1.50
  -6  -2   1   89.89    4.50
  -6  -2   1   79.69    5.20
  -6  -2   1   87.09    4.60
  -6  -2   1   80.69    4.50
  -6  -2   1   83.39    4.00
   6   2  -1   81.19    4.10
   6   2  -1   86.99    4.30
   6   2  -1   85.49    3.70
   6   2  -1   78.89    4.10
  -6  -2   0   52.29    2.90
  -6  -2   0   47.50    4.50
  -6  -2   0   43.10    2.90
  -6  -2   0   51.89    5.30
   6   2   0   48.40    2.90
   6   2   0   48.20    2.60
   6   2   0   52.39    2.20
   6   2   0   53.79    3.10
  -6  -2  -1   85.79    4.10
  -6  -2  -1   72.39    5.90
  -6  -2  -1   78.39    4.20
  -6  -2  -1   77.29    5.80
   6   2   1   83.49    4.50
   6   2   1   78.99    3.20
   6   2   1   81.59    4.50
  -6  -2  -2    6.20    2.50
  -6  -2  -2    4.70    1.50
  -6  -2  -2    2.90    1.60
  -6  -2  -2    1.90    2.40
   6   2   2    3.30    1.00
   6   2   2    4.40    1.30
   6   2   2    3.70    1.50
   6   2   2    3.10    1.50
  -6  -2  -3  154.18    9.70
  -6  -2  -3  159.68   10.30
  -6  -2  -3  171.08   10.90
   6   2   3  145.39    8.10
   6   2   3  144.99    7.70
   6   2   3  154.18    7.70
   6   2   3  167.38    8.40
  -6  -2  -4   16.90    4.20
  -6  -2  -4   15.90    4.70
   6   2   4   12.20    3.10
   6   2   4   15.50    3.20
   6   2   4   13.80    3.30
  -6  -2  -5   -0.60    2.20
  -6  -2  -5   -0.10    3.40
  -6  -2  -5    0.50    2.70
   6   2   5    4.40    3.00
   6   2   5    0.10    2.40
  -7  -2   5    0.20    2.80
  -7  -2   5   -0.60    2.60
  -7  -2   5   -0.50    3.10
   7   2  -5   -1.20    2.20
   7   2  -5   -0.80    2.50
  -7  -2   4   42.70    5.30
  -7  -2   4   27.80    4.30
  -7  -2   4   34.70    4.70
   7   2  -4   26.30    4.40
   7   2  -4   29.80    4.40
  -7  -2   3   47.10    4.60
  -7  -2   3   50.09    5.20
  -7  -2   3   49.60    4.80
  -7  -2   3   47.50    5.00
   7   2  -3   49.50    5.00
   7   2  -3   53.69    4.50
  -7  -2   2   46.90    4.20
  -7  -2   2   50.69    3.50
  -7  -2   2   50.19    4.00
  -7  -2   2   45.90    4.80
   7   2  -2   50.39    3.70
   7   2  -2   50.09    3.50
   7   2  -2   48.50    3.70
  -7  -2   1  729.13   28.10
  -7  -2   1  750.22   25.90
  -7  -2   1  723.03   26.80
  -7  -2   1  745.53   26.60
  -7  -2   1  774.22   27.10
   7   2  -1  767.82   25.80
   7   2  -1  747.43   26.20
   7   2  -1  748.83   26.30
   7   2  -1  724.73   26.00
  -7  -2   0  122.19    7.60
  -7  -2   0  124.09    6.00
  -7  -2   0  130.39    5.80
  -7  -2   0  132.99    7.60
   7   2   0  133.89    6.10
   7   2   0  137.19    5.00
   7   2   0  122.49    5.90
   7   2   0  134.19    5.60
  -7  -2  -1  781.52   28.90
  -7  -2  -1  761.72   25.70
  -7  -2  -1  721.43   29.20
  -7  -2  -1  744.23   25.40
   7   2   1  715.13   25.30
   7   2   1  664.83   24.40
   7   2   1  704.83   26.20
   7   2   1  733.33   26.30
  -7  -2  -2   49.60    6.60
  -7  -2  -2   49.40    3.50
  -7  -2  -2   54.29    3.80
  -7  -2  -2   51.59    6.30
   7   2   2   48.40    3.40
   7   2   2   54.99    4.20
   7   2   2   49.90    4.10
  -7  -2  -3   42.00    6.80
  -7  -2  -3   48.20    6.70
   7   2   3   50.39    5.10
   7   2   3   51.99    5.20
   7   2   3   49.30    4.00
  -7  -2  -4   25.70    5.90
  -7  -2  -4   17.80    4.50
   7   2   4   35.30    4.90
   7   2   4   30.90    4.50
   7   2   4   44.00    4.80
  -7  -2  -5   -0.50    2.60
  -7  -2  -5   -0.20    3.70
   7   2   5    0.90    2.50
   7   2   5   -0.50    2.50
  -8  -2   4   17.80    3.60
  -8  -2   4   11.80    3.30
  -8  -2   4    5.80    3.00
   8   2  -4   11.00    3.30
   8   2  -4   19.10    3.60
  -8  -2   3   11.40    2.70
  -8  -2   3   13.40    3.20
  -8  -2   3   10.40    2.70
  -8  -2   3   10.80    2.70
   8   2  -3   12.80    2.80
   8   2  -3   13.60    3.00
  -8  -2   2  533.95   20.40
  -8  -2   2  512.15   19.90
  -8  -2   2  523.75   21.00
  -8  -2   2  527.95   19.30
   8   2  -2  528.25   19.60
   8   2  -2  491.05   19.50
   8   2  -2  508.15   19.20
  -8  -2   1   51.69    2.90
  -8  -2   1   43.00    3.40
  -8  -2   1   49.40    5.30
  -8  -2   1   49.40    4.60
  -8  -2   1   46.20    3.60
   8   2  -1   46.60    3.10
   8   2  -1   43.90    3.20
   8   2  -1   46.40    2.90
   8   2  -1   44.50    2.90
  -8  -2   0   70.69    3.90
  -8  -2   0   63.59    4.00
  -8  -2   0   73.79    5.70
  -8  -2   0   66.89    5.70
   8   2   0   69.39    3.60
   8   2   0   66.29    3.00
   8   2   0   68.69    4.10
   8   2   0   66.49    4.10
  -8  -2  -1   38.10    5.30
  -8  -2  -1   46.60    3.10
  -8  -2  -1   48.00    3.00
  -8  -2  -1   44.00    6.00
   8   2   1   42.60    3.50
   8   2   1   39.80    2.80
   8   2   1   44.90    3.60
  -8  -2  -2  473.25   22.10
  -8  -2  -2  471.35   22.40
  -8  -2  -2  506.75   18.50
  -8  -2  -2  495.05   18.20
   8   2   2  491.35   19.40
   8   2   2  486.55   18.40
   8   2   2  490.65   19.40
  -8  -2  -3    8.80    3.60
  -8  -2  -3    9.00    3.90
   8   2   3   13.20    3.10
   8   2   3   13.40    2.60
   8   2   3   11.30    2.80
  -8  -2  -4    7.50    3.70
  -8  -2  -4   13.50    4.60
   8   2   4   10.30    3.10
   8   2   4    9.60    3.00
   8   2   4   11.60    3.20
  -9  -2   4    9.00    3.40
  -9  -2   4    7.80    2.90
  -9  -2   4   10.40    3.40
   9   2  -4    6.40    2.90
   9   2  -4    9.20    3.30
  -9  -2   3    5.20    2.30
  -9  -2   3    3.70    2.20
  -9  -2   3    3.60    2.40
  -9  -2   3    3.20    2.40
   9   2  -3    2.40    2.00
   9   2  -3    2.40    2.10
  -9  -2   2   24.40    3.60
  -9  -2   2   33.40    3.90
  -9  -2   2   26.10    3.00
  -9  -2   2   28.20    4.20
   9   2  -2   27.90    3.30
   9   2  -2   26.50    3.00
   9   2  -2   28.90    3.20
  -9  -2   1   48.70    4.10
  -9  -2   1   59.69    4.10
  -9  -2   1   52.19    5.80
   9   2  -1   51.09    3.70
   9   2  -1   55.49    3.30
   9   2  -1   53.09    3.60
  -9  -2   0   17.80    3.70
  -9  -2   0   13.80    2.50
  -9  -2   0   15.40    3.60
  -9  -2   0   16.00    2.30
   9   2   0   28.00    2.20
   9   2   0   21.60    2.90
   9   2   0   18.50    2.50
  -9  -2  -1   52.09    6.60
  -9  -2  -1   54.59    3.50
  -9  -2  -1   47.90    3.50
  -9  -2  -1   46.80    6.60
   9   2   1   54.09    4.20
   9   2   1   56.69    4.40
  -9  -2  -2   24.50    5.00
  -9  -2  -2   22.20    5.30
   9   2   2   27.70    3.80
   9   2   2   24.40    3.50
   9   2   2   24.70    3.00
  -9  -2  -3    0.30    2.70
  -9  -2  -3    4.80    3.70
   9   2   3    2.80    2.30
   9   2   3    1.00    2.00
   9   2   3    0.40    1.80
  -9  -2  -4    8.70    4.50
  -9  -2  -4    0.50    2.90
   9   2   4    8.90    3.30
   9   2   4    9.30    3.40
 -10  -2   4    1.20    2.90
 -10  -2   4   10.00    3.50
 -10  -2   4   -0.80    2.70
  10   2  -4    5.50    3.00
  10   2  -4    7.20    3.00
 -10  -2   3    6.40    2.30
 -10  -2   3    6.40    2.70
 -10  -2   3   10.20    2.90
 -10  -2   3    2.80    2.30
  10   2  -3    6.70    2.50
  10   2  -3    4.20    2.30
 -10  -2   2   11.70    2.80
 -10  -2   2   13.90    2.30
 -10  -2   2   13.00    3.20
 -10  -2   2   11.40    3.40
  10   2  -2   10.10    2.30
  10   2  -2   11.60    2.30
 -10  -2   1   49.60    4.60
 -10  -2   1   53.19    4.40
 -10  -2   1   50.09    6.00
  10   2  -1   53.29    3.90
  10   2  -1   46.60    3.50
 -10  -2   0  154.08    7.70
 -10  -2   0  151.68    9.80
 -10  -2   0  168.18    7.60
 -10  -2   0  157.68   10.00
  10   2   0  163.28    7.00
  10   2   0  147.89    7.60
  10   2   0  158.18    7.90
 -10  -2  -1   42.90    3.20
 -10  -2  -1   40.50    6.10
 -10  -2  -1   45.50    6.50
 -10  -2  -1   46.60    3.60
  10   2   1   44.70    4.50
  10   2   1   42.40    4.50
  10   2   1   29.70    3.20
 -10  -2  -2   14.00    4.60
 -10  -2  -2   20.20    4.80
  10   2   2   10.40    2.30
  10   2   2    8.00    2.60
  10   2   2   13.70    3.00
 -10  -2  -3   12.00    4.40
 -10  -2  -3    7.40    4.30
  10   2   3    5.50    2.50
  10   2   3    4.40    2.50
  10   2   3    5.20    2.30
 -10  -2  -4    9.10    4.60
 -10  -2  -4    4.50    3.60
  10   2   4    1.80    2.70
  10   2   4    1.60    2.60
 -11  -2   4    6.00    2.80
  11   2  -4    9.50    3.20
  11   2  -4    7.40    3.30
 -11  -2   3   29.70    5.10
 -11  -2   3   25.20    4.60
 -11  -2   3   29.10    3.90
 -11  -2   3   30.70    4.60
  11   2  -3   33.20    4.50
  11   2  -3   32.20    4.40
 -11  -2   2   36.80    3.70
 -11  -2   2   39.70    5.20
 -11  -2   2   40.60    4.80
 -11  -2   2   38.50    5.60
  11   2  -2   33.60    3.90
 -11  -2   1    0.20    1.90
 -11  -2   1    2.50    2.50
 -11  -2   1    3.50    2.00
  11   2  -1    2.00    1.50
  11   2  -1    0.30    1.60
 -11  -2   0  185.28    9.40
 -11  -2   0  200.78   12.00
 -11  -2   0  213.88   12.30
 -11  -2   0  213.48    9.50
  11   2   0  200.58    9.70
  11   2   0  205.08    9.90
  11   2   0  220.28    8.90
 -11  -2  -1   -1.00    2.30
 -11  -2  -1    3.60    3.40
  11   2   1   -0.20    1.80
  11   2   1   -1.50    1.70
  11   2   1   -0.60    1.30
 -11  -2  -2   31.40    6.10
 -11  -2  -2   38.30    7.00
  11   2   2   38.80    5.10
  11   2   2   37.70    4.80
 -11  -2  -3   35.90    7.20
 -11  -2  -3   26.20    6.10
  11   2   3   24.70    4.40
  11   2   3   39.70    5.40
 -11  -2  -4    9.20    4.70
 -11  -2  -4    8.40    4.10
  11   2   4   -1.20    2.50
 -12  -2   3    4.60    2.90
 -12  -2   3    3.00    2.80
 -12  -2   3   -0.60    3.00
  12   2  -3   10.80    3.10
 -12  -2   2   31.70    4.50
 -12  -2   2   28.40    5.10
 -12  -2   2   26.20    4.40
  12   2  -2   29.40    3.90
 -12  -2   1   27.10    3.90
 -12  -2   1   27.60    5.20
 -12  -2   1   33.50    4.60
  12   2  -1   29.40    3.70
  12   2  -1   31.00    3.50
 -12  -2   0   44.30    7.90
 -12  -2   0   42.10    6.40
 -12  -2   0   41.30    4.70
 -12  -2   0   31.90    3.90
  12   2   0   49.10    3.50
  12   2   0   43.10    4.50
  12   2   0   42.40    4.80
 -12  -2  -1   36.30    6.50
 -12  -2  -1   28.30    5.80
  12   2   1   33.80    4.50
  12   2   1   29.10    3.50
  12   2   1   30.50    4.30
 -12  -2  -2   34.30    6.70
 -12  -2  -2   31.70    6.60
  12   2   2   33.70    5.00
  12   2   2   26.70    4.40
  12   2   2   23.20    3.50
 -12  -2  -3   -0.40    4.10
 -12  -2  -3    8.20    4.90
  12   2   3    8.80    3.30
  12   2   3    5.20    3.00
 -13  -2   3    4.80    3.30
 -13  -2   3    2.50    2.80
  13   2  -3    9.30    3.00
 -13  -2   2   52.09    5.90
 -13  -2   2   26.00    5.30
 -13  -2   2   37.70    5.50
  13   2  -2   36.80    4.20
 -13  -2   1   45.80    5.20
 -13  -2   1   34.50    4.80
 -13  -2   1   26.60    5.40
  13   2  -1   33.90    3.80
 -13  -2   0    6.30    2.40
 -13  -2   0   10.70    4.10
 -13  -2   0   10.00    2.80
  13   2   0   10.60    2.30
  13   2   0    8.60    2.70
 -13  -2  -1   25.00    5.90
 -13  -2  -1   18.70    5.50
  13   2   1   30.00    4.40
  13   2   1   36.10    4.90
  13   2   1   33.90    3.90
 -13  -2  -2   40.70    7.90
 -13  -2  -2   31.80    7.00
  13   2   2   34.00    5.30
  13   2   2   34.30    5.00
 -13  -2  -3    0.20    4.10
 -13  -2  -3    3.10    4.50
  13   2   3    3.70    2.90
  13   2   3    4.70    3.20
 -14  -2   2   13.70    4.30
 -14  -2   2   13.00    3.70
 -14  -2   2   16.10    4.30
  14   2  -2   14.30    3.10
 -14  -2   1   -0.20    2.70
 -14  -2   1    3.30    2.70
 -14  -2   1    1.70    2.50
  14   2  -1    3.90    2.20
 -14  -2   0    5.20    3.60
  14   2   0    6.40    2.10
  14   2   0    4.80    2.70
 -14  -2  -1    1.50    3.40
 -14  -2  -1    0.00    4.30
  14   2   1   -1.20    2.60
  14   2   1    2.90    2.20
  14   2   1   -3.40    2.60
 -14  -2  -2   13.20    5.30
 -14  -2  -2   16.20    5.50
  14   2   2   16.00    4.30
  14   2   2   12.70    4.00
 -15  -2   1   10.90    3.30
 -15  -2   1   11.10    3.70
 -15  -2   1   13.50    4.70
  15   2  -1    8.40    2.60
 -15  -2   0   13.50    4.80
  15   2   0   23.40    3.50
 -15  -2  -1   14.90    5.60
  15   2   1   12.70    3.60
  15   2   1   15.40    4.30
  15  -3   1    8.70    2.90
 -15   3  -1   11.40    4.30
  15  -3   0    0.70    1.80
 -15   3   0   -5.20    2.60
  15  -3  -1   16.00    3.10
 -15   3   1    8.00    3.80
  14  -3   2    2.70    2.50
  14  -3   2   13.10    3.90
 -14   3  -2   13.90    5.20
 -14   3  -2    6.50    5.60
 -14   3  -2    2.20    3.40
  14  -3   1   40.40    5.20
  14  -3   1   26.70    4.00
 -14   3  -1   28.50    5.50
 -14   3  -1   36.40    7.40
  14  -3   0    6.20    2.20
 -14   3   0    4.80    3.40
  14  -3  -1   38.30    4.30
 -14   3   1   33.90    5.90
  14  -3  -2   10.50    2.60
 -14   3   2   17.60    3.90
 -14   3   2    4.10    3.40
 -14   3   2   13.70    4.50
  13  -3   3    0.60    2.30
  13  -3   3   -1.30    2.40
  13  -3   3   -1.40    2.80
 -13   3  -3   -2.00    3.60
 -13   3  -3   -0.10    3.40
  13  -3   2    7.80    2.60
  13  -3   2   21.50    4.30
  13  -3   2   18.40    4.00
 -13   3  -2   18.20    5.10
 -13   3  -2   20.40    6.10
 -13   3  -2   23.90    5.30
  13  -3   1   10.60    3.10
  13  -3   1   12.20    2.80
 -13   3  -1    9.30    3.70
 -13   3  -1    9.40    4.80
 -13   3  -1   11.40    4.50
  13  -3   0   51.19    4.10
 -13   3   0   53.09    6.80
  13  -3  -1    9.30    2.50
 -13   3   1    9.50    3.60
 -13   3   1    6.60    2.60
  13  -3  -2   17.60    3.10
  13  -3  -2   19.50    3.30
 -13   3   2   20.20    4.70
 -13   3   2   23.20    4.10
 -13   3   2   17.20    4.10
  13  -3  -3    3.60    2.40
  13  -3  -3    1.80    2.30
 -13   3   3    3.80    3.50
 -13   3   3    1.10    2.80
 -13   3   3   -3.60    2.30
  12  -3   3    6.30    2.60
  12  -3   3   15.10    4.10
  12  -3   3   10.30    3.50
 -12   3  -3    8.60    4.90
 -12   3  -3   12.90    4.60
  12  -3   2   18.80    3.90
  12  -3   2   11.60    3.20
  12  -3   2    4.50    2.30
 -12   3  -2   11.70    4.90
 -12   3  -2   13.70    4.80
 -12   3  -2   14.50    4.50
  12  -3   1   23.40    3.80
  12  -3   1   13.00    3.10
  12  -3   1   13.50    2.90
 -12   3  -1   21.80    5.50
 -12   3  -1   19.80    4.70
 -12   3  -1   11.00    3.40
  12  -3   0    6.60    2.00
 -12   3   0    4.80    2.80
  12  -3  -1   23.40    3.20
  12  -3  -1   14.70    2.50
 -12   3   1    9.50    3.10
 -12   3   1   15.90    3.20
 -12   3   1   14.10    3.10
  12  -3  -2   14.30    2.70
  12  -3  -2    8.20    2.30
 -12   3   2    6.40    3.20
 -12   3   2   13.00    3.20
 -12   3   2   14.50    3.50
  12  -3  -3    8.80    2.90
  12  -3  -3   13.00    3.10
 -12   3   3   12.70    4.00
 -12   3   3   20.40    4.40
 -12   3   3   11.90    3.40
  11  -3   3    7.90    3.30
  11  -3   3    5.80    2.60
  11  -3   3   -1.70    2.30
 -11   3  -3    6.70    4.80
 -11   3  -3    2.60    3.10
  11  -3   2   43.90    5.40
  11  -3   2   29.60    3.80
  11  -3   2   42.00    5.10
 -11   3  -2   40.50    7.20
 -11   3  -2   41.70    5.80
 -11   3  -2   39.60    6.00
  11  -3   1   23.50    3.70
  11  -3   1   15.70    2.70
  11  -3   1   19.40    3.40
 -11   3  -1   22.40    4.50
 -11   3  -1   28.10    5.70
 -11   3  -1   15.80    3.80
  11  -3   0  359.46   13.40
  11  -3   0  346.27   14.50
  11  -3   0  368.76   14.00
 -11   3   0  335.37   16.30
 -11   3   0  346.17   17.30
  11  -3  -1   18.70    2.80
  11  -3  -1   25.00    3.00
 -11   3   1   20.60    3.10
 -11   3   1   16.40    3.10
 -11   3   1   14.00    3.60
  11  -3  -2   40.60    4.10
  11  -3  -2   39.00    4.20
 -11   3   2   34.40    4.20
 -11   3   2   40.80    4.90
 -11   3   2   29.50    5.00
  11  -3  -3    3.80    2.40
  11  -3  -3    7.90    2.60
 -11   3   3    4.10    2.70
 -11   3   3    1.40    2.50
 -11   3   3    2.60    2.80
  10  -3   4   22.10    4.30
  10  -3   4   21.80    4.80
  10  -3   4   18.20    4.10
 -10   3  -4   29.40    6.20
 -10   3  -4   17.00    5.70
  10  -3   3   25.30    4.20
  10  -3   3   32.50    4.90
 -10   3  -3   30.80    6.50
 -10   3  -3   31.70    5.60
  10  -3   2   14.40    2.70
  10  -3   2   22.70    3.80
  10  -3   2   15.00    3.10
 -10   3  -2   17.60    4.70
 -10   3  -2   23.20    4.30
 -10   3  -2   15.80    4.30
  10  -3   1   24.30    3.40
  10  -3   1   20.70    2.40
  10  -3   1   18.70    2.80
  10  -3   1   23.30    3.40
 -10   3  -1   26.60    5.30
 -10   3  -1   25.30    4.40
  10  -3   0   33.40    2.60
  10  -3   0   36.50    3.70
  10  -3   0   35.70    2.90
 -10   3   0   39.40    3.40
 -10   3   0   33.40    4.70
 -10   3   0   33.00    3.40
 -10   3   0   35.20    5.40
  10  -3  -1   21.00    2.60
  10  -3  -1   21.40    2.80
 -10   3   1   24.60    3.50
 -10   3   1   19.90    3.90
 -10   3   1   20.80    2.90
  10  -3  -2   16.00    2.70
  10  -3  -2   15.60    2.60
 -10   3   2   21.70    3.50
 -10   3   2   16.70    3.10
 -10   3   2   23.00    3.90
  10  -3  -3   29.00    4.00
  10  -3  -3   41.70    4.50
 -10   3   3   22.90    4.50
 -10   3   3   29.70    4.30
 -10   3   3   20.70    4.10
  10  -3  -4   20.90    4.10
  10  -3  -4   26.30    4.30
 -10   3   4   21.30    4.70
 -10   3   4   19.10    4.10
 -10   3   4   29.60    4.50
 -10   3   4   25.80    4.90
   9  -3   4   -1.00    2.40
   9  -3   4    3.30    2.60
   9  -3   4    2.50    2.50
  -9   3  -4    5.70    3.60
  -9   3  -4    3.50    3.80
   9  -3   3    1.30    2.50
   9  -3   3    0.00    1.90
   9  -3   3   -1.50    1.70
  -9   3  -3    1.80    3.10
  -9   3  -3    2.00    2.70
   9  -3   2    1.50    1.30
   9  -3   2    3.50    1.90
   9  -3   2    4.00    1.70
   9  -3   2    3.00    1.90
  -9   3  -2   -0.80    2.60
  -9   3  -2    0.50    2.30
  -9   3  -2    2.50    2.70
   9  -3   1  337.67   14.20
   9  -3   1  413.56   15.80
   9  -3   1  375.26   14.90
   9  -3   1  414.96   15.80
  -9   3  -1  410.06   18.70
  -9   3  -1  412.26   17.10
   9  -3   0   17.00    2.00
   9  -3   0   17.80    2.20
   9  -3   0   20.40    2.60
  -9   3   0   16.50    2.10
  -9   3   0   17.00    2.30
  -9   3   0   12.40    2.90
  -9   3   0   15.70    3.50
   9  -3  -1  410.16   15.60
   9  -3  -1  396.76   15.80
  -9   3   1  426.86   16.50
  -9   3   1  424.46   16.10
  -9   3   1  427.96   17.80
   9  -3  -2   -0.40    1.30
   9  -3  -2    4.20    1.80
  -9   3   2    1.60    2.00
  -9   3   2    8.00    2.30
  -9   3   2    5.30    1.80
   9  -3  -3   -0.70    1.60
   9  -3  -3   -2.80    1.50
  -9   3   3    1.00    2.10
  -9   3   3    1.40    2.10
  -9   3   3   -2.10    1.60
  -9   3   3    0.90    1.80
   9  -3  -4    2.70    2.20
   9  -3  -4    5.10    2.60
  -9   3   4   -1.90    2.10
  -9   3   4   -1.20    2.30
  -9   3   4    0.70    2.50
  -9   3   4   -1.40    2.50
   8  -3   4    2.30    2.30
   8  -3   4    3.10    2.80
   8  -3   4    9.00    3.20
  -8   3  -4    6.30    3.40
  -8   3  -4    0.40    2.90
   8  -3   3   14.30    2.50
   8  -3   3   13.40    3.10
   8  -3   3   17.00    3.40
   8  -3   3   13.80    2.80
  -8   3  -3   12.40    3.60
  -8   3  -3   13.60    4.30
   8  -3   2   23.60    3.40
   8  -3   2   21.40    2.50
   8  -3   2   16.20    2.60
   8  -3   2   28.20    3.60
  -8   3  -2   14.20    4.20
  -8   3  -2   15.50    3.60
  -8   3  -2   15.40    3.80
   8  -3   1  217.58    9.70
   8  -3   1  193.98    8.60
   8  -3   1  222.98    9.80
   8  -3   1  220.48    9.20
  -8   3  -1  225.78   11.10
  -8   3  -1  253.77   12.60
  -8   3  -1  251.07   11.10
   8  -3   0   -0.10    0.80
   8  -3   0   -0.80    1.00
   8  -3   0    0.90    0.80
  -8   3   0    0.30    0.90
  -8   3   0    0.60    1.00
  -8   3   0    0.50    1.90
  -8   3   0    4.00    1.80
   8  -3  -1  235.08    9.20
   8  -3  -1  237.98    9.80
   8  -3  -1  243.68    9.60
  -8   3   1  238.18   10.20
  -8   3   1  229.68   10.50
  -8   3   1  237.38    9.90
  -8   3   1  245.58   11.30
   8  -3  -2   18.60    2.70
   8  -3  -2   22.80    3.10
  -8   3   2   16.30    2.80
  -8   3   2   20.80    3.20
  -8   3   2   19.90    3.40
   8  -3  -3   15.30    2.80
   8  -3  -3   17.30    3.10
  -8   3   3   16.60    3.40
  -8   3   3   18.70    3.00
  -8   3   3   13.30    3.00
  -8   3   3   20.40    3.70
   8  -3  -4    2.20    2.40
   8  -3  -4    8.80    2.90
  -8   3   4    3.90    2.90
  -8   3   4    7.20    3.00
  -8   3   4    4.70    2.70
  -8   3   4    3.00    2.50
  -7   3  -5    2.30    3.80
  -7   3  -5    4.00    4.60
   7  -3   4   28.60    4.40
   7  -3   4   40.90    5.20
   7  -3   4   28.20    4.70
   7  -3   4   31.90    4.30
  -7   3  -4   29.40    5.70
  -7   3  -4   34.60    6.50
   7  -3   3   21.20    3.40
   7  -3   3   23.70    3.80
   7  -3   3   25.60    3.20
   7  -3   3   13.40    2.90
  -7   3  -3   21.30    4.40
  -7   3  -3   17.90    4.40
   7  -3   2   92.59    5.20
   7  -3   2   82.69    5.40
   7  -3   2   95.19    5.70
   7  -3   2   89.09    4.70
  -7   3  -2   93.49    7.50
  -7   3  -2   74.49    6.30
  -7   3  -2   92.59    6.20
   7  -3   1  197.88    8.70
   7  -3   1  182.88    8.10
   7  -3   1  204.58    8.80
  -7   3  -1  192.08    9.70
  -7   3  -1  202.78   10.80
  -7   3  -1  193.18    7.10
  -7   3  -1  192.78    7.20
  -7   3  -1  211.48    9.60
   7  -3   0  234.48    9.30
   7  -3   0  249.97    9.80
   7  -3   0  245.78    9.50
  -7   3   0  246.18    9.50
  -7   3   0  252.07    9.40
  -7   3   0  243.08   10.90
   7  -3  -1  196.38    7.50
   7  -3  -1  203.98    8.10
   7  -3  -1  196.78    8.20
  -7   3   1  186.28    8.20
  -7   3   1  198.38    8.80
  -7   3   1  172.68    9.00
  -7   3   1  206.98    8.60
   7  -3  -2   93.59    5.30
   7  -3  -2   92.89    5.20
  -7   3   2  100.89    5.20
  -7   3   2   87.19    5.90
  -7   3   2   93.59    5.80
  -7   3   2   92.19    5.40
   7  -3  -3   20.80    3.30
   7  -3  -3   23.30    3.30
  -7   3   3   19.10    3.50
  -7   3   3   21.90    3.30
  -7   3   3   25.00    3.70
  -7   3   3   23.10    3.30
   7  -3  -4   28.20    4.40
   7  -3  -4   39.90    4.90
  -7   3   4   36.00    5.00
  -7   3   4   36.30    4.70
  -7   3   4   27.00    4.70
  -7   3   4   24.70    4.00
   7  -3  -5    4.90    3.30
   7  -3  -5    3.80    2.60
  -7   3   5    1.00    2.70
   6  -3   5    4.90    3.30
   6  -3   5   -0.60    3.00
  -6   3  -5    3.50    4.40
  -6   3  -5    2.00    3.30
   6  -3   4    0.10    2.00
   6  -3   4    3.00    2.10
   6  -3   4    3.50    2.60
   6  -3   4    3.30    2.30
  -6   3  -4    3.20    2.90
  -6   3  -4    2.60    2.80
   6  -3   3   84.69    5.50
   6  -3   3   74.39    5.00
   6  -3   3   78.09    5.50
   6  -3   3   89.79    6.00
  -6   3  -3   86.19    8.70
  -6   3  -3   88.79    7.10
   6  -3   2    3.80    1.50
   6  -3   2    4.50    1.60
   6  -3   2    3.30    1.50
   6  -3   2    2.00    1.10
  -6   3  -2    1.20    1.80
  -6   3  -2    3.60    1.90
  -6   3  -2   -1.50    1.70
   6  -3   1  228.98    9.80
   6  -3   1  240.48    9.90
   6  -3   1  238.88    9.10
  -6   3  -1  257.17   12.00
  -6   3  -1  243.98    8.40
  -6   3  -1  239.08   10.90
  -6   3  -1  252.07   10.60
  -6   3  -1  226.08    8.40
   6  -3   0    5.50    1.20
   6  -3   0    5.20    1.00
   6  -3   0    7.10    1.20
  -6   3   0    4.30    0.90
  -6   3   0    5.10    1.10
  -6   3   0    3.90    1.70
  -6   3   0    3.60    1.40
   6  -3  -1  250.07    9.60
   6  -3  -1  244.58    9.60
   6  -3  -1  237.88    8.90
  -6   3   1  248.78   10.70
  -6   3   1  246.48   10.00
  -6   3   1  240.98   10.00
  -6   3   1  244.68    9.70
   6  -3  -2    2.50    1.40
   6  -3  -2    1.40    1.20
  -6   3   2    0.30    1.20
  -6   3   2    1.10    1.60
  -6   3   2    3.60    1.70
  -6   3   2    3.00    1.30
   6  -3  -3   91.79    5.60
   6  -3  -3   81.59    5.70
  -6   3   3   81.49    5.40
  -6   3   3   86.29    6.00
  -6   3   3   84.79    5.90
  -6   3   3   88.79    5.50
   6  -3  -4    3.80    2.50
   6  -3  -4    4.60    2.50
  -6   3   4    2.70    2.10
  -6   3   4    4.20    2.50
  -6   3   4    3.80    2.50
  -6   3   4    4.60    2.70
   6  -3  -5    3.90    2.70
   6  -3  -5    7.50    3.60
  -6   3   5    2.40    2.80
  -6   3   5    6.90    3.30
  -6   3   5    7.10    3.00
   5  -3   5    6.90    3.20
   5  -3   5    2.80    2.90
   5  -3   5   -1.90    2.40
  -5   3  -5    3.80    3.20
  -5   3  -5   -0.10    2.20
  -5   3  -5    2.50    3.60
   5  -3   4    9.70    2.70
   5  -3   4   14.30    3.40
   5  -3   4    9.20    2.60
   5  -3   4   12.50    3.00
  -5   3  -4    9.00    3.60
  -5   3  -4    7.40    3.50
   5  -3   3  185.78    8.60
   5  -3   3  160.88    8.00
   5  -3   3  171.58    8.50
   5  -3   3  164.58    8.70
  -5   3  -3  160.68    9.90
  -5   3  -3  158.68   10.40
   5  -3   2  108.99    5.80
   5  -3   2  111.49    5.30
   5  -3   2  106.49    5.90
   5  -3   2  108.19    5.60
  -5   3  -2  109.79    6.20
  -5   3  -2  106.59    6.90
  -5   3  -2  106.99    7.40
   5  -3   1 1048.60   35.40
   5  -3   1 1022.10   35.80
   5  -3   1 1052.59   35.10
   5  -3   1 1002.10   35.80
  -5   3  -1 1079.19   36.30
  -5   3  -1 1056.29   37.80
  -5   3  -1  991.20   34.20
  -5   3  -1 1017.30   36.90
   5  -3   0   44.60    2.30
   5  -3   0   39.00    2.20
   5  -3   0   42.00    2.40
  -5   3   0   44.40    4.10
  -5   3   0   40.60    2.90
  -5   3   0   37.40    2.20
  -5   3   0   41.90    2.20
   5  -3  -1 1055.19   35.70
   5  -3  -1 1061.49   34.80
   5  -3  -1 1045.40   35.70
  -5   3   1 1060.89   35.90
  -5   3   1 1030.40   36.00
  -5   3   1 1005.70   35.70
  -5   3   1 1034.30   36.60
   5  -3  -2  115.19    5.80
   5  -3  -2  121.29    5.80
  -5   3   2  111.29    5.70
  -5   3   2  102.39    6.10
  -5   3   2  111.19    6.00
  -5   3   2  118.09    5.60
   5  -3  -3  187.78    8.80
   5  -3  -3  180.98    9.00
  -5   3   3  187.88    8.90
  -5   3   3  179.58    9.20
  -5   3   3  170.48    8.90
  -5   3   3  193.78    8.90
   5  -3  -4   17.20    3.50
   5  -3  -4   12.40    3.00
  -5   3   4   10.60    3.00
  -5   3   4   15.00    3.20
  -5   3   4   14.40    3.20
  -5   3   4   11.90    3.00
   5  -3  -5    5.10    2.50
   5  -3  -5    6.30    2.90
  -5   3   5   -0.10    2.40
  -5   3   5    4.00    3.10
  -5   3   5    4.60    3.30
   4  -3   5    3.80    3.00
   4  -3   5   -0.10    2.80
   4  -3   5   -0.40    2.40
  -4   3  -5   -0.60    2.30
  -4   3  -5   -1.40    2.20
  -4   3  -5   -1.10    3.10
   4  -3   4   27.80    3.90
   4  -3   4   27.40    4.10
   4  -3   4   27.70    4.30
  -4   3  -4   25.50    5.00
  -4   3  -4   27.00    5.20
   4  -3   3   80.49    4.90
   4  -3   3   87.49    5.50
   4  -3   3   71.19    4.80
   4  -3   3   77.19    5.30
  -4   3  -3   71.79    6.10
  -4   3  -3   65.59    7.00
   4  -3   2  739.83   27.30
   4  -3   2  745.63   27.70
   4  -3   2  745.53   27.40
   4  -3   2  742.13   27.00
   4  -3   2  786.72   25.60
  -4   3  -2  799.82   29.80
  -4   3  -2  798.92   25.80
  -4   3  -2  782.62   29.20
  -4   3  -2  791.52   25.90
  -4   3  -2  742.83   27.70
   4  -3   1  974.70   33.80
   4  -3   1  985.80   34.10
   4  -3   1 1005.30   33.60
   4  -3   1  973.90   34.20
  -4   3  -1  963.40   35.10
  -4   3  -1  985.20   35.90
  -4   3  -1 1041.70   34.40
   4  -3   0  233.78    9.30
   4  -3   0  265.57    9.40
   4  -3   0  269.67    9.30
  -4   3   0  255.57    9.30
  -4   3   0  254.47   10.60
  -4   3   0  256.97   10.00
  -4   3   0  262.47   10.00
  -4   3   0  264.07    9.20
   4  -3  -1  971.60   33.70
   4  -3  -1 1010.90   33.70
  -4   3   1  988.20   34.00
  -4   3   1  981.20   33.80
  -4   3   1  972.50   34.40
  -4   3   1  995.30   33.60
   4  -3  -2  760.52   26.70
   4  -3  -2  774.42   27.00
   4  -3  -2  747.63   25.30
  -4   3   2  766.22   27.30
  -4   3   2  777.12   27.10
  -4   3   2  744.73   26.70
  -4   3   2  754.72   26.60
  -4   3   2  696.23   25.10
   4  -3  -3   83.79    5.40
   4  -3  -3   81.69    5.20
  -4   3   3   85.99    5.20
  -4   3   3   76.99    5.20
  -4   3   3   81.69    5.40
  -4   3   3   87.39    5.20
   4  -3  -4   36.10    4.60
   4  -3  -4   29.40    4.10
  -4   3   4   22.10    3.50
  -4   3   4   35.20    4.60
  -4   3   4   28.30    4.00
  -4   3   4   29.50    4.10
   4  -3  -5   -1.40    2.00
   4  -3  -5   -4.00    1.90
  -4   3   5   -2.00    2.20
  -4   3   5   -1.50    2.30
  -4   3   5    2.20    2.40
   3  -3   5   15.10    3.60
   3  -3   5    9.60    3.30
   3  -3   5   15.20    3.80
  -3   3  -5   11.50    3.90
  -3   3  -5    8.40    3.50
   3  -3   4   13.80    3.10
   3  -3   4    5.90    2.50
   3  -3   4   13.40    3.00
  -3   3  -4    4.50    2.60
  -3   3  -4    7.70    3.20
   3  -3   3    7.00    2.10
   3  -3   3    7.30    2.00
   3  -3   3    4.20    1.60
   3  -3   3    6.20    1.90
  -3   3  -3    4.40    2.30
  -3   3  -3    4.70    2.30
   3  -3   2  603.44   22.70
   3  -3   2  636.64   23.30
   3  -3   2  658.23   21.50
   3  -3   2  636.54   23.00
   3  -3   2  651.73   23.00
   3  -3   2  643.94   21.60
  -3   3  -2  644.94   24.90
  -3   3  -2  648.74   21.80
  -3   3  -2  641.64   23.10
  -3   3  -2  617.54   24.30
   3  -3   1  199.48    7.40
   3  -3   1  187.98    7.70
   3  -3   1  182.98    7.50
  -3   3  -1  190.78    9.00
  -3   3  -1  198.38    7.60
  -3   3  -1  200.28    8.50
   3  -3   0 1382.76   44.00
   3  -3   0 1243.68   44.00
   3  -3   0 1344.47   44.10
  -3   3   0 1298.37   45.20
  -3   3   0 1290.57   44.50
  -3   3   0 1290.27   44.50
  -3   3   0 1383.16   43.90
   3  -3  -1  205.28    7.70
   3  -3  -1  200.68    7.80
  -3   3   1  211.88    8.40
  -3   3   1  191.08    7.80
  -3   3   1  214.78    7.80
  -3   3   1  195.58    7.50
   3  -3  -2  630.64   23.10
   3  -3  -2  627.94   22.90
   3  -3  -2  671.33   22.00
  -3   3   2  642.14   22.90
  -3   3   2  626.64   22.80
  -3   3   2  671.73   23.50
  -3   3   2  620.54   21.70
  -3   3   2  645.04   23.20
   3  -3  -3    3.80    1.60
   3  -3  -3    6.10    1.90
  -3   3   3    5.70    1.80
  -3   3   3   11.30    2.20
  -3   3   3    5.60    1.70
  -3   3   3    3.10    1.80
  -3   3   3    5.80    1.70
   3  -3  -4    9.50    2.80
   3  -3  -4   11.10    2.70
  -3   3   4   15.60    3.10
  -3   3   4   12.70    2.90
  -3   3   4   10.30    2.60
  -3   3   4   13.30    3.10
  -3   3   4    6.20    2.40
   3  -3  -5   16.30    3.70
   3  -3  -5   17.60    4.10
  -3   3   5   12.70    3.40
  -3   3   5   12.40    3.20
  -3   3   5    8.10    3.30
  -3   3   5   19.50    4.30
   2  -3   5    6.80    3.20
   2  -3   5   -1.00    2.20
   2  -3   5    0.80    2.50
  -2   3  -5    2.60    2.60
  -2   3  -5    1.90    2.50
   2  -3   4   13.60    3.10
   2  -3   4   14.90    3.00
   2  -3   4   13.80    3.10
  -2   3  -4   14.60    3.70
  -2   3  -4   12.90    3.20
  -2   3  -4   17.60    3.80
   2  -3   3  125.29    6.70
   2  -3   3  129.29    5.60
   2  -3   3  123.59    5.40
   2  -3   3  120.79    6.70
  -2   3  -3  133.19    7.90
  -2   3  -3  126.39    8.00
   2  -3   2  147.59    5.50
   2  -3   2  139.59    6.40
   2  -3   2  143.89    5.40
   2  -3   2  140.79    6.50
   2  -3   2  132.19    6.50
  -2   3  -2  144.09    7.70
  -2   3  -2  140.29    6.10
  -2   3  -2  133.09    7.30
   2  -3   1 1916.31   64.19
   2  -3   1 1922.51   63.89
   2  -3   1 1923.11   63.99
   2  -3   1 1944.81   63.09
  -2   3  -1 1916.11   63.49
  -2   3  -1 1846.02   64.89
  -2   3  -1 1932.71   65.39
   2  -3   0  878.41   30.80
   2  -3   0  930.31   30.80
   2  -3   0  960.60   30.70
   2  -3   0  917.01   30.90
  -2   3   0  924.71   30.70
  -2   3   0  935.01   31.10
  -2   3   0  869.51   31.60
  -2   3   0  897.01   31.10
  -2   3   0  950.80   30.60
   2  -3  -1 1943.11   64.89
   2  -3  -1 1938.41   64.99
  -2   3   1 1935.91   64.69
  -2   3   1 1904.51   65.19
  -2   3   1 1959.30   65.49
  -2   3   1 2091.49   64.99
  -2   3   1 1860.21   64.99
   2  -3  -2  140.99    6.30
   2  -3  -2  142.29    6.50
   2  -3  -2  148.19    5.90
  -2   3   2  140.49    6.30
  -2   3   2  145.59    6.70
  -2   3   2  133.29    5.50
  -2   3   2  135.39    6.40
  -2   3   2  144.99    6.30
  -2   3   2  147.99    6.20
  -2   3   2  144.79    5.50
   2  -3  -3  128.99    6.80
   2  -3  -3  120.99    6.30
   2  -3  -3  128.59    6.70
   2  -3  -3  126.29    6.60
  -2   3   3  134.59    6.70
  -2   3   3  137.29    6.90
  -2   3   3  129.79    6.50
  -2   3   3  122.59    5.70
  -2   3   3  138.89    6.60
  -2   3   3  128.79    6.70
   2  -3  -4   10.00    2.70
   2  -3  -4   10.30    2.60
  -2   3   4   11.70    2.70
  -2   3   4   11.20    2.60
  -2   3   4   12.70    2.90
  -2   3   4   11.00    2.60
  -2   3   4   11.90    3.00
   2  -3  -5   -1.10    2.70
   2  -3  -5    7.30    2.90
   2  -3  -5    5.10    2.70
  -2   3   5   10.10    3.40
  -2   3   5    2.50    2.60
  -2   3   5    5.20    2.70
  -2   3   5    1.70    2.50
   1  -3   5   12.30    3.60
   1  -3   5   18.90    4.30
  -1   3  -5    8.60    3.70
  -1   3  -5   16.00    3.80
   1  -3   4   15.00    3.40
   1  -3   4   15.10    2.90
   1  -3   4   14.90    3.30
  -1   3  -4   14.60    3.30
  -1   3  -4   10.40    3.30
  -1   3  -4   10.10    2.90
   1  -3   3   25.20    2.50
   1  -3   3   26.90    3.30
   1  -3   3   29.90    3.40
   1  -3   3   26.80    3.20
   1  -3   3   28.40    2.50
  -1   3  -3   25.60    3.90
  -1   3  -3   30.40    4.10
   1  -3   2  124.89    5.00
   1  -3   2  119.09    5.80
   1  -3   2  118.69    5.70
   1  -3   2  124.09    4.90
   1  -3   2  117.79    4.60
   1  -3   2  111.59    5.60
  -1   3  -2  121.29    6.60
  -1   3  -2  126.09    5.10
  -1   3  -2  118.19    6.50
   1  -3   1 1647.24   55.79
   1  -3   1 1701.73   56.59
   1  -3   1 1689.83   56.39
   1  -3   1 1672.63   56.49
  -1   3  -1 1711.73   57.29
  -1   3  -1 1699.43   57.49
   1  -3   0    2.60    0.50
   1  -3   0    1.80    0.50
   1  -3   0    2.70    0.40
   1  -3   0    1.20    0.30
  -1   3   0    2.20    0.40
  -1   3   0    1.50    0.50
  -1   3   0    1.50    0.40
  -1   3   0    2.20    0.80
  -1   3   0    2.20    0.50
   1  -3  -1 1711.93   57.19
   1  -3  -1 1704.23   57.39
  -1   3   1 1761.02   57.29
  -1   3   1 1760.02   56.79
  -1   3   1 1739.63   57.69
  -1   3   1 1682.73   57.09
  -1   3   1 1674.73   57.49
  -1   3   1 1706.83   57.39
   1  -3  -2  116.89    5.50
   1  -3  -2  119.29    5.50
   1  -3  -2  122.99    5.40
  -1   3   2  111.09    5.30
  -1   3   2  117.29    5.50
  -1   3   2  122.79    5.30
  -1   3   2  122.99    5.40
  -1   3   2  113.99    4.80
  -1   3   2  112.19    5.60
  -1   3   2  114.09    4.80
   1  -3  -3   25.20    3.30
   1  -3  -3   25.40    3.20
   1  -3  -3   21.50    2.90
   1  -3  -3   27.80    3.20
  -1   3   3   24.00    2.40
  -1   3   3   33.80    3.30
  -1   3   3   29.70    3.40
  -1   3   3   22.70    2.30
  -1   3   3   26.30    3.20
  -1   3   3   24.20    2.70
  -1   3   3   26.30    3.00
   1  -3  -4   13.40    2.90
   1  -3  -4   14.80    3.40
   1  -3  -4   15.70    3.20
  -1   3   4   21.90    3.10
  -1   3   4   16.00    3.10
  -1   3   4   14.90    2.90
  -1   3   4   18.90    3.40
  -1   3   4   11.60    2.70
   1  -3  -5   19.90    4.00
   1  -3  -5   19.50    4.30
   1  -3  -5   17.80    3.80
  -1   3   5   19.70    3.60
  -1   3   5   18.60    3.70
  -1   3   5   18.20    4.00
  -1   3   5   16.80    3.90
   0  -3   5   -2.00    2.40
   0  -3   5    0.30    2.70
   0   3  -5    4.40    2.60
   0   3  -5    5.90    2.90
   0   3  -5    3.10    2.90
   0  -3   4    6.70    2.40
   0  -3   4    4.70    1.90
   0  -3   4    5.30    1.60
   0  -3   4    4.20    2.10
   0   3  -4    3.50    2.20
   0   3  -4    3.60    2.20
   0  -3   3  185.38    8.80
   0  -3   3  192.08    8.10
   0  -3   3  188.88    7.80
   0  -3   3  185.88    8.80
   0  -3   3  183.18    8.50
   0   3  -3  190.88    9.40
   0   3  -3  178.88    9.00
   0   3  -3  183.08    9.50
   0  -3   2  175.18    6.90
   0  -3   2  189.48    6.60
   0  -3   2  170.88    7.60
   0  -3   2  170.88    7.50
   0  -3   2  173.48    7.60
   0  -3   2  187.18    7.10
   0   3  -2  179.48    8.30
   0   3  -2  170.48    8.20
   0  -3   1   15.00    1.50
   0  -3   1   14.10    1.00
   0  -3   1   14.80    1.30
   0  -3   1   16.00    1.00
   0   3  -1   13.90    1.70
   0   3  -1   18.60    2.00
   0  -3   0    1.70    0.50
   0  -3   0    0.20    0.40
   0  -3   0    0.10    0.20
   0   3   0    1.30    0.40
   0   3   0    0.00    0.40
   0   3   0    0.90    0.40
   0  -3  -1   15.00    1.20
   0  -3  -1   14.60    1.70
   0  -3  -1   15.60    1.20
   0  -3  -1   14.50    1.50
   0   3   1   13.10    1.30
   0   3   1   17.00    1.50
   0   3   1   16.80    1.60
   0   3   1   16.00    1.20
   0   3   1   13.40    1.00
   0   3   1   14.50    1.00
   0   3   1   15.80    1.20
   0  -3  -2  189.88    7.90
   0  -3  -2  188.78    7.70
   0  -3  -2  168.78    7.30
   0  -3  -2  169.38    7.30
   0   3   2  164.98    6.90
   0   3   2  172.48    7.10
   0   3   2  167.78    7.10
   0   3   2  165.58    7.20
   0   3   2  174.38    7.10
   0   3   2  171.78    6.90
   0   3   2  189.98    7.70
   0  -3  -3  182.08    9.40
   0  -3  -3  197.58    8.90
   0  -3  -3  188.18    8.70
   0  -3  -3  201.28    9.20
   0  -3  -3  173.48    8.80
   0   3   3  184.78    8.10
   0   3   3  171.28    7.80
   0   3   3  196.88    8.70
   0   3   3  180.88    8.30
   0   3   3  200.28    8.60
   0   3   3  188.58    8.10
   0   3   3  202.88    8.60
   0  -3  -4    0.70    1.60
   0  -3  -4    7.90    2.80
   0  -3  -4    2.30    1.90
   0  -3  -4    3.90    2.10
   0   3   4    6.80    2.00
   0   3   4    4.40    2.00
   0   3   4    2.40    1.90
   0   3   4    3.90    2.10
   0   3   4    2.90    2.00
   0  -3  -5   -0.10    2.80
   0  -3  -5    3.80    2.80
   0  -3  -5    3.20    2.40
   0  -3  -5   -1.10    2.10
   0   3   5    5.70    2.60
   0   3   5    4.20    2.60
   0   3   5    6.00    3.00
   0   3   5    0.10    1.80
  -1  -3   5   16.70    4.00
  -1  -3   5   11.60    3.60
   1   3  -5   18.70    4.00
   1   3  -5    9.70    3.30
   1   3  -5   16.40    3.90
  -1  -3   4   19.60    2.90
  -1  -3   4   19.00    3.50
  -1  -3   4   13.00    3.10
  -1  -3   4   20.60    3.10
   1   3  -4   15.50    3.30
   1   3  -4   11.90    3.10
  -1  -3   3   26.50    2.50
  -1  -3   3   24.90    3.20
  -1  -3   3   22.30    2.70
  -1  -3   3   31.50    2.90
  -1  -3   3   34.10    3.70
   1   3  -3   26.20    3.40
   1   3  -3   27.70    3.80
   1   3  -3   29.40    3.50
  -1  -3   2  117.79    4.80
  -1  -3   2  119.69    5.30
  -1  -3   2  110.69    5.50
  -1  -3   2  125.09    5.80
  -1  -3   2  118.29    5.10
   1   3  -2  121.49    5.80
   1   3  -2  110.29    5.80
   1   3  -2  112.69    6.00
  -1  -3   1 1670.33   56.49
  -1  -3   1 1669.83   56.59
  -1  -3   1 1759.72   56.39
  -1  -3   1 1666.43   56.79
  -1  -3   1 1730.43   56.79
   1   3  -1 1637.24   56.89
   1   3  -1 1732.23   57.09
   1   3  -1 1708.53   57.39
  -1  -3   0    2.70    0.70
  -1  -3   0    1.90    0.80
  -1  -3   0    2.80    0.40
  -1  -3   0    1.80    0.70
   1   3   0    2.90    0.70
   1   3   0    3.30    0.60
   1   3   0    3.30    0.60
  -1  -3  -1 1734.13   57.49
  -1  -3  -1 1696.83   56.79
  -1  -3  -1 1760.22   58.29
  -1  -3  -1 1692.53   56.69
  -1  -3  -1 1796.02   57.29
   1   3   1 1688.13   56.89
   1   3   1 1636.84   56.59
   1   3   1 1736.13   56.89
   1   3   1 1701.13   56.99
   1   3   1 1693.33   56.69
   1   3   1 1660.13   57.29
   1   3   1 1703.53   57.09
  -1  -3  -2  106.79    5.20
  -1  -3  -2  119.29    5.70
  -1  -3  -2  114.39    5.40
  -1  -3  -2  110.39    5.50
   1   3   2  129.39    5.70
   1   3   2  118.59    5.10
   1   3   2  115.69    5.20
   1   3   2  116.39    5.20
   1   3   2  118.59    5.30
   1   3   2  120.99    5.30
   1   3   2  118.89    5.20
  -1  -3  -3   29.70    3.50
  -1  -3  -3   24.00    3.60
  -1  -3  -3   27.20    3.60
  -1  -3  -3   29.40    3.30
  -1  -3  -3   25.40    3.10
  -1  -3  -3   28.40    4.30
  -1  -3  -3   29.90    3.30
   1   3   3   29.30    3.30
   1   3   3   25.90    2.70
   1   3   3   29.40    3.20
   1   3   3   23.20    2.80
   1   3   3   26.30    2.80
   1   3   3   25.00    2.60
   1   3   3   22.30    2.70
  -1  -3  -4   10.70    3.30
  -1  -3  -4   12.00    3.00
  -1  -3  -4   12.20    3.10
  -1  -3  -4   15.50    3.00
  -1  -3  -4   16.20    3.00
  -1  -3  -4   18.40    3.30
  -1  -3  -4   10.10    2.70
   1   3   4   12.90    2.60
   1   3   4   13.10    2.50
   1   3   4   13.50    2.50
   1   3   4   12.80    2.80
   1   3   4   14.80    2.80
   1   3   4   17.30    3.10
   1   3   4   17.40    3.00
  -1  -3  -5   16.10    3.90
  -1  -3  -5   13.40    3.60
  -1  -3  -5   13.30    4.50
  -1  -3  -5   20.00    3.80
   1   3   5   20.20    4.00
   1   3   5   18.70    5.30
   1   3   5   12.10    3.40
  -2  -3   5    0.20    2.90
  -2  -3   5    5.30    3.00
   2   3  -5    6.30    2.70
   2   3  -5    9.30    3.60
  -2  -3   4   16.50    2.70
  -2  -3   4   14.20    3.30
  -2  -3   4   12.80    3.00
  -2  -3   4    9.20    2.40
   2   3  -4   12.40    2.90
   2   3  -4    9.40    2.80
  -2  -3   3  125.69    6.20
  -2  -3   3  124.49    6.90
  -2  -3   3  122.49    6.70
  -2  -3   3  140.09    6.00
  -2  -3   3  130.49    6.60
   2   3  -3  129.29    6.50
   2   3  -3  135.39    7.20
   2   3  -3  129.59    7.30
  -2  -3   2  143.79    5.90
  -2  -3   2  142.29    6.60
  -2  -3   2  146.39    6.20
  -2  -3   2  147.29    6.70
  -2  -3   2  153.48    6.40
   2   3  -2  135.29    6.70
   2   3  -2  140.89    7.00
   2   3  -2  140.79    6.30
  -2  -3   1 1909.71   62.99
  -2  -3   1 1905.81   63.19
  -2  -3   1 1878.21   63.09
  -2  -3   1 1891.21   63.19
  -2  -3   1 1889.91   63.29
   2   3  -1 1884.61   63.69
   2   3  -1 1871.81   63.29
   2   3  -1 1878.71   62.99
  -2  -3   0  868.91   31.70
  -2  -3   0  886.71   31.00
  -2  -3   0  941.31   30.90
   2   3   0  892.41   30.70
   2   3   0  923.61   30.10
   2   3   0  884.81   30.60
   2   3   0  937.61   30.60
  -2  -3  -1 1814.42   63.69
  -2  -3  -1 1993.00   64.59
  -2  -3  -1 1905.91   64.69
  -2  -3  -1 1951.30   65.69
   2   3   1 1937.91   64.29
   2   3   1 1926.21   64.19
   2   3   1 1934.81   64.09
   2   3   1 1922.31   64.49
   2   3   1 1972.00   63.99
   2   3   1 1927.81   63.79
   2   3   1 1871.91   63.59
  -2  -3  -2  138.09    6.00
  -2  -3  -2  139.49    6.30
  -2  -3  -2  153.98    6.60
  -2  -3  -2  143.99    7.60
   2   3   2  143.99    5.80
   2   3   2  138.89    6.30
   2   3   2  137.89    6.20
   2   3   2  138.79    6.20
   2   3   2  137.29    6.00
   2   3   2  136.39    5.90
   2   3   2  135.69    6.00
  -2  -3  -3  118.99    7.60
  -2  -3  -3  122.39    7.30
  -2  -3  -3  116.29    7.70
  -2  -3  -3  135.79    6.90
  -2  -3  -3  135.39    6.50
  -2  -3  -3  119.79    6.30
  -2  -3  -3  121.29    6.40
   2   3   3  132.79    6.40
   2   3   3  128.59    5.80
   2   3   3  126.19    6.10
   2   3   3  113.19    6.10
   2   3   3  134.59    6.50
   2   3   3  127.49    6.10
   2   3   3  121.69    6.30
  -2  -3  -4   13.80    3.00
  -2  -3  -4    8.10    2.90
  -2  -3  -4   14.40    3.20
  -2  -3  -4   14.10    3.50
  -2  -3  -4   15.80    3.10
  -2  -3  -4   13.90    3.60
  -2  -3  -4    9.30    2.60
   2   3   4   10.00    2.40
   2   3   4   11.10    2.20
   2   3   4   14.40    2.70
   2   3   4   13.50    2.80
   2   3   4   15.80    2.70
   2   3   4   12.10    2.80
   2   3   4   14.50    3.00
  -2  -3  -5    3.10    2.60
  -2  -3  -5    3.10    2.30
   2   3   5    4.40    2.60
   2   3   5    1.10    2.50
  -3  -3   5    6.00    2.70
  -3  -3   5   13.10    4.10
  -3  -3   5   12.90    3.10
  -3  -3   5   13.50    3.80
   3   3  -5    9.50    3.40
   3   3  -5    7.90    3.00
  -3  -3   4   13.60    2.70
  -3  -3   4    8.10    2.60
  -3  -3   4    6.90    2.60
  -3  -3   4   11.40    2.90
   3   3  -4    7.40    2.50
   3   3  -4    7.60    2.80
   3   3  -4    9.50    2.90
  -3  -3   3    5.90    1.60
  -3  -3   3    5.70    1.70
  -3  -3   3    3.60    1.60
  -3  -3   3    7.30    2.10
  -3  -3   3    6.90    2.00
   3   3  -3    3.30    1.70
   3   3  -3    5.70    1.90
  -3  -3   2  649.34   22.90
  -3  -3   2  672.43   23.10
  -3  -3   2  636.34   23.30
  -3  -3   2  655.43   23.40
  -3  -3   2  630.34   23.20
   3   3  -2  634.94   23.80
   3   3  -2  654.63   22.50
   3   3  -2  652.23   23.60
  -3  -3   1  191.78    7.40
  -3  -3   1  195.38    8.00
  -3  -3   1  182.38    7.50
  -3  -3   1  191.38    7.40
  -3  -3   1  185.48    7.40
   3   3  -1  180.78    7.40
   3   3  -1  190.78    7.80
   3   3  -1  199.08    7.00
  -3  -3   0 1336.47   44.40
  -3  -3   0 1265.87   44.50
  -3  -3   0 1212.38   45.80
   3   3   0 1391.56   43.70
   3   3   0 1359.06   44.20
   3   3   0 1319.27   44.40
  -3  -3  -1  191.18    9.00
  -3  -3  -1  183.68    6.60
  -3  -3  -1  183.48    7.90
  -3  -3  -1  191.68    7.70
   3   3   1  188.28    7.50
   3   3   1  184.18    6.60
   3   3   1  191.98    7.60
   3   3   1  192.58    6.90
   3   3   1  190.48    7.60
  -3  -3  -2  666.13   22.90
  -3  -3  -2  579.64   21.90
  -3  -3  -2  627.54   24.40
  -3  -3  -2  649.34   22.50
   3   3   2  624.94   22.10
   3   3   2  636.54   21.80
   3   3   2  622.64   22.50
   3   3   2  620.14   22.50
   3   3   2  603.34   21.80
   3   3   2  630.64   22.60
   3   3   2  636.14   22.00
  -3  -3  -3    5.00    2.30
  -3  -3  -3   10.80    3.10
  -3  -3  -3    3.30    1.50
  -3  -3  -3    4.70    2.20
  -3  -3  -3    4.30    1.80
  -3  -3  -3    3.50    1.50
  -3  -3  -3    8.30    1.90
   3   3   3    6.90    1.80
   3   3   3    8.10    2.00
   3   3   3    6.20    1.50
   3   3   3    9.10    1.80
   3   3   3    5.50    1.40
   3   3   3   11.00    2.10
   3   3   3    4.10    1.50
  -3  -3  -4    3.90    2.50
  -3  -3  -4   10.00    2.70
  -3  -3  -4   14.70    3.20
  -3  -3  -4   10.30    3.30
  -3  -3  -4    6.80    2.30
  -3  -3  -4   13.00    2.70
  -3  -3  -4    6.90    3.40
   3   3   4   12.00    2.70
   3   3   4   12.20    2.80
   3   3   4   12.10    2.20
   3   3   4   15.60    2.90
   3   3   4   10.50    2.80
   3   3   4   15.50    2.60
   3   3   4    8.60    2.50
  -3  -3  -5   11.80    4.00
  -3  -3  -5   13.80    3.30
  -3  -3  -5    7.90    3.20
   3   3   5   13.00    3.60
   3   3   5    8.10    3.30
  -4  -3   5    2.60    2.30
  -4  -3   5    1.10    2.80
  -4  -3   5   -3.80    1.90
  -4  -3   5    0.70    2.30
   4   3  -5    1.00    2.40
   4   3  -5   -0.60    2.20
  -4  -3   4   27.70    3.70
  -4  -3   4   25.00    4.00
  -4  -3   4   32.30    4.40
  -4  -3   4   32.30    4.40
   4   3  -4   26.80    4.20
   4   3  -4   31.20    4.50
   4   3  -4   22.70    3.90
  -4  -3   3   75.29    4.80
  -4  -3   3   76.69    4.70
  -4  -3   3   84.99    5.40
  -4  -3   3   76.09    5.10
  -4  -3   3   75.69    5.10
   4   3  -3   84.09    5.60
   4   3  -3   92.29    5.70
   4   3  -3   73.49    5.20
  -4  -3   2  765.72   27.30
  -4  -3   2  772.52   27.20
  -4  -3   2  763.02   27.20
  -4  -3   2  751.72   27.20
  -4  -3   2  743.43   27.00
   4   3  -2  757.32   27.60
   4   3  -2  760.12   27.50
   4   3  -2  797.02   25.90
  -4  -3   1  946.21   32.90
  -4  -3   1  970.60   34.00
  -4  -3   1  982.50   33.10
  -4  -3   1  940.81   33.20
   4   3  -1  965.80   33.40
   4   3  -1  970.40   33.00
   4   3  -1  912.51   33.00
   4   3  -1 1021.80   32.50
  -4  -3   0  246.28    8.60
  -4  -3   0  242.18   11.20
  -4  -3   0  252.67    9.50
  -4  -3   0  255.27    9.70
   4   3   0  250.07    8.70
   4   3   0  252.27    9.40
   4   3   0  262.17    9.60
   4   3   0  254.17    9.00
  -4  -3  -1  960.30   34.10
  -4  -3  -1  996.80   36.00
  -4  -3  -1  977.90   33.80
   4   3   1 1033.50   32.90
   4   3   1  963.40   33.60
   4   3   1  953.00   33.80
   4   3   1  939.91   33.60
  -4  -3  -2  772.22   26.90
  -4  -3  -2  779.12   29.00
  -4  -3  -2  719.83   28.70
  -4  -3  -2  676.83   25.60
  -4  -3  -2  781.52   26.70
   4   3   2  763.52   26.70
   4   3   2  739.03   26.10
   4   3   2  752.02   25.80
   4   3   2  700.43   25.60
   4   3   2  763.52   26.70
   4   3   2  747.73   26.70
   4   3   2  757.12   26.00
  -4  -3  -3   68.19    7.00
  -4  -3  -3   81.19    6.10
  -4  -3  -3   72.39    4.70
  -4  -3  -3   72.19    4.90
  -4  -3  -3   73.49    6.30
  -4  -3  -3   77.89    4.50
   4   3   3   79.89    4.80
   4   3   3   76.59    4.30
   4   3   3   69.79    4.00
   4   3   3   77.59    5.00
   4   3   3   75.79    4.70
   4   3   3   76.29    4.20
   4   3   3   69.59    4.70
  -4  -3  -4   32.20    4.10
  -4  -3  -4   31.40    5.30
  -4  -3  -4   27.60    5.60
  -4  -3  -4   24.10    3.40
  -4  -3  -4   25.30    4.70
   4   3   4   30.20    3.60
   4   3   4   29.70    3.90
   4   3   4   26.60    3.70
   4   3   4   32.40    3.90
   4   3   4   28.80    4.20
  -4  -3  -5   -0.60    2.30
  -4  -3  -5    2.20    2.40
   4   3   5   -2.60    3.60
   4   3   5   -0.60    2.60
  -5  -3   5    4.00    2.70
  -5  -3   5    3.50    2.90
  -5  -3   5    1.70    2.80
  -5  -3   5    2.30    3.00
   5   3  -5    1.90    2.50
   5   3  -5    0.30    2.20
  -5  -3   4   12.70    3.20
  -5  -3   4    9.70    2.80
  -5  -3   4   12.90    3.20
  -5  -3   4   16.20    3.20
   5   3  -4   12.30    3.00
   5   3  -4    9.60    3.00
  -5  -3   3  171.78    8.80
  -5  -3   3  193.48    8.90
  -5  -3   3  163.58    8.30
  -5  -3   3  166.48    8.70
  -5  -3   3  192.38    8.70
   5   3  -3  182.08    9.00
   5   3  -3  182.18    9.10
   5   3  -3  172.98    8.90
  -5  -3   2  112.79    5.70
  -5  -3   2  113.39    5.90
  -5  -3   2  112.59    5.70
  -5  -3   2  117.69    5.70
  -5  -3   2  107.39    5.80
   5   3  -2  123.29    4.80
   5   3  -2  113.19    5.90
   5   3  -2   98.79    5.60
   5   3  -2  102.19    5.70
  -5  -3   1  997.50   34.80
  -5  -3   1 1039.10   35.50
  -5  -3   1 1029.50   36.40
  -5  -3   1 1023.40   35.20
   5   3  -1 1016.50   35.40
   5   3  -1  952.70   34.90
   5   3  -1 1030.40   35.00
   5   3  -1 1083.29   34.50
  -5  -3   0   45.30    2.70
  -5  -3   0   42.20    4.80
  -5  -3   0   46.10    2.60
   5   3   0   41.20    2.60
   5   3   0   39.90    2.60
   5   3   0   42.70    1.80
   5   3   0   41.90    2.20
  -5  -3  -1 1017.30   36.00
  -5  -3  -1 1066.29   36.40
  -5  -3  -1  975.50   38.50
   5   3   1 1098.19   35.20
   5   3   1 1033.30   36.10
   5   3   1 1032.60   36.10
  -5  -3  -2  111.69    7.60
  -5  -3  -2  110.19    7.50
  -5  -3  -2  115.59    5.70
  -5  -3  -2  105.59    5.90
   5   3   2  100.59    5.70
   5   3   2  115.39    5.90
   5   3   2  108.19    4.60
   5   3   2  111.89    5.80
   5   3   2  108.79    5.10
  -5  -3  -3  188.08    8.80
  -5  -3  -3  156.08   10.40
  -5  -3  -3  158.58    7.60
  -5  -3  -3  174.38   10.70
  -5  -3  -3  183.58    8.40
   5   3   3  168.88    8.60
   5   3   3  173.18    7.60
   5   3   3  174.18    8.60
   5   3   3  162.98    7.50
   5   3   3  192.98    8.70
   5   3   3  186.88    8.30
   5   3   3  172.68    7.40
  -5  -3  -4   17.10    4.50
  -5  -3  -4    9.40    3.70
  -5  -3  -4   14.30    4.00
  -5  -3  -4    6.30    2.40
   5   3   4   15.20    3.20
   5   3   4   11.50    3.00
   5   3   4   13.80    2.90
   5   3   4    8.60    2.90
  -5  -3  -5    8.60    4.00
  -5  -3  -5    0.80    2.70
   5   3   5    3.90    2.90
   5   3   5    2.20    2.50
  -6  -3   5    6.20    3.40
  -6  -3   5    4.20    2.90
  -6  -3   5    3.80    3.30
  -6  -3   5   -0.10    2.50
   6   3  -5    8.00    3.30
   6   3  -5    6.90    3.00
  -6  -3   4    0.90    2.00
  -6  -3   4    2.30    2.30
  -6  -3   4    2.00    2.20
  -6  -3   4    1.00    2.20
   6   3  -4    4.30    2.40
   6   3  -4    0.00    2.00
  -6  -3   3   81.69    5.50
  -6  -3   3   79.49    5.30
  -6  -3   3   75.99    5.60
  -6  -3   3   92.59    5.60
   6   3  -3   86.89    5.70
   6   3  -3   88.69    5.70
   6   3  -3   82.09    5.80
  -6  -3   2    3.00    1.40
  -6  -3   2    4.00    1.80
  -6  -3   2    3.80    1.50
  -6  -3   2    4.20    1.60
   6   3  -2    2.00    1.20
   6   3  -2    2.50    1.50
   6   3  -2    1.50    1.40
  -6  -3   1  240.88    9.90
  -6  -3   1  245.98    9.70
  -6  -3   1  231.68    9.10
  -6  -3   1  252.37   11.10
   6   3  -1  222.68    9.20
   6   3  -1  253.87    9.10
   6   3  -1  238.08    9.70
   6   3  -1  236.28    9.40
  -6  -3   0    5.80    1.30
  -6  -3   0    6.20    1.40
  -6  -3   0    4.30    2.20
   6   3   0    6.40    1.30
   6   3   0    7.40    1.10
   6   3   0    5.10    1.30
   6   3   0    6.00    0.70
  -6  -3  -1  238.78   12.80
  -6  -3  -1  244.58   10.10
  -6  -3  -1  274.57   10.60
   6   3   1  253.37   10.50
   6   3   1  255.87    9.60
   6   3   1  255.77   10.60
  -6  -3  -2    9.60    2.10
  -6  -3  -2    0.60    1.90
  -6  -3  -2    1.70    2.20
  -6  -3  -2    9.00    2.10
   6   3   2    3.40    1.30
   6   3   2    0.60    1.20
   6   3   2    1.90    1.30
  -6  -3  -3   65.79    7.70
  -6  -3  -3   82.79    8.70
  -6  -3  -3   91.79    5.90
  -6  -3  -3   82.69    5.40
   6   3   3   93.39    5.70
   6   3   3   82.49    5.20
   6   3   3   86.79    5.70
   6   3   3   73.79    5.40
  -6  -3  -4    3.90    3.10
  -6  -3  -4   -1.20    2.40
  -6  -3  -4    5.80    4.00
   6   3   4    4.20    2.30
   6   3   4    0.70    2.30
   6   3   4    5.60    2.40
   6   3   4    1.40    2.00
  -6  -3  -5    2.50    3.90
  -6  -3  -5   -0.60    2.80
   6   3   5    3.40    3.10
   6   3   5    5.70    3.10
  -7  -3   5    2.80    3.20
   7   3  -5    3.20    3.40
   7   3  -5    5.80    3.30
  -7  -3   4   33.60    5.00
  -7  -3   4   39.50    5.00
  -7  -3   4   25.40    4.20
   7   3  -4   30.60    4.90
   7   3  -4   30.20    4.70
  -7  -3   3   19.50    3.30
  -7  -3   3   25.50    3.50
  -7  -3   3   22.80    3.80
  -7  -3   3   18.90    3.30
   7   3  -3   19.80    3.20
   7   3  -3   23.30    3.50
   7   3  -3   22.60    3.70
  -7  -3   2   97.29    5.50
  -7  -3   2   94.79    6.00
  -7  -3   2   95.09    5.10
  -7  -3   2   82.69    5.50
   7   3  -2   93.59    5.30
   7   3  -2   88.99    5.30
   7   3  -2   92.09    5.20
  -7  -3   1  208.98    9.00
  -7  -3   1  201.38   10.00
  -7  -3   1  199.48    8.60
  -7  -3   1  196.78    7.90
   7   3  -1  207.08    8.50
   7   3  -1  200.58    8.30
   7   3  -1  192.28    8.10
   7   3  -1  207.08    8.00
  -7  -3   0  229.28   12.00
  -7  -3   0  245.88    9.90
  -7  -3   0  236.48    9.60
   7   3   0  248.18    8.60
   7   3   0  254.97    9.90
   7   3   0  236.18    9.80
   7   3   0  232.98    9.10
  -7  -3  -1  217.48    8.80
  -7  -3  -1  211.88    8.50
  -7  -3  -1  188.58   10.70
  -7  -3  -1  185.68   11.30
   7   3   1  194.18    8.00
   7   3   1  210.18    9.10
   7   3   1  200.18    9.00
  -7  -3  -2   82.69    5.00
  -7  -3  -2   94.39    7.50
  -7  -3  -2   85.99    8.90
  -7  -3  -2   93.29    5.40
   7   3   2   90.89    5.50
   7   3   2   86.99    5.40
   7   3   2   83.49    4.70
  -7  -3  -3   20.90    4.70
  -7  -3  -3   24.20    5.40
   7   3   3   24.00    3.60
   7   3   3   20.30    3.00
   7   3   3   22.00    3.50
  -7  -3  -4   37.30    5.90
  -7  -3  -4   33.00    6.40
  -7  -3  -4   26.40    6.30
   7   3   4   35.50    4.90
   7   3   4   30.60    4.50
  -7  -3  -5    2.60    3.40
  -7  -3  -5    5.20    3.80
  -8  -3   4   12.60    3.00
  -8  -3   4   13.20    3.40
  -8  -3   4    2.10    2.60
   8   3  -4    5.50    2.70
   8   3  -4    9.70    3.00
  -8  -3   3   10.00    2.90
  -8  -3   3   12.60    3.00
  -8  -3   3   20.60    3.40
  -8  -3   3   13.30    3.00
   8   3  -3   17.30    3.10
   8   3  -3   20.50    3.30
  -8  -3   2   21.00    2.70
  -8  -3   2   16.20    3.00
  -8  -3   2   21.90    3.10
  -8  -3   2   24.50    3.90
   8   3  -2   22.90    2.90
   8   3  -2   19.80    2.80
   8   3  -2   22.50    2.80
  -8  -3   1  251.27   10.40
  -8  -3   1  243.28   10.60
  -8  -3   1  246.08    9.40
  -8  -3   1  246.88   11.20
  -8  -3   1  250.27   12.10
   8   3  -1  228.68    9.50
   8   3  -1  253.97   10.10
   8   3  -1  231.98    9.80
   8   3  -1  251.07    9.60
  -8  -3   0    1.20    1.60
  -8  -3   0    1.50    1.20
  -8  -3   0    3.40    1.20
  -8  -3   0    0.50    1.60
   8   3   0   -0.20    0.80
   8   3   0   -0.20    1.00
   8   3   0    0.90    1.10
  -8  -3  -1  230.38   12.40
  -8  -3  -1  251.97    9.60
  -8  -3  -1  227.28   13.00
  -8  -3  -1  245.48    9.80
   8   3   1  238.78   10.30
   8   3   1  195.98    9.00
   8   3   1  236.98   10.30
  -8  -3  -2   14.50    4.40
  -8  -3  -2   19.90    2.90
  -8  -3  -2   16.50    4.30
  -8  -3  -2   25.50    3.00
   8   3   2   24.00    2.80
   8   3   2   24.30    3.40
   8   3   2   18.80    3.10
  -8  -3  -3   14.50    4.40
  -8  -3  -3   15.40    4.90
   8   3   3   15.80    2.70
   8   3   3   14.60    3.10
   8   3   3   13.10    3.00
  -8  -3  -4    6.50    3.70
  -8  -3  -4   10.00    4.20
   8   3   4    9.30    3.10
   8   3   4    6.60    2.90
  -9  -3   4    1.80    3.00
  -9  -3   4    2.20    2.40
  -9  -3   4   -1.70    2.40
   9   3  -4    1.20    2.50
   9   3  -4    7.40    3.10
  -9  -3   3    0.90    2.10
  -9  -3   3    3.20    2.20
  -9  -3   3    0.20    1.70
  -9  -3   3   -0.20    1.90
   9   3  -3    3.10    2.30
   9   3  -3    1.30    1.90
  -9  -3   2    0.80    1.60
  -9  -3   2    1.80    1.60
  -9  -3   2    2.50    1.60
  -9  -3   2    2.40    2.20
   9   3  -2    2.90    1.70
   9   3  -2    0.90    1.40
   9   3  -2    1.80    1.50
  -9  -3   1  428.66   16.60
  -9  -3   1  429.76   17.00
  -9  -3   1  453.65   15.50
  -9  -3   1  446.16   18.80
   9   3  -1  419.06   16.30
   9   3  -1  401.66   15.50
   9   3  -1  400.76   15.90
  -9  -3   0   15.10    2.20
  -9  -3   0   16.10    3.90
  -9  -3   0   13.00    3.30
  -9  -3   0   16.50    2.50
   9   3   0   20.60    2.20
   9   3   0   19.00    2.70
   9   3   0   15.60    2.40
  -9  -3  -1  417.86   15.70
  -9  -3  -1  402.06   19.80
  -9  -3  -1  441.26   19.60
  -9  -3  -1  419.16   15.90
   9   3   1  404.16   16.70
   9   3   1  410.76   16.60
  -9  -3  -2    1.00    2.80
  -9  -3  -2    2.20    2.80
   9   3   2    1.50    1.80
   9   3   2    2.90    1.40
   9   3   2   -0.30    1.60
  -9  -3  -3    3.10    3.70
  -9  -3  -3    1.30    2.90
   9   3   3    0.30    2.10
   9   3   3    2.00    2.20
   9   3   3    6.70    3.00
  -9  -3  -4    4.40    4.10
  -9  -3  -4    3.90    3.30
   9   3   4    0.50    2.50
   9   3   4   -0.90    2.30
 -10  -3   4   14.20    4.20
 -10  -3   4   23.40    4.70
 -10  -3   4   25.00    4.30
  10   3  -4   29.70    4.70
  10   3  -4   21.20    4.20
 -10  -3   3   32.10    5.00
 -10  -3   3   36.70    4.80
 -10  -3   3   25.50    4.60
 -10  -3   3   33.20    4.30
  10   3  -3   24.50    3.80
  10   3  -3   25.80    4.00
 -10  -3   2   20.80    2.80
 -10  -3   2   21.60    3.60
 -10  -3   2   14.70    3.70
 -10  -3   2   24.90    3.60
  10   3  -2   18.10    2.80
  10   3  -2   18.00    2.90
  10   3  -2   21.20    2.90
 -10  -3   1   31.30    3.60
 -10  -3   1   26.20    4.60
 -10  -3   1   26.90    3.80
  10   3  -1   24.70    3.00
  10   3  -1   21.40    2.80
 -10  -3   0   28.80    3.20
 -10  -3   0   38.60    5.90
 -10  -3   0   40.00    5.50
 -10  -3   0   37.80    4.00
  10   3   0   38.60    4.10
  10   3   0   40.80    2.90
  10   3   0   33.70    3.70
 -10  -3  -1   23.90    3.00
 -10  -3  -1   25.60    2.80
 -10  -3  -1   26.10    4.90
 -10  -3  -1   22.20    4.90
  10   3   1   23.10    3.40
  10   3   1   19.60    3.20
  10   3   1   18.00    2.40
 -10  -3  -2   19.50    5.30
 -10  -3  -2   18.20    4.80
  10   3   2   14.00    2.50
  10   3   2   16.50    3.40
  10   3   2   19.30    3.40
 -10  -3  -3   30.00    7.00
 -10  -3  -3   39.70    6.80
  10   3   3   27.80    4.30
  10   3   3   22.90    4.10
 -10  -3  -4   17.00    4.80
 -10  -3  -4   17.70    5.70
  10   3   4   17.40    4.10
 -11  -3   3    4.70    2.70
 -11  -3   3    0.50    2.90
 -11  -3   3    3.20    2.80
 -11  -3   3    4.80    2.30
  11   3  -3    0.60    1.90
  11   3  -3    8.50    2.90
 -11  -3   2   31.20    5.10
 -11  -3   2   40.10    5.10
 -11  -3   2   36.30    4.60
  11   3  -2   41.20    4.30
 -11  -3   1   20.60    4.30
 -11  -3   1   19.70    3.40
 -11  -3   1   26.30    3.60
  11   3  -1   20.40    3.00
  11   3  -1   16.60    2.60
 -11  -3   0  368.96   18.00
 -11  -3   0  351.06   14.70
 -11  -3   0  377.66   15.30
 -11  -3   0  349.17   18.00
  11   3   0  389.26   14.20
  11   3   0  363.76   15.40
  11   3   0  373.36   15.20
 -11  -3  -1   18.80    2.60
 -11  -3  -1   21.50    5.50
 -11  -3  -1   22.50    3.10
 -11  -3  -1   28.10    5.60
  11   3   1   21.00    2.90
  11   3   1   29.00    3.90
  11   3   1   24.40    3.80
 -11  -3  -2   38.50    6.80
 -11  -3  -2   28.50    6.20
  11   3   2   33.90    4.50
  11   3   2   40.40    5.10
 -11  -3  -3   -1.40    3.50
 -11  -3  -3    5.20    3.70
  11   3   3    5.00    3.00
  11   3   3    3.40    2.90
 -12  -3   3    7.80    3.60
 -12  -3   3   11.60    4.10
 -12  -3   3    9.50    3.30
  12   3  -3    9.70    2.90
 -12  -3   2   12.10    3.50
 -12  -3   2    8.30    3.50
 -12  -3   2    9.00    2.90
  12   3  -2   17.50    3.10
 -12  -3   1   16.50    3.70
 -12  -3   1   17.40    4.50
 -12  -3   1   14.00    3.10
  12   3  -1   14.10    2.80
  12   3  -1   17.50    2.80
 -12  -3   0   12.00    4.60
 -12  -3   0    4.90    2.40
 -12  -3   0    8.80    3.60
 -12  -3   0    4.20    2.10
  12   3   0    8.70    2.70
  12   3   0   14.80    2.40
  12   3   0   10.70    2.60
 -12  -3  -1   13.20    4.40
 -12  -3  -1   13.60    4.60
  12   3   1   14.60    2.60
  12   3   1   21.90    3.90
  12   3   1   14.40    3.20
 -12  -3  -2   12.60    4.80
 -12  -3  -2    7.60    4.30
  12   3   2   13.20    3.60
  12   3   2   12.30    3.40
 -12  -3  -3   12.80    6.10
 -12  -3  -3   13.40    5.40
  12   3   3    7.80    3.10
  12   3   3    7.00    3.30
 -13  -3   3    0.20    3.40
 -13  -3   3   -2.00    2.50
  13   3  -3   -1.50    2.40
 -13  -3   2   11.70    3.90
 -13  -3   2   10.80    4.10
 -13  -3   2   26.30    4.50
  13   3  -2   26.00    3.50
 -13  -3   1    9.90    3.20
 -13  -3   1   11.90    3.10
 -13  -3   1    7.50    3.90
  13   3  -1   10.90    2.40
  13   3  -1    8.70    4.50
 -13  -3   0   51.69    5.40
 -13  -3   0   48.80    5.10
 -13  -3   0   66.29    8.30
  13   3   0   68.09    4.40
  13   3   0   42.00    5.00
 -13  -3  -1   14.60    4.90
 -13  -3  -1   12.90    4.70
  13   3   1    7.60    3.10
  13   3   1    9.50    3.00
  13   3   1    7.70    2.40
 -13  -3  -2   18.70    5.80
 -13  -3  -2   13.80    5.40
  13   3   2   21.90    4.20
  13   3   2    9.60    3.30
 -13  -3  -3   -3.80    3.70
 -13  -3  -3   -3.80    4.80
  13   3   3    4.80    3.20
  13   3   3   -2.20    2.50
 -14  -3   2    7.40    3.40
 -14  -3   2    8.20    4.00
 -14  -3   2    8.30    4.00
  14   3  -2    9.80    2.80
 -14  -3   1   41.40    5.30
 -14  -3   1   31.70    5.00
 -14  -3   1   34.10    6.10
  14   3  -1   46.60    4.00
 -14  -3   0    2.50    3.50
  14   3   0    3.90    2.80
  14   3   0    8.30    2.20
 -14  -3  -1   43.00    7.50
 -14  -3  -1   33.80    7.60
  14   3   1   35.30    5.30
  14   3   1   35.60    5.00
 -14  -3  -2    9.70    4.90
 -14  -3  -2    9.30    5.70
  14   3   2   17.30    4.00
  14   3   2   16.90    4.30
 -15  -3   1   20.20    5.30
 -15  -3   1   18.60    4.00
 -15  -3   1   14.50    4.20
  15   3  -1   16.40    3.20
 -15  -3   0   -2.40    2.90
  15   3   0    3.80    3.10
  15   3   0    0.20    1.70
 -15  -3  -1   15.30    5.70
  15   3   1   14.30    4.10
  15   3   1    6.40    3.40
  15  -4   1    2.50    2.10
 -15   4  -1    0.00    3.10
  15  -4   0   -0.60    1.80
 -15   4   0    2.40    3.30
  15  -4  -1    1.40    2.10
 -15   4   1    4.10    3.30
  14  -4   2    4.90    2.60
  14  -4   2    9.10    3.40
 -14   4  -2    1.30    5.10
 -14   4  -2    5.30    4.20
  14  -4   1   -0.90    1.60
 -14   4  -1   -1.60    2.70
 -14   4  -1   -3.00    4.70
  14  -4   0   16.50    3.00
 -14   4   0    7.80    3.70
  14  -4  -1   -1.10    1.70
 -14   4   1    2.60    2.90
  14  -4  -2    4.40    2.50
 -14   4   2    3.50    3.40
 -14   4   2    5.80    3.00
 -14   4   2    2.60    3.40
  13  -4   3   21.10    4.90
 -13   4  -3    1.30    4.10
 -13   4  -3    1.70    4.90
  13  -4   2    5.40    2.60
  13  -4   2   13.80    3.70
 -13   4  -2   10.30    4.50
 -13   4  -2   10.30    5.60
  13  -4   1    4.90    2.20
  13  -4   1    8.60    3.00
 -13   4  -1    4.40    3.60
 -13   4  -1    0.80    3.80
 -13   4  -1    7.00    3.60
  13  -4   0    0.70    1.60
 -13   4   0   -1.30    2.30
  13  -4  -1    8.30    2.60
 -13   4   1    4.90    2.70
  13  -4  -2   10.10    3.00
  13  -4  -2   15.80    3.30
 -13   4   2   11.80    4.00
 -13   4   2    8.70    3.80
 -13   4   2   13.50    3.40
  13  -4  -3   16.00    3.60
 -13   4   3   13.40    4.00
  12  -4   3    3.20    2.60
  12  -4   3    6.20    3.40
 -12   4  -3    4.90    4.60
 -12   4  -3    0.60    3.60
  12  -4   2   16.20    3.70
  12  -4   2    6.20    2.30
 -12   4  -2   12.20    5.70
 -12   4  -2   22.80    4.80
 -12   4  -2   11.60    4.30
  12  -4   1   68.59    5.10
  12  -4   1   90.19    6.20
 -12   4  -1   69.89    8.80
 -12   4  -1   93.09    7.70
  12  -4   0   14.70    2.60
 -12   4   0   15.00    3.90
  12  -4  -1   78.29    5.10
  12  -4  -1   89.69    5.40
 -12   4   1   88.39    5.80
 -12   4   1   81.69    7.00
 -12   4   1   91.09    6.20
  12  -4  -2   13.90    2.90
  12  -4  -2   13.10    3.00
 -12   4   2   15.10    3.30
 -12   4   2   13.10    3.60
 -12   4   2   17.20    3.90
  12  -4  -3    9.60    3.00
  12  -4  -3    6.40    2.60
 -12   4   3    1.40    3.20
 -12   4   3    3.90    3.20
 -12   4   3    1.00    2.50
  11  -4   3   11.20    3.80
  11  -4   3   14.50    3.30
 -11   4  -3   17.40    5.70
 -11   4  -3   18.40    4.90
  11  -4   2   19.30    3.80
  11  -4   2   15.40    2.90
 -11   4  -2   12.30    4.20
 -11   4  -2    7.40    4.30
 -11   4  -2   16.10    3.80
  11  -4   1    1.20    1.50
  11  -4   1   -0.90    1.80
 -11   4  -1    1.30    3.30
 -11   4  -1    5.20    2.80
 -11   4  -1   -0.20    2.60
  11  -4   0    9.30    2.00
  11  -4   0   10.10    1.80
  11  -4   0    5.20    2.70
 -11   4   0    5.40    3.40
 -11   4   0    6.30    2.70
  11  -4  -1    4.20    1.60
  11  -4  -1    2.80    1.70
 -11   4   1    0.40    1.80
 -11   4   1    3.70    2.60
 -11   4   1    1.40    1.90
  11  -4  -2   13.40    2.60
  11  -4  -2   18.30    2.90
 -11   4   2   19.50    4.20
 -11   4   2   16.40    3.40
 -11   4   2   16.50    3.40
  11  -4  -3   12.40    2.90
  11  -4  -3   15.10    3.20
 -11   4   3    9.70    3.60
 -11   4   3   16.20    3.60
 -11   4   3   28.50    4.80
  10  -4   4   -1.10    2.90
  10  -4   4    1.90    2.50
 -10   4  -4    3.00    3.90
 -10   4  -4   -1.40    3.40
  10  -4   3    4.30    2.30
  10  -4   3    6.90    3.30
 -10   4  -3    1.60    2.90
 -10   4  -3    5.50    3.90
  10  -4   2    7.00    2.50
  10  -4   2    2.40    1.70
  10  -4   2    4.50    2.10
 -10   4  -2    5.50    3.40
 -10   4  -2    6.10    2.90
 -10   4  -2    3.10    2.80
  10  -4   1   43.60    3.20
  10  -4   1   48.10    3.70
  10  -4   1   53.29    4.40
 -10   4  -1   58.39    7.40
 -10   4  -1   61.39    6.00
 -10   4  -1   55.99    6.20
  10  -4   0  208.18    9.50
  10  -4   0  234.28    9.30
  10  -4   0  232.18    9.00
 -10   4   0  212.28   11.10
 -10   4   0  217.78    9.30
 -10   4   0  217.48   11.90
 -10   4   0  192.68    9.20
  10  -4  -1   57.49    3.90
  10  -4  -1   48.60    3.70
 -10   4   1   56.99    4.30
 -10   4   1   55.49    6.00
 -10   4   1   58.99    4.20
  10  -4  -2    2.80    1.70
  10  -4  -2    6.80    1.90
 -10   4   2    3.40    2.10
 -10   4   2    4.60    2.30
 -10   4   2    4.80    2.70
  10  -4  -3    3.70    2.20
  10  -4  -3    7.50    2.40
 -10   4   3    5.90    2.90
 -10   4   3    3.40    2.50
 -10   4   3    5.50    2.80
  10  -4  -4    2.60    2.40
  10  -4  -4    4.30    2.70
 -10   4   4    2.00    2.80
 -10   4   4    4.60    3.00
 -10   4   4    3.20    2.90
   9  -4   4   24.50    4.70
   9  -4   4   14.40    3.70
  -9   4  -4   14.10    4.70
  -9   4  -4   16.40    5.40
   9  -4   3   10.50    2.80
   9  -4   3   12.30    3.40
   9  -4   3    9.50    2.70
  -9   4  -3    9.40    4.20
  -9   4  -3    8.80    3.60
   9  -4   2    6.20    1.80
   9  -4   2    7.50    2.10
   9  -4   2    9.00    2.40
   9  -4   2    7.20    2.40
  -9   4  -2    1.20    2.40
  -9   4  -2    2.10    2.60
  -9   4  -2    5.10    2.30
   9  -4   1   42.30    3.70
   9  -4   1   35.00    2.70
   9  -4   1   41.80    3.30
  -9   4  -1   40.90    5.00
  -9   4  -1   36.90    5.70
  -9   4  -1   47.50    5.00
   9  -4   0   69.59    3.90
   9  -4   0   66.89    4.20
   9  -4   0   65.49    3.60
  -9   4   0   60.79    3.60
  -9   4   0   73.39    6.90
  -9   4   0   65.89    5.20
  -9   4   0   66.79    4.00
   9  -4  -1   40.60    3.30
   9  -4  -1   46.30    3.40
  -9   4   1   42.60    3.80
  -9   4   1   51.39    4.00
  -9   4   1   45.90    5.00
   9  -4  -2    7.50    2.00
   9  -4  -2    3.70    1.70
  -9   4   2    8.40    2.60
  -9   4   2    7.10    2.20
  -9   4   2    7.60    2.40
   9  -4  -3   14.70    2.90
   9  -4  -3   11.70    2.80
  -9   4   3   18.90    3.40
  -9   4   3   22.00    4.10
  -9   4   3    9.50    3.10
   9  -4  -4   13.60    3.30
   9  -4  -4   23.20    4.30
  -9   4   4   14.10    3.80
  -9   4   4   18.80    4.20
  -9   4   4   14.40    3.70
  -9   4   4   24.20    4.10
   8  -4   4    5.90    3.30
   8  -4   4    6.50    2.80
  -8   4  -4    1.50    3.10
  -8   4  -4   -1.00    3.20
   8  -4   3   18.80    2.90
   8  -4   3   18.10    3.40
   8  -4   3   30.00    4.40
   8  -4   3   16.00    3.10
  -8   4  -3   15.30    4.40
  -8   4  -3   21.30    4.60
   8  -4   2  167.48    7.80
   8  -4   2  176.38    8.80
   8  -4   2  170.48    9.00
   8  -4   2  167.08    8.30
  -8   4  -2  196.08   11.70
  -8   4  -2  177.78   10.40
  -8   4  -2  194.38    9.50
   8  -4   1  168.68    8.00
   8  -4   1  213.38    9.30
   8  -4   1  216.78    8.80
  -8   4  -1  234.28   10.30
  -8   4  -1  192.38   11.30
  -8   4  -1  208.28   10.40
   8  -4   0   53.39    3.10
   8  -4   0   47.60    3.20
   8  -4   0   50.19    3.10
  -8   4   0   46.50    2.90
  -8   4   0   47.60    4.00
  -8   4   0   50.69    3.20
  -8   4   0   49.20    5.40
  -8   4   0   49.20    4.20
   8  -4  -1  213.08    9.00
   8  -4  -1  211.28    9.00
  -8   4   1  215.98    9.20
  -8   4   1  220.28    9.50
  -8   4   1  223.38   10.10
  -8   4   1  218.58   10.40
   8  -4  -2  191.88    8.60
   8  -4  -2  194.08    8.70
  -8   4   2  184.28    9.10
  -8   4   2  178.98    8.70
  -8   4   2  177.48    9.70
   8  -4  -3   21.50    3.40
   8  -4  -3   24.00    3.40
  -8   4   3   18.80    3.80
  -8   4   3   29.90    4.40
  -8   4   3   22.70    3.60
  -8   4   3   27.30    3.70
   8  -4  -4    1.10    2.30
   8  -4  -4    1.90    2.30
  -8   4   4    2.00    2.80
  -8   4   4    4.30    2.90
  -8   4   4    3.60    2.50
  -8   4   4    5.70    2.70
   7  -4   4   43.90    5.60
   7  -4   4   30.00    4.20
   7  -4   4   29.90    4.70
  -7   4  -4   34.70    6.10
  -7   4  -4   26.50    5.90
   7  -4   3   26.60    4.00
   7  -4   3   34.00    4.20
   7  -4   3   35.40    3.80
   7  -4   3   34.30    4.10
  -7   4  -3   26.60    4.80
  -7   4  -3   34.80    5.90
   7  -4   2   81.09    5.40
   7  -4   2   69.29    4.30
   7  -4   2   89.69    5.40
   7  -4   2   76.49    4.80
  -7   4  -2   90.79    5.50
  -7   4  -2   81.29    6.40
  -7   4  -2   64.99    7.40
   7  -4   1   36.70    2.50
   7  -4   1   45.70    3.30
   7  -4   1   40.10    2.90
  -7   4  -1   38.20    5.10
  -7   4  -1   33.50    3.70
  -7   4  -1   42.00    4.60
  -7   4  -1   43.00    2.10
   7  -4   0 1705.83   55.59
   7  -4   0 1638.64   55.79
   7  -4   0 1676.43   55.49
  -7   4   0 1609.04   56.69
  -7   4   0 1630.14   57.99
  -7   4   0 1637.94   57.09
  -7   4   0 1627.54   55.39
  -7   4   0 1642.44   55.59
   7  -4  -1   40.70    2.90
   7  -4  -1   45.10    2.40
   7  -4  -1   40.90    2.90
  -7   4   1   41.80    3.20
  -7   4   1   44.60    3.60
  -7   4   1   49.99    4.70
  -7   4   1   45.30    3.10
   7  -4  -2   94.49    5.20
   7  -4  -2   91.89    5.10
  -7   4   2   80.79    5.30
  -7   4   2   84.69    5.20
  -7   4   2   83.59    5.90
   7  -4  -3   38.80    4.30
   7  -4  -3   38.30    4.00
  -7   4   3   32.80    4.50
  -7   4   3   36.40    4.10
  -7   4   3   27.80    4.00
  -7   4   3   28.40    3.80
   7  -4  -4   33.90    4.40
   7  -4  -4   41.20    5.10
  -7   4   4   41.10    5.40
  -7   4   4   29.30    4.40
  -7   4   4   34.40    4.80
  -7   4   4   29.50    4.80
   6  -4   5    1.40    3.00
   6  -4   5    0.60    2.70
   6  -4   5    5.80    3.10
  -6   4  -5    4.70    3.90
  -6   4  -5   -2.50    3.60
   6  -4   4   50.59    5.30
   6  -4   4   45.90    5.40
   6  -4   4   41.40    5.50
  -6   4  -4   47.00    6.80
  -6   4  -4   34.00    6.50
   6  -4   3  141.29    7.80
   6  -4   3  144.99    7.80
   6  -4   3  142.39    8.10
   6  -4   3  137.89    7.20
  -6   4  -3  144.99   10.10
  -6   4  -3  134.59    9.30
   6  -4   2  331.77   13.60
   6  -4   2  339.87   13.80
   6  -4   2  322.57   12.90
   6  -4   2  326.37   13.30
  -6   4  -2  345.17   16.20
  -6   4  -2  321.67   15.10
  -6   4  -2  336.87   13.70
   6  -4   1  333.37   12.20
   6  -4   1  324.07   12.50
   6  -4   1  319.07   12.90
  -6   4  -1  326.07   11.20
  -6   4  -1  328.67   15.00
  -6   4  -1  337.97   13.20
  -6   4  -1  332.37   11.20
  -6   4  -1  326.57   14.00
   6  -4   0 1664.83   55.79
   6  -4   0 1728.83   55.79
   6  -4   0 1680.03   55.99
  -6   4   0 1673.13   55.79
  -6   4   0 1604.54   56.69
  -6   4   0 1635.34   57.89
  -6   4   0 1644.24   55.59
  -6   4   0 1636.64   56.99
   6  -4  -1  332.37   12.60
   6  -4  -1  330.87   12.60
   6  -4  -1  336.67   11.80
  -6   4   1  338.47   13.20
  -6   4   1  330.97   12.10
  -6   4   1  331.07   13.00
  -6   4   1  350.16   13.90
  -6   4   1  338.07   12.80
   6  -4  -2  353.36   13.70
   6  -4  -2  353.26   13.90
  -6   4   2  331.47   13.80
  -6   4   2  326.17   14.60
  -6   4   2  385.76   13.90
  -6   4   2  347.27   14.20
   6  -4  -3  159.58    8.20
   6  -4  -3  158.98    7.90
  -6   4   3  155.18    8.00
  -6   4   3  159.88    7.90
  -6   4   3  150.88    8.30
  -6   4   3  142.99    8.50
   6  -4  -4   46.30    5.00
   6  -4  -4   44.80    5.20
  -6   4   4   57.19    5.70
  -6   4   4   48.90    5.70
  -6   4   4   41.90    5.30
  -6   4   4   41.40    5.00
   6  -4  -5   -1.10    2.40
   6  -4  -5    0.80    2.30
  -6   4   5    0.00    2.60
  -6   4   5    1.20    2.60
  -6   4   5   -1.30    4.60
  -6   4   5   -2.10    2.80
   5  -4   5    3.30    2.70
   5  -4   5    0.20    2.60
   5  -4   5    1.40    2.50
  -5   4  -5   -0.90    3.30
  -5   4  -5    0.00    3.00
  -5   4  -5    3.10    2.40
   5  -4   4   14.90    3.10
   5  -4   4   21.90    3.80
   5  -4   4   21.80    4.00
  -5   4  -4    6.50    3.90
  -5   4  -4   17.80    4.50
   5  -4   3   47.40    4.90
   5  -4   3   49.00    3.90
   5  -4   3   47.80    4.20
  -5   4  -3   44.40    6.10
  -5   4  -3   49.99    6.00
   5  -4   2   36.80    2.80
   5  -4   2   39.00    3.40
   5  -4   2   38.10    3.10
  -5   4  -2   48.40    5.20
  -5   4  -2   40.20    3.30
  -5   4  -2   32.90    4.80
   5  -4   1  996.90   33.90
   5  -4   1  973.10   34.50
   5  -4   1  979.90   34.10
  -5   4  -1 1007.70   36.70
  -5   4  -1  994.80   35.60
  -5   4  -1  999.20   34.50
   5  -4   0    3.70    0.90
   5  -4   0    5.80    1.10
   5  -4   0    4.00    0.90
  -5   4   0    2.90    1.20
  -5   4   0    1.80    1.00
  -5   4   0    3.70    0.90
  -5   4   0    2.20    1.40
  -5   4   0    3.80    0.80
   5  -4  -1 1065.19   34.40
   5  -4  -1  981.80   33.20
   5  -4  -1  978.00   34.20
  -5   4   1  964.60   35.20
  -5   4   1  998.40   34.60
  -5   4   1 1015.40   33.60
  -5   4   1  987.30   34.60
  -5   4   1  990.70   34.40
   5  -4  -2   34.90    2.80
   5  -4  -2   37.60    3.00
  -5   4   2   39.20    3.50
  -5   4   2   45.90    4.00
  -5   4   2   34.00    2.80
  -5   4   2   30.70    3.60
   5  -4  -3   47.80    4.10
   5  -4  -3   45.20    4.00
  -5   4   3   51.59    5.00
  -5   4   3   52.59    4.10
  -5   4   3   49.50    5.00
  -5   4   3   50.79    4.70
   5  -4  -4   22.70    3.70
   5  -4  -4   17.40    3.50
  -5   4   4   15.20    3.40
  -5   4   4   19.40    3.60
  -5   4   4   15.00    3.20
  -5   4   4   21.20    3.60
   5  -4  -5   -1.30    2.10
   5  -4  -5   -0.80    2.30
  -5   4   5    1.50    2.70
  -5   4   5    1.30    3.60
  -5   4   5   -0.10    2.20
  -5   4   5   -1.70    2.50
   4  -4   5    3.30    2.70
   4  -4   5    3.10    2.90
   4  -4   5   -0.50    2.70
  -4   4  -5    0.20    3.10
  -4   4  -5    0.90    2.60
  -4   4  -5    3.60    3.90
   4  -4   4   51.99    5.30
   4  -4   4   55.89    5.80
   4  -4   4   38.30    4.90
  -4   4  -4   30.70    5.50
  -4   4  -4   44.80    6.40
   4  -4   3  237.48   10.50
   4  -4   3  243.18   11.10
   4  -4   3  255.17   11.00
  -4   4  -3  217.88   12.60
  -4   4  -3  233.68   12.40
   4  -4   2  382.66   15.00
   4  -4   2  377.36   14.70
   4  -4   2  393.06   15.40
  -4   4  -2  401.26   16.70
  -4   4  -2  405.76   14.80
  -4   4  -2  388.96   17.20
   4  -4   1  845.92   29.40
   4  -4   1  824.72   28.80
   4  -4   1  833.72   29.00
  -4   4  -1  836.12   31.10
  -4   4  -1  842.72   30.30
  -4   4  -1  853.31   29.00
   4  -4   0 1372.86   45.90
   4  -4   0 1339.77   45.90
   4  -4   0 1419.96   45.80
  -4   4   0 1396.06   45.70
  -4   4   0 1342.27   45.80
  -4   4   0 1341.77   47.40
  -4   4   0 1366.96   46.60
  -4   4   0 1355.66   46.40
   4  -4  -1  882.21   29.90
   4  -4  -1  904.71   30.10
  -4   4   1  885.81   30.20
  -4   4   1  849.72   30.00
  -4   4   1  873.61   30.80
  -4   4   1  833.82   30.20
   4  -4  -2  427.76   15.30
   4  -4  -2  411.46   15.50
  -4   4   2  405.56   15.60
  -4   4   2  419.26   16.10
  -4   4   2  414.36   15.20
  -4   4   2  388.26   15.30
  -4   4   2  372.26   14.00
   4  -4  -3  242.18   10.80
   4  -4  -3  247.88   11.10
  -4   4   3  229.48   11.10
  -4   4   3  253.77   10.80
  -4   4   3  242.18   10.80
  -4   4   3  265.57   11.30
   4  -4  -4   46.80    5.20
   4  -4  -4   55.29    4.70
  -4   4   4   61.59    5.00
  -4   4   4   47.30    5.20
  -4   4   4   44.40    5.00
  -4   4   4   39.90    4.60
   4  -4  -5    0.20    2.40
   4  -4  -5    5.10    3.10
  -4   4   5    1.50    2.50
  -4   4   5    3.30    2.60
  -4   4   5   -3.00    2.70
   3  -4   5   -0.50    2.30
   3  -4   5   10.50    3.40
   3  -4   5    4.80    2.80
  -3   4  -5    6.90    3.40
  -3   4  -5    3.80    2.70
   3  -4   4   15.30    3.30
   3  -4   4   12.40    3.00
   3  -4   4    7.80    2.70
  -3   4  -4    6.50    3.50
  -3   4  -4   10.00    3.30
   3  -4   3   61.49    4.30
   3  -4   3   54.99    4.30
   3  -4   3   61.99    4.60
  -3   4  -3   60.89    6.30
  -3   4  -3   57.29    6.20
   3  -4   2  143.89    6.60
   3  -4   2  134.09    6.30
   3  -4   2  144.29    6.90
   3  -4   2  141.69    5.10
   3  -4   2  138.29    5.10
  -3   4  -2  139.79    6.00
  -3   4  -2  141.09    7.70
  -3   4  -2  144.79    8.20
   3  -4   1  465.25   17.00
   3  -4   1  464.65   16.70
   3  -4   1  470.85   16.50
  -3   4  -1  464.75   18.40
  -3   4  -1  478.25   16.40
  -3   4  -1  468.85   17.80
   3  -4   0 1864.11   63.19
   3  -4   0 1877.01   63.19
   3  -4   0 1984.20   63.09
  -3   4   0 1928.31   62.99
  -3   4   0 1910.91   63.69
  -3   4   0 1882.31   63.59
  -3   4   0 1841.22   64.49
  -3   4   0 1898.91   63.09
   3  -4  -1  473.75   16.30
   3  -4  -1  476.55   16.50
  -3   4   1  455.95   16.50
  -3   4   1  458.95   16.40
  -3   4   1  459.15   16.70
  -3   4   1  458.15   17.10
   3  -4  -2  142.89    5.30
   3  -4  -2  138.99    6.40
   3  -4  -2  145.69    6.30
  -3   4   2  141.49    6.30
  -3   4   2  146.99    6.50
  -3   4   2  125.59    6.70
  -3   4   2  130.49    5.40
  -3   4   2  138.09    6.60
   3  -4  -3   59.69    4.40
   3  -4  -3   63.39    4.30
  -3   4   3   64.29    4.30
  -3   4   3   66.39    4.40
  -3   4   3   56.69    4.50
  -3   4   3   66.79    4.60
   3  -4  -4    9.50    2.50
   3  -4  -4   12.30    3.00
  -3   4   4    9.20    2.70
  -3   4   4   15.90    3.10
  -3   4   4    7.40    2.50
  -3   4   4   10.60    2.70
  -3   4   4   17.80    3.20
   3  -4  -5    7.00    2.80
   3  -4  -5    2.00    2.70
   3  -4  -5    2.70    3.50
  -3   4   5    0.40    2.30
  -3   4   5   11.80    3.50
  -3   4   5    5.10    2.80
  -3   4   5    2.30    2.40
   2  -4   5    1.60    2.60
   2  -4   5    6.20    3.00
  -2   4  -5    4.80    3.40
  -2   4  -5    2.20    2.60
   2  -4   4    0.20    1.80
   2  -4   4    2.00    2.00
   2  -4   4    2.60    2.30
  -2   4  -4    3.20    2.60
  -2   4  -4    1.30    2.10
  -2   4  -4    0.80    1.90
   2  -4   3   28.50    3.30
   2  -4   3   32.50    3.60
   2  -4   3   24.30    2.40
   2  -4   3   24.90    3.20
   2  -4   3   28.00    2.60
  -2   4  -3   27.40    4.30
  -2   4  -3   24.20    3.90
   2  -4   2  165.08    6.50
   2  -4   2  176.38    6.40
   2  -4   2  185.98    8.00
   2  -4   2  171.88    7.50
  -2   4  -2  180.78    8.80
  -2   4  -2  179.08    9.00
  -2   4  -2  167.38    6.70
   2  -4   1   74.89    3.80
   2  -4   1   81.19    3.60
   2  -4   1   74.59    2.80
   2  -4   1   81.79    3.70
  -2   4  -1   71.09    4.30
  -2   4  -1   76.89    3.00
  -2   4  -1   77.69    4.70
   2  -4   0 3028.10   98.29
   2  -4   0 3175.38   98.19
   2  -4   0 3003.70   98.29
   2  -4   0 2891.21   98.39
  -2   4   0 2991.80   98.59
  -2   4   0 3044.30   98.09
  -2   4   0 2811.32   99.29
  -2   4   0 2909.01   98.19
  -2   4   0 2881.41   98.59
   2  -4  -1   82.59    3.40
   2  -4  -1   77.09    3.50
  -2   4   1   70.19    3.90
  -2   4   1   78.79    3.70
  -2   4   1   78.29    3.50
  -2   4   1   73.09    3.60
   2  -4  -2  172.68    7.50
   2  -4  -2  175.58    6.80
   2  -4  -2  170.68    7.30
  -2   4   2  167.48    7.40
  -2   4   2  174.18    6.50
  -2   4   2  182.88    7.80
  -2   4   2  168.68    6.70
  -2   4   2  181.38    8.00
  -2   4   2  182.88    7.40
   2  -4  -3   24.40    3.10
   2  -4  -3   29.80    3.40
  -2   4   3   32.20    3.30
  -2   4   3   27.70    3.30
  -2   4   3   26.70    3.00
  -2   4   3   29.10    3.20
  -2   4   3   25.30    3.30
  -2   4   3   28.20    3.50
   2  -4  -4    1.80    1.90
   2  -4  -4    0.50    1.80
  -2   4   4    1.50    1.80
  -2   4   4    2.50    1.90
  -2   4   4    2.20    2.00
  -2   4   4    0.70    1.80
  -2   4   4    0.80    1.70
   2  -4  -5    6.10    3.40
   2  -4  -5    1.60    2.40
   2  -4  -5    3.50    2.50
  -2   4   5    2.30    2.30
  -2   4   5    5.00    2.70
  -2   4   5    2.90    2.50
  -2   4   5    6.50    3.00
   1  -4   5   -2.70    2.70
   1  -4   5   -0.10    2.30
  -1   4  -5   -1.20    1.90
  -1   4  -5    5.40    3.00
   1  -4   4   13.90    3.10
   1  -4   4   12.40    3.20
  -1   4  -4    8.40    3.30
  -1   4  -4    6.50    2.40
  -1   4  -4    6.80    2.80
   1  -4   3   46.00    3.80
   1  -4   3   42.50    3.50
   1  -4   3   39.10    2.80
   1  -4   3   40.50    2.70
   1  -4   3   32.50    3.60
  -1   4  -3   38.90    4.70
  -1   4  -3   41.90    4.70
   1  -4   2  377.96   14.10
   1  -4   2  369.56   13.10
   1  -4   2  357.96   14.00
   1  -4   2  366.96   13.90
   1  -4   2  362.16   12.90
  -1   4  -2  357.46   14.90
  -1   4  -2  359.36   15.10
   1  -4   1 1630.14   54.59
   1  -4   1 1634.74   54.29
   1  -4   1 1582.84   53.79
   1  -4   1 1598.94   54.39
   1  -4   1 1605.14   53.69
  -1   4  -1 1626.84   55.29
  -1   4  -1 1675.43   55.69
   1  -4   0  685.53   23.40
   1  -4   0  672.63   23.50
   1  -4   0  751.82   23.20
   1  -4   0  747.83   23.00
  -1   4   0  669.13   23.10
  -1   4   0  641.44   24.00
  -1   4   0  662.13   23.50
  -1   4   0  684.13   23.40
  -1   4   0  661.33   23.20
   1  -4  -1 1657.53   54.69
   1  -4  -1 1672.03   55.49
   1  -4  -1 1649.93   54.89
  -1   4   1 1617.04   54.89
  -1   4   1 1597.24   54.29
  -1   4   1 1639.24   55.39
  -1   4   1 1639.74   55.09
  -1   4   1 1665.03   54.99
   1  -4  -2  363.96   14.50
   1  -4  -2  360.56   13.90
   1  -4  -2  374.76   13.80
   1  -4  -2  369.66   13.70
  -1   4   2  366.26   14.00
  -1   4   2  379.86   13.70
  -1   4   2  345.27   13.20
  -1   4   2  382.36   13.60
  -1   4   2  379.76   14.30
  -1   4   2  369.46   13.10
  -1   4   2  371.36   13.80
   1  -4  -3   41.60    3.40
   1  -4  -3   50.09    4.90
   1  -4  -3   45.20    3.50
   1  -4  -3   42.90    3.50
  -1   4   3   43.50    2.90
  -1   4   3   44.90    3.80
  -1   4   3   44.80    3.50
  -1   4   3   39.70    2.90
  -1   4   3   44.30    3.30
  -1   4   3   37.90    4.00
  -1   4   3   40.20    3.30
   1  -4  -4    7.70    2.60
   1  -4  -4    9.20    3.00
   1  -4  -4    7.70    2.50
  -1   4   4   10.00    2.50
  -1   4   4    9.30    2.30
  -1   4   4    4.70    2.20
  -1   4   4    7.40    2.30
  -1   4   4    8.80    2.50
   1  -4  -5    5.20    3.10
   1  -4  -5    4.20    2.60
   1  -4  -5    1.50    2.50
   1  -4  -5    5.70    3.10
  -1   4   5    1.00    2.50
  -1   4   5    1.60    2.10
  -1   4   5    5.40    2.80
  -1   4   5    4.50    2.80
   0  -4   5   -0.60    2.60
   0  -4   5    5.50    2.90
   0   4  -5    3.70    2.80
   0   4  -5    2.50    2.40
   0  -4   4   13.20    3.10
   0  -4   4    7.30    2.70
   0   4  -4    7.20    2.60
   0   4  -4    9.00    2.90
   0  -4   3   13.10    2.00
   0  -4   3   17.20    2.10
   0  -4   3   12.90    2.50
   0  -4   3   10.80    2.30
   0   4  -3   10.50    2.80
   0   4  -3   15.00    2.80
   0   4  -3   14.70    2.80
   0  -4   2   11.20    1.90
   0  -4   2   14.00    1.00
   0  -4   2   15.50    2.10
   0  -4   2   14.40    1.50
   0  -4   2   11.50    1.50
   0   4  -2   11.00    2.20
   0   4  -2   10.00    2.00
   0  -4   1 1532.05   51.79
   0  -4   1 1582.04   52.19
   0  -4   1 1569.14   51.79
   0  -4   1 1525.45   52.19
   0   4  -1 1572.24   52.99
   0   4  -1 1550.44   52.99
   0  -4   0 1450.25   44.00
   0  -4   0 1286.77   44.50
   0  -4   0 1346.77   43.90
   0  -4   0 1284.07   44.70
   0   4   0 1286.17   44.10
   0   4   0 1297.67   44.80
   0   4   0 1363.26   44.30
   0   4   0 1283.07   44.50
   0  -4  -1 1600.14   53.19
   0  -4  -1 1593.44   52.89
   0  -4  -1 1641.14   53.89
   0  -4  -1 1588.74   53.69
   0   4   1 1576.74   53.39
   0   4   1 1602.54   53.79
   0   4   1 1724.23   53.19
   0   4   1 1572.94   53.29
   0   4   1 1466.65   52.89
   0   4   1 1572.34   53.29
   0  -4  -2   13.90    2.20
   0  -4  -2   11.70    1.60
   0  -4  -2   13.60    2.00
   0  -4  -2   12.00    1.60
   0   4   2   13.50    1.60
   0   4   2   15.80    1.90
   0   4   2   10.80    1.50
   0   4   2   11.90    1.50
   0   4   2   13.30    1.50
   0   4   2   13.70    1.70
   0   4   2   11.50    2.00
   0  -4  -3   16.20    2.60
   0  -4  -3   10.70    2.40
   0  -4  -3   14.60    2.40
   0  -4  -3   12.20    2.40
   0  -4  -3    9.50    2.00
   0   4   3   11.60    1.90
   0   4   3   11.80    2.10
   0   4   3   10.90    1.90
   0   4   3   13.60    1.90
   0   4   3   16.10    2.60
   0   4   3   12.30    2.20
   0   4   3   14.40    2.20
   0  -4  -4   11.30    2.80
   0  -4  -4   11.00    2.70
   0  -4  -4    9.50    2.90
   0  -4  -4    8.00    2.60
   0   4   4   13.50    2.80
   0   4   4   14.50    2.60
   0   4   4   11.10    2.50
   0   4   4   12.10    2.70
   0   4   4   11.90    2.60
   0  -4  -5   -0.80    2.10
   0  -4  -5    3.40    2.60
   0  -4  -5    3.50    2.60
   0  -4  -5    0.80    3.10
   0   4   5    2.90    2.30
   0   4   5    4.50    2.70
   0   4   5    4.90    2.60
   0   4   5    9.10    2.90
  -1  -4   5    4.60    2.90
  -1  -4   5    1.50    2.80
   1   4  -5    2.50    2.50
   1   4  -5   -0.20    2.50
   1   4  -5    2.80    2.60
  -1  -4   4   14.20    3.10
  -1  -4   4    8.60    2.60
  -1  -4   4   10.10    2.30
  -1  -4   4   11.70    2.60
   1   4  -4    9.10    3.10
   1   4  -4    4.30    2.30
  -1  -4   3   40.20    3.30
  -1  -4   3   50.39    3.90
  -1  -4   3   45.80    3.80
  -1  -4   3   40.00    3.00
   1   4  -3   50.19    4.10
   1   4  -3   46.90    4.50
   1   4  -3   42.70    4.60
  -1  -4   2  358.46   14.10
  -1  -4   2  360.16   13.40
  -1  -4   2  392.56   13.00
  -1  -4   2  381.66   14.20
  -1  -4   2  368.66   13.70
   1   4  -2  355.06   14.40
   1   4  -2  380.96   14.60
   1   4  -2  359.46   14.80
  -1  -4   1 1539.35   54.19
  -1  -4   1 1643.94   54.09
  -1  -4   1 1643.54   54.09
  -1  -4   1 1653.63   53.99
  -1  -4   1 1671.63   54.29
   1   4  -1 1625.24   54.99
   1   4  -1 1544.65   54.39
   1   4  -1 1612.34   54.69
  -1  -4   0  692.53   23.90
  -1  -4   0  756.12   22.70
  -1  -4   0  636.74   23.40
  -1  -4   0  618.84   23.50
   1   4   0  687.73   23.10
   1   4   0  664.73   23.20
   1   4   0  664.13   23.30
  -1  -4  -1 1720.93   55.59
  -1  -4  -1 1641.64   55.69
  -1  -4  -1 1611.84   54.59
  -1  -4  -1 1660.73   56.49
  -1  -4  -1 1669.63   54.79
   1   4   1 1625.54   54.99
   1   4   1 1736.13   54.69
   1   4   1 1626.84   55.49
   1   4   1 1634.24   55.19
   1   4   1 1641.84   54.99
   1   4   1 1595.64   54.49
   1   4   1 1595.94   55.19
  -1  -4  -2  363.46   13.60
  -1  -4  -2  374.86   14.40
  -1  -4  -2  369.26   13.70
  -1  -4  -2  384.36   14.10
   1   4   2  365.36   13.60
   1   4   2  383.96   14.20
   1   4   2  362.76   13.40
   1   4   2  364.16   13.70
   1   4   2  358.76   13.50
   1   4   2  366.76   13.70
   1   4   2  367.16   13.50
  -1  -4  -3   38.50    3.20
  -1  -4  -3   41.80    4.40
  -1  -4  -3   39.90    4.70
  -1  -4  -3   59.29    6.10
  -1  -4  -3   44.20    4.10
  -1  -4  -3   37.40    3.30
  -1  -4  -3   41.10    4.20
   1   4   3   36.40    2.90
   1   4   3   39.10    3.00
   1   4   3   42.60    3.30
   1   4   3   39.90    3.40
   1   4   3   39.70    3.00
   1   4   3   43.80    3.20
   1   4   3   40.40    3.10
  -1  -4  -4    8.60    2.70
  -1  -4  -4   10.50    2.50
  -1  -4  -4    8.90    3.00
  -1  -4  -4   11.80    2.70
  -1  -4  -4    6.50    2.30
  -1  -4  -4    8.40    3.50
  -1  -4  -4    8.90    2.80
   1   4   4    6.90    2.30
   1   4   4   11.40    2.80
   1   4   4   11.20    2.30
   1   4   4    6.60    2.20
   1   4   4    9.10    2.20
   1   4   4    4.90    2.00
   1   4   4    7.90    2.10
  -1  -4  -5    2.10    3.20
  -1  -4  -5    2.70    2.60
  -1  -4  -5    2.70    2.70
  -1  -4  -5    1.30    2.30
   1   4   5    4.10    2.20
   1   4   5    2.30    2.70
   1   4   5   -0.70    2.20
   1   4   5    1.50    2.70
  -2  -4   5    3.90    3.00
  -2  -4   5    3.20    2.90
   2   4  -5    3.90    2.70
   2   4  -5    3.40    2.60
  -2  -4   4    1.20    2.10
  -2  -4   4    1.40    1.80
  -2  -4   4   -0.10    2.00
  -2  -4   4    1.20    1.50
   2   4  -4    1.00    2.10
   2   4  -4    3.90    2.20
  -2  -4   3   31.50    3.70
  -2  -4   3   29.00    3.10
  -2  -4   3   30.70    3.50
  -2  -4   3   30.50    3.00
   2   4  -3   27.20    3.60
   2   4  -3   25.20    3.10
   2   4  -3   25.50    3.70
  -2  -4   2  171.98    7.20
  -2  -4   2  177.68    7.70
  -2  -4   2  170.38    7.70
  -2  -4   2  178.38    6.90
  -2  -4   2  175.18    7.40
   2   4  -2  173.18    7.60
   2   4  -2  185.78    8.40
   2   4  -2  168.68    7.90
  -2  -4   1   77.29    3.60
  -2  -4   1   76.29    3.60
  -2  -4   1   73.29    3.50
  -2  -4   1   72.99    3.60
  -2  -4   1   75.89    3.90
   2   4  -1   75.99    4.10
   2   4  -1   87.19    3.80
   2   4  -1   69.79    3.60
  -2  -4   0 2996.30   95.09
  -2  -4   0 2807.42   95.99
  -2  -4   0 2680.93   96.09
  -2  -4   0 2878.61   96.99
   2   4   0 2953.00   95.69
   2   4   0 2938.21   95.99
   2   4   0 2856.11   95.69
   2   4   0 2947.01   94.99
  -2  -4  -1   77.59    4.20
  -2  -4  -1   79.49    4.90
  -2  -4  -1   74.29    3.10
  -2  -4  -1   74.99    4.00
   2   4   1   82.29    3.70
   2   4   1   75.99    3.60
   2   4   1   81.49    3.60
   2   4   1   76.49    3.90
   2   4   1   83.79    3.10
   2   4   1   78.69    3.80
   2   4   1   78.59    3.10
  -2  -4  -2  164.78    6.90
  -2  -4  -2  189.08    8.00
  -2  -4  -2  176.88    8.90
  -2  -4  -2  166.08    7.10
  -2  -4  -2  170.68    7.50
   2   4   2  170.98    7.60
   2   4   2  169.98    7.30
   2   4   2  177.78    7.20
   2   4   2  165.68    6.80
   2   4   2  162.48    7.20
   2   4   2  171.78    7.00
   2   4   2  172.88    7.00
  -2  -4  -3   27.90    3.90
  -2  -4  -3   28.50    3.30
  -2  -4  -3   27.30    3.00
  -2  -4  -3   22.40    3.80
  -2  -4  -3   27.90    3.20
  -2  -4  -3   22.10    3.10
  -2  -4  -3   34.40    4.70
   2   4   3   29.90    3.30
   2   4   3   28.60    3.00
   2   4   3   20.80    2.40
   2   4   3   25.40    2.80
   2   4   3   26.00    3.10
   2   4   3   23.70    2.60
   2   4   3   31.20    3.20
  -2  -4  -4    0.80    1.80
  -2  -4  -4    4.50    2.00
  -2  -4  -4   -1.30    2.10
  -2  -4  -4    0.30    1.70
  -2  -4  -4    2.10    1.90
  -2  -4  -4   -0.30    2.30
  -2  -4  -4    2.10    1.90
   2   4   4    2.40    1.90
   2   4   4    0.90    1.60
   2   4   4    2.70    1.70
   2   4   4    3.20    1.60
   2   4   4   -0.40    1.70
   2   4   4    1.70    1.70
   2   4   4    1.60    1.70
  -2  -4  -5    0.80    2.20
  -2  -4  -5    3.60    2.40
   2   4   5    4.00    2.60
   2   4   5    2.00    2.40
  -3  -4   5    7.40    3.60
  -3  -4   5    4.30    2.60
  -3  -4   5    0.20    2.70
   3   4  -5    3.30    2.50
   3   4  -5    5.10    3.10
  -3  -4   4   11.90    2.80
  -3  -4   4   14.00    3.10
  -3  -4   4   17.10    3.50
  -3  -4   4    9.80    2.60
   3   4  -4    9.50    2.90
   3   4  -4    9.60    3.00
  -3  -4   3   58.19    4.40
  -3  -4   3   54.09    3.90
  -3  -4   3   60.59    4.20
  -3  -4   3   59.09    4.10
  -3  -4   3   63.39    4.50
   3   4  -3   63.09    4.70
   3   4  -3   64.99    5.00
  -3  -4   2  138.39    6.50
  -3  -4   2  145.39    6.70
  -3  -4   2  149.99    6.40
  -3  -4   2  134.99    6.50
  -3  -4   2  146.59    6.20
   3   4  -2  142.09    6.10
   3   4  -2  143.19    7.10
   3   4  -2  132.89    6.70
  -3  -4   1  482.55   16.90
  -3  -4   1  461.05   16.50
  -3  -4   1  471.55   17.40
  -3  -4   1  465.55   16.60
   3   4  -1  449.95   17.20
   3   4  -1  447.16   16.60
   3   4  -1  493.55   16.50
  -3  -4   0 1907.91   62.89
  -3  -4   0 1746.63   64.19
  -3  -4   0 1877.51   61.79
  -3  -4   0 1855.31   62.99
   3   4   0 1880.11   62.49
   3   4   0 1971.30   61.89
   3   4   0 1829.62   62.69
  -3  -4  -1  458.25   15.90
  -3  -4  -1  480.75   17.40
  -3  -4  -1  494.85   19.00
  -3  -4  -1  458.05   17.60
   3   4   1  465.45   16.90
   3   4   1  481.45   16.20
   3   4   1  479.65   17.20
   3   4   1  469.85   17.00
  -3  -4  -2  151.18    8.30
  -3  -4  -2  139.39    6.50
  -3  -4  -2  147.59    6.90
  -3  -4  -2  125.49    5.70
   3   4   2  139.49    6.40
   3   4   2  136.29    6.50
   3   4   2  144.79    6.00
   3   4   2  141.79    6.40
   3   4   2  134.09    5.80
   3   4   2  122.59    5.50
   3   4   2  146.89    6.10
  -3  -4  -3   61.89    4.30
  -3  -4  -3   58.59    6.30
  -3  -4  -3   53.19    4.10
  -3  -4  -3   73.09    7.10
  -3  -4  -3   56.19    4.40
  -3  -4  -3   57.39    3.90
   3   4   3   63.69    4.20
   3   4   3   66.89    3.90
   3   4   3   60.79    3.80
   3   4   3   63.99    4.20
   3   4   3   63.39    3.70
   3   4   3   62.89    4.30
   3   4   3   62.99    4.10
  -3  -4  -4   11.40    3.70
  -3  -4  -4   14.50    4.10
  -3  -4  -4   19.70    4.00
  -3  -4  -4    8.60    2.90
  -3  -4  -4   10.50    2.80
  -3  -4  -4    9.30    2.60
  -3  -4  -4    8.10    2.50
   3   4   4   10.20    2.60
   3   4   4   10.80    2.30
   3   4   4    8.50    2.40
   3   4   4    8.90    2.50
   3   4   4   11.20    2.50
   3   4   4   10.50    2.80
   3   4   4   10.80    2.30
  -4  -4   5    1.40    2.50
  -4  -4   5   -0.70    2.00
  -4  -4   5   -0.60    2.80
  -4  -4   5   -0.30    2.50
   4   4  -5   -1.00    2.00
   4   4  -5   -2.80    1.90
  -4  -4   4   44.90    5.10
  -4  -4   4   45.40    5.40
  -4  -4   4   51.39    5.00
  -4  -4   4   55.69    5.80
   4   4  -4   40.10    5.20
   4   4  -4   53.99    5.90
   4   4  -4   42.90    5.50
  -4  -4   3  249.97   10.90
  -4  -4   3  237.88   10.20
  -4  -4   3  238.08   10.50
  -4  -4   3  249.68   11.00
  -4  -4   3  243.78   11.10
   4   4  -3  244.98   11.30
   4   4  -3  242.48   11.40
  -4  -4   2  390.66   15.20
  -4  -4   2  389.26   15.10
  -4  -4   2  398.96   15.30
  -4  -4   2  412.56   15.30
  -4  -4   2  406.76   15.40
   4   4  -2  400.26   15.90
   4   4  -2  413.66   14.30
   4   4  -2  389.36   15.50
  -4  -4   1  857.11   29.90
  -4  -4   1  899.31   29.70
  -4  -4   1  858.21   29.60
  -4  -4   1  860.81   30.10
  -4  -4   1  856.31   31.00
   4   4  -1  838.32   30.30
   4   4  -1  898.11   29.40
   4   4  -1  830.02   29.70
  -4  -4   0 1426.06   46.20
  -4  -4   0 1384.06   46.40
  -4  -4   0 1283.47   48.10
  -4  -4   0 1297.87   45.00
   4   4   0 1419.06   46.00
   4   4   0 1311.97   46.10
   4   4   0 1384.46   45.30
  -4  -4  -1  839.52   30.10
  -4  -4  -1  847.42   30.40
  -4  -4  -1  848.62   32.10
   4   4   1  845.82   29.70
   4   4   1  838.22   29.80
   4   4   1  861.71   30.00
   4   4   1  891.71   28.90
  -4  -4  -2  405.56   15.30
  -4  -4  -2  423.86   15.80
  -4  -4  -2  391.16   17.40
  -4  -4  -2  370.16   14.10
   4   4   2  383.36   15.10
   4   4   2  392.46   14.50
   4   4   2  400.36   15.20
   4   4   2  404.76   14.40
   4   4   2  408.66   15.30
   4   4   2  372.26   13.90
   4   4   2  398.06   14.60
  -4  -4  -3  231.78   12.60
  -4  -4  -3  227.28   10.60
  -4  -4  -3  227.08    9.70
  -4  -4  -3  250.27   12.90
  -4  -4  -3  243.78   10.50
   4   4   3  225.68   10.30
   4   4   3  232.88   10.40
   4   4   3  228.78    9.40
   4   4   3  245.18    9.80
   4   4   3  237.68   10.40
   4   4   3  215.68    9.40
   4   4   3  246.38   10.10
  -4  -4  -4   37.90    6.30
  -4  -4  -4   52.89    5.30
  -4  -4  -4   41.70    5.80
  -4  -4  -4   41.80    4.60
  -4  -4  -4   57.79    5.80
  -4  -4  -4   38.10    5.90
   4   4   4   44.50    4.70
   4   4   4   47.60    4.40
   4   4   4   40.80    4.60
   4   4   4   47.80    3.70
   4   4   4   49.40    5.00
   4   4   4   40.90    4.60
  -4  -4  -5   -0.50    2.70
   4   4   5   -0.10    2.40
  -5  -4   5    3.60    2.80
  -5  -4   5   -1.00    2.20
  -5  -4   5    0.70    2.80
  -5  -4   5    0.50    3.00
   5   4  -5    0.70    2.20
   5   4  -5   -1.10    2.10
  -5  -4   4   11.50    3.00
  -5  -4   4   19.10    3.90
  -5  -4   4   23.00    3.90
  -5  -4   4   22.10    3.60
   5   4  -4    8.80    2.70
   5   4  -4   17.10    3.60
  -5  -4   3   59.49    4.60
  -5  -4   3   56.69    4.50
  -5  -4   3   56.19    4.40
  -5  -4   3   49.20    3.90
  -5  -4   3   53.39    4.20
   5   4  -3   57.49    5.50
   5   4  -3   50.89    5.10
   5   4  -3   56.29    4.60
  -5  -4   2   38.90    3.50
  -5  -4   2   35.40    3.60
  -5  -4   2   40.30    3.80
  -5  -4   2   39.60    3.10
  -5  -4   2   38.30    3.10
   5   4  -2   36.10    3.80
   5   4  -2   35.60    3.60
   5   4  -2   33.20    3.00
   5   4  -2   38.90    2.10
  -5  -4   1  951.70   35.10
  -5  -4   1  949.40   33.30
  -5  -4   1 1001.90   33.80
  -5  -4   1 1009.40   34.10
   5   4  -1 1028.40   33.20
   5   4  -1  965.10   33.50
   5   4  -1  959.00   34.10
   5   4  -1  937.31   33.50
  -5  -4   0    2.50    1.70
  -5  -4   0    4.30    1.10
  -5  -4   0    5.50    1.30
  -5  -4   0    3.90    0.50
   5   4   0    3.80    0.60
   5   4   0    3.40    0.70
   5   4   0    4.90    1.20
   5   4   0    4.50    1.10
  -5  -4  -1  965.70   37.30
  -5  -4  -1  972.20   35.00
  -5  -4  -1  980.70   34.70
   5   4   1 1012.00   34.60
   5   4   1 1041.00   33.60
   5   4   1  968.40   34.60
  -5  -4  -2   31.90    2.10
  -5  -4  -2   35.10    3.70
  -5  -4  -2   38.50    5.30
  -5  -4  -2   37.50    3.60
   5   4   2   42.40    3.20
   5   4   2   32.50    3.30
   5   4   2   33.60    2.00
   5   4   2   35.50    2.60
   5   4   2   39.80    3.80
  -5  -4  -3   55.49    4.20
  -5  -4  -3   49.00    5.00
  -5  -4  -3   56.29    7.10
  -5  -4  -3   51.99    6.60
   5   4   3   51.39    3.40
   5   4   3   47.60    3.80
   5   4   3   52.39    4.30
   5   4   3   50.39    4.20
   5   4   3   51.79    3.60
   5   4   3   50.79    4.20
  -5  -4  -4   21.00    4.70
  -5  -4  -4   12.50    4.40
  -5  -4  -4   11.80    2.90
  -5  -4  -4   15.50    4.30
   5   4   4   19.90    3.60
   5   4   4   15.50    3.10
   5   4   4   18.00    4.50
   5   4   4   21.10    3.50
  -5  -4  -5   -2.50    3.10
  -5  -4  -5    1.90    2.90
   5   4   5    1.80    2.70
   5   4   5    3.10    2.90
  -6  -4   5   -1.80    2.80
  -6  -4   5   -1.30    2.70
  -6  -4   5   -0.90    2.70
  -6  -4   5   -0.50    2.40
   6   4  -5    2.40    2.70
   6   4  -5   -2.30    2.30
  -6  -4   4   44.00    5.10
  -6  -4   4   54.49    5.90
  -6  -4   4   48.10    5.70
  -6  -4   4   52.79    5.70
   6   4  -4   45.30    5.60
   6   4  -4   45.30    5.50
  -6  -4   3  158.98    8.20
  -6  -4   3  160.28    8.10
  -6  -4   3  142.09    8.10
  -6  -4   3  152.98    7.90
  -6  -4   3  172.08    8.30
   6   4  -3  149.69    8.20
   6   4  -3  145.89    8.30
   6   4  -3  146.29    8.20
  -6  -4   2  333.37   13.20
  -6  -4   2  330.37   13.90
  -6  -4   2  344.77   13.70
  -6  -4   2  331.97   13.30
   6   4  -2  341.57   13.40
   6   4  -2  310.67   13.20
   6   4  -2  331.87   13.60
  -6  -4   1  338.37   13.00
  -6  -4   1  336.87   14.50
  -6  -4   1  343.27   13.30
  -6  -4   1  330.57   12.40
   6   4  -1  361.36   12.40
   6   4  -1  341.07   12.60
   6   4  -1  312.87   12.50
   6   4  -1  328.77   13.10
  -6  -4   0 1659.13   56.59
  -6  -4   0 1711.73   56.99
  -6  -4   0 1602.24   59.59
   6   4   0 1657.83   55.99
   6   4   0 1695.83   56.69
   6   4   0 1731.53   55.39
   6   4   0 1636.74   56.79
  -6  -4  -1  326.47   13.20
  -6  -4  -1  326.07   16.10
  -6  -4  -1  337.37   13.60
   6   4   1  338.67   13.40
   6   4   1  350.46   13.50
   6   4   1  355.96   12.40
  -6  -4  -2  348.87   16.60
  -6  -4  -2  306.57   13.30
  -6  -4  -2  326.17   13.80
  -6  -4  -2  328.07   15.90
   6   4   2  323.97   13.40
   6   4   2  337.27   13.60
   6   4   2  329.17   12.50
   6   4   2  320.07   13.40
  -6  -4  -3  141.99   10.00
  -6  -4  -3  138.69   10.10
  -6  -4  -3  134.19    7.90
  -6  -4  -3  157.78    7.90
   6   4   3  152.38    7.90
   6   4   3  130.79    6.90
   6   4   3  149.49    7.90
   6   4   3  134.99    7.70
  -6  -4  -4   29.40    6.00
  -6  -4  -4   44.90    7.30
  -6  -4  -4   62.09    7.70
   6   4   4   54.59    5.70
   6   4   4   46.60    5.10
   6   4   4   36.60    4.80
  -6  -4  -5    0.90    3.40
  -6  -4  -5   -0.60    2.70
   6   4   5   -0.30    2.70
   6   4   5   -1.50    2.10
  -7  -4   4   33.70    5.10
  -7  -4   4   37.80    5.00
   7   4  -4   28.60    4.40
   7   4  -4   27.60    4.50
  -7  -4   3   28.80    4.10
  -7  -4   3   34.40    4.40
  -7  -4   3   30.80    3.90
  -7  -4   3   34.60    4.20
   7   4  -3   30.80    4.10
   7   4  -3   33.30    4.20
   7   4  -3   31.80    4.00
  -7  -4   2   82.29    5.60
  -7  -4   2   84.89    4.80
  -7  -4   2   73.09    4.90
  -7  -4   2   92.89    5.60
   7   4  -2   88.79    5.20
   7   4  -2   74.99    4.70
   7   4  -2   78.39    5.00
  -7  -4   1   40.00    2.60
  -7  -4   1   40.70    3.10
  -7  -4   1   48.80    5.30
  -7  -4   1   47.20    3.50
   7   4  -1   44.30    2.80
   7   4  -1   44.90    3.30
   7   4  -1   45.40    2.90
   7   4  -1   41.60    2.80
  -7  -4   0 1684.53   56.89
  -7  -4   0 1571.54   59.69
  -7  -4   0 1625.84   56.49
   7   4   0 1721.13   56.69
   7   4   0 1728.03   55.19
   7   4   0 1663.73   55.89
   7   4   0 1637.54   56.79
  -7  -4  -1   45.00    3.20
  -7  -4  -1   54.29    6.70
  -7  -4  -1   47.50    3.50
   7   4   1   38.10    3.30
   7   4   1   41.60    3.40
   7   4   1   43.00    2.60
  -7  -4  -2   79.69    5.30
  -7  -4  -2   77.49    8.70
  -7  -4  -2   82.39    5.00
  -7  -4  -2   78.59    8.00
   7   4   2   79.49    5.20
   7   4   2   80.29    4.40
   7   4   2   75.59    5.10
  -7  -4  -3   32.20    6.20
  -7  -4  -3   29.30    5.50
   7   4   3   36.90    4.40
   7   4   3   31.00    3.50
   7   4   3   30.00    4.10
  -7  -4  -4   28.00    5.40
  -7  -4  -4   25.10    6.10
  -7  -4  -4   25.50    5.50
   7   4   4   29.30    4.50
   7   4   4   38.90    4.90
   7   4   4   33.50    4.70
  -8  -4   4    9.00    3.20
  -8  -4   4    2.80    2.50
  -8  -4   4    3.50    2.80
   8   4  -4    4.90    2.80
   8   4  -4    4.40    3.00
  -8  -4   3   24.30    3.80
  -8  -4   3   25.50    4.00
  -8  -4   3   19.50    3.30
  -8  -4   3   28.40    4.30
   8   4  -3   21.00    3.70
   8   4  -3   23.90    3.70
  -8  -4   2  187.38    8.90
  -8  -4   2  190.28    9.40
  -8  -4   2  175.98    9.60
  -8  -4   2  185.08    8.40
   8   4  -2  179.58    8.60
   8   4  -2  187.88    8.60
   8   4  -2  186.88    8.70
  -8  -4   1  219.88   11.40
  -8  -4   1  215.98    9.60
  -8  -4   1  213.68    8.70
  -8  -4   1  236.18   10.10
   8   4  -1  231.78    9.10
   8   4  -1  230.98    9.60
   8   4  -1  224.48    9.20
   8   4  -1  221.08    8.90
  -8  -4   0   46.20    6.00
  -8  -4   0   57.19    3.90
  -8  -4   0   52.89    3.50
   8   4   0   52.69    3.00
   8   4   0   49.30    3.60
   8   4   0   57.19    3.70
  -8  -4  -1  231.48   12.30
  -8  -4  -1  242.68    9.80
  -8  -4  -1  210.88   12.70
  -8  -4  -1  219.08    9.30
   8   4   1  222.68    9.90
   8   4   1  206.38    8.70
   8   4   1  219.68    9.90
  -8  -4  -2  192.78   12.30
  -8  -4  -2  194.08   11.80
  -8  -4  -2  182.38    8.50
  -8  -4  -2  178.98    8.80
   8   4   2  175.28    7.90
   8   4   2  183.28    9.10
   8   4   2  172.98    8.90
  -8  -4  -3   16.00    4.30
  -8  -4  -3   18.60    5.40
   8   4   3   25.60    3.80
   8   4   3   23.70    3.90
  -8  -4  -4    2.10    3.50
  -8  -4  -4    2.30    4.00
  -8  -4  -4    3.00    3.10
   8   4   4    0.00    2.40
   8   4   4    3.60    2.40
  -9  -4   4   16.30    4.00
  -9  -4   4   15.20    4.00
  -9  -4   4   22.30    4.20
   9   4  -4   20.80    4.00
   9   4  -4   24.90    4.40
  -9  -4   3    7.50    2.90
  -9  -4   3   12.90    3.20
  -9  -4   3   16.40    3.40
  -9  -4   3   10.10    2.60
   9   4  -3    7.70    2.50
   9   4  -3   19.70    3.40
  -9  -4   2    6.60    1.90
  -9  -4   2    6.70    2.70
  -9  -4   2    4.80    2.10
  -9  -4   2    6.20    2.10
   9   4  -2    7.50    2.10
   9   4  -2   10.90    2.20
   9   4  -2    5.60    1.90
  -9  -4   1   45.30    4.20
  -9  -4   1   50.59    6.00
  -9  -4   1   45.60    4.50
   9   4  -1   45.10    3.30
   9   4  -1   51.59    3.80
  -9  -4   0   63.49    7.40
  -9  -4   0   77.49    7.50
  -9  -4   0   63.89    4.40
  -9  -4   0   68.59    4.30
   9   4   0   67.49    4.50
   9   4   0   71.69    3.70
   9   4   0   60.39    4.20
  -9  -4  -1   51.69    3.80
  -9  -4  -1   52.89    7.20
  -9  -4  -1   43.00    6.10
  -9  -4  -1   51.09    3.40
   9   4   1   44.10    4.40
   9   4   1   45.10    3.90
   9   4   1   39.70    3.00
  -9  -4  -2    2.50    2.80
  -9  -4  -2    5.30    3.80
  -9  -4  -2   10.20    2.40
  -9  -4  -2    4.90    1.80
   9   4   2    3.90    1.70
   9   4   2    1.40    1.70
   9   4   2   10.50    2.70
  -9  -4  -3    8.60    4.20
  -9  -4  -3    7.90    4.40
   9   4   3   13.70    3.40
   9   4   3   16.00    3.40
  -9  -4  -4   17.10    4.80
  -9  -4  -4   25.20    5.90
  -9  -4  -4   13.70    5.50
   9   4   4   11.20    3.60
   9   4   4   18.20    4.20
 -10  -4   4   -0.50    2.70
 -10  -4   4   -0.30    2.50
 -10  -4   4    4.10    2.70
  10   4  -4   -0.20    2.80
  10   4  -4    4.80    2.70
 -10  -4   3    4.40    2.60
 -10  -4   3    3.70    2.40
 -10  -4   3    8.00    2.90
 -10  -4   3    5.20    2.70
  10   4  -3    4.20    2.20
  10   4  -3    7.20    2.40
 -10  -4   2    9.90    3.30
 -10  -4   2    6.70    2.40
 -10  -4   2    5.70    2.60
 -10  -4   2    3.30    1.80
  10   4  -2    5.90    2.00
  10   4  -2    3.50    1.90
 -10  -4   1   58.99    4.40
 -10  -4   1   56.49    4.50
 -10  -4   1   58.49    6.70
  10   4  -1   53.79    3.80
  10   4  -1   54.09    4.10
 -10  -4   0  221.18   12.30
 -10  -4   0  202.28    9.90
 -10  -4   0  218.18   12.90
 -10  -4   0  213.68    9.70
  10   4   0  235.38   10.20
  10   4   0  221.88   10.30
  10   4   0  249.88    9.30
 -10  -4  -1   52.49    4.10
 -10  -4  -1   61.69    7.50
 -10  -4  -1   54.59    7.60
 -10  -4  -1   53.99    3.70
  10   4   1   49.90    4.80
  10   4   1   48.40    3.50
  10   4   1   58.69    4.80
 -10  -4  -2    2.90    3.40
 -10  -4  -2    8.90    4.00
  10   4   2    6.90    2.50
  10   4   2    2.70    2.20
 -10  -4  -3    7.00    3.90
 -10  -4  -3    9.70    4.70
  10   4   3    7.80    3.10
  10   4   3    5.20    2.90
 -10  -4  -4   -1.90    3.10
 -10  -4  -4    1.70    3.30
  10   4   4    1.80    2.80
  10   4   4   -3.90    2.40
 -11  -4   3   23.90    4.30
 -11  -4   3   16.00    4.20
 -11  -4   3   22.10    4.70
 -11  -4   3   18.10    3.50
  11   4  -3   22.60    3.80
 -11  -4   2   15.10    3.20
 -11  -4   2   15.80    4.10
 -11  -4   2   24.20    4.10
  11   4  -2   18.00    3.10
 -11  -4   1    2.60    2.70
 -11  -4   1    1.60    1.90
 -11  -4   1    0.20    1.70
  11   4  -1   -0.80    1.30
  11   4  -1    4.10    1.90
 -11  -4   0    6.60    2.40
 -11  -4   0    7.90    3.60
 -11  -4   0    7.60    3.70
 -11  -4   0    6.20    2.00
  11   4   0    6.80    2.20
  11   4   0    5.20    2.20
  11   4   0   12.50    2.00
 -11  -4  -1    5.50    3.60
 -11  -4  -1    3.70    2.00
 -11  -4  -1    3.20    1.70
 -11  -4  -1    2.40    3.20
  11   4   1    2.40    1.80
  11   4   1    1.60    2.10
  11   4   1    2.70    1.40
 -11  -4  -2   16.70    5.30
 -11  -4  -2   17.50    5.30
  11   4   2   10.40    2.90
  11   4   2   16.50    3.40
 -11  -4  -3   20.50    6.10
 -11  -4  -3   13.90    4.90
  11   4   3   16.80    3.90
  11   4   3   17.50    4.00
 -12  -4   3    2.30    3.00
 -12  -4   3    5.30    3.40
 -12  -4   3    2.90    2.60
  12   4  -3    4.50    2.40
 -12  -4   2   16.90    3.50
 -12  -4   2   14.70    4.20
 -12  -4   2   17.90    3.90
  12   4  -2   16.30    3.10
 -12  -4   1   85.59    6.10
 -12  -4   1   82.99    6.20
 -12  -4   1   77.59    8.50
  12   4  -1   88.39    6.00
  12   4  -1   77.69    5.10
 -12  -4   0    8.20    3.50
 -12  -4   0   17.70    3.00
 -12  -4   0   12.90    2.90
 -12  -4   0    0.60    3.00
  12   4   0   14.50    3.00
  12   4   0   13.60    3.10
  12   4   0   17.90    2.50
 -12  -4  -1   72.19    9.30
 -12  -4  -1   61.19    6.00
 -12  -4  -1   72.59    8.90
  12   4   1   83.09    6.20
  12   4   1   81.39    6.10
 -12  -4  -2   19.00    5.60
 -12  -4  -2   19.40    6.00
  12   4   2   15.00    3.90
  12   4   2   21.90    4.00
 -12  -4  -3    5.50    4.10
 -12  -4  -3    2.80    4.40
  12   4   3    3.10    3.10
  12   4   3    3.20    3.00
 -13  -4   3   14.50    4.60
 -13  -4   3   12.40    3.70
 -13  -4   2   11.10    3.90
 -13  -4   2   11.80    3.30
 -13  -4   2   10.40    4.20
  13   4  -2   15.60    2.90
 -13  -4   1    1.90    2.40
 -13  -4   1   10.10    3.00
 -13  -4   1    5.80    3.20
  13   4  -1    7.20    2.20
  13   4  -1    6.30    2.50
 -13  -4   0   -0.90    2.10
 -13  -4   0    1.10    2.40
 -13  -4   0   -2.90    2.00
  13   4   0    2.00    1.60
  13   4   0    1.30    2.40
 -13  -4  -1   -0.80    3.30
 -13  -4  -1    6.60    4.00
  13   4   1    3.50    2.70
  13   4   1    1.20    2.10
 -13  -4  -2   22.00    6.30
 -13  -4  -2   11.20    5.00
  13   4   2   11.60    3.90
  13   4   2    5.90    3.00
 -13  -4  -3    7.40    5.30
 -13  -4  -3   14.70    5.70
 -14  -4   2    9.00    4.00
 -14  -4   2    5.70    3.60
 -14  -4   2   10.00    3.60
  14   4  -2    5.60    2.70
 -14  -4   1   -2.60    2.60
 -14  -4   1    0.00    2.50
 -14  -4   1    2.60    3.20
  14   4  -1   -2.10    1.80
 -14  -4   0   14.40    3.70
 -14  -4   0   12.20    3.30
 -14  -4   0   16.00    4.60
  14   4   0   12.60    3.50
 -14  -4  -1   -1.20    3.30
 -14  -4  -1    7.60    4.70
  14   4   1   -1.50    2.50
  14   4   1    0.90    2.90
 -14  -4  -2    6.00    4.90
 -14  -4  -2   10.70    5.20
  14   4   2    6.80    3.30
  14   4   2    5.80    3.10
 -15  -4   1    2.50    3.60
 -15  -4   1   -0.80    3.20
 -15  -4   1    0.60    2.80
  15   4  -1   -0.10    1.70
 -15  -4   0   -3.30    3.00
  15   4   0    6.20    3.20
 -15  -4  -1    0.70    3.50
  15   4   1    3.20    3.10
  15   4   1    3.50    3.10
  15  -5   1    8.10    2.70
 -15   5  -1    9.20    4.20
  15  -5   0    7.60    2.70
 -15   5   0   13.20    4.50
  15  -5  -1    7.30    2.60
 -15   5   1   11.90    4.20
  14  -5   2   17.10    4.30
 -14   5  -2   10.00    6.00
 -14   5  -2   13.70    4.80
  14  -5   1   10.80    2.90
 -14   5  -1   10.60    4.00
 -14   5  -1    7.30    5.00
  14  -5   0    6.50    2.30
 -14   5   0    2.90    3.20
  14  -5  -1    8.00    2.50
 -14   5   1    7.30    3.40
  14  -5  -2   15.90    3.50
 -14   5   2   23.60    4.60
 -14   5   2   14.50    4.20
  13  -5   2    0.30    2.00
  13  -5   2   -1.10    2.60
 -13   5  -2   -5.10    3.50
 -13   5  -2   -2.20    3.30
  13  -5   1   22.90    3.50
  13  -5   1   25.50    4.50
 -13   5  -1   28.50    6.60
 -13   5  -1   19.80    4.40
  13  -5   0    0.20    1.70
 -13   5   0    1.40    2.70
  13  -5  -1   24.00    3.30
  13  -5  -1   30.20    3.60
 -13   5   1   25.30    4.80
  13  -5  -2    0.50    1.70
  13  -5  -2   -1.20    1.80
 -13   5   2   -0.10    2.30
 -13   5   2    2.10    2.80
 -13   5   2    1.20    2.70
  12  -5   3    7.00    3.30
  12  -5   3    8.30    3.10
 -12   5  -3    8.90    4.30
 -12   5  -3    2.20    4.70
  12  -5   2   32.10    4.90
 -12   5  -2   29.30    5.80
 -12   5  -2   18.50    6.00
  12  -5   1    2.80    2.00
  12  -5   1    1.10    1.60
 -12   5  -1   -0.60    2.10
 -12   5  -1    2.20    3.10
 -12   5  -1   -1.20    3.40
  12  -5   0    2.10    1.40
  12  -5   0    1.30    1.50
 -12   5   0   -0.10    2.10
  12  -5  -1    4.60    1.80
  12  -5  -1    4.10    1.80
 -12   5   1    1.00    2.50
 -12   5   1    3.40    2.20
  12  -5  -2   29.40    3.90
  12  -5  -2   30.20    3.90
 -12   5   2   31.70    4.50
 -12   5   2   31.60    4.70
 -12   5   2   31.30    5.20
  12  -5  -3    6.00    2.60
  12  -5  -3    5.60    2.70
 -12   5   3   11.50    4.10
 -12   5   3    5.00    3.00
 -12   5   3    6.00    3.30
  11  -5   3   14.60    4.00
  11  -5   3    8.50    2.90
 -11   5  -3   20.00    6.00
 -11   5  -3    4.10    3.70
  11  -5   2   20.90    3.40
  11  -5   2   19.90    4.00
 -11   5  -2   21.30    5.60
 -11   5  -2   25.70    5.30
  11  -5   1   45.10    3.40
  11  -5   1   46.60    4.80
  11  -5   1   44.40    3.80
 -11   5  -1   43.40    5.90
 -11   5  -1   42.20    5.50
 -11   5  -1   41.80    6.80
  11  -5   0    0.00    1.00
  11  -5   0    0.50    1.20
 -11   5   0    0.60    2.90
 -11   5   0   -0.60    1.90
  11  -5  -1   50.79    3.80
  11  -5  -1   43.90    3.70
 -11   5   1   37.20    4.00
 -11   5   1   51.99    4.90
 -11   5   1   45.50    5.80
  11  -5  -2   21.20    3.10
  11  -5  -2   23.40    3.30
 -11   5   2   21.70    4.10
 -11   5   2   23.40    4.40
 -11   5   2   19.20    3.40
  11  -5  -3   15.60    3.30
  11  -5  -3    4.60    2.40
 -11   5   3   11.80    3.90
 -11   5   3   12.60    3.90
 -11   5   3   10.30    3.10
  10  -5   4    8.80    3.10
  10  -5   4    1.80    2.70
 -10   5  -4    1.00    3.30
 -10   5  -4    2.00    4.20
  10  -5   3   58.39    6.50
 -10   5  -3   39.60    6.40
 -10   5  -3   41.30    7.40
  10  -5   2   26.80    4.00
  10  -5   2   21.80    3.30
  10  -5   2   25.60    3.20
 -10   5  -2   19.80    4.40
 -10   5  -2   19.20    4.50
 -10   5  -2   17.70    5.10
  10  -5   1   49.50    4.80
  10  -5   1   38.10    3.40
  10  -5   1   37.90    3.00
 -10   5  -1   35.40    4.70
 -10   5  -1   52.29    6.10
 -10   5  -1   50.09    6.90
  10  -5   0   76.19    4.10
  10  -5   0   71.39    4.30
  10  -5   0   64.69    4.40
 -10   5   0   71.49    7.30
 -10   5   0   79.39    5.90
  10  -5  -1   45.30    3.60
  10  -5  -1   42.00    3.40
 -10   5   1   50.39    4.60
 -10   5   1   45.90    4.00
 -10   5   1   42.70    5.20
  10  -5  -2   27.10    3.40
  10  -5  -2   25.20    3.30
 -10   5   2   28.90    4.50
 -10   5   2   26.70    3.70
 -10   5   2   30.70    4.00
  10  -5  -3   52.49    4.60
  10  -5  -3   55.69    5.50
 -10   5   3   35.80    5.30
 -10   5   3   42.80    5.40
 -10   5   3   36.30    4.80
  10  -5  -4    5.00    2.90
  10  -5  -4    4.30    2.70
 -10   5   4    4.00    3.20
 -10   5   4    1.80    2.60
   9  -5   4   18.10    4.30
   9  -5   4   13.20    3.80
  -9   5  -4   18.70    5.70
  -9   5  -4   10.90    4.20
   9  -5   3   12.40    3.50
   9  -5   3    6.60    2.60
   9  -5   3    7.60    2.40
  -9   5  -3    6.00    3.70
  -9   5  -3    7.20    3.40
   9  -5   2  139.69    7.20
   9  -5   2  148.59    8.30
  -9   5  -2  168.48    8.60
  -9   5  -2  151.28    9.70
  -9   5  -2  146.19   10.70
   9  -5   1   81.39    5.20
  -9   5  -1   80.79    8.20
  -9   5  -1   72.19    6.10
  -9   5  -1   74.29    5.50
   9  -5   0   52.39    3.60
   9  -5   0   53.79    3.40
   9  -5   0   58.79    3.40
  -9   5   0   57.59    4.70
  -9   5   0   49.50    3.50
  -9   5   0   54.19    6.20
  -9   5   0   51.29    4.50
  -9   5   0   57.89    3.40
   9  -5  -1   81.49    4.70
   9  -5  -1   80.69    4.60
  -9   5   1   72.79    4.60
  -9   5   1   86.89    5.20
  -9   5   1   76.29    5.80
   9  -5  -2  173.08    8.00
   9  -5  -2  157.68    7.80
  -9   5   2  155.38    8.30
  -9   5   2  149.49    9.00
  -9   5   2  146.79    8.00
   9  -5  -3    5.30    2.10
   9  -5  -3    7.90    2.50
  -9   5   3    5.10    2.40
  -9   5   3    7.20    2.80
  -9   5   3    6.70    2.80
   9  -5  -4   13.80    3.50
   9  -5  -4    9.30    3.20
  -9   5   4   14.40    4.20
  -9   5   4   18.70    4.10
  -9   5   4   19.00    4.20
   8  -5   4    8.20    3.50
   8  -5   4    4.20    2.60
  -8   5  -4    1.20    3.70
  -8   5  -4    5.70    3.60
   8  -5   3    9.90    2.40
   8  -5   3   11.40    3.00
   8  -5   3    3.90    2.10
  -8   5  -3    7.30    3.40
  -8   5  -3    7.50    3.50
   8  -5   2   42.80    3.70
   8  -5   2   46.20    4.80
   8  -5   2   43.80    3.40
  -8   5  -2   35.80    5.80
  -8   5  -2   44.20    5.80
  -8   5  -2   57.59    5.20
   8  -5   1    7.00    1.90
   8  -5   1    7.50    1.70
   8  -5   1    5.00    1.30
  -8   5  -1    6.10    2.90
  -8   5  -1    6.30    2.30
  -8   5  -1   10.10    2.40
   8  -5   0    0.10    1.00
   8  -5   0    1.20    0.90
   8  -5   0    0.60    0.90
  -8   5   0    2.20    1.60
  -8   5   0    3.00    1.70
  -8   5   0    1.50    1.10
  -8   5   0   -1.80    1.60
  -8   5   0    1.30    0.90
   8  -5  -1    7.00    1.60
   8  -5  -1    8.90    1.80
  -8   5   1   10.00    2.40
  -8   5   1    9.90    2.00
  -8   5   1    6.30    1.90
  -8   5   1    9.20    2.10
   8  -5  -2   48.00    3.70
   8  -5  -2   53.69    4.10
  -8   5   2   44.20    5.10
  -8   5   2   51.59    4.70
  -8   5   2   52.69    4.30
   8  -5  -3    9.90    2.50
   8  -5  -3    7.60    2.40
  -8   5   3    6.40    2.50
  -8   5   3   12.60    2.80
  -8   5   3    4.00    2.50
   8  -5  -4    5.40    2.40
   8  -5  -4    5.80    2.80
  -8   5   4    6.00    2.90
  -8   5   4    5.00    2.90
  -8   5   4    7.20    2.80
  -8   5   4    4.50    2.70
   7  -5   4    4.00    2.50
   7  -5   4    1.80    2.60
   7  -5   4    0.60    2.20
  -7   5  -4   -0.90    2.80
  -7   5  -4    1.80    3.00
   7  -5   3   78.09    5.90
   7  -5   3   73.09    5.20
   7  -5   3   68.09    5.30
  -7   5  -3   77.49    8.70
  -7   5  -3   79.19    8.10
   7  -5   2   12.60    2.10
   7  -5   2    6.80    2.20
   7  -5   2    8.80    2.00
  -7   5  -2    9.40    3.00
  -7   5  -2   12.40    2.40
  -7   5  -2    8.40    3.00
   7  -5   1  253.37   10.50
   7  -5   1  236.58    9.90
   7  -5   1  219.48    9.50
  -7   5  -1  245.28   11.50
  -7   5  -1  258.47   12.80
  -7   5  -1  265.47   10.80
   7  -5   0   14.50    1.80
   7  -5   0   14.10    1.90
   7  -5   0   17.80    1.90
  -7   5   0   12.30    1.80
  -7   5   0   12.40    1.60
  -7   5   0   14.90    2.50
  -7   5   0   11.50    2.90
  -7   5   0   17.70    2.70
   7  -5  -1  259.47   10.30
   7  -5  -1  250.07   10.20
  -7   5   1  263.57   11.60
  -7   5   1  255.47   11.20
  -7   5   1  257.87   10.40
  -7   5   1  265.07   10.70
   7  -5  -2    8.70    2.00
   7  -5  -2    8.70    2.00
  -7   5   2    8.60    2.50
  -7   5   2   10.00    2.20
  -7   5   2   10.00    2.30
   7  -5  -3   82.99    5.70
   7  -5  -3   96.09    5.60
  -7   5   3   85.59    5.50
  -7   5   3   69.19    5.70
  -7   5   3   73.19    5.40
  -7   5   3   83.89    6.30
   7  -5  -4    2.60    2.50
   7  -5  -4   -1.20    1.80
  -7   5   4    3.10    2.40
  -7   5   4    1.50    2.50
  -7   5   4    2.90    2.30
  -7   5   4   -1.90    1.90
   6  -5   5   -0.30    3.00
   6  -5   5    5.00    2.90
   6  -5   5    7.80    3.30
  -6   5  -5    0.70    3.50
  -6   5  -5    2.20    4.00
   6  -5   4    8.00    2.80
   6  -5   4    3.40    2.40
   6  -5   4    1.90    2.20
  -6   5  -4    8.00    3.80
  -6   5  -4    2.50    3.30
   6  -5   3   29.00    3.80
   6  -5   3   32.70    4.20
   6  -5   3   28.40    3.60
  -6   5  -3   34.30    5.60
  -6   5  -3   37.20    5.50
   6  -5   2   13.90    2.20
   6  -5   2   15.10    2.60
   6  -5   2   17.20    2.50
  -6   5  -2   18.30    3.50
  -6   5  -2   14.70    3.80
  -6   5  -2   17.90    2.50
   6  -5   1  137.69    4.90
   6  -5   1  134.29    5.90
   6  -5   1  139.99    6.60
   6  -5   1  136.89    6.20
  -6   5  -1  132.59    4.80
  -6   5  -1  134.09    7.40
  -6   5  -1  128.59    8.10
  -6   5  -1  143.29    6.60
   6  -5   0  396.06   14.50
   6  -5   0  414.66   14.40
   6  -5   0  396.86   14.40
  -6   5   0  386.76   15.20
  -6   5   0  398.96   14.40
  -6   5   0  403.56   15.50
  -6   5   0  389.86   14.20
  -6   5   0  388.86   16.40
   6  -5  -1  139.29    5.20
   6  -5  -1  139.19    6.20
   6  -5  -1  138.79    6.20
  -6   5   1  134.19    6.40
  -6   5   1  142.39    5.60
  -6   5   1  143.09    6.90
  -6   5   1  138.09    7.10
  -6   5   1  141.59    6.30
   6  -5  -2   17.20    2.50
   6  -5  -2   15.40    2.20
  -6   5   2   11.60    2.20
  -6   5   2   13.90    2.80
  -6   5   2   18.60    2.80
   6  -5  -3   30.40    3.60
   6  -5  -3   29.50    3.70
  -6   5   3   26.70    3.90
  -6   5   3   32.80    3.70
  -6   5   3   26.40    4.00
  -6   5   3   32.90    3.90
   6  -5  -4    7.90    2.90
   6  -5  -4    3.50    2.20
  -6   5   4    2.90    2.50
  -6   5   4    4.90    2.50
  -6   5   4    4.10    2.50
  -6   5   4    3.90    2.40
   6  -5  -5    8.90    3.40
   6  -5  -5    2.00    2.30
  -6   5   5   -0.60    2.40
  -6   5   5    3.10    2.80
  -6   5   5    6.10    3.20
   5  -5   5    2.00    2.80
   5  -5   5    2.10    2.90
   5  -5   5    4.90    2.90
  -5   5  -5   -1.80    3.10
  -5   5  -5    2.20    3.10
   5  -5   4   29.70    4.40
   5  -5   4   34.30    4.80
   5  -5   4   32.80    4.40
  -5   5  -4   23.20    5.50
  -5   5  -4   30.10    5.70
   5  -5   3  101.99    6.40
   5  -5   3   89.69    5.60
  -5   5  -3   89.49    7.30
  -5   5  -3   77.39    8.30
   5  -5   2  135.59    6.50
   5  -5   2  140.49    7.20
   5  -5   2  134.89    6.70
  -5   5  -2  135.79    6.20
  -5   5  -2  137.79    8.10
  -5   5  -2  142.99    9.00
   5  -5   1  181.78    7.60
   5  -5   1  185.18    8.00
   5  -5   1  187.08    7.50
  -5   5  -1  178.88    9.70
  -5   5  -1  194.08    7.90
  -5   5  -1  184.88    8.90
   5  -5   0  374.66   13.60
   5  -5   0  359.86   13.50
   5  -5   0  386.96   13.50
  -5   5   0  365.36   14.20
  -5   5   0  395.56   13.50
  -5   5   0  373.36   14.40
  -5   5   0  398.46   13.40
  -5   5   0  349.77   15.20
   5  -5  -1  175.78    7.50
   5  -5  -1  185.38    7.60
  -5   5   1  194.98    8.60
  -5   5   1  185.28    8.10
  -5   5   1  194.68    7.80
  -5   5   1  186.58    7.90
   5  -5  -2  149.99    6.90
   5  -5  -2  144.79    6.60
  -5   5   2  146.99    7.60
  -5   5   2  140.59    7.10
  -5   5   2  138.19    6.80
   5  -5  -3  105.49    6.20
   5  -5  -3  101.59    5.80
  -5   5   3  101.89    6.00
  -5   5   3  102.59    5.90
  -5   5   3   91.09    6.20
  -5   5   3  100.89    6.50
   5  -5  -4   37.60    4.70
   5  -5  -4   37.00    4.50
  -5   5   4   25.80    4.20
  -5   5   4   45.90    5.00
  -5   5   4   24.50    4.10
  -5   5   4   36.60    4.70
   5  -5  -5    0.40    2.70
   5  -5  -5    0.20    2.30
  -5   5   5   -2.60    2.10
  -5   5   5    1.10    2.80
  -5   5   5    1.40    2.20
  -5   5   5    4.60    3.00
   4  -5   5    0.50    2.70
   4  -5   5    6.40    3.30
   4  -5   5    6.50    3.60
  -4   5  -5    2.50    3.10
  -4   5  -5    2.80    3.50
  -4   5  -5    4.30    3.00
   4  -5   4    3.40    2.30
   4  -5   4    5.30    2.30
   4  -5   4    3.70    2.40
  -4   5  -4    0.70    2.60
  -4   5  -4    3.90    2.90
   4  -5   3   42.10    4.60
   4  -5   3   53.29    4.20
   4  -5   3   46.80    4.00
  -4   5  -3   40.70    5.40
  -4   5  -3   36.00    5.40
   4  -5   2  288.17   11.70
   4  -5   2  297.77   12.30
   4  -5   2  280.27   11.90
  -4   5  -2  308.67   13.60
  -4   5  -2  283.37   14.00
  -4   5  -2  313.07   11.00
   4  -5   1  836.12   28.00
   4  -5   1  781.82   28.10
   4  -5   1  785.02   28.40
  -4   5  -1  809.92   30.40
  -4   5  -1  818.52   29.50
  -4   5  -1  829.12   28.00
   4  -5   0  412.66   14.10
   4  -5   0  402.26   14.20
   4  -5   0  404.26   14.20
  -4   5   0  406.16   14.90
  -4   5   0  390.66   14.80
  -4   5   0  390.96   14.10
  -4   5   0  380.16   15.70
  -4   5   0  409.26   14.00
   4  -5  -1  858.01   28.10
   4  -5  -1  797.42   27.80
  -4   5   1  790.22   28.00
  -4   5   1  795.32   28.30
  -4   5   1  800.82   28.30
  -4   5   1  814.42   28.90
   4  -5  -2  292.57   12.00
   4  -5  -2  319.77   11.80
  -4   5   2  297.77   12.60
  -4   5   2  295.97   11.90
  -4   5   2  326.17   11.90
  -4   5   2  307.37   12.30
  -4   5   2  272.47   10.80
   4  -5  -3   43.30    3.60
   4  -5  -3   47.00    3.90
  -4   5   3   45.00    4.80
  -4   5   3   43.70    4.20
  -4   5   3   37.30    4.20
  -4   5   3   43.50    3.70
   4  -5  -4    0.90    1.90
   4  -5  -4   -1.40    1.70
  -4   5   4    3.30    2.40
  -4   5   4    1.80    1.80
  -4   5   4    0.80    1.80
  -4   5   4    1.90    2.10
   4  -5  -5    4.30    2.90
   4  -5  -5    1.90    3.70
   4  -5  -5    5.70    2.70
  -4   5   5    8.80    3.10
  -4   5   5    3.10    2.70
  -4   5   5    3.70    2.60
  -4   5   5    2.70    2.90
   3  -5   5    8.40    3.20
   3  -5   5    5.90    3.00
  -3   5  -5    2.40    2.80
  -3   5  -5    5.90    2.80
   3  -5   4   67.39    5.70
   3  -5   4   82.99    6.00
   3  -5   4   70.49    5.80
  -3   5  -4   83.09    8.50
  -3   5  -4   74.19    8.10
   3  -5   3   33.70    4.00
   3  -5   3   39.80    4.30
   3  -5   3   42.50    4.20
  -3   5  -3   41.50    5.40
  -3   5  -3   36.00    5.30
   3  -5   2   23.10    2.60
   3  -5   2   24.80    1.30
   3  -5   2   20.20    2.60
   3  -5   2   23.60    1.30
   3  -5   2   27.30    3.10
  -3   5  -2   18.30    3.30
  -3   5  -2   24.30    1.50
  -3   5  -2   22.50    3.50
   3  -5   1 1756.32   60.99
   3  -5   1 1806.92   60.79
   3  -5   1 1861.41   60.69
   3  -5   1 1794.52   59.69
  -3   5  -1 1713.53   62.59
  -3   5  -1 1853.01   62.09
  -3   5  -1 1858.11   60.29
   3  -5   0   59.99    2.70
   3  -5   0   55.19    2.80
   3  -5   0   58.19    3.00
   3  -5   0   56.59    2.80
  -3   5   0   59.49    3.90
  -3   5   0   61.49    2.80
  -3   5   0   60.29    2.60
  -3   5   0   56.39    3.20
  -3   5   0   58.49    3.10
   3  -5  -1 1823.82   60.59
   3  -5  -1 1900.31   60.89
  -3   5   1 1784.92   60.99
  -3   5   1 1794.22   60.89
  -3   5   1 1808.22   61.49
  -3   5   1 1758.92   60.89
   3  -5  -2   20.70    2.40
   3  -5  -2   26.80    2.20
  -3   5   2   22.10    2.90
  -3   5   2   20.10    2.30
  -3   5   2   23.60    1.70
  -3   5   2   25.10    2.60
  -3   5   2   29.40    3.00
   3  -5  -3   34.90    3.70
   3  -5  -3   36.30    3.20
  -3   5   3   37.30    4.10
  -3   5   3   32.60    3.80
  -3   5   3   36.40    3.60
  -3   5   3   38.90    3.80
   3  -5  -4   94.89    6.50
   3  -5  -4   83.39    5.90
  -3   5   4   81.09    5.90
  -3   5   4   74.29    5.80
  -3   5   4   77.69    5.60
  -3   5   4   91.39    6.00
   3  -5  -5    1.00    3.30
   3  -5  -5    5.10    2.70
   3  -5  -5    3.20    2.70
  -3   5   5    7.10    3.10
  -3   5   5    0.50    2.20
  -3   5   5    4.00    2.80
  -3   5   5    0.40    2.50
   2  -5   5   -3.10    2.60
   2  -5   5    3.20    2.80
  -2   5  -5    4.90    3.20
  -2   5  -5    0.00    2.30
   2  -5   4   15.20    3.30
   2  -5   4    9.70    2.70
   2  -5   4   14.20    3.30
  -2   5  -4    6.10    2.50
  -2   5  -4   11.40    3.30
  -2   5  -4    9.20    3.20
   2  -5   3    2.20    1.50
   2  -5   3    2.20    1.60
   2  -5   3    4.30    1.80
  -2   5  -3    1.20    1.80
  -2   5  -3    3.70    2.10
   2  -5   2  306.17   10.50
   2  -5   2  304.57   10.60
   2  -5   2  285.67   11.90
   2  -5   2  282.87   11.60
  -2   5  -2  293.37   13.30
  -2   5  -2  294.27   13.00
   2  -5   1   38.80    2.60
   2  -5   1   38.60    2.40
   2  -5   1   41.60    2.40
   2  -5   1   40.60    1.80
   2  -5   1   39.80    1.90
  -2   5  -1   38.90    1.80
  -2   5  -1   46.20    3.60
  -2   5  -1   45.80    3.30
   2  -5   0 4502.05  144.99
   2  -5   0 4385.06  144.79
   2  -5   0 4655.13  144.69
   2  -5   0 4305.37  145.09
  -2   5   0 4447.06  144.69
  -2   5   0 4175.48  145.19
  -2   5   0 4390.36  145.09
  -2   5   0 4393.16  144.79
  -2   5   0 4206.38  145.99
   2  -5  -1   40.40    2.10
   2  -5  -1   42.50    2.30
   2  -5  -1   40.00    2.80
  -2   5   1   37.90    2.40
  -2   5   1   39.70    2.40
  -2   5   1   44.40    2.60
  -2   5   1   37.50    2.60
   2  -5  -2  305.07   11.50
   2  -5  -2  309.17   11.80
   2  -5  -2  304.87   11.00
  -2   5   2  282.57   11.80
  -2   5   2  311.87   12.40
  -2   5   2  307.97   11.50
  -2   5   2  295.07   10.50
  -2   5   2  290.27   11.00
  -2   5   2  290.07   11.60
   2  -5  -3    1.70    1.70
   2  -5  -3    5.10    1.70
   2  -5  -3    3.10    1.40
  -2   5   3    2.10    1.30
  -2   5   3    3.90    1.30
  -2   5   3    2.30    1.70
  -2   5   3    2.80    1.30
  -2   5   3    2.20    1.40
  -2   5   3    3.30    1.50
   2  -5  -4   13.40    2.90
   2  -5  -4   17.30    3.10
   2  -5  -4   15.80    3.60
  -2   5   4   15.60    3.10
  -2   5   4   12.00    2.70
  -2   5   4    9.70    2.60
  -2   5   4   11.00    2.70
  -2   5   4   13.50    2.90
   2  -5  -5    0.30    2.80
   2  -5  -5    1.20    2.30
   2  -5  -5    2.30    2.60
   2  -5  -5    3.00    2.40
  -2   5   5    1.90    2.60
  -2   5   5    2.70    2.50
  -2   5   5    2.90    2.50
  -2   5   5   -1.20    2.00
  -2   5   5    2.90    2.70
   1  -5   5    2.60    2.70
   1  -5   5    7.00    3.10
  -1   5  -5    3.30    2.50
  -1   5  -5    3.30    3.20
   1  -5   4   21.40    3.70
   1  -5   4   23.00    3.80
  -1   5  -4   16.00    3.70
  -1   5  -4   15.30    3.70
  -1   5  -4   21.70    3.80
   1  -5   3   27.20    2.60
   1  -5   3   22.00    3.10
   1  -5   3   23.00    3.20
   1  -5   3   25.90    2.40
  -1   5  -3   21.50    3.60
  -1   5  -3   24.10    3.80
   1  -5   2  355.16   12.80
   1  -5   2  354.66   13.80
   1  -5   2  352.16   13.80
   1  -5   2  358.96   12.70
  -1   5  -2  360.46   15.10
  -1   5  -2  367.66   15.10
   1  -5   1   28.60    1.60
   1  -5   1   35.90    2.10
   1  -5   1   28.00    1.60
   1  -5   1   29.10    2.00
  -1   5  -1   29.50    3.10
  -1   5  -1   26.30    2.70
   1  -5   0 7021.50  221.28
   1  -5   0 7092.49  221.38
   1  -5   0 6725.43  220.38
   1  -5   0 6638.64  220.48
  -1   5   0 6313.17  220.98
  -1   5   0 6340.87  220.48
  -1   5   0 6668.43  220.28
  -1   5   0 6630.34  220.08
  -1   5   0 6686.03  219.98
   1  -5  -1   31.60    2.50
   1  -5  -1   28.00    1.60
   1  -5  -1   29.60    2.20
   1  -5  -1   26.70    1.80
  -1   5   1   26.10    1.90
  -1   5   1   29.00    1.50
  -1   5   1   29.50    2.00
  -1   5   1   26.60    1.90
  -1   5   1   31.20    2.30
   1  -5  -2  369.26   13.80
   1  -5  -2  358.76   14.50
   1  -5  -2  373.16   13.60
  -1   5   2  358.56   13.90
  -1   5   2  380.26   13.50
  -1   5   2  364.06   13.00
  -1   5   2  382.26   13.90
  -1   5   2  379.86   13.60
  -1   5   2  358.66   14.30
  -1   5   2  336.97   13.30
   1  -5  -3   25.20    3.60
   1  -5  -3   24.10    3.00
   1  -5  -3   27.10    3.20
   1  -5  -3   26.80    3.00
  -1   5   3   19.10    2.20
  -1   5   3   31.70    3.00
  -1   5   3   26.00    3.10
  -1   5   3   25.10    2.90
  -1   5   3   23.30    2.90
  -1   5   3   22.50    3.20
  -1   5   3   28.20    2.90
   1  -5  -4   36.00    5.00
   1  -5  -4   24.10    3.70
   1  -5  -4   28.70    3.90
   1  -5  -4   23.80    3.90
  -1   5   4   25.90    3.40
  -1   5   4   17.00    3.30
  -1   5   4   28.20    3.80
  -1   5   4   28.50    3.80
  -1   5   4   25.60    3.70
   1  -5  -5    5.10    3.10
   1  -5  -5    1.80    2.20
   1  -5  -5    3.90    2.60
   1  -5  -5    6.70    3.30
  -1   5   5    3.40    2.30
  -1   5   5    1.00    2.40
  -1   5   5    3.20    2.80
  -1   5   5   11.70    3.20
   0  -5   5    1.70    2.70
   0  -5   5    4.90    3.00
   0   5  -5    1.00    2.50
   0   5  -5    1.10    2.30
   0  -5   4   14.70    3.40
   0  -5   4   16.50    3.40
   0   5  -4   12.50    3.00
   0   5  -4    8.10    2.80
   0  -5   3    0.10    1.00
   0  -5   3   -0.80    1.20
   0  -5   3    1.40    1.40
   0  -5   3    0.40    1.10
   0   5  -3    0.20    1.50
   0   5  -3    0.40    1.40
   0   5  -3   -0.70    1.30
   0  -5   2  110.49    4.60
   0  -5   2  102.39    4.70
   0  -5   2  102.99    5.30
   0  -5   2  104.19    5.30
   0   5  -2  106.19    6.10
   0   5  -2  104.09    6.00
   0  -5   1  922.71   31.80
   0  -5   1  933.11   31.60
   0  -5   1  910.11   31.80
   0  -5   1  964.10   31.50
   0   5  -1  950.80   32.90
   0   5  -1  905.41   32.70
   0  -5   0    0.40    0.30
   0  -5   0    0.50    0.30
   0  -5   0   -0.50    0.60
   0  -5   0    0.10    0.60
   0   5   0    0.10    0.60
   0   5   0   -0.10    0.60
   0   5   0    0.50    0.50
   0   5   0   -0.40    0.60
   0  -5  -1  956.70   32.60
   0  -5  -1  929.61   32.30
   0  -5  -1  952.30   31.60
   0  -5  -1  945.01   31.20
   0   5   1  902.51   31.40
   0   5   1  916.41   31.90
   0   5   1  944.41   32.00
   0   5   1  946.51   31.80
   0   5   1  921.31   32.30
   0  -5  -2  109.09    5.10
   0  -5  -2  108.89    5.00
   0  -5  -2  107.19    5.50
   0  -5  -2  118.69    5.90
   0   5   2  117.09    5.00
   0   5   2  113.09    5.20
   0   5   2  111.99    4.80
   0   5   2   96.59    5.50
   0   5   2   99.09    4.90
   0   5   2  108.09    5.30
   0   5   2  109.69    4.80
   0  -5  -3    2.40    1.30
   0  -5  -3    1.10    1.30
   0  -5  -3   -1.00    1.30
   0  -5  -3   -0.30    1.20
   0  -5  -3   -0.10    1.30
   0   5   3    0.50    1.30
   0   5   3    0.40    1.10
   0   5   3    2.30    1.10
   0   5   3   -0.30    1.00
   0   5   3   -0.20    1.30
   0   5   3   -0.10    1.10
   0   5   3    0.90    1.00
   0  -5  -4   13.00    2.90
   0  -5  -4   12.90    2.90
   0  -5  -4   15.30    3.60
   0  -5  -4   13.90    3.10
   0   5   4   13.00    2.80
   0   5   4   16.60    3.00
   0   5   4   15.10    2.90
   0   5   4   15.20    3.00
   0   5   4   12.50    2.60
   0  -5  -5   -0.60    2.30
   0  -5  -5    1.00    2.40
   0  -5  -5    3.20    3.00
   0  -5  -5    2.70    2.70
   0   5   5   -3.40    2.10
   0   5   5    2.40    2.20
   0   5   5    4.70    2.80
   0   5   5    2.00    2.40
  -1  -5   5    3.40    3.10
  -1  -5   5    4.50    3.00
   1   5  -5    3.80    2.60
   1   5  -5    0.40    2.80
  -1  -5   4   21.90    3.20
  -1  -5   4   21.80    3.70
  -1  -5   4   31.70    3.50
  -1  -5   4   26.20    4.10
   1   5  -4   15.80    3.60
   1   5  -4   26.40    4.20
  -1  -5   3   26.90    3.40
  -1  -5   3   27.70    2.80
  -1  -5   3   19.40    2.90
  -1  -5   3   23.60    2.70
   1   5  -3   24.30    3.40
   1   5  -3   16.90    3.30
   1   5  -3   18.10    3.00
  -1  -5   2  344.17   13.10
  -1  -5   2  371.96   13.80
  -1  -5   2  373.96   12.30
  -1  -5   2  344.17   13.60
  -1  -5   2  348.17   13.00
   1   5  -2  337.07   13.90
   1   5  -2  352.16   14.20
   1   5  -2  352.46   14.50
  -1  -5   1   27.00    1.90
  -1  -5   1   28.60    2.10
  -1  -5   1   29.60    1.90
  -1  -5   1   29.80    1.90
  -1  -5   1   26.10    1.90
   1   5  -1   27.90    2.60
   1   5  -1   31.70    2.60
  -1  -5   0 6657.83  218.58
  -1  -5   0 6319.07  217.98
  -1  -5   0 7202.18  218.28
  -1  -5   0 6816.02  218.18
  -1  -5   0 6112.19  218.18
   1   5   0 6486.75  217.98
   1   5   0 6465.05  217.88
   1   5   0 6708.63  217.58
  -1  -5  -1   32.20    3.40
  -1  -5  -1   30.90    2.30
  -1  -5  -1   27.70    1.40
  -1  -5  -1   31.50    1.70
  -1  -5  -1   34.20    2.60
   1   5   1   28.30    1.80
   1   5   1   31.70    2.00
   1   5   1   26.20    2.20
   1   5   1   30.30    2.00
   1   5   1   29.50    2.00
  -1  -5  -2  346.27   13.10
  -1  -5  -2  362.86   13.20
  -1  -5  -2  380.56   13.90
  -1  -5  -2  350.96   14.10
   1   5   2  361.56   13.00
   1   5   2  345.07   12.90
   1   5   2  363.86   13.40
   1   5   2  351.56   13.30
   1   5   2  350.46   13.80
   1   5   2  340.47   13.10
   1   5   2  356.96   13.20
  -1  -5  -3   21.90    3.00
  -1  -5  -3   15.90    3.50
  -1  -5  -3   21.60    3.30
  -1  -5  -3   24.80    3.00
  -1  -5  -3   22.80    2.80
  -1  -5  -3   22.00    3.30
   1   5   3   21.00    2.50
   1   5   3   25.10    2.80
   1   5   3   21.40    2.60
   1   5   3   24.10    3.10
   1   5   3   25.50    2.80
   1   5   3   24.30    2.80
   1   5   3   28.20    2.80
  -1  -5  -4   19.10    3.70
  -1  -5  -4   28.80    4.00
  -1  -5  -4   24.10    3.60
  -1  -5  -4   26.00    4.60
  -1  -5  -4   21.00    3.40
  -1  -5  -4   33.20    5.40
   1   5   4   24.80    3.30
   1   5   4   29.50    3.60
   1   5   4   22.90    3.30
   1   5   4   22.30    3.60
   1   5   4   27.10    3.30
   1   5   4   18.40    2.80
  -1  -5  -5    5.10    3.30
  -1  -5  -5    0.50    2.30
  -1  -5  -5    5.70    2.60
  -1  -5  -5    4.30    2.90
   1   5   5    2.60    2.40
   1   5   5    1.90    2.20
   1   5   5    3.80    2.30
  -2  -5   5   -2.20    2.60
  -2  -5   5    2.40    3.10
   2   5  -5    1.30    2.50
   2   5  -5    2.80    2.30
   2   5  -5    1.20    2.40
  -2  -5   4   10.90    3.00
  -2  -5   4   11.20    2.40
  -2  -5   4   14.00    3.30
  -2  -5   4   11.40    2.70
   2   5  -4   14.60    3.30
   2   5  -4   16.30    3.60
  -2  -5   3   -0.20    1.40
  -2  -5   3    1.10    1.40
  -2  -5   3    5.60    2.00
  -2  -5   3    1.10    1.20
   2   5  -3    1.40    1.80
   2   5  -3    2.30    1.80
   2   5  -3    2.80    1.70
  -2  -5   2  304.47   11.00
  -2  -5   2  305.47   12.10
  -2  -5   2  284.17   11.40
  -2  -5   2  283.77   11.90
  -2  -5   2  303.37   11.70
   2   5  -2  318.47   12.20
   2   5  -2  305.47   12.30
   2   5  -2  310.47   12.90
  -2  -5   1   43.00    2.40
  -2  -5   1   45.00    2.60
  -2  -5   1   36.50    2.30
  -2  -5   1   41.80    2.40
  -2  -5   1   39.10    2.90
   2   5  -1   37.70    2.90
   2   5  -1   38.40    2.50
   2   5  -1   42.20    2.60
  -2  -5   0 4391.86  142.89
  -2  -5   0 4651.53  142.99
  -2  -5   0 4077.19  144.29
  -2  -5   0 4304.87  144.99
   2   5   0 4238.58  143.99
   2   5   0 4441.16  143.79
   2   5   0 4314.87  143.69
   2   5   0 4285.87  142.89
  -2  -5  -1   39.00    2.80
  -2  -5  -1   37.00    3.90
  -2  -5  -1   43.50    1.90
  -2  -5  -1   38.80    1.80
  -2  -5  -1   40.90    3.00
   2   5   1   44.30    2.40
   2   5   1   43.00    2.70
   2   5   1   43.80    2.50
   2   5   1   41.40    1.80
   2   5   1   39.10    2.30
   2   5   1   43.10    2.60
  -2  -5  -2  301.37   13.60
  -2  -5  -2  294.37   11.40
  -2  -5  -2  301.87   12.40
  -2  -5  -2  303.07   11.30
  -2  -5  -2  307.67   12.10
   2   5   2  292.77   11.10
   2   5   2  304.57   11.20
   2   5   2  294.17   11.80
   2   5   2  305.67   11.40
   2   5   2  322.57   11.70
   2   5   2  294.17   11.60
   2   5   2  306.27   12.20
  -2  -5  -3    3.00    1.50
  -2  -5  -3    5.30    2.50
  -2  -5  -3    2.00    1.40
  -2  -5  -3    4.20    1.90
  -2  -5  -3    2.40    1.40
   2   5   3    4.10    1.50
   2   5   3    1.50    1.30
   2   5   3    2.90    1.70
   2   5   3    3.80    1.60
   2   5   3    5.60    1.70
   2   5   3    3.10    1.30
   2   5   3    2.10    1.20
  -2  -5  -4    9.40    3.00
  -2  -5  -4    9.70    3.40
  -2  -5  -4   15.10    3.10
  -2  -5  -4    9.40    2.30
  -2  -5  -4   12.90    2.80
  -2  -5  -4    8.30    3.00
  -2  -5  -4    6.50    2.80
   2   5   4   12.50    2.50
   2   5   4   14.10    2.90
   2   5   4   11.00    2.60
   2   5   4   13.40    2.90
   2   5   4   10.80    2.60
   2   5   4    9.90    2.30
   2   5   4   12.90    2.50
  -2  -5  -5   -4.30    3.00
  -2  -5  -5    0.20    2.20
  -2  -5  -5    0.20    2.20
   2   5   5   -0.70    2.00
   2   5   5    1.10    2.80
  -3  -5   5    3.40    3.10
  -3  -5   5    8.80    3.70
   3   5  -5    3.20    2.90
   3   5  -5    5.80    2.70
  -3  -5   4   86.69    6.20
  -3  -5   4   89.49    5.60
  -3  -5   4   72.29    6.00
  -3  -5   4   74.69    5.50
   3   5  -4   82.79    6.50
   3   5  -4   90.69    6.90
  -3  -5   3   37.10    4.00
  -3  -5   3   37.20    4.20
  -3  -5   3   41.80    3.80
  -3  -5   3   36.50    3.70
   3   5  -3   38.20    4.30
   3   5  -3   31.50    4.20
  -3  -5   2   27.90    2.80
  -3  -5   2   25.40    2.70
  -3  -5   2   28.30    2.70
  -3  -5   2   24.50    2.40
  -3  -5   2   24.00    2.70
   3   5  -2   26.70    2.50
   3   5  -2   21.00    2.70
   3   5  -2   22.90    3.10
  -3  -5   1 1824.92   61.89
  -3  -5   1 1753.62   60.69
  -3  -5   1 1830.12   60.59
  -3  -5   1 1776.72   60.69
  -3  -5   1 1835.62   60.99
   3   5  -1 1922.61   60.79
   3   5  -1 1753.92   60.69
   3   5  -1 1763.92   61.59
  -3  -5   0   51.89    3.40
  -3  -5   0   58.59    2.40
  -3  -5   0   59.29    3.40
  -3  -5   0   59.39    4.30
   3   5   0   56.69    3.00
   3   5   0   54.99    3.00
   3   5   0   59.99    2.40
   3   5   0   54.99    3.20
  -3  -5  -1 1813.22   61.49
  -3  -5  -1 1792.32   61.79
  -3  -5  -1 1800.22   63.09
  -3  -5  -1 1862.11   59.69
   3   5   1 1750.12   60.79
   3   5   1 1798.52   60.99
   3   5   1 1852.91   59.89
   3   5   1 1775.92   61.19
  -3  -5  -2   21.00    1.80
  -3  -5  -2   25.70    3.10
  -3  -5  -2   31.00    3.10
  -3  -5  -2   28.70    4.30
   3   5   2   24.30    2.60
   3   5   2   25.00    2.00
   3   5   2   24.00    1.80
   3   5   2   26.40    2.90
   3   5   2   25.40    2.50
   3   5   2   25.30    2.70
   3   5   2   22.90    2.30
  -3  -5  -3   39.10    5.50
  -3  -5  -3   30.30    3.30
  -3  -5  -3   33.80    2.90
  -3  -5  -3   38.20    4.20
  -3  -5  -3   33.50    3.70
   3   5   3   31.50    3.60
   3   5   3   32.20    3.50
   3   5   3   37.30    3.20
   3   5   3   34.40    2.70
   3   5   3   33.70    3.40
   3   5   3   32.90    3.20
   3   5   3   33.70    3.60
  -3  -5  -4   74.69    5.40
  -3  -5  -4   66.59    8.10
  -3  -5  -4   79.09    5.70
  -3  -5  -4   73.59    5.20
  -3  -5  -4   86.29    6.40
  -3  -5  -4   76.99    6.70
  -3  -5  -4   79.69    8.20
   3   5   4   91.49    5.90
   3   5   4   70.29    5.30
   3   5   4   77.49    5.20
   3   5   4   77.19    5.30
   3   5   4   73.39    4.70
   3   5   4   78.89    5.10
   3   5   4   79.99    5.40
  -4  -5   5    7.00    3.40
  -4  -5   5    4.00    2.70
  -4  -5   5    8.60    3.80
  -4  -5   5   -0.20    2.60
   4   5  -5    4.10    2.80
   4   5  -5    3.30    2.80
  -4  -5   4    0.20    2.10
  -4  -5   4    0.00    2.10
  -4  -5   4    3.80    2.00
  -4  -5   4    2.20    2.20
   4   5  -4   -1.60    1.90
   4   5  -4    1.80    2.30
   4   5  -4    3.30    2.30
  -4  -5   3   45.40    4.40
  -4  -5   3   39.30    4.40
  -4  -5   3   41.10    4.20
  -4  -5   3   48.50    4.30
   4   5  -3   32.40    4.30
   4   5  -3   49.00    4.20
  -4  -5   2  311.87   12.30
  -4  -5   2  284.77   12.10
  -4  -5   2  313.67   12.10
  -4  -5   2  300.27   12.10
  -4  -5   2  309.17   12.10
   4   5  -2  304.27   12.90
   4   5  -2  314.87   11.40
   4   5  -2  288.97   12.30
  -4  -5   1  789.92   28.00
  -4  -5   1  833.52   28.30
  -4  -5   1  804.32   29.50
  -4  -5   1  811.62   27.90
  -4  -5   1  819.12   28.50
   4   5  -1  861.81   27.90
   4   5  -1  791.82   28.00
   4   5  -1  765.02   28.80
  -4  -5   0  358.56   16.30
  -4  -5   0  408.76   14.80
  -4  -5   0  382.76   14.90
   4   5   0  380.26   14.60
   4   5   0  403.86   14.50
   4   5   0  420.36   13.60
  -4  -5  -1  799.52   29.20
  -4  -5  -1  783.22   28.80
  -4  -5  -1  802.92   30.90
   4   5   1  799.02   28.70
   4   5   1  810.62   28.30
   4   5   1  845.72   27.30
   4   5   1  813.12   28.50
  -4  -5  -2  279.47   10.40
  -4  -5  -2  277.67   13.80
  -4  -5  -2  285.27   11.90
  -4  -5  -2  305.27   12.40
   4   5   2  281.67   11.70
   4   5   2  288.77   11.00
   4   5   2  279.07   11.50
   4   5   2  278.37   10.30
   4   5   2  297.77   10.80
   4   5   2  281.97   11.80
  -4  -5  -3   38.30    4.30
  -4  -5  -3   36.20    3.00
  -4  -5  -3   40.00    4.10
  -4  -5  -3   50.89    6.30
  -4  -5  -3   41.00    3.40
  -4  -5  -3   37.10    5.40
   4   5   3   43.00    3.10
   4   5   3   34.90    2.80
   4   5   3   45.70    3.70
   4   5   3   45.70    3.40
   4   5   3   40.40    3.30
   4   5   3   48.70    3.80
   4   5   3   43.40    4.30
  -4  -5  -4    0.90    3.20
  -4  -5  -4    2.50    2.30
  -4  -5  -4    2.40    2.00
  -4  -5  -4    3.00    2.60
  -4  -5  -4    0.00    2.50
   4   5   4    4.30    1.90
   4   5   4    0.60    1.90
   4   5   4    3.50    2.00
   4   5   4    4.50    1.90
   4   5   4    0.40    1.60
  -5  -5   5   -2.10    2.90
  -5  -5   5   -0.20    2.50
  -5  -5   5   -0.60    2.20
  -5  -5   5   -0.30    2.60
   5   5  -5    0.70    2.50
   5   5  -5    0.30    2.30
  -5  -5   4   37.00    4.90
  -5  -5   4   38.80    4.90
  -5  -5   4   41.20    5.10
  -5  -5   4   36.70    4.50
   5   5  -4   28.10    4.40
   5   5  -4   38.10    5.20
   5   5  -4   32.70    4.80
  -5  -5   3  114.99    6.30
  -5  -5   3  102.79    6.40
  -5  -5   3   96.59    5.80
  -5  -5   3   97.69    6.20
   5   5  -3   95.39    6.50
   5   5  -3   88.79    6.20
   5   5  -3   99.59    6.30
  -5  -5   2  141.19    6.70
  -5  -5   2  130.49    6.70
  -5  -5   2  139.89    7.00
  -5  -5   2  144.79    7.00
  -5  -5   2  136.69    6.60
   5   5  -2  138.49    7.30
   5   5  -2  142.99    5.80
   5   5  -2  136.29    6.80
  -5  -5   1  191.58    9.30
  -5  -5   1  188.48    7.60
  -5  -5   1  186.58    8.20
  -5  -5   1  192.98    8.00
   5   5  -1  180.38    7.60
   5   5  -1  199.18    7.60
   5   5  -1  186.08    8.40
  -5  -5   0  355.36   12.60
  -5  -5   0  382.76   14.20
  -5  -5   0  333.67   15.90
  -5  -5   0  360.26   13.80
   5   5   0  389.96   13.80
   5   5   0  390.86   14.00
   5   5   0  349.57   12.60
   5   5   0  384.16   13.00
  -5  -5  -1  178.38    8.30
  -5  -5  -1  181.78    8.60
  -5  -5  -1  192.48   10.50
   5   5   1  187.78    8.10
   5   5   1  181.98    8.30
   5   5   1  195.68    7.00
   5   5   1  185.78    8.00
  -5  -5  -2  134.39    6.90
  -5  -5  -2  129.09    5.70
  -5  -5  -2  132.79    7.30
  -5  -5  -2  110.79    8.30
   5   5   2  127.09    6.50
   5   5   2  132.49    6.80
   5   5   2  138.19    5.80
   5   5   2  134.39    6.70
  -5  -5  -3   95.59    6.00
  -5  -5  -3   94.19    9.20
  -5  -5  -3   80.19    8.30
  -5  -5  -3   92.79    6.30
   5   5   3   93.19    5.90
   5   5   3   99.89    5.30
   5   5   3   89.29    5.80
   5   5   3   91.99    5.90
   5   5   3   92.19    5.00
   5   5   3  101.49    5.40
  -5  -5  -4   39.10    6.10
  -5  -5  -4   23.10    5.90
  -5  -5  -4   27.40    4.80
  -5  -5  -4   28.30    5.00
   5   5   4   35.30    4.40
   5   5   4   33.10    4.40
   5   5   4   34.20    4.40
  -5  -5  -5    2.20    3.10
  -5  -5  -5    3.00    3.00
   5   5   5    1.10    2.50
   5   5   5   -2.30    2.10
  -6  -5   5    0.30    2.40
  -6  -5   5    4.30    3.00
  -6  -5   5   -1.40    3.20
  -6  -5   5    3.90    3.10
   6   5  -5    1.80    2.60
   6   5  -5    3.80    2.70
  -6  -5   4    4.30    2.70
  -6  -5   4   10.10    3.10
  -6  -5   4    7.30    3.20
  -6  -5   4    3.60    2.20
   6   5  -4    1.90    2.20
   6   5  -4    8.10    2.90
  -6  -5   3   31.70    4.00
  -6  -5   3   28.70    3.80
  -6  -5   3   27.50    3.70
  -6  -5   3   27.70    3.60
  -6  -5   3   39.60    4.10
   6   5  -3   29.10    4.20
   6   5  -3   27.90    3.80
   6   5  -3   32.40    4.30
  -6  -5   2   17.60    2.90
  -6  -5   2   13.80    2.40
  -6  -5   2   17.20    2.50
  -6  -5   2   16.50    2.70
   6   5  -2   12.30    2.30
   6   5  -2   14.30    2.60
   6   5  -2   13.40    2.30
  -6  -5   1  150.48    8.20
  -6  -5   1  131.79    5.90
  -6  -5   1  141.59    6.80
  -6  -5   1  151.38    6.70
   6   5  -1  136.49    6.10
   6   5  -1  139.79    6.80
   6   5  -1  154.98    6.20
   6   5  -1  140.59    6.10
  -6  -5   0  400.16   15.00
  -6  -5   0  397.96   15.20
  -6  -5   0  398.96   17.90
  -6  -5   0  396.56   13.50
   6   5   0  388.26   13.50
   6   5   0  408.56   15.10
   6   5   0  406.56   14.90
   6   5   0  393.66   14.10
  -6  -5  -1  135.59    7.20
  -6  -5  -1  143.39    7.00
  -6  -5  -1  124.29    9.00
   6   5   1  155.88    7.00
   6   5   1  142.89    6.90
   6   5   1  150.88    5.80
  -6  -5  -2    6.90    3.30
  -6  -5  -2   18.50    3.10
  -6  -5  -2   20.40    3.10
   6   5   2   17.80    2.70
   6   5   2   15.80    2.70
   6   5   2   16.30    2.60
   6   5   2   14.10    1.80
  -6  -5  -3   36.60    6.20
  -6  -5  -3   31.60    5.50
  -6  -5  -3   35.10    4.30
  -6  -5  -3   36.20    4.60
   6   5   3   28.20    3.80
   6   5   3   32.10    4.00
   6   5   3   31.60    4.10
  -6  -5  -4    3.10    2.90
  -6  -5  -4    8.90    3.80
  -6  -5  -4    1.30    3.30
   6   5   4    0.30    1.90
   6   5   4    4.80    2.80
   6   5   4    5.00    2.60
  -6  -5  -5    6.30    4.20
  -6  -5  -5    3.20    3.30
   6   5   5    3.30    2.90
   6   5   5    4.10    2.80
  -7  -5   4   -2.90    1.80
  -7  -5   4   -2.30    2.30
  -7  -5   4    1.60    2.70
   7   5  -4   -0.20    2.00
   7   5  -4    0.30    2.20
  -7  -5   3   85.29    5.70
  -7  -5   3   81.09    5.70
  -7  -5   3   81.59    5.70
   7   5  -3   88.89    6.30
   7   5  -3   76.79    5.90
   7   5  -3   84.69    5.80
  -7  -5   2    9.50    2.10
  -7  -5   2    9.80    2.60
  -7  -5   2    9.60    2.10
  -7  -5   2    6.70    2.10
   7   5  -2   10.10    2.40
   7   5  -2   11.30    2.30
   7   5  -2    7.90    2.00
  -7  -5   1  253.97    9.90
  -7  -5   1  257.87   12.50
  -7  -5   1  263.87   10.80
  -7  -5   1  264.77   11.10
   7   5  -1  270.07   10.20
   7   5  -1  253.57   10.10
   7   5  -1  260.37   10.20
   7   5  -1  256.57   10.90
  -7  -5   0   12.90    2.20
  -7  -5   0   13.50    3.50
  -7  -5   0   14.80    2.10
   7   5   0   16.80    2.30
   7   5   0   16.10    1.70
   7   5   0   13.20    2.10
  -7  -5  -1  274.27   14.50
  -7  -5  -1  258.07   10.90
  -7  -5  -1  278.37   11.40
   7   5   1  265.67    9.90
   7   5   1  249.18   11.00
   7   5   1  257.37   11.10
  -7  -5  -2    8.40    3.10
  -7  -5  -2   10.90    3.90
  -7  -5  -2    8.20    2.40
  -7  -5  -2    8.00    2.20
   7   5   2   10.80    2.30
   7   5   2   13.00    2.50
   7   5   2    9.60    1.70
  -7  -5  -3   79.49    9.40
  -7  -5  -3   82.69    6.20
  -7  -5  -3   73.99    8.50
  -7  -5  -3   78.99    5.80
   7   5   3   83.29    5.80
   7   5   3   83.39    5.90
   7   5   3   75.79    5.70
  -7  -5  -4   -2.00    3.00
  -7  -5  -4    2.50    2.70
  -7  -5  -4    2.80    3.30
   7   5   4    0.30    2.10
   7   5   4   -1.60    1.80
   7   5   4    3.00    2.50
  -8  -5   4    3.60    2.70
  -8  -5   4    5.40    3.10
  -8  -5   4    4.10    2.60
   8   5  -4    5.90    2.90
   8   5  -4    6.00    3.10
  -8  -5   3    8.50    2.40
  -8  -5   3   10.20    2.80
  -8  -5   3    7.20    2.60
  -8  -5   3    5.80    2.80
   8   5  -3   11.30    2.90
   8   5  -3    1.20    2.10
   8   5  -3    7.50    2.70
  -8  -5   2   46.10    4.50
  -8  -5   2   44.20    5.20
  -8  -5   2   47.30    3.50
  -8  -5   2   48.70    4.90
   8   5  -2   52.19    4.00
   8   5  -2   48.80    4.10
   8   5  -2   46.10    4.30
  -8  -5   1    8.30    2.10
  -8  -5   1    6.90    1.30
  -8  -5   1    4.60    1.60
  -8  -5   1    5.60    2.50
   8   5  -1    8.50    1.70
   8   5  -1    9.60    1.60
   8   5  -1    8.00    1.90
   8   5  -1    6.70    1.50
  -8  -5   0    0.80    1.30
  -8  -5   0    3.60    1.40
  -8  -5   0    3.10    2.50
   8   5   0    1.50    0.90
   8   5   0    3.10    1.40
   8   5   0    1.70    1.20
  -8  -5  -1    4.90    3.10
  -8  -5  -1   10.70    2.00
  -8  -5  -1   11.20    2.30
   8   5   1    8.40    2.00
   8   5   1    7.30    1.40
   8   5   1    7.90    2.00
  -8  -5  -2   53.79    4.70
  -8  -5  -2   57.59    4.60
  -8  -5  -2   42.40    6.30
  -8  -5  -2   39.60    6.70
   8   5   2   38.50    4.40
   8   5   2   40.90    4.40
  -8  -5  -3   10.00    3.90
  -8  -5  -3    7.60    4.30
   8   5   3    9.70    2.90
   8   5   3    5.10    2.50
  -8  -5  -4   -0.10    2.50
  -8  -5  -4    8.90    4.80
  -8  -5  -4    2.90    3.40
   8   5   4    2.60    2.40
   8   5   4    0.80    2.50
  -9  -5   4   11.70    3.60
  -9  -5   4   17.00    3.70
  -9  -5   4   15.50    4.10
   9   5  -4   14.90    3.80
   9   5  -4    6.90    3.00
  -9  -5   3    5.30    2.80
  -9  -5   3    6.40    2.50
  -9  -5   3    6.20    2.90
  -9  -5   3    8.70    2.90
   9   5  -3    7.10    2.40
   9   5  -3   10.20    2.90
  -9  -5   2  161.98    8.60
  -9  -5   2  156.58    7.40
  -9  -5   2  162.78    8.30
   9   5  -2  152.08    7.90
   9   5  -2  157.08    7.60
   9   5  -2  142.19    7.50
  -9  -5   1   85.89    5.40
  -9  -5   1   79.49    5.10
  -9  -5   1   82.09    6.80
   9   5  -1   83.49    5.10
   9   5  -1   81.99    5.30
   9   5  -1   81.29    4.50
  -9  -5   0   49.80    6.70
  -9  -5   0   61.79    4.00
  -9  -5   0   53.89    4.10
   9   5   0   56.79    3.30
   9   5   0   53.19    3.90
   9   5   0   56.19    4.10
  -9  -5  -1   78.59    4.90
  -9  -5  -1   79.19    8.90
  -9  -5  -1   84.99    8.50
  -9  -5  -1   85.59    4.80
   9   5   1   82.59    5.20
   9   5   1   68.19    5.00
   9   5   1   68.19    4.00
  -9  -5  -2  148.19    7.60
  -9  -5  -2  159.38   11.70
  -9  -5  -2  150.48    8.00
  -9  -5  -2  139.69   10.50
   9   5   2  156.98    8.50
   9   5   2  138.99    8.10
  -9  -5  -3    3.30    3.10
  -9  -5  -3    1.70    3.70
   9   5   3    7.20    2.60
   9   5   3    7.70    2.70
  -9  -5  -4   11.20    4.60
  -9  -5  -4   11.90    5.30
  -9  -5  -4    8.50    4.10
   9   5   4   20.90    4.40
   9   5   4    9.80    3.20
 -10  -5   4    3.40    2.80
 -10  -5   4    3.10    3.10
  10   5  -4    5.10    2.80
  10   5  -4    2.80    2.50
 -10  -5   3   41.80    5.50
 -10  -5   3   37.40    5.50
 -10  -5   3   44.90    5.50
 -10  -5   3   57.39    4.90
  10   5  -3   51.09    5.30
  10   5  -3   48.90    5.20
 -10  -5   2   27.90    4.60
 -10  -5   2   28.40    3.90
 -10  -5   2   21.10    3.70
  10   5  -2   27.80    3.60
  10   5  -2   21.30    3.10
 -10  -5   1   50.89    4.90
 -10  -5   1   45.50    4.50
 -10  -5   1   44.00    6.00
  10   5  -1   43.70    3.70
  10   5  -1   44.20    3.40
 -10  -5   0   62.29    7.70
 -10  -5   0   74.89    7.80
 -10  -5   0   63.09    4.90
 -10  -5   0   70.99    4.70
  10   5   0   69.09    4.70
  10   5   0   69.89    5.20
  10   5   0   84.99    4.20
 -10  -5  -1   47.20    4.10
 -10  -5  -1   36.40    6.40
 -10  -5  -1   39.90    4.10
 -10  -5  -1   49.99    6.90
  10   5   1   39.70    3.10
  10   5   1   49.00    5.00
  10   5   1   44.40    4.50
 -10  -5  -2   32.30    6.60
 -10  -5  -2   25.50    5.50
 -10  -5  -2   27.90    3.80
 -10  -5  -2   27.00    5.10
  10   5   2   27.00    4.10
  10   5   2   37.50    4.70
 -10  -5  -3   32.60    7.30
 -10  -5  -3   38.50    7.00
  10   5   3   44.90    5.30
  10   5   3   37.60    5.20
 -10  -5  -4    3.80    4.90
 -10  -5  -4    2.70    3.50
 -10  -5  -4    0.40    3.40
  10   5   4   -1.30    2.60
  10   5   4   -1.20    2.60
 -11  -5   3   14.50    3.80
 -11  -5   3   10.30    3.40
 -11  -5   3   12.20    3.80
  11   5  -3   15.00    3.40
 -11  -5   2   26.00    4.00
 -11  -5   2   11.40    3.80
 -11  -5   2   27.20    4.50
  11   5  -2   28.70    3.60
 -11  -5   1   54.09    6.80
 -11  -5   1   58.79    5.30
 -11  -5   1   46.70    5.20
  11   5  -1   51.19    3.90
  11   5  -1   50.59    4.90
 -11  -5   0    0.00    1.60
 -11  -5   0    1.40    1.60
 -11  -5   0    4.20    3.10
 -11  -5   0    1.00    2.30
  11   5   0    0.00    1.10
  11   5   0    0.50    1.60
  11   5   0    1.10    1.70
 -11  -5  -1   47.10    4.30
 -11  -5  -1   52.19    4.80
 -11  -5  -1   50.39    7.20
 -11  -5  -1   49.50    7.70
  11   5   1   55.69    5.50
  11   5   1   51.59    5.50
 -11  -5  -2   35.90    6.90
 -11  -5  -2   28.70    6.70
  11   5   2   23.50    4.00
  11   5   2   25.80    4.20
 -11  -5  -3   12.30    5.20
 -11  -5  -3   13.00    6.00
  11   5   3   17.10    4.00
  11   5   3    9.60    3.60
 -12  -5   3    5.60    3.00
 -12  -5   3    7.20    3.60
 -12  -5   3    5.60    3.40
  12   5  -3    6.50    2.50
 -12  -5   2   43.00    5.30
 -12  -5   2   45.10    5.80
 -12  -5   2   29.40    5.60
  12   5  -2   36.60    4.20
 -12  -5   1    5.10    2.40
 -12  -5   1    2.60    2.30
 -12  -5   1    0.30    2.60
  12   5  -1    4.60    1.70
  12   5  -1    1.30    2.00
 -12  -5   0    1.10    2.00
 -12  -5   0   -1.40    2.80
 -12  -5   0    0.20    2.10
 -12  -5   0   -0.60    3.20
  12   5   0   -1.30    1.60
  12   5   0    0.10    1.30
  12   5   0    4.50    2.30
 -12  -5  -1    2.40    1.90
 -12  -5  -1    4.10    4.00
 -12  -5  -1   -1.00    3.00
 -12  -5  -1    5.50    2.20
  12   5   1    2.80    2.50
  12   5   1    6.70    2.80
 -12  -5  -2   30.40    6.90
 -12  -5  -2   23.30    6.10
  12   5   2   33.50    4.90
  12   5   2   33.20    4.80
 -12  -5  -3    1.00    5.10
 -12  -5  -3    4.30    4.10
  12   5   3    6.80    3.50
  12   5   3    2.40    3.10
 -13  -5   2    0.90    2.90
 -13  -5   2   -2.10    2.50
 -13  -5   2   -0.50    2.40
  13   5  -2   -2.20    1.80
 -13  -5   1   22.70    5.20
 -13  -5   1   33.20    4.50
 -13  -5   1   29.00    4.60
  13   5  -1   26.50    3.20
  13   5  -1   25.20    4.00
 -13  -5   0    1.70    2.00
 -13  -5   0    3.50    2.50
 -13  -5   0    0.00    3.10
  13   5   0    1.60    2.50
 -13  -5  -1   24.00    5.90
 -13  -5  -1   22.00    6.00
  13   5   1   37.60    5.00
  13   5   1   26.50    4.40
 -13  -5  -2   -0.80    3.40
 -13  -5  -2    3.90    4.30
  13   5   2   -3.10    2.30
  13   5   2   -0.50    2.30
 -14  -5   2   24.30    4.50
 -14  -5   2   14.30    4.50
 -14  -5   2   21.30    4.50
  14   5  -2   19.10    3.40
 -14  -5   1   12.80    3.80
 -14  -5   1    8.10    4.10
 -14  -5   1    6.10    2.90
  14   5  -1    6.70    3.30
  14   5  -1    7.90    2.40
 -14  -5   0    3.50    2.90
 -14  -5   0    2.70    2.50
 -14  -5   0    3.50    4.10
  14   5   0    3.20    2.70
 -14  -5  -1    7.70    4.70
 -14  -5  -1    8.10    4.50
  14   5   1    6.10    3.10
  14   5   1    9.50    3.50
 -14  -5  -2   19.00    6.40
 -14  -5  -2   25.80    6.70
  14   5   2   13.40    4.30
  14   5   2   11.80    4.10
 -15  -5   1    6.00    3.20
 -15  -5   1    6.80    3.90
 -15  -5   1    7.00    4.20
 -15  -5   0   13.80    5.20
  15   5   0    9.80    3.50
 -15  -5  -1    7.80    4.60
  15   5   1   12.00    4.20
  15   5   1    5.10    4.30
  15  -6   0    0.60    2.10
 -15   6   0   -2.10    2.80
  14  -6   2    5.60    3.30
  14  -6   2    5.00    2.70
 -14   6  -2    1.80    4.30
 -14   6  -2    6.70    5.20
  14  -6   1    7.60    2.90
 -14   6  -1   -0.70    3.90
 -14   6  -1    1.50    3.10
  14  -6   0   -2.20    1.40
 -14   6   0    0.00    2.70
  14  -6  -1    4.70    2.40
 -14   6   1    3.60    3.30
  14  -6  -2    6.80    2.60
  14  -6  -2    2.90    2.20
 -14   6   2    5.50    3.50
  13  -6   2   10.00    3.40
  13  -6   2    2.80    2.30
 -13   6  -2    7.40    4.40
 -13   6  -2    8.10    4.10
  13  -6   1   24.50    3.60
 -13   6  -1   29.30    4.90
 -13   6  -1   43.70    7.80
  13  -6   0   33.20    4.00
 -13   6   0   29.60    5.10
  13  -6  -1   46.00    4.00
  13  -6  -1   40.30    4.20
 -13   6   1   34.30    5.40
  13  -6  -2    4.40    2.40
  13  -6  -2    5.30    2.50
 -13   6   2    5.00    2.90
 -13   6   2    6.50    3.60
 -13   6   2    5.80    3.00
  12  -6   3    4.40    2.60
  12  -6   3    2.90    3.00
 -12   6  -3    6.10    4.10
 -12   6  -3    4.10    4.70
  12  -6   2   16.60    3.30
  12  -6   2   35.40    4.90
 -12   6  -2   27.00    5.70
 -12   6  -2   24.20    6.30
  12  -6   1    2.90    1.90
  12  -6   1    6.80    2.70
 -12   6  -1    2.00    3.00
 -12   6  -1    6.60    3.20
 -12   6  -1    2.00    3.80
  12  -6   0   54.39    4.40
  12  -6   0   61.79    4.00
 -12   6   0   51.19    6.10
  12  -6  -1    2.90    1.80
  12  -6  -1    5.20    1.80
 -12   6   1   -0.80    2.20
  12  -6  -2   28.70    3.80
  12  -6  -2   35.60    4.40
 -12   6   2   34.50    5.60
 -12   6   2   37.10    4.70
 -12   6   2   39.20    5.10
  12  -6  -3    7.60    2.60
  12  -6  -3    5.50    2.50
 -12   6   3   11.90    3.40
 -12   6   3    4.40    3.20
 -12   6   3   17.00    4.50
  11  -6   3    6.80    2.80
  11  -6   3   18.00    4.30
 -11   6  -3    8.10    4.60
 -11   6  -3   15.00    4.80
  11  -6   2   17.80    3.60
  11  -6   2   12.40    2.80
 -11   6  -2   13.10    4.20
 -11   6  -2   21.40    5.70
  11  -6   1  133.29    7.50
  11  -6   1  111.79    6.10
 -11   6  -1  134.79   10.40
 -11   6  -1  128.19    8.60
  11  -6   0   19.30    2.70
  11  -6   0   23.70    2.70
 -11   6   0   13.60    4.00
 -11   6   0   14.40    3.50
  11  -6  -1  144.69    7.00
  11  -6  -1  122.69    6.70
 -11   6   1  140.99    7.60
 -11   6   1  129.39    7.00
  11  -6  -2   11.10    2.60
  11  -6  -2   17.60    3.00
 -11   6   2   10.70    3.50
 -11   6   2   16.20    3.50
 -11   6   2   14.40    3.10
  11  -6  -3   10.30    2.70
  11  -6  -3   14.70    3.20
 -11   6   3   11.10    3.90
 -11   6   3   11.70    4.00
 -11   6   3    9.60    3.10
  10  -6   4    4.20    2.90
  10  -6   4   -2.40    2.80
 -10   6  -4    1.30    3.40
 -10   6  -4    0.20    3.70
  10  -6   3   13.90    4.20
  10  -6   3    6.60    2.60
 -10   6  -3    6.10    4.30
 -10   6  -3   12.00    4.20
  10  -6   2    1.80    1.80
  10  -6   2   -0.40    2.00
  10  -6   2    3.00    1.70
 -10   6  -2   -0.30    3.10
 -10   6  -2    1.40    2.70
  10  -6   1   56.59    5.20
  10  -6   1   40.50    3.30
 -10   6  -1   59.89    6.40
 -10   6  -1   52.79    7.00
 -10   6  -1   46.00    5.10
  10  -6   0    1.20    1.30
  10  -6   0    1.00    1.10
 -10   6   0    0.80    2.50
 -10   6   0    1.30    2.00
  10  -6  -1   48.50    3.70
  10  -6  -1   53.29    3.80
 -10   6   1   61.69    6.10
 -10   6   1   53.59    4.10
 -10   6   1   52.29    4.10
  10  -6  -2    2.60    1.80
  10  -6  -2   -0.60    1.70
 -10   6   2   -0.80    2.10
 -10   6   2    2.10    1.80
 -10   6   2    2.50    2.00
  10  -6  -3    9.20    2.70
  10  -6  -3    6.20    2.40
 -10   6   3    4.00    2.80
 -10   6   3    1.20    2.30
 -10   6   3    9.80    3.50
  10  -6  -4    0.30    2.10
  10  -6  -4    0.10    2.30
 -10   6   4    3.90    3.00
 -10   6   4   -3.20    2.20
   9  -6   4    3.40    2.70
   9  -6   4    6.00    3.20
  -9   6  -4    8.90    4.40
  -9   6  -4    8.40    4.60
   9  -6   3   22.40    3.70
   9  -6   3   23.30    3.50
   9  -6   3   25.80    4.50
  -9   6  -3   28.60    5.40
  -9   6  -3   16.90    5.00
   9  -6   2   28.70    4.00
   9  -6   2   19.30    3.10
   9  -6   2   21.20    3.00
  -9   6  -2   12.90    4.30
  -9   6  -2   28.50    4.80
   9  -6   1   80.49    5.30
   9  -6   1   84.79    4.90
  -9   6  -1   87.29    6.40
  -9   6  -1   84.79    5.80
  -9   6  -1   84.19    8.50
   9  -6   0   94.19    4.80
   9  -6   0   94.09    4.80
   9  -6   0   84.49    4.90
  -9   6   0   94.19    5.90
  -9   6   0   81.29    5.90
  -9   6   0  103.19    7.30
   9  -6  -1   96.19    5.20
   9  -6  -1   90.29    5.00
  -9   6   1   89.49    5.40
  -9   6   1   87.69    5.10
  -9   6   1   94.49    6.50
   9  -6  -2   25.70    3.20
   9  -6  -2   23.00    3.00
  -9   6   2   27.40    3.60
  -9   6   2   14.80    3.40
  -9   6   2   23.00    3.30
   9  -6  -3   23.70    3.80
   9  -6  -3   21.20    3.30
  -9   6   3   16.50    3.60
  -9   6   3   16.10    3.60
  -9   6   3   24.10    3.90
   9  -6  -4    5.50    2.90
   9  -6  -4    6.30    2.50
  -9   6   4    5.60    3.20
  -9   6   4    2.40    2.90
  -9   6   4    4.60    2.70
   8  -6   4   10.70    3.40
   8  -6   4    7.60    3.50
   8  -6   4   14.90    3.70
  -8   6  -4    9.70    4.40
  -8   6  -4    4.90    3.80
   8  -6   3   29.10    3.80
   8  -6   3   30.00    4.50
   8  -6   3   28.70    4.10
  -8   6  -3   29.10    5.90
  -8   6  -3   29.10    5.40
   8  -6   2   29.40    3.90
   8  -6   2   23.70    3.20
   8  -6   2   23.40    3.00
  -8   6  -2   26.40    5.20
  -8   6  -2   29.00    4.70
   8  -6   1   55.09    3.70
   8  -6   1   68.69    4.40
   8  -6   1   46.70    3.30
  -8   6  -1   73.09    7.60
  -8   6  -1   72.49    5.50
  -8   6  -1   64.59    4.50
   8  -6   0    3.20    1.20
   8  -6   0    4.10    1.30
   8  -6   0    3.60    1.40
  -8   6   0    5.00    1.20
  -8   6   0    3.40    2.10
  -8   6   0    3.70    1.80
  -8   6   0    3.30    1.80
  -8   6   0    2.90    1.20
   8  -6  -1   59.59    3.90
   8  -6  -1   69.59    4.00
  -8   6   1   64.49    4.10
  -8   6   1   66.59    5.10
  -8   6   1   66.89    5.10
   8  -6  -2   26.50    3.10
   8  -6  -2   24.80    3.10
  -8   6   2   27.10    3.80
  -8   6   2   27.30    4.20
  -8   6   2   30.20    3.50
   8  -6  -3   34.50    4.10
   8  -6  -3   35.20    4.00
  -8   6   3   32.80    4.50
  -8   6   3   38.50    5.10
  -8   6   3   33.10    4.20
   8  -6  -4    4.40    2.40
   8  -6  -4    3.70    2.60
  -8   6   4    8.10    3.30
  -8   6   4    5.80    2.80
  -8   6   4   10.20    3.10
   7  -6   4    4.00    2.80
   7  -6   4   -0.20    2.40
  -7   6  -4    4.90    3.80
  -7   6  -4    2.60    3.20
   7  -6   3   11.60    2.50
   7  -6   3   11.60    3.10
   7  -6   3    6.70    2.60
  -7   6  -3    7.60    3.60
  -7   6  -3    7.10    3.40
   7  -6   2   71.39    5.10
   7  -6   2   72.69    4.60
   7  -6   2   63.69    4.50
  -7   6  -2   72.49    6.20
  -7   6  -2   79.49    8.20
   7  -6   1   27.00    2.30
   7  -6   1   32.70    2.70
   7  -6   1   33.70    3.40
  -7   6  -1   34.40    5.00
  -7   6  -1   35.00    4.20
  -7   6  -1   35.80    3.50
   7  -6   0  435.26   15.50
   7  -6   0  411.46   15.60
   7  -6   0  435.36   15.50
  -7   6   0  419.56   18.00
  -7   6   0  409.66   16.70
  -7   6   0  420.76   16.50
  -7   6   0  422.96   15.40
   7  -6  -1   31.80    2.70
   7  -6  -1   34.50    2.80
  -7   6   1   36.90    3.90
  -7   6   1   40.00    2.90
  -7   6   1   41.80    3.70
  -7   6   1   33.30    3.90
   7  -6  -2   70.09    4.40
   7  -6  -2   75.89    4.70
  -7   6   2   76.69    5.60
  -7   6   2   71.19    4.70
  -7   6   2   80.19    5.40
   7  -6  -3    5.90    2.10
   7  -6  -3   14.80    2.80
  -7   6   3    8.40    2.50
  -7   6   3    7.40    2.70
  -7   6   3   10.70    3.00
   7  -6  -4    3.50    2.10
   7  -6  -4   -1.20    2.10
  -7   6   4    1.00    2.40
  -7   6   4    3.80    2.40
  -7   6   4   -2.20    2.10
  -7   6   4    2.70    2.20
   6  -6   4   10.80    3.30
   6  -6   4   17.50    3.70
   6  -6   4   12.40    3.20
  -6   6  -4   13.30    4.80
  -6   6  -4    6.00    3.50
   6  -6   3   35.80    4.00
   6  -6   3   30.70    3.90
   6  -6   3   31.20    4.30
  -6   6  -3   33.00    5.70
  -6   6  -3   29.60    5.10
   6  -6   2  161.38    8.00
   6  -6   2  154.28    7.50
   6  -6   2  141.99    7.10
  -6   6  -2  154.08    9.80
  -6   6  -2  156.18    9.10
   6  -6   1  173.68    7.60
   6  -6   1  168.68    7.40
   6  -6   1  183.68    8.20
  -6   6  -1  181.98   10.10
  -6   6  -1  189.18    9.30
  -6   6  -1  192.98    8.00
   6  -6   0  382.36   14.10
   6  -6   0  393.16   13.90
   6  -6   0  400.66   14.00
  -6   6   0  371.36   14.80
  -6   6   0  389.56   13.90
  -6   6   0  363.66   14.90
  -6   6   0  380.86   13.70
  -6   6   0  356.46   16.00
   6  -6  -1  177.48    7.50
   6  -6  -1  190.18    7.80
  -6   6   1  179.58    8.50
  -6   6   1  193.88    8.90
  -6   6   1  174.98    7.90
  -6   6   1  173.58    7.70
   6  -6  -2  165.98    7.50
   6  -6  -2  172.68    7.90
  -6   6   2  167.68    8.70
  -6   6   2  160.28    7.70
  -6   6   2  157.08    8.00
   6  -6  -3   29.60    3.90
   6  -6  -3   33.00    3.60
  -6   6   3   31.60    3.70
  -6   6   3   37.40    4.10
  -6   6   3   26.60    3.90
  -6   6   3   33.40    4.50
   6  -6  -4   10.50    3.00
   6  -6  -4    8.10    2.70
  -6   6   4   14.60    3.30
  -6   6   4    8.60    3.00
  -6   6   4   13.30    3.40
  -6   6   4   15.80    3.40
   5  -6   5   -0.40    2.80
   5  -6   5    1.40    3.20
   5  -6   5    6.50    3.30
  -5   6  -5    7.50    4.20
  -5   6  -5    2.50    3.50
   5  -6   4   -0.10    2.50
   5  -6   4    1.90    2.30
   5  -6   4    0.70    2.30
  -5   6  -4   -3.30    2.20
  -5   6  -4   -0.40    2.70
   5  -6   3    5.10    2.00
   5  -6   3    5.60    2.00
   5  -6   3    2.30    2.00
  -5   6  -3    3.10    2.60
  -5   6  -3    7.60    3.10
   5  -6   2   73.99    4.80
   5  -6   2   68.49    4.40
   5  -6   2   68.99    4.30
  -5   6  -2   82.89    6.60
  -5   6  -2   76.29    5.90
   5  -6   1  206.78    8.30
   5  -6   1  185.18    7.10
   5  -6   1  201.98    8.70
  -5   6  -1  222.18    8.40
  -5   6  -1  202.88   10.60
  -5   6  -1  205.98    9.70
   5  -6   0  305.47   11.40
   5  -6   0  317.07   11.40
   5  -6   0  319.27   11.30
   5  -6   0  310.37   11.60
  -5   6   0  295.07   12.10
  -5   6   0  304.97   11.20
  -5   6   0  303.37   12.00
  -5   6   0  297.67   13.20
  -5   6   0  291.97   11.00
   5  -6  -1  211.68    8.50
   5  -6  -1  200.38    8.20
  -5   6   1  198.78    9.00
  -5   6   1  211.78    9.40
  -5   6   1  219.98    8.80
  -5   6   1  209.28    8.50
   5  -6  -2   83.49    4.70
   5  -6  -2   86.19    4.60
  -5   6   2   79.29    4.90
  -5   6   2   90.59    4.60
  -5   6   2   70.89    5.20
  -5   6   2   71.89    4.60
   5  -6  -3    2.50    1.80
   5  -6  -3    3.60    1.70
  -5   6   3    4.60    1.80
  -5   6   3    2.40    2.10
  -5   6   3    5.80    2.20
  -5   6   3    1.90    1.80
   5  -6  -4    2.20    2.20
   5  -6  -4    1.70    2.00
  -5   6   4   -0.80    1.80
  -5   6   4    4.80    2.60
  -5   6   4    3.60    2.40
  -5   6   4    6.20    2.60
   5  -6  -5    4.30    2.90
   5  -6  -5    5.50    6.20
   5  -6  -5    4.30    2.90
  -5   6   5    0.70    2.30
  -5   6   5    0.60    2.20
  -5   6   5    1.10    2.60
   4  -6   5    5.70    2.90
   4  -6   5    4.90    2.90
  -4   6  -5    2.00    2.50
  -4   6  -5   -2.70    3.10
  -4   6  -5    2.50    3.30
   4  -6   4   36.20    4.80
   4  -6   4   33.80    4.50
   4  -6   4   46.40    5.40
  -4   6  -4   38.60    6.20
  -4   6  -4   36.90    5.90
   4  -6   3   14.80    2.90
   4  -6   3   16.90    2.90
   4  -6   3   19.70    3.30
  -4   6  -3   20.80    4.50
  -4   6  -3   15.90    4.00
   4  -6   2   67.59    4.30
   4  -6   2   72.29    4.50
   4  -6   2   83.59    5.00
  -4   6  -2   77.49    6.20
  -4   6  -2   86.99    6.10
   4  -6   1  108.99    4.80
   4  -6   1  103.39    5.20
   4  -6   1   98.49    4.00
   4  -6   1  102.89    4.90
  -4   6  -1   99.39    5.90
  -4   6  -1  106.89    6.70
  -4   6  -1  112.49    4.70
   4  -6   0  321.57   11.40
   4  -6   0  320.57   11.50
   4  -6   0  304.37   11.70
   4  -6   0  309.37   11.60
   4  -6   0  327.07   11.60
  -4   6   0  309.17   12.10
  -4   6   0  314.97   11.40
  -4   6   0  302.47   13.20
  -4   6   0  311.97   12.10
  -4   6   0  328.47   11.30
   4  -6  -1  104.69    4.90
   4  -6  -1  105.79    4.70
  -4   6   1   99.79    5.50
  -4   6   1  111.09    5.00
  -4   6   1   99.39    5.20
  -4   6   1  108.49    5.20
   4  -6  -2   83.29    4.30
   4  -6  -2   78.89    4.50
  -4   6   2   71.79    3.70
  -4   6   2   73.29    4.40
  -4   6   2   84.19    4.80
  -4   6   2   71.79    4.90
   4  -6  -3   19.80    3.00
   4  -6  -3   17.80    2.60
  -4   6   3   16.20    2.70
  -4   6   3   15.00    3.10
  -4   6   3   15.20    2.90
  -4   6   3   20.60    2.90
   4  -6  -4   33.80    4.20
   4  -6  -4   36.20    4.50
  -4   6   4   32.20    4.50
  -4   6   4   38.10    4.50
  -4   6   4   43.40    5.30
  -4   6   4   46.50    5.00
   4  -6  -5   -3.80    3.00
   4  -6  -5   -0.40    2.30
   4  -6  -5    1.10    2.60
  -4   6   5    5.20    3.00
  -4   6   5    1.30    2.70
  -4   6   5    6.70    3.10
  -4   6   5    6.30    3.10
   3  -6   5    1.40    2.80
   3  -6   5   -0.30    2.40
  -3   6  -5    3.20    2.60
  -3   6  -5    3.00    3.10
   3  -6   4    7.40    2.70
   3  -6   4    9.80    2.70
   3  -6   4    9.70    3.20
  -3   6  -4    7.50    3.50
  -3   6  -4    4.90    2.90
   3  -6   3   18.10    2.90
   3  -6   3   20.80    3.10
   3  -6   3   14.10    2.80
  -3   6  -3   16.30    3.60
  -3   6  -3    8.60    3.10
   3  -6   2  184.68    8.20
   3  -6   2  177.18    6.50
   3  -6   2  172.88    8.20
   3  -6   2  184.48    8.00
  -3   6  -2  178.28    9.80
  -3   6  -2  184.58    9.50
   3  -6   1  155.88    6.60
   3  -6   1  157.78    7.00
   3  -6   1  160.18    6.00
   3  -6   1  158.18    5.90
   3  -6   1  162.48    6.70
  -3   6  -1  162.78    8.40
  -3   6  -1  164.88    7.80
  -3   6  -1  160.88    6.20
   3  -6   0   35.10    2.10
   3  -6   0   37.60    2.00
   3  -6   0   36.10    2.30
   3  -6   0   38.90    2.30
  -3   6   0   37.00    2.00
  -3   6   0   36.90    2.60
  -3   6   0   36.10    2.10
  -3   6   0   41.50    3.90
  -3   6   0   32.90    2.30
   3  -6  -1  159.28    6.60
   3  -6  -1  161.08    6.30
   3  -6  -1  162.28    7.30
  -3   6   1  159.58    6.60
  -3   6   1  154.78    7.20
  -3   6   1  162.48    6.80
  -3   6   1  161.48    6.90
   3  -6  -2  172.58    7.70
   3  -6  -2  194.48    7.50
  -3   6   2  176.38    7.70
  -3   6   2  180.48    8.50
  -3   6   2  159.28    7.00
  -3   6   2  171.58    7.90
   3  -6  -3   15.40    3.10
   3  -6  -3   18.20    2.80
   3  -6  -3   18.50    2.70
  -3   6   3   13.40    2.90
  -3   6   3   18.10    2.70
  -3   6   3   21.50    3.30
  -3   6   3   16.50    2.70
   3  -6  -4   13.80    3.10
   3  -6  -4   13.10    2.80
   3  -6  -4    9.20    3.30
  -3   6   4   10.60    2.80
  -3   6   4    7.00    2.50
  -3   6   4   11.20    2.70
  -3   6   4    9.50    2.80
   3  -6  -5    3.30    2.40
   3  -6  -5   -2.40    2.90
   3  -6  -5    5.80    2.80
   3  -6  -5    0.30    2.20
  -3   6   5    7.70    3.00
  -3   6   5    1.90    2.50
  -3   6   5    2.10    2.60
  -3   6   5    2.30    2.70
   2  -6   5    1.60    2.80
   2  -6   5    2.00    2.70
  -2   6  -5    1.00    2.70
  -2   6  -5    1.40    2.40
   2  -6   4    0.80    2.20
   2  -6   4    6.20    2.50
  -2   6  -4    2.70    2.00
  -2   6  -4    0.70    2.30
  -2   6  -4    0.80    2.30
   2  -6   3  180.98    8.80
   2  -6   3  182.78    8.90
   2  -6   3  185.08    9.00
  -2   6  -3  177.08   10.20
  -2   6  -3  178.58   10.10
   2  -6   2  121.29    4.70
   2  -6   2  115.29    6.00
   2  -6   2  121.59    4.90
   2  -6   2  121.29    6.20
   2  -6   2  122.99    6.00
  -2   6  -2  122.29    7.40
  -2   6  -2  124.69    7.10
   2  -6   1  148.29    5.70
   2  -6   1  152.78    5.60
   2  -6   1  146.69    6.10
   2  -6   1  151.48    6.20
  -2   6  -1  137.89    7.50
  -2   6  -1  145.49    5.50
  -2   6  -1  152.28    7.20
   2  -6   0 4056.49  127.19
   2  -6   0 3888.81  127.79
   2  -6   0 3985.20  127.29
   2  -6   0 3840.32  127.59
  -2   6   0 3664.03  128.69
  -2   6   0 3783.32  127.89
  -2   6   0 3866.11  127.19
  -2   6   0 3737.13  127.29
  -2   6   0 3820.32  127.69
   2  -6  -1  147.69    6.90
   2  -6  -1  152.78    6.20
   2  -6  -1  157.98    6.80
   2  -6  -1  151.98    5.90
  -2   6   1  163.28    6.50
  -2   6   1  149.88    6.50
  -2   6   1  156.58    6.80
  -2   6   1  148.49    6.30
  -2   6   1  149.29    5.60
   2  -6  -2  132.39    6.00
   2  -6  -2  117.09    6.60
   2  -6  -2  131.29    5.70
  -2   6   2  143.99    5.90
  -2   6   2  122.29    6.50
  -2   6   2  129.89    6.00
  -2   6   2  120.69    5.40
  -2   6   2  120.09    6.10
  -2   6   2  119.59    4.80
   2  -6  -3  185.18    8.30
   2  -6  -3  190.58    8.60
   2  -6  -3  180.08    9.40
  -2   6   3  175.08    8.60
  -2   6   3  176.38    8.30
  -2   6   3  186.78    9.10
  -2   6   3  187.28    8.30
  -2   6   3  171.08    7.60
   2  -6  -4    3.20    2.50
   2  -6  -4    2.60    1.90
   2  -6  -4    1.10    1.80
  -2   6   4    0.00    1.80
  -2   6   4    1.90    2.00
  -2   6   4    4.30    2.20
  -2   6   4    3.10    1.90
   2  -6  -5    1.70    2.90
   2  -6  -5    1.90    3.20
   2  -6  -5    0.60    2.50
   2  -6  -5    4.80    2.70
  -2   6   5    2.70    2.70
  -2   6   5    1.70    2.40
  -2   6   5    2.70    2.40
  -2   6   5    2.80    2.70
   1  -6   5    4.00    2.80
   1  -6   5   -0.50    2.60
  -1   6  -5    3.50    2.90
  -1   6  -5   -0.20    2.20
   1  -6   4   10.90    2.90
   1  -6   4   21.60    3.80
  -1   6  -4   13.00    3.30
  -1   6  -4   10.60    3.50
  -1   6  -4   11.30    3.40
   1  -6   3   55.79    4.40
   1  -6   3   56.99    4.40
   1  -6   3   63.49    3.70
   1  -6   3   59.59    3.60
  -1   6  -3   54.69    5.90
  -1   6  -3   55.39    5.90
   1  -6   2  413.06   14.40
   1  -6   2  403.06   15.50
   1  -6   2  396.56   14.50
   1  -6   2  398.36   15.60
  -1   6  -2  430.86   16.90
  -1   6  -2  417.96   17.00
   1  -6   1 1097.99   37.40
   1  -6   1 1080.89   37.70
   1  -6   1 1096.29   37.70
   1  -6   1 1103.49   37.30
   1  -6   1 1174.38   37.20
  -1   6  -1 1093.29   38.80
  -1   6  -1 1094.19   39.20
  -1   6  -1 1115.09   36.80
   1  -6   0 1634.64   56.39
   1  -6   0 1687.53   56.29
   1  -6   0 1787.52   55.79
   1  -6   0 1761.62   55.59
  -1   6   0 1691.23   56.09
  -1   6   0 1613.34   56.39
  -1   6   0 1674.73   55.79
  -1   6   0 1605.14   56.89
  -1   6   0 1586.64   55.79
   1  -6  -1 1138.19   38.00
   1  -6  -1 1117.79   38.90
   1  -6  -1 1117.99   37.50
   1  -6  -1 1123.29   38.70
  -1   6   1 1095.99   38.70
  -1   6   1 1085.99   37.60
  -1   6   1 1118.79   38.30
  -1   6   1 1181.68   38.30
  -1   6   1 1129.89   38.40
   1  -6  -2  396.36   16.10
   1  -6  -2  435.46   15.30
   1  -6  -2  444.66   16.70
   1  -6  -2  424.56   15.50
  -1   6   2  426.06   15.80
  -1   6   2  407.36   16.20
  -1   6   2  447.46   15.40
  -1   6   2  413.46   14.80
  -1   6   2  413.86   15.60
  -1   6   2  380.26   15.20
   1  -6  -3   61.39    4.60
   1  -6  -3   58.69    4.20
   1  -6  -3   66.99    5.10
   1  -6  -3   63.29    4.10
  -1   6   3   61.09    4.10
  -1   6   3   65.69    4.10
  -1   6   3   59.39    4.20
  -1   6   3   49.30    3.40
  -1   6   3   62.19    4.60
  -1   6   3   53.69    3.80
   1  -6  -4   16.50    3.10
   1  -6  -4   15.00    3.50
   1  -6  -4   15.80    3.00
   1  -6  -4   19.70    3.70
  -1   6   4   15.60    3.00
  -1   6   4   14.30    2.90
  -1   6   4   11.80    3.00
  -1   6   4    9.30    2.60
  -1   6   4   16.10    2.90
   1  -6  -5   -2.70    2.40
   1  -6  -5    4.80    3.50
   1  -6  -5    3.20    3.00
   1  -6  -5   -2.40    2.10
   1  -6  -5    4.20    2.60
  -1   6   5    4.40    2.50
  -1   6   5    2.90    2.60
  -1   6   5    1.40    2.10
  -1   6   5    4.10    2.50
   0  -6   5   12.60    3.90
   0  -6   5   15.90    3.90
   0   6  -5   20.90    4.40
   0   6  -5    7.70    3.70
   0  -6   4   60.59    6.10
   0  -6   4   78.49    5.80
   0   6  -4   57.59    6.70
   0   6  -4   50.69    5.90
   0  -6   3    1.40    1.10
   0  -6   3    2.20    1.10
   0  -6   3    1.40    1.50
   0  -6   3    1.40    1.40
   0   6  -3   -0.50    1.40
   0   6  -3    2.50    1.90
   0   6  -3    3.90    2.00
   0  -6   2   10.00    1.80
   0  -6   2   10.50    1.90
   0  -6   2    9.40    1.30
   0  -6   2    9.50    1.40
   0   6  -2    7.60    2.20
   0   6  -2    7.90    2.20
   0  -6   1 1780.22   59.29
   0  -6   1 1750.12   59.39
   0  -6   1 1797.32   59.29
   0  -6   1 1779.32   59.59
   0  -6   1 1755.32   59.49
   0   6  -1 1799.72   60.79
   0   6  -1 1772.52   58.69
   0   6  -1 1750.82   60.69
   0  -6   0  165.18    6.70
   0  -6   0  148.39    6.80
   0  -6   0  153.58    5.70
   0  -6   0  163.98    5.90
   0   6   0  155.28    6.60
   0   6   0  165.48    6.90
   0   6   0  156.28    6.30
   0  -6  -1 1786.42   61.29
   0  -6  -1 1860.01   59.69
   0  -6  -1 1887.01   60.19
   0  -6  -1 1833.22   61.09
   0   6   1 1707.03   60.99
   0   6   1 1809.12   60.69
   0   6   1 1705.73   60.09
   0   6   1 1735.53   60.69
   0   6   1 1913.01   60.69
   0  -6  -2    7.70    1.30
   0  -6  -2    6.20    1.80
   0  -6  -2    9.50    1.60
   0  -6  -2    8.10    1.80
   0   6   2    9.20    1.40
   0   6   2   13.30    1.70
   0   6   2   12.20    1.50
   0   6   2   11.80    1.90
   0   6   2   14.30    1.80
   0   6   2    9.50    2.10
   0   6   2   11.80    1.70
   0  -6  -3    0.70    1.40
   0  -6  -3    2.70    1.80
   0  -6  -3    0.90    1.40
   0  -6  -3   -1.70    1.00
   0  -6  -3    1.90    1.60
   0   6   3   -0.10    1.10
   0   6   3   -0.10    1.20
   0   6   3    1.10    1.10
   0   6   3    1.30    1.10
   0   6   3    1.80    1.30
   0   6   3    2.10    1.30
   0   6   3   -1.30    1.30
   0  -6  -4   56.99    5.90
   0  -6  -4   60.89    4.80
   0  -6  -4   66.69    6.70
   0  -6  -4   51.89    4.60
   0   6   4   63.59    4.60
   0   6   4   56.09    5.00
   0   6   4   61.39    4.80
   0   6   4   66.09    5.30
   0   6   4   63.69    4.70
   0  -6  -5   11.80    4.80
   0  -6  -5   13.80    4.10
   0  -6  -5   10.30    3.20
   0  -6  -5   15.70    3.80
   0   6   5   11.50    2.90
   0   6   5    9.50    3.20
   0   6   5   12.40    3.10
   0   6   5   13.00    3.60
  -1  -6   5   -3.20    2.70
  -1  -6   5    2.10    2.80
   1   6  -5    2.70    2.50
   1   6  -5    2.60    3.00
  -1  -6   4    6.80    2.70
  -1  -6   4   14.00    3.50
   1   6  -4    8.90    3.00
   1   6  -4   13.80    3.20
  -1  -6   3   49.20    3.60
  -1  -6   3   59.09    4.40
  -1  -6   3   50.89    4.20
  -1  -6   3   53.69    3.50
   1   6  -3   53.59    4.50
   1   6  -3   59.49    5.40
   1   6  -3   55.49    4.90
  -1  -6   2  415.06   14.80
  -1  -6   2  411.36   15.50
  -1  -6   2  411.26   15.00
  -1  -6   2  411.66   15.50
   1   6  -2  410.56   16.20
   1   6  -2  384.86   16.40
   1   6  -2  390.26   15.70
  -1  -6   1 1119.79   37.70
  -1  -6   1 1116.49   37.70
  -1  -6   1 1077.49   38.10
  -1  -6   1 1118.29   37.80
  -1  -6   1 1128.69   37.90
   1   6  -1 1132.59   38.60
   1   6  -1 1072.59   38.80
  -1  -6   0 1586.44   56.19
  -1  -6   0 1619.64   54.99
  -1  -6   0 1610.14   56.49
  -1  -6   0 1825.62   55.29
  -1  -6   0 1694.03   56.89
   1   6   0 1656.23   55.69
   1   6   0 1639.44   56.19
   1   6   0 1643.24   56.09
  -1  -6  -1 1152.38   37.40
  -1  -6  -1 1137.99   38.90
  -1  -6  -1 1093.59   39.60
  -1  -6  -1 1081.79   38.50
  -1  -6  -1 1121.69   36.90
   1   6   1 1088.49   38.30
   1   6   1 1115.79   38.00
   1   6   1 1117.99   37.80
   1   6   1 1087.19   37.70
   1   6   1 1124.19   38.10
  -1  -6  -2  411.56   15.90
  -1  -6  -2  413.96   16.20
  -1  -6  -2  410.86   14.80
  -1  -6  -2  399.66   14.90
  -1  -6  -2  422.66   17.40
   1   6   2  412.36   15.20
   1   6   2  405.76   15.40
   1   6   2  405.86   14.60
   1   6   2  422.16   16.00
   1   6   2  397.76   15.00
   1   6   2  405.56   15.30
   1   6   2  424.36   14.80
  -1  -6  -3   71.09    7.10
  -1  -6  -3   60.39    4.00
  -1  -6  -3   62.39    4.80
  -1  -6  -3   57.29    5.10
  -1  -6  -3   56.29    3.90
   1   6   3   49.50    3.60
   1   6   3   60.79    3.80
   1   6   3   56.29    4.00
   1   6   3   59.69    3.70
   1   6   3   54.19    3.80
   1   6   3   53.49    4.20
   1   6   3   61.39    3.80
  -1  -6  -4   20.10    3.20
  -1  -6  -4   18.90    3.90
  -1  -6  -4   16.40    3.90
  -1  -6  -4   14.70    4.40
  -1  -6  -4   14.60    2.90
  -1  -6  -4   16.50    3.40
   1   6   4   15.30    2.70
   1   6   4   17.00    3.00
   1   6   4   16.90    3.00
   1   6   4   11.10    3.10
   1   6   4   12.80    2.80
   1   6   4   13.00    2.70
  -1  -6  -5   -1.80    2.90
  -1  -6  -5    5.10    2.70
  -1  -6  -5   -1.00    2.80
  -1  -6  -5    4.60    4.00
   1   6   5    1.00    2.30
   1   6   5    2.40    2.60
   1   6   5    3.00    2.10
   1   6   5   -2.70    2.10
  -2  -6   5    0.60    2.70
  -2  -6   5   -2.90    2.80
   2   6  -5    1.10    2.60
   2   6  -5    4.80    2.80
  -2  -6   4    1.50    2.20
  -2  -6   4    0.20    1.60
  -2  -6   4   -0.20    2.00
  -2  -6   4    6.80    2.20
   2   6  -4   -1.00    1.90
   2   6  -4    2.90    2.20
  -2  -6   3  171.88    8.00
  -2  -6   3  182.48    8.40
  -2  -6   3  187.88    9.00
  -2  -6   3  181.88    8.90
   2   6  -3  178.98    9.20
   2   6  -3  184.58    9.70
   2   6  -3  186.48    8.90
  -2  -6   2  130.59    5.90
  -2  -6   2  130.79    5.80
  -2  -6   2  129.49    5.30
  -2  -6   2  117.29    6.10
  -2  -6   2  124.89    6.10
   2   6  -2  122.89    6.40
   2   6  -2  126.19    6.40
   2   6  -2  123.69    6.90
  -2  -6   1  142.69    6.10
  -2  -6   1  149.59    7.00
  -2  -6   1  153.38    6.20
  -2  -6   1  152.08    6.20
  -2  -6   1  151.18    6.40
   2   6  -1  139.49    6.20
   2   6  -1  155.08    6.70
   2   6  -1  151.28    7.10
  -2  -6   0 3542.35  123.29
  -2  -6   0 3756.42  124.39
  -2  -6   0 3720.03  121.79
  -2  -6   0 3587.84  123.59
  -2  -6   0 3906.51  122.09
   2   6   0 3664.63  122.79
   2   6   0 3706.53  123.29
   2   6   0 3729.03  122.99
   2   6   0 3670.33  121.89
  -2  -6  -1  144.99    7.70
  -2  -6  -1  154.98    7.20
  -2  -6  -1  142.59    6.80
  -2  -6  -1  152.38    5.50
   2   6   1  151.58    6.30
   2   6   1  151.48    6.60
   2   6   1  141.79    6.10
   2   6   1  146.59    6.40
   2   6   1  144.79    6.10
  -2  -6  -2  121.59    5.30
  -2  -6  -2  121.49    5.30
  -2  -6  -2  121.09    6.50
  -2  -6  -2  129.99    7.70
  -2  -6  -2  117.69    6.20
   2   6   2  113.29    5.80
   2   6   2  115.59    5.60
   2   6   2  126.49    5.20
   2   6   2  122.69    5.80
   2   6   2  127.69    6.20
   2   6   2  121.79    5.10
   2   6   2  124.89    5.60
  -2  -6  -3  166.08    7.80
  -2  -6  -3  185.48    8.10
  -2  -6  -3  174.18    8.60
  -2  -6  -3  180.68   10.30
  -2  -6  -3  167.38    8.80
   2   6   3  171.98    8.10
   2   6   3  175.78    8.00
   2   6   3  173.98    7.60
   2   6   3  177.08    8.00
   2   6   3  177.38    7.80
   2   6   3  179.38    7.80
   2   6   3  169.88    8.50
  -2  -6  -4    3.00    3.10
  -2  -6  -4    1.20    2.40
  -2  -6  -4    3.20    2.40
  -2  -6  -4   -1.90    1.30
  -2  -6  -4    2.00    2.00
  -2  -6  -4    1.00    2.80
  -2  -6  -4    3.90    2.50
   2   6   4    1.60    1.50
   2   6   4    2.60    1.90
   2   6   4    6.90    2.00
   2   6   4    2.00    1.80
   2   6   4    0.90    2.00
  -2  -6  -5    2.70    4.20
  -2  -6  -5    0.20    2.60
  -2  -6  -5   -1.00    2.50
   2   6   5   -0.90    2.00
   2   6   5   -1.20    2.00
  -3  -6   5    3.30    3.10
  -3  -6   5    2.40    2.90
   3   6  -5    2.10    2.70
   3   6  -5    0.80    2.20
   3   6  -5    0.90    2.60
  -3  -6   4    6.40    2.70
  -3  -6   4   10.70    2.60
  -3  -6   4    7.30    2.50
  -3  -6   4    4.20    2.50
   3   6  -4    7.80    2.90
   3   6  -4    7.00    2.90
  -3  -6   3   15.50    2.50
  -3  -6   3   14.60    2.80
  -3  -6   3   18.70    2.90
  -3  -6   3   16.30    2.90
   3   6  -3   19.80    3.20
   3   6  -3   23.20    3.70
  -3  -6   2  176.98    7.80
  -3  -6   2  172.98    7.80
  -3  -6   2  176.38    7.30
  -3  -6   2  170.58    7.90
  -3  -6   2  162.68    7.40
   3   6  -2  184.98    8.80
   3   6  -2  172.78    8.00
   3   6  -2  174.38    7.70
  -3  -6   1  179.08    7.20
  -3  -6   1  169.38    6.80
  -3  -6   1  163.58    6.90
  -3  -6   1  160.28    7.80
  -3  -6   1  154.28    6.60
   3   6  -1  150.28    6.70
   3   6  -1  162.68    7.70
   3   6  -1  184.68    7.10
  -3  -6   0   41.60    3.00
  -3  -6   0   36.30    2.70
  -3  -6   0   37.90    4.20
  -3  -6   0   36.20    1.80
   3   6   0   36.50    2.60
   3   6   0   33.40    2.40
   3   6   0   36.40    2.40
   3   6   0   36.90    1.70
  -3  -6  -1  153.98    5.70
  -3  -6  -1  153.68    7.60
  -3  -6  -1  151.28    8.50
  -3  -6  -1  158.38    7.40
   3   6   1  163.08    6.70
   3   6   1  161.18    6.90
   3   6   1  162.78    7.10
  -3  -6  -2  175.28    8.20
  -3  -6  -2  177.58    9.70
  -3  -6  -2  166.68    6.80
  -3  -6  -2  171.18    8.50
  -3  -6  -2  168.88    7.00
   3   6   2  168.88    6.80
   3   6   2  167.08    7.60
   3   6   2  179.18    6.80
   3   6   2  179.88    8.10
   3   6   2  179.78    7.60
   3   6   2  176.68    7.40
   3   6   2  175.48    7.90
  -3  -6  -3   13.60    3.70
  -3  -6  -3   16.40    2.80
  -3  -6  -3   23.80    3.50
  -3  -6  -3   17.00    2.40
  -3  -6  -3   17.70    2.30
   3   6   3   18.80    2.90
   3   6   3   18.80    2.30
   3   6   3   16.90    2.60
   3   6   3   17.10    2.40
   3   6   3   17.80    2.60
   3   6   3   12.70    2.60
   3   6   3   16.90    2.30
  -3  -6  -4    9.60    3.60
  -3  -6  -4    8.30    3.00
  -3  -6  -4    8.30    2.80
  -3  -6  -4    7.70    3.00
  -3  -6  -4    7.40    4.00
   3   6   4    8.10    2.60
   3   6   4    9.80    2.40
   3   6   4    8.00    2.30
   3   6   4    9.00    2.30
   3   6   4    6.60    2.50
  -4  -6   5    3.00    3.00
  -4  -6   5    3.40    2.90
   4   6  -5    4.70    3.20
   4   6  -5    1.10    2.50
  -4  -6   4   42.80    5.10
  -4  -6   4   34.60    4.60
  -4  -6   4   38.00    5.10
  -4  -6   4   42.60    4.60
   4   6  -4   53.39    5.80
   4   6  -4   44.40    5.70
  -4  -6   3   20.70    3.20
  -4  -6   3   18.20    3.10
  -4  -6   3   14.40    2.50
  -4  -6   3   18.60    3.10
   4   6  -3   20.60    3.60
   4   6  -3   17.40    3.00
  -4  -6   2   70.29    4.40
  -4  -6   2   78.69    4.50
  -4  -6   2   75.69    4.50
  -4  -6   2   75.89    4.70
  -4  -6   2   78.79    4.40
   4   6  -2   86.79    4.20
   4   6  -2   69.89    4.50
   4   6  -2   72.69    5.10
  -4  -6   1  113.39    5.30
  -4  -6   1   97.99    6.20
  -4  -6   1  113.59    4.90
  -4  -6   1  114.99    5.50
   4   6  -1  111.69    5.10
   4   6  -1  111.39    5.00
   4   6  -1  110.19    5.90
  -4  -6   0  307.97   12.50
  -4  -6   0  303.57   10.90
  -4  -6   0  290.87   13.80
  -4  -6   0  313.87   12.20
   4   6   0  337.77   10.90
   4   6   0  311.07   11.80
   4   6   0  303.37   12.10
  -4  -6  -1   99.39    5.70
  -4  -6  -1  104.59    7.10
  -4  -6  -1  118.49    3.90
  -4  -6  -1  114.59    6.30
   4   6   1  107.99    5.40
   4   6   1  101.49    5.40
   4   6   1  106.39    4.10
   4   6   1  105.69    5.20
  -4  -6  -2   76.09    4.90
  -4  -6  -2   70.39    3.40
  -4  -6  -2   71.39    5.10
  -4  -6  -2   74.79    6.30
   4   6   2   77.79    4.10
   4   6   2   77.39    3.30
   4   6   2   75.59    4.60
   4   6   2   71.89    3.60
   4   6   2   71.19    4.60
   4   6   2   73.39    4.50
  -4  -6  -3   15.70    2.70
  -4  -6  -3   14.60    2.80
  -4  -6  -3   18.60    3.30
  -4  -6  -3   25.80    4.90
   4   6   3   12.90    2.60
   4   6   3   17.00    2.60
   4   6   3   17.50    2.90
   4   6   3   16.70    2.30
   4   6   3   19.40    2.90
  -4  -6  -4   32.30    4.80
  -4  -6  -4   32.80    6.40
  -4  -6  -4   28.90    5.40
  -4  -6  -4   40.30    4.80
  -4  -6  -4   31.70    5.00
   4   6   4   36.60    4.50
   4   6   4   37.50    4.10
   4   6   4   38.70    4.60
   4   6   4   42.40    4.00
   4   6   4   42.80    4.70
  -5  -6   5   -0.10    2.60
  -5  -6   5    0.50    2.90
  -5  -6   5    2.70    2.60
  -5  -6   5    0.90    2.50
   5   6  -5   -1.30    2.60
   5   6  -5    1.90    2.50
  -5  -6   4   -1.50    1.90
  -5  -6   4    3.60    2.40
  -5  -6   4    0.80    2.10
  -5  -6   4    3.20    2.30
   5   6  -4    2.10    2.10
   5   6  -4    2.50    2.40
   5   6  -4    3.10    2.60
  -5  -6   3    5.20    2.00
  -5  -6   3    4.70    2.20
  -5  -6   3    4.40    2.10
  -5  -6   3    3.70    2.00
   5   6  -3    9.70    2.80
   5   6  -3    6.90    2.30
  -5  -6   2   80.09    4.70
  -5  -6   2   80.99    4.70
  -5  -6   2   81.59    4.90
  -5  -6   2   76.69    4.50
  -5  -6   2   85.39    5.00
   5   6  -2   78.09    4.00
   5   6  -2   79.89    4.80
   5   6  -2   74.49    5.30
  -5  -6   1  212.58    8.40
  -5  -6   1  205.78    9.00
  -5  -6   1  196.48   10.20
  -5  -6   1  219.88    8.90
   5   6  -1  208.18    8.40
   5   6  -1  206.58    9.30
   5   6  -1  221.38    8.50
  -5  -6   0  305.77   11.90
  -5  -6   0  292.17   10.50
  -5  -6   0  291.37   12.10
  -5  -6   0  278.87   14.00
   5   6   0  316.37   12.00
   5   6   0  299.87   11.60
   5   6   0  315.17   10.70
  -5  -6  -1  203.38    9.30
  -5  -6  -1  193.08   11.20
  -5  -6  -1  197.88    9.60
   5   6   1  217.08    7.60
   5   6   1  222.48    9.00
   5   6   1  208.68    9.00
   5   6   1  201.48    9.10
  -5  -6  -2   73.09    5.30
  -5  -6  -2   72.59    5.00
  -5  -6  -2   84.59    8.40
   5   6   2   76.99    3.90
   5   6   2   76.69    4.70
   5   6   2   80.79    4.90
   5   6   2   82.79    5.10
  -5  -6  -3    6.00    3.30
  -5  -6  -3    3.30    2.30
  -5  -6  -3    4.70    2.10
   5   6   3    5.30    1.60
   5   6   3    2.70    1.90
   5   6   3    5.60    2.00
   5   6   3    6.10    2.10
  -5  -6  -4    4.70    3.10
  -5  -6  -4    2.90    3.30
  -5  -6  -4    1.60    2.90
  -5  -6  -4    3.50    2.60
  -5  -6  -4    2.30    2.50
   5   6   4   -0.70    2.10
   5   6   4    1.60    1.90
   5   6   4    5.30    2.40
   5   6   4   -0.40    1.70
   5   6   4    1.10    2.00
  -5  -6  -5    3.20    3.50
   5   6   5   -1.60    2.10
  -6  -6   4   17.50    3.80
  -6  -6   4   14.10    3.40
  -6  -6   4    8.40    2.80
  -6  -6   4    7.40    2.80
   6   6  -4   11.80    3.10
   6   6  -4   13.30    3.50
   6   6  -4    9.80    3.40
  -6  -6   3   21.70    3.60
  -6  -6   3   37.20    4.20
  -6  -6   3   25.20    3.60
  -6  -6   3   25.70    3.60
   6   6  -3   23.40    3.70
   6   6  -3   34.20    4.20
   6   6  -3   29.80    4.30
  -6  -6   2  160.38    8.10
  -6  -6   2  159.48    7.60
  -6  -6   2  143.49    7.20
  -6  -6   2  154.58    7.80
   6   6  -2  158.08    7.50
   6   6  -2  155.88    8.10
  -6  -6   1  179.68    7.30
  -6  -6   1  176.48    7.90
  -6  -6   1  175.28    9.50
  -6  -6   1  183.48    8.20
   6   6  -1  178.08    8.30
   6   6  -1  171.18    7.40
   6   6  -1  178.08    7.40
   6   6  -1  186.78    7.50
  -6  -6   0  392.46   14.90
  -6  -6   0  361.06   17.30
  -6  -6   0  391.36   14.60
  -6  -6   0  374.76   13.00
   6   6   0  365.96   13.00
   6   6   0  384.46   14.50
   6   6   0  395.26   13.50
   6   6   0  372.66   14.60
  -6  -6  -1  178.78    8.60
  -6  -6  -1  160.28   10.50
  -6  -6  -1  176.58    8.90
   6   6   1  197.38    7.10
   6   6   1  194.08    8.50
   6   6   1  193.18    8.50
  -6  -6  -2  168.88   10.90
  -6  -6  -2  154.98    8.50
  -6  -6  -2  173.88    8.60
   6   6   2  160.08    8.00
   6   6   2  160.08    8.00
   6   6   2  161.88    8.30
  -6  -6  -3   30.30    4.00
  -6  -6  -3   36.00    6.40
  -6  -6  -3   31.70    5.60
  -6  -6  -3   25.10    4.30
   6   6   3   29.80    4.00
   6   6   3   28.60    3.80
   6   6   3   38.60    4.50
  -6  -6  -4    2.00    2.70
  -6  -6  -4    8.70    3.80
  -6  -6  -4   13.30    5.10
   6   6   4   14.30    3.20
   6   6   4   13.10    3.30
   6   6   4   15.60    3.40
  -7  -6   4    5.00    2.70
  -7  -6   4    6.80    3.00
  -7  -6   4    2.60    2.50
   7   6  -4    3.20    2.60
   7   6  -4    0.30    2.00
  -7  -6   3   12.60    3.00
  -7  -6   3    8.30    2.70
  -7  -6   3   15.50    3.20
   7   6  -3    8.60    2.70
   7   6  -3   12.60    2.90
   7   6  -3    7.30    2.40
  -7  -6   2   73.29    5.10
  -7  -6   2   78.09    4.70
  -7  -6   2   69.19    5.30
  -7  -6   2   70.39    4.70
   7   6  -2   68.39    4.70
   7   6  -2   67.89    4.50
   7   6  -2   65.09    5.10
  -7  -6   1   33.90    4.80
  -7  -6   1   32.20    3.50
  -7  -6   1   30.30    2.40
  -7  -6   1   35.20    3.40
   7   6  -1   31.10    2.50
   7   6  -1   32.50    2.60
   7   6  -1   37.70    2.60
   7   6  -1   34.30    3.50
  -7  -6   0  449.66   16.50
  -7  -6   0  392.46   15.90
  -7  -6   0  389.46   19.00
   7   6   0  441.36   16.30
   7   6   0  411.16   14.90
   7   6   0  429.46   16.00
  -7  -6  -1   34.10    3.60
  -7  -6  -1   35.20    5.70
  -7  -6  -1   34.30    3.80
   7   6   1   38.20    3.80
   7   6   1   42.10    2.40
   7   6   1   38.00    3.70
  -7  -6  -2   68.99    8.50
  -7  -6  -2   76.69    5.30
  -7  -6  -2   70.19    5.40
   7   6   2   76.29    5.10
   7   6   2   73.49    5.10
  -7  -6  -3   10.60    3.40
  -7  -6  -3    8.60    3.90
  -7  -6  -3   12.10    3.00
  -7  -6  -3   10.50    4.40
   7   6   3   10.60    2.80
   7   6   3    8.60    2.50
   7   6   3   18.80    3.40
  -7  -6  -4    3.30    3.30
  -7  -6  -4    5.10    4.20
   7   6   4    5.30    2.80
   7   6   4    8.20    3.10
   7   6   4    5.40    2.70
  -8  -6   4    0.10    2.60
  -8  -6   4    3.70    2.90
  -8  -6   4    8.20    3.30
   8   6  -4   12.20    3.60
   8   6  -4   12.60    3.50
  -8  -6   3   42.20    5.20
  -8  -6   3   36.40    4.40
  -8  -6   3   30.20    4.30
   8   6  -3   39.90    4.70
   8   6  -3   31.00    4.20
   8   6  -3   28.10    4.30
  -8  -6   2   22.60    3.50
  -8  -6   2   22.30    3.30
  -8  -6   2   26.40    3.10
  -8  -6   2   19.60    3.60
   8   6  -2   32.60    3.60
   8   6  -2   22.30    2.90
   8   6  -2   27.20    3.50
  -8  -6   1   69.59    4.50
  -8  -6   1   70.59    4.70
  -8  -6   1   71.89    6.10
   8   6  -1   68.49    3.90
   8   6  -1   65.39    4.50
   8   6  -1   69.09    4.10
  -8  -6   0    1.90    2.60
  -8  -6   0    2.50    1.50
  -8  -6   0    2.70    1.30
   8   6   0    2.20    1.40
   8   6   0    4.80    1.70
   8   6   0    4.50    1.10
  -8  -6  -1   67.99    4.70
  -8  -6  -1   77.39    4.80
  -8  -6  -1   61.39    7.90
   8   6   1   65.69    4.60
   8   6   1   70.39    4.80
  -8  -6  -2   32.40    6.20
  -8  -6  -2   31.10    4.10
  -8  -6  -2   29.30    3.80
   8   6   2   31.20    3.90
   8   6   2   20.00    3.20
  -8  -6  -3   32.90    4.80
  -8  -6  -3   31.20    6.60
  -8  -6  -3   20.70    5.10
   8   6   3   28.40    4.10
   8   6   3   23.00    3.80
  -8  -6  -4   11.90    4.50
  -8  -6  -4    8.10    5.00
   8   6   4    3.90    2.70
   8   6   4    5.50    2.70
  -9  -6   4    5.20    3.10
  -9  -6   4   11.00    3.70
  -9  -6   4   12.50    4.00
   9   6  -4    8.90    3.30
   9   6  -4   12.40    3.50
  -9  -6   3   26.50    4.40
  -9  -6   3   22.50    3.70
  -9  -6   3   25.70    4.30
  -9  -6   3   18.70    3.70
   9   6  -3   27.30    4.10
   9   6  -3   23.00    3.70
   9   6  -3   19.40    3.60
  -9  -6   2   24.20    4.20
  -9  -6   2   28.00    3.70
  -9  -6   2   17.40    3.30
  -9  -6   2   25.00    3.10
   9   6  -2   20.00    3.10
   9   6  -2   23.20    3.00
  -9  -6   1   88.49    5.50
  -9  -6   1   96.89    5.90
  -9  -6   1   86.09    7.20
   9   6  -1   93.59    5.50
   9   6  -1   89.19    4.80
   9   6  -1   99.69    5.40
  -9  -6   0   96.79    5.50
  -9  -6   0   96.19    5.70
  -9  -6   0   98.09    8.20
   9   6   0   93.09    5.60
   9   6   0   96.79    4.60
   9   6   0   91.19    5.40
  -9  -6  -1   72.29    9.10
  -9  -6  -1   93.89    5.40
  -9  -6  -1   98.39    5.70
   9   6   1   95.89    6.00
   9   6   1   79.69    5.50
  -9  -6  -2   23.40    5.70
  -9  -6  -2   21.20    3.50
  -9  -6  -2   26.90    3.60
  -9  -6  -2   20.80    4.90
   9   6   2   25.70    3.80
   9   6   2   21.00    3.50
  -9  -6  -3   21.40    6.00
  -9  -6  -3   11.90    4.20
   9   6   3   17.80    3.60
   9   6   3   18.10    3.60
  -9  -6  -4   12.70    5.00
  -9  -6  -4   10.90    5.60
   9   6   4    7.50    3.10
   9   6   4    0.70    2.60
 -10  -6   4   -1.50    2.70
 -10  -6   4   -0.70    2.40
  10   6  -4    0.20    2.40
  10   6  -4   -0.60    2.40
 -10  -6   3    4.10    3.10
 -10  -6   3    7.00    3.00
 -10  -6   3    8.60    2.70
 -10  -6   3    9.50    3.40
  10   6  -3    5.70    2.70
 -10  -6   2    1.70    1.90
 -10  -6   2    1.90    2.40
 -10  -6   2   -0.20    1.90
  10   6  -2    1.90    1.70
  10   6  -2    0.30    1.90
 -10  -6   1   51.69    6.80
 -10  -6   1   53.79    5.20
 -10  -6   1   50.39    4.90
  10   6  -1   54.59    4.50
  10   6  -1   58.69    3.70
 -10  -6   0    2.30    3.00
 -10  -6   0   -1.80    1.50
 -10  -6   0    1.70    1.50
  10   6   0    0.80    1.70
  10   6   0   -1.60    1.40
  10   6   0    1.30    1.10
 -10  -6  -1   50.39    4.60
 -10  -6  -1   46.90    6.90
 -10  -6  -1   53.59    4.30
 -10  -6  -1   53.79    8.10
  10   6   1   52.59    5.30
  10   6   1   55.19    5.20
 -10  -6  -2    7.00    2.50
 -10  -6  -2    2.50    1.80
 -10  -6  -2   -0.10    3.50
 -10  -6  -2    0.20    3.10
  10   6   2    1.60    2.00
  10   6   2    3.50    2.20
 -10  -6  -3    0.00    3.30
 -10  -6  -3    2.00    4.10
  10   6   3    8.50    3.00
  10   6   3   10.70    3.20
 -10  -6  -4    2.00    3.80
 -10  -6  -4   -1.10    4.50
  10   6   4   -2.00    2.70
  10   6   4   -1.30    2.50
 -11  -6   3    8.60    3.60
 -11  -6   3    8.00    3.50
 -11  -6   3    5.40    3.00
  11   6  -3   15.90    3.30
 -11  -6   2    4.70    2.60
 -11  -6   2   14.40    4.00
 -11  -6   2    8.70    2.90
  11   6  -2   11.30    2.80
  11   6  -2   15.80    2.90
 -11  -6   1  140.99    7.60
 -11  -6   1  141.49    8.00
 -11  -6   1  122.49    9.40
  11   6  -1  132.39    7.40
  11   6  -1  125.09    6.40
 -11  -6   0   14.70    4.50
 -11  -6   0   22.20    3.50
 -11  -6   0   14.00    2.80
 -11  -6   0   14.60    4.10
  11   6   0   11.80    3.00
  11   6   0   14.90    2.90
 -11  -6  -1  131.29   10.60
 -11  -6  -1  131.09    7.40
 -11  -6  -1  133.59    7.00
 -11  -6  -1  117.59   12.20
  11   6   1  119.29    7.60
  11   6   1  124.19    7.50
 -11  -6  -2   17.90    5.10
 -11  -6  -2   18.70    5.80
  11   6   2   15.30    3.60
  11   6   2    9.10    3.00
 -11  -6  -3   18.30    6.30
 -11  -6  -3    9.50    4.70
  11   6   3   10.90    3.30
  11   6   3   11.20    3.50
 -12  -6   3   10.40    4.40
 -12  -6   3    3.90    3.70
 -12  -6   3    2.50    3.00
  12   6  -3    7.80    2.80
 -12  -6   2   32.80    5.00
 -12  -6   2   27.30    4.50
 -12  -6   2   19.90    4.70
  12   6  -2   31.60    4.60
  12   6  -2   24.60    3.40
 -12  -6   1    6.20    3.30
 -12  -6   1    2.60    2.20
 -12  -6   1    0.60    2.10
  12   6  -1    5.60    2.50
  12   6  -1    4.30    1.80
 -12  -6   0   56.59    5.20
 -12  -6   0   59.09    5.80
 -12  -6   0   42.80    6.90
 -12  -6   0   65.49    8.20
  12   6   0   55.09    5.70
  12   6   0   48.80    5.00
 -12  -6  -1    5.20    3.50
 -12  -6  -1    5.60    3.90
 -12  -6  -1    2.40    2.10
 -12  -6  -1   -1.40    1.70
  12   6   1    4.90    2.50
  12   6   1    6.70    2.60
 -12  -6  -2   31.90    7.30
 -12  -6  -2   27.50    6.60
  12   6   2   28.90    4.70
  12   6   2   32.30    5.00
 -12  -6  -3    3.90    4.20
 -12  -6  -3   13.70    6.20
  12   6   3    3.20    3.00
  12   6   3   10.40    3.50
 -13  -6   2    6.00    3.50
 -13  -6   2    2.70    3.20
 -13  -6   2    2.10    3.00
  13   6  -2    5.10    2.20
 -13  -6   1   35.30    4.70
 -13  -6   1   39.20    5.40
 -13  -6   1   30.10    6.00
  13   6  -1   45.90    5.20
 -13  -6   0   28.90    6.20
 -13  -6   0   35.70    4.80
 -13  -6   0   26.40    3.80
  13   6   0   34.40    4.70
 -13  -6  -1   21.50    5.80
 -13  -6  -1   26.00    4.90
 -13  -6  -1   38.60    7.30
  13   6   1   45.10    5.80
  13   6   1   38.50    5.00
 -13  -6  -2    3.70    4.70
 -13  -6  -2   14.30    5.60
  13   6   2    4.00    2.60
  13   6   2    4.50    2.90
 -14  -6   2    6.50    4.10
 -14  -6   2    6.50    3.20
  14   6  -2    6.00    2.70
 -14  -6   1    5.80    3.10
 -14  -6   1   10.80    4.40
 -14  -6   1    8.00    3.30
  14   6  -1    7.20    3.00
 -14  -6   0   -1.20    1.90
 -14  -6   0    1.10    2.60
 -14  -6   0   -0.10    3.50
  14   6   0   -2.30    2.50
 -14  -6  -1    8.00    4.70
 -14  -6  -1    7.70    5.30
  14   6   1    6.70    2.80
  14   6   1    2.70    2.70
 -14  -6  -2    6.60    4.90
 -14  -6  -2    2.20    4.50
  14   6   2    6.90    3.50
  14   6   2    3.20    3.50
 -15  -6   0   -0.70    3.60
 -15  -6   0    4.40    2.80
  15   6   0    4.00    2.90
  14  -7   1    5.50    2.40
 -14   7  -1    4.60    3.50
 -14   7  -1    7.00    5.10
  14  -7   0   54.49    5.40
 -14   7   0   33.10    5.60
  14  -7  -1    4.90    2.10
 -14   7   1    1.70    3.10
  13  -7   2    5.80    3.30
  13  -7   2    0.00    2.00
 -13   7  -2   -1.50    3.50
 -13   7  -2    5.60    4.80
  13  -7   1   -0.40    1.80
 -13   7  -1   -2.80    2.10
 -13   7  -1    0.30    4.20
  13  -7   0   11.00    2.60
  13  -7   0    5.30    1.90
 -13   7   0    4.10    3.00
  13  -7  -1    0.60    1.70
  13  -7  -1    2.30    2.00
 -13   7   1   -2.50    2.40
  13  -7  -2    0.30    2.20
  13  -7  -2    4.10    2.30
 -13   7   2   -0.60    2.30
 -13   7   2    2.90    2.50
  12  -7   3    1.30    2.30
  12  -7   3    2.50    3.20
 -12   7  -3    2.60    4.50
 -12   7  -3    2.30    3.70
  12  -7   2   16.30    3.30
  12  -7   2   20.10    4.30
 -12   7  -2    7.70    4.50
 -12   7  -2   16.00    5.70
  12  -7   1    4.40    2.10
  12  -7   1    1.90    1.70
 -12   7  -1   10.40    5.10
 -12   7  -1    5.50    3.00
  12  -7   0   42.00    3.90
  12  -7   0   42.70    4.30
 -12   7   0   29.70    4.90
  12  -7  -1    6.10    2.00
  12  -7  -1    5.90    2.00
 -12   7   1    4.70    3.00
  12  -7  -2   20.60    3.50
  12  -7  -2   19.00    3.50
 -12   7   2   13.80    3.90
 -12   7   2   12.50    3.10
 -12   7   2   17.90    4.40
  12  -7  -3    0.40    1.90
  12  -7  -3    1.40    2.20
 -12   7   3   -0.80    2.90
 -12   7   3   -3.00    2.60
 -12   7   3    0.10    2.40
  11  -7   3   10.60    3.20
  11  -7   3   24.30    4.80
 -11   7  -3   18.40    6.20
 -11   7  -3   17.40    5.20
  11  -7   2    6.00    2.80
  11  -7   2    4.20    2.70
  11  -7   2    2.80    2.10
 -11   7  -2   13.20    5.00
 -11   7  -2    4.50    3.50
  11  -7   1   14.10    3.10
  11  -7   1   12.80    2.40
  11  -7   1   11.10    2.50
 -11   7  -1   14.50    4.60
 -11   7  -1   12.80    3.30
 -11   7  -1   20.40    4.20
  11  -7   0    2.50    1.60
  11  -7   0    0.70    1.50
 -11   7   0    3.50    3.20
 -11   7   0    1.70    2.30
  11  -7  -1   14.60    2.60
  11  -7  -1   13.30    2.60
 -11   7   1   14.80    3.60
  11  -7  -2   13.20    2.90
  11  -7  -2    4.20    2.20
 -11   7   2    7.40    2.70
 -11   7   2    0.20    2.30
 -11   7   2    4.20    2.80
  11  -7  -3   14.60    3.10
  11  -7  -3   17.50    3.40
 -11   7   3   18.40    4.30
 -11   7   3   13.20    3.90
 -11   7   3   14.90    3.60
  10  -7   3   14.40    3.20
  10  -7   3   14.30    4.10
 -10   7  -3   16.50    4.80
 -10   7  -3   12.10    5.00
  10  -7   2   45.00    5.30
  10  -7   2   34.80    3.90
  10  -7   2   31.20    4.00
 -10   7  -2   42.20    7.30
 -10   7  -2   43.60    6.30
  10  -7   1    6.30    2.00
  10  -7   1    7.70    1.90
  10  -7   1   11.20    2.60
 -10   7  -1   11.10    3.10
 -10   7  -1    5.60    3.50
 -10   7  -1    9.50    3.10
  10  -7   0  173.88    7.40
  10  -7   0  166.68    7.60
 -10   7   0  139.39    8.70
 -10   7   0  171.28   10.70
  10  -7  -1    4.50    1.80
  10  -7  -1    6.60    1.80
 -10   7   1    4.20    1.80
 -10   7   1    7.20    2.70
 -10   7   1    6.60    2.40
  10  -7  -2   47.10    4.60
  10  -7  -2   44.10    4.40
 -10   7   2   46.90    5.80
 -10   7   2   38.50    4.50
 -10   7   2   44.60    5.10
  10  -7  -3    9.80    2.70
  10  -7  -3   16.20    3.10
 -10   7   3   13.60    3.90
 -10   7   3   11.90    3.80
 -10   7   3   10.80    3.10
   9  -7   4    6.00    3.20
   9  -7   4    3.50    2.60
  -9   7  -4    8.60    4.10
  -9   7  -4    3.80    4.10
   9  -7   3    7.00    2.60
   9  -7   3    6.10    2.60
   9  -7   3    9.90    3.30
  -9   7  -3   11.70    4.40
  -9   7  -3    6.60    4.20
   9  -7   2   99.19    6.70
   9  -7   2   94.39    5.80
   9  -7   2  105.99    6.40
  -9   7  -2  112.59    8.30
  -9   7  -2  100.99   10.20
   9  -7   1   39.20    4.10
   9  -7   1   15.80    2.30
   9  -7   1   25.30    3.00
  -9   7  -1   24.00    4.80
  -9   7  -1   32.90    3.90
  -9   7  -1   32.00    4.70
   9  -7   0  189.68    7.80
   9  -7   0  168.18    7.70
  -9   7   0  178.68   10.50
  -9   7   0  170.48    9.10
   9  -7  -1   35.20    3.50
   9  -7  -1   29.80    3.10
  -9   7   1   37.30    3.60
  -9   7   1   28.50    3.40
  -9   7   1   34.50    4.50
   9  -7  -2  107.19    6.10
   9  -7  -2  113.49    6.30
  -9   7   2   96.79    7.10
  -9   7   2  114.99    6.50
  -9   7   2  116.79    7.10
   9  -7  -3    5.30    2.20
   9  -7  -3    8.80    2.80
  -9   7   3    4.10    2.90
  -9   7   3   10.20    3.20
  -9   7   3    6.40    2.50
   9  -7  -4    7.60    2.70
   9  -7  -4    5.20    2.80
  -9   7   4    0.00    2.40
  -9   7   4    2.30    2.90
  -9   7   4    3.20    3.10
   8  -7   4    7.40    3.10
   8  -7   4    3.80    2.60
   8  -7   4    7.40    3.50
  -8   7  -4    2.30    3.20
  -8   7  -4    2.30    3.80
   8  -7   3   14.10    3.10
   8  -7   3   10.60    3.30
   8  -7   3   15.60    3.10
  -8   7  -3   13.30    4.50
  -8   7  -3    9.00    3.60
   8  -7   2    3.90    2.10
   8  -7   2    2.30    1.60
   8  -7   2   -0.40    1.10
  -8   7  -2    1.10    3.00
  -8   7  -2    0.70    2.20
   8  -7   1  342.17   13.90
   8  -7   1  361.26   14.50
  -8   7  -1  366.96   15.90
  -8   7  -1  356.66   14.60
  -8   7  -1  359.86   17.40
   8  -7   0   43.10    2.90
   8  -7   0   33.30    2.90
   8  -7   0   41.10    2.90
  -8   7   0   39.40    4.30
  -8   7   0   42.80    4.20
  -8   7   0   33.20    2.70
  -8   7   0   37.20    4.80
  -8   7   0   38.10    2.60
   8  -7  -1  363.96   14.40
   8  -7  -1  400.56   14.30
  -8   7   1  356.76   14.60
  -8   7   1  369.16   14.40
  -8   7   1  376.26   16.00
  -8   7   1  353.96   15.60
   8  -7  -2    3.30    1.60
   8  -7  -2    0.90    1.30
  -8   7   2    0.20    1.70
  -8   7   2   -0.90    1.70
  -8   7   2    2.20    1.90
   8  -7  -3   15.60    3.10
   8  -7  -3   16.80    2.90
  -8   7   3   15.70    3.00
  -8   7   3   18.90    3.90
  -8   7   3   20.10    3.80
   8  -7  -4    5.20    2.40
   8  -7  -4    7.50    2.90
  -8   7   4    4.90    2.70
  -8   7   4    6.10    3.20
  -8   7   4    2.40    2.80
   7  -7   4   10.20    3.30
   7  -7   4    9.70    3.00
   7  -7   4   11.90    3.60
  -7   7  -4    9.80    4.30
  -7   7  -4    6.70    3.70
   7  -7   3   19.00    3.50
   7  -7   3   21.90    3.50
   7  -7   3   25.30    4.10
  -7   7  -3   22.60    4.90
  -7   7  -3   27.10    6.00
   7  -7   2  104.59    5.90
   7  -7   2  114.39    6.70
   7  -7   2  101.19    6.00
  -7   7  -2  108.29    8.60
  -7   7  -2  127.79    8.40
   7  -7   1   32.90    3.40
   7  -7   1   33.00    3.20
   7  -7   1   25.70    2.70
  -7   7  -1   36.60    3.60
  -7   7  -1   31.90    4.10
  -7   7  -1   26.80    4.50
   7  -7   0   31.50    2.40
   7  -7   0   28.60    2.50
   7  -7   0   30.60    2.50
  -7   7   0   28.20    4.30
  -7   7   0   30.60    2.40
  -7   7   0   23.60    3.20
  -7   7   0   32.90    3.50
  -7   7   0   27.20    2.10
   7  -7  -1   33.10    2.80
   7  -7  -1   33.50    2.70
  -7   7   1   38.00    3.50
  -7   7   1   34.70    3.20
  -7   7   1   32.30    3.90
  -7   7   1   29.10    3.80
   7  -7  -2  117.69    6.00
   7  -7  -2  112.29    6.10
  -7   7   2  116.39    6.30
  -7   7   2  115.69    7.20
  -7   7   2  112.29    6.50
   7  -7  -3   23.20    3.20
   7  -7  -3   22.70    3.40
  -7   7   3   28.20    4.20
  -7   7   3   23.40    4.10
  -7   7   3   25.00    3.60
   7  -7  -4    9.40    2.70
   7  -7  -4   13.60    3.20
  -7   7   4    8.70    2.90
  -7   7   4   11.20    3.40
  -7   7   4    2.70    2.50
   6  -7   4   13.10    3.30
   6  -7   4   10.10    3.30
   6  -7   4   10.10    3.20
  -6   7  -4    5.00    3.60
  -6   7  -4    9.00    3.80
   6  -7   3   32.60    4.10
   6  -7   3   48.80    5.30
   6  -7   3   39.90    4.50
  -6   7  -3   30.80    5.60
  -6   7  -3   31.00    5.40
   6  -7   2    9.60    2.10
   6  -7   2   13.60    2.70
   6  -7   2   11.20    2.20
  -6   7  -2   12.10    3.50
  -6   7  -2   14.70    3.50
   6  -7   1  140.79    6.50
   6  -7   1  124.79    5.80
   6  -7   1  124.79    5.90
  -6   7  -1  123.09    6.10
  -6   7  -1  121.79    8.10
  -6   7  -1  120.99    7.20
   6  -7   0  212.28    8.60
   6  -7   0  218.48    8.60
   6  -7   0  221.08    8.90
   6  -7   0  220.88    8.50
  -6   7   0  218.18    8.50
  -6   7   0  212.08    9.50
  -6   7   0  209.88    8.30
  -6   7   0  218.58    9.40
  -6   7   0  210.48   10.70
   6  -7  -1  126.29    5.90
   6  -7  -1  148.69    6.40
  -6   7   1  121.99    6.10
  -6   7   1  136.09    7.10
  -6   7   1  130.89    7.10
  -6   7   1  141.49    6.50
   6  -7  -2   13.40    2.00
   6  -7  -2   11.40    2.20
  -6   7   2   11.70    2.70
  -6   7   2   18.20    2.70
  -6   7   2   13.30    2.60
   6  -7  -3   39.10    3.90
   6  -7  -3   41.30    4.30
  -6   7   3   39.00    4.30
  -6   7   3   30.20    4.50
  -6   7   3   29.00    4.00
   6  -7  -4   11.30    2.70
   6  -7  -4    6.70    2.60
  -6   7   4    5.40    2.70
  -6   7   4    5.00    2.60
  -6   7   4    9.20    2.90
  -6   7   4    9.40    2.90
  -5   7  -5    0.00    3.30
  -5   7  -5    3.20    3.80
   5  -7   4   16.20    3.60
   5  -7   4   14.20    3.50
   5  -7   4   12.50    3.30
  -5   7  -4    7.30    3.70
  -5   7  -4   12.30    4.30
   5  -7   3   98.09    6.40
   5  -7   3   76.99    5.50
   5  -7   3   80.39    5.60
  -5   7  -3   78.49    8.60
  -5   7  -3   97.89    7.60
   5  -7   2   12.30    2.50
   5  -7   2   12.00    2.20
   5  -7   2   13.60    2.30
  -5   7  -2    9.90    3.20
  -5   7  -2   17.20    3.50
   5  -7   1  175.38    7.80
   5  -7   1  164.88    6.40
   5  -7   1  169.68    7.20
   5  -7   1  179.78    7.40
  -5   7  -1  166.08    9.60
  -5   7  -1  169.68    8.60
  -5   7  -1  175.18    7.30
   5  -7   0  116.69    5.10
   5  -7   0  115.29    5.10
   5  -7   0  112.29    4.90
   5  -7   0  116.19    5.00
   5  -7   0  115.69    5.30
  -5   7   0  109.39    4.70
  -5   7   0  109.89    6.70
  -5   7   0  110.29    5.60
  -5   7   0  108.49    4.80
  -5   7   0  103.19    5.60
   5  -7  -1  182.58    7.60
   5  -7  -1  174.18    7.20
  -5   7   1  185.48    7.80
  -5   7   1  186.48    8.30
  -5   7   1  177.68    7.60
  -5   7   1  166.28    8.20
   5  -7  -2   14.70    2.30
   5  -7  -2   10.00    1.70
  -5   7   2   13.60    2.40
  -5   7   2   17.70    2.50
  -5   7   2   11.80    1.70
  -5   7   2   12.80    2.70
   5  -7  -3   87.49    5.50
   5  -7  -3   87.09    5.10
  -5   7   3   89.09    6.20
  -5   7   3   77.39    5.30
  -5   7   3   74.19    5.50
   5  -7  -4   12.40    3.10
   5  -7  -4    6.40    3.20
   5  -7  -4   13.60    2.90
  -5   7   4   10.80    3.00
  -5   7   4    9.80    3.10
  -5   7   4    9.00    3.00
  -5   7   4    7.20    2.80
   5  -7  -5    0.90    2.40
   5  -7  -5    4.20    3.10
  -5   7   5   -1.10    2.80
  -5   7   5   -1.70    2.60
  -5   7   5    1.30    2.80
   4  -7   5    3.60    3.20
   4  -7   5   -1.50    2.30
  -4   7  -5    1.80    3.10
  -4   7  -5   -1.40    4.90
  -4   7  -5   -0.40    1.90
   4  -7   4   17.90    3.60
   4  -7   4   20.20    3.80
   4  -7   4   16.80    3.80
  -4   7  -4   19.10    4.70
  -4   7  -4   17.00    4.30
   4  -7   3   35.90    4.10
   4  -7   3   39.60    4.40
   4  -7   3   34.20    4.20
  -4   7  -3   21.80    4.50
  -4   7  -3   33.50    5.10
   4  -7   2   31.40    3.20
   4  -7   2   34.00    3.40
   4  -7   2   33.10    3.60
  -4   7  -2   24.80    3.90
  -4   7  -2   26.80    4.40
   4  -7   1  101.99    4.30
   4  -7   1  110.39    5.40
   4  -7   1  105.89    5.00
   4  -7   1  103.69    4.20
   4  -7   1  108.59    5.00
  -4   7  -1  110.89    6.90
  -4   7  -1  105.19    4.80
  -4   7  -1  101.19    6.00
   4  -7   0  686.73   23.90
   4  -7   0  691.73   23.80
   4  -7   0  702.43   23.70
   4  -7   0  678.63   24.10
  -4   7   0  693.33   23.50
  -4   7   0  669.03   25.70
  -4   7   0  694.13   24.50
  -4   7   0  674.43   24.40
  -4   7   0  677.43   23.70
   4  -7  -1  111.09    5.10
   4  -7  -1  107.69    4.80
   4  -7  -1  116.49    5.90
  -4   7   1  103.89    5.80
  -4   7   1  117.19    4.30
  -4   7   1  101.09    5.50
  -4   7   1  112.19    5.20
  -4   7   1  108.49    5.30
   4  -7  -2   28.00    3.60
   4  -7  -2   32.30    2.50
   4  -7  -2   29.30    3.00
  -4   7   2   31.80    3.40
  -4   7   2   41.60    4.30
  -4   7   2   34.30    3.30
  -4   7   2   30.10    2.30
   4  -7  -3   34.50    4.60
   4  -7  -3   34.80    3.80
   4  -7  -3   38.00    3.80
  -4   7   3   34.10    3.80
  -4   7   3   29.90    3.90
  -4   7   3   40.80    4.60
  -4   7   3   41.70    3.60
   4  -7  -4   20.30    3.20
   4  -7  -4   19.30    3.80
   4  -7  -4   14.40    3.90
  -4   7   4   25.10    3.80
  -4   7   4   12.80    3.30
  -4   7   4   16.00    3.40
  -4   7   4   18.00    3.50
   4  -7  -5    1.50    2.90
   4  -7  -5    1.30    2.90
   4  -7  -5   -1.60    3.50
   4  -7  -5    1.20    2.60
  -4   7   5   -0.20    2.30
  -4   7   5   -1.50    2.70
  -4   7   5    0.50    2.50
  -4   7   5   -4.20    2.50
   3  -7   5    3.20    3.20
   3  -7   5    3.40    2.80
  -3   7  -5   -1.10    2.70
  -3   7  -5    0.10    2.30
   3  -7   4    1.70    2.10
   3  -7   4    4.70    2.70
  -3   7  -4    6.50    3.20
  -3   7  -4    1.70    3.00
   3  -7   3   19.30    3.10
   3  -7   3   25.50    3.60
   3  -7   3   21.30    3.30
  -3   7  -3   23.40    4.30
  -3   7  -3   17.90    3.90
   3  -7   2  323.37   13.00
   3  -7   2  310.47   12.80
   3  -7   2  328.27   13.30
  -3   7  -2  336.07   14.60
  -3   7  -2  331.67   15.20
   3  -7   1   83.99    4.00
   3  -7   1   92.69    4.00
   3  -7   1   94.79    4.50
   3  -7   1   98.39    4.60
  -3   7  -1   98.79    6.30
  -3   7  -1   98.39    4.10
  -3   7  -1   98.79    5.70
   3  -7   0  135.59    5.80
   3  -7   0  136.49    6.00
   3  -7   0  142.59    5.60
   3  -7   0  137.59    5.40
  -3   7   0  130.59    5.50
  -3   7   0  131.09    7.00
  -3   7   0  135.39    6.00
  -3   7   0  133.39    5.40
  -3   7   0  138.59    6.20
   3  -7  -1   86.19    4.10
   3  -7  -1   98.09    5.20
   3  -7  -1  100.89    4.60
   3  -7  -1  101.49    5.10
  -3   7   1   91.99    4.50
  -3   7   1  100.69    3.90
  -3   7   1   97.89    5.20
  -3   7   1   91.99    4.90
  -3   7   1  102.69    4.90
   3  -7  -2  349.17   12.90
   3  -7  -2  346.07   13.30
   3  -7  -2  330.07   14.30
  -3   7   2  338.97   12.80
  -3   7   2  342.67   13.40
  -3   7   2  337.37   14.10
  -3   7   2  355.16   13.80
   3  -7  -3   26.20    3.00
   3  -7  -3   21.80    3.20
   3  -7  -3   25.10    3.90
  -3   7   3   27.30    3.60
  -3   7   3   19.40    3.40
  -3   7   3   28.20    3.20
  -3   7   3   26.50    3.30
   3  -7  -4    4.00    2.10
   3  -7  -4    1.90    2.70
   3  -7  -4    1.90    1.90
  -3   7   4    1.80    2.10
  -3   7   4    4.10    2.50
  -3   7   4    3.30    2.10
  -3   7   4    0.00    1.80
   3  -7  -5    3.20    2.90
   3  -7  -5   -3.00    3.10
   3  -7  -5   -0.80    2.00
   3  -7  -5   -3.30    2.20
  -3   7   5    1.40    2.60
  -3   7   5    0.50    2.30
  -3   7   5    2.40    2.80
  -3   7   5   -0.10    2.50
   2  -7   5   10.90    3.70
   2  -7   5    0.80    3.30
  -2   7  -5    6.50    3.80
  -2   7  -5    5.20    3.10
   2  -7   4    2.30    2.20
   2  -7   4    3.40    2.30
  -2   7  -4    3.00    2.60
  -2   7  -4   -0.40    2.40
   2  -7   3   16.90    2.90
   2  -7   3   13.90    2.60
  -2   7  -3   11.00    3.10
  -2   7  -3    8.20    3.00
   2  -7   2   24.70    2.80
   2  -7   2   22.80    1.70
   2  -7   2   18.10    2.40
   2  -7   2   19.70    1.50
  -2   7  -2   24.30    3.70
  -2   7  -2   22.20    3.50
   2  -7   1  262.47    9.90
   2  -7   1  270.97   10.30
   2  -7   1  272.27   10.30
   2  -7   1  268.47   10.10
  -2   7  -1  266.37   11.40
  -2   7  -1  269.67   12.10
  -2   7  -1  275.77    9.60
   2  -7   0  784.32   27.80
   2  -7   0  855.11   27.20
   2  -7   0  842.82   27.00
   2  -7   0  777.32   27.60
  -2   7   0  758.72   28.60
  -2   7   0  773.02   27.20
  -2   7   0  769.72   27.80
  -2   7   0  778.82   27.60
  -2   7   0  807.12   27.10
   2  -7  -1  282.07   11.20
   2  -7  -1  266.87   10.20
   2  -7  -1  254.87    9.70
   2  -7  -1  269.67   10.80
  -2   7   1  279.97    9.70
  -2   7   1  274.67   11.00
  -2   7   1  273.97   10.30
  -2   7   1  264.57   10.60
  -2   7   1  275.57   10.50
   2  -7  -2   22.70    2.90
   2  -7  -2   22.00    2.10
   2  -7  -2   25.30    2.50
   2  -7  -2   18.60    2.90
  -2   7   2   19.00    2.10
  -2   7   2   22.10    1.70
  -2   7   2   17.80    2.40
  -2   7   2   25.50    3.20
  -2   7   2   23.30    2.50
   2  -7  -3   14.40    2.90
   2  -7  -3   15.80    2.40
   2  -7  -3   16.00    2.70
   2  -7  -3   19.70    3.50
  -2   7   3   14.70    2.70
  -2   7   3   22.50    3.30
  -2   7   3   15.40    2.10
  -2   7   3   15.70    2.60
  -2   7   3   20.10    2.60
   2  -7  -4    2.50    2.40
   2  -7  -4    5.30    2.80
   2  -7  -4    3.40    2.20
   2  -7  -4    4.50    2.20
  -2   7   4    1.40    1.90
  -2   7   4    2.20    2.00
  -2   7   4   -1.20    1.90
  -2   7   4    2.60    2.10
   2  -7  -5    7.20    3.00
   2  -7  -5    7.00    3.80
   2  -7  -5    5.50    3.10
  -2   7   5    7.50    2.70
  -2   7   5   10.70    3.30
  -2   7   5    5.50    3.00
  -2   7   5    9.90    3.20
   1  -7   5   14.80    3.90
   1  -7   5   14.30    3.90
  -1   7  -5   14.60    4.60
  -1   7  -5   15.80    4.00
   1  -7   4   13.00    3.10
   1  -7   4    9.20    2.90
  -1   7  -4    8.10    2.90
  -1   7  -4   10.00    3.50
  -1   7  -4   13.30    3.70
   1  -7   3   28.10    3.60
   1  -7   3   26.40    3.50
  -1   7  -3   23.80    3.90
  -1   7  -3   43.20    5.20
   1  -7   2  147.89    6.00
   1  -7   2  143.69    5.80
   1  -7   2  147.29    6.90
   1  -7   2  144.09    6.90
  -1   7  -2  145.39    8.10
  -1   7  -2  141.09    7.90
   1  -7   1  778.12   26.50
   1  -7   1  771.82   26.70
   1  -7   1  764.52   26.50
   1  -7   1  767.92   26.80
   1  -7   1  794.72   26.90
  -1   7  -1  767.82   26.00
  -1   7  -1  751.42   28.00
  -1   7  -1  779.92   28.50
   1  -7   0  431.36   14.30
   1  -7   0  406.36   15.20
   1  -7   0  411.16   14.10
   1  -7   0  403.96   14.90
  -1   7   0  401.26   15.00
  -1   7   0  383.06   15.50
  -1   7   0  394.46   14.30
  -1   7   0  410.56   14.70
   1  -7  -1  782.12   27.00
   1  -7  -1  758.02   26.10
   1  -7  -1  758.22   27.20
   1  -7  -1  715.23   25.50
  -1   7   1  777.22   26.30
  -1   7   1  757.62   25.90
  -1   7   1  755.72   26.90
  -1   7   1  769.62   26.50
  -1   7   1  757.42   26.70
   1  -7  -2  146.59    6.10
   1  -7  -2  146.89    7.50
   1  -7  -2  149.99    7.30
   1  -7  -2  154.98    6.60
  -1   7   2  142.79    6.40
  -1   7   2  141.59    7.20
  -1   7   2  156.38    7.10
  -1   7   2  141.89    6.60
  -1   7   2  151.08    5.90
   1  -7  -3   29.30    3.30
   1  -7  -3   33.50    4.30
   1  -7  -3   32.80    3.30
   1  -7  -3   37.40    4.20
  -1   7   3   38.30    3.40
  -1   7   3   37.70    3.50
  -1   7   3   33.10    3.60
  -1   7   3   40.00    4.40
  -1   7   3   31.50    3.40
   1  -7  -4    9.30    3.40
   1  -7  -4   11.50    2.70
   1  -7  -4   11.10    2.60
   1  -7  -4   11.40    3.10
  -1   7   4   13.70    2.90
  -1   7   4   14.80    2.80
  -1   7   4   10.20    2.90
  -1   7   4   14.90    3.20
  -1   7   4    7.50    2.40
   1  -7  -5   25.80    4.50
   1  -7  -5   22.90    5.40
   1  -7  -5   26.20    4.70
   1  -7  -5   27.10    6.30
  -1   7   5   20.70    4.00
  -1   7   5   17.10    3.50
  -1   7   5   26.60    4.40
  -1   7   5   21.30    4.30
   0  -7   5    0.50    2.80
   0  -7   5    1.60    3.10
   0   7  -5    2.10    2.30
   0   7  -5   -1.60    2.20
   0  -7   4   51.69    5.60
   0  -7   4   60.79    5.40
   0   7  -4   67.09    5.80
   0   7  -4   60.59    6.90
   0  -7   3    4.10    1.70
   0  -7   3    2.90    1.30
   0  -7   3    3.80    1.30
   0  -7   3    6.50    2.00
   0   7  -3    4.00    2.20
   0   7  -3    2.10    1.80
   0   7  -3    3.10    2.20
   0  -7   2   23.20    2.20
   0  -7   2   20.20    2.60
   0  -7   2   23.80    2.70
   0  -7   2   20.60    2.00
   0   7  -2   28.30    3.70
   0   7  -2   24.40    3.40
   0  -7   1  480.35   16.50
   0  -7   1  453.95   16.60
   0  -7   1  476.75   16.70
   0  -7   1  468.45   16.60
   0   7  -1  449.76   17.80
   0   7  -1  442.76   15.80
   0   7  -1  466.05   17.80
   0  -7   0    0.10    0.50
   0  -7   0    0.00    0.80
   0  -7   0    0.40    0.40
   0  -7   0    0.60    0.80
   0  -7   0    1.00    1.00
   0   7   0    1.80    1.00
   0   7   0    0.50    0.80
   0   7   0    1.80    0.90
   0  -7  -1  468.05   16.90
   0  -7  -1  416.56   15.20
   0  -7  -1  461.15   17.20
   0  -7  -1  429.56   15.80
   0   7   1  448.16   15.90
   0   7   1  476.65   16.50
   0   7   1  470.75   16.20
   0   7   1  446.36   16.50
   0   7   1  454.45   16.80
   0  -7  -2   18.90    2.90
   0  -7  -2   22.10    1.80
   0  -7  -2   25.70    2.20
   0  -7  -2   18.50    2.70
   0   7   2   22.80    2.40
   0   7   2   21.20    1.80
   0   7   2   25.40    3.10
   0   7   2   19.50    2.40
   0   7   2   21.20    2.40
   0  -7  -3    1.90    1.40
   0  -7  -3   -0.90    1.40
   0  -7  -3    2.60    1.30
   0  -7  -3    3.70    2.00
   0   7   3    4.20    1.40
   0   7   3    1.70    1.80
   0   7   3    2.70    1.70
   0   7   3    3.40    1.30
   0   7   3    4.30    1.50
   0   7   3    5.00    1.70
   0  -7  -4   61.69    6.60
   0  -7  -4   70.49    6.50
   0  -7  -4   58.09    4.80
   0  -7  -4   66.29    5.10
   0   7   4   75.69    5.00
   0   7   4   70.89    4.90
   0   7   4   62.39    5.00
   0   7   4   63.59    5.30
   0  -7  -5   -1.10    3.40
   0  -7  -5    1.30    2.90
   0  -7  -5   -2.60    2.00
   0  -7  -5   -0.40    2.70
   0   7   5   -1.40    2.10
   0   7   5    0.10    2.50
   0   7   5    1.30    2.30
   0   7   5    0.80    2.30
  -1  -7   5   23.60    4.60
  -1  -7   5   22.30    4.80
   1   7  -5   24.90    4.60
   1   7  -5   19.10    4.60
  -1  -7   4    5.90    2.60
  -1  -7   4   16.40    3.50
   1   7  -4   14.70    3.60
   1   7  -4   12.40    3.20
  -1  -7   3   37.00    4.10
  -1  -7   3   35.30    3.40
  -1  -7   3   30.60    3.70
  -1  -7   3   38.80    3.30
   1   7  -3   31.60    4.10
   1   7  -3   30.00    4.00
   1   7  -3   27.10    4.10
  -1  -7   2  148.29    6.50
  -1  -7   2  148.89    6.90
  -1  -7   2  144.89    6.80
  -1  -7   2  136.99    6.20
   1   7  -2  142.39    7.50
   1   7  -2  154.58    8.00
   1   7  -2  145.79    7.20
  -1  -7   1  760.72   27.00
  -1  -7   1  780.72   26.50
  -1  -7   1  726.73   26.30
  -1  -7   1  768.52   26.70
  -1  -7   1  777.82   26.50
   1   7  -1  754.02   27.70
   1   7  -1  768.72   27.50
  -1  -7   0  391.36   15.30
  -1  -7   0  402.66   15.60
  -1  -7   0  425.16   13.90
  -1  -7   0  398.76   15.10
  -1  -7   0  388.36   13.60
   1   7   0  401.16   14.50
   1   7   0  380.66   14.90
   1   7   0  396.86   14.90
  -1  -7  -1  751.92   27.40
  -1  -7  -1  766.82   28.20
  -1  -7  -1  713.63   25.70
  -1  -7  -1  776.02   27.10
   1   7   1  765.82   26.90
   1   7   1  739.73   26.60
   1   7   1  779.82   26.30
   1   7   1  736.73   26.10
   1   7   1  789.02   26.50
  -1  -7  -2  148.69    6.40
  -1  -7  -2  157.18    7.40
  -1  -7  -2  162.58    8.80
  -1  -7  -2  142.79    6.10
  -1  -7  -2  151.78    7.70
   1   7   2  149.88    6.80
   1   7   2  145.09    6.60
   1   7   2  144.39    6.40
   1   7   2  144.49    6.80
   1   7   2  161.78    7.50
   1   7   2  160.28    6.00
  -1  -7  -3   35.90    4.40
  -1  -7  -3   31.50    3.10
  -1  -7  -3   32.90    2.80
  -1  -7  -3   32.50    5.10
  -1  -7  -3   27.10    3.70
   1   7   3   29.70    3.20
   1   7   3   31.60    2.80
   1   7   3   31.50    3.10
   1   7   3   35.10    4.00
   1   7   3   36.40    3.80
   1   7   3   34.40    2.80
   1   7   3   35.00    3.50
  -1  -7  -4   11.60    3.00
  -1  -7  -4   15.10    3.70
  -1  -7  -4    7.70    2.30
  -1  -7  -4   12.20    3.50
  -1  -7  -4   13.80    4.30
   1   7   4   10.30    2.40
   1   7   4   11.10    2.70
   1   7   4    9.40    2.80
   1   7   4    7.00    2.30
   1   7   4   11.70    2.50
  -1  -7  -5   29.40    5.50
  -1  -7  -5   21.60    4.00
  -1  -7  -5   29.30    6.40
  -1  -7  -5   18.80    4.20
   1   7   5   24.30    4.10
   1   7   5   16.20    5.60
   1   7   5   15.80    3.80
   1   7   5   14.90    3.20
  -2  -7   5    4.10    2.80
  -2  -7   5   10.60    3.60
   2   7  -5    5.40    3.10
   2   7  -5    4.10    2.90
  -2  -7   4    1.30    2.10
  -2  -7   4    2.30    1.80
  -2  -7   4    1.90    2.30
  -2  -7   4    4.50    2.60
   2   7  -4    3.70    2.40
   2   7  -4    3.40    2.60
  -2  -7   3   14.50    2.70
  -2  -7   3   14.50    2.40
  -2  -7   3   18.20    2.50
  -2  -7   3   16.30    2.90
   2   7  -3   15.00    2.90
   2   7  -3   14.50    3.10
   2   7  -3   11.70    2.60
  -2  -7   2   21.40    2.70
  -2  -7   2   27.60    2.70
  -2  -7   2   24.90    1.90
  -2  -7   2   17.50    2.50
  -2  -7   2   23.60    2.50
   2   7  -2   21.40    2.90
   2   7  -2   19.80    3.10
   2   7  -2   19.50    2.70
  -2  -7   1  278.97   11.40
  -2  -7   1  278.17   10.40
  -2  -7   1  264.47   10.30
  -2  -7   1  265.97   10.20
  -2  -7   1  273.67   10.60
   2   7  -1  279.17   10.90
   2   7  -1  260.57   11.30
   2   7  -1  257.07   10.30
  -2  -7   0  793.62   27.80
  -2  -7   0  768.42   28.60
  -2  -7   0  832.82   26.40
  -2  -7   0  755.72   25.90
  -2  -7   0  724.43   27.80
   2   7   0  765.22   26.00
   2   7   0  789.02   27.30
   2   7   0  782.02   27.00
   2   7   0  775.42   27.50
  -2  -7  -1  271.87   12.30
  -2  -7  -1  264.17    9.50
  -2  -7  -1  282.07   11.20
  -2  -7  -1  269.37   11.40
   2   7   1  269.87   10.60
   2   7   1  264.27   10.30
   2   7   1  270.37   10.80
   2   7   1  258.37   10.20
  -2  -7  -2   20.60    3.70
  -2  -7  -2   21.90    1.90
  -2  -7  -2   22.60    3.10
  -2  -7  -2   24.40    2.90
  -2  -7  -2   19.00    1.70
   2   7   2   20.80    2.30
   2   7   2   21.10    2.80
   2   7   2   19.70    2.40
   2   7   2   20.20    2.50
   2   7   2   22.90    1.60
   2   7   2   17.40    2.20
  -2  -7  -3   13.50    2.00
  -2  -7  -3   18.40    2.40
  -2  -7  -3   18.40    3.00
  -2  -7  -3    5.90    2.90
  -2  -7  -3   13.50    2.80
   2   7   3   16.50    2.60
   2   7   3   18.10    2.50
   2   7   3   19.20    2.80
   2   7   3   17.90    3.00
   2   7   3   13.50    2.40
   2   7   3   16.50    2.10
  -2  -7  -4    2.30    2.40
  -2  -7  -4    0.20    3.20
  -2  -7  -4    6.90    2.60
  -2  -7  -4    3.10    1.70
  -2  -7  -4    3.10    2.70
   2   7   4    2.10    1.90
   2   7   4    1.70    1.70
   2   7   4    6.60    2.10
   2   7   4    4.30    2.10
   2   7   4    2.50    2.30
  -2  -7  -5    3.40    3.50
  -2  -7  -5    5.60    4.50
  -2  -7  -5   11.00    3.60
   2   7   5    4.70    2.70
   2   7   5    6.20    2.60
   2   7   5    7.50    3.20
  -3  -7   5   -1.40    2.40
  -3  -7   5    0.50    3.10
   3   7  -5   -2.20    2.60
   3   7  -5   -2.80    1.90
  -3  -7   4    2.40    2.40
  -3  -7   4    5.00    2.60
  -3  -7   4    2.50    2.20
  -3  -7   4    4.80    2.20
   3   7  -4   -1.10    2.10
   3   7  -4    4.00    2.70
  -3  -7   3   23.20    3.60
  -3  -7   3   23.70    3.40
  -3  -7   3   27.40    3.20
  -3  -7   3   21.50    3.00
   3   7  -3   25.60    3.60
   3   7  -3   23.90    3.80
  -3  -7   2  312.87   13.20
  -3  -7   2  345.77   13.40
  -3  -7   2  347.37   12.90
  -3  -7   2  340.87   13.50
  -3  -7   2  366.16   13.30
   3   7  -2  335.87   14.50
   3   7  -2  318.57   13.50
   3   7  -2  343.87   13.40
  -3  -7   1   96.39    4.40
  -3  -7   1   94.19    4.60
  -3  -7   1   95.09    4.80
  -3  -7   1   90.49    5.60
  -3  -7   1   96.49    4.50
   3   7  -1   84.99    4.40
   3   7  -1   95.39    5.40
   3   7  -1   88.89    4.70
  -3  -7   0  133.49    5.20
  -3  -7   0  132.29    7.50
  -3  -7   0  127.49    6.40
  -3  -7   0  130.99    6.60
   3   7   0  134.49    4.90
   3   7   0  139.59    6.40
   3   7   0  138.69    6.10
   3   7   0  136.49    6.10
  -3  -7  -1   88.19    6.30
  -3  -7  -1  100.79    5.80
  -3  -7  -1   89.49    5.30
   3   7   1   94.39    4.70
   3   7   1  100.39    5.10
   3   7   1   95.79    4.90
  -3  -7  -2  329.07   15.60
  -3  -7  -2  343.87   13.90
  -3  -7  -2  338.37   14.20
  -3  -7  -2  327.37   12.10
  -3  -7  -2  342.67   12.10
   3   7   2  326.07   11.90
   3   7   2  333.67   12.80
   3   7   2  323.77   13.20
   3   7   2  335.57   13.60
   3   7   2  329.07   13.00
   3   7   2  331.47   13.00
  -3  -7  -3   23.20    4.70
  -3  -7  -3   19.50    2.40
  -3  -7  -3   20.20    3.50
  -3  -7  -3   33.90    4.00
   3   7   3   24.50    3.00
   3   7   3   24.70    3.20
   3   7   3   24.20    3.40
   3   7   3   18.20    2.50
   3   7   3   27.40    3.40
   3   7   3   19.00    2.20
  -3  -7  -4   -1.10    2.50
  -3  -7  -4    2.80    2.30
  -3  -7  -4    3.40    2.40
  -3  -7  -4    0.30    2.10
  -3  -7  -4   -3.90    2.50
   3   7   4    4.70    2.20
   3   7   4    3.90    1.90
   3   7   4    4.90    2.30
   3   7   4    6.30    2.30
   3   7   4    0.40    1.50
  -3  -7  -5    0.30    3.70
  -3  -7  -5    2.10    2.90
   3   7   5   -0.80    2.30
   3   7   5    0.90    2.50
  -4  -7   5   -0.90    2.70
  -4  -7   5    1.30    3.10
   4   7  -5    0.10    2.50
   4   7  -5    1.10    2.60
  -4  -7   4   24.50    4.00
  -4  -7   4   20.70    3.50
  -4  -7   4   14.20    3.50
  -4  -7   4   19.20    3.70
   4   7  -4   20.80    4.20
   4   7  -4   16.50    3.80
  -4  -7   3   33.40    4.00
  -4  -7   3   35.50    4.10
  -4  -7   3   47.10    4.40
  -4  -7   3   36.90    4.20
   4   7  -3   27.10    4.20
   4   7  -3   32.50    4.10
  -4  -7   2   29.00    3.30
  -4  -7   2   29.20    3.20
  -4  -7   2   33.10    3.20
  -4  -7   2   31.30    3.20
  -4  -7   2   34.80    3.50
   4   7  -2   31.90    3.90
   4   7  -2   35.50    3.60
   4   7  -2   34.70    2.80
  -4  -7   1  108.09    4.80
  -4  -7   1  101.79    6.40
  -4  -7   1  104.39    5.00
  -4  -7   1  117.99    5.40
  -4  -7   1  111.09    5.50
   4   7  -1  106.09    5.00
   4   7  -1  103.39    5.90
   4   7  -1  107.19    5.20
  -4  -7   0  674.83   23.30
  -4  -7   0  677.13   25.20
  -4  -7   0  703.33   25.00
  -4  -7   0  666.03   26.80
   4   7   0  677.33   24.70
   4   7   0  672.13   24.40
   4   7   0  728.53   23.20
  -4  -7  -1  101.39    6.30
  -4  -7  -1  123.29    7.80
  -4  -7  -1  121.99    4.20
  -4  -7  -1  102.79    6.10
   4   7   1  113.69    5.90
   4   7   1  111.79    5.50
   4   7   1  116.09    4.60
   4   7   1  114.99    5.70
  -4  -7  -2   27.00    1.90
  -4  -7  -2   31.90    3.90
  -4  -7  -2   35.90    3.90
  -4  -7  -2   42.60    5.70
   4   7   2   30.30    2.90
   4   7   2   39.50    3.70
   4   7   2   33.40    3.60
   4   7   2   35.50    3.00
  -4  -7  -3   33.10    4.50
  -4  -7  -3   44.00    4.70
  -4  -7  -3   27.40    5.20
   4   7   3   35.50    3.70
   4   7   3   29.50    3.70
   4   7   3   33.30    4.10
   4   7   3   39.30    4.10
   4   7   3   37.90    3.50
  -4  -7  -4   16.60    3.80
  -4  -7  -4   18.60    4.20
  -4  -7  -4   24.60    4.10
  -4  -7  -4   13.00    4.00
  -4  -7  -4   16.60    5.00
   4   7   4   18.40    3.30
   4   7   4   20.00    3.00
   4   7   4   16.90    3.10
   4   7   4   21.10    3.50
   4   7   4   17.40    3.40
  -4  -7  -5    2.40    4.20
   4   7   5    1.80    2.40
  -5  -7   5    0.90    3.00
  -5  -7   5    0.50    3.10
   5   7  -5   -1.10    2.20
   5   7  -5   -1.80    2.50
  -5  -7   4    4.80    2.70
  -5  -7   4    8.90    2.80
  -5  -7   4   13.80    3.10
  -5  -7   4    9.10    3.10
   5   7  -4    8.20    3.00
   5   7  -4    8.60    2.90
  -5  -7   3   88.59    5.90
  -5  -7   3   87.59    5.80
  -5  -7   3   94.69    5.70
  -5  -7   3   76.29    5.60
   5   7  -3   92.69    6.10
   5   7  -3   95.29    6.80
  -5  -7   2   14.00    2.40
  -5  -7   2   15.50    2.60
  -5  -7   2   16.30    2.40
  -5  -7   2   16.10    2.60
  -5  -7   2   17.60    2.50
   5   7  -2   12.30    1.80
   5   7  -2   10.80    2.10
   5   7  -2   11.10    2.60
  -5  -7   1  172.88    7.40
  -5  -7   1  185.28    8.00
  -5  -7   1  189.88    8.30
  -5  -7   1  192.38    9.80
   5   7  -1  176.18    7.40
   5   7  -1  168.48    8.40
   5   7  -1  193.48    7.80
  -5  -7   0  112.39    6.00
  -5  -7   0  115.59    7.70
  -5  -7   0  107.89    5.70
   5   7   0  111.29    5.70
   5   7   0  114.19    4.50
   5   7   0  117.59    5.50
  -5  -7  -1  176.28    8.60
  -5  -7  -1  166.98   10.30
  -5  -7  -1  187.58    9.10
   5   7   1  174.58    8.30
   5   7   1  187.58    6.60
   5   7   1  181.58    8.00
   5   7   1  183.08    8.20
  -5  -7  -2   12.80    2.80
  -5  -7  -2   13.90    2.70
  -5  -7  -2   17.10    4.10
   5   7   2   11.30    2.40
   5   7   2   10.10    2.20
   5   7   2   14.30    2.40
  -5  -7  -3   82.99    9.10
  -5  -7  -3   79.89    5.70
  -5  -7  -3   93.99    6.70
   5   7   3   95.69    5.20
   5   7   3   76.69    5.40
   5   7   3   85.49    5.80
   5   7   3   77.99    5.50
  -5  -7  -4    5.70    3.50
  -5  -7  -4   11.50    4.60
  -5  -7  -4   13.20    3.30
  -5  -7  -4    7.80    3.30
  -5  -7  -4    5.10    2.80
   5   7   4    4.90    2.40
   5   7   4    9.80    2.80
   5   7   4   10.70    2.90
   5   7   4   13.40    3.00
   5   7   4   12.80    2.50
  -5  -7  -5   -1.40    3.70
  -5  -7  -5   -0.90    4.60
   5   7   5    2.40    3.00
  -6  -7   4    6.30    2.90
  -6  -7   4   12.20    3.50
  -6  -7   4   14.20    3.50
  -6  -7   4   11.10    3.30
   6   7  -4   12.00    3.40
   6   7  -4   14.60    3.80
   6   7  -4   10.20    3.00
  -6  -7   3   50.09    4.30
  -6  -7   3   39.80    4.50
  -6  -7   3   41.70    4.90
  -6  -7   3   39.40    4.60
   6   7  -3   40.80    5.00
   6   7  -3   38.50    4.50
  -6  -7   2   16.60    2.60
  -6  -7   2   12.40    2.70
  -6  -7   2   14.20    2.50
  -6  -7   2   13.40    2.60
   6   7  -2   12.70    2.40
   6   7  -2   14.40    2.80
  -6  -7   1  131.99    6.70
  -6  -7   1  127.19    5.90
  -6  -7   1  133.49    6.50
  -6  -7   1  129.69    8.10
   6   7  -1  140.29    6.20
   6   7  -1  134.99    6.90
   6   7  -1  131.69    5.90
  -6  -7   0  209.38   12.00
  -6  -7   0  218.88    9.80
  -6  -7   0  220.58    9.50
   6   7   0  220.88    8.10
   6   7   0  215.78    9.20
   6   7   0  225.58    9.50
  -6  -7  -1  125.99    9.10
  -6  -7  -1  111.89    6.60
  -6  -7  -1  138.79    7.40
   6   7   1  133.49    6.60
   6   7   1  133.19    6.60
  -6  -7  -2   15.00    3.00
  -6  -7  -2   13.70    4.30
  -6  -7  -2   12.20    2.90
   6   7   2   14.60    2.70
   6   7   2   15.70    2.70
   6   7   2   12.10    2.60
  -6  -7  -3   31.70    4.70
  -6  -7  -3   37.30    6.80
  -6  -7  -3   43.70    5.00
   6   7   3   44.60    5.00
   6   7   3   47.20    5.00
   6   7   3   31.90    4.10
  -6  -7  -4    5.90    3.60
  -6  -7  -4    8.70    4.90
  -6  -7  -4    9.00    3.50
   6   7   4    8.80    2.70
   6   7   4    5.60    2.70
   6   7   4    6.00    2.70
  -7  -7   4   10.40    3.50
  -7  -7   4    9.30    3.00
  -7  -7   4   15.80    3.70
  -7  -7   4    7.30    2.90
   7   7  -4   15.70    3.60
   7   7  -4   14.10    3.80
  -7  -7   3   29.50    4.00
  -7  -7   3   19.70    3.50
  -7  -7   3   20.50    3.70
   7   7  -3   28.10    4.10
   7   7  -3   17.70    3.60
   7   7  -3   18.10    3.20
  -7  -7   2  117.69    6.80
  -7  -7   2  118.59    7.30
  -7  -7   2  114.29    6.10
  -7  -7   2  106.59    6.30
   7   7  -2  108.79    6.30
   7   7  -2  120.19    6.20
   7   7  -2  109.69    6.80
  -7  -7   1   30.20    2.40
  -7  -7   1   33.10    3.60
  -7  -7   1   29.70    3.20
  -7  -7   1   38.20    5.10
   7   7  -1   29.50    2.60
   7   7  -1   30.70    3.50
   7   7  -1   32.90    3.00
   7   7  -1   35.30    2.60
  -7  -7   0   34.90    3.40
  -7  -7   0   21.30    4.60
  -7  -7   0   28.90    3.40
   7   7   0   28.80    3.20
   7   7   0   35.10    3.40
   7   7   0   29.10    2.00
  -7  -7  -1   31.20    5.70
  -7  -7  -1   38.20    3.90
  -7  -7  -1   35.30    4.20
   7   7   1   33.20    3.60
   7   7   1   34.50    3.60
  -7  -7  -2   94.39   10.20
  -7  -7  -2   99.89    6.50
  -7  -7  -2  105.49    7.10
   7   7   2  111.89    6.80
   7   7   2  112.99    6.50
   7   7   2  105.09    6.40
  -7  -7  -3   20.50    5.00
  -7  -7  -3   14.90    4.80
  -7  -7  -3   22.20    4.00
  -7  -7  -3   23.50    4.40
   7   7   3   24.60    3.80
   7   7   3   20.70    3.50
   7   7   3   23.90    3.80
  -7  -7  -4    9.30    4.80
  -7  -7  -4    8.40    3.90
   7   7   4    7.80    3.00
   7   7   4    4.20    2.70
   7   7   4   13.50    3.40
  -8  -7   4    6.30    3.00
  -8  -7   4   -0.10    2.80
  -8  -7   4    8.20    3.10
   8   7  -4    7.00    3.40
   8   7  -4    6.30    3.00
  -8  -7   3   18.30    3.50
  -8  -7   3   20.40    3.80
  -8  -7   3   21.10    3.60
   8   7  -3   17.30    3.40
   8   7  -3   10.80    3.10
   8   7  -3   17.90    3.50
  -8  -7   2    1.50    2.10
  -8  -7   2    1.50    1.50
  -8  -7   2    1.60    1.80
  -8  -7   2    2.40    1.90
   8   7  -2    1.90    1.70
   8   7  -2    2.30    1.50
   8   7  -2    2.60    1.90
  -8  -7   1  374.16   17.60
  -8  -7   1  378.76   15.60
  -8  -7   1  393.96   15.30
   8   7  -1  371.66   15.40
   8   7  -1  386.96   14.70
   8   7  -1  383.86   14.30
  -8  -7   0   36.60    3.70
  -8  -7   0   43.20    4.20
  -8  -7   0   36.00    6.00
   8   7   0   42.00    4.00
   8   7   0   43.50    3.70
   8   7   0   45.40    2.60
  -8  -7  -1  373.46   15.20
  -8  -7  -1  363.76   19.20
  -8  -7  -1  379.96   15.60
   8   7   1  384.76   15.40
   8   7   1  365.36   15.30
  -8  -7  -2    5.20    2.20
  -8  -7  -2    0.90    1.80
  -8  -7  -2   -1.90    2.70
   8   7   2    1.00    1.60
   8   7   2    3.10    1.90
  -8  -7  -3   17.20    3.40
  -8  -7  -3   17.50    5.00
  -8  -7  -3   10.00    4.50
  -8  -7  -3    8.50    3.40
   8   7   3   11.00    2.90
   8   7   3   13.40    3.20
  -8  -7  -4    1.30    3.40
  -8  -7  -4    3.00    4.20
   8   7   4    6.30    3.00
   8   7   4    5.80    3.00
   8   7   4    3.50    2.70
  -9  -7   4    1.50    2.60
  -9  -7   4    4.00    3.10
  -9  -7   4    1.10    2.80
   9   7  -4    9.90    3.40
   9   7  -4    1.60    3.10
  -9  -7   3    6.10    2.70
  -9  -7   3    7.90    2.60
  -9  -7   3    1.60    2.60
   9   7  -3    9.50    2.70
   9   7  -3    4.80    2.60
   9   7  -3    8.60    2.90
  -9  -7   2  117.29    7.30
  -9  -7   2   98.49    7.60
  -9  -7   2  113.49    6.90
   9   7  -2  115.39    6.20
   9   7  -2  113.59    6.90
  -9  -7   1   26.00    3.50
  -9  -7   1   33.00    5.30
  -9  -7   1   35.10    3.70
   9   7  -1   31.80    3.70
   9   7  -1   27.50    3.10
   9   7  -1   31.40    3.00
  -9  -7   0  185.58    8.80
  -9  -7   0  162.28   11.30
  -9  -7   0  176.28    8.30
   9   7   0  175.48    8.50
   9   7   0  173.98    8.70
  -9  -7  -1   30.70    6.40
  -9  -7  -1   35.70    4.10
  -9  -7  -1   28.20    3.50
   9   7   1   37.30    4.10
   9   7   1   32.80    4.00
  -9  -7  -2  115.29    7.30
  -9  -7  -2  101.29   11.40
  -9  -7  -2  115.09    7.00
   9   7   2  112.09    7.20
   9   7   2  114.79    7.10
  -9  -7  -3    3.30    3.90
  -9  -7  -3    5.30    3.80
   9   7   3    3.60    2.50
   9   7   3    2.70    2.50
  -9  -7  -4    3.60    3.60
  -9  -7  -4    1.90    4.60
   9   7   4    2.10    2.80
   9   7   4    4.70    2.80
 -10  -7   3   15.90    3.70
 -10  -7   3   12.80    3.90
  10   7  -3   24.00    4.10
 -10  -7   2   49.99    5.30
 -10  -7   2   41.60    5.90
 -10  -7   2   46.50    5.30
  10   7  -2   43.60    4.70
  10   7  -2   56.39    4.40
 -10  -7   1   12.60    2.80
 -10  -7   1    8.10    3.30
 -10  -7   1   13.00    2.70
  10   7  -1    7.40    1.90
  10   7  -1   10.40    2.70
 -10  -7   0  144.69   10.90
 -10  -7   0  148.99    7.80
 -10  -7   0  167.48    8.50
  10   7   0  163.18    8.30
  10   7   0  160.48    8.20
 -10  -7  -1    5.80    3.80
 -10  -7  -1    9.10    2.30
 -10  -7  -1    6.00    2.20
  10   7   1    7.30    2.40
  10   7   1   10.50    2.80
 -10  -7  -2   43.60    4.70
 -10  -7  -2   51.49    5.40
 -10  -7  -2   40.30    6.90
 -10  -7  -2   35.50    7.30
  10   7   2   48.20    5.50
  10   7   2   48.90    5.30
 -10  -7  -3   18.60    5.60
 -10  -7  -3   20.60    6.60
  10   7   3   14.40    3.90
  10   7   3   14.00    3.50
 -11  -7   3   22.30    4.20
 -11  -7   3   22.60    4.60
  11   7  -3   20.30    3.60
 -11  -7   2    4.20    2.40
 -11  -7   2    5.90    3.20
 -11  -7   2    3.80    2.40
  11   7  -2    5.50    2.40
  11   7  -2   11.00    2.40
 -11  -7   1   13.30    3.90
 -11  -7   1    7.50    2.60
 -11  -7   1    9.20    2.60
  11   7  -1   17.20    2.50
  11   7  -1   10.20    2.80
 -11  -7   0    2.90    3.30
 -11  -7   0   -0.60    1.80
 -11  -7   0    4.50    2.00
  11   7   0    1.10    1.80
  11   7   0    2.00    1.90
 -11  -7  -1   12.80    2.60
 -11  -7  -1    6.00    3.30
 -11  -7  -1   14.90    3.10
 -11  -7  -1   18.10    5.10
  11   7   1   17.80    3.60
  11   7   1   19.60    3.40
 -11  -7  -2    2.50    3.90
 -11  -7  -2    7.00    4.20
 -11  -7  -2    5.50    2.70
  11   7   2    7.60    2.90
  11   7   2    5.70    2.70
 -11  -7  -3    7.80    4.80
 -11  -7  -3   14.80    5.90
  11   7   3   12.30    3.80
  11   7   3   21.40    4.30
 -12  -7   3    0.30    2.80
  12   7  -3    1.70    2.70
 -12  -7   2   22.20    4.10
 -12  -7   2   17.50    4.50
 -12  -7   2   17.10    3.90
  12   7  -2   18.00    3.20
  12   7  -2   18.30    3.70
 -12  -7   1    5.40    3.60
 -12  -7   1    5.50    2.50
 -12  -7   1    7.10    2.50
  12   7  -1    8.20    2.90
 -12  -7   0   34.00    7.00
 -12  -7   0   35.90    4.40
 -12  -7   0   37.80    4.70
 -12  -7   0   36.50    6.70
  12   7   0   33.00    4.50
  12   7   0   36.00    4.40
 -12  -7  -1    1.00    3.80
 -12  -7  -1    3.60    2.10
 -12  -7  -1    8.30    2.80
 -12  -7  -1    9.00    4.60
  12   7   1    9.80    3.00
  12   7   1    4.20    2.40
 -12  -7  -2   19.00    6.10
 -12  -7  -2    8.30    5.00
  12   7   2   12.90    3.60
  12   7   2   18.40    3.90
 -12  -7  -3   -2.80    3.30
 -12  -7  -3    3.90    4.90
  12   7   3    0.80    2.40
  12   7   3    2.30    3.20
 -13  -7   2    2.50    3.10
 -13  -7   2   -0.60    3.20
 -13  -7   2   -0.20    2.60
 -13  -7   1    4.20    2.90
 -13  -7   1    5.60    2.70
 -13  -7   1   -1.20    2.70
  13   7  -1    3.40    2.40
 -13  -7   0    4.80    2.60
 -13  -7   0    4.50    3.90
 -13  -7   0    6.80    2.70
  13   7   0    4.30    2.80
 -13  -7  -1   -2.70    3.30
 -13  -7  -1   -0.60    3.50
 -13  -7  -1    1.30    2.10
 -13  -7  -1    0.30    2.40
  13   7   1    0.00    2.40
  13   7   1    0.10    2.50
 -13  -7  -2    3.90    4.60
 -13  -7  -2   -1.50    3.80
  13   7   2   -1.50    2.50
  13   7   2    5.80    3.10
 -14  -7   1    6.60    3.00
 -14  -7   1    4.30    3.20
 -14  -7   1    3.90    3.60
  14   7  -1    3.00    3.00
 -14  -7   0   32.30    4.70
 -14  -7   0   40.90    7.50
 -14  -7   0   34.90    4.80
  14   7   0   44.80    5.80
 -14  -7  -1    1.80    4.40
 -14  -7  -1   -1.20    3.60
  14   7   1    0.70    2.60
  14   7   1    3.30    3.10
  14  -8   1    9.60    2.90
 -14   8  -1    9.10    5.90
  14  -8   0    3.30    2.20
 -14   8   0   -1.90    2.70
  14  -8  -1   14.30    3.00
  14  -8  -1   17.20    3.10
 -14   8   1    8.60    3.90
  13  -8   2    1.10    2.10
  13  -8   2   -1.10    2.80
 -13   8  -2    1.30    4.10
 -13   8  -2   -0.70    4.40
  13  -8   1   33.20    4.20
 -13   8  -1   29.90    6.80
 -13   8  -1   29.50    5.00
  13  -8   0    5.10    1.90
  13  -8   0    2.80    1.90
 -13   8   0   -2.20    2.30
  13  -8  -1   49.50    4.20
  13  -8  -1   39.70    4.30
 -13   8   1   39.00    6.00
  13  -8  -2    2.50    2.20
  13  -8  -2    1.30    2.10
 -13   8   2    4.10    3.60
  12  -8   2   26.10    4.20
  12  -8   2   43.50    5.60
 -12   8  -2   22.90    6.80
 -12   8  -2   36.10    6.30
  12  -8   1    1.40    1.80
  12  -8   1    3.90    1.90
 -12   8  -1    1.10    3.40
 -12   8  -1   -1.60    2.10
  12  -8   0   71.69    4.60
  12  -8   0   73.79    5.00
 -12   8   0   65.39    6.80
  12  -8  -1    3.20    1.80
  12  -8  -1    3.40    1.90
 -12   8   1    4.10    2.80
  12  -8  -2   39.90    4.40
  12  -8  -2   33.70    4.20
 -12   8   2   37.00    5.10
 -12   8   2   32.00    4.40
 -12   8   2   37.70    5.90
  11  -8   3   -0.30    2.90
  11  -8   3    4.90    2.60
 -11   8  -3    2.00    3.80
 -11   8  -3    1.70    4.60
  11  -8   2   23.40    3.50
  11  -8   2   26.40    4.00
  11  -8   2   41.20    5.40
 -11   8  -2   35.10    6.20
 -11   8  -2   38.20    7.40
  11  -8   1    3.60    1.80
  11  -8   1    2.30    2.80
  11  -8   1    5.00    2.10
 -11   8  -1    0.20    3.10
 -11   8  -1   -0.20    2.00
  11  -8   0   10.00    2.10
  11  -8   0    7.40    2.10
 -11   8   0    6.40    3.70
 -11   8   0    9.00    3.10
  11  -8  -1    3.50    1.60
  11  -8  -1    3.90    1.90
 -11   8   1    3.80    2.60
  11  -8  -2   30.80    3.80
  11  -8  -2   33.80    4.10
 -11   8   2   41.10    5.10
 -11   8   2   34.80    5.20
  11  -8  -3    0.50    2.10
  11  -8  -3   -0.20    2.00
 -11   8   3    2.70    2.70
 -11   8   3   -2.60    2.50
 -11   8   3   -2.90    2.50
  10  -8   3   30.10    5.30
  10  -8   3   19.20    3.80
  10  -8   3   16.10    3.60
 -10   8  -3   21.30    5.90
 -10   8  -3   18.10    5.00
  10  -8   2    3.80    2.10
  10  -8   2    5.90    2.60
  10  -8   2    3.10    1.80
 -10   8  -2    2.30    3.70
 -10   8  -2    6.00    3.80
  10  -8   1   75.39    5.00
  10  -8   1   93.29    5.90
 -10   8  -1  100.39    7.20
 -10   8  -1   88.49    9.40
 -10   8  -1  100.69    6.60
  10  -8   0   47.90    3.60
  10  -8   0   43.50    3.50
 -10   8   0   55.29    6.80
 -10   8   0   42.10    5.10
  10  -8  -1  104.49    5.60
  10  -8  -1  103.49    5.90
 -10   8   1   98.89    5.80
 -10   8   1  101.69    6.10
 -10   8   1  103.69    7.30
  10  -8  -2    8.30    2.40
  10  -8  -2    5.00    2.00
 -10   8   2    9.70    2.60
 -10   8   2    9.90    3.40
 -10   8   2    8.20    2.80
  10  -8  -3   17.00    3.10
  10  -8  -3   18.00    3.40
 -10   8   3   18.00    4.40
 -10   8   3   11.30    3.10
 -10   8   3   17.50    4.20
   9  -8   4   15.70    4.30
   9  -8   4   13.40    3.80
   9  -8   4    8.00    3.30
  -9   8  -4    9.20    4.60
  -9   8  -4   10.00    5.20
   9  -8   3   11.90    3.10
   9  -8   3   10.80    2.80
   9  -8   3   12.50    3.40
  -9   8  -3    2.80    3.50
  -9   8  -3   10.00    4.40
   9  -8   2   13.60    3.20
   9  -8   2   13.20    2.60
   9  -8   2   15.40    3.00
  -9   8  -2   11.30    3.80
  -9   8  -2   14.20    4.70
   9  -8   1   16.20    2.40
   9  -8   1   20.10    2.90
   9  -8   1   16.80    3.00
  -9   8  -1   19.60    4.60
  -9   8  -1   26.40    3.60
  -9   8  -1   20.00    3.80
   9  -8   0   11.90    2.00
   9  -8   0   17.90    2.50
  -9   8   0   10.40    2.70
  -9   8   0    9.20    3.20
   9  -8  -1   20.90    2.60
   9  -8  -1   20.50    2.90
  -9   8   1   24.40    2.90
  -9   8   1   18.50    3.60
  -9   8   1   17.30    2.90
   9  -8  -2   16.00    2.70
   9  -8  -2   13.00    2.70
  -9   8   2   14.00    3.60
  -9   8   2   12.80    2.70
  -9   8   2   18.00    3.40
   9  -8  -3    4.70    2.20
   9  -8  -3    5.40    2.40
  -9   8   3   10.40    3.40
  -9   8   3    7.00    3.10
  -9   8   3   10.20    2.90
   9  -8  -4   10.60    3.20
   9  -8  -4   15.50    3.70
  -9   8   4    5.80    3.40
  -9   8   4   14.00    3.70
   8  -8   4    0.90    2.50
   8  -8   4    5.60    3.00
   8  -8   4    8.10    3.20
  -8   8  -4    0.40    3.50
  -8   8  -4    0.40    3.70
   8  -8   3    5.10    2.50
   8  -8   3    7.50    2.70
   8  -8   3    5.30    2.80
  -8   8  -3    4.60    3.60
  -8   8  -3    0.80    2.90
   8  -8   2    1.20    1.70
   8  -8   2    5.10    1.80
   8  -8   2    5.50    2.30
  -8   8  -2    0.50    2.90
  -8   8  -2    0.90    2.50
   8  -8   1  148.79    7.30
   8  -8   1  149.99    7.70
  -8   8  -1  142.69    8.70
  -8   8  -1  152.78    7.70
  -8   8  -1  168.88   10.70
   8  -8   0    3.90    1.70
   8  -8   0    4.80    1.40
   8  -8   0    3.20    1.40
  -8   8   0    0.30    1.60
  -8   8   0    1.60    2.40
   8  -8  -1  177.08    7.30
   8  -8  -1  157.48    7.50
  -8   8   1  152.98    8.70
  -8   8   1  152.58    8.70
  -8   8   1  158.48    7.40
  -8   8   1  157.78    7.60
   8  -8  -2    0.80    1.60
   8  -8  -2    2.60    1.70
  -8   8   2    2.70    2.20
  -8   8   2    3.40    2.20
  -8   8   2    0.10    1.50
   8  -8  -3    5.40    2.10
   8  -8  -3    5.80    2.30
  -8   8   3    6.30    3.10
  -8   8   3    1.80    2.20
  -8   8   3    4.20    2.40
   8  -8  -4    5.50    2.70
   8  -8  -4    0.60    2.00
  -8   8   4    6.10    2.70
  -8   8   4    0.50    2.50
  -8   8   4    2.90    3.00
   7  -8   4    0.20    2.40
   7  -8   4   -0.60    2.40
   7  -8   4    2.10    2.60
  -7   8  -4   -3.20    2.80
  -7   8  -4    2.70    3.50
   7  -8   3   21.10    3.50
   7  -8   3   16.20    3.40
   7  -8   3   19.30    3.50
  -7   8  -3   14.10    4.30
  -7   8  -3   18.40    4.80
   7  -8   2   28.20    3.40
   7  -8   2   32.70    3.80
   7  -8   2   29.80    3.90
  -7   8  -2   28.20    5.20
  -7   8  -2   32.60    5.00
   7  -8   1   11.30    1.90
   7  -8   1   13.00    2.00
   7  -8   1   13.50    2.40
  -7   8  -1    7.80    3.00
  -7   8  -1   13.60    2.30
  -7   8  -1   10.10    2.90
   7  -8   0  140.69    6.80
   7  -8   0  167.88    6.70
   7  -8   0  151.88    6.60
   7  -8   0  144.89    6.60
   7  -8   0  141.09    6.50
  -7   8   0  131.69    8.50
  -7   8   0  135.09    7.30
  -7   8   0  152.18    7.70
  -7   8   0  154.88    6.30
  -7   8   0  152.28    6.40
   7  -8  -1   13.40    1.90
   7  -8  -1   12.40    2.00
  -7   8   1   16.30    3.00
  -7   8   1    5.80    1.80
  -7   8   1   12.00    2.70
  -7   8   1   11.50    2.10
   7  -8  -2   27.10    3.30
   7  -8  -2   36.30    3.20
  -7   8   2   27.80    3.40
  -7   8   2   37.40    4.60
  -7   8   2   30.40    3.90
   7  -8  -3   18.60    3.00
   7  -8  -3   15.40    3.00
  -7   8   3   16.60    3.10
  -7   8   3   11.90    3.30
  -7   8   3   13.20    3.10
   7  -8  -4    3.60    2.30
   7  -8  -4    2.70    2.40
  -7   8   4    2.70    2.20
  -7   8   4    0.00    2.30
  -7   8   4    2.30    2.20
   6  -8   4    2.60    2.40
   6  -8   4    0.10    2.20
   6  -8   4    1.10    2.50
  -6   8  -4   -0.80    2.90
  -6   8  -4    0.70    2.90
   6  -8   3    0.40    1.80
   6  -8   3    4.50    2.50
   6  -8   3    1.40    1.90
  -6   8  -3    1.00    2.60
  -6   8  -3    2.90    3.20
   6  -8   2   73.59    5.20
   6  -8   2   64.79    4.60
   6  -8   2   78.29    4.90
  -6   8  -2   85.09    8.40
  -6   8  -2   76.69    6.30
   6  -8   1  357.36   14.30
   6  -8   1  388.66   15.00
   6  -8   1  362.36   14.40
  -6   8  -1  380.26   17.50
  -6   8  -1  405.36   14.70
  -6   8  -1  386.76   16.20
   6  -8   0  737.83   25.90
   6  -8   0  780.82   25.90
   6  -8   0  728.13   26.20
   6  -8   0  736.53   25.80
   6  -8   0  723.13   25.90
  -6   8   0  714.43   28.40
  -6   8   0  725.63   25.50
  -6   8   0  736.23   26.90
  -6   8   0  754.22   25.70
  -6   8   0  727.73   26.70
   6  -8  -1  401.16   14.60
   6  -8  -1  378.46   15.70
   6  -8  -1  379.56   14.90
  -6   8   1  410.46   15.30
  -6   8   1  399.86   16.10
  -6   8   1  406.46   15.00
  -6   8   1  390.66   16.10
   6  -8  -2   80.89    4.60
   6  -8  -2   85.89    5.00
  -6   8   2   73.59    5.60
  -6   8   2   84.49    5.10
  -6   8   2   81.99    5.50
   6  -8  -3    6.90    2.20
   6  -8  -3    4.70    1.90
  -6   8   3    6.10    2.40
  -6   8   3    2.70    2.40
  -6   8   3    0.90    1.90
   6  -8  -4    0.00    1.90
   6  -8  -4    2.40    2.00
   6  -8  -4    2.00    3.30
  -6   8   4    2.60    2.50
  -6   8   4   -1.50    2.00
  -6   8   4   -1.00    1.90
   5  -8   4    4.80    2.60
   5  -8   4    6.00    3.00
   5  -8   4    8.90    3.10
  -5   8  -4    3.60    3.10
  -5   8  -4    8.70    3.90
   5  -8   3   19.60    3.30
   5  -8   3   18.70    3.20
   5  -8   3   24.20    3.80
  -5   8  -3   21.40    4.30
  -5   8  -3   27.80    5.10
   5  -8   2   53.09    4.20
   5  -8   2   40.00    3.60
   5  -8   2   47.60    3.70
  -5   8  -2   53.69    5.90
  -5   8  -2   44.70    5.90
   5  -8   1   89.89    4.90
   5  -8   1   85.59    4.50
   5  -8   1   79.49    4.50
  -5   8  -1   94.39    4.60
  -5   8  -1  104.79    7.00
  -5   8  -1   89.39    5.80
   5  -8   0   69.79    4.10
   5  -8   0   72.79    3.90
   5  -8   0   80.99    3.90
   5  -8   0   80.19    3.90
  -5   8   0   80.99    5.60
  -5   8   0   77.89    3.80
  -5   8   0   77.19    4.50
  -5   8   0   76.89    4.60
  -5   8   0   74.59    3.60
   5  -8  -1   91.59    5.40
   5  -8  -1   89.49    4.30
   5  -8  -1   87.39    4.60
  -5   8   1   93.79    4.90
  -5   8   1   92.79    4.70
  -5   8   1   82.59    5.20
  -5   8   1   93.69    5.40
   5  -8  -2   55.29    5.40
   5  -8  -2   50.39    3.30
   5  -8  -2   49.40    3.60
  -5   8   2   47.60    3.70
  -5   8   2   44.70    3.20
  -5   8   2   57.09    4.10
  -5   8   2   40.30    4.60
   5  -8  -3   28.50    3.70
   5  -8  -3   25.30    4.30
   5  -8  -3   23.10    3.10
  -5   8   3   23.20    3.50
  -5   8   3   19.70    3.60
  -5   8   3   18.70    3.10
   5  -8  -4   12.60    2.70
   5  -8  -4    3.90    3.00
   5  -8  -4   13.20    3.10
  -5   8   4    3.50    2.40
  -5   8   4   13.70    3.20
  -5   8   4    6.30    2.90
   4  -8   5    4.30    3.40
   4  -8   5   -0.20    2.60
  -4   8  -5    0.70    2.40
  -4   8  -5    0.80    3.60
  -4   8  -5   -2.50    5.60
   4  -8   4   -0.60    2.10
   4  -8   4    5.00    2.60
  -4   8  -4    0.40    2.70
  -4   8  -4    2.40    3.00
   4  -8   3   25.70    3.60
   4  -8   3   22.60    3.60
   4  -8   3   26.20    3.80
  -4   8  -3   22.60    4.70
  -4   8  -3   21.00    4.40
   4  -8   2   18.30    2.60
   4  -8   2   23.80    3.10
   4  -8   2   25.80    3.00
  -4   8  -2   13.30    3.40
  -4   8  -2   23.00    3.80
   4  -8   1    5.60    1.10
   4  -8   1    7.10    1.40
   4  -8   1    6.50    1.20
   4  -8   1    9.10    1.60
  -4   8  -1    4.90    2.20
  -4   8  -1    7.00    1.30
  -4   8  -1    7.60    2.10
   4  -8   0   79.99    4.30
   4  -8   0   78.29    4.10
   4  -8   0   88.29    4.00
   4  -8   0   81.19    3.80
  -4   8   0   80.99    3.90
  -4   8   0   87.69    3.80
  -4   8   0   83.19    4.60
  -4   8   0   83.89    5.60
  -4   8   0   82.09    4.50
   4  -8  -1    5.50    1.60
   4  -8  -1    6.10    1.70
   4  -8  -1    7.80    1.40
   4  -8  -1    6.10    1.20
  -4   8   1   10.20    1.70
  -4   8   1    6.50    1.80
  -4   8   1    9.40    2.00
  -4   8   1    8.90    1.20
  -4   8   1    5.80    1.40
   4  -8  -2   17.70    2.30
   4  -8  -2   19.40    2.20
   4  -8  -2   20.40    3.20
  -4   8   2   18.20    2.60
  -4   8   2   24.30    2.80
  -4   8   2   18.50    2.20
  -4   8   2   16.50    3.00
   4  -8  -3   24.00    2.90
   4  -8  -3   24.70    3.50
   4  -8  -3   23.80    4.10
  -4   8   3   28.20    3.80
  -4   8   3   21.40    3.10
  -4   8   3   21.10    3.70
   4  -8  -4    2.20    1.70
   4  -8  -4    0.60    1.80
   4  -8  -4    1.30    2.50
  -4   8   4   -0.20    1.90
  -4   8   4   -0.20    1.90
  -4   8   4    4.80    2.40
  -4   8   4   -1.80    2.10
   4  -8  -5    0.50    2.30
   4  -8  -5   -2.00    2.50
  -4   8   5   -0.80    2.50
  -4   8   5    1.40    2.60
  -4   8   5    1.20    2.50
   3  -8   5   12.50    3.80
   3  -8   5    8.20    3.40
  -3   8  -5    7.90    3.40
  -3   8  -5   10.40    4.20
   3  -8   4   12.20    3.20
   3  -8   4   16.10    3.60
  -3   8  -4   16.10    4.40
  -3   8  -4    6.30    3.40
   3  -8   3  131.49    7.40
   3  -8   3  120.69    7.00
  -3   8  -3  126.79    8.90
  -3   8  -3  128.59    8.70
   3  -8   2   14.60    2.40
   3  -8   2   19.20    2.60
  -3   8  -2   15.40    3.40
  -3   8  -2   15.20    3.10
   3  -8   1  830.22   27.50
   3  -8   1  762.72   27.40
   3  -8   1  772.92   26.90
   3  -8   1  751.42   27.00
  -3   8  -1  776.02   29.80
  -3   8  -1  799.22   26.90
  -3   8  -1  787.92   28.80
   3  -8   0   12.40    1.90
   3  -8   0   15.20    1.80
   3  -8   0   15.10    1.60
   3  -8   0   13.60    1.50
  -3   8   0   14.50    1.50
  -3   8   0   17.90    2.10
  -3   8   0   16.30    2.20
  -3   8   0   12.50    1.50
  -3   8   0   11.80    2.40
   3  -8  -1  848.12   29.40
   3  -8  -1  804.72   29.00
   3  -8  -1  740.43   28.20
   3  -8  -1  795.92   27.70
  -3   8   1  826.12   29.10
  -3   8   1  820.82   28.60
  -3   8   1  840.52   28.40
  -3   8   1  835.62   27.70
  -3   8   1  817.82   29.20
   3  -8  -2   13.40    2.70
   3  -8  -2   15.20    1.90
   3  -8  -2   16.80    2.20
   3  -8  -2   15.90    2.60
  -3   8   2   16.60    2.30
  -3   8   2   21.70    3.20
  -3   8   2   17.00    2.10
  -3   8   2   15.80    2.40
   3  -8  -3  148.39    7.50
   3  -8  -3  152.38    8.80
   3  -8  -3  150.88    8.30
   3  -8  -3  146.39    7.00
  -3   8   3  128.49    7.20
  -3   8   3  139.99    8.00
  -3   8   3  140.49    7.60
   3  -8  -4   11.60    2.80
   3  -8  -4    9.80    3.50
   3  -8  -4   17.10    3.10
   3  -8  -4   14.50    3.50
  -3   8   4   10.90    2.70
  -3   8   4   10.30    3.20
  -3   8   4   12.90    3.10
  -3   8   4   21.40    3.40
   3  -8  -5   12.10    4.60
   3  -8  -5    7.00    3.50
   3  -8  -5    8.00    3.40
  -3   8   5   11.30    3.70
  -3   8   5   15.80    3.70
  -3   8   5   14.10    3.90
  -3   8   5    8.30    3.30
   2  -8   5    4.30    3.40
   2  -8   5   10.10    3.80
  -2   8  -5    6.40    3.20
  -2   8  -5    9.90    4.10
   2  -8   4   46.20    5.40
   2  -8   4   48.90    5.40
  -2   8  -4   43.50    6.20
  -2   8  -4   53.19    6.70
   2  -8   3   95.29    6.10
   2  -8   3   99.49    6.20
  -2   8  -3   89.99    7.20
  -2   8  -3  103.89    7.40
   2  -8   2  202.28    7.50
   2  -8   2  199.28    7.60
   2  -8   2  191.38    8.80
   2  -8   2  201.78    8.90
  -2   8  -2  187.98   10.40
  -2   8  -2  214.78   10.30
   2  -8   1   88.59    4.50
   2  -8   1   93.19    4.30
   2  -8   1   97.09    4.50
   2  -8   1   97.69    4.60
  -2   8  -1   93.29    6.10
  -2   8  -1   93.89    5.70
  -2   8  -1   95.89    4.00
   2  -8   0  281.57   10.00
   2  -8   0  268.37   10.70
   2  -8   0  276.97   11.00
   2  -8   0  295.57   10.20
  -2   8   0  263.37   10.20
  -2   8   0  278.87   10.20
  -2   8   0  265.07   11.70
  -2   8   0  282.67   11.10
  -2   8   0  268.37   10.60
   2  -8  -1   88.19    4.40
   2  -8  -1   99.29    5.30
   2  -8  -1   90.49    3.90
   2  -8  -1   90.79    5.00
  -2   8   1   90.89    5.00
  -2   8   1   93.79    4.50
  -2   8   1   94.89    4.10
  -2   8   1  103.19    4.80
  -2   8   1   94.79    4.90
   2  -8  -2  211.38   10.00
   2  -8  -2  217.28    8.40
   2  -8  -2  216.88    9.80
   2  -8  -2  212.08    8.90
  -2   8   2  219.58    9.90
  -2   8   2  212.88    9.30
  -2   8   2  205.08    9.00
  -2   8   2  206.28    8.70
   2  -8  -3   96.09    5.50
   2  -8  -3   90.79    6.50
   2  -8  -3   97.99    6.40
   2  -8  -3   99.09    5.20
  -2   8   3  100.49    5.70
  -2   8   3   92.69    5.80
  -2   8   3  103.09    6.50
  -2   8   3   87.79    4.90
   2  -8  -4   53.09    4.60
   2  -8  -4   60.89    5.00
   2  -8  -4   62.29    6.40
   2  -8  -4   60.39    7.00
  -2   8   4   58.19    6.10
  -2   8   4   68.79    5.00
  -2   8   4   61.79    5.70
  -2   8   4   58.39    5.70
   2  -8  -5   -0.10    3.00
   2  -8  -5    3.40    3.20
   2  -8  -5    5.20    2.70
  -2   8   5    8.10    3.10
  -2   8   5    4.30    2.80
  -2   8   5    8.30    3.00
  -2   8   5    4.80    2.60
   1  -8   5    4.80    3.00
   1  -8   5   -0.10    2.90
  -1   8  -5    0.90    2.40
  -1   8  -5    0.00    2.50
   1  -8   4   12.60    3.30
   1  -8   4   10.50    2.90
  -1   8  -4    5.50    3.10
  -1   8  -4   10.90    3.70
  -1   8  -4    4.30    2.60
   1  -8   3   54.19    4.40
   1  -8   3   51.99    4.40
  -1   8  -3   56.39    6.00
  -1   8  -3   57.19    6.30
   1  -8   2  158.98    7.20
   1  -8   2  145.19    7.00
   1  -8   2  135.69    6.00
   1  -8   2  145.59    6.00
  -1   8  -2  145.49    8.20
  -1   8  -2  155.98    8.60
   1  -8   1  172.68    7.50
   1  -8   1  166.98    7.20
   1  -8   1  191.38    7.40
   1  -8   1  184.18    7.50
   1  -8   1  182.48    7.40
  -1   8  -1  170.38    8.80
  -1   8  -1  184.48    6.70
  -1   8  -1  189.28    8.70
   1  -8   0  856.01   31.50
   1  -8   0  968.20   30.50
   1  -8   0  917.81   30.30
   1  -8   0  887.91   31.30
  -1   8   0  907.91   31.00
  -1   8   0  864.41   31.40
  -1   8   0  891.01   30.60
  -1   8   0  857.21   31.90
   1  -8  -1  180.68    7.10
   1  -8  -1  178.58    6.40
   1  -8  -1  185.78    8.00
   1  -8  -1  183.78    8.20
  -1   8   1  177.18    7.00
  -1   8   1  169.68    7.60
  -1   8   1  176.08    7.50
  -1   8   1  172.08    7.20
  -1   8   1  166.38    7.80
   1  -8  -2  149.59    6.10
   1  -8  -2  155.98    6.60
   1  -8  -2  156.68    7.60
   1  -8  -2  146.59    7.80
  -1   8   2  145.29    6.70
  -1   8   2  145.09    7.50
  -1   8   2  150.58    6.80
  -1   8   2  143.49    6.00
  -1   8   2  152.08    7.10
   1  -8  -3   60.89    5.60
   1  -8  -3   61.09    4.30
   1  -8  -3   57.09    3.80
   1  -8  -3   69.69    5.40
  -1   8   3   58.19    4.50
  -1   8   3   53.09    3.80
  -1   8   3   66.29    4.40
  -1   8   3   65.79    4.20
  -1   8   3   59.49    4.90
   1  -8  -4    9.40    2.60
   1  -8  -4    7.80    3.20
   1  -8  -4   13.30    3.80
  -1   8   4    8.20    2.60
  -1   8   4    9.20    2.50
  -1   8   4   15.00    3.10
  -1   8   4   17.10    3.40
   1  -8  -5    4.50    3.00
   1  -8  -5    7.30    4.40
   1  -8  -5    4.00    3.80
   1  -8  -5    5.80    2.70
  -1   8   5    2.20    2.70
  -1   8   5    6.50    2.80
  -1   8   5    7.70    2.90
  -1   8   5    0.70    2.30
   0  -8   5    2.40    2.80
   0  -8   5   -0.20    2.80
   0   8  -5    1.80    2.40
   0   8  -5   -1.90    2.60
   0  -8   4   48.50    5.50
   0  -8   4   46.70    5.50
   0   8  -4   42.90    5.90
   0   8  -4   44.80    5.60
   0  -8   3  136.79    6.30
   0  -8   3  123.99    6.10
   0  -8   3  123.69    7.00
   0  -8   3  127.39    7.00
   0   8  -3  112.59    7.70
   0   8  -3  124.29    8.00
   0   8  -3  116.09    7.30
   0  -8   2  319.47   13.10
   0  -8   2  339.87   12.40
   0  -8   2  333.77   12.20
   0  -8   2  311.67   13.00
   0   8  -2  321.97   14.40
   0   8  -2  344.97   14.50
   0  -8   1 1424.86   46.90
   0  -8   1 1374.86   46.70
   0  -8   1 1362.06   46.90
   0  -8   1 1369.26   46.60
   0   8  -1 1390.06   48.10
   0   8  -1 1344.67   45.90
   0   8  -1 1339.37   48.10
   0  -8   0 1840.22   65.89
   0  -8   0 1945.71   66.49
   0  -8   0 1919.41   66.29
   0  -8   0 2129.29   64.99
   0  -8   0 1942.61   64.59
   0   8   0 1901.21   65.99
   0   8   0 1913.41   66.19
   0   8   0 1961.60   65.39
   0  -8  -1 1394.66   48.10
   0  -8  -1 1398.06   47.80
   0  -8  -1 1321.47   46.50
   0  -8  -1 1398.26   45.80
   0   8   1 1360.16   47.60
   0   8   1 1380.76   47.40
   0   8   1 1378.06   46.80
   0   8   1 1407.66   47.20
   0   8   1 1402.26   47.00
   0  -8  -2  362.56   12.60
   0  -8  -2  329.27   13.60
   0  -8  -2  335.77   14.00
   0  -8  -2  334.87   12.00
   0   8   2  321.57   12.30
   0   8   2  310.37   12.80
   0   8   2  323.97   13.10
   0   8   2  334.57   13.60
   0   8   2  327.07   12.80
   0  -8  -3  128.09    6.30
   0  -8  -3  126.79    6.00
   0  -8  -3  122.99    7.10
   0  -8  -3  124.79    7.50
   0   8   3  123.89    7.10
   0   8   3  106.79    6.00
   0   8   3  109.79    6.40
   0   8   3  132.39    6.20
   0   8   3  121.89    6.30
   0  -8  -4   55.49    7.30
   0  -8  -4   47.10    6.10
   0  -8  -4   53.89    4.60
   0  -8  -4   46.40    5.40
   0   8   4   50.99    4.40
   0   8   4   52.69    5.00
   0   8   4   48.30    5.40
   0   8   4   34.10    4.60
   0  -8  -5    0.30    3.50
   0  -8  -5    0.60    2.40
   0  -8  -5   -0.40    2.60
   0  -8  -5    6.90    4.60
   0   8   5   -1.40    1.90
   0   8   5    0.60    2.50
   0   8   5    1.40    2.60
   0   8   5    3.30    2.60
  -1  -8   5   -1.10    2.60
  -1  -8   5    4.90    3.30
   1   8  -5    6.00    3.50
   1   8  -5    7.90    3.20
  -1  -8   4   13.60    3.30
  -1  -8   4    9.40    2.90
   1   8  -4    6.90    3.10
   1   8  -4   12.30    3.40
  -1  -8   3   54.39    4.40
  -1  -8   3   53.99    3.80
  -1  -8   3   59.29    4.60
  -1  -8   3   56.09    3.70
   1   8  -3   62.39    4.90
   1   8  -3   49.80    5.60
   1   8  -3   57.09    5.60
  -1  -8   2  146.69    7.00
  -1  -8   2  147.49    7.00
  -1  -8   2  153.08    6.50
  -1  -8   2  156.18    6.70
   1   8  -2  145.79    8.10
   1   8  -2  139.89    7.70
   1   8  -2  133.19    7.10
  -1  -8   1  175.78    7.30
  -1  -8   1  176.18    7.60
  -1  -8   1  167.78    7.10
  -1  -8   1  188.08    7.40
  -1  -8   1  174.58    7.90
   1   8  -1  172.38    8.30
   1   8  -1  177.38    6.80
   1   8  -1  169.18    8.10
  -1  -8   0  921.31   32.30
  -1  -8   0  851.71   31.50
  -1  -8   0  866.71   29.90
  -1  -8   0  963.30   30.30
  -1  -8   0  856.01   31.80
   1   8   0  854.11   31.40
   1   8   0  924.21   31.60
   1   8   0  899.41   30.90
  -1  -8  -1  178.38    8.10
  -1  -8  -1  167.18    6.70
  -1  -8  -1  191.68    9.20
  -1  -8  -1  176.18    8.40
   1   8   1  173.38    7.50
   1   8   1  179.28    7.80
   1   8   1  178.88    7.20
   1   8   1  178.58    7.60
   1   8   1  170.78    7.30
  -1  -8  -2  147.49    5.80
  -1  -8  -2  156.68    7.90
  -1  -8  -2  150.58    6.30
  -1  -8  -2  138.59    7.30
  -1  -8  -2  145.79    8.60
   1   8   2  145.49    6.80
   1   8   2  145.79    7.40
   1   8   2  152.18    6.90
   1   8   2  141.29    6.40
   1   8   2  149.69    6.70
  -1  -8  -3   67.49    7.30
  -1  -8  -3   56.49    3.90
  -1  -8  -3   61.99    5.10
  -1  -8  -3   63.39    4.80
   1   8   3   54.19    4.20
   1   8   3   49.20    4.20
   1   8   3   55.19    3.90
   1   8   3   67.09    3.90
   1   8   3   58.29    4.00
   1   8   3   58.69    4.20
  -1  -8  -4   17.10    2.90
  -1  -8  -4    3.30    3.00
  -1  -8  -4   12.30    3.20
  -1  -8  -4   10.40    4.00
   1   8   4   11.80    2.90
   1   8   4   11.10    3.10
   1   8   4   13.80    2.70
   1   8   4    8.30    2.60
   1   8   4   10.00    2.50
  -1  -8  -5    1.10    3.20
  -1  -8  -5    6.50    3.50
  -1  -8  -5    2.90    3.90
   1   8   5    7.70    3.00
   1   8   5    1.80    2.30
   1   8   5    1.50    2.40
  -2  -8   5    1.00    2.80
  -2  -8   5    6.90    3.30
   2   8  -5    0.30    3.00
   2   8  -5    7.00    3.30
  -2  -8   4   55.79    5.90
  -2  -8   4   52.19    5.70
   2   8  -4   47.50    6.10
   2   8  -4   51.69    5.90
  -2  -8   3   93.59    6.20
  -2  -8   3  106.19    6.30
  -2  -8   3  106.29    5.80
  -2  -8   3   98.89    5.40
   2   8  -3   85.89    6.10
   2   8  -3  103.39    6.40
   2   8  -3   98.39    7.00
  -2  -8   2  212.08    8.80
  -2  -8   2  192.98    8.80
  -2  -8   2  201.08    9.00
  -2  -8   2  202.28    8.50
   2   8  -2  197.68    9.10
   2   8  -2  213.78    9.50
   2   8  -2  197.88   10.00
  -2  -8   1   95.29    4.70
  -2  -8   1   95.49    4.90
  -2  -8   1   96.79    4.60
  -2  -8   1   94.09    4.50
  -2  -8   1   90.69    5.50
   2   8  -1  115.89    5.50
   2   8  -1   88.09    5.40
   2   8  -1   89.79    4.60
  -2  -8   0  271.37    9.40
  -2  -8   0  249.58   11.10
  -2  -8   0  295.97   12.40
  -2  -8   0  286.67    9.90
  -2  -8   0  263.27   11.50
   2   8   0  279.07   10.60
   2   8   0  256.97   10.80
   2   8   0  280.07   11.20
   2   8   0  268.07    9.50
  -2  -8  -1   83.59    3.70
  -2  -8  -1   85.59    5.40
  -2  -8  -1   89.99    6.00
  -2  -8  -1   96.49    5.40
   2   8   1   87.59    4.80
   2   8   1   98.59    4.60
   2   8   1   94.39    4.80
   2   8   1   90.89    4.50
  -2  -8  -2  195.18    9.50
  -2  -8  -2  215.98   10.00
  -2  -8  -2  209.18    8.10
  -2  -8  -2  205.18   11.10
   2   8   2  212.98    9.50
   2   8   2  206.88    8.60
   2   8   2  205.18    9.00
   2   8   2  203.88    8.90
   2   8   2  201.48    8.60
  -2  -8  -3   96.29    5.10
  -2  -8  -3   96.29    6.20
  -2  -8  -3   91.79    6.40
  -2  -8  -3   76.69    8.20
   2   8   3   90.29    5.50
   2   8   3   97.09    6.10
   2   8   3   94.49    5.40
   2   8   3  101.39    5.70
   2   8   3   99.49    5.40
   2   8   3   95.29    4.90
  -2  -8  -4   59.39    6.00
  -2  -8  -4   59.59    6.50
  -2  -8  -4   55.49    6.60
  -2  -8  -4   43.30    7.00
   2   8   4   59.39    5.40
   2   8   4   49.99    4.90
   2   8   4   47.50    5.40
   2   8   4   47.70    4.60
  -2  -8  -5    7.60    3.30
  -2  -8  -5   12.40    5.00
  -2  -8  -5    6.10    3.80
   2   8   5    5.40    2.80
   2   8   5    8.40    2.70
   2   8   5    6.80    3.20
  -3  -8   5    9.60    3.60
  -3  -8   5    9.40    4.00
   3   8  -5    3.00    3.50
   3   8  -5   12.60    3.80
  -3  -8   4   13.40    2.90
  -3  -8   4   17.80    3.80
  -3  -8   4   16.80    3.30
  -3  -8   4   15.00    3.50
   3   8  -4   14.60    3.60
   3   8  -4   13.60    3.80
  -3  -8   3  136.99    7.00
  -3  -8   3  130.29    7.50
  -3  -8   3  144.19    7.40
  -3  -8   3  132.59    7.40
   3   8  -3  136.49    8.50
   3   8  -3  143.49    8.00
  -3  -8   2   14.00    2.20
  -3  -8   2   22.90    2.80
  -3  -8   2   16.30    2.50
  -3  -8   2   22.70    3.20
  -3  -8   2   20.00    2.40
   3   8  -2   15.80    2.40
   3   8  -2   18.20    3.20
   3   8  -2   23.10    2.80
  -3  -8   1  801.22   27.70
  -3  -8   1  818.12   28.00
  -3  -8   1  770.52   29.60
  -3  -8   1  831.72   28.60
  -3  -8   1  818.42   28.30
   3   8  -1  800.92   28.50
   3   8  -1  787.12   29.30
   3   8  -1  776.02   27.90
  -3  -8   0   11.50    2.80
  -3  -8   0   16.90    2.50
  -3  -8   0   14.80    1.40
  -3  -8   0   17.90    2.50
   3   8   0   13.20    0.90
   3   8   0   19.40    2.50
   3   8   0   10.60    1.80
   3   8   0   13.80    2.00
  -3  -8  -1  819.32   26.90
  -3  -8  -1  780.82   29.60
  -3  -8  -1  781.82   30.70
  -3  -8  -1  787.52   29.10
   3   8   1  797.52   28.60
   3   8   1  818.42   28.50
   3   8   1  793.42   28.10
  -3  -8  -2   16.50    3.10
  -3  -8  -2   17.90    1.70
  -3  -8  -2   14.00    2.70
  -3  -8  -2   14.80    3.70
   3   8   2   18.20    2.40
   3   8   2   18.10    2.30
   3   8   2   17.40    2.70
   3   8   2   20.20    2.70
   3   8   2   18.90    2.50
  -3  -8  -3  150.98    8.50
  -3  -8  -3  127.39    7.60
  -3  -8  -3  138.29    9.70
   3   8   3  133.89    7.00
   3   8   3  132.19    7.60
   3   8   3  135.59    7.20
   3   8   3  137.99    7.10
   3   8   3  134.09    6.70
  -3  -8  -4   14.50    3.40
  -3  -8  -4   24.00    4.70
  -3  -8  -4    7.10    3.80
  -3  -8  -4    7.20    3.20
   3   8   4    9.00    2.80
   3   8   4   11.70    2.50
   3   8   4   12.30    2.80
   3   8   4   17.00    3.20
  -3  -8  -5   12.10    4.50
  -3  -8  -5   10.10    3.70
  -3  -8  -5   12.60    5.30
   3   8   5    8.90    2.90
   3   8   5    7.90    3.30
   3   8   5   11.30    3.20
  -4  -8   5   -2.10    2.60
  -4  -8   5   -0.60    2.80
   4   8  -5    0.80    2.70
   4   8  -5    0.00    2.40
   4   8  -5    0.40    2.70
  -4  -8   4   -0.50    1.80
  -4  -8   4    3.50    2.50
  -4  -8   4    0.10    2.30
  -4  -8   4   -1.30    2.20
   4   8  -4    2.00    2.20
   4   8  -4   -1.70    2.10
  -4  -8   3   18.60    3.30
  -4  -8   3   16.90    2.90
  -4  -8   3   21.50    3.50
  -4  -8   3   24.40    3.60
   4   8  -3   23.80    3.60
   4   8  -3   18.90    3.70
  -4  -8   2   23.30    2.90
  -4  -8   2   20.80    2.80
  -4  -8   2   18.50    2.60
  -4  -8   2   21.80    3.00
  -4  -8   2   19.90    2.50
   4   8  -2   22.40    2.70
   4   8  -2   18.50    3.20
   4   8  -2   17.40    2.60
  -4  -8   1    8.50    1.60
  -4  -8   1    7.50    2.50
  -4  -8   1    6.10    1.40
  -4  -8   1    4.80    1.20
  -4  -8   1    8.10    1.80
   4   8  -1    4.40    1.70
   4   8  -1    6.90    1.50
   4   8  -1    9.80    1.70
  -4  -8   0   80.89    3.60
  -4  -8   0   87.89    6.40
  -4  -8   0   83.29    5.20
  -4  -8   0   92.09    5.10
   4   8   0   77.69    4.70
   4   8   0   80.99    4.60
   4   8   0   73.09    4.40
   4   8   0   92.59    3.40
  -4  -8  -1    3.20    1.70
  -4  -8  -1    8.30    0.80
  -4  -8  -1    7.60    2.90
  -4  -8  -1    3.70    1.70
   4   8   1    5.50    1.40
   4   8   1    6.00    1.70
   4   8   1    6.40    1.60
  -4  -8  -2   17.40    4.00
  -4  -8  -2   18.80    3.20
  -4  -8  -2   21.10    3.40
   4   8   2   21.10    3.00
   4   8   2   17.90    2.60
   4   8   2   15.20    2.40
   4   8   2   19.30    2.50
  -4  -8  -3   16.90    3.40
  -4  -8  -3   23.30    5.00
  -4  -8  -3   17.50    3.30
   4   8   3   21.30    3.10
   4   8   3   21.80    2.80
   4   8   3   20.00    3.20
   4   8   3   18.80    3.20
   4   8   3   19.70    3.10
  -4  -8  -4    3.00    2.90
  -4  -8  -4    1.30    2.60
  -4  -8  -4   -1.40    2.90
  -4  -8  -4   -0.60    2.10
   4   8   4   -0.80    2.10
   4   8   4   -1.20    2.00
   4   8   4    1.50    1.90
   4   8   4   -0.50    1.50
   4   8   4   -0.10    1.80
  -4  -8  -5   -0.60    3.90
   4   8   5    2.50    2.60
  -5  -8   4    9.70    2.90
  -5  -8   4    9.80    3.00
  -5  -8   4    9.00    3.30
  -5  -8   4    7.90    2.90
   5   8  -4    6.80    2.70
   5   8  -4    3.60    2.70
  -5  -8   3   23.90    3.50
  -5  -8   3   22.70    3.70
  -5  -8   3   22.40    3.30
  -5  -8   3   19.70    3.30
   5   8  -3   31.90    4.60
   5   8  -3   24.70    3.80
  -5  -8   2   50.99    4.10
  -5  -8   2   48.00    3.90
  -5  -8   2   50.09    3.80
  -5  -8   2   49.60    4.80
  -5  -8   2   58.59    3.90
   5   8  -2   54.19    3.60
   5   8  -2   50.09    3.90
   5   8  -2   46.90    5.10
  -5  -8   1   93.59    5.20
  -5  -8   1   82.39    4.80
  -5  -8   1   83.89    6.30
  -5  -8   1   85.89    4.40
   5   8  -1   84.09    5.40
   5   8  -1   84.89    4.30
   5   8  -1   96.09    4.80
  -5  -8   0   69.59    3.30
  -5  -8   0   75.99    4.90
  -5  -8   0   78.49    7.70
  -5  -8   0   80.69    4.70
   5   8   0   75.99    4.60
   5   8   0   78.79    3.20
   5   8   0   75.79    4.30
  -5  -8  -1   87.89    5.60
  -5  -8  -1   81.99    8.20
  -5  -8  -1   80.09    5.70
   5   8   1   92.59    5.00
   5   8   1   97.29    5.40
   5   8   1   80.89    4.90
  -5  -8  -2   50.99    5.40
  -5  -8  -2   51.39    5.10
  -5  -8  -2   45.70    6.40
   5   8   2   48.90    3.90
   5   8   2   53.39    4.10
   5   8   2   53.39    4.30
  -5  -8  -3   18.40    3.50
  -5  -8  -3   20.50    4.00
  -5  -8  -3   24.60    5.50
   5   8   3   22.50    3.70
   5   8   3   26.20    3.70
   5   8   3   23.50    3.00
   5   8   3   24.40    3.40
  -5  -8  -4    1.50    3.60
  -5  -8  -4   12.50    3.70
  -5  -8  -4    3.30    2.80
  -5  -8  -4   -0.20    2.50
   5   8   4   11.60    2.90
   5   8   4    8.20    2.50
   5   8   4   10.10    2.60
   5   8   4    3.90    2.40
   5   8   4   10.20    2.90
  -6  -8   4    0.70    2.60
  -6  -8   4    3.20    2.40
  -6  -8   4   -1.50    2.40
  -6  -8   4    1.70    2.60
   6   8  -4   -0.20    2.50
   6   8  -4    1.70    2.80
   6   8  -4    1.90    2.50
  -6  -8   3    5.20    2.20
  -6  -8   3    1.90    2.00
  -6  -8   3    5.30    2.50
  -6  -8   3    2.90    2.00
   6   8  -3    5.30    2.40
   6   8  -3    3.30    2.50
  -6  -8   2   84.49    4.80
  -6  -8   2   74.49    5.60
  -6  -8   2   85.29    5.40
  -6  -8   2   79.19    5.00
  -6  -8   2   70.59    4.80
   6   8  -2   72.99    4.80
   6   8  -2   75.89    5.60
  -6  -8   1  382.26   14.50
  -6  -8   1  384.16   17.40
  -6  -8   1  394.46   15.60
  -6  -8   1  414.66   15.40
   6   8  -1  402.36   14.90
   6   8  -1  378.66   15.80
   6   8  -1  374.96   14.30
  -6  -8   0  718.23   29.80
  -6  -8   0  725.53   26.60
  -6  -8   0  733.13   27.00
   6   8   0  756.52   24.90
   6   8   0  719.23   26.30
   6   8   0  714.43   26.50
  -6  -8  -1  372.46   16.10
  -6  -8  -1  403.26   16.70
  -6  -8  -1  373.96   18.80
   6   8   1  392.06   16.00
   6   8   1  408.76   15.80
   6   8   1  412.16   15.70
  -6  -8  -2   78.69    5.70
  -6  -8  -2   81.99    9.10
  -6  -8  -2   75.39    5.90
   6   8   2   77.89    5.30
   6   8   2   77.49    5.20
   6   8   2   88.69    5.80
  -6  -8  -3    4.20    2.60
  -6  -8  -3    3.80    2.20
  -6  -8  -3    0.70    3.30
   6   8   3    0.70    1.90
   6   8   3    3.90    2.00
   6   8   3    5.40    2.20
  -6  -8  -4   -0.30    2.70
  -6  -8  -4    3.00    3.80
  -6  -8  -4   -0.20    2.80
  -6  -8  -4    3.50    2.80
   6   8   4    2.80    2.10
   6   8   4    1.70    2.20
   6   8   4    1.20    2.40
   6   8   4   -1.30    1.50
  -7  -8   4   -1.60    2.20
  -7  -8   4    6.00    3.00
  -7  -8   4    1.40    2.60
  -7  -8   4    0.80    2.60
   7   8  -4    1.80    2.30
   7   8  -4    1.00    2.40
   7   8  -4    0.50    2.50
  -7  -8   3   15.00    3.30
  -7  -8   3   13.70    3.40
  -7  -8   3   20.00    3.60
   7   8  -3   18.70    4.00
   7   8  -3   10.20    2.80
   7   8  -3   13.10    2.90
  -7  -8   2   37.10    4.30
  -7  -8   2   33.40    3.60
  -7  -8   2   29.60    4.40
  -7  -8   2   29.10    3.70
   7   8  -2   29.60    3.40
   7   8  -2   28.30    3.90
  -7  -8   1   15.50    2.50
  -7  -8   1   15.20    2.40
  -7  -8   1   11.50    2.50
  -7  -8   1   13.60    3.60
   7   8  -1   12.70    2.20
   7   8  -1   13.80    1.90
   7   8  -1   10.90    2.40
  -7  -8   0  135.39    9.80
  -7  -8   0  157.28    7.80
  -7  -8   0  151.18    7.40
   7   8   0  149.29    7.40
   7   8   0  155.68    7.40
  -7  -8  -1   15.00    4.30
  -7  -8  -1   15.10    3.00
  -7  -8  -1    9.30    2.30
   7   8   1   10.20    2.20
   7   8   1    9.30    2.20
  -7  -8  -2   22.50    5.60
  -7  -8  -2   30.20    4.60
  -7  -8  -2   25.60    3.80
   7   8   2   30.10    4.10
   7   8   2   29.60    3.90
   7   8   2   37.30    4.20
  -7  -8  -3   17.90    4.00
  -7  -8  -3   13.20    5.30
  -7  -8  -3   13.00    3.30
   7   8   3   16.20    3.20
   7   8   3   15.10    3.10
   7   8   3   12.60    3.20
  -7  -8  -4    1.40    3.10
  -7  -8  -4    3.40    4.00
   7   8   4    2.30    2.30
   7   8   4    3.10    2.60
   7   8   4    0.00    2.10
  -8  -8   4    1.30    2.60
  -8  -8   4    3.50    2.60
  -8  -8   4    2.30    2.70
   8   8  -4    4.60    2.80
   8   8  -4    4.40    2.50
  -8  -8   3    5.20    2.50
  -8  -8   3    3.30    2.20
  -8  -8   3    7.80    3.00
   8   8  -3   10.40    2.90
   8   8  -3    2.10    2.30
   8   8  -3    3.00    2.30
  -8  -8   2    4.80    2.10
  -8  -8   2    1.50    2.20
  -8  -8   2    1.50    1.70
  -8  -8   2    1.80    1.90
   8   8  -2    1.60    1.70
   8   8  -2    4.20    2.00
   8   8  -2    4.20    2.20
  -8  -8   1  161.08    7.90
  -8  -8   1  150.18    8.10
  -8  -8   1  136.39    9.60
   8   8  -1  170.18    7.50
   8   8  -1  155.28    8.10
   8   8  -1  161.88    6.90
  -8  -8   0    2.50    2.70
  -8  -8   0    3.30    1.70
  -8  -8   0    5.70    1.70
   8   8   0    2.60    1.70
   8   8   0    1.50    1.60
  -8  -8  -1  153.48    8.10
  -8  -8  -1  168.98    8.80
  -8  -8  -1  156.98   11.50
   8   8   1  166.08    8.40
   8   8   1  157.78    8.20
  -8  -8  -2    6.00    2.60
  -8  -8  -2    1.30    1.70
  -8  -8  -2    1.30    3.20
   8   8   2    0.90    1.70
   8   8   2   -1.10    1.50
  -8  -8  -3    2.00    3.50
  -8  -8  -3    3.00    3.10
  -8  -8  -3    5.40    3.60
  -8  -8  -3    4.40    2.40
   8   8   3    5.10    2.70
   8   8   3    7.70    2.60
   8   8   3    4.20    2.40
  -8  -8  -4    1.40    3.50
  -8  -8  -4    6.90    5.00
   8   8   4    3.50    2.80
   8   8   4    2.10    2.50
   8   8   4    0.00    2.80
  -9  -8   4   12.20    4.00
  -9  -8   4    8.50    4.20
  -9  -8   4   11.00    3.70
   9   8  -4   11.80    3.90
   9   8  -4    8.40    3.40
  -9  -8   3    7.50    2.80
  -9  -8   3    6.60    3.10
  -9  -8   3    7.00    2.80
   9   8  -3    7.20    3.10
   9   8  -3    9.30    2.70
  -9  -8   2   12.90    3.00
  -9  -8   2   15.10    3.20
  -9  -8   2   10.80    3.30
   9   8  -2   21.90    3.10
   9   8  -2   13.20    3.20
  -9  -8   1   22.30    3.20
  -9  -8   1   21.20    3.30
  -9  -8   1   20.30    4.50
   9   8  -1   16.40    3.00
   9   8  -1   22.30    2.40
   9   8  -1   21.80    2.90
  -9  -8   0   10.50    4.00
  -9  -8   0   12.00    2.40
  -9  -8   0   12.00    2.70
   9   8   0   17.00    2.80
   9   8   0   15.10    2.70
  -9  -8  -1   20.00    3.30
  -9  -8  -1   20.30    3.10
  -9  -8  -1   12.60    4.50
   9   8   1   32.80    4.10
   9   8   1   23.00    3.40
  -9  -8  -2   20.40    3.60
  -9  -8  -2   14.20    5.30
  -9  -8  -2   15.10    3.40
   9   8   2   12.80    3.10
   9   8   2   10.30    2.80
  -9  -8  -3   10.50    4.60
  -9  -8  -3    7.00    3.40
  -9  -8  -3    7.90    4.80
   9   8   3    6.80    2.80
   9   8   3    9.30    3.30
  -9  -8  -4    8.10    4.50
  -9  -8  -4   15.10    6.80
   9   8   4   12.30    3.90
   9   8   4   10.50    3.40
 -10  -8   3   12.30    3.70
 -10  -8   3   15.00    3.70
  10   8  -3   20.40    3.60
  10   8  -3   15.60    3.50
 -10  -8   2    8.90    2.90
 -10  -8   2    7.60    3.10
 -10  -8   2    5.20    2.50
  10   8  -2    6.90    2.20
  10   8  -2    8.80    2.70
 -10  -8   1   93.49    6.50
 -10  -8   1   96.69    6.10
 -10  -8   1   98.79    8.30
  10   8  -1   98.79    6.20
 -10  -8   0   51.49    5.10
 -10  -8   0   32.70    6.20
 -10  -8   0   49.60    4.70
  10   8   0   42.30    4.60
  10   8   0   44.50    4.60
 -10  -8  -1  100.69   11.50
 -10  -8  -1   98.69    6.50
 -10  -8  -1   98.59    6.20
  10   8   1  106.49    6.80
  10   8   1  101.79    6.70
 -10  -8  -2    3.70    4.20
 -10  -8  -2    8.80    2.60
 -10  -8  -2    5.10    2.50
 -10  -8  -2    3.80    3.30
  10   8   2    2.30    2.40
  10   8   2    4.40    2.40
 -10  -8  -3   16.90    5.50
 -10  -8  -3   17.90    6.10
  10   8   3   15.60    3.80
  10   8   3   12.20    3.50
 -11  -8   3    0.40    2.80
 -11  -8   3    4.80    3.50
  11   8  -3    1.40    2.20
 -11  -8   2   33.10    4.80
 -11  -8   2   30.30    5.50
 -11  -8   2   31.50    4.70
  11   8  -2   29.30    4.10
  11   8  -2   31.60    3.80
 -11  -8   1    4.80    3.50
 -11  -8   1    3.90    2.50
 -11  -8   1   -0.10    1.70
  11   8  -1    3.80    2.10
 -11  -8   0    8.90    4.20
 -11  -8   0    7.40    2.80
 -11  -8   0    8.50    2.40
  11   8   0   10.30    2.70
  11   8   0   10.90    2.90
 -11  -8  -1   -0.30    3.30
 -11  -8  -1    4.10    2.20
 -11  -8  -1    5.40    2.10
  11   8   1    4.50    2.30
  11   8   1    3.50    2.30
 -11  -8  -2   33.80    4.30
 -11  -8  -2   31.60    4.50
 -11  -8  -2   23.70    6.00
 -11  -8  -2   30.00    7.30
  11   8   2   30.30    4.50
  11   8   2   26.40    4.50
 -11  -8  -3   -0.10    3.80
 -11  -8  -3   -1.90    4.10
  11   8   3    0.30    2.70
  11   8   3    4.00    2.80
 -12  -8   2   39.50    6.50
 -12  -8   2   33.90    5.10
 -12  -8   2   30.30    4.80
  12   8  -2   36.20    4.90
 -12  -8   1    4.10    2.40
 -12  -8   1   -0.90    1.90
 -12  -8   1    4.30    3.50
  12   8  -1    1.80    2.60
 -12  -8   0   65.69    5.20
 -12  -8   0   48.70    8.00
 -12  -8   0   64.29    6.30
 -12  -8   0   80.49   10.10
  12   8   0   69.69    5.90
  12   8   0   80.19    5.60
 -12  -8  -1    6.30    4.20
 -12  -8  -1    3.60    2.00
 -12  -8  -1    4.80    2.70
 -12  -8  -1    3.00    3.90
  12   8   1    2.30    2.40
  12   8   1    2.40    2.40
 -12  -8  -2   29.80    7.40
 -12  -8  -2   29.90    6.70
  12   8   2   39.40    5.40
  12   8   2   38.20    5.50
 -12  -8  -3   12.00    6.00
 -13  -8   2    0.50    3.10
 -13  -8   2    1.30    2.90
 -13  -8   2    2.40    2.80
  13   8  -2   -0.10    2.30
 -13  -8   1   43.10    5.30
 -13  -8   1   37.40    5.30
 -13  -8   1   44.50    7.10
  13   8  -1   33.70    4.70
 -13  -8   0    0.50    2.10
 -13  -8   0    6.80    2.90
 -13  -8   0    0.60    3.60
  13   8   0    3.10    2.80
 -13  -8  -1   34.50    4.40
 -13  -8  -1   36.80    4.90
 -13  -8  -1   29.80    7.30
 -13  -8  -1   26.20    6.60
  13   8   1   35.00    5.10
  13   8   1   33.90    5.10
 -13  -8  -2    8.80    5.10
 -13  -8  -2    1.70    4.10
  13   8   2    0.00    2.60
  13   8   2    2.00    2.60
 -14  -8   1    2.30    2.90
 -14  -8   1   13.90    4.80
 -14  -8   1   11.20    3.80
  14   8  -1   25.90    4.80
 -14  -8   0   -2.30    3.40
 -14  -8   0    3.10    2.50
 -14  -8   0   -2.10    2.80
  14   8   0    3.00    2.70
 -14  -8  -1   16.30    5.90
 -14  -8  -1   19.70    6.30
  14   8   1   16.80    3.90
  14   8   1   16.40    4.20
  14  -9   1    2.70    2.30
  14  -9   0   15.50    3.50
 -14   9   0   16.70    4.40
  13  -9   2    1.30    2.20
 -13   9  -2    7.70    4.90
  13  -9   1   19.10    3.60
 -13   9  -1   10.90    5.20
  13  -9   0    4.90    2.10
  13  -9   0    1.10    1.90
 -13   9   0   -0.30    2.40
  13  -9  -1   19.70    3.10
  13  -9  -1   21.60    3.30
 -13   9   1   16.20    4.40
  13  -9  -2    0.90    2.40
  13  -9  -2    2.80    2.30
 -13   9   2    0.70    3.00
  12  -9   2    3.20    2.60
  12  -9   2    7.90    3.50
 -12   9  -2    3.20    4.90
 -12   9  -2   10.60    4.80
  12  -9   1   -0.90    1.40
  12  -9   1   -0.80    1.60
 -12   9  -1    1.90    4.10
  12  -9   0   12.00    2.50
  12  -9   0    9.80    2.50
 -12   9   0   10.40    3.30
  12  -9  -1    0.50    1.60
  12  -9  -1    0.40    1.80
 -12   9   1   -0.80    2.70
  12  -9  -2    7.10    2.50
  12  -9  -2   13.30    3.00
 -12   9   2    8.30    3.10
 -12   9   2    5.20    3.30
  11  -9   3    0.50    3.20
  11  -9   3    0.80    2.10
 -11   9  -3    6.00    4.20
 -11   9  -3    5.40    4.00
  11  -9   2    3.40    2.30
  11  -9   2    1.10    2.60
  11  -9   2    0.10    2.00
 -11   9  -2    3.40    3.80
 -11   9  -2    0.10    3.30
  11  -9   1   17.70    3.10
  11  -9   1   20.40    2.90
 -11   9  -1   15.90    4.90
  11  -9   0   29.00    3.50
  11  -9   0   29.30    3.20
 -11   9   0   21.80    4.00
 -11   9   0   25.80    5.30
  11  -9  -1   21.60    3.10
  11  -9  -1   16.50    2.50
 -11   9   1   20.40    4.30
  11  -9  -2    1.60    2.00
  11  -9  -2   -0.70    1.60
 -11   9   2   -1.00    2.60
 -11   9   2    1.40    2.00
 -11   9   2    0.00    2.40
  11  -9  -3   -0.70    2.10
  11  -9  -3   -0.50    2.10
 -11   9   3   -3.00    2.70
 -11   9   3    1.00    2.60
 -11   9   3    2.10    2.90
  10  -9   3   49.30    6.40
  10  -9   3   39.40    5.00
 -10   9  -3   44.30    7.20
 -10   9  -3   37.50    7.50
  10  -9   2    6.90    2.50
  10  -9   2   16.80    3.70
  10  -9   2   15.20    3.10
 -10   9  -2   17.50    4.70
 -10   9  -2    4.20    3.90
  10  -9   1    7.70    2.30
  10  -9   1    4.70    1.80
  10  -9   1    8.70    2.50
 -10   9  -1    3.70    2.40
 -10   9  -1    3.90    3.10
 -10   9  -1    1.00    3.10
  10  -9   0  106.79    5.70
  10  -9   0  111.29    5.90
 -10   9   0  107.19    7.10
 -10   9   0  105.19    8.70
  10  -9  -1   12.10    2.50
  10  -9  -1    8.30    2.00
 -10   9   1    4.80    2.70
  10  -9  -2   13.30    2.70
  10  -9  -2   10.80    2.80
 -10   9   2    7.10    2.70
 -10   9   2   12.30    2.80
 -10   9   2   15.90    3.40
  10  -9  -3   36.80    4.50
  10  -9  -3   47.10    5.30
 -10   9   3   45.50    5.70
 -10   9   3   38.60    4.80
   9  -9   3    6.10    2.60
   9  -9   3    4.70    2.90
   9  -9   3    6.50    2.70
  -9   9  -3   10.70    4.30
  -9   9  -3    9.30    4.40
   9  -9   2   34.90    4.20
   9  -9   2   39.90    4.50
   9  -9   2   45.50    5.20
  -9   9  -2   52.29    7.60
  -9   9  -2   48.80    6.40
   9  -9   1    2.60    1.50
   9  -9   1    4.30    2.00
   9  -9   1    2.00    1.50
  -9   9  -1    6.60    2.90
  -9   9  -1    5.90    2.20
  -9   9  -1    6.10    3.40
   9  -9   0  280.77   11.00
   9  -9   0  272.67   11.20
  -9   9   0  259.27   14.00
  -9   9   0  260.17   12.40
   9  -9  -1    3.90    1.50
   9  -9  -1    5.60    1.80
  -9   9   1    5.80    2.00
  -9   9   1    6.20    2.10
  -9   9   1    8.30    2.60
   9  -9  -2   46.60    3.90
   9  -9  -2   41.30    4.40
  -9   9   2   47.80    5.00
  -9   9   2   44.00    5.70
  -9   9   2   39.80    4.30
   9  -9  -3    5.80    2.50
   9  -9  -3    9.30    2.50
  -9   9   3    9.20    3.50
  -9   9   3   12.50    3.40
  -9   9   3    9.20    2.80
   8  -9   4    9.40    3.30
   8  -9   4   17.80    4.40
   8  -9   4   11.70    3.50
  -8   9  -4   10.10    4.50
  -8   9  -4    9.30    5.10
   8  -9   3    8.90    2.80
   8  -9   3    5.80    2.90
   8  -9   3    8.80    2.70
  -8   9  -3    2.30    3.20
  -8   9  -3    0.60    3.30
   8  -9   2   49.00    4.10
   8  -9   2   53.79    5.60
   8  -9   2   53.19    4.30
  -8   9  -2   44.80    6.10
  -8   9  -2   57.29    7.60
   8  -9   1   42.30    3.50
   8  -9   1   56.99    4.30
   8  -9   1   49.50    3.70
  -8   9  -1   61.19    7.20
  -8   9  -1   60.59    4.40
  -8   9  -1   60.49    6.10
   8  -9   0    1.00    1.20
   8  -9   0    2.20    1.20
  -8   9   0    0.00    2.30
  -8   9   0    0.90    1.70
   8  -9  -1   61.89    4.70
   8  -9  -1   53.89    4.10
   8  -9  -1   58.79    3.80
  -8   9   1   55.89    5.70
  -8   9   1   57.59    4.20
  -8   9   1   61.59    5.90
  -8   9   1   53.89    3.80
   8  -9  -2   59.39    4.10
   8  -9  -2   57.59    4.40
  -8   9   2   56.19    6.00
  -8   9   2   50.29    4.70
  -8   9   2   60.89    5.60
   8  -9  -3    9.00    2.60
   8  -9  -3    9.20    2.60
  -8   9   3   10.70    3.40
  -8   9   3    8.30    2.60
  -8   9   3    4.50    2.60
   8  -9  -4    9.20    2.90
   8  -9  -4   10.80    2.90
   8  -9  -4   11.30    4.80
  -8   9   4    7.30    3.40
  -8   9   4   10.50    3.40
  -8   9   4    2.50    3.00
   7  -9   4    0.60    2.50
   7  -9   4   -0.20    2.50
   7  -9   4   -2.00    2.10
  -7   9  -4    2.40    3.60
  -7   9  -4    1.00    3.10
   7  -9   3   48.70    5.20
   7  -9   3   50.69    5.30
   7  -9   3   40.50    5.20
  -7   9  -3   57.39    7.30
  -7   9  -3   51.39    7.60
   7  -9   2   19.70    3.30
   7  -9   2   12.30    2.40
   7  -9   2   18.40    3.00
  -7   9  -2   14.30    3.80
  -7   9  -2   14.00    4.10
   7  -9   1   55.89    3.70
   7  -9   1   56.59    3.80
   7  -9   1   60.39    4.30
  -7   9  -1   58.49    5.80
  -7   9  -1   56.69    4.10
  -7   9  -1   60.39    6.90
   7  -9   0   17.60    2.20
   7  -9   0   17.10    2.70
   7  -9   0   15.60    2.10
  -7   9   0   16.10    2.00
  -7   9   0   16.60    3.60
  -7   9   0   16.80    3.00
  -7   9   0   18.40    2.00
  -7   9   0   10.80    2.70
   7  -9  -1   66.09    4.70
   7  -9  -1   57.79    4.00
   7  -9  -1   66.79    3.70
  -7   9   1   57.29    3.80
  -7   9   1   63.59    5.90
  -7   9   1   60.29    4.20
  -7   9   1   66.29    5.00
   7  -9  -2   17.50    3.50
   7  -9  -2   17.90    2.70
   7  -9  -2   18.00    2.60
  -7   9   2   23.60    3.40
  -7   9   2   14.40    3.20
  -7   9   2   22.70    3.30
   7  -9  -3   64.09    4.50
   7  -9  -3   59.69    6.80
   7  -9  -3   52.79    4.60
  -7   9   3   54.89    6.10
  -7   9   3   54.29    5.30
  -7   9   3   57.89    5.80
   7  -9  -4    1.90    3.40
   7  -9  -4    1.20    2.20
   7  -9  -4    0.90    2.20
  -7   9   4   -0.20    2.40
  -7   9   4    0.80    2.40
  -7   9   4   -0.20    2.40
   6  -9   4    9.60    3.30
   6  -9   4    4.90    2.90
   6  -9   4    8.40    3.50
  -6   9  -4   20.50    5.60
  -6   9  -4   13.90    4.70
   6  -9   3   10.30    2.90
   6  -9   3   12.00    2.80
   6  -9   3   12.00    2.90
  -6   9  -3    5.90    3.30
  -6   9  -3    6.30    3.20
   6  -9   2   48.20    4.80
   6  -9   2   39.90    4.00
   6  -9   2   37.50    4.00
  -6   9  -2   35.60    5.20
  -6   9  -2   30.60    5.40
   6  -9   1   60.69    4.20
   6  -9   1   57.09    3.70
   6  -9   1   62.19    3.90
  -6   9  -1   69.79    5.40
  -6   9  -1   67.19    7.00
  -6   9  -1   60.09    3.90
   6  -9   0   89.79    4.60
   6  -9   0   93.49    4.60
   6  -9   0   93.99    4.80
   6  -9   0   88.69    5.00
  -6   9   0   96.89    4.40
  -6   9   0   95.89    4.50
  -6   9   0   90.09    5.40
  -6   9   0   96.49    5.50
  -6   9   0   93.99    6.60
   6  -9  -1   56.99    3.80
   6  -9  -1   58.59    4.20
   6  -9  -1   71.29    3.60
   6  -9  -1   61.89    4.60
  -6   9   1   56.19    3.70
  -6   9   1   70.69    5.00
  -6   9   1   58.69    4.10
  -6   9   1   57.79    4.60
   6  -9  -2   39.10    3.20
   6  -9  -2   36.10    4.70
   6  -9  -2   47.10    3.70
  -6   9   2   43.50    4.90
  -6   9   2   46.00    4.20
  -6   9   2   36.00    4.00
   6  -9  -3    7.50    2.10
   6  -9  -3    2.00    2.60
   6  -9  -3   12.50    2.70
  -6   9   3   11.20    2.90
  -6   9   3    7.00    2.40
  -6   9   3   12.40    3.30
   6  -9  -4   22.70    5.10
   6  -9  -4   16.10    3.50
   6  -9  -4   11.30    2.90
  -6   9   4   14.00    3.30
  -6   9   4   12.50    3.40
  -6   9   4    2.50    2.40
   5  -9   4    0.50    2.10
   5  -9   4    0.50    2.10
  -5   9  -4    0.50    3.10
  -5   9  -4   -0.30    2.70
   5  -9   3    8.30    2.50
   5  -9   3    6.30    2.40
   5  -9   3   12.80    3.10
  -5   9  -3    7.50    3.60
  -5   9  -3    5.60    3.00
   5  -9   2  119.19    6.80
   5  -9   2  112.79    6.30
   5  -9   2  119.79    6.50
  -5   9  -2  114.49    8.50
  -5   9  -2  123.99    8.10
   5  -9   1  147.29    6.90
   5  -9   1  154.08    6.90
  -5   9  -1  154.18    8.40
  -5   9  -1  154.78    9.30
  -5   9  -1  162.18    6.90
   5  -9   0  101.59    4.70
   5  -9   0  106.79    4.80
   5  -9   0   96.49    5.10
   5  -9   0   93.79    4.80
  -5   9   0   92.09    4.40
  -5   9   0  105.89    5.60
  -5   9   0   98.39    6.50
  -5   9   0   95.19    5.40
  -5   9   0   93.89    4.60
   5  -9  -1  147.09    7.30
   5  -9  -1  150.28    6.90
   5  -9  -1  156.98    7.70
   5  -9  -1  153.98    6.40
  -5   9   1  155.48    7.90
  -5   9   1  149.39    7.80
  -5   9   1  156.58    7.20
  -5   9   1  159.78    6.90
   5  -9  -2  137.29    6.80
   5  -9  -2  131.99    6.30
   5  -9  -2  146.59    8.10
  -5   9   2  134.59    6.80
  -5   9   2  131.59    6.50
  -5   9   2  132.59    7.70
  -5   9   2  135.59    7.10
   5  -9  -3    9.20    2.40
   5  -9  -3   12.70    3.40
   5  -9  -3   12.10    2.20
  -5   9   3   11.00    2.50
  -5   9   3    5.50    2.60
  -5   9   3    9.00    2.70
   5  -9  -4    2.20    2.30
   5  -9  -4   -1.90    2.80
   5  -9  -4    2.20    2.40
   5  -9  -4   -0.20    1.70
  -5   9   4    2.90    2.50
  -5   9   4    2.40    2.30
  -5   9   4    0.20    2.20
   4  -9   4    4.00    2.80
   4  -9   4    5.90    2.70
  -4   9  -4    9.40    3.60
  -4   9  -4    0.20    2.40
   4  -9   3   14.30    3.00
   4  -9   3   13.80    2.90
  -4   9  -3   10.40    3.50
  -4   9  -3   12.40    3.70
   4  -9   2  308.77   12.50
   4  -9   2  287.07   12.30
  -4   9  -2  290.67   14.00
  -4   9  -2  303.47   15.00
   4  -9   1   81.59    4.30
   4  -9   1   73.49    4.00
   4  -9   1   78.19    4.30
   4  -9   1   78.29    4.30
  -4   9  -1   99.49    6.70
  -4   9  -1   86.99    5.60
  -4   9  -1   81.69    4.10
   4  -9   0  724.23   24.60
   4  -9   0  717.43   25.40
   4  -9   0  683.63   25.00
   4  -9   0  732.43   24.80
  -4   9   0  713.33   24.50
  -4   9   0  690.83   25.60
  -4   9   0  714.23   25.50
  -4   9   0  677.33   26.90
  -4   9   0  707.53   24.60
   4  -9  -1   85.09    3.90
   4  -9  -1   84.99    4.90
   4  -9  -1   73.89    5.10
   4  -9  -1   80.99    4.40
  -4   9   1   93.19    4.80
  -4   9   1   84.59    5.20
  -4   9   1   92.59    5.30
  -4   9   1   93.99    4.60
   4  -9  -2  309.27   12.00
   4  -9  -2  322.47   14.00
   4  -9  -2  312.57   13.40
   4  -9  -2  312.27   12.50
  -4   9   2  315.47   13.70
  -4   9   2  311.37   13.00
  -4   9   2  296.27   12.30
  -4   9   2  320.97   12.70
   4  -9  -3   15.40    3.50
   4  -9  -3   11.20    2.40
   4  -9  -3   12.30    3.00
   4  -9  -3   19.20    2.60
  -4   9   3   14.90    3.20
  -4   9   3   15.40    3.00
  -4   9   3   22.30    3.30
   4  -9  -4    1.10    1.90
   4  -9  -4    5.50    2.90
   4  -9  -4    2.70    2.20
   4  -9  -4    7.50    3.40
  -4   9   4    2.10    2.20
  -4   9   4    7.90    3.00
  -4   9   4    1.20    2.10
  -3   9  -5    0.60    3.40
  -3   9  -5   -1.40    2.60
   3  -9   4   -1.00    2.10
   3  -9   4    2.10    2.20
  -3   9  -4    1.20    2.60
  -3   9  -4    3.00    3.00
   3  -9   3   90.09    6.10
   3  -9   3   96.39    6.20
  -3   9  -3   97.59    7.80
  -3   9  -3   94.39    7.40
   3  -9   2  246.48   10.60
   3  -9   2  240.68   10.60
  -3   9  -2  237.68   12.00
  -3   9  -2  269.67   13.10
   3  -9   1  501.25   17.90
   3  -9   1  487.35   17.90
   3  -9   1  471.25   17.70
   3  -9   1  479.45   17.50
  -3   9  -1  513.05   19.50
  -3   9  -1  497.25   17.30
  -3   9  -1  472.55   20.20
   3  -9   0  525.85   19.50
   3  -9   0  545.75   18.90
   3  -9   0  520.75   19.80
   3  -9   0  555.04   19.10
  -3   9   0  538.75   20.00
  -3   9   0  535.65   19.10
  -3   9   0  528.95   18.90
  -3   9   0  550.14   21.20
  -3   9   0  543.85   19.70
   3  -9  -1  534.25   19.70
   3  -9  -1  532.65   17.80
   3  -9  -1  512.75   19.20
   3  -9  -1  463.45   18.30
  -3   9   1  510.15   18.80
  -3   9   1  518.15   18.50
  -3   9   1  520.35   18.10
  -3   9   1  521.55   19.50
  -3   9   1  487.95   19.20
   3  -9  -2  264.07   10.60
   3  -9  -2  262.97   10.00
   3  -9  -2  261.77   11.50
   3  -9  -2  250.47   11.80
  -3   9   2  253.47   11.00
  -3   9   2  251.57   10.50
  -3   9   2  264.57   10.80
  -3   9   2  253.57   11.60
   3  -9  -3   93.49    6.60
   3  -9  -3  109.19    6.20
   3  -9  -3  100.09    5.50
   3  -9  -3  110.99    7.40
  -3   9   3  103.49    6.80
  -3   9   3   95.79    6.00
  -3   9   3  110.09    6.60
   3  -9  -4    1.10    2.20
   3  -9  -4    2.10    2.00
   3  -9  -4    2.80    3.00
  -3   9   4    0.10    2.00
  -3   9   4   -0.70    2.00
  -3   9   4    3.60    2.40
   3  -9  -5    1.70    2.80
   3  -9  -5    3.20    3.10
  -3   9   5    0.10    2.40
   2  -9   5    4.10    2.90
   2  -9   5   -1.40    2.90
  -2   9  -5   -2.60    2.40
  -2   9  -5    2.90    2.90
   2  -9   4    7.40    3.00
   2  -9   4    6.20    2.60
  -2   9  -4   11.50    3.80
  -2   9  -4    4.80    3.50
   2  -9   3  115.69    7.00
   2  -9   3  129.29    7.20
  -2   9  -3  113.39    8.10
  -2   9  -3  116.69    8.40
   2  -9   2   43.90    3.50
   2  -9   2   51.59    3.70
  -2   9  -2   46.60    5.50
  -2   9  -2   49.99    5.30
   2  -9   1  575.04   21.80
   2  -9   1  613.34   21.60
   2  -9   1  584.84   21.70
   2  -9   1  612.04   21.80
  -2   9  -1  610.54   21.10
  -2   9  -1  648.84   23.50
  -2   9  -1  640.64   24.20
   2  -9   0  620.74   21.00
   2  -9   0  584.24   22.10
   2  -9   0  587.64   21.80
   2  -9   0  645.44   21.20
  -2   9   0  594.84   21.30
  -2   9   0  612.54   21.70
  -2   9   0  600.24   22.10
  -2   9   0  606.54   23.00
  -2   9   0  590.84   21.10
   2  -9  -1  607.04   22.60
   2  -9  -1  554.24   21.50
   2  -9  -1  648.54   21.00
   2  -9  -1  651.13   23.10
  -2   9   1  612.64   22.10
  -2   9   1  622.74   21.50
  -2   9   1  600.24   22.60
  -2   9   1  609.24   22.50
  -2   9   1  619.94   21.90
   2  -9  -2   55.19    4.90
   2  -9  -2   55.19    3.40
   2  -9  -2   48.60    4.90
   2  -9  -2   49.60    2.90
  -2   9   2   53.79    3.70
  -2   9   2   51.09    4.10
  -2   9   2   52.29    3.80
  -2   9   2   50.29    3.40
   2  -9  -3  128.29    6.20
   2  -9  -3  133.59    7.70
   2  -9  -3  136.19    8.10
   2  -9  -3  129.09    6.70
  -2   9   3  120.39    7.50
  -2   9   3  120.39    6.90
  -2   9   3  121.49    6.70
  -2   9   3  109.59    6.00
   2  -9  -4   15.30    3.60
   2  -9  -4   11.70    2.70
   2  -9  -4   14.10    3.90
  -2   9   4    9.30    2.70
  -2   9   4   11.60    2.80
  -2   9   4    7.40    2.90
   2  -9  -5    4.60    2.60
   2  -9  -5    2.80    2.90
  -2   9   5    4.80    2.80
  -2   9   5    3.10    2.40
  -2   9   5    2.70    2.70
   1  -9   5   -2.50    2.40
   1  -9   5    2.60    2.90
  -1   9  -5    1.50    2.90
  -1   9  -5    4.40    3.40
   1  -9   4   16.90    3.50
   1  -9   4   20.20    3.70
  -1   9  -4   17.50    3.70
  -1   9  -4   13.00    3.80
  -1   9  -4   17.20    4.20
   1  -9   3   58.59    4.70
   1  -9   3   51.69    4.40
  -1   9  -3   42.70    5.50
  -1   9  -3   55.59    6.30
   1  -9   2   46.10    3.60
   1  -9   2   53.99    3.10
   1  -9   2   51.29    3.70
  -1   9  -2   52.89    5.60
  -1   9  -2   48.60    5.10
   1  -9   1  106.09    4.90
   1  -9   1   97.59    4.80
   1  -9   1   96.29    4.70
   1  -9   1   97.49    4.90
   1  -9   1  100.59    5.00
  -1   9  -1   95.39    4.20
  -1   9  -1   95.49    5.80
  -1   9  -1  106.09    6.40
   1  -9   0  286.07   11.50
   1  -9   0  267.77   10.40
   1  -9   0  309.07   10.70
   1  -9   0  288.77   11.80
  -1   9   0  290.77   11.20
  -1   9   0  284.87   10.80
  -1   9   0  289.17   11.70
  -1   9   0  293.67   12.20
   1  -9  -1  106.29    3.90
   1  -9  -1   84.29    4.30
   1  -9  -1   92.39    5.30
   1  -9  -1   98.19    5.60
  -1   9   1   97.69    4.90
  -1   9   1  101.49    5.40
  -1   9   1  102.49    4.60
  -1   9   1   92.89    4.70
  -1   9   1   97.59    5.20
   1  -9  -2   55.89    2.90
   1  -9  -2   54.79    3.40
   1  -9  -2   54.89    5.10
   1  -9  -2   52.69    4.10
  -1   9   2   49.10    3.40
  -1   9   2   54.79    3.60
  -1   9   2   55.99    3.80
  -1   9   2   57.59    4.30
   1  -9  -3   62.89    4.20
   1  -9  -3   61.19    5.70
   1  -9  -3   53.09    5.70
  -1   9   3   53.29    3.80
  -1   9   3   60.99    5.10
  -1   9   3   59.89    4.30
  -1   9   3   49.80    4.20
   1  -9  -4   21.60    4.10
   1  -9  -4   21.60    3.40
   1  -9  -4   17.80    4.20
  -1   9   4   22.10    3.40
  -1   9   4   25.10    4.20
  -1   9   4   20.00    3.30
  -1   9   4   13.10    3.10
   1  -9  -5    6.20    3.20
   1  -9  -5    2.20    4.00
   1  -9  -5   -0.80    2.00
   1  -9  -5    2.90    3.50
  -1   9   5    4.30    2.50
  -1   9   5    1.70    2.70
  -1   9   5   -1.40    2.00
  -1   9   5    4.10    2.70
   0  -9   5    1.20    3.00
   0  -9   5   -3.00    2.30
   0   9  -5    1.70    2.60
   0   9  -5   -1.20    2.50
   0  -9   4   15.20    3.50
   0  -9   4   19.20    3.80
   0   9  -4    9.10    3.40
   0   9  -4   11.10    3.20
   0  -9   3   37.20    4.20
   0  -9   3   41.80    4.40
   0   9  -3   46.70    4.90
   0   9  -3   42.40    5.30
   0   9  -3   34.80    4.80
   0  -9   2   -0.10    0.90
   0  -9   2   -0.50    0.80
   0  -9   2    0.70    0.90
   0  -9   2    0.80    1.20
   0   9  -2    0.60    1.60
   0   9  -2    1.40    1.60
   0  -9   1  373.96   14.00
   0  -9   1  356.36   13.90
   0  -9   1  388.56   14.40
   0  -9   1  376.26   14.30
   0   9  -1  379.06   15.40
   0   9  -1  372.26   13.30
   0   9  -1  365.86   15.30
   0  -9   0    4.90    0.80
   0  -9   0    5.90    1.50
   0  -9   0    4.50    1.50
   0  -9   0    3.90    1.50
   0   9   0    7.20    1.70
   0   9   0    6.60    1.50
   0   9   0    3.00    1.10
   0  -9  -1  343.77   13.50
   0  -9  -1  379.96   15.30
   0  -9  -1  414.26   12.80
   0  -9  -1  363.86   14.80
   0   9   1  385.66   14.30
   0   9   1  382.36   14.00
   0   9   1  357.26   14.60
   0   9   1  370.86   14.00
   0   9   1  378.26   14.50
   0  -9  -2    3.90    1.70
   0  -9  -2   -0.30    1.50
   0  -9  -2   -0.70    0.60
   0  -9  -2   -1.50    0.80
   0   9   2    0.70    0.80
   0   9   2   -0.50    1.20
   0   9   2   -0.60    1.10
   0   9   2    0.00    1.10
   0   9   2    0.70    1.00
   0  -9  -3   37.80    4.90
   0  -9  -3   37.60    4.50
   0  -9  -3   47.50    3.60
   0   9   3   41.50    4.00
   0   9   3   46.20    4.40
   0   9   3   41.60    4.60
   0   9   3   40.10    3.90
   0  -9  -4   12.60    3.90
   0  -9  -4   16.40    3.60
   0  -9  -4   15.80    3.00
   0  -9  -4   22.50    5.20
   0   9   4   17.30    3.00
   0   9   4   16.60    3.40
   0   9   4   14.40    2.90
   0   9   4   15.80    3.40
   0  -9  -5   -0.10    3.20
   0  -9  -5   -2.00    2.50
   0  -9  -5   -3.60    2.20
   0  -9  -5   -1.10    3.30
   0   9   5    0.50    2.20
   0   9   5   -1.40    2.10
   0   9   5    0.80    2.10
  -1  -9   5    3.60    3.10
  -1  -9   5    0.20    2.60
   1   9  -5    2.50    3.00
   1   9  -5    1.30    2.50
  -1  -9   4   16.20    3.80
  -1  -9   4   12.60    3.30
   1   9  -4   15.20    3.50
   1   9  -4   13.50    3.70
  -1  -9   3   54.09    3.90
  -1  -9   3   55.29    4.60
  -1  -9   3   59.49    3.80
  -1  -9   3   50.79    4.40
   1   9  -3   52.99    5.30
   1   9  -3   54.79    5.60
   1   9  -3   49.80    5.80
  -1  -9   2   48.30    3.70
  -1  -9   2   54.79    3.30
  -1  -9   2   50.59    3.60
  -1  -9   2   52.79    3.50
   1   9  -2   46.20    5.00
   1   9  -2   48.70    4.90
   1   9  -2   47.90    3.80
  -1  -9   1   91.99    5.30
  -1  -9   1   91.59    4.50
  -1  -9   1   92.79    4.70
  -1  -9   1  106.89    5.00
  -1  -9   1  104.79    5.20
   1   9  -1   94.49    4.20
   1   9  -1   96.79    5.60
   1   9  -1   91.99    5.70
  -1  -9   0  276.67   11.90
  -1  -9   0  280.27   10.30
  -1  -9   0  293.37   12.30
  -1  -9   0  280.57   12.50
  -1  -9   0  315.17   10.70
   1   9   0  288.47   11.80
   1   9   0  301.27   12.00
   1   9   0  293.67   11.30
  -1  -9  -1   98.89    6.40
  -1  -9  -1  111.79    6.10
  -1  -9  -1   95.79    4.20
  -1  -9  -1   99.19    5.60
   1   9   1   92.39    4.70
   1   9   1   93.29    5.20
   1   9   1   93.99    4.70
   1   9   1   97.59    5.10
   1   9   1   99.99    5.00
  -1  -9  -2   58.59    4.60
  -1  -9  -2   55.59    4.20
  -1  -9  -2   54.69    3.10
  -1  -9  -2   53.29    6.00
   1   9   2   54.49    3.70
   1   9   2   51.89    3.50
   1   9   2   51.29    3.90
   1   9   2   49.10    3.20
   1   9   2   49.00    3.60
  -1  -9  -3   55.79    6.90
  -1  -9  -3   45.40    5.30
  -1  -9  -3   55.69    5.40
  -1  -9  -3   56.29    3.80
   1   9   3   55.69    4.30
   1   9   3   53.19    4.40
   1   9   3   53.59    4.00
   1   9   3   55.69    4.10
  -1  -9  -4   13.80    3.50
  -1  -9  -4   13.30    2.80
  -1  -9  -4   26.30    5.60
  -1  -9  -4   13.40    3.80
   1   9   4   25.10    3.30
   1   9   4   15.10    3.40
   1   9   4   14.40    3.10
   1   9   4   18.80    3.20
   1   9   4   18.50    4.60
  -1  -9  -5   -2.90    3.20
  -1  -9  -5    4.20    3.00
  -1  -9  -5    2.00    3.80
   1   9   5    1.10    2.30
   1   9   5    0.60    2.30
   1   9   5    0.70    2.50
  -2  -9   5    0.10    2.90
  -2  -9   5   -1.00    2.50
   2   9  -5    2.70    3.20
   2   9  -5    0.70    2.40
  -2  -9   4    6.40    2.90
  -2  -9   4   12.60    3.40
   2   9  -4   11.90    3.70
   2   9  -4   13.00    3.70
  -2  -9   3  124.59    7.10
  -2  -9   3  131.39    7.30
  -2  -9   3  114.49    6.50
  -2  -9   3  130.79    6.50
   2   9  -3  115.69    7.30
   2   9  -3  124.99    7.40
   2   9  -3  113.99    8.00
  -2  -9   2   49.10    3.60
  -2  -9   2   51.59    3.60
  -2  -9   2   49.20    3.30
  -2  -9   2   48.80    3.70
   2   9  -2   59.09    4.90
   2   9  -2   60.69    4.40
   2   9  -2   52.09    3.90
  -2  -9   1  596.54   21.20
  -2  -9   1  554.14   22.60
  -2  -9   1  625.44   21.80
  -2  -9   1  589.94   21.40
  -2  -9   1  647.54   22.20
   2   9  -1  594.24   22.80
   2   9  -1  619.04   22.40
   2   9  -1  569.14   21.30
  -2  -9   0  619.24   23.60
  -2  -9   0  638.74   21.00
  -2  -9   0  581.54   22.40
  -2  -9   0  588.64   20.40
  -2  -9   0  582.64   22.80
   2   9   0  621.54   21.80
   2   9   0  616.54   22.20
   2   9   0  584.04   20.50
   2   9   0  611.84   22.40
  -2  -9  -1  609.74   22.80
  -2  -9  -1  592.34   23.10
  -2  -9  -1  597.34   24.00
   2   9   1  589.34   22.00
   2   9   1  614.14   21.70
   2   9   1  611.24   21.70
   2   9   1  596.04   22.10
  -2  -9  -2   54.29    3.00
  -2  -9  -2   49.90    5.90
  -2  -9  -2   54.49    5.00
  -2  -9  -2   51.19    5.10
   2   9   2   55.29    3.80
   2   9   2   49.30    3.50
   2   9   2   56.99    3.80
   2   9   2   53.89    3.50
   2   9   2   50.99    4.00
  -2  -9  -3  126.29    7.80
  -2  -9  -3  111.79    8.70
  -2  -9  -3  132.89    6.10
  -2  -9  -3  121.99    7.30
   2   9   3  127.19    6.80
   2   9   3  113.79    6.20
   2   9   3  112.49    6.90
   2   9   3  109.89    6.40
   2   9   3  122.19    6.40
  -2  -9  -4    7.20    2.80
  -2  -9  -4    9.50    4.20
  -2  -9  -4   11.10    3.80
   2   9   4    7.60    2.30
   2   9   4   13.60    3.10
   2   9   4   11.10    2.70
   2   9   4   12.10    3.00
  -2  -9  -5    2.90    4.40
  -2  -9  -5    0.20    3.10
  -2  -9  -5    0.10    3.00
   2   9   5    6.10    2.60
   2   9   5    3.60    3.10
   2   9   5    2.50    2.40
  -3  -9   5    2.50    3.20
   3   9  -5   -2.20    2.60
   3   9  -5    0.80    2.60
  -3  -9   4   -0.60    2.10
  -3  -9   4   -0.20    2.00
  -3  -9   4    2.50    2.50
   3   9  -4    1.70    2.80
   3   9  -4    0.50    2.10
  -3  -9   3   98.79    6.10
  -3  -9   3  103.09    6.40
   3   9  -3   98.09    7.20
   3   9  -3  100.79    6.50
  -3  -9   2  251.67   10.80
  -3  -9   2  247.38   10.60
  -3  -9   2  263.07   10.60
  -3  -9   2  255.97   10.90
   3   9  -2  266.17   12.30
   3   9  -2  252.37   11.00
   3   9  -2  252.47   11.00
  -3  -9   1  493.65   20.20
  -3  -9   1  520.55   19.00
  -3  -9   1  508.05   18.40
  -3  -9   1  490.45   18.00
  -3  -9   1  512.35   18.70
   3   9  -1  516.75   19.80
   3   9  -1  486.25   18.20
   3   9  -1  508.05   19.00
  -3  -9   0  530.65   21.60
  -3  -9   0  531.75   20.50
  -3  -9   0  533.95   20.20
  -3  -9   0  546.85   18.50
   3   9   0  520.15   19.90
   3   9   0  532.55   19.50
   3   9   0  522.95   19.60
   3   9   0  522.15   17.90
  -3  -9  -1  488.05   19.90
  -3  -9  -1  509.75   20.40
  -3  -9  -1  565.34   17.60
  -3  -9  -1  520.75   21.70
   3   9   1  513.85   19.20
   3   9   1  488.95   18.80
   3   9   1  489.75   19.30
  -3  -9  -2  236.98   11.40
  -3  -9  -2  253.07   12.00
  -3  -9  -2  256.17   13.40
  -3  -9  -2  254.37    9.50
   3   9   2  244.58   10.50
   3   9   2  240.78   11.10
   3   9   2  264.87   10.50
   3   9   2  259.77   10.70
   3   9   2  257.07   10.90
  -3  -9  -3  102.79    6.70
  -3  -9  -3   91.89    9.30
  -3  -9  -3   97.29    6.90
   3   9   3   86.79    5.40
   3   9   3   82.99    5.80
   3   9   3   94.89    5.90
   3   9   3  100.79    5.80
   3   9   3   87.99    5.30
  -3  -9  -4    2.30    3.50
  -3  -9  -4    3.60    2.60
  -3  -9  -4   -0.50    2.50
   3   9   4   -0.80    1.80
   3   9   4    1.00    1.80
   3   9   4    1.60    2.00
   3   9   4    3.90    2.10
  -3  -9  -5    3.90    4.30
  -3  -9  -5    0.80    3.10
  -3  -9  -5    5.70    3.50
   3   9   5    0.90    2.40
   3   9   5    0.10    2.40
   3   9   5    0.60    2.50
  -4  -9   4    4.90    2.70
  -4  -9   4    0.10    2.40
  -4  -9   4    4.30    2.40
  -4  -9   4    6.50    2.70
   4   9  -4    6.10    3.20
   4   9  -4    4.00    2.50
  -4  -9   3   16.80    2.90
  -4  -9   3   15.70    2.80
  -4  -9   3    9.10    2.70
  -4  -9   3   16.10    3.00
   4   9  -3   14.60    3.10
   4   9  -3   10.50    3.40
  -4  -9   2  329.07   13.00
  -4  -9   2  296.47   12.40
  -4  -9   2  304.87   12.70
  -4  -9   2  322.17   12.70
   4   9  -2  316.87   12.70
   4   9  -2  285.47   12.60
   4   9  -2  305.97   14.00
  -4  -9   1   89.49    4.80
  -4  -9   1   83.59    6.00
  -4  -9   1   77.09    4.30
  -4  -9   1   89.59    5.00
  -4  -9   1   84.79    4.10
   4   9  -1   84.89    4.30
   4   9  -1   74.29    5.20
  -4  -9   0  678.43   27.60
  -4  -9   0  681.83   25.60
  -4  -9   0  694.03   23.90
  -4  -9   0  705.03   26.10
   4   9   0  685.63   25.10
   4   9   0  693.03   25.40
   4   9   0  723.93   25.20
  -4  -9  -1   87.69    3.40
  -4  -9  -1   87.59    5.50
  -4  -9  -1   77.99    5.60
  -4  -9  -1   81.29    6.70
   4   9   1   74.29    4.50
   4   9   1   82.49    5.00
   4   9   1   80.99    4.80
  -4  -9  -2  297.57   13.60
  -4  -9  -2  281.07   15.00
  -4  -9  -2  300.27   13.20
   4   9   2  297.77   12.70
   4   9   2  287.87   11.80
   4   9   2  280.27   12.00
   4   9   2  290.97   12.40
  -4  -9  -3   13.80    3.10
  -4  -9  -3   17.50    4.70
  -4  -9  -3   16.40    3.60
   4   9   3   15.70    2.90
   4   9   3   15.50    2.80
   4   9   3   12.40    2.30
   4   9   3   14.40    3.00
   4   9   3   17.30    3.10
  -4  -9  -4    3.80    3.60
  -4  -9  -4    0.10    2.80
  -4  -9  -4    3.80    2.60
   4   9   4    1.70    2.00
   4   9   4    5.00    2.20
   4   9   4    4.10    2.50
   4   9   4    2.80    2.20
  -5  -9   4    0.40    2.50
  -5  -9   4   -4.10    1.90
  -5  -9   4    4.50    2.90
  -5  -9   4    1.50    2.50
   5   9  -4   -1.90    1.90
   5   9  -4    0.30    2.60
  -5  -9   3   12.10    2.70
  -5  -9   3    9.40    2.50
  -5  -9   3    8.20    2.50
  -5  -9   3    4.80    2.40
   5   9  -3    8.00    2.70
   5   9  -3   12.40    3.30
  -5  -9   2  137.19    6.80
  -5  -9   2  128.69    6.90
  -5  -9   2  138.19    7.20
  -5  -9   2  134.09    6.90
  -5  -9   2  159.68    9.20
   5   9  -2  134.59    6.60
   5   9  -2  124.29    6.70
   5   9  -2  125.19    7.90
  -5  -9   1  158.28    7.50
  -5  -9   1  148.09    6.70
  -5  -9   1  146.39    9.00
  -5  -9   1  156.78    7.30
   5   9  -1  149.99    7.00
   5   9  -1  147.69    7.90
   5   9  -1  145.49    6.40
  -5  -9   0  100.59    5.70
  -5  -9   0   98.59    6.00
  -5  -9   0   95.99    4.20
  -5  -9   0   84.49    7.10
   5   9   0  102.39    5.40
   5   9   0  105.49    5.70
  -5  -9  -1  131.49    7.70
  -5  -9  -1  168.68   10.30
  -5  -9  -1  139.49    8.20
   5   9   1  151.88    7.60
   5   9   1  151.28    7.20
   5   9   1  143.49    7.20
  -5  -9  -2  120.89    7.40
  -5  -9  -2  114.89    7.80
  -5  -9  -2  120.19    9.30
   5   9   2  139.79    7.50
   5   9   2  129.29    7.00
   5   9   2  130.69    6.90
  -5  -9  -3   16.70    3.50
  -5  -9  -3    7.90    2.90
  -5  -9  -3    6.40    4.00
   5   9   3    6.80    2.40
   5   9   3    8.80    2.50
   5   9   3    7.20    2.00
   5   9   3   10.40    2.80
  -5  -9  -4   -0.40    2.80
  -5  -9  -4    1.50    2.50
  -5  -9  -4    3.50    2.50
  -5  -9  -4    1.10    3.50
   5   9   4    5.30    2.50
   5   9   4   -2.20    1.60
   5   9   4   -0.40    1.50
   5   9   4    2.00    1.90
  -6  -9   4    9.50    3.30
  -6  -9   4   12.80    3.60
  -6  -9   4   12.60    3.50
  -6  -9   4   13.20    3.50
   6   9  -4    9.70    3.10
   6   9  -4    8.30    3.80
  -6  -9   3    5.90    2.40
  -6  -9   3    6.70    2.40
  -6  -9   3   18.20    3.40
  -6  -9   3   11.00    2.70
   6   9  -3    9.20    3.20
   6   9  -3   14.60    3.00
  -6  -9   2   40.40    4.00
  -6  -9   2   40.60    4.90
  -6  -9   2   46.20    4.80
  -6  -9   2   47.20    3.80
  -6  -9   2   44.50    4.40
   6   9  -2   47.80    3.70
   6   9  -2   43.70    5.60
   6   9  -2   42.60    4.90
  -6  -9   1   59.89    4.20
  -6  -9   1   57.59    6.60
  -6  -9   1   58.09    4.40
  -6  -9   1   59.09    3.70
   6   9  -1   59.19    4.00
   6   9  -1   57.09    4.50
   6   9  -1   61.39    3.40
  -6  -9   0   79.69    8.50
  -6  -9   0   88.29    5.40
  -6  -9   0   95.49    5.90
   6   9   0  107.19    5.50
   6   9   0   96.99    5.60
  -6  -9  -1   61.49    4.80
  -6  -9  -1   60.79    5.10
  -6  -9  -1   67.99    8.10
   6   9   1   60.99    4.30
   6   9   1   68.69    4.60
   6   9   1   67.99    4.90
  -6  -9  -2   33.80    4.50
  -6  -9  -2   45.10    5.40
  -6  -9  -2   30.40    6.00
   6   9   2   31.10    4.10
   6   9   2   36.00    4.10
   6   9   2   42.40    4.40
  -6  -9  -3    5.70    3.10
  -6  -9  -3    8.40    4.10
  -6  -9  -3    6.80    2.70
   6   9   3    8.60    2.50
   6   9   3    9.80    2.90
   6   9   3    7.80    2.50
  -6  -9  -4    6.10    3.40
  -6  -9  -4   10.80    4.80
  -6  -9  -4    9.10    4.10
  -6  -9  -4   12.20    4.00
   6   9   4    7.40    2.80
   6   9   4   15.40    3.50
   6   9   4   16.30    3.80
  -7  -9   4    0.10    2.80
  -7  -9   4   -0.20    2.40
  -7  -9   4   -0.40    2.70
  -7  -9   4    1.90    2.50
   7   9  -4    0.90    2.30
   7   9  -4    4.30    3.10
   7   9  -4   -0.60    2.50
  -7  -9   3   59.59    4.90
  -7  -9   3   59.99    6.10
   7   9  -3   51.59    5.40
   7   9  -3   53.09    6.10
  -7  -9   2   15.50    3.50
  -7  -9   2   16.90    3.30
  -7  -9   2   20.70    3.30
  -7  -9   2   21.30    3.10
   7   9  -2   22.20    3.10
   7   9  -2   23.00    3.80
  -7  -9   1   56.59    6.70
  -7  -9   1   53.19    4.40
  -7  -9   1   62.89    4.30
   7   9  -1   50.09    3.30
   7   9  -1   64.19    4.10
   7   9  -1   59.29    4.60
  -7  -9   0    9.00    3.60
  -7  -9   0   16.60    2.80
  -7  -9   0   13.20    2.40
   7   9   0   15.50    2.60
   7   9   0   16.60    2.50
  -7  -9  -1   53.89    5.50
  -7  -9  -1   60.99    8.10
  -7  -9  -1   61.29    4.80
   7   9   1   58.99    4.40
   7   9   1   57.29    4.30
  -7  -9  -2   21.40    5.50
  -7  -9  -2   14.60    3.70
  -7  -9  -2   13.60    3.00
   7   9   2   10.80    2.70
   7   9   2   24.70    3.80
   7   9   2   19.60    3.30
  -7  -9  -3   44.80    8.00
  -7  -9  -3   61.79    6.80
  -7  -9  -3   56.59    6.30
   7   9   3   51.89    5.60
   7   9   3   55.19    5.80
   7   9   3   53.59    5.80
  -7  -9  -4    2.70    3.50
  -7  -9  -4    3.00    4.30
   7   9   4    2.10    2.50
   7   9   4   -1.00    2.00
   7   9   4    1.30    2.40
  -8  -9   4   12.80    3.80
  -8  -9   4    5.50    3.60
  -8  -9   4    7.10    3.10
   8   9  -4    8.50    3.80
   8   9  -4   10.30    3.40
   8   9  -4   11.70    3.70
  -8  -9   3    7.10    2.70
  -8  -9   3    7.20    3.00
  -8  -9   3    9.70    2.90
   8   9  -3    5.90    2.80
   8   9  -3    2.00    2.60
   8   9  -3    7.30    2.90
  -8  -9   2   62.99    5.10
  -8  -9   2   57.99    6.40
  -8  -9   2   53.39    5.20
   8   9  -2   61.49    4.30
   8   9  -2   52.99    5.50
  -8  -9   1   57.29    4.40
  -8  -9   1   55.99    4.70
  -8  -9   1   63.79    7.50
   8   9  -1   62.69    4.30
   8   9  -1   60.69    4.70
  -8  -9   0    0.00    1.40
  -8  -9   0   -0.10    1.40
  -8  -9   0    1.10    2.80
   8   9   0    0.80    1.40
   8   9   0   -1.30    1.30
  -8  -9  -1   62.49    6.00
  -8  -9  -1   51.99    8.00
  -8  -9  -1   56.39    5.30
   8   9   1   52.09    4.40
   8   9   1   53.69    5.00
  -8  -9  -2   48.80    8.00
  -8  -9  -2   49.90    5.60
  -8  -9  -2   62.09    6.50
   8   9   2   56.09    4.90
   8   9   2   53.69    5.30
  -8  -9  -3   12.80    4.00
  -8  -9  -3   -0.10    3.70
  -8  -9  -3    6.80    2.70
   8   9   3    9.60    3.00
   8   9   3    2.40    2.30
   8   9   3    6.00    2.50
  -8  -9  -4   10.70    5.20
  -8  -9  -4   14.00    6.40
   8   9   4   12.50    4.00
   8   9   4    8.40    3.50
   8   9   4   11.60    3.60
  -9  -9   3    7.60    3.10
  -9  -9   3    6.00    2.80
   9   9  -3    6.40    2.80
   9   9  -3    5.30    2.80
  -9  -9   2   47.10    6.10
  -9  -9   2   40.60    4.70
  -9  -9   2   39.40    5.00
   9   9  -2   42.90    3.70
   9   9  -2   42.90    5.00
  -9  -9   1    4.60    2.00
  -9  -9   1    9.80    3.90
  -9  -9   1    5.60    2.30
   9   9  -1    4.50    2.00
   9   9  -1    4.90    2.00
  -9  -9   0  262.77   15.50
  -9  -9   0  245.58   11.40
  -9  -9   0  267.07   11.90
   9   9   0  262.27   11.70
   9   9   0  254.87   11.70
  -9  -9  -1    2.70    2.10
  -9  -9  -1    5.30    3.90
  -9  -9  -1    9.30    2.40
   9   9   1    3.50    2.00
   9   9   1    5.60    2.20
  -9  -9  -2   50.79    5.50
  -9  -9  -2   39.60    5.20
  -9  -9  -2   30.10    6.60
   9   9   2   45.80    5.20
   9   9   2   43.70    5.20
  -9  -9  -3   10.90    5.40
  -9  -9  -3    9.10    4.20
  -9  -9  -3   10.80    3.70
  -9  -9  -3    3.00    3.10
   9   9   3   11.20    3.40
   9   9   3    7.90    2.80
 -10  -9   3   36.80    5.40
 -10  -9   3   45.00    5.70
  10   9  -3   49.80    5.30
  10   9  -3   43.20    5.60
 -10  -9   2   11.30    3.70
 -10  -9   2    8.60    3.00
 -10  -9   2   14.50    3.40
  10   9  -2   10.00    3.00
 -10  -9   1    9.20    2.70
 -10  -9   1    6.00    2.30
 -10  -9   1    4.60    3.70
  10   9  -1    7.70    2.40
 -10  -9   0  108.09   11.20
 -10  -9   0  117.09    6.60
 -10  -9   0  108.69    7.00
  10   9   0  104.39    6.50
  10   9   0   95.49    6.50
 -10  -9  -1    9.50    2.80
 -10  -9  -1    6.10    4.00
 -10  -9  -1   10.90    2.60
  10   9   1   10.20    2.90
  10   9   1    7.70    2.70
 -10  -9  -2   11.90    3.40
 -10  -9  -2   14.40    5.40
 -10  -9  -2   18.00    3.50
  10   9   2   12.40    3.30
  10   9   2   12.10    3.20
 -10  -9  -3   38.70    7.70
 -10  -9  -3   36.40    7.90
  10   9   3   51.49    6.10
 -11  -9   3    0.70    2.80
  11   9  -3    1.50    2.30
  11   9  -3    0.30    3.20
 -11  -9   2   -1.70    2.30
 -11  -9   2   -1.30    2.10
 -11  -9   2   -0.20    2.10
  11   9  -2   -1.10    1.80
 -11  -9   1   18.10    4.60
 -11  -9   1   18.10    3.50
 -11  -9   1   21.80    3.90
  11   9  -1   17.00    3.30
 -11  -9   0   30.10    3.90
 -11  -9   0   24.90    5.90
 -11  -9   0   33.30    4.60
  11   9   0   27.30    3.80
  11   9   0   21.70    3.70
 -11  -9  -1   20.90    3.30
 -11  -9  -1   19.40    3.70
 -11  -9  -1   19.40    5.90
  11   9   1   26.60    4.10
  11   9   1   16.00    3.50
 -11  -9  -2    2.40    3.70
 -11  -9  -2    3.60    2.50
 -11  -9  -2    6.20    4.60
 -11  -9  -2    2.40    2.50
  11   9   2    0.60    2.50
  11   9   2   -0.30    2.00
 -11  -9  -3   -1.60    4.20
 -11  -9  -3   -0.30    3.50
  11   9   3    0.30    2.80
  11   9   3    3.10    2.70
 -12  -9   2    6.30    3.20
 -12  -9   2   10.90    3.50
 -12  -9   2    7.70    3.70
  12   9  -2   12.70    3.50
 -12  -9   1   -4.50    2.10
 -12  -9   1    0.80    2.20
 -12  -9   1    1.60    2.20
  12   9  -1   -0.40    1.90
 -12  -9   0   16.00    3.10
 -12  -9   0    5.60    2.60
 -12  -9   0    8.90    4.40
  12   9   0   10.60    3.00
  12   9   0    9.70    3.20
 -12  -9  -1    0.80    4.00
 -12  -9  -1   -3.40    1.40
 -12  -9  -1    2.70    2.60
 -12  -9  -1   -2.90    3.10
  12   9   1   -1.20    2.10
  12   9   1    3.30    2.40
 -12  -9  -2    6.20    4.30
 -12  -9  -2    5.20    3.20
 -12  -9  -2   11.60    5.70
  12   9   2    8.90    3.50
  12   9   2    9.40    3.30
 -13  -9   2    2.80    2.70
 -13  -9   2   -3.10    2.70
  13   9  -2    2.10    2.90
 -13  -9   1   13.70    4.80
 -13  -9   1   19.70    4.00
 -13  -9   1   19.90    3.80
  13   9  -1   17.70    3.90
 -13  -9   0    2.50    2.90
 -13  -9   0    4.90    2.50
 -13  -9   0    5.40    4.40
  13   9   0    2.80    2.60
 -13  -9  -1   15.50    6.00
 -13  -9  -1   11.70    3.20
 -13  -9  -1   12.50    3.70
 -13  -9  -1    7.00    4.70
  13   9   1   19.30    4.10
  13   9   1   15.90    3.80
 -13  -9  -2   -5.20    3.80
 -13  -9  -2    1.60    4.20
  13   9   2   -2.10    2.40
  13   9   2    0.80    2.80
 -14  -9   1   -1.50    3.40
 -14  -9   1    4.10    3.40
  14   9  -1    0.50    2.70
 -14  -9   0    7.60    3.40
 -14  -9   0    4.50    4.50
 -14  -9   0   11.20    3.20
  14   9   0   14.50    4.30
 -14  -9  -1    3.70    2.70
 -14  -9  -1    1.90    4.60
  14   9   1    5.20    3.20
  13 -10   1   14.10    3.20
  13 -10   1   20.70    3.50
 -13  10  -1   16.50    5.80
  13 -10   0   13.60    2.80
  13 -10   0   15.20    3.30
 -13  10   0    4.40    3.10
  13 -10  -1   18.40    3.40
  13 -10  -1   29.70    4.00
 -13  10   1   22.80    5.40
  12 -10   2    7.80    3.70
  12 -10   2    8.80    2.80
  12 -10   2    9.00    2.90
 -12  10  -2   -3.80    4.50
  12 -10   1    4.70    2.30
  12 -10   1    5.40    2.30
 -12  10  -1    5.50    4.40
  12 -10   0    0.20    1.70
  12 -10   0    3.20    1.80
 -12  10   0    2.80    2.60
  12 -10  -1    7.00    2.50
  12 -10  -1    3.60    2.00
 -12  10   1    4.90    3.30
  12 -10  -2    4.80    2.60
  12 -10  -2    6.90    2.40
 -12  10   2    2.40    3.00
  11 -10   3    6.50    3.70
  11 -10   3    5.40    2.90
  11 -10   3    2.00    2.60
 -11  10  -3    1.70    4.10
 -11  10  -3    1.10    3.90
  11 -10   2   25.70    4.00
  11 -10   2   29.40    4.60
  11 -10   2   22.40    3.70
 -11  10  -2   28.50    5.80
 -11  10  -2   22.00    6.20
  11 -10   1   38.30    4.50
  11 -10   1   48.00    4.60
 -11  10  -1   52.09    7.60
  11 -10   0   19.80    3.10
  11 -10   0   17.50    2.70
 -11  10   0   19.70    5.00
 -11  10   0   17.40    3.90
  11 -10  -1   48.70    4.20
  11 -10  -1   51.59    4.00
 -11  10   1   49.40    6.00
  11 -10  -2   31.00    4.10
  11 -10  -2   31.20    3.80
 -11  10   2   32.60    4.70
 -11  10   2   22.90    4.80
 -11  10   2   33.10    4.30
  11 -10  -3    1.30    2.10
  11 -10  -3    2.30    2.80
 -11  10   3    0.20    2.90
 -11  10   3    1.60    3.10
 -11  10   3    9.10    3.40
  10 -10   3    9.10    3.40
  10 -10   3   11.10    3.20
  10 -10   3   16.80    4.30
 -10  10  -3   12.60    5.20
 -10  10  -3    6.00    4.20
  10 -10   2    3.40    2.00
  10 -10   2    4.00    2.30
  10 -10   2    2.50    2.60
 -10  10  -2    7.50    3.90
 -10  10  -2   -0.90    3.00
  10 -10   1    8.90    2.20
  10 -10   1    6.20    2.00
 -10  10  -1    6.00    3.90
  10 -10   0    2.20    1.40
  10 -10   0    1.50    1.50
 -10  10   0   -0.70    2.60
 -10  10   0    1.70    2.20
  10 -10  -1    8.80    2.00
  10 -10  -1   12.40    2.60
 -10  10   1    8.40    3.10
  10 -10  -2    4.60    2.10
  10 -10  -2    6.80    3.10
  10 -10  -2    6.60    2.50
 -10  10   2    3.60    2.90
 -10  10   2    7.40    2.50
 -10  10   2    6.00    2.80
  10 -10  -3    5.90    2.50
  10 -10  -3    7.80    3.80
  10 -10  -3   13.70    3.40
 -10  10   3   10.00    3.20
 -10  10   3    7.80    3.30
 -10  10   3    9.30    3.70
   9 -10   3    7.20    2.90
   9 -10   3    1.80    2.80
   9 -10   3    1.50    2.20
  -9  10  -3   -0.90    3.50
  -9  10  -3   -1.10    3.20
   9 -10   2    8.20    2.50
   9 -10   2    3.10    1.90
   9 -10   2    7.30    2.60
  -9  10  -2    5.70    3.70
  -9  10  -2   13.00    3.90
   9 -10   1   -1.10    1.40
   9 -10   1   -1.00    1.20
   9 -10   1    0.30    1.70
  -9  10  -1   -1.60    2.70
  -9  10  -1    0.00    2.30
   9 -10   0    3.60    1.60
   9 -10   0    5.00    1.80
  -9  10   0    1.80    3.00
  -9  10   0    3.10    2.40
   9 -10  -1    0.00    1.50
   9 -10  -1   -0.10    1.20
  -9  10   1   -3.00    1.60
  -9  10   1    0.40    1.50
  -9  10   1    0.20    1.60
   9 -10  -2   10.10    3.60
   9 -10  -2    9.20    2.30
   9 -10  -2   10.90    2.70
  -9  10   2    5.00    2.90
  -9  10   2    9.20    2.80
  -9  10   2   10.10    2.80
   9 -10  -3    2.10    2.00
   9 -10  -3    2.10    3.30
   9 -10  -3   -0.40    2.00
  -9  10   3    3.90    3.10
  -9  10   3    1.00    2.50
  -9  10   3    4.10    2.60
   8 -10   4    0.50    2.50
   8 -10   4   -0.30    3.00
   8 -10   4   -0.80    2.70
  -8  10  -4    5.30    3.90
  -8  10  -4   -0.60    3.80
   8 -10   3   19.50    3.90
   8 -10   3   31.90    4.90
   8 -10   3   21.10    3.70
  -8  10  -3   10.00    4.30
  -8  10  -3   27.00    5.80
   8 -10   2   53.69    4.40
   8 -10   2   55.79    4.50
   8 -10   2   63.29    5.40
  -8  10  -2   48.70    7.20
  -8  10  -2   65.49    7.30
   8 -10   1   19.50    3.00
   8 -10   1   15.50    2.60
   8 -10   1   16.60    2.60
  -8  10  -1   15.50    3.50
  -8  10  -1   11.20    4.00
   8 -10   0   11.30    2.10
   8 -10   0   12.20    2.10
  -8  10   0   11.40    2.70
  -8  10   0    2.90    2.50
   8 -10  -1   19.70    2.80
   8 -10  -1   24.40    2.60
   8 -10  -1   16.20    2.80
   8 -10  -1   15.90    3.20
  -8  10   1   17.80    2.60
  -8  10   1   16.30    2.70
  -8  10   1   17.90    3.70
  -8  10   1   16.30    3.30
   8 -10  -2   64.19    4.50
   8 -10  -2   66.49    6.60
   8 -10  -2   71.09    4.90
  -8  10   2   58.69    4.60
  -8  10   2   61.19    6.40
  -8  10   2   66.49    5.30
   8 -10  -3   19.20    4.30
   8 -10  -3   19.80    3.60
   8 -10  -3   26.00    3.40
  -8  10   3   23.00    3.80
  -8  10   3   18.80    4.10
  -8  10   3   28.70    4.50
   8 -10  -4    1.10    2.20
   8 -10  -4    0.20    2.30
  -8  10   4   -2.90    2.20
  -8  10   4    0.30    2.80
   7 -10   4   -0.50    2.60
   7 -10   4   -0.10    2.60
   7 -10   4   -1.60    2.10
  -7  10  -4   -2.90    3.00
  -7  10  -4    1.80    3.10
   7 -10   3   16.30    3.30
   7 -10   3   14.80    3.50
   7 -10   3   12.90    3.20
  -7  10  -3    7.30    4.10
  -7  10  -3   16.10    4.20
   7 -10   2   66.49    5.10
   7 -10   2   53.69    4.40
   7 -10   2   58.99    4.60
  -7  10  -2   67.79    7.90
  -7  10  -2   76.99    6.60
   7 -10   1   19.50    2.60
   7 -10   1   24.00    3.20
   7 -10   1   17.80    2.60
  -7  10  -1   19.40    3.20
  -7  10  -1   18.10    3.60
  -7  10  -1   21.70    4.60
   7 -10   0  250.77    9.90
   7 -10   0  234.88    9.80
  -7  10   0  227.78   12.40
  -7  10   0  243.88   11.00
   7 -10  -1   23.30    2.50
   7 -10  -1   22.80    3.10
   7 -10  -1   17.10    3.20
   7 -10  -1   20.00    2.70
  -7  10   1   19.80    3.60
  -7  10   1   19.50    2.70
  -7  10   1   19.10    2.70
  -7  10   1   20.40    3.50
   7 -10  -2   71.89    4.50
   7 -10  -2   79.99    5.10
   7 -10  -2   86.89    6.50
  -7  10   2   80.39    5.10
  -7  10   2   65.99    5.10
  -7  10   2   74.49    6.00
   7 -10  -3   13.40    4.00
   7 -10  -3   12.50    2.90
   7 -10  -3   15.70    2.80
  -7  10   3   18.80    3.70
  -7  10   3   13.20    3.50
  -7  10   3   13.20    2.90
   7 -10  -4   -0.80    2.80
   7 -10  -4    1.10    2.20
   7 -10  -4   -0.20    1.90
  -7  10   4    2.20    2.80
  -7  10   4    1.00    2.30
  -7  10   4    2.60    2.80
   6 -10   4    2.00    2.50
   6 -10   4    0.60    2.20
  -6  10  -4    3.40    3.70
  -6  10  -4    1.80    3.40
   6 -10   3    6.70    2.80
   6 -10   3    5.50    2.30
   6 -10   3   13.80    3.30
  -6  10  -3   17.30    4.80
  -6  10  -3    9.50    3.50
   6 -10   2   95.39    6.00
   6 -10   2  110.79    6.50
   6 -10   2  113.89    6.70
  -6  10  -2  116.89    8.10
  -6  10  -2  110.99    8.70
   6 -10   1   97.79    5.30
   6 -10   1   98.59    5.40
  -6  10  -1  108.09    7.00
  -6  10  -1  102.39    5.40
  -6  10  -1  109.09    8.10
   6 -10   0  110.59    5.30
   6 -10   0  101.29    5.30
   6 -10   0  104.59    5.20
   6 -10   0  107.49    5.60
  -6  10   0  114.19    6.10
  -6  10   0  102.09    5.00
  -6  10   0  107.89    7.30
  -6  10   0  113.49    6.20
  -6  10   0  102.09    4.80
   6 -10  -1  116.59    5.10
   6 -10  -1  107.49    6.30
   6 -10  -1   97.69    5.90
   6 -10  -1   97.29    5.40
  -6  10   1  111.59    6.70
  -6  10   1  100.59    5.40
  -6  10   1   93.69    6.30
  -6  10   1  111.09    5.80
   6 -10  -2  111.79    6.90
   6 -10  -2  114.49    5.80
   6 -10  -2  119.89    6.30
   6 -10  -2  109.89    7.30
  -6  10   2  106.29    6.30
  -6  10   2  114.59    6.60
  -6  10   2  122.39    7.50
   6 -10  -3   11.60    3.10
   6 -10  -3    9.60    2.20
   6 -10  -3    7.70    2.30
   6 -10  -3    6.90    3.00
  -6  10   3    8.00    2.70
  -6  10   3    3.70    2.10
  -6  10   3   11.80    2.90
   6 -10  -4    3.80    2.70
   6 -10  -4    5.00    2.40
   6 -10  -4    0.30    3.00
   6 -10  -4    2.20    2.10
  -6  10   4    2.00    2.70
  -6  10   4    6.30    2.60
  -6  10   4   -0.20    2.50
   5 -10   4    0.40    2.60
   5 -10   4   -2.00    2.30
  -5  10  -4    3.10    3.60
  -5  10  -4   -0.90    2.60
   5 -10   3    5.40    2.60
   5 -10   3    2.10    2.00
  -5  10  -3    8.30    3.70
  -5  10  -3    2.20    2.90
   5 -10   2   54.59    4.30
   5 -10   2   56.89    4.30
  -5  10  -2   60.69    6.40
  -5  10  -2   56.79    6.90
   5 -10   1  720.73   27.10
   5 -10   1  756.82   27.10
  -5  10  -1  790.02   30.60
  -5  10  -1  756.22   28.80
  -5  10  -1  787.82   27.00
   5 -10   0   58.39    3.80
   5 -10   0   64.59    3.70
   5 -10   0   61.19    4.10
   5 -10   0   66.59    3.70
  -5  10   0   66.79    3.60
  -5  10   0   66.09    3.40
  -5  10   0   60.29    4.20
  -5  10   0   75.49    5.80
  -5  10   0   68.49    4.50
   5 -10  -1  772.62   28.50
   5 -10  -1  735.93   27.70
   5 -10  -1  817.22   29.00
   5 -10  -1  833.12   27.20
  -5  10   1  782.92   27.70
  -5  10   1  722.23   28.80
  -5  10   1  794.42   28.00
  -5  10   1  786.72   29.00
   5 -10  -2   59.89    3.90
   5 -10  -2   56.59    5.40
   5 -10  -2   60.59    6.00
   5 -10  -2   66.09    4.40
  -5  10   2   59.09    5.10
  -5  10   2   62.59    4.40
  -5  10   2   71.69    4.80
  -5  10   2   58.99    4.20
   5 -10  -3    4.00    1.70
   5 -10  -3    4.60    1.90
   5 -10  -3    2.70    2.40
   5 -10  -3    0.70    2.50
  -5  10   3    5.20    2.30
  -5  10   3    5.50    2.30
  -5  10   3    4.10    2.10
   5 -10  -4   -0.20    2.20
   5 -10  -4   -0.50    2.20
   5 -10  -4    4.70    3.30
  -5  10   4    3.30    2.50
  -5  10   4    1.70    2.10
  -5  10   4    2.80    2.40
   4 -10   4    7.00    3.00
   4 -10   4    4.10    2.90
  -4  10  -4    4.50    3.30
  -4  10  -4    7.50    3.50
   4 -10   3    3.20    2.10
   4 -10   3    0.50    1.60
  -4  10  -3    7.60    3.40
  -4  10  -3    4.80    2.90
   4 -10   2   61.79    4.50
   4 -10   2   65.69    4.60
  -4  10  -2   61.99    7.00
  -4  10  -2   69.09    5.90
   4 -10   1   78.69    4.40
   4 -10   1   77.89    4.40
  -4  10  -1   82.39    4.10
  -4  10  -1   82.39    5.60
  -4  10  -1   77.99    7.30
   4 -10   0   42.30    3.10
   4 -10   0   45.00    2.80
   4 -10   0   48.00    2.90
   4 -10   0   42.50    3.30
  -4  10   0   39.60    2.70
  -4  10   0   41.80    2.60
  -4  10   0   34.30    4.30
  -4  10   0   42.20    3.50
  -4  10   0   40.00    3.20
   4 -10  -1   80.49    4.50
   4 -10  -1   91.29    5.50
   4 -10  -1   91.19    4.10
   4 -10  -1   88.19    5.20
  -4  10   1   82.39    4.80
  -4  10   1   81.49    5.30
  -4  10   1   91.89    4.70
  -4  10   1   85.39    5.40
   4 -10  -2   68.29    5.30
   4 -10  -2   67.49    3.80
   4 -10  -2   61.49    4.20
   4 -10  -2   63.99    4.90
  -4  10   2   60.89    4.50
  -4  10   2   67.89    4.30
  -4  10   2   58.69    4.90
  -4  10   2   68.69    4.40
   4 -10  -3    2.90    2.40
   4 -10  -3    0.50    2.20
   4 -10  -3    5.50    1.80
   4 -10  -3    1.00    1.80
  -4  10   3    3.20    2.40
  -4  10   3    6.00    2.20
  -4  10   3    5.50    2.00
   4 -10  -4    5.00    3.30
   4 -10  -4   -1.10    2.10
   4 -10  -4    5.70    2.40
  -4  10   4    4.30    2.60
  -4  10   4    8.60    2.70
  -4  10   4    7.40    3.20
   3 -10   4    6.20    2.70
   3 -10   4    9.90    3.10
  -3  10  -4    8.40    3.60
  -3  10  -4    9.80    3.80
   3 -10   3   39.70    4.50
   3 -10   3   41.80    4.70
  -3  10  -3   34.50    5.60
  -3  10  -3   45.30    6.10
   3 -10   2  136.09    7.00
   3 -10   2  143.49    7.20
  -3  10  -2  137.19    8.50
  -3  10  -2  142.79    9.10
   3 -10   1  117.09    5.40
   3 -10   1  116.69    5.60
   3 -10   1  105.09    5.50
   3 -10   1  116.39    5.60
  -3  10  -1  121.09    5.20
  -3  10  -1  119.49    7.60
  -3  10  -1  121.19    6.90
   3 -10   0  426.26   16.60
   3 -10   0  447.96   15.60
   3 -10   0  445.66   15.70
   3 -10   0  423.56   16.30
  -3  10   0  432.26   16.30
  -3  10   0  423.66   15.70
  -3  10   0  431.46   15.60
  -3  10   0  440.36   16.80
  -3  10   0  428.96   17.80
   3 -10  -1  106.29    5.50
   3 -10  -1  126.49    6.40
   3 -10  -1  112.39    6.50
   3 -10  -1  126.79    5.00
  -3  10   1  127.59    6.00
  -3  10   1  124.59    5.60
  -3  10   1  118.39    6.40
  -3  10   1  125.49    5.70
  -3  10   1  114.29    6.20
   3 -10  -2  139.29    8.00
   3 -10  -2  149.88    6.80
   3 -10  -2  134.59    7.60
   3 -10  -2  134.39    6.00
  -3  10   2  141.19    7.20
  -3  10   2  147.99    7.00
  -3  10   2  135.19    7.60
  -3  10   2  134.99    6.80
   3 -10  -3   41.70    5.10
   3 -10  -3   54.79    4.20
   3 -10  -3   43.10    4.40
   3 -10  -3   51.79    5.80
  -3  10   3   47.60    4.60
  -3  10   3   50.69    5.00
  -3  10   3   49.80    5.40
   3 -10  -4    9.50    2.80
   3 -10  -4    7.50    3.40
   3 -10  -4    2.10    2.40
  -3  10   4   11.70    2.90
  -3  10   4    9.70    3.40
  -3  10   4    4.80    2.50
   2 -10   4    9.20    3.00
   2 -10   4    7.10    2.90
  -2  10  -4   17.00    4.50
  -2  10  -4   15.90    4.40
   2 -10   3   88.49    6.00
   2 -10   3   79.49    5.70
  -2  10  -3   76.39    7.80
  -2  10  -3   76.39    7.80
   2 -10   2   18.30    2.70
   2 -10   2   23.00    3.00
  -2  10  -2   17.70    3.50
  -2  10  -2   24.90    4.20
   2 -10   1  258.17   10.10
   2 -10   1  247.28   10.00
   2 -10   1  250.07   10.10
   2 -10   1  249.97   10.30
  -2  10  -1  259.47    9.50
  -2  10  -1  246.08   11.50
  -2  10  -1  248.48   12.10
   2 -10   0  121.79    6.60
   2 -10   0  148.09    5.90
   2 -10   0  142.69    5.70
   2 -10   0  129.19    6.50
  -2  10   0  131.19    6.70
  -2  10   0  136.99    5.80
  -2  10   0  130.39    6.20
  -2  10   0  148.69    7.60
   2 -10  -1  260.77   11.10
   2 -10  -1  239.68   10.00
   2 -10  -1  246.78   11.30
   2 -10  -1  278.17    9.40
  -2  10   1  254.57   11.00
  -2  10   1  253.17   11.00
  -2  10   1  260.37   10.10
  -2  10   1  269.17   10.40
  -2  10   1  260.77   10.50
   2 -10  -2   17.40    1.80
   2 -10  -2   22.30    3.50
   2 -10  -2   19.50    3.10
   2 -10  -2   16.50    2.30
  -2  10   2   20.00    2.80
  -2  10   2   18.20    2.60
  -2  10   2   18.60    2.50
  -2  10   2   16.90    2.80
   2 -10  -3   82.39    6.10
   2 -10  -3   86.39    6.60
   2 -10  -3   91.39    5.30
  -2  10   3   86.39    6.20
  -2  10   3   80.39    5.70
  -2  10   3   71.69    4.80
  -2  10   3   94.19    5.60
   2 -10  -4    4.50    2.90
   2 -10  -4    9.90    3.80
   2 -10  -4   10.90    2.90
  -2  10   4   12.10    3.00
  -2  10   4   10.70    2.90
  -2  10   4    9.60    2.90
   1 -10   4    3.50    2.60
   1 -10   4    5.20    2.60
  -1  10  -4    1.90    2.60
  -1  10  -4    0.80    2.30
  -1  10  -4    4.80    2.70
   1 -10   3   33.80    4.20
   1 -10   3   42.00    4.80
  -1  10  -3   32.10    5.00
  -1  10  -3   36.40    5.10
   1 -10   2   67.19    4.40
   1 -10   2   62.39    3.70
   1 -10   2   70.19    4.50
  -1  10  -2   68.99    5.60
  -1  10  -2   68.39    5.60
   1 -10   1  243.78    9.80
   1 -10   1  249.68   10.00
   1 -10   1  243.18    9.60
   1 -10   1  233.58   10.00
   1 -10   1  245.38    9.80
  -1  10  -1  243.38   11.10
  -1  10  -1  237.08    9.00
  -1  10  -1  227.18   11.30
   1 -10   0  713.83   23.60
   1 -10   0  626.84   24.50
   1 -10   0  666.43   25.00
   1 -10   0  652.43   23.20
  -1  10   0  685.23   24.80
  -1  10   0  691.53   24.20
  -1  10   0  698.03   25.40
   1 -10  -1  226.68   11.00
   1 -10  -1  276.17    9.00
   1 -10  -1  241.88   10.80
   1 -10  -1  251.77    9.70
  -1  10   1  255.07   10.00
  -1  10   1  240.38   10.60
  -1  10   1  222.38   10.40
  -1  10   1  262.67   10.30
  -1  10   1  257.07    9.90
   1 -10  -2   73.29    5.00
   1 -10  -2   67.79    3.90
   1 -10  -2   65.29    5.10
  -1  10   2   66.39    4.80
  -1  10   2   54.59    3.90
  -1  10   2   71.29    4.50
  -1  10   2   69.89    4.20
   1 -10  -3   41.80    4.90
   1 -10  -3   40.60    5.10
   1 -10  -3   39.90    3.90
  -1  10   3   38.10    3.90
  -1  10   3   34.70    4.60
  -1  10   3   38.40    3.80
  -1  10   3   32.60    4.00
   1 -10  -4    2.20    2.10
   1 -10  -4    1.00    2.40
   1 -10  -4    3.70    3.10
  -1  10   4    1.70    2.10
  -1  10   4    6.50    2.50
  -1  10   4    2.50    2.40
   0  10  -5    1.50    3.20
   0 -10   4   51.09    5.80
   0 -10   4   68.39    6.60
   0  10  -4   51.89    6.10
   0  10  -4   48.30    6.80
   0 -10   3    2.80    2.00
   0 -10   3    4.00    2.10
   0  10  -3    2.40    2.00
   0  10  -3    3.20    2.10
   0  10  -3    1.00    2.20
   0 -10   2   17.20    2.60
   0 -10   2   18.60    2.10
   0 -10   2   19.80    2.40
   0 -10   2   14.50    2.30
   0  10  -2   13.10    3.00
   0  10  -2   15.50    3.10
   0 -10   1   25.00    3.00
   0 -10   1   26.20    2.70
   0 -10   1   24.20    2.40
   0 -10   1   22.40    2.40
   0 -10   1   24.40    2.90
   0  10  -1   21.60    1.80
   0  10  -1   22.40    3.20
   0  10  -1   26.50    3.50
   0 -10   0  514.25   20.70
   0 -10   0  574.04   19.20
   0 -10   0  539.85   20.40
   0 -10   0  538.15   21.00
   0 -10   0  517.55   18.80
   0  10   0  543.25   20.70
   0  10   0  555.84   19.80
   0  10   0  568.14   20.60
   0 -10  -1   22.30    1.80
   0 -10  -1   24.80    3.30
   0 -10  -1   24.50    1.30
   0 -10  -1   21.70    3.00
   0  10   1   16.50    2.40
   0  10   1   26.40    2.70
   0  10   1   25.00    2.50
   0  10   1   27.30    2.60
   0  10   1   21.30    2.70
   0 -10  -2   18.80    3.30
   0 -10  -2   19.70    2.30
   0 -10  -2   12.60    2.60
   0  10   2   13.60    2.20
   0  10   2   19.60    2.70
   0  10   2   12.80    1.80
   0  10   2   14.20    2.60
   0  10   2   14.80    2.30
   0 -10  -3    1.80    1.50
   0 -10  -3    3.40    2.40
   0 -10  -3    2.60    2.00
   0  10   3    7.20    2.10
   0  10   3    3.40    2.20
   0  10   3    3.20    1.60
   0  10   3    3.10    1.80
   0 -10  -4   62.79    8.40
   0 -10  -4   58.39    6.40
   0 -10  -4   66.69    4.90
   0 -10  -4   54.69    7.10
   0  10   4   64.69    5.00
   0  10   4   46.50    5.60
   0  10   4   70.79    5.70
  -1 -10   4    1.80    2.40
  -1 -10   4    4.90    2.70
   1  10  -4   -1.20    2.40
   1  10  -4    3.10    2.70
  -1 -10   3   38.90    3.90
  -1 -10   3   38.70    4.40
  -1 -10   3   39.90    4.10
  -1 -10   3   31.60    4.00
   1  10  -3   37.60    5.00
   1  10  -3   32.40    5.00
   1  10  -3   40.40    4.80
  -1 -10   2   61.49    4.20
  -1 -10   2   63.29    4.00
  -1 -10   2   58.39    4.00
  -1 -10   2   66.39    3.80
   1  10  -2   59.79    4.30
   1  10  -2   65.89    5.40
   1  10  -2   63.79    4.90
  -1 -10   1  231.08    9.50
  -1 -10   1  243.58   10.00
  -1 -10   1  259.27   10.50
  -1 -10   1  236.28    9.80
  -1 -10   1  246.38   10.80
   1  10  -1  246.78    9.30
   1  10  -1  236.58   10.90
   1  10  -1  254.67   11.30
  -1 -10   0  656.63   25.60
  -1 -10   0  644.64   22.90
  -1 -10   0  669.53   24.90
  -1 -10   0  719.63   23.50
  -1 -10   0  628.34   25.10
   1  10   0  683.13   24.80
   1  10   0  699.43   24.20
   1  10   0  687.43   24.90
  -1 -10  -1  245.38   11.90
  -1 -10  -1  236.08   11.10
  -1 -10  -1  230.68   10.70
  -1 -10  -1  250.67    9.10
   1  10   1  238.98   10.20
   1  10   1  232.28    9.70
   1  10   1  248.78    9.90
   1  10   1  242.08   10.30
  -1 -10  -2   62.59    4.80
  -1 -10  -2   52.89    6.30
  -1 -10  -2   67.49    3.60
  -1 -10  -2   67.89    5.10
   1  10   2   60.09    4.10
   1  10   2   70.79    4.20
   1  10   2   61.69    4.20
   1  10   2   58.49    4.50
  -1 -10  -3   35.10    3.40
  -1 -10  -3   30.70    4.60
  -1 -10  -3   33.60    5.70
  -1 -10  -3   31.10    4.20
   1  10   3   37.20    3.80
   1  10   3   37.90    4.10
   1  10   3   37.00    3.90
   1  10   3   31.90    4.30
  -1 -10  -4    2.10    2.60
  -1 -10  -4    2.40    3.50
  -1 -10  -4    0.70    2.30
   1  10   4    4.10    2.30
   1  10   4    2.00    2.10
   1  10   4    4.60    2.40
  -2 -10   4   12.80    3.30
   2  10  -4   13.50    3.80
   2  10  -4   11.50    3.30
  -2 -10   3   88.89    5.50
  -2 -10   3   85.29    5.90
  -2 -10   3   91.29    5.90
  -2 -10   3   82.69    5.20
   2  10  -3   93.29    7.10
   2  10  -3   76.89    5.80
   2  10  -3   89.49    6.20
  -2 -10   2   23.10    2.60
  -2 -10   2   28.70    3.20
  -2 -10   2   19.80    2.70
  -2 -10   2   20.70    2.70
   2  10  -2   16.20    2.90
   2  10  -2   16.20    3.30
   2  10  -2   18.30    2.70
  -2 -10   1  257.27   11.60
  -2 -10   1  259.67   10.50
  -2 -10   1  251.37   10.10
  -2 -10   1  250.07   10.70
  -2 -10   1  238.28    9.70
   2  10  -1  262.97   11.60
   2  10  -1  240.48   10.00
   2  10  -1  266.47   11.10
  -2 -10   0  137.89    7.00
  -2 -10   0  129.09    7.80
  -2 -10   0  146.29    5.70
  -2 -10   0  137.59    7.40
  -2 -10   0  134.09    5.10
   2  10   0  132.89    5.20
   2  10   0  126.29    6.60
   2  10   0  134.79    6.90
   2  10   0  142.39    6.40
  -2 -10  -1  228.38   12.20
  -2 -10  -1  285.27    9.40
  -2 -10  -1  253.87   11.80
  -2 -10  -1  235.98   11.20
   2  10   1  250.37   10.70
   2  10   1  260.17   10.40
   2  10   1  245.98   10.80
  -2 -10  -2   19.40    4.00
  -2 -10  -2   27.40    3.60
  -2 -10  -2   19.30    2.00
  -2 -10  -2   15.60    3.10
   2  10   2   16.70    2.30
   2  10   2   20.80    2.80
   2  10   2   15.30    2.50
   2  10   2   15.70    2.40
   2  10   2   17.50    2.70
  -2 -10  -3   85.29    6.20
  -2 -10  -3   99.09    7.10
  -2 -10  -3   83.99    5.40
  -2 -10  -3   81.69    8.80
   2  10   3   90.19    6.10
   2  10   3   75.79    5.10
   2  10   3   88.19    5.60
   2  10   3   87.19    5.50
  -2 -10  -4   10.40    4.20
  -2 -10  -4   11.40    3.30
  -2 -10  -4    9.50    3.50
   2  10   4   10.30    2.60
   2  10   4   11.50    3.10
   2  10   4   12.10    2.90
   2  10   4   11.90    2.70
  -3 -10   4   15.10    3.50
  -3 -10   4    9.60    3.30
   3  10  -4    7.70    3.50
   3  10  -4    8.10    3.00
  -3 -10   3   41.20    4.40
  -3 -10   3   46.40    4.40
  -3 -10   3   45.90    4.80
  -3 -10   3   41.30    4.70
   3  10  -3   50.09    5.20
   3  10  -3   49.70    5.90
  -3 -10   2  142.49    6.90
  -3 -10   2  142.99    7.10
  -3 -10   2  138.89    7.10
  -3 -10   2  142.59    6.80
   3  10  -2  137.39    8.20
   3  10  -2  132.29    7.00
   3  10  -2  127.69    7.10
  -3 -10   1  112.59    5.80
  -3 -10   1  114.69    5.20
  -3 -10   1  116.79    5.60
  -3 -10   1  115.69    6.20
  -3 -10   1  113.89    7.20
   3  10  -1  115.79    6.10
   3  10  -1  122.09    6.90
   3  10  -1  110.49    5.30
  -3 -10   0  448.46   15.60
  -3 -10   0  439.96   18.80
  -3 -10   0  441.36   17.40
  -3 -10   0  438.86   17.70
   3  10   0  438.46   16.90
   3  10   0  430.66   17.10
   3  10   0  429.66   16.60
  -3 -10  -1  120.29    8.20
  -3 -10  -1  134.69    5.00
  -3 -10  -1  115.39    7.20
  -3 -10  -1  124.99    7.10
   3  10   1  127.89    6.40
   3  10   1  123.69    6.50
   3  10   1  117.39    6.10
  -3 -10  -2  142.59    8.40
  -3 -10  -2  133.49    9.20
  -3 -10  -2  136.69    7.70
   3  10   2  137.29    7.10
   3  10   2  135.39    7.30
   3  10   2  129.29    6.60
   3  10   2  133.59    6.80
  -3 -10  -3   36.90    4.90
  -3 -10  -3   49.10    7.20
  -3 -10  -3   47.90    5.80
   3  10   3   45.20    4.30
   3  10   3   51.09    5.00
   3  10   3   44.80    4.50
   3  10   3   40.10    4.80
   3  10   3   45.10    3.80
  -3 -10  -4    7.60    3.30
  -3 -10  -4    8.50    3.10
  -3 -10  -4    6.90    4.00
   3  10   4    7.80    2.70
   3  10   4    6.80    2.60
   3  10   4    9.40    2.60
   3  10   4    9.80    2.80
  -4 -10   4    7.40    2.90
  -4 -10   4    5.00    2.70
  -4 -10   4    4.10    3.00
  -4 -10   4    7.70    2.60
   4  10  -4    4.90    2.70
   4  10  -4    3.40    3.00
  -4 -10   3    2.30    2.10
  -4 -10   3    2.50    1.90
  -4 -10   3    2.90    2.20
  -4 -10   3    6.70    2.20
   4  10  -3    4.90    2.80
   4  10  -3    3.30    2.00
  -4 -10   2   66.49    4.40
  -4 -10   2   54.39    4.20
  -4 -10   2   68.99    4.70
  -4 -10   2   65.89    4.30
   4  10  -2   57.19    4.20
   4  10  -2   68.49    4.60
   4  10  -2   57.19    5.90
  -4 -10   1   79.29    4.40
  -4 -10   1   80.79    4.10
  -4 -10   1   87.29    4.90
  -4 -10   1   92.89    5.30
  -4 -10   1   75.59    6.10
   4  10  -1   89.09    5.00
   4  10  -1   78.79    4.20
   4  10  -1   78.29    5.50
  -4 -10   0   35.70    4.10
  -4 -10   0   42.80    4.20
  -4 -10   0   42.10    2.50
  -4 -10   0   47.00    5.70
   4  10   0   49.80    3.50
   4  10   0   43.60    3.60
   4  10   0   39.80    3.20
  -4 -10  -1   95.99    7.30
  -4 -10  -1   79.49    6.10
  -4 -10  -1   75.39    5.50
   4  10   1   86.49    4.90
   4  10   1   84.59    5.10
   4  10   1   81.99    5.10
  -4 -10  -2   66.39    6.50
  -4 -10  -2   65.19    7.70
  -4 -10  -2   60.89    5.90
   4  10   2   65.29    4.90
   4  10   2   60.79    4.50
   4  10   2   66.29    4.70
  -4 -10  -3    8.70    2.80
  -4 -10  -3    3.50    2.70
  -4 -10  -3    7.10    2.90
   4  10   3    3.20    1.90
   4  10   3    5.70    2.00
   4  10   3    4.10    1.90
   4  10   3    4.30    2.10
  -4 -10  -4    8.10    3.10
  -4 -10  -4    4.10    3.30
  -4 -10  -4    4.90    4.00
   4  10   4    9.20    3.00
   4  10   4    5.20    2.20
   4  10   4    9.50    3.00
   4  10   4   10.90    3.00
  -5 -10   4    1.10    2.60
  -5 -10   4   -0.10    2.10
  -5 -10   4    1.90    2.70
  -5 -10   4   -2.20    2.50
   5  10  -4    2.20    3.10
   5  10  -4   -3.20    1.90
  -5 -10   3    3.20    2.10
  -5 -10   3    7.70    2.70
  -5 -10   3    5.90    2.20
  -5 -10   3    3.80    2.10
   5  10  -3    7.30    2.80
   5  10  -3    4.60    2.30
  -5 -10   2   64.69    4.60
  -5 -10   2   66.09    4.60
  -5 -10   2   65.29    4.80
  -5 -10   2   62.49    4.20
   5  10  -2   55.39    4.30
   5  10  -2   64.49    6.40
   5  10  -2   66.89    4.50
  -5 -10   1  794.02   27.90
  -5 -10   1  726.83   30.10
  -5 -10   1  749.42   27.10
  -5 -10   1  777.42   28.20
   5  10  -1  800.12   27.80
   5  10  -1  736.43   26.80
   5  10  -1  788.02   29.00
  -5 -10   0   68.79    4.70
  -5 -10   0   61.69    4.80
  -5 -10   0   60.99    7.10
   5  10   0   67.59    4.50
   5  10   0   57.49    4.10
  -5 -10  -1  737.93   29.30
  -5 -10  -1  773.12   28.90
  -5 -10  -1  727.03   31.30
   5  10   1  775.32   28.00
   5  10   1  770.72   28.40
   5  10   1  784.42   27.90
  -5 -10  -2   60.69    7.90
  -5 -10  -2   56.19    5.80
  -5 -10  -2   57.49    6.20
   5  10   2   58.39    4.40
   5  10   2   56.19    4.60
   5  10   2   55.99    4.80
  -5 -10  -3    3.40    3.40
  -5 -10  -3    9.30    3.30
  -5 -10  -3    7.70    2.70
   5  10   3    6.80    2.50
   5  10   3    7.20    2.10
   5  10   3    2.00    2.10
   5  10   3    5.40    2.20
  -5 -10  -4    4.00    2.60
  -5 -10  -4    1.70    2.90
  -5 -10  -4    0.00    3.50
   5  10   4    1.00    2.00
   5  10   4   -0.30    2.10
   5  10   4    4.80    2.50
  -6 -10   4    1.60    2.90
  -6 -10   4    3.60    2.80
  -6 -10   4   -2.90    2.30
  -6 -10   4    6.40    3.20
   6  10  -4    3.20    2.60
   6  10  -4    3.00    3.10
  -6 -10   3   13.70    3.00
  -6 -10   3   11.50    3.10
  -6 -10   3    9.40    2.70
  -6 -10   3    9.90    3.20
   6  10  -3    5.60    2.70
   6  10  -3   11.20    2.90
  -6 -10   2  122.89    7.10
  -6 -10   2  119.49    6.20
  -6 -10   2  125.49    6.70
  -6 -10   2  104.99    6.20
   6  10  -2  108.79    7.40
   6  10  -2  112.29    6.30
   6  10  -2  110.29    6.60
  -6 -10   1  109.29    5.50
  -6 -10   1   97.29    7.90
  -6 -10   1  109.59    6.40
  -6 -10   1  114.79    6.20
   6  10  -1  119.19    6.10
   6  10  -1  102.89    6.50
  -6 -10   0  106.59    6.50
  -6 -10   0  109.39    6.20
  -6 -10   0   97.89    8.20
   6  10   0  104.79    5.90
   6  10   0  109.29    6.20
  -6 -10  -1  104.39    6.70
  -6 -10  -1  123.49    9.40
  -6 -10  -1  103.99    7.10
   6  10   1  111.19    6.60
   6  10   1  106.29    6.20
   6  10   1  107.99    6.20
  -6 -10  -2  104.99    7.60
  -6 -10  -2  117.89    9.40
  -6 -10  -2  103.19    7.10
   6  10   2  106.89    6.50
   6  10   2  109.39    6.80
   6  10   2   98.79    6.30
  -6 -10  -3    8.40    2.90
  -6 -10  -3    8.40    4.30
  -6 -10  -3   13.30    4.00
   6  10   3    8.00    2.70
   6  10   3    8.10    3.00
   6  10   3    5.30    2.40
  -6 -10  -4    3.60    3.30
  -6 -10  -4    7.70    4.90
  -6 -10  -4    3.50    3.30
  -6 -10  -4    5.60    3.60
   6  10   4    5.20    2.90
   6  10   4    2.30    2.60
   6  10   4    5.00    2.90
  -7 -10   4   -1.00    2.80
  -7 -10   4    3.90    2.90
  -7 -10   4    0.80    2.80
  -7 -10   4    4.20    2.90
   7  10  -4    1.20    2.60
   7  10  -4    4.50    3.20
   7  10  -4    0.80    2.50
  -7 -10   3   14.30    3.40
  -7 -10   3   17.20    3.40
  -7 -10   3   18.30    3.60
  -7 -10   3   14.50    3.10
   7  10  -3    8.70    3.20
   7  10  -3   12.20    2.90
  -7 -10   2   76.99    5.00
  -7 -10   2   73.19    5.20
  -7 -10   2   69.19    5.40
   7  10  -2   71.09    4.80
   7  10  -2   60.59    6.30
  -7 -10   1   24.40    3.30
  -7 -10   1   16.60    2.90
  -7 -10   1   19.70    4.40
   7  10  -1   18.50    2.70
   7  10  -1   18.00    3.10
  -7 -10   0  222.88   13.80
  -7 -10   0  249.48   10.90
  -7 -10   0  237.78   11.20
   7  10   0  240.28   10.70
   7  10   0  241.48   10.80
  -7 -10  -1   17.80    3.50
  -7 -10  -1   17.90    3.30
  -7 -10  -1   19.20    5.20
   7  10   1   24.00    3.40
   7  10   1   16.10    3.00
  -7 -10  -2   57.59    8.40
  -7 -10  -2   78.59    6.00
  -7 -10  -2   71.39    7.10
   7  10   2   71.69    5.40
   7  10   2   72.89    5.40
   7  10   2   64.79    5.50
  -7 -10  -3    7.70    4.80
  -7 -10  -3   14.40    3.60
  -7 -10  -3   26.70    5.10
   7  10   3   15.70    3.30
   7  10   3   18.90    3.70
   7  10   3   11.70    3.30
  -7 -10  -4   -1.30    2.70
  -7 -10  -4    3.90    3.40
  -7 -10  -4    2.10    3.40
  -7 -10  -4    6.50    4.70
   7  10   4    2.30    2.70
   7  10   4    0.20    2.40
   7  10   4    1.90    2.80
  -8 -10   4    1.20    2.80
  -8 -10   4   -2.80    2.40
  -8 -10   4    2.60    3.10
   8  10  -4   -1.20    2.20
   8  10  -4    0.70    2.50
   8  10  -4    1.10    2.80
  -8 -10   3   20.40    3.60
  -8 -10   3   25.70    4.50
  -8 -10   3   30.70    4.60
   8  10  -3   20.20    3.60
   8  10  -3   27.30    4.70
  -8 -10   2   61.29    5.60
  -8 -10   2   60.29    5.90
  -8 -10   2   56.49    6.40
   8  10  -2   62.29    4.50
   8  10  -2   63.59    5.50
  -8 -10   1   20.20    4.60
  -8 -10   1   11.20    2.80
  -8 -10   1   18.50    3.00
   8  10  -1   20.00    3.20
   8  10  -1   17.10    2.80
  -8 -10   0    6.20    2.10
  -8 -10   0    7.20    2.40
  -8 -10   0    9.60    4.10
   8  10   0   10.30    2.60
   8  10   0    7.70    2.20
  -8 -10  -1    9.20    4.40
  -8 -10  -1   17.60    3.60
  -8 -10  -1   16.90    3.20
   8  10   1   17.40    3.20
   8  10   1   24.40    3.60
  -8 -10  -2   62.39    6.80
  -8 -10  -2   56.99    6.10
  -8 -10  -2   49.50    8.20
   8  10   2   69.29    5.50
   8  10   2   63.59    6.00
  -8 -10  -3   17.90    4.10
  -8 -10  -3   24.60    5.00
  -8 -10  -3   26.50    6.90
   8  10   3   29.20    4.50
   8  10   3   26.70    4.50
   8  10   3   18.10    3.90
  -8 -10  -4    0.60    3.70
  -8 -10  -4   -1.00    4.40
   8  10   4    1.90    2.60
   8  10   4    1.00    2.90
   8  10   4   -2.60    2.30
  -9 -10   3    1.30    2.70
  -9 -10   3    6.40    2.90
   9  10  -3    2.10    2.50
   9  10  -3    2.10    2.50
  -9 -10   2    7.80    2.70
  -9 -10   2    9.30    2.70
  -9 -10   2    8.00    3.40
   9  10  -2   10.90    3.10
  -9 -10   1   -1.50    1.60
  -9 -10   1    0.90    1.80
  -9 -10   1   -1.90    2.40
   9  10  -1   -1.10    1.50
   9  10  -1    2.10    1.90
  -9 -10   0    3.70    1.90
  -9 -10   0    6.10    2.00
  -9 -10   0    2.40    3.40
   9  10   0    6.00    2.10
   9  10   0    1.20    1.70
  -9 -10  -1   -1.40    3.00
  -9 -10  -1    0.90    1.80
  -9 -10  -1    0.30    1.50
   9  10   1    1.80    1.80
   9  10   1    1.00    1.90
  -9 -10  -2    7.50    3.10
  -9 -10  -2    8.20    4.70
  -9 -10  -2    7.60    2.80
   9  10   2    5.40    2.70
   9  10   2    6.60    2.70
  -9 -10  -3   -1.90    3.60
  -9 -10  -3   -0.60    2.50
  -9 -10  -3    0.70    2.90
   9  10   3    1.20    2.70
   9  10   3    2.40    2.40
 -10 -10   3    3.40    3.00
 -10 -10   3    3.00    3.00
  10  10  -3   10.20    3.40
 -10 -10   2    4.20    2.60
 -10 -10   2    2.50    2.60
 -10 -10   2    5.20    3.50
  10  10  -2   10.30    2.90
 -10 -10   1   11.30    2.80
 -10 -10   1   12.10    3.30
 -10 -10   1    5.60    3.30
  10  10  -1    8.40    2.60
 -10 -10   0    2.00    3.40
 -10 -10   0   -0.70    1.40
 -10 -10   0    0.50    1.90
  10  10   0    2.40    2.00
  10  10   0   -0.80    1.70
 -10 -10  -1    3.20    3.90
 -10 -10  -1    7.20    2.60
 -10 -10  -1    8.40    2.50
  10  10   1    7.00    2.50
  10  10   1   14.60    3.30
 -10 -10  -2    8.10    4.50
 -10 -10  -2    2.20    2.10
 -10 -10  -2    3.00    2.90
  10  10   2    4.50    2.70
  10  10   2    9.10    3.10
 -10 -10  -3   11.30    6.00
 -10 -10  -3   18.90    6.00
 -10 -10  -3   11.10    5.60
  10  10   3   15.50    4.20
  10  10   3   14.90    3.70
 -11 -10   3    7.20    3.30
  11  10  -3    4.60    3.00
 -11 -10   2   34.10    4.90
 -11 -10   2   28.70    4.70
 -11 -10   2   30.10    5.50
  11  10  -2   29.80    4.50
 -11 -10   1   58.89    8.10
 -11 -10   1   40.00    4.90
 -11 -10   1   61.99    6.20
  11  10  -1   45.60    5.20
 -11 -10   0   20.20    3.40
 -11 -10   0   15.80    5.50
 -11 -10   0   17.90    3.60
  11  10   0   17.00    3.30
  11  10   0   16.10    3.40
 -11 -10  -1   48.80    5.50
 -11 -10  -1   56.09    9.10
 -11 -10  -1   39.20    4.70
  11  10   1   61.89    6.10
  11  10   1   53.59    6.00
 -11 -10  -2   31.40    7.80
 -11 -10  -2   24.60    4.40
 -11 -10  -2   33.60    4.80
  11  10   2   30.80    5.10
  11  10   2   42.60    5.60
 -11 -10  -3    4.10    5.40
 -11 -10  -3    0.80    3.70
  11  10   3    1.70    2.70
  11  10   3    0.60    2.60
 -12 -10   2    8.30    3.50
 -12 -10   2   15.70    4.70
 -12 -10   2   13.20    3.60
  12  10  -2    9.80    3.30
 -12 -10   1    8.50    2.80
 -12 -10   1    2.50    2.60
 -12 -10   1    1.60    3.30
  12  10  -1    7.60    3.00
 -12 -10   0   -1.30    2.10
 -12 -10   0   -0.70    3.70
 -12 -10   0   -2.10    1.60
  12  10   0    1.50    2.60
  12  10   0   -0.10    2.30
 -12 -10  -1    7.80    2.80
 -12 -10  -1    5.20    2.70
 -12 -10  -1    7.70    5.10
  12  10   1    4.80    3.10
  12  10   1    3.90    2.90
 -12 -10  -2    8.00    3.50
 -12 -10  -2    6.30    2.70
 -12 -10  -2   10.00    5.60
 -12 -10  -2    0.00    3.30
  12  10   2    7.30    3.50
  12  10   2   10.80    3.70
 -13 -10   1   23.80    4.50
 -13 -10   1   19.80    5.70
 -13 -10   1   24.50    4.60
  13  10  -1   19.50    4.00
 -13 -10   0   18.40    4.00
 -13 -10   0   11.90    3.30
 -13 -10   0    2.00    4.10
  13  10   0    6.70    3.40
 -13 -10  -1   16.50    3.80
 -13 -10  -1   13.40    3.60
 -13 -10  -1   23.40    6.60
 -13 -10  -1   18.30    6.80
  13  10   1   23.70    4.90
  13  10   1   22.00    4.30
  13 -11   1   14.20    3.30
  13 -11   1   17.30    3.30
 -13  11  -1   22.10    6.60
  13 -11   0    0.10    1.60
  13 -11   0   -3.10    1.70
 -13  11   0    1.60    3.40
  13 -11  -1   22.00    3.70
  13 -11  -1   27.70    4.00
 -13  11   1   21.60    5.20
  12 -11   2   10.30    3.10
  12 -11   2    3.80    2.60
 -12  11  -2    4.10    4.00
  12 -11   1    9.90    2.90
  12 -11   1    7.10    2.30
 -12  11  -1    1.10    4.40
  12 -11   0    3.40    2.10
  12 -11   0    3.30    1.80
 -12  11   0    4.60    2.90
  12 -11  -1    9.50    2.60
  12 -11  -1   11.20    2.80
 -12  11   1    3.60    3.00
  12 -11  -2   19.20    3.40
  12 -11  -2   17.00    3.40
 -12  11   2   12.60    4.40
  11 -11   2   10.30    3.30
  11 -11   2    5.70    2.50
  11 -11   2   10.40    3.20
 -11  11  -2    9.50    5.00
 -11  11  -2    4.10    3.50
  11 -11   1   11.60    2.60
  11 -11   1    8.10    2.50
 -11  11  -1    7.10    4.30
  11 -11   0   14.50    2.60
  11 -11   0   20.10    3.30
 -11  11   0   17.50    4.90
 -11  11   0   19.40    4.20
  11 -11  -1    8.20    2.50
  11 -11  -1   10.90    2.60
 -11  11   1    6.70    3.30
  11 -11  -2    6.40    2.80
  11 -11  -2    7.30    2.40
 -11  11   2   10.30    4.00
 -11  11   2   11.70    3.80
  10 -11   3    8.10    3.20
  10 -11   3    6.10    3.60
  10 -11   3    7.90    3.20
 -10  11  -3    7.60    4.50
 -10  11  -3    7.10    4.50
  10 -11   2    1.50    2.10
  10 -11   2    8.90    3.10
  10 -11   2    1.10    2.00
 -10  11  -2    5.50    4.40
 -10  11  -2    3.80    3.30
  10 -11   1   55.69    4.40
  10 -11   1   48.00    4.20
 -10  11  -1   56.69    7.80
  10 -11   0    1.10    1.50
  10 -11   0    3.10    1.70
 -10  11   0    0.20    2.30
 -10  11   0    6.90    3.60
  10 -11  -1   66.49    4.80
  10 -11  -1   69.49    4.50
 -10  11   1   57.89    6.50
  10 -11  -2    6.10    2.30
  10 -11  -2    4.90    3.00
  10 -11  -2    7.10    2.10
 -10  11   2    9.90    2.70
 -10  11   2    7.40    2.80
 -10  11   2    3.60    3.00
  10 -11  -3    5.00    2.50
  10 -11  -3    8.40    4.10
  10 -11  -3    8.10    2.90
 -10  11   3   11.30    3.30
 -10  11   3   11.00    3.50
 -10  11   3    7.80    3.80
   9 -11   3    1.10    2.20
   9 -11   3    3.90    2.90
   9 -11   3    7.70    3.50
  -9  11  -3    0.00    3.30
  -9  11  -3    4.10    3.50
   9 -11   2   20.00    3.40
   9 -11   2   27.60    4.20
   9 -11   2   19.60    3.40
  -9  11  -2   34.50    5.80
  -9  11  -2   27.30    6.20
   9 -11   1   33.50    3.70
   9 -11   1   33.00    3.70
  -9  11  -1   35.20    6.20
   9 -11   0    2.90    1.70
   9 -11   0    5.60    1.70
  -9  11   0    3.50    2.30
  -9  11   0    6.10    3.40
   9 -11  -1   47.20    3.40
   9 -11  -1   42.10    4.20
  -9  11   1   28.90    4.60
   9 -11  -2   29.60    3.40
   9 -11  -2   30.20    4.00
   9 -11  -2   31.70    5.10
  -9  11   2   23.80    3.80
  -9  11   2   29.20    3.90
  -9  11   2   31.20    5.00
   9 -11  -3    1.30    3.40
   9 -11  -3    0.70    2.10
   9 -11  -3   -2.80    1.70
  -9  11   3    4.40    2.60
  -9  11   3    3.00    3.00
  -9  11   3    5.40    2.80
   8 -11   3   20.30    4.20
   8 -11   3   14.40    3.40
   8 -11   3   14.80    3.40
  -8  11  -3   23.70    5.50
  -8  11  -3   16.80    5.00
   8 -11   2    4.90    2.50
   8 -11   2    3.10    2.00
   8 -11   2    0.00    1.80
  -8  11  -2    6.30    3.10
  -8  11  -2    3.20    3.30
   8 -11   1    6.30    1.90
   8 -11   1    7.80    2.10
  -8  11  -1   11.10    3.20
  -8  11  -1   17.60    4.50
   8 -11   0  146.99    7.20
   8 -11   0  154.88    7.10
  -8  11   0  155.58   10.20
  -8  11   0  153.08    8.30
   8 -11  -1   12.80    2.80
   8 -11  -1   10.40    2.30
   8 -11  -1   10.30    2.80
   8 -11  -1    9.20    1.80
  -8  11   1    8.50    2.20
  -8  11   1   15.40    3.40
  -8  11   1   14.30    3.40
  -8  11   1   10.50    2.30
   8 -11  -2    3.00    1.90
   8 -11  -2    5.20    2.80
   8 -11  -2    3.70    1.90
   8 -11  -2    4.90    2.30
  -8  11   2    2.00    1.80
  -8  11   2    4.30    2.50
  -8  11   2    3.70    2.20
   8 -11  -3   11.70    3.90
   8 -11  -3   21.20    4.20
   8 -11  -3   18.60    3.20
   8 -11  -3   13.10    3.10
  -8  11   3   18.40    4.10
  -8  11   3   17.80    3.80
  -8  11   3   20.10    3.50
   7 -11   4    0.40    2.60
   7 -11   4    0.60    2.90
  -7  11  -4   -2.10    3.10
  -7  11  -4   -2.40    3.50
   7 -11   3    9.40    2.90
   7 -11   3   10.30    3.00
  -7  11  -3    7.40    3.40
  -7  11  -3    8.00    4.10
   7 -11   2   15.50    3.00
   7 -11   2   10.20    2.50
  -7  11  -2   12.30    4.00
  -7  11  -2   11.30    3.50
   7 -11   1   26.80    3.30
   7 -11   1   33.70    3.50
  -7  11  -1   29.10    5.30
  -7  11  -1   36.50    4.90
   7 -11   0    2.00    1.30
   7 -11   0    2.80    1.40
  -7  11   0    2.80    2.30
  -7  11   0   -0.20    1.50
   7 -11  -1   34.00    3.40
   7 -11  -1   30.00    3.80
   7 -11  -1   30.10    3.90
   7 -11  -1   38.00    2.90
  -7  11   1   33.30    4.40
  -7  11   1   24.30    3.20
  -7  11   1   32.80    4.40
  -7  11   1   29.40    3.30
   7 -11  -2   13.40    2.40
   7 -11  -2   12.60    3.60
   7 -11  -2   10.60    2.90
   7 -11  -2   15.30    2.60
  -7  11   2   19.80    3.10
  -7  11   2   15.10    3.60
  -7  11   2   13.20    2.90
   7 -11  -3    7.00    3.00
   7 -11  -3    1.50    1.90
   7 -11  -3    9.70    2.30
   7 -11  -3    6.60    3.40
  -7  11   3   11.30    3.10
  -7  11   3    6.20    2.40
  -7  11   3    9.20    3.30
   7 -11  -4    6.00    3.30
   7 -11  -4    4.00    2.50
  -7  11   4    0.60    2.20
  -7  11   4    2.50    2.80
   6 -11   4    1.60    2.50
   6 -11   4   -2.50    2.60
  -6  11  -4    4.10    4.30
  -6  11  -4   -1.80    2.70
   6 -11   3    0.10    1.90
   6 -11   3   -0.90    1.90
  -6  11  -3    0.70    2.80
  -6  11  -3   -1.90    2.70
   6 -11   2   40.70    4.30
   6 -11   2   46.50    4.60
  -6  11  -2   39.10    5.50
  -6  11  -2   36.60    6.00
   6 -11   1  105.69    5.70
   6 -11   1  106.49    5.80
  -6  11  -1  122.09    7.50
  -6  11  -1  103.79    8.20
   6 -11   0   52.89    3.40
   6 -11   0   57.09    5.20
   6 -11   0   54.39    3.50
  -6  11   0   57.69    6.10
  -6  11   0   48.10    3.10
  -6  11   0   58.79    4.30
  -6  11   0   47.90    3.30
   6 -11  -1  118.49    6.10
   6 -11  -1  125.69    7.20
   6 -11  -1  127.79    5.60
   6 -11  -1  108.59    6.40
  -6  11   1  116.59    7.00
  -6  11   1  106.99    5.80
  -6  11   1  112.09    7.20
  -6  11   1  119.99    6.30
   6 -11  -2   38.80    4.60
   6 -11  -2   33.70    3.70
   6 -11  -2   38.20    3.20
   6 -11  -2   47.60    5.40
  -6  11   2   49.00    5.40
  -6  11   2   41.40    4.20
  -6  11   2   44.80    4.50
   6 -11  -3    1.20    1.60
   6 -11  -3    1.60    2.30
   6 -11  -3    5.20    2.30
   6 -11  -3    2.00    2.60
  -6  11   3    4.90    2.50
  -6  11   3    2.40    2.50
  -6  11   3    2.10    2.00
   6 -11  -4   -2.00    2.90
   6 -11  -4    3.60    3.00
   6 -11  -4    3.70    2.30
  -6  11   4    4.90    2.80
  -6  11   4    2.80    2.60
  -6  11   4    0.20    2.30
   5 -11   4    3.80    2.90
   5 -11   4    4.70    2.80
  -5  11  -4    6.70    3.60
  -5  11  -4   -3.40    3.30
   5 -11   3    1.80    2.20
   5 -11   3    9.50    2.80
  -5  11  -3    5.80    3.10
  -5  11  -3   11.40    4.10
   5 -11   2  190.68    9.50
   5 -11   2  207.98    9.70
  -5  11  -2  216.98   11.60
  -5  11  -2  214.98   12.60
   5 -11   1    3.60    1.60
   5 -11   1    2.20    1.40
  -5  11  -1    3.90    2.70
  -5  11  -1    5.90    2.30
   5 -11   0  221.68   10.00
   5 -11   0  214.08    9.60
   5 -11   0  229.28    9.30
   5 -11   0  251.57    9.50
  -5  11   0  231.28   10.30
  -5  11   0  233.58    9.30
  -5  11   0  241.48   12.10
  -5  11   0  235.78    9.10
  -5  11   0  226.48   10.30
   5 -11  -1    6.00    2.40
   5 -11  -1    5.90    1.60
   5 -11  -1    4.70    1.90
   5 -11  -1    3.40    1.20
  -5  11   1    6.90    1.70
  -5  11   1    6.60    1.90
  -5  11   1    3.80    2.10
  -5  11   1    7.60    2.30
   5 -11  -2  232.38   10.90
   5 -11  -2  203.48    8.90
   5 -11  -2  225.78    9.80
   5 -11  -2  211.48   11.00
  -5  11   2  217.18   11.00
  -5  11   2  227.28   10.00
  -5  11   2  221.38   10.20
  -5  11   2  209.68    9.80
   5 -11  -3    3.40    1.90
   5 -11  -3    6.10    2.80
   5 -11  -3    8.50    2.20
   5 -11  -3    1.50    2.70
  -5  11   3    5.10    2.60
  -5  11   3    5.10    2.30
  -5  11   3    5.30    2.30
   5 -11  -4    1.70    2.40
   5 -11  -4    7.00    3.10
   5 -11  -4    3.30    3.30
  -5  11   4    3.30    2.40
  -5  11   4   14.60    3.80
  -5  11   4    5.70    2.90
   4 -11   4   12.50    3.50
   4 -11   4    4.10    3.10
  -4  11  -4    4.50    3.50
  -4  11  -4    4.00    3.60
   4 -11   3   29.40    4.20
   4 -11   3   33.80    4.40
  -4  11  -3   21.50    4.80
  -4  11  -3   21.40    4.40
   4 -11   2  167.38    8.50
   4 -11   2  178.88    8.70
  -4  11  -2  201.08   10.80
  -4  11  -2  181.68   11.20
   4 -11   1   42.20    3.20
   4 -11   1   47.70    3.30
  -4  11  -1   43.90    5.40
  -4  11  -1   45.50    4.90
   4 -11   0  431.86   17.50
   4 -11   0  476.05   16.80
   4 -11   0  441.36   17.30
   4 -11   0  468.45   16.70
  -4  11   0  455.85   19.20
  -4  11   0  467.15   17.50
  -4  11   0  468.05   16.80
  -4  11   0  449.86   16.50
  -4  11   0  454.75   17.80
   4 -11  -1   46.40    4.40
   4 -11  -1   47.00    4.70
   4 -11  -1   49.10    3.30
   4 -11  -1   46.40    2.70
  -4  11   1   46.10    3.40
  -4  11   1   47.50    4.60
  -4  11   1   47.60    4.70
  -4  11   1   41.50    3.40
   4 -11  -2  202.78    9.90
   4 -11  -2  203.48    8.80
   4 -11  -2  178.78   10.00
   4 -11  -2  182.58    8.00
  -4  11   2  197.38    9.00
  -4  11   2  194.28    9.20
  -4  11   2  197.38   10.00
  -4  11   2  191.98    8.90
   4 -11  -3   23.80    3.20
   4 -11  -3   24.20    4.20
   4 -11  -3   25.60    4.50
  -4  11   3   25.50    3.50
  -4  11   3   28.80    4.00
  -4  11   3   32.70    4.60
   4 -11  -4    8.20    3.70
   4 -11  -4    7.40    3.20
   4 -11  -4    9.60    2.80
  -4  11   4    7.40    2.90
  -4  11   4   12.20    3.40
  -4  11   4   10.00    3.30
   3 -11   4   18.00    4.00
   3 -11   4   14.90    3.60
  -3  11  -4   11.00    4.00
  -3  11  -4   17.80    4.60
   3 -11   3    4.30    2.20
   3 -11   3    7.10    2.50
  -3  11  -3    3.70    2.80
  -3  11  -3    2.30    2.50
   3 -11   2   23.30    3.10
   3 -11   2   22.80    3.10
  -3  11  -2   22.40    4.30
  -3  11  -2   23.00    4.10
   3 -11   1  136.19    6.30
   3 -11   1  128.09    6.40
   3 -11   1  129.29    6.30
   3 -11   1  144.89    6.50
  -3  11  -1  133.09    7.80
  -3  11  -1  138.49    8.50
   3 -11   0  102.59    5.90
   3 -11   0  106.19    5.60
   3 -11   0  100.89    4.80
   3 -11   0  114.69    5.10
  -3  11   0  112.09    6.00
  -3  11   0  108.19    6.80
  -3  11   0  111.39    5.60
  -3  11   0  104.89    5.00
  -3  11   0  109.49    5.10
   3 -11  -1  129.39    6.20
   3 -11  -1  148.49    5.60
   3 -11  -1  138.89    7.50
   3 -11  -1  125.09    6.90
  -3  11   1  138.09    6.40
  -3  11   1  132.09    7.20
  -3  11   1  142.99    6.70
  -3  11   1  136.19    7.20
   3 -11  -2   21.00    2.70
   3 -11  -2   26.10    3.70
   3 -11  -2   21.10    2.20
   3 -11  -2   24.50    3.90
  -3  11   2   22.50    3.50
  -3  11   2   26.10    3.10
  -3  11   2   21.20    2.80
  -3  11   2   24.20    3.10
   3 -11  -3    3.90    1.80
   3 -11  -3    7.40    3.10
   3 -11  -3    2.00    2.20
  -3  11   3    6.50    2.20
  -3  11   3    4.10    2.10
  -3  11   3    1.90    1.80
   3 -11  -4   16.00    3.20
   3 -11  -4   14.00    4.10
   3 -11  -4   12.00    3.60
  -3  11   4   18.20    4.10
  -3  11   4   14.80    3.30
  -3  11   4   14.70    3.30
   2 -11   4    4.30    2.70
   2 -11   4    3.50    2.70
  -2  11  -4    7.90    3.70
  -2  11  -4    4.80    3.40
   2 -11   3   20.70    3.40
   2 -11   3   25.50    3.70
  -2  11  -3   20.20    4.30
  -2  11  -3   11.90    3.70
   2 -11   2   14.90    2.50
   2 -11   2   15.50    2.70
  -2  11  -2   15.60    3.50
  -2  11  -2   18.40    3.70
   2 -11   1  221.48    9.40
   2 -11   1  227.68    9.50
   2 -11   1  230.68    9.40
   2 -11   1  221.08    9.70
  -2  11  -1  228.58    9.00
  -2  11  -1  245.38   11.80
  -2  11  -1  232.78   11.00
   2 -11   0  215.48   10.20
   2 -11   0  229.98    8.90
   2 -11   0  244.28    9.10
   2 -11   0  212.28    9.80
  -2  11   0  233.88    9.20
  -2  11   0  239.68   11.00
  -2  11   0  241.88    9.70
  -2  11   0  235.88   10.30
   2 -11  -1  235.08   11.00
   2 -11  -1  258.27    8.80
   2 -11  -1  245.28   10.70
   2 -11  -1  236.78    9.50
  -2  11   1  229.88   10.50
  -2  11   1  240.88   10.00
  -2  11   1  251.47    9.70
  -2  11   1  233.28    9.70
  -2  11   1  210.18   10.30
   2 -11  -2   16.90    3.00
   2 -11  -2   10.00    2.80
   2 -11  -2   17.80    2.50
  -2  11   2   13.40    2.70
  -2  11   2   16.10    2.50
  -2  11   2   16.00    2.90
  -2  11   2   16.10    2.50
   2 -11  -3   22.20    3.10
   2 -11  -3   24.90    4.50
   2 -11  -3   23.80    4.00
  -2  11   3   24.70    4.00
  -2  11   3   21.80    2.90
  -2  11   3   25.30    3.40
  -2  11   3   25.10    3.60
   2 -11  -4    7.70    3.50
   2 -11  -4    7.30    2.90
   2 -11  -4    6.80    2.40
  -2  11   4    7.30    2.60
  -2  11   4    5.80    2.60
  -2  11   4    7.10    3.20
   1 -11   4   13.20    3.50
   1 -11   4    6.00    3.00
  -1  11  -4    5.20    2.70
  -1  11  -4    8.80    3.60
  -1  11  -4    9.90    3.80
   1 -11   3   65.39    5.10
   1 -11   3   68.79    5.30
  -1  11  -3   57.69    6.80
  -1  11  -3   70.49    7.30
   1 -11   2   33.30    3.60
   1 -11   2   37.50    3.70
  -1  11  -2   36.30    4.80
  -1  11  -2   31.50    4.60
   1 -11   1   98.49    5.90
   1 -11   1  108.39    5.20
   1 -11   1  106.19    5.40
   1 -11   1  106.49    5.70
   1 -11   1   98.99    5.20
  -1  11  -1  106.19    6.50
  -1  11  -1  107.19    6.70
  -1  11  -1   98.29    4.60
   1 -11   0  381.06   15.70
   1 -11   0  444.76   14.70
   1 -11   0  378.26   16.00
   1 -11   0  392.66   14.30
  -1  11   0  390.46   15.10
  -1  11   0  406.96   16.40
  -1  11   0  396.46   15.90
   1 -11  -1  120.79    6.40
   1 -11  -1  114.09    4.30
   1 -11  -1  114.89    6.60
   1 -11  -1  106.09    4.90
  -1  11   1  106.99    5.50
  -1  11   1  103.59    5.30
  -1  11   1   91.19    5.70
  -1  11   1   99.69    5.80
  -1  11   1  104.19    5.30
   1 -11  -2   43.30    5.10
   1 -11  -2   38.00    2.90
   1 -11  -2   34.80    4.20
  -1  11   2   36.70    4.20
  -1  11   2   37.90    3.60
  -1  11   2   41.40    3.90
  -1  11   2   35.90    3.80
   1 -11  -3   64.79    4.50
   1 -11  -3   69.39    6.50
   1 -11  -3   66.29    6.90
  -1  11   3   65.59    5.50
  -1  11   3   68.09    5.10
  -1  11   3   69.89    4.90
  -1  11   3   73.79    4.80
   1 -11  -4   14.70    3.70
   1 -11  -4   11.30    2.80
   1 -11  -4   10.50    4.10
  -1  11   4    8.00    3.00
  -1  11   4    3.60    2.50
  -1  11   4   10.30    2.90
   0 -11   4    1.00    2.50
   0 -11   4    1.50    2.40
   0  11  -4    0.90    2.00
   0  11  -4    3.80    3.00
   0 -11   3   13.20    2.80
   0 -11   3   18.40    3.30
   0  11  -3   14.80    3.50
   0  11  -3   20.30    3.70
   0  11  -3   21.70    4.20
   0 -11   2  104.49    5.50
   0 -11   2  108.09    6.10
   0 -11   2  112.59    6.00
   0  11  -2  106.19    7.10
   0  11  -2  105.79    7.30
   0 -11   1   96.39    5.40
   0 -11   1   89.69    4.80
   0 -11   1   89.39    4.60
   0 -11   1   93.39    5.40
   0 -11   1   89.69    5.00
   0  11  -1   92.29    4.30
   0  11  -1   90.29    5.90
   0  11  -1   92.29    6.00
   0 -11   0    0.80    0.80
   0 -11   0    2.40    1.40
   0 -11   0   -0.30    1.50
   0 -11   0    2.90    1.50
   0 -11   0    0.30    0.60
   0  11   0    1.80    1.10
   0  11   0    1.60    1.30
   0  11   0    0.70    1.30
   0 -11  -1   98.09    4.50
   0 -11  -1   89.19    6.50
   0 -11  -1   96.69    6.20
   0 -11  -1   98.49    5.90
   0  11   1   97.39    5.50
   0  11   1   93.99    5.00
   0  11   1   91.69    5.40
   0  11   1   99.59    5.30
   0  11   1  100.79    5.00
   0 -11  -2  104.69    5.30
   0 -11  -2  110.99    7.10
   0 -11  -2  118.19    6.90
   0  11   2  104.69    6.00
   0  11   2  123.59    6.30
   0  11   2  112.39    5.90
   0  11   2  109.09    6.50
   0 -11  -3   11.10    3.30
   0 -11  -3   15.90    3.30
   0 -11  -3   25.50    5.20
   0 -11  -3   20.80    2.70
   0  11   3   24.80    3.40
   0  11   3   16.30    2.80
   0  11   3   20.70    3.10
   0  11   3   21.80    3.70
   0 -11  -4    1.30    3.10
   0 -11  -4    0.00    1.60
   0 -11  -4    0.70    2.90
   0 -11  -4   -3.30    1.80
   0  11   4   -1.40    2.10
   0  11   4   -2.00    1.90
   0  11   4   -2.30    1.70
  -1 -11   4    8.80    3.40
  -1 -11   4    9.00    3.10
   1  11  -4    7.40    3.10
   1  11  -4   11.80    3.80
  -1 -11   3   57.89    5.70
  -1 -11   3   64.69    5.00
   1  11  -3   69.19    6.70
   1  11  -3   65.79    5.30
   1  11  -3   71.59    7.40
  -1 -11   2   39.70    3.50
  -1 -11   2   40.50    3.80
  -1 -11   2   38.20    3.90
  -1 -11   2   32.10    3.40
   1  11  -2   37.40    3.90
   1  11  -2   49.70    5.20
   1  11  -2   36.90    4.70
  -1 -11   1  103.19    6.10
  -1 -11   1  107.39    5.50
  -1 -11   1  109.89    5.90
  -1 -11   1  101.79    4.90
  -1 -11   1  103.69    5.20
   1  11  -1   97.39    4.80
   1  11  -1   92.19    6.20
   1  11  -1  111.49    6.40
  -1 -11   0  380.06   15.90
  -1 -11   0  433.66   14.50
  -1 -11   0  398.36   16.80
  -1 -11   0  368.76   13.90
  -1 -11   0  385.76   16.30
   1  11   0  399.46   15.90
   1  11   0  402.76   16.00
   1  11   0  407.46   15.20
  -1 -11  -1  104.99    6.70
  -1 -11  -1  101.59    7.10
  -1 -11  -1  113.29    4.70
  -1 -11  -1  104.89    6.30
   1  11   1   97.39    5.70
   1  11   1  107.89    5.90
   1  11   1  111.19    5.50
   1  11   1  112.19    5.60
  -1 -11  -2   37.20    2.60
  -1 -11  -2   39.50    4.80
  -1 -11  -2   32.50    5.00
  -1 -11  -2   37.60    4.40
   1  11   2   36.80    3.50
   1  11   2   40.50    3.90
   1  11   2   45.40    4.50
   1  11   2   36.60    3.80
  -1 -11  -3   70.49    6.50
  -1 -11  -3   74.09    4.50
  -1 -11  -3   62.99    7.70
  -1 -11  -3   68.19    6.90
   1  11   3   66.99    5.00
   1  11   3   73.99    5.10
   1  11   3   69.99    4.80
   1  11   3   65.89    5.40
  -1 -11  -4   14.40    4.20
  -1 -11  -4    6.00    3.90
  -1 -11  -4   10.40    3.40
   1  11   4    6.60    2.20
   1  11   4   12.70    3.00
   1  11   4   12.40    3.00
  -2 -11   4    7.80    3.10
  -2 -11   4    9.40    3.30
   2  11  -4    8.70    3.10
   2  11  -4    7.10    3.70
  -2 -11   3   23.10    3.60
  -2 -11   3   20.20    3.00
  -2 -11   3   20.20    3.20
  -2 -11   3   23.20    3.60
   2  11  -3   26.30    4.50
   2  11  -3   19.60    3.50
   2  11  -3   17.90    3.30
  -2 -11   2   14.90    2.30
  -2 -11   2   15.90    2.60
  -2 -11   2   12.70    2.50
  -2 -11   2   14.20    2.40
   2  11  -2   21.10    3.80
   2  11  -2   14.30    2.90
   2  11  -2   17.40    2.80
  -2 -11   1  235.08    9.10
  -2 -11   1  204.08   10.70
  -2 -11   1  258.07   10.00
  -2 -11   1  238.38   10.20
  -2 -11   1  229.48    9.40
   2  11  -1  202.58    9.10
   2  11  -1  230.88   10.50
   2  11  -1  227.08   10.90
  -2 -11   0  219.98   10.40
  -2 -11   0  228.58   11.50
  -2 -11   0  242.98    9.00
  -2 -11   0  225.68   10.90
   2  11   0  238.28   10.50
   2  11   0  232.78    9.80
   2  11   0  233.58   10.30
  -2 -11  -1  210.88   11.00
  -2 -11  -1  247.58   12.30
  -2 -11  -1  211.78   10.60
  -2 -11  -1  248.48    8.70
   2  11   1  228.78   10.20
   2  11   1  231.58   10.20
   2  11   1  226.38    9.80
  -2 -11  -2   18.30    4.20
  -2 -11  -2    9.90    2.60
  -2 -11  -2   12.10    1.80
  -2 -11  -2   15.10    3.20
   2  11   2   14.40    2.30
   2  11   2   18.20    2.80
   2  11   2   16.90    2.50
   2  11   2   16.50    2.70
   2  11   2   18.00    2.90
  -2 -11  -3   24.60    5.20
  -2 -11  -3   19.00    3.70
  -2 -11  -3   20.20    4.10
   2  11   3   24.50    3.80
   2  11   3   28.20    3.70
   2  11   3   29.20    3.50
   2  11   3   20.00    3.20
  -2 -11  -4    4.60    2.80
  -2 -11  -4   11.40    4.40
  -2 -11  -4    8.80    4.10
   2  11   4    8.90    2.80
   2  11   4    3.10    2.10
   2  11   4    5.30    2.60
   2  11   4    4.00    2.40
  -3 -11   4   20.00    4.20
  -3 -11   4   22.10    4.00
   3  11  -4   17.20    4.60
   3  11  -4   13.10    3.60
  -3 -11   3    6.00    2.50
  -3 -11   3    4.30    2.20
  -3 -11   3    4.60    1.90
  -3 -11   3    5.40    2.20
   3  11  -3    4.70    2.80
   3  11  -3    2.90    2.10
  -3 -11   2   21.50    3.00
  -3 -11   2   18.10    2.90
  -3 -11   2   26.20    3.10
  -3 -11   2   15.40    2.50
   3  11  -2   16.40    3.40
   3  11  -2   21.60    2.90
   3  11  -2   25.10    3.60
  -3 -11   1  132.09    6.00
  -3 -11   1  148.89    6.60
  -3 -11   1  156.78    7.40
  -3 -11   1  124.99    8.00
  -3 -11   1  133.79    6.80
   3  11  -1  148.09    7.30
   3  11  -1  126.89    6.10
   3  11  -1  133.19    7.70
  -3 -11   0   94.59    7.10
  -3 -11   0  100.29    6.10
  -3 -11   0  111.89    4.80
  -3 -11   0  111.29    6.60
   3  11   0  104.29    6.00
   3  11   0  103.19    5.50
   3  11   0  101.39    5.80
  -3 -11  -1  135.29    8.10
  -3 -11  -1  134.89    7.70
  -3 -11  -1  149.79    5.60
  -3 -11  -1  118.99    8.50
   3  11   1  140.49    7.20
   3  11   1  137.19    6.80
   3  11   1  138.89    7.10
  -3 -11  -2   16.30    3.50
  -3 -11  -2   23.00    3.70
  -3 -11  -2   13.70    4.00
   3  11   2   19.00    2.90
   3  11   2   26.00    3.50
   3  11   2   19.10    2.60
   3  11   2   25.70    3.10
  -3 -11  -3   -3.50    1.60
  -3 -11  -3    0.60    2.60
  -3 -11  -3    3.90    2.30
   3  11   3    1.70    1.80
   3  11   3    2.00    1.80
   3  11   3    5.20    2.30
   3  11   3    6.20    2.10
   3  11   3    1.40    1.90
  -3 -11  -4   19.60    5.80
  -3 -11  -4   14.20    4.40
  -3 -11  -4   16.20    3.80
   3  11   4   25.60    4.00
   3  11   4   18.40    3.80
   3  11   4   18.10    3.60
   3  11   4   19.10    3.50
  -4 -11   4   15.80    3.70
  -4 -11   4    1.90    2.70
   4  11  -4   10.30    3.70
   4  11  -4   10.30    3.20
  -4 -11   3   24.40    3.90
  -4 -11   3   31.00    4.20
  -4 -11   3   29.30    3.70
  -4 -11   3   26.00    4.00
   4  11  -3   22.80    3.70
   4  11  -3   33.80    5.00
  -4 -11   2  197.98    9.10
  -4 -11   2  191.98    8.90
  -4 -11   2  187.58    8.70
  -4 -11   2  196.58    9.30
   4  11  -2  188.88   10.40
   4  11  -2  183.08    8.90
   4  11  -2  196.38    9.30
  -4 -11   1   44.00    3.00
  -4 -11   1   50.59    5.90
  -4 -11   1   48.60    3.70
  -4 -11   1   54.79    4.90
  -4 -11   1   45.60    3.40
   4  11  -1   52.29    4.50
   4  11  -1   44.00    4.20
  -4 -11   0  450.65   16.30
  -4 -11   0  450.35   18.60
  -4 -11   0  440.96   20.20
  -4 -11   0  470.15   18.40
   4  11   0  477.65   18.10
   4  11   0  433.36   17.50
   4  11   0  466.65   17.70
  -4 -11  -1   42.70    5.10
  -4 -11  -1   52.29    6.80
  -4 -11  -1   36.40    4.40
   4  11   1   46.60    4.50
   4  11   1   43.60    4.20
   4  11   1   48.80    3.80
  -4 -11  -2  181.18   10.30
  -4 -11  -2  164.78    9.50
  -4 -11  -2  184.08   11.70
   4  11   2  178.98    8.90
   4  11   2  177.78    9.10
  -4 -11  -3   22.30    4.50
  -4 -11  -3   34.50    4.80
  -4 -11  -3   24.10    5.60
   4  11   3   24.20    3.80
   4  11   3   25.30    3.60
   4  11   3   25.30    3.70
   4  11   3   27.00    3.50
  -4 -11  -4    6.40    4.00
  -4 -11  -4   14.90    4.60
  -4 -11  -4    7.00    3.30
   4  11   4    9.60    2.60
   4  11   4    8.10    2.90
   4  11   4    9.10    3.10
   4  11   4   10.90    3.00
  -5 -11   4    4.10    3.30
  -5 -11   4    3.20    2.60
  -5 -11   4    9.50    3.50
  -5 -11   4    7.50    3.30
   5  11  -4    6.50    3.50
   5  11  -4    4.80    3.00
  -5 -11   3    3.50    2.40
  -5 -11   3    5.50    2.60
  -5 -11   3    2.00    2.20
  -5 -11   3    5.30    2.40
   5  11  -3    7.20    3.40
   5  11  -3    5.00    2.40
  -5 -11   2  229.68   10.20
  -5 -11   2  211.98   10.10
  -5 -11   2  229.68    9.80
  -5 -11   2  222.48   10.50
   5  11  -2  204.48    9.80
   5  11  -2  229.08   10.20
   5  11  -2  225.68   11.70
  -5 -11   1    4.10    2.90
  -5 -11   1    3.70    1.60
  -5 -11   1    3.50    1.50
  -5 -11   1    3.40    1.80
   5  11  -1    6.00    2.30
   5  11  -1    5.10    1.80
  -5 -11   0  230.28   11.00
  -5 -11   0  233.68   13.30
  -5 -11   0  257.47   11.70
   5  11   0  255.17   10.80
   5  11   0  238.48   10.90
  -5 -11  -1    7.30    3.00
  -5 -11  -1    3.00    2.10
  -5 -11  -1    6.00    2.30
   5  11   1    3.00    1.70
   5  11   1    6.60    2.20
   5  11   1    3.20    1.80
  -5 -11  -2  197.88   11.00
  -5 -11  -2  225.68   11.90
  -5 -11  -2  227.28   13.70
   5  11   2  209.58   10.60
   5  11   2  223.38   10.30
   5  11   2  215.78   10.40
  -5 -11  -3    9.50    3.40
  -5 -11  -3   14.80    3.80
  -5 -11  -3    7.50    4.30
   5  11   3    4.20    2.40
   5  11   3    9.60    2.60
   5  11   3    5.20    2.60
  -5 -11  -4    7.30    4.80
  -5 -11  -4    4.10    3.60
  -5 -11  -4   10.90    3.80
   5  11   4    3.10    2.40
   5  11   4    5.60    2.80
   5  11   4    2.90    2.60
  -6 -11   4    4.60    2.90
  -6 -11   4   -0.90    2.60
  -6 -11   4    0.90    2.60
  -6 -11   4    1.00    2.70
   6  11  -4    3.10    2.80
   6  11  -4   -1.90    2.90
  -6 -11   3    2.70    2.40
  -6 -11   3    1.50    2.30
  -6 -11   3    2.20    2.10
  -6 -11   3    6.10    2.50
   6  11  -3   -0.80    2.10
   6  11  -3    2.90    2.10
  -6 -11   2   44.80    4.60
  -6 -11   2   49.00    3.90
  -6 -11   2   40.60    4.20
  -6 -11   2   54.69    5.40
   6  11  -2   41.90    3.70
   6  11  -2   47.90    5.60
   6  11  -2   42.40    4.20
  -6 -11   1   89.99    8.00
  -6 -11   1  114.89    6.40
  -6 -11   1  114.09    6.70
   6  11  -1  115.39    7.00
   6  11  -1  117.39    6.30
  -6 -11   0   49.70    4.80
  -6 -11   0   55.99    7.50
  -6 -11   0   48.10    5.10
   6  11   0   48.50    4.10
   6  11   0   49.10    4.00
  -6 -11  -1  108.39    7.10
  -6 -11  -1  113.19    9.50
  -6 -11  -1  123.99    7.80
   6  11   1  114.79    7.00
   6  11   1  117.69    6.80
   6  11   1  113.49    6.60
  -6 -11  -2   36.80    5.40
  -6 -11  -2   46.70    5.40
  -6 -11  -2   38.80    6.80
   6  11   2   41.40    4.60
   6  11   2   44.10    5.00
   6  11   2   37.20    4.30
  -6 -11  -3    0.60    2.20
  -6 -11  -3   -1.30    2.70
  -6 -11  -3    0.00    3.70
   6  11   3    0.40    1.90
   6  11   3    3.80    2.60
   6  11   3    1.70    1.90
  -6 -11  -4   -0.20    2.70
  -6 -11  -4   -2.40    3.40
  -6 -11  -4    3.00    3.70
   6  11   4    1.60    2.70
   6  11   4    1.50    2.50
  -7 -11   4    0.60    2.50
  -7 -11   4    3.90    2.90
  -7 -11   4    1.80    3.20
  -7 -11   4   -2.10    2.60
   7  11  -4    0.00    2.60
   7  11  -4    5.10    3.40
   7  11  -4    0.70    2.80
  -7 -11   3   10.00    3.10
  -7 -11   3   10.70    3.20
  -7 -11   3   12.60    3.10
  -7 -11   3    4.30    2.60
   7  11  -3   11.40    2.80
   7  11  -3    8.50    3.30
  -7 -11   2   11.60    3.00
  -7 -11   2   19.30    3.30
   7  11  -2   19.20    3.80
  -7 -11   1   32.80    4.10
  -7 -11   1   35.20    5.90
  -7 -11   1   33.10    3.90
   7  11  -1   30.20    4.10
   7  11  -1   34.50    3.80
  -7 -11   0    1.10    1.30
  -7 -11   0    3.70    2.00
  -7 -11   0    2.50    3.10
   7  11   0    2.70    1.80
   7  11   0    0.90    1.40
  -7 -11  -1   25.20    4.20
  -7 -11  -1   33.10    6.30
  -7 -11  -1   32.70    4.40
   7  11   1   35.00    4.00
   7  11   1   26.50    3.70
  -7 -11  -2   12.00    3.60
  -7 -11  -2   15.70    5.20
  -7 -11  -2   18.70    3.80
   7  11   2   20.10    3.60
   7  11   2   16.70    3.20
   7  11   2   20.60    3.50
  -7 -11  -3   11.20    3.50
  -7 -11  -3    9.80    5.20
  -7 -11  -3   16.60    4.30
   7  11   3    6.00    2.50
   7  11   3   10.20    3.30
   7  11   3    9.40    3.20
  -7 -11  -4   -1.10    4.00
  -7 -11  -4    0.70    3.00
  -7 -11  -4    4.40    3.70
  -7 -11  -4    3.10    3.80
   7  11   4    1.00    2.50
   7  11   4   -2.60    2.20
   7  11   4    2.90    2.70
  -8 -11   3   25.10    4.40
  -8 -11   3   16.70    3.70
   8  11  -3   21.10    4.50
   8  11  -3   17.90    3.40
  -8 -11   2    0.00    2.00
  -8 -11   2    4.00    2.60
   8  11  -2    5.20    2.50
  -8 -11   1   16.30    3.20
  -8 -11   1   12.90    2.80
  -8 -11   1   10.10    3.80
   8  11  -1    6.10    2.00
   8  11  -1   13.70    2.80
  -8 -11   0  128.59   10.90
  -8 -11   0  153.18    8.60
  -8 -11   0  158.88    8.30
   8  11   0  168.98    8.60
   8  11   0  163.08    8.30
  -8 -11  -1   11.90    4.80
  -8 -11  -1    7.60    2.60
  -8 -11  -1   12.10    3.20
   8  11   1   13.40    2.90
   8  11   1   11.00    2.80
  -8 -11  -2    1.80    2.50
  -8 -11  -2   -1.00    3.30
  -8 -11  -2    6.00    2.70
   8  11   2    3.10    2.20
   8  11   2    4.40    2.50
  -8 -11  -3   15.30    4.40
  -8 -11  -3   18.90    6.00
  -8 -11  -3    8.80    3.30
   8  11   3   17.50    3.80
   8  11   3   25.40    4.60
   8  11   3   18.30    3.70
  -9 -11   3    2.10    2.80
  -9 -11   3    1.90    2.60
   9  11  -3    4.40    3.10
  -9 -11   2   41.90    5.10
  -9 -11   2   31.20    4.80
   9  11  -2   27.40    4.40
  -9 -11   1   33.90    6.30
  -9 -11   1   32.20    4.20
  -9 -11   1   43.40    5.20
   9  11  -1   36.50    4.50
   9  11  -1   44.10    4.50
  -9 -11   0    6.00    2.20
  -9 -11   0    3.80    3.60
  -9 -11   0    4.20    2.40
   9  11   0    1.40    1.70
   9  11   0    0.80    1.80
  -9 -11  -1   40.70    4.70
  -9 -11  -1   35.40    4.90
  -9 -11  -1   21.40    6.20
   9  11   1   39.90    4.80
   9  11   1   37.50    4.50
  -9 -11  -2   39.30    5.50
  -9 -11  -2   24.10    6.70
  -9 -11  -2   30.20    4.60
   9  11   2   34.70    5.10
   9  11   2   22.00    3.90
  -9 -11  -3   -1.10    3.00
  -9 -11  -3    6.20    3.20
  -9 -11  -3    1.20    4.30
   9  11   3    2.50    2.80
   9  11   3   -1.80    2.20
 -10 -11   3    2.60    3.50
 -10 -11   3    6.80    3.20
  10  11  -3    6.20    3.20
 -10 -11   2   11.00    3.10
 -10 -11   2   11.40    3.40
  10  11  -2    7.80    3.00
 -10 -11   1   62.09    5.80
 -10 -11   1   67.49    8.80
 -10 -11   1   60.09    6.10
  10  11  -1   71.99    5.80
 -10 -11   0    7.60    4.20
 -10 -11   0    0.80    2.30
 -10 -11   0    2.10    1.80
  10  11   0    1.70    2.00
  10  11   0    7.10    2.40
 -10 -11  -1   55.29    5.70
 -10 -11  -1   61.49    9.50
 -10 -11  -1   61.79    6.30
  10  11   1   63.89    6.40
  10  11   1   53.69    5.80
 -10 -11  -2    3.30    2.90
 -10 -11  -2    2.70    4.10
 -10 -11  -2    6.80    2.90
  10  11   2    4.80    2.50
  10  11   2    4.60    3.00
 -10 -11  -3    9.30    4.60
 -10 -11  -3    4.00    5.00
 -10 -11  -3    1.20    3.50
 -10 -11  -3   11.50    3.70
  10  11   3    8.20    3.50
  10  11   3    6.50    2.80
 -11 -11   2    9.90    3.30
 -11 -11   2    5.20    3.20
  11  11  -2    6.30    3.20
 -11 -11   1   10.50    2.90
 -11 -11   1   10.10    4.50
 -11 -11   1   12.50    3.30
  11  11  -1    6.30    2.70
 -11 -11   0   22.40    6.20
 -11 -11   0   18.40    3.90
 -11 -11   0   19.90    3.50
  11  11   0   15.90    3.40
  11  11   0   20.10    3.90
 -11 -11  -1   13.90    5.70
 -11 -11  -1    3.00    2.50
 -11 -11  -1    2.50    2.20
  11  11   1   11.90    3.40
  11  11   1    8.60    3.00
 -11 -11  -2   10.70    2.90
 -11 -11  -2    5.70    4.80
 -11 -11  -2   13.50    4.00
  11  11   2    7.90    3.50
  11  11   2    8.40    3.30
 -12 -11   2   11.20    3.60
  12  11  -2   17.20    4.10
 -12 -11   1    9.20    3.20
 -12 -11   1    0.80    2.40
 -12 -11   1    8.30    4.10
  12  11  -1    5.80    2.90
 -12 -11   0    8.40    2.80
 -12 -11   0    1.10    2.80
 -12 -11   0    2.30    4.30
  12  11   0    0.70    2.20
  12  11   0    8.40    2.90
 -12 -11  -1    5.20    4.80
 -12 -11  -1    7.30    3.00
 -12 -11  -1    7.20    3.00
  12  11   1   12.70    3.50
  12  11   1    4.40    3.00
 -12 -11  -2   13.10    5.20
 -12 -11  -2   11.10    3.70
 -12 -11  -2   14.80    3.50
 -12 -11  -2    8.40    5.70
  12  11   2    9.80    3.20
  12  11   2   13.00    4.00
 -13 -11   1   20.80    4.30
 -13 -11   1    6.90    4.20
  13  11  -1   13.30    3.80
 -13 -11   0   -0.10    2.90
 -13 -11   0    1.70    3.90
 -13 -11   0    0.00    2.20
  13  11   0    1.00    2.80
 -13 -11  -1   12.70    5.10
 -13 -11  -1   22.10    4.70
 -13 -11  -1   14.50    3.50
 -13 -11  -1   11.60    5.70
  13  11   1   11.80    4.00
  13  11   1   14.10    3.90
  13 -12   0    1.50    2.00
 -13  12   0    3.20    4.20
  12 -12   1    4.00    2.40
  12 -12   1    5.40    2.40
 -12  12  -1    6.50    5.00
  12 -12   0   18.00    3.30
  12 -12   0   16.10    2.90
 -12  12   0   16.50    4.10
  12 -12  -1    3.00    2.30
  12 -12  -1    2.20    2.30
 -12  12   1    3.40    3.10
  11 -12   2   -0.90    2.20
  11 -12   2    5.10    2.50
 -11  12  -2    1.80    4.10
  11 -12   1    3.30    2.40
  11 -12   1    0.40    1.80
 -11  12  -1    1.90    3.50
  11 -12   0    3.50    2.00
  11 -12   0    4.00    2.10
 -11  12   0    3.50    2.70
 -11  12   0    1.70    3.50
  11 -12  -1    5.00    2.10
  11 -12  -1    5.60    2.30
 -11  12   1    5.90    3.10
  11 -12  -2    5.30    2.70
  11 -12  -2    9.10    2.40
 -11  12   2    7.60    3.80
  10 -12   2   -3.70    2.00
  10 -12   2   -1.20    1.90
  10 -12   2    0.90    2.40
 -10  12  -2   -3.60    3.20
 -10  12  -2    2.40    3.30
  10 -12   1   21.80    3.30
  10 -12   1   21.70    3.30
 -10  12  -1   25.40    5.90
  10 -12   0    9.10    2.20
  10 -12   0   14.90    2.80
 -10  12   0   10.80    3.10
 -10  12   0   14.30    4.30
  10 -12  -1   27.70    3.40
  10 -12  -1   29.70    3.60
 -10  12   1   20.70    4.30
  10 -12  -2   -0.30    1.90
  10 -12  -2    2.10    2.10
  10 -12  -2    1.20    2.40
 -10  12   2   -2.10    1.90
 -10  12   2    0.60    2.30
 -10  12   2   -3.00    2.50
   9 -12   3    3.30    2.60
   9 -12   3    1.90    2.40
  -9  12  -3   -2.00    3.20
  -9  12  -3    0.50    3.80
   9 -12   2    2.80    2.10
   9 -12   2    6.40    2.30
  -9  12  -2    9.10    4.00
  -9  12  -2    3.30    3.80
   9 -12   1   43.70    4.40
   9 -12   1   45.00    3.90
  -9  12  -1   49.30    7.50
   9 -12   0   57.89    4.20
   9 -12   0   63.79    4.40
  -9  12   0   73.19    8.00
  -9  12   0   55.49    5.80
   9 -12  -1   59.09    4.10
   9 -12  -1   60.09    4.40
  -9  12   1   54.29    6.10
   9 -12  -2   12.20    2.60
   9 -12  -2   12.80    3.50
   9 -12  -2   10.60    3.40
   9 -12  -2    9.70    2.80
  -9  12   2    8.70    2.50
  -9  12   2    5.10    3.10
  -9  12   2    7.20    2.90
   9 -12  -3   -1.00    2.60
   9 -12  -3    7.20    3.00
   9 -12  -3   -0.20    3.40
   9 -12  -3    0.00    1.90
  -9  12   3    0.00    2.40
  -9  12   3    4.30    3.20
  -9  12   3    5.90    3.20
   8 -12   3   21.20    4.10
   8 -12   3   10.90    3.20
  -8  12  -3   25.30    5.90
  -8  12  -3   14.50    5.10
   8 -12   2   43.00    4.80
   8 -12   2   54.49    4.70
  -8  12  -2   59.89    7.10
  -8  12  -2   48.00    7.30
   8 -12   1   46.40    3.90
   8 -12   1   50.09    4.20
  -8  12  -1   64.19    7.70
  -8  12  -1   47.10    6.70
   8 -12   0  240.68   10.50
   8 -12   0  252.47   10.50
  -8  12   0  250.67   11.80
  -8  12   0  264.47   14.00
   8 -12  -1   62.49    4.00
   8 -12  -1   49.90    4.00
  -8  12   1   60.89    4.50
  -8  12   1   57.19    6.00
  -8  12   1   58.79    6.20
  -8  12   1   49.90    3.90
   8 -12  -2   47.20    6.00
   8 -12  -2   56.29    4.60
   8 -12  -2   67.09    4.20
   8 -12  -2   47.90    5.70
  -8  12   2   63.09    5.90
  -8  12   2   55.19    5.10
  -8  12   2   45.60    5.80
   8 -12  -3   10.50    3.50
   8 -12  -3   15.20    3.00
   8 -12  -3   18.10    3.40
   8 -12  -3   17.10    4.60
  -8  12   3   18.80    4.00
  -8  12   3   17.00    3.70
  -8  12   3   13.40    3.40
   7 -12   3   15.10    3.50
   7 -12   3    9.80    3.00
  -7  12  -3    8.20    4.00
  -7  12  -3    3.30    3.10
   7 -12   2    6.60    2.30
   7 -12   2    7.80    2.30
  -7  12  -2    4.50    3.10
  -7  12  -2    4.20    3.30
   7 -12   1  111.59    6.50
   7 -12   1  120.69    6.40
  -7  12  -1  133.79    9.60
  -7  12  -1  136.89    8.20
   7 -12   0  363.96   14.20
   7 -12   0  365.66   14.30
  -7  12   0  367.46   15.40
  -7  12   0  362.36   17.30
   7 -12  -1  137.19    8.00
   7 -12  -1  122.39    7.40
   7 -12  -1  145.89    6.60
   7 -12  -1  140.99    7.00
  -7  12   1  146.89    7.30
  -7  12   1  135.29    6.80
  -7  12   1  133.69    8.10
  -7  12   1  144.49    8.60
   7 -12  -2    7.40    2.10
   7 -12  -2    8.50    2.00
   7 -12  -2    6.70    2.70
   7 -12  -2    9.10    3.10
  -7  12   2   10.70    2.50
  -7  12   2    8.10    3.10
  -7  12   2   11.80    2.80
   7 -12  -3    9.20    2.60
   7 -12  -3   12.40    3.40
   7 -12  -3   13.20    2.60
   7 -12  -3   16.40    4.30
  -7  12   3   12.30    3.30
  -7  12   3   14.90    3.30
  -7  12   3   13.10    3.10
   6 -12   4    4.60    3.00
   6 -12   4    2.60    2.90
  -6  12  -4    4.10    4.10
  -6  12  -4    3.10    3.60
   6 -12   3   14.10    3.40
   6 -12   3   18.30    3.60
  -6  12  -3    9.20    3.80
  -6  12  -3   14.30    4.50
   6 -12   2   44.60    4.60
   6 -12   2   47.10    4.90
  -6  12  -2   68.59    7.20
  -6  12  -2   50.19    7.10
   6 -12   1  513.15   19.30
   6 -12   1  474.45   19.10
  -6  12  -1  533.45   21.30
  -6  12  -1  522.95   22.90
   6 -12   0    1.10    1.20
   6 -12   0    0.80    1.20
  -6  12   0    4.70    2.00
  -6  12   0    0.20    2.20
   6 -12  -1  556.84   21.70
   6 -12  -1  574.24   19.80
   6 -12  -1  539.85   21.20
   6 -12  -1  562.14   20.40
  -6  12   1  520.35   21.70
  -6  12   1  537.05   22.00
  -6  12   1  548.75   20.70
  -6  12   1  530.45   20.20
   6 -12  -2   61.09    4.60
   6 -12  -2   59.39    3.80
   6 -12  -2   56.79    6.20
   6 -12  -2   60.69    5.80
  -6  12   2   70.49    5.30
  -6  12   2   60.49    4.50
  -6  12   2   55.99    6.00
   6 -12  -3   15.70    3.10
   6 -12  -3   12.60    3.40
   6 -12  -3   18.10    4.40
  -6  12   3   13.20    3.50
  -6  12   3   19.10    3.40
  -6  12   3   18.50    3.60
   6 -12  -4    8.20    3.40
   6 -12  -4    5.40    2.90
  -6  12   4    3.20    2.40
  -6  12   4    4.30    2.90
   5 -12   4   -1.10    2.60
   5 -12   4    4.70    2.90
  -5  12  -4   -0.60    3.00
  -5  12  -4   -1.20    2.90
   5 -12   3    0.00    2.10
   5 -12   3    3.30    2.40
  -5  12  -3   -1.30    2.60
  -5  12  -3    3.40    3.00
   5 -12   2    9.10    2.30
   5 -12   2    7.90    2.20
  -5  12  -2   12.40    3.90
  -5  12  -2   12.30    3.50
   5 -12   1  118.69    6.20
   5 -12   1  117.69    6.20
  -5  12  -1  125.59    7.60
  -5  12  -1  123.69    8.80
   5 -12   0   90.39    4.80
   5 -12   0   94.89    4.80
   5 -12   0   87.99    5.40
   5 -12   0   84.59    5.10
  -5  12   0   86.39    5.40
  -5  12   0   85.09    4.50
  -5  12   0   90.99    4.70
  -5  12   0   89.79    6.40
  -5  12   0  101.79    7.20
   5 -12  -1  126.49    7.10
   5 -12  -1  128.09    7.70
   5 -12  -1  140.29    6.70
   5 -12  -1  141.69    6.00
  -5  12   1  147.59    7.00
  -5  12   1  133.39    6.50
  -5  12   1  124.49    7.70
  -5  12   1  110.79    7.20
   5 -12  -2   12.80    2.10
   5 -12  -2   10.00    2.70
   5 -12  -2   16.80    3.60
   5 -12  -2   11.70    2.30
  -5  12   2    5.10    2.30
  -5  12   2   13.00    2.50
  -5  12   2   13.80    3.00
  -5  12   2   14.10    2.60
   5 -12  -3   -0.50    2.40
   5 -12  -3   -0.60    2.00
   5 -12  -3    1.60    1.80
  -5  12   3    2.10    2.40
  -5  12   3   -1.00    1.60
  -5  12   3    8.40    3.00
   5 -12  -4    2.80    2.30
   5 -12  -4    5.80    3.10
   5 -12  -4    1.00    3.20
  -5  12   4    2.80    2.60
  -5  12   4   -4.30    2.20
  -5  12   4   -0.80    2.40
   4 -12   4   -1.40    2.20
   4 -12   4   -2.00    2.40
  -4  12  -4    0.20    2.70
  -4  12  -4    0.50    3.10
   4 -12   3   18.50    3.50
   4 -12   3   22.90    3.80
  -4  12  -3   23.00    5.10
  -4  12  -3   20.90    5.00
   4 -12   2   27.60    3.50
   4 -12   2   47.00    4.50
  -4  12  -2   28.80    4.90
  -4  12  -2   40.00    5.40
   4 -12   1  137.69    6.70
   4 -12   1  130.49    6.50
  -4  12  -1  150.18    9.20
  -4  12  -1  126.29    7.80
   4 -12   0  228.58   10.80
   4 -12   0  264.17   10.10
   4 -12   0  251.27   10.70
   4 -12   0  250.77    9.90
  -4  12   0  241.28   11.00
  -4  12   0  260.67   10.80
  -4  12   0  256.37   12.40
  -4  12   0  243.28    9.80
  -4  12   0  242.88   10.00
   4 -12  -1  144.69    8.00
   4 -12  -1  152.58    7.90
   4 -12  -1  149.09    6.20
   4 -12  -1  143.69    6.80
  -4  12   1  140.99    7.90
  -4  12   1  145.39    7.90
  -4  12   1  156.18    7.30
  -4  12   1  146.79    6.90
   4 -12  -2   54.69    5.40
   4 -12  -2   39.80    5.30
   4 -12  -2   41.50    3.50
  -4  12   2   39.00    4.00
  -4  12   2   43.90    5.00
  -4  12   2   41.60    4.30
  -4  12   2   41.40    4.30
   4 -12  -3   19.90    4.00
   4 -12  -3   26.20    4.70
   4 -12  -3   20.60    3.20
  -4  12   3   26.50    4.40
  -4  12   3   24.50    3.50
  -4  12   3   22.50    3.70
   4 -12  -4   -0.30    2.40
   4 -12  -4    1.90    3.30
   4 -12  -4   -0.80    1.90
  -4  12   4   -0.10    2.00
  -4  12   4    0.20    2.60
  -4  12   4    1.70    2.50
   3 -12   4    7.50    3.20
   3 -12   4    5.30    2.90
  -3  12  -4    2.90    3.40
  -3  12  -4    6.90    3.60
   3 -12   3    8.00    2.60
   3 -12   3    8.60    2.90
  -3  12  -3   10.70    3.60
  -3  12  -3   10.00    3.70
   3 -12   2   18.30    3.00
   3 -12   2   13.50    2.60
  -3  12  -2   23.30    4.60
  -3  12  -2   18.60    3.80
   3 -12   1    7.10    1.70
   3 -12   1    4.50    1.60
  -3  12  -1    8.00    2.50
  -3  12  -1    5.30    2.60
   3 -12   0   64.49    4.80
   3 -12   0   80.89    4.10
   3 -12   0   70.09    3.80
   3 -12   0   77.29    4.80
  -3  12   0   72.99    4.60
  -3  12   0   74.69    4.00
  -3  12   0   74.69    5.00
  -3  12   0   71.39    5.50
   3 -12  -1    7.90    1.30
   3 -12  -1    6.80    2.10
   3 -12  -1    5.90    2.40
   3 -12  -1    8.10    1.60
  -3  12   1    7.60    1.80
  -3  12   1    4.30    1.50
  -3  12   1    4.30    1.80
  -3  12   1    5.10    2.00
   3 -12  -2   13.10    3.30
   3 -12  -2   16.20    3.20
   3 -12  -2   10.20    2.00
  -3  12   2   15.20    2.60
  -3  12   2   13.90    3.00
  -3  12   2   15.50    2.70
  -3  12   2    9.60    2.20
   3 -12  -3    6.10    2.20
   3 -12  -3    8.70    2.90
   3 -12  -3   12.20    3.60
  -3  12   3   12.20    3.00
  -3  12   3   10.80    2.80
  -3  12   3    7.10    2.50
   3 -12  -4    5.60    3.40
   3 -12  -4    3.90    2.70
   3 -12  -4    6.70    2.50
  -3  12   4    7.30    3.10
  -3  12   4    3.60    2.50
  -3  12   4   12.60    3.40
   2 -12   4    4.50    3.00
   2 -12   4    1.20    2.70
  -2  12  -4    7.10    4.10
  -2  12  -4    5.10    3.30
   2 -12   3   11.60    3.10
   2 -12   3   14.50    3.10
  -2  12  -3   14.70    3.90
  -2  12  -3   14.20    3.90
   2 -12   2   25.50    3.30
   2 -12   2   29.80    3.60
  -2  12  -2   37.40    5.20
  -2  12  -2   26.80    4.50
   2 -12   1   23.10    2.80
   2 -12   1   19.70    2.50
   2 -12   1   19.80    2.50
   2 -12   1   22.80    3.00
  -2  12  -1   14.90    3.30
  -2  12  -1   21.70    3.70
   2 -12   0    1.60    1.60
   2 -12   0   -0.80    1.10
   2 -12   0   -0.60    0.70
   2 -12   0    0.10    0.80
  -2  12   0    2.60    1.80
  -2  12   0   -1.00    1.20
  -2  12   0   -1.20    1.00
   2 -12  -1   19.30    3.00
   2 -12  -1   27.50    3.80
   2 -12  -1   22.10    2.30
  -2  12   1   18.60    2.90
  -2  12   1   19.20    2.50
  -2  12   1   27.90    3.40
  -2  12   1   21.20    3.10
  -2  12   1   18.70    2.60
   2 -12  -2   44.90    5.30
   2 -12  -2   31.00    3.10
   2 -12  -2   30.10    4.10
  -2  12   2   37.50    3.90
  -2  12   2   33.70    3.60
  -2  12   2   41.70    4.20
  -2  12   2   31.50    4.20
   2 -12  -3   13.40    3.30
   2 -12  -3   15.10    3.90
   2 -12  -3   12.00    2.40
  -2  12   3   13.20    2.80
  -2  12   3    4.70    2.00
  -2  12   3   11.60    3.10
  -2  12   3   11.50    2.80
   2 -12  -4    3.80    2.30
   2 -12  -4    7.80    3.20
   2 -12  -4    6.50    3.50
  -2  12   4    1.50    2.20
  -2  12   4    8.70    3.20
  -2  12   4    4.00    2.50
   1 -12   4    3.50    2.80
   1 -12   4    2.80    2.30
  -1  12  -4    4.50    3.20
  -1  12  -4    2.70    3.00
  -1  12  -4    2.90    2.40
   1 -12   3   10.90    2.80
   1 -12   3   14.00    3.00
  -1  12  -3   11.70    3.70
  -1  12  -3   16.30    4.20
   1 -12   2   15.00    2.60
   1 -12   2   14.10    2.40
  -1  12  -2   15.90    3.60
  -1  12  -2   12.00    3.30
   1 -12   1  102.49    5.30
   1 -12   1   93.69    5.30
   1 -12   1   98.39    5.10
   1 -12   1   94.89    5.50
  -1  12  -1  106.09    6.60
  -1  12  -1  102.19    6.70
   1 -12   0   28.30    2.30
   1 -12   0   35.30    4.00
   1 -12   0   30.00    3.50
   1 -12   0   27.50    2.10
   1 -12   0   30.50    4.00
  -1  12   0   34.20    4.00
  -1  12   0   35.70    3.90
  -1  12   0   26.90    2.90
   1 -12  -1  111.69    5.00
   1 -12  -1  103.59    6.20
   1 -12  -1  107.19    6.80
  -1  12   1  106.99    6.10
  -1  12   1   92.49    5.20
  -1  12   1   96.29    5.80
  -1  12   1  100.79    5.50
  -1  12   1  109.09    5.50
   1 -12  -2   15.50    3.30
   1 -12  -2   15.30    2.20
   1 -12  -2   20.60    3.40
  -1  12   2   21.40    2.80
  -1  12   2   19.00    2.80
  -1  12   2   17.10    2.80
  -1  12   2   10.60    2.70
   1 -12  -3   17.40    4.00
   1 -12  -3   15.70    2.60
   1 -12  -3   17.60    3.50
  -1  12   3   26.40    3.50
  -1  12   3   21.40    3.70
  -1  12   3   13.20    2.60
  -1  12   3   12.80    2.90
   1 -12  -4   -1.70    2.00
   1 -12  -4    1.40    1.90
   1 -12  -4    6.00    3.70
   1 -12  -4    0.80    3.30
  -1  12   4    4.70    2.70
  -1  12   4    5.90    2.60
  -1  12   4    2.00    2.40
   0 -12   4   14.80    3.60
   0 -12   4    7.40    3.00
   0  12  -4   12.30    3.80
   0  12  -4   14.80    4.20
   0 -12   3   12.90    3.10
   0 -12   3   11.70    3.00
   0  12  -3    6.60    2.50
   0  12  -3   11.00    3.30
   0  12  -3    2.80    2.60
   0 -12   2   28.60    3.30
   0 -12   2   22.40    2.80
   0 -12   2   28.20    3.50
   0 -12   2   23.90    2.70
   0  12  -2   25.90    4.20
   0  12  -2   25.70    4.00
   0 -12   1   11.90    2.00
   0 -12   1   13.00    1.90
   0 -12   1    8.50    2.10
   0 -12   1   12.30    2.10
   0  12  -1    4.90    2.10
   0  12  -1    9.20    2.50
   0 -12   0   11.30    2.30
   0 -12   0   11.10    1.70
   0 -12   0   14.60    3.10
   0 -12   0   16.10    3.00
   0  12   0    8.00    1.60
   0  12   0   16.80    2.80
   0  12   0   14.70    2.70
   0 -12  -1   10.80    2.70
   0 -12  -1   11.40    1.60
   0 -12  -1    7.80    2.20
   0 -12  -1   12.30    3.10
   0  12   1   13.00    2.10
   0  12   1   12.90    2.40
   0  12   1   10.60    2.20
   0  12   1   12.40    2.10
   0 -12  -2   26.70    4.20
   0 -12  -2   33.70    4.30
   0 -12  -2   24.70    2.70
   0 -12  -2   22.40    4.50
   0  12   2   24.90    3.30
   0  12   2   32.40    3.70
   0  12   2   28.80    3.70
   0  12   2   29.80    3.40
   0 -12  -3   12.90    3.70
   0 -12  -3   11.30    2.40
   0 -12  -3    7.20    2.90
   0 -12  -3    8.00    2.80
   0  12   3    9.60    2.60
   0  12   3    9.50    2.70
   0  12   3   12.40    2.50
   0  12   3    9.80    2.50
   0 -12  -4   11.70    4.00
   0 -12  -4   13.10    4.70
   0 -12  -4    9.80    3.30
   0  12   4    7.70    2.70
   0  12   4    8.30    2.90
   0  12   4   14.30    3.20
  -1 -12   4   -0.60    2.40
  -1 -12   4    4.50    3.00
   1  12  -4    0.90    2.70
   1  12  -4    1.50    2.50
  -1 -12   3   17.40    3.10
  -1 -12   3   16.00    3.40
   1  12  -3   18.70    3.90
   1  12  -3   14.00    3.30
   1  12  -3   19.80    4.10
  -1 -12   2   17.90    2.70
  -1 -12   2   16.30    2.60
  -1 -12   2   16.10    2.40
  -1 -12   2   17.30    2.90
   1  12  -2   20.90    3.90
   1  12  -2   12.80    2.60
   1  12  -2   20.40    3.70
  -1 -12   1   95.49    4.90
  -1 -12   1  110.59    6.00
  -1 -12   1  100.59    5.20
  -1 -12   1  111.79    5.80
   1  12  -1   95.89    6.20
   1  12  -1  102.89    6.60
   1  12  -1   94.09    4.80
  -1 -12   0   27.00    4.00
  -1 -12   0   26.30    3.40
  -1 -12   0   31.60    2.30
  -1 -12   0   32.10    4.10
   1  12   0   34.10    3.30
   1  12   0   29.10    3.50
   1  12   0   34.30    3.80
  -1 -12  -1   92.99    6.70
  -1 -12  -1  116.79    7.70
  -1 -12  -1  115.99    6.80
  -1 -12  -1  113.19    4.80
   1  12   1   99.69    5.90
   1  12   1  105.99    5.60
   1  12   1  111.99    6.10
   1  12   1  106.49    5.70
  -1 -12  -2   21.90    2.40
  -1 -12  -2   16.50    3.60
  -1 -12  -2   20.20    3.50
  -1 -12  -2   16.80    4.00
   1  12   2   11.60    2.20
   1  12   2   22.50    3.10
   1  12   2   20.40    3.30
   1  12   2   19.40    2.90
   1  12   2   20.30    2.80
  -1 -12  -3   13.20    3.30
  -1 -12  -3   15.60    4.50
  -1 -12  -3   18.00    2.80
  -1 -12  -3   20.30    4.10
   1  12   3   15.10    2.90
   1  12   3   22.70    3.40
   1  12   3   12.50    3.00
   1  12   3   19.00    3.00
  -1 -12  -4    3.80    3.80
  -1 -12  -4    1.90    2.50
  -1 -12  -4    0.80    3.30
   1  12   4    1.70    2.20
   1  12   4    5.30    2.50
   1  12   4    4.40    2.50
  -2 -12   4    7.40    3.10
  -2 -12   4    6.30    3.10
   2  12  -4    8.40    3.10
   2  12  -4    6.50    3.40
  -2 -12   3   18.40    4.50
  -2 -12   3   11.20    2.80
  -2 -12   3    8.60    2.70
   2  12  -3   11.00    3.00
   2  12  -3    9.30    2.80
   2  12  -3   10.30    3.30
  -2 -12   2   37.20    3.60
  -2 -12   2   33.40    3.80
  -2 -12   2   35.20    3.50
  -2 -12   2   31.80    3.80
   2  12  -2   27.70    4.40
   2  12  -2   27.60    3.80
   2  12  -2   33.10    3.80
  -2 -12   1   19.80    2.20
  -2 -12   1   22.60    3.00
  -2 -12   1   19.80    2.50
  -2 -12   1   16.60    3.40
  -2 -12   1   17.60    2.60
   2  12  -1   16.60    3.20
   2  12  -1   18.50    3.10
   2  12  -1   23.00    2.50
   2  12  -1   10.70    2.40
  -2 -12   0    0.90    1.60
  -2 -12   0   -1.10    1.50
  -2 -12   0    0.20    0.90
  -2 -12   0    0.10    1.70
   2  12   0    0.30    1.40
   2  12   0    2.60    1.40
   2  12   0    0.70    1.10
  -2 -12  -1   23.10    4.30
  -2 -12  -1   22.60    1.90
  -2 -12  -1   14.00    3.20
  -2 -12  -1   23.20    3.60
   2  12   1   19.50    2.80
   2  12   1   25.60    3.10
   2  12   1   17.50    2.80
  -2 -12  -2   30.70    4.30
  -2 -12  -2   33.50    5.50
  -2 -12  -2   35.30    5.00
  -2 -12  -2   36.50    2.70
   2  12   2   33.30    4.10
   2  12   2   31.60    3.50
   2  12   2   30.80    3.70
  -2 -12  -3   11.70    3.10
  -2 -12  -3   13.00    4.30
  -2 -12  -3   11.90    3.60
   2  12   3    8.50    2.70
   2  12   3    9.40    2.50
   2  12   3    8.00    2.60
   2  12   3   10.10    2.50
  -2 -12  -4    2.60    3.70
  -2 -12  -4    5.60    3.40
  -2 -12  -4   -0.60    2.50
   2  12   4    7.00    2.70
   2  12   4    8.60    3.00
   2  12   4    4.30    2.20
   2  12   4    1.30    2.10
  -3 -12   4    7.00    3.40
  -3 -12   4    6.90    3.20
   3  12  -4    6.30    3.70
   3  12  -4    7.60    2.90
  -3 -12   3    4.20    2.60
  -3 -12   3   11.20    2.80
  -3 -12   3   13.50    2.90
  -3 -12   3    7.90    2.50
   3  12  -3    5.60    2.50
   3  12  -3    9.40    3.40
  -3 -12   2   14.80    2.70
  -3 -12   2   22.40    3.00
  -3 -12   2   11.40    2.70
  -3 -12   2   17.50    2.80
   3  12  -2   17.40    3.70
   3  12  -2   14.80    3.10
   3  12  -2   14.10    2.60
  -3 -12   1    8.50    2.10
  -3 -12   1    3.70    2.60
  -3 -12   1    3.50    1.50
  -3 -12   1    8.50    2.20
   3  12  -1    4.20    1.80
   3  12  -1    4.30    2.10
  -3 -12   0   75.59    3.90
  -3 -12   0   83.79    6.70
  -3 -12   0   65.19    5.00
  -3 -12   0   73.79    5.50
   3  12   0   69.99    4.80
   3  12   0   74.69    4.60
   3  12   0   76.29    5.10
  -3 -12  -1    6.50    1.20
  -3 -12  -1    9.80    2.60
  -3 -12  -1    5.90    2.90
  -3 -12  -1    5.50    2.40
   3  12   1    7.40    1.90
   3  12   1    9.00    2.20
   3  12   1    6.60    1.90
  -3 -12  -2   22.70    4.90
  -3 -12  -2   21.00    3.70
  -3 -12  -2   11.80    3.30
   3  12   2   15.20    2.50
   3  12   2   12.20    2.50
   3  12   2   12.80    2.60
   3  12   2   13.20    2.60
  -3 -12  -3    5.90    2.70
  -3 -12  -3    6.60    4.00
  -3 -12  -3    8.00    3.20
   3  12   3    9.60    2.70
   3  12   3    5.60    2.30
   3  12   3    6.60    2.10
   3  12   3    5.90    2.40
  -3 -12  -4    7.70    4.80
  -3 -12  -4   11.70    4.40
  -3 -12  -4    6.80    3.20
   3  12   4   11.20    3.00
   3  12   4    6.00    2.50
   3  12   4   10.60    2.90
   3  12   4    6.30    2.60
  -4 -12   4    1.70    2.70
  -4 -12   4    1.00    2.70
   4  12  -4    0.50    2.20
   4  12  -4   -1.00    2.60
  -4 -12   3   16.90    3.10
  -4 -12   3   23.30    3.70
  -4 -12   3   25.70    3.90
  -4 -12   3   21.70    3.70
   4  12  -3   21.20    3.60
   4  12  -3   23.30    4.50
  -4 -12   2   44.00    4.20
  -4 -12   2   38.30    4.10
  -4 -12   2   39.10    4.40
  -4 -12   2   42.60    3.60
   4  12  -2   36.00    3.90
   4  12  -2   36.90    5.10
   4  12  -2   52.19    4.80
  -4 -12   1  145.59    7.40
  -4 -12   1  154.28    7.00
  -4 -12   1  112.79    8.60
  -4 -12   1  148.49    7.80
   4  12  -1  147.69    7.60
   4  12  -1  145.49    8.30
  -4 -12   0  248.28   11.60
  -4 -12   0  251.57    9.90
  -4 -12   0  241.78   13.50
  -4 -12   0  253.87   12.10
   4  12   0  261.77   11.50
   4  12   0  261.07   11.30
   4  12   0  258.97   11.10
  -4 -12  -1  118.89    8.20
  -4 -12  -1  138.49    9.70
  -4 -12  -1  133.49    7.90
   4  12   1  146.99    7.30
   4  12   1  131.89    7.20
   4  12   1  136.79    7.40
  -4 -12  -2   34.80    5.20
  -4 -12  -2   34.90    4.80
  -4 -12  -2   40.20    6.60
   4  12   2   41.70    4.50
   4  12   2   34.60    4.30
   4  12   2   48.80    4.10
  -4 -12  -3   21.40    4.60
  -4 -12  -3   25.50    5.80
  -4 -12  -3   33.70    5.00
   4  12   3   20.00    3.60
   4  12   3   20.60    3.30
   4  12   3   22.60    3.80
   4  12   3   17.60    3.10
  -4 -12  -4    1.30    2.70
  -4 -12  -4    5.50    3.70
  -4 -12  -4    6.30    4.50
   4  12   4    3.40    2.70
   4  12   4   -1.00    2.20
   4  12   4    0.80    2.10
  -5 -12   4    3.40    3.00
  -5 -12   4    0.00    2.60
  -5 -12   4    0.70    2.40
   5  12  -4   -1.20    2.40
   5  12  -4   -1.00    2.70
  -5 -12   3    0.30    2.10
  -5 -12   3   -0.50    2.10
  -5 -12   3    3.80    2.20
  -5 -12   3    1.20    2.10
   5  12  -3    0.80    2.40
   5  12  -3   -2.40    1.70
  -5 -12   2   11.60    2.70
  -5 -12   2   13.60    2.50
  -5 -12   2   15.00    2.90
  -5 -12   2   10.50    2.40
   5  12  -2   12.00    2.70
   5  12  -2   11.70    3.30
  -5 -12   1  120.49    6.10
  -5 -12   1  111.59    8.40
  -5 -12   1  120.99    6.70
  -5 -12   1  128.09    7.10
   5  12  -1  123.99    6.80
   5  12  -1  121.89    7.60
  -5 -12   0   97.89    6.60
  -5 -12   0   92.09    6.10
  -5 -12   0   93.99    8.00
   5  12   0   95.09    6.00
   5  12   0   98.99    5.90
  -5 -12  -1  128.29    7.90
  -5 -12  -1  130.89    9.90
  -5 -12  -1  120.79    8.20
   5  12   1  125.39    7.10
   5  12   1  126.39    7.40
   5  12   1  136.69    7.10
  -5 -12  -2   17.10    4.80
  -5 -12  -2    7.00    2.80
  -5 -12  -2   10.60    3.30
   5  12   2   12.00    2.60
   5  12   2    7.00    2.20
   5  12   2   12.60    2.90
  -5 -12  -3    1.10    3.50
  -5 -12  -3   -1.90    2.20
  -5 -12  -3    0.60    2.90
   5  12   3    1.60    1.80
   5  12   3   -0.60    2.10
   5  12   3    1.60    2.10
  -5 -12  -4    3.20    3.90
  -5 -12  -4    2.40    4.20
  -5 -12  -4    1.10    2.70
   5  12   4    1.60    2.50
   5  12   4    3.90    2.30
   5  12   4    4.00    2.80
  -6 -12   4    0.10    2.50
  -6 -12   4    8.50    3.30
  -6 -12   4    4.50    3.10
  -6 -12   4    0.20    2.60
   6  12  -4   -0.30    2.70
   6  12  -4    3.50    3.30
  -6 -12   3   10.40    3.20
  -6 -12   3   17.40    3.40
  -6 -12   3   16.90    3.40
  -6 -12   3   19.90    3.90
   6  12  -3   15.50    3.40
   6  12  -3   17.90    4.40
  -6 -12   2   54.49    4.40
  -6 -12   2   65.69    5.70
  -6 -12   2   60.59    5.80
   6  12  -2   57.69    4.60
   6  12  -2   69.19    6.00
  -6 -12   1  505.95   20.70
  -6 -12   1  526.15   20.40
  -6 -12   1  507.35   23.10
   6  12  -1  562.14   20.50
   6  12  -1  519.35   21.30
  -6 -12   0    3.10    2.00
  -6 -12   0    0.70    2.80
  -6 -12   0   -0.70    1.50
   6  12   0    2.40    1.80
   6  12   0    1.10    1.70
  -6 -12  -1  532.25   25.10
  -6 -12  -1  513.65   22.20
  -6 -12  -1  510.15   21.60
   6  12   1  542.95   21.40
   6  12   1  524.05   20.80
   6  12   1  555.44   20.90
  -6 -12  -2   39.30    5.60
  -6 -12  -2   61.39    6.50
  -6 -12  -2   51.69    7.90
   6  12   2   60.09    6.00
   6  12   2   52.29    5.40
   6  12   2   59.79    5.10
  -6 -12  -3   14.80    4.00
  -6 -12  -3   13.60    3.80
  -6 -12  -3   22.00    6.10
   6  12   3   13.70    3.20
   6  12   3   14.40    3.40
   6  12   3   10.20    3.30
  -6 -12  -4    9.20    3.80
  -6 -12  -4    5.80    4.90
  -6 -12  -4    7.30    3.90
   6  12   4    3.10    2.80
   6  12   4    4.30    3.00
  -7 -12   3   11.90    3.20
  -7 -12   3   15.50    3.50
  -7 -12   3   13.60    3.40
  -7 -12   3   13.30    3.70
   7  12  -3   14.10    3.90
  -7 -12   2    8.30    2.70
  -7 -12   2    6.20    2.40
   7  12  -2   10.20    3.10
  -7 -12   1  127.79    9.90
  -7 -12   1  128.19    7.60
  -7 -12   1  140.89    7.50
   7  12  -1  132.59    7.30
   7  12  -1  129.49    7.80
  -7 -12   0  380.06   15.40
  -7 -12   0  354.36   18.90
  -7 -12   0  347.47   15.60
   7  12   0  356.26   15.00
   7  12   0  350.26   15.10
  -7 -12  -1  131.99    8.40
  -7 -12  -1  126.19    7.90
  -7 -12  -1  128.39   10.80
   7  12   1  118.59    7.30
   7  12   1  144.09    7.70
  -7 -12  -2    6.80    2.70
  -7 -12  -2   17.20    5.30
  -7 -12  -2    7.50    3.50
   7  12   2    8.40    2.70
   7  12   2   11.00    2.70
   7  12   2    4.10    2.40
  -7 -12  -3   22.00    5.10
  -7 -12  -3   13.10    5.40
  -7 -12  -3    7.90    3.30
   7  12   3   13.20    3.50
   7  12   3   12.60    3.40
   7  12   3    8.90    3.20
  -8 -12   3   22.90    4.10
   8  12  -3   15.50    4.10
  -8 -12   2   69.89    6.60
  -8 -12   2   66.59    6.30
   8  12  -2   55.39    6.10
  -8 -12   1   52.99    5.20
  -8 -12   1   57.69    5.70
  -8 -12   1   65.59    8.30
   8  12  -1   43.40    5.10
   8  12  -1   54.79    5.00
  -8 -12   0  255.77   12.20
  -8 -12   0  241.38   11.60
  -8 -12   0  222.08   15.00
   8  12   0  265.77   11.80
   8  12   0  255.57   11.80
  -8 -12  -1   51.39    8.20
  -8 -12  -1   51.49    5.60
  -8 -12  -1   51.79    6.00
   8  12   1   54.39    5.50
   8  12   1   50.29    5.20
  -8 -12  -2   64.69    9.50
  -8 -12  -2   42.30    5.60
  -8 -12  -2   47.30    6.10
   8  12   2   59.69    6.10
   8  12   2   50.59    5.50
   8  12   2   58.79    6.40
  -8 -12  -3   16.10    4.70
  -8 -12  -3   16.90    4.30
  -8 -12  -3   18.90    6.30
   8  12   3   17.60    3.80
   8  12   3   12.10    3.60
   8  12   3   24.10    4.60
  -9 -12   3    4.90    3.00
  -9 -12   3    3.30    2.90
   9  12  -3    3.90    3.20
  -9 -12   2    9.70    3.10
  -9 -12   2   15.80    3.50
   9  12  -2    8.60    3.10
  -9 -12   1   59.99    6.20
  -9 -12   1   58.49    5.80
  -9 -12   1   61.89    8.20
   9  12  -1   65.79    5.70
   9  12  -1   53.39    5.70
  -9 -12   0   75.49    9.90
  -9 -12   0   66.79    6.40
  -9 -12   0   48.10    5.10
   9  12   0   50.89    5.40
   9  12   0   48.80    5.00
  -9 -12  -1   62.89    9.70
  -9 -12  -1   38.40    5.30
  -9 -12  -1   54.39    5.70
   9  12   1   47.40    5.20
   9  12   1   56.69    5.80
  -9 -12  -2    9.30    3.60
  -9 -12  -2   13.00    5.50
  -9 -12  -2    8.60    3.10
   9  12   2    4.40    2.70
   9  12   2   13.10    3.30
  -9 -12  -3   10.20    5.30
  -9 -12  -3    4.10    3.70
  -9 -12  -3    1.40    2.80
   9  12   3    1.50    2.50
   9  12   3   -0.10    2.80
  10  12  -3    6.80    3.20
 -10 -12   2   -3.10    2.00
 -10 -12   2    1.20    2.50
  10  12  -2    1.00    2.10
 -10 -12   1   20.50    3.90
 -10 -12   1   22.40    3.80
 -10 -12   1   18.70    5.20
  10  12  -1   21.00    4.00
 -10 -12   0   10.70    3.20
 -10 -12   0    7.20    2.40
 -10 -12   0    8.50    4.60
  10  12   0   13.80    3.20
  10  12   0   11.90    3.10
 -10 -12  -1   23.40    3.90
 -10 -12  -1   23.50    4.40
 -10 -12  -1   19.60    6.30
  10  12   1   19.90    3.80
  10  12   1   28.60    4.60
 -10 -12  -2   -0.50    2.20
 -10 -12  -2    3.60    4.50
 -10 -12  -2    6.90    3.10
  10  12   2   -2.00    1.80
  10  12   2   -2.30    2.20
 -10 -12  -3   15.50    6.90
 -10 -12  -3   16.50    4.40
 -10 -12  -3    8.90    3.90
 -11 -12   2    4.30    3.40
 -11 -12   2    5.70    3.20
  11  12  -2    7.80    3.30
 -11 -12   1    2.60    2.40
 -11 -12   1    5.60    4.10
 -11 -12   1    3.10    2.50
  11  12  -1    6.20    2.90
 -11 -12   0    5.50    4.20
 -11 -12   0    4.90    2.80
 -11 -12   0    4.40    2.40
  11  12   0    1.20    2.40
  11  12   0    5.90    2.70
 -11 -12  -1    2.80    2.90
 -11 -12  -1    3.80    2.30
 -11 -12  -1    4.70    4.80
  11  12   1    0.00    2.40
  11  12   1    1.80    2.50
 -11 -12  -2    2.40    4.80
 -11 -12  -2    7.90    3.40
 -11 -12  -2    5.30    2.90
  11  12   2    1.40    2.60
  11  12   2    5.50    3.00
 -12 -12   1    6.00    4.30
 -12 -12   1    3.10    2.70
 -12 -12   1    3.60    2.70
  12  12  -1    1.30    2.50
 -12 -12   0    8.50    3.10
 -12 -12   0   13.30    5.40
 -12 -12   0   15.60    3.90
  12  12   0   15.60    3.60
  12  12   0   15.20    3.80
 -12 -12  -1    1.50    4.40
 -12 -12  -1    1.80    2.50
 -12 -12  -1    5.90    3.00
  12  12   1    3.50    2.80
  12  12   1    0.80    2.70
 -13 -12   0    1.30    2.30
 -13 -12   0    1.70    4.10
 -13 -12   0    0.80    3.50
  13  12   0   -1.10    2.60
  12 -13   1    1.40    2.20
  12 -13   1    2.50    2.40
 -12  13  -1   -1.70    4.70
  12 -13   0   -1.70    1.60
  12 -13   0    0.70    1.80
  12 -13  -1    0.50    1.90
  12 -13  -1    6.60    2.50
 -12  13   1    4.10    4.00
  11 -13   2   22.20    4.20
  11 -13   2   15.60    3.60
 -11  13  -2    7.90    5.20
  11 -13   1   13.60    2.90
  11 -13   1   10.70    3.20
 -11  13  -1   16.70    5.60
  11 -13   0   15.00    3.00
  11 -13   0   16.30    2.80
 -11  13   0   14.00    4.80
  11 -13  -1   13.50    2.80
  11 -13  -1   20.70    3.40
 -11  13   1   16.50    4.30
  11 -13  -2   26.40    4.10
  11 -13  -2   20.10    3.10
 -11  13   2   15.30    4.40
  10 -13   2   18.50    3.70
  10 -13   2   21.90    3.70
 -10  13  -2   25.90    6.50
  10 -13   1    6.30    2.40
  10 -13   1    3.50    1.90
 -10  13  -1    3.50    3.90
  10 -13   0   -0.40    1.60
  10 -13   0   -0.90    1.50
 -10  13   0   -1.20    2.70
 -10  13   0   -0.70    2.30
  10 -13  -1    5.70    2.20
  10 -13  -1    3.40    2.00
 -10  13   1    0.70    2.60
  10 -13  -2   34.50    4.50
  10 -13  -2   35.50    3.90
 -10  13   2   25.10    5.00
   9 -13   3    3.30    3.00
   9 -13   3    6.30    2.90
  -9  13  -3    5.70    4.80
  -9  13  -3   11.40    5.00
   9 -13   2   15.00    3.20
   9 -13   2    6.00    2.60
  -9  13  -2    4.90    4.20
  -9  13  -2   12.10    4.20
   9 -13   1  102.19    6.20
   9 -13   1  110.79    6.50
  -9  13  -1   92.19   10.10
   9 -13   0   86.99    5.50
   9 -13   0   93.99    5.60
  -9  13   0   83.99    8.80
  -9  13   0   94.29    6.60
   9 -13  -1  118.19    6.70
   9 -13  -1  124.09    6.50
  -9  13   1  107.49    8.10
   9 -13  -2    7.40    2.70
   9 -13  -2   11.40    3.90
   9 -13  -2   14.20    2.50
   9 -13  -2   12.50    3.40
  -9  13   2   12.30    2.90
  -9  13   2   14.80    3.40
  -9  13   2    9.00    3.60
   9 -13  -3   11.70    3.80
   9 -13  -3    9.20    3.70
   9 -13  -3    7.90    2.80
   9 -13  -3    5.20    4.10
  -9  13   3    5.00    3.20
  -9  13   3   10.30    3.30
  -9  13   3    5.50    3.40
   8 -13   3   -1.50    2.20
   8 -13   3    5.50    2.90
  -8  13  -3    8.50    4.50
  -8  13  -3    0.40    3.80
   8 -13   2    7.30    2.50
   8 -13   2    4.60    2.40
  -8  13  -2    9.90    4.10
  -8  13  -2    4.00    3.50
   8 -13   1   47.60    4.10
   8 -13   1   50.69    4.20
  -8  13  -1   65.69    8.10
   8 -13   0    7.40    2.00
   8 -13   0   10.40    2.20
  -8  13   0    1.50    2.90
  -8  13   0    4.40    2.50
   8 -13  -1   64.69    4.60
   8 -13  -1   62.79    4.10
  -8  13   1   65.39    6.60
  -8  13   1   54.89    6.30
   8 -13  -2    7.30    2.20
   8 -13  -2    6.90    2.30
   8 -13  -2    1.10    2.30
   8 -13  -2    6.90    3.40
  -8  13   2    9.10    2.60
  -8  13   2    5.50    3.00
  -8  13   2    7.90    2.70
   8 -13  -3    4.00    3.30
   8 -13  -3    1.60    2.60
   8 -13  -3    6.70    2.60
  -8  13   3    0.80    2.60
  -8  13   3    3.00    2.60
  -8  13   3    0.40    2.60
   7 -13   3    1.30    2.50
   7 -13   3    4.30    2.60
  -7  13  -3   -3.10    3.10
  -7  13  -3   -0.30    3.40
   7 -13   2   11.00    2.80
   7 -13   2   12.00    2.70
  -7  13  -2    5.50    3.80
  -7  13  -2   12.70    3.90
   7 -13   1   14.70    2.70
   7 -13   1   13.80    2.60
  -7  13  -1   16.40    3.70
  -7  13  -1    6.70    3.40
   7 -13   0  451.55   17.30
   7 -13   0  454.15   17.30
  -7  13   0  479.35   21.00
  -7  13   0  440.66   18.40
   7 -13  -1   23.00    3.90
   7 -13  -1   19.90    2.50
   7 -13  -1   20.70    2.90
   7 -13  -1   20.70    3.40
  -7  13   1   17.00    2.90
  -7  13   1   17.60    2.60
  -7  13   1   16.40    3.80
  -7  13   1   22.20    3.90
   7 -13  -2   13.80    3.30
   7 -13  -2   16.90    2.90
   7 -13  -2   16.40    4.10
   7 -13  -2   14.40    2.50
  -7  13   2   19.50    3.90
  -7  13   2   20.40    3.60
  -7  13   2   11.20    2.70
   7 -13  -3    5.20    3.50
   7 -13  -3   -3.70    2.10
   7 -13  -3    0.80    1.80
  -7  13   3    2.00    2.70
  -7  13   3   -1.90    2.10
  -7  13   3    3.50    2.40
   6 -13   3    0.40    2.30
   6 -13   3   -0.40    2.10
  -6  13  -3    1.30    3.00
  -6  13  -3    3.20    3.20
   6 -13   2   17.90    3.10
   6 -13   2   12.70    2.70
  -6  13  -2   11.30    4.00
  -6  13  -2    9.60    3.40
   6 -13   1  130.09    6.90
   6 -13   1  131.49    6.90
  -6  13  -1  130.19    9.50
  -6  13  -1  131.59    8.20
   6 -13   0   91.29    4.80
   6 -13   0   75.89    4.70
  -6  13   0   74.39    5.30
  -6  13   0   88.09    7.10
   6 -13  -1  134.59    7.80
   6 -13  -1  149.29    8.30
   6 -13  -1  156.28    7.20
   6 -13  -1  154.88    6.60
  -6  13   1  150.28    8.80
  -6  13   1  125.59    6.70
  -6  13   1  121.69    7.90
  -6  13   1  144.29    7.30
   6 -13  -2   18.90    3.60
   6 -13  -2   15.20    2.40
   6 -13  -2   10.00    2.40
   6 -13  -2   17.80    3.90
  -6  13   2   15.70    3.30
  -6  13   2   16.30    3.00
  -6  13   2   13.10    2.90
   6 -13  -3    2.60    2.00
   6 -13  -3    0.30    2.70
   6 -13  -3    2.50    2.60
  -6  13   3    1.40    2.40
  -6  13   3   -0.50    2.40
  -6  13   3   -2.50    1.80
   5 -13   4    0.50    2.70
   5 -13   4    1.50    2.70
  -5  13  -4   -0.80    3.50
  -5  13  -4   -4.90    2.90
   5 -13   3    4.40    2.60
   5 -13   3    3.30    2.30
  -5  13  -3    3.90    3.30
  -5  13  -3    4.90    3.50
   5 -13   2   35.60    4.20
   5 -13   2   22.20    3.30
  -5  13  -2   29.30    5.60
  -5  13  -2   26.30    4.70
   5 -13   1   10.90    2.20
   5 -13   1   11.50    2.30
  -5  13  -1   15.50    4.00
  -5  13  -1   17.50    3.60
   5 -13   0   83.99    4.70
   5 -13   0   89.29    4.80
  -5  13   0   89.29    6.90
  -5  13   0   93.99    5.60
  -5  13   0   84.99    4.70
  -5  13   0   84.59    4.50
   5 -13  -1   10.10    2.50
   5 -13  -1   15.10    3.30
   5 -13  -1   20.90    2.70
   5 -13  -1   17.60    2.20
  -5  13   1   14.70    2.70
  -5  13   1   18.50    3.50
  -5  13   1   12.80    2.30
  -5  13   1   12.70    3.00
   5 -13  -2   36.20    4.80
   5 -13  -2   43.50    5.60
   5 -13  -2   26.40    3.40
  -5  13   2   40.00    5.00
  -5  13   2   39.90    4.20
  -5  13   2   40.10    4.40
  -5  13   2   42.60    4.60
   5 -13  -3    3.10    2.60
   5 -13  -3    1.90    1.90
   5 -13  -3    1.00    2.60
  -5  13   3    7.70    2.80
  -5  13   3    4.10    2.50
  -5  13   3    5.90    2.40
   5 -13  -4    1.50    2.80
   5 -13  -4   -0.30    2.20
  -5  13   4   -0.40    2.40
  -5  13   4    3.40    2.80
   4 -13   4    6.00    3.00
   4 -13   4    2.20    2.70
  -4  13  -4    1.90    3.60
  -4  13  -4    1.90    3.30
   4 -13   3   17.70    3.50
   4 -13   3   12.30    3.10
  -4  13  -3    6.60    3.40
  -4  13  -3   18.90    4.60
   4 -13   2   23.80    3.40
   4 -13   2   21.10    3.20
  -4  13  -2   23.20    4.70
  -4  13  -2   25.10    4.50
   4 -13   1   12.10    2.20
   4 -13   1   21.30    2.80
  -4  13  -1   13.00    3.20
  -4  13  -1   14.60    3.70
   4 -13   0  325.97   14.10
   4 -13   0  309.97   14.30
   4 -13   0  361.86   13.50
   4 -13   0  346.47   13.30
  -4  13   0  369.86   16.20
  -4  13   0  355.06   13.30
  -4  13   0  356.46   14.20
  -4  13   0  371.56   14.90
   4 -13  -1   20.90    2.10
   4 -13  -1   16.90    2.30
   4 -13  -1   16.00    3.00
   4 -13  -1   13.50    3.10
  -4  13   1   16.50    3.20
  -4  13   1   12.80    2.80
  -4  13   1   13.00    2.40
  -4  13   1   18.50    2.70
   4 -13  -2   26.70    4.10
   4 -13  -2   20.70    2.90
   4 -13  -2   28.80    4.60
  -4  13   2   27.70    4.00
  -4  13   2   23.40    3.50
  -4  13   2   26.50    3.30
  -4  13   2   19.40    3.20
   4 -13  -3   27.30    5.20
   4 -13  -3   21.80    3.40
   4 -13  -3   16.70    3.90
  -4  13   3   27.10    4.30
  -4  13   3   21.70    3.50
  -4  13   3   23.10    4.30
   4 -13  -4    0.60    2.00
   4 -13  -4    0.30    3.70
   4 -13  -4    0.00    2.40
  -4  13   4    3.60    3.10
  -4  13   4   -0.40    2.60
  -4  13   4   -0.20    2.50
   3 -13   4    0.40    2.90
   3 -13   4    3.90    2.80
  -3  13  -4   -1.50    3.00
  -3  13  -4   -0.10    3.50
   3 -13   3   18.70    3.60
   3 -13   3   19.70    3.60
  -3  13  -3   16.10    4.20
  -3  13  -3   19.10    4.60
   3 -13   2   23.70    3.30
   3 -13   2   19.90    3.10
  -3  13  -2   29.00    5.00
  -3  13  -2   27.70    4.70
   3 -13   1   19.90    2.70
   3 -13   1   28.30    3.20
  -3  13  -1   19.10    3.60
  -3  13  -1   21.40    4.20
   3 -13   0  493.95   20.50
   3 -13   0  513.45   21.00
   3 -13   0  580.74   19.80
   3 -13   0  535.45   19.50
  -3  13   0  530.35   19.60
  -3  13   0  564.54   22.30
  -3  13   0  587.64   21.30
  -3  13   0  534.55   20.40
   3 -13  -1   16.70    3.10
   3 -13  -1   21.30    2.50
   3 -13  -1   23.30    3.70
  -3  13   1   25.20    2.90
  -3  13   1   23.60    3.60
  -3  13   1   25.30    3.10
  -3  13   1   22.40    3.50
   3 -13  -2   20.30    2.80
   3 -13  -2   20.20    3.60
   3 -13  -2   29.30    4.40
  -3  13   2   31.40    3.50
  -3  13   2   27.20    3.60
  -3  13   2   19.90    3.20
  -3  13   2   21.00    3.70
   3 -13  -3   18.60    3.90
   3 -13  -3   18.50    4.40
   3 -13  -3   21.40    3.20
  -3  13   3   21.70    3.40
  -3  13   3   15.70    3.70
  -3  13   3   24.30    3.90
   3 -13  -4    3.10    3.20
   3 -13  -4    3.00    2.40
   3 -13  -4    0.90    2.90
  -3  13   4   -2.00    2.50
  -3  13   4    1.70    2.30
  -3  13   4   -0.20    2.20
   2 -13   4    0.80    2.40
   2 -13   4    2.50    2.80
  -2  13  -4    4.40    3.60
  -2  13  -4   -3.30    2.30
  -2  13  -4    5.10    2.80
   2 -13   3   33.00    4.50
   2 -13   3   32.90    4.50
  -2  13  -3   25.90    5.30
  -2  13  -3   33.90    5.50
   2 -13   2   26.50    3.50
   2 -13   2   31.80    3.80
  -2  13  -2   31.30    5.20
  -2  13  -2   23.00    4.40
   2 -13   1  173.88    8.20
   2 -13   1  169.68    7.80
   2 -13   1  163.28    7.80
   2 -13   1  161.28    7.50
  -2  13  -1  174.88    9.80
  -2  13  -1  170.08    9.30
   2 -13   0    9.10    1.50
   2 -13   0    6.40    2.20
   2 -13   0    7.60    2.20
   2 -13   0   10.50    1.80
  -2  13   0    4.90    1.90
  -2  13   0    7.60    2.30
  -2  13   0    9.50    2.60
   2 -13  -1  153.88    8.70
   2 -13  -1  180.18    9.40
   2 -13  -1  180.68    7.50
  -2  13   1  164.48    8.60
  -2  13   1  181.18    8.20
  -2  13   1  175.18    8.90
  -2  13   1  175.88    7.90
   2 -13  -2   29.80    4.30
   2 -13  -2   35.60    3.50
   2 -13  -2   47.30    5.60
  -2  13   2   38.20    4.10
  -2  13   2   39.80    4.20
  -2  13   2   33.60    4.30
  -2  13   2   37.30    3.80
   2 -13  -3   31.50    3.70
   2 -13  -3   23.70    4.20
   2 -13  -3   29.90    5.30
  -2  13   3   32.30    4.10
  -2  13   3   24.00    3.60
  -2  13   3   25.00    3.70
  -2  13   3   28.00    4.40
   2 -13  -4   -3.60    2.50
   2 -13  -4    3.50    2.20
   2 -13  -4    3.50    2.80
  -2  13   4    0.90    2.10
  -2  13   4    2.60    2.40
  -2  13   4    6.00    3.00
   1 -13   4   -1.70    2.30
   1 -13   4    1.90    2.70
  -1  13  -4    0.30    2.30
  -1  13  -4    3.30    3.20
  -1  13  -4    1.50    2.90
   1 -13   3   30.40    4.20
   1 -13   3   46.00    5.10
  -1  13  -3   43.00    6.00
  -1  13  -3   29.80    5.20
   1 -13   2   11.90    2.40
   1 -13   2    8.00    2.30
  -1  13  -2    9.50    3.10
  -1  13  -2    7.40    3.00
   1 -13   1  174.48    8.10
   1 -13   1  164.38    7.70
   1 -13   1  175.38    8.60
   1 -13   1  175.98    8.30
  -1  13  -1  198.88   10.10
  -1  13  -1  199.58   10.00
   1 -13   0    0.30    1.80
   1 -13   0   -0.50    1.80
   1 -13   0    0.40    1.00
   1 -13   0   -0.80    1.30
  -1  13   0   -0.70    1.10
  -1  13   0    1.70    1.60
  -1  13   0    1.50    1.60
   1 -13  -1  197.98   10.00
   1 -13  -1  195.88    7.90
   1 -13  -1  177.08    9.30
  -1  13   1  169.58    8.80
  -1  13   1  178.98    8.60
  -1  13   1  197.58    8.60
  -1  13   1  192.88    8.40
  -1  13   1  186.18    9.20
   1 -13  -2   15.10    3.70
   1 -13  -2    4.70    2.30
   1 -13  -2   10.50    2.10
  -1  13   2    8.10    2.40
  -1  13   2   11.30    2.40
  -1  13   2   11.20    2.50
  -1  13   2   10.90    2.50
   1 -13  -3   46.10    3.70
   1 -13  -3   41.20    5.40
   1 -13  -3   36.20    5.50
  -1  13   3   41.60    4.50
  -1  13   3   31.90    4.30
  -1  13   3   34.10    4.80
  -1  13   3   37.40    4.20
   1 -13  -4    0.20    2.00
   1 -13  -4   -1.60    3.10
   1 -13  -4    4.40    2.90
   1 -13  -4   -1.40    3.20
  -1  13   4    2.00    2.30
  -1  13   4    2.60    2.50
  -1  13   4    3.10    2.50
   0 -13   4    1.60    2.70
   0 -13   4    1.90    2.60
   0  13  -4   -1.00    2.00
   0  13  -4    0.90    3.10
   0 -13   3   13.70    3.20
   0 -13   3   13.70    3.00
   0  13  -3   11.50    3.50
   0  13  -3   10.80    3.10
   0  13  -3   13.40    3.70
   0 -13   2  102.59    6.20
   0 -13   2   98.19    5.80
   0  13  -2  105.19    7.40
   0  13  -2  127.59    8.20
   0 -13   1  135.49    6.90
   0 -13   1  126.59    6.30
   0 -13   1  141.49    7.40
   0 -13   1  137.99    6.70
   0  13  -1  155.78    8.40
   0  13  -1  149.39    8.40
   0 -13   0   -1.10    1.70
   0 -13   0    1.70    1.00
   0 -13   0   -0.50    1.30
   0 -13   0    0.40    1.50
   0  13   0    0.20    1.40
   0  13   0   -0.50    1.40
   0  13   0    0.70    1.20
   0 -13  -1  132.59    7.90
   0 -13  -1  148.79    8.70
   0 -13  -1  134.89    8.80
   0 -13  -1  150.08    6.30
   0  13   1  150.78    7.20
   0  13   1  139.79    7.50
   0  13   1  149.09    7.10
   0  13   1  143.49    7.60
   0 -13  -2  118.59    7.80
   0 -13  -2  100.19    8.10
   0 -13  -2  104.19    7.00
   0 -13  -2   97.39    5.30
   0  13   2  109.39    6.30
   0  13   2  106.29    6.20
   0  13   2  104.49    6.60
   0  13   2  103.39    5.90
   0 -13  -3   14.80    2.60
   0 -13  -3   12.70    4.20
   0 -13  -3   10.10    3.60
   0 -13  -3   13.40    3.30
   0  13   3   12.60    2.80
   0  13   3    9.70    2.70
   0  13   3   11.60    3.20
   0  13   3   11.00    2.70
   0 -13  -4    3.60    2.70
   0 -13  -4    1.00    3.20
   0 -13  -4    1.40    2.90
   0  13   4   -1.20    1.90
   0  13   4   -1.00    2.00
   0  13   4   -2.20    2.20
  -1 -13   4    2.00    2.80
  -1 -13   4   -0.70    2.30
   1  13  -4    3.10    3.10
   1  13  -4   -0.80    2.10
  -1 -13   3   35.50    4.60
  -1 -13   3   48.90    5.10
   1  13  -3   39.50    5.90
   1  13  -3   34.90    4.50
   1  13  -3   34.70    5.20
  -1 -13   2   11.20    2.40
  -1 -13   2   12.90    2.80
  -1 -13   2   10.70    2.20
  -1 -13   2   11.80    2.40
   1  13  -2    9.20    3.10
   1  13  -2    7.60    2.20
   1  13  -2    9.90    2.70
  -1 -13   1  189.88    9.10
  -1 -13   1  183.18    8.30
  -1 -13   1  186.98    8.70
   1  13  -1  187.88    9.70
   1  13  -1  185.88   10.00
  -1 -13   0    2.80    2.40
  -1 -13   0    0.10    1.00
  -1 -13   0   -0.60    1.40
  -1 -13   0    3.20    2.00
   1  13   0   -0.10    1.30
   1  13   0    3.50    1.80
   1  13   0    0.30    1.10
  -1 -13  -1  191.38    9.80
  -1 -13  -1  198.68    7.60
  -1 -13  -1  183.58   10.70
  -1 -13  -1  191.08   10.30
   1  13   1  184.28    8.60
   1  13   1  173.68    8.80
   1  13   1  184.18    9.00
  -1 -13  -2    8.80    3.20
  -1 -13  -2   15.20    2.10
  -1 -13  -2   10.70    3.70
  -1 -13  -2    9.10    2.80
   1  13   2   11.70    2.30
   1  13   2    9.00    2.30
   1  13   2    9.40    2.50
   1  13   2   10.40    2.40
  -1 -13  -3   31.70    5.20
  -1 -13  -3   45.80    5.60
  -1 -13  -3   34.30    6.10
   1  13   3   36.00    4.40
   1  13   3   39.90    4.50
   1  13   3   37.80    4.80
   1  13   3   33.80    4.10
  -1 -13  -4    1.80    3.70
  -1 -13  -4   -1.00    2.50
  -1 -13  -4    2.20    2.90
   1  13   4    0.80    2.20
   1  13   4    6.00    2.70
   1  13   4    1.00    2.20
  -2 -13   4   -0.10    2.80
  -2 -13   4    1.40    2.50
   2  13  -4    2.50    3.10
   2  13  -4    3.20    3.00
  -2 -13   3   31.00    4.40
  -2 -13   3   40.30    4.70
   2  13  -3   20.30    3.90
   2  13  -3   39.50    5.70
   2  13  -3   27.60    4.00
  -2 -13   2   26.70    3.30
  -2 -13   2   29.70    3.60
  -2 -13   2   36.00    4.10
  -2 -13   2   29.40    3.30
   2  13  -2   23.90    3.30
   2  13  -2   39.80    5.30
   2  13  -2   38.60    4.70
  -2 -13   1  170.38    8.70
  -2 -13   1  168.98    8.20
  -2 -13   1  172.18    7.90
   2  13  -1  179.48    9.60
   2  13  -1  169.28    8.90
  -2 -13   0    8.70    2.90
  -2 -13   0    9.00    1.60
  -2 -13   0    8.30    2.90
  -2 -13   0    9.80    2.50
   2  13   0    7.30    2.10
   2  13   0    9.80    2.50
   2  13   0   11.20    2.20
  -2 -13  -1  185.08    7.10
  -2 -13  -1  165.28   10.50
  -2 -13  -1  156.98    9.60
  -2 -13  -1  173.48    9.40
   2  13   1  176.28    8.70
   2  13   1  173.98    8.40
   2  13   1  173.28    8.60
  -2 -13  -2   35.10    4.70
  -2 -13  -2   34.10    5.10
  -2 -13  -2   27.80    5.20
   2  13   2   31.80    4.10
   2  13   2   30.00    3.60
   2  13   2   34.70    4.10
   2  13   2   22.70    3.10
  -2 -13  -3   32.40    4.90
  -2 -13  -3   29.00    5.00
  -2 -13  -3   28.10    6.00
   2  13   3   26.90    4.20
   2  13   3   26.30    3.90
   2  13   3   28.00    3.70
   2  13   3   41.50    4.70
  -2 -13  -4   -0.80    3.20
  -2 -13  -4   -1.60    2.60
  -2 -13  -4    1.40    2.70
   2  13   4    1.50    2.30
   2  13   4   -1.00    2.00
   2  13   4    6.10    2.80
   2  13   4    2.90    2.60
  -3 -13   4    5.30    2.80
  -3 -13   4   -3.90    2.00
   3  13  -4    7.30    3.00
   3  13  -4   -0.40    3.10
  -3 -13   3   19.70    3.60
  -3 -13   3   18.30    3.20
  -3 -13   3   22.90    3.80
  -3 -13   3   20.70    3.40
   3  13  -3   21.50    4.50
   3  13  -3   15.30    3.30
  -3 -13   2   22.60    3.30
  -3 -13   2   22.50    3.20
  -3 -13   2   26.40    3.30
  -3 -13   2   30.20    3.40
   3  13  -2   24.60    3.70
   3  13  -2   22.60    4.20
  -3 -13   1   25.40    3.60
  -3 -13   1   22.80    3.10
  -3 -13   1   21.10    2.90
   3  13  -1   28.20    4.20
   3  13  -1   26.50    3.50
  -3 -13   0  541.65   19.90
  -3 -13   0  567.94   22.10
  -3 -13   0  555.44   23.80
  -3 -13   0  515.15   22.10
   3  13   0  565.74   21.10
   3  13   0  567.44   21.80
   3  13   0  573.74   21.60
  -3 -13  -1   16.60    4.50
  -3 -13  -1   17.90    3.70
  -3 -13  -1   18.60    3.50
   3  13   1   29.10    3.50
   3  13   1   23.30    3.20
   3  13   1   24.30    3.30
  -3 -13  -2   23.70    4.00
  -3 -13  -2   23.10    4.90
  -3 -13  -2   21.60    4.20
   3  13   2   22.90    3.70
   3  13   2   26.40    3.60
   3  13   2   24.60    3.30
  -3 -13  -3   12.50    4.00
  -3 -13  -3   17.80    5.20
  -3 -13  -3   15.20    3.70
   3  13   3   20.60    3.50
   3  13   3   22.60    3.50
   3  13   3   15.30    3.50
  -3 -13  -4    4.40    3.30
  -3 -13  -4    1.20    2.60
  -3 -13  -4   -2.70    3.30
   3  13   4    3.10    2.40
   3  13   4    5.40    2.70
   3  13   4    3.00    2.60
   3  13   4    2.00    2.50
  -4 -13   4   -2.80    2.60
  -4 -13   4    1.40    2.80
   4  13  -4   -0.40    2.70
   4  13  -4   -0.10    2.10
  -4 -13   3   17.00    3.40
  -4 -13   3   11.90    2.90
  -4 -13   3   15.20    3.20
  -4 -13   3   21.90    3.70
   4  13  -3   18.10    3.40
   4  13  -3   26.30    4.70
  -4 -13   2   25.00    3.50
  -4 -13   2   22.60    3.20
  -4 -13   2   29.60    3.90
   4  13  -2   26.60    3.80
   4  13  -2   21.10    4.20
  -4 -13   1   19.30    2.60
  -4 -13   1   21.10    4.60
  -4 -13   1   23.30    3.50
  -4 -13   1   20.20    3.00
   4  13  -1   14.80    2.90
   4  13  -1   15.70    3.40
  -4 -13   0  363.46   17.80
  -4 -13   0  345.77   15.40
  -4 -13   0  348.77   15.90
   4  13   0  384.36   15.10
   4  13   0  364.46   15.10
   4  13   0  370.96   15.50
  -4 -13  -1   22.80    3.80
  -4 -13  -1   13.60    4.20
  -4 -13  -1   16.80    3.60
   4  13   1   22.60    3.20
   4  13   1   14.70    2.80
   4  13   1   20.00    3.20
  -4 -13  -2   20.60    4.00
  -4 -13  -2   12.20    4.50
  -4 -13  -2   22.50    4.40
   4  13   2   23.50    3.70
   4  13   2   16.70    2.90
   4  13   2   18.90    3.20
  -4 -13  -3   18.00    4.40
  -4 -13  -3   20.60    5.50
  -4 -13  -3   14.30    3.90
   4  13   3   22.50    3.50
   4  13   3   19.10    3.70
   4  13   3   21.50    3.80
  -4 -13  -4   -0.70    3.60
  -4 -13  -4   -0.20    3.60
  -4 -13  -4    7.10    3.30
   4  13   4    0.60    2.60
   4  13   4    1.90    2.30
   4  13   4    2.00    2.30
  -5 -13   4    0.50    2.90
  -5 -13   4    3.10    3.00
   5  13  -4   -1.00    2.30
   5  13  -4   -3.50    2.70
  -5 -13   3    3.00    2.20
  -5 -13   3    3.90    2.40
  -5 -13   3    3.20    2.30
  -5 -13   3    1.50    2.20
   5  13  -3    1.90    2.80
   5  13  -3    3.00    3.80
  -5 -13   2   31.20    3.80
  -5 -13   2   37.30    4.50
  -5 -13   2   36.90    4.20
   5  13  -2   35.80    5.10
   5  13  -2   33.20    4.00
  -5 -13   1   11.50    2.50
  -5 -13   1   21.50    3.40
  -5 -13   1   20.00    4.70
   5  13  -1   12.30    3.00
   5  13  -1   14.40    2.80
  -5 -13   0   71.19    5.60
  -5 -13   0  101.49    9.90
  -5 -13   0   94.99    6.40
   5  13   0   87.39    5.70
   5  13   0   83.09    5.60
   5  13   0   87.89    5.80
  -5 -13  -1   13.60    3.20
  -5 -13  -1   10.70    4.20
  -5 -13  -1   19.10    3.90
   5  13   1   11.10    2.90
   5  13   1   18.20    3.00
   5  13   1   12.00    2.60
  -5 -13  -2   26.50    4.80
  -5 -13  -2   30.20    6.30
  -5 -13  -2   32.80    4.90
   5  13   2   27.00    4.20
   5  13   2   36.20    4.30
   5  13   2   30.40    4.10
  -5 -13  -3    6.00    3.30
  -5 -13  -3    4.50    2.90
  -5 -13  -3    4.30    3.70
   5  13   3    4.70    2.50
   5  13   3    6.40    2.70
   5  13   3    2.20    2.30
  -5 -13  -4   -0.30    2.80
  -5 -13  -4    2.80    3.20
  -5 -13  -4   -2.20    3.50
   5  13   4   -0.80    1.60
   5  13   4    2.10    2.40
  -6 -13   3    2.30    2.60
  -6 -13   3    0.90    2.40
  -6 -13   3    0.10    2.20
   6  13  -3    1.00    2.90
  -6 -13   2   10.50    3.10
  -6 -13   2   15.70    3.10
   6  13  -2   13.30    2.90
   6  13  -2   13.20    3.50
  -6 -13   1  135.69    7.50
  -6 -13   1  139.19   10.10
  -6 -13   1  141.29    7.90
   6  13  -1  128.69    8.10
   6  13  -1  142.49    7.70
  -6 -13   0   76.39    5.70
  -6 -13   0   93.09    9.80
  -6 -13   0   79.39    6.00
   6  13   0   89.19    5.90
   6  13   0   79.09    5.70
  -6 -13  -1  129.99    8.80
  -6 -13  -1  127.39   10.60
  -6 -13  -1  129.89    8.20
   6  13   1  141.89    7.70
   6  13   1  138.89    8.00
   6  13   1  141.29    7.80
  -6 -13  -2   12.20    3.20
  -6 -13  -2   11.40    4.60
  -6 -13  -2   11.30    3.70
   6  13   2   15.90    3.50
   6  13   2   16.60    3.20
   6  13   2   11.20    2.80
  -6 -13  -3   -2.10    3.40
  -6 -13  -3    1.30    2.50
  -6 -13  -3   -1.20    2.90
   6  13   3   -1.00    2.20
   6  13   3    0.40    2.30
   6  13   3    2.70    2.50
  -7 -13   3    3.60    2.80
  -7 -13   3    5.00    3.00
   7  13  -3    1.20    2.80
  -7 -13   2   16.60    3.60
  -7 -13   2   21.60    3.70
   7  13  -2   13.30    3.60
  -7 -13   1   15.80    4.50
  -7 -13   1   15.20    3.30
  -7 -13   1   20.30    3.30
   7  13  -1   20.00    3.60
   7  13  -1   17.60    3.10
  -7 -13   0  419.06   21.90
  -7 -13   0  441.96   18.30
  -7 -13   0  414.76   18.50
   7  13   0  466.15   18.20
   7  13   0  448.16   18.20
  -7 -13  -1   13.40    3.20
  -7 -13  -1   14.00    3.60
  -7 -13  -1   15.80    5.10
   7  13   1   15.40    3.20
   7  13   1   24.10    3.70
  -7 -13  -2   13.40    4.10
  -7 -13  -2   10.20    3.40
  -7 -13  -2    7.10    4.20
   7  13   2   23.90    4.20
   7  13   2   15.50    3.40
   7  13   2   13.50    3.10
  -7 -13  -3   -2.70    3.00
  -7 -13  -3   -1.50    3.10
  -7 -13  -3    0.90    2.60
   7  13   3   -1.00    2.50
   7  13   3   -0.10    2.30
   7  13   3    2.90    2.80
  -8 -13   3    8.80    3.50
  -8 -13   3    2.40    2.90
   8  13  -3    4.30    3.00
  -8 -13   2   12.70    3.20
  -8 -13   2    5.50    2.60
   8  13  -2    9.30    3.10
  -8 -13   1   65.79    5.80
  -8 -13   1   52.49    5.70
  -8 -13   1   45.70    7.30
   8  13  -1   54.69    5.70
   8  13  -1   55.69    5.30
  -8 -13   0    7.30    2.40
  -8 -13   0    5.60    2.50
  -8 -13   0    4.00    4.20
   8  13   0    4.60    2.30
   8  13   0   11.60    2.90
  -8 -13  -1   59.29    6.60
  -8 -13  -1   44.50    8.10
  -8 -13  -1   58.19    6.10
   8  13   1   64.79    6.20
   8  13   1   59.79    5.20
  -8 -13  -2    5.40    3.50
  -8 -13  -2   10.80    3.20
  -8 -13  -2    9.90    5.00
   8  13   2    7.00    2.70
   8  13   2   10.40    3.40
   8  13   2    9.60    2.80
  -8 -13  -3    0.20    3.90
  -8 -13  -3    9.40    3.50
  -8 -13  -3    6.00    3.90
   8  13   3    6.10    2.90
   8  13   3    8.80    3.30
   8  13   3    4.60    2.80
  -9 -13   3    1.10    2.80
   9  13  -3    6.20    3.40
  -9 -13   2   12.00    3.10
  -9 -13   2    9.60    3.20
   9  13  -2   11.10    3.50
  -9 -13   1  114.69    7.80
  -9 -13   1  111.99    7.10
  -9 -13   1  115.99   11.50
   9  13  -1  107.99    7.30
   9  13  -1  106.79    7.00
  -9 -13   0   85.29    6.10
  -9 -13   0   78.09   10.40
  -9 -13   0   84.89    6.40
   9  13   0   89.49    6.30
   9  13   0   87.29    6.30
  -9 -13  -1   97.89   12.30
  -9 -13  -1  109.39    7.50
  -9 -13  -1  114.09    8.10
   9  13   1  120.99    7.80
   9  13   1  126.89    7.70
  -9 -13  -2   15.80    5.70
  -9 -13  -2   10.40    3.30
  -9 -13  -2   13.70    4.00
   9  13   2   11.90    3.50
   9  13   2   12.10    3.40
  -9 -13  -3   10.10    4.30
  -9 -13  -3    7.60    3.80
  -9 -13  -3    2.00    5.20
   9  13   3    5.80    3.30
   9  13   3    4.80    3.10
 -10 -13   2   27.50    4.60
 -10 -13   2   43.10    5.70
  10  13  -2   27.60    4.60
 -10 -13   1    3.40    3.50
 -10 -13   1    3.60    2.60
 -10 -13   1    2.70    2.50
  10  13  -1    7.90    3.00
 -10 -13   0    4.10    4.10
 -10 -13   0   -0.70    1.90
 -10 -13   0    0.20    2.20
  10  13   0    0.30    2.10
  10  13   0   -0.20    1.80
 -10 -13  -1    0.90    2.60
 -10 -13  -1    0.50    4.20
 -10 -13  -1    0.30    2.10
  10  13   1    6.80    3.00
  10  13   1    6.80    2.70
 -10 -13  -2   27.20    5.30
 -10 -13  -2   32.10    4.90
 -10 -13  -2   28.00    6.90
  10  13   2   30.70    4.90
  10  13   2   36.90    5.50
 -11 -13   2   29.30    4.80
  11  13  -2   21.30    4.50
 -11 -13   1   13.90    3.70
 -11 -13   1   21.50    3.90
 -11 -13   1   14.40    5.40
  11  13  -1   13.50    3.60
 -11 -13   0   11.70    3.10
 -11 -13   0   23.60    6.70
 -11 -13   0   13.20    3.60
  11  13   0   16.30    3.50
  11  13   0   16.10    3.80
 -11 -13  -1   10.80    3.60
 -11 -13  -1   14.50    6.30
 -11 -13  -1   11.40    3.30
  11  13   1   21.90    4.40
  11  13   1   17.50    3.80
 -11 -13  -2    9.30    6.10
 -11 -13  -2   17.30    3.80
 -11 -13  -2   18.20    4.70
  11  13   2   25.40    4.60
  11  13   2   12.50    4.00
 -12 -13   1   -2.40    3.60
 -12 -13   1    4.90    2.90
  12  13  -1   12.20    3.60
 -12 -13   0   -2.40    3.80
 -12 -13   0    3.50    3.20
 -12 -13   0    2.40    2.60
  12  13   0   -1.10    2.90
  12  13   0   -0.30    2.70
 -12 -13  -1    2.60    2.40
 -12 -13  -1    0.30    2.90
 -12 -13  -1    3.80    4.80
  12  13   1    5.20    2.90
  12  13   1    4.90    3.40
  11 -14   1    6.10    2.90
  11 -14   1    7.90    2.60
 -11  14  -1    9.60    5.20
  11 -14   0   13.30    3.00
  11 -14   0    8.40    2.40
 -11  14   0   10.30    5.00
  11 -14  -1    6.70    2.40
  11 -14  -1    6.60    2.60
 -11  14   1    6.00    3.30
  10 -14   2   15.90    3.70
  10 -14   2    6.30    2.80
 -10  14  -2   12.70    5.30
  10 -14   1    5.60    2.40
  10 -14   1    6.50    2.50
 -10  14  -1    9.20    4.50
  10 -14   0   18.60    3.00
  10 -14   0   14.50    2.80
 -10  14   0   24.80    5.90
  10 -14  -1    6.30    2.30
  10 -14  -1    5.50    2.20
 -10  14   1   10.10    3.60
  10 -14  -2   16.50    2.80
  10 -14  -2   13.30    3.30
 -10  14   2   12.30    4.10
   9 -14   2    9.60    2.90
   9 -14   2    8.50    2.60
  -9  14  -2    5.20    4.20
  -9  14  -2    9.00    4.40
   9 -14   1   17.60    3.40
   9 -14   1   14.20    3.00
  -9  14  -1   17.40    4.90
   9 -14   0    3.80    2.10
   9 -14   0    4.90    1.90
  -9  14   0    2.30    3.30
   9 -14  -1   18.00    2.90
   9 -14  -1   16.90    2.90
  -9  14   1   14.40    3.60
   9 -14  -2   12.20    3.70
   9 -14  -2    8.30    2.50
   9 -14  -2   11.30    2.40
  -9  14   2    7.70    2.90
  -9  14   2    6.90    3.00
  -9  14   2    6.10    3.20
   8 -14   3    4.70    2.60
   8 -14   3    1.40    2.50
  -8  14  -3   -0.40    3.60
  -8  14  -3    7.40    4.10
   8 -14   2   13.20    3.10
   8 -14   2    9.30    2.70
  -8  14  -2   10.30    3.80
  -8  14  -2   18.10    5.20
   8 -14   1    7.40    2.30
   8 -14   1   11.20    2.50
  -8  14  -1    5.10    3.60
   8 -14   0    1.20    1.50
   8 -14   0    1.60    1.50
  -8  14   0   -0.50    3.00
  -8  14   0    0.70    2.50
   8 -14  -1   12.60    2.50
   8 -14  -1   14.20    2.50
  -8  14   1    5.30    3.00
  -8  14   1   10.00    3.30
   8 -14  -2   15.50    3.90
   8 -14  -2   10.20    3.70
   8 -14  -2   18.70    2.90
   8 -14  -2   16.10    3.10
  -8  14   2   22.70    4.40
  -8  14   2   15.80    3.10
  -8  14   2   17.00    3.60
   8 -14  -3    4.30    2.40
   8 -14  -3    4.20    3.60
   8 -14  -3    7.80    3.50
  -8  14   3    5.80    3.10
  -8  14   3    8.50    3.20
  -8  14   3   13.50    3.90
   7 -14   3    2.00    2.60
   7 -14   3    3.50    2.50
  -7  14  -3    2.80    3.60
  -7  14  -3    3.40    4.00
   7 -14   2    7.90    2.60
   7 -14   2    8.40    2.90
  -7  14  -2    4.30    3.60
  -7  14  -2    9.20    4.00
   7 -14   1   14.40    2.70
   7 -14   1   17.20    3.00
  -7  14  -1   15.00    4.30
   7 -14   0    2.90    1.60
   7 -14   0    1.40    1.60
  -7  14   0    2.80    2.30
  -7  14   0    0.90    2.70
   7 -14  -1   17.80    2.70
   7 -14  -1   23.60    2.80
  -7  14   1   15.60    2.50
  -7  14   1   15.90    3.50
  -7  14   1   20.10    3.80
   7 -14  -2   12.80    3.80
   7 -14  -2   13.10    3.40
   7 -14  -2   10.80    2.60
  -7  14   2   14.20    3.10
  -7  14   2   12.10    2.90
  -7  14   2   13.00    3.60
   7 -14  -3   -3.60    2.90
   7 -14  -3   -0.10    2.00
   7 -14  -3    3.60    3.20
  -7  14   3    0.20    2.20
  -7  14   3   -0.30    2.40
  -7  14   3    0.70    2.70
   6 -14   3    8.80    3.10
   6 -14   3   11.90    3.30
  -6  14  -3    9.90    4.30
  -6  14  -3   10.80    5.00
   6 -14   2    3.70    2.40
   6 -14   2    2.70    1.90
  -6  14  -2    1.60    3.00
  -6  14  -2    3.20    3.00
   6 -14   1   73.69    4.90
   6 -14   1   69.29    4.70
  -6  14  -1   58.69    7.50
  -6  14  -1   77.79    7.40
   6 -14   0    8.50    2.00
   6 -14   0   10.10    2.00
  -6  14   0   14.60    3.90
  -6  14   0    9.10    2.50
   6 -14  -1   80.59    5.90
   6 -14  -1   84.19    4.60
   6 -14  -1   78.29    4.90
   6 -14  -1   74.79    6.90
  -6  14   1   85.99    5.40
  -6  14   1   73.39    4.70
  -6  14   1   74.79    5.80
  -6  14   1   76.69    6.20
   6 -14  -2    3.80    3.00
   6 -14  -2   -0.90    1.40
   6 -14  -2    4.30    2.40
  -6  14   2    6.00    2.60
  -6  14   2    0.60    1.90
  -6  14   2    5.60    2.60
   6 -14  -3   18.20    3.50
   6 -14  -3    6.20    3.00
   6 -14  -3    7.60    3.60
  -6  14   3   11.20    3.40
  -6  14   3   12.30    3.20
  -6  14   3   13.20    3.70
   5 -14   3    1.60    2.30
   5 -14   3    0.90    2.20
  -5  14  -3    0.10    3.00
  -5  14  -3    1.50    3.30
   5 -14   2   13.70    3.00
   5 -14   2   19.80    3.40
  -5  14  -2   22.30    5.10
  -5  14  -2   15.80    4.20
   5 -14   1   29.50    3.50
   5 -14   1   22.60    3.10
  -5  14  -1   24.70    4.90
  -5  14  -1   30.50    4.70
   5 -14   0   -0.50    1.20
   5 -14   0   -0.10    1.10
  -5  14   0   -0.50    1.50
  -5  14   0    0.60    2.30
   5 -14  -1   26.40    4.00
   5 -14  -1   28.80    3.10
   5 -14  -1   26.30    3.90
  -5  14   1   20.60    3.70
  -5  14   1   22.10    3.20
  -5  14   1   28.00    3.20
  -5  14   1   21.90    3.90
   5 -14  -2   10.60    3.10
   5 -14  -2   21.10    4.40
   5 -14  -2   15.70    2.60
  -5  14   2   19.90    3.10
  -5  14   2   14.00    3.00
  -5  14   2   19.90    3.30
  -5  14   2   17.60    3.70
   5 -14  -3   -1.60    2.20
   5 -14  -3    6.00    3.80
   5 -14  -3    3.70    2.10
  -5  14   3    1.30    2.50
  -5  14   3    0.70    2.10
  -5  14   3    5.50    2.90
  -4  14  -4   -1.60    3.00
  -4  14  -4    6.80    4.30
   4 -14   3    3.80    2.40
   4 -14   3    7.60    3.00
  -4  14  -3    7.10    3.50
  -4  14  -3    7.50    4.00
   4 -14   2   19.20    3.10
   4 -14   2   11.00    2.60
  -4  14  -2   12.20    3.70
  -4  14  -2   21.50    4.70
   4 -14   1   44.70    3.80
   4 -14   1   52.99    3.80
  -4  14  -1   59.19    6.10
  -4  14  -1   58.99    6.70
   4 -14   0   13.50    2.00
   4 -14   0   17.10    3.20
   4 -14   0   12.70    2.10
   4 -14   0   17.10    2.90
  -4  14   0   14.10    2.00
  -4  14   0   13.20    3.20
  -4  14   0   11.90    2.50
   4 -14  -1   53.09    3.60
   4 -14  -1   62.99    6.20
   4 -14  -1   48.00    5.00
  -4  14   1   45.50    4.30
  -4  14   1   61.69    6.00
  -4  14   1   51.29    3.80
   4 -14  -2   18.70    3.60
   4 -14  -2   14.90    2.60
   4 -14  -2   19.40    4.20
  -4  14   2   18.10    3.40
  -4  14   2   16.40    3.20
  -4  14   2   17.10    3.00
  -4  14   2   16.10    3.30
   4 -14  -3    6.80    2.20
   4 -14  -3    3.80    2.80
   4 -14  -3    2.20    2.80
  -4  14   3    6.90    2.80
  -4  14   3    6.80    2.50
  -4  14   3    3.70    2.50
   3 -14   4   -1.20    2.80
   3 -14   4   -3.30    2.30
  -3  14  -4    0.40    2.90
  -3  14  -4    3.00    3.60
   3 -14   3   20.30    3.80
   3 -14   3   14.00    3.20
  -3  14  -3   16.30    4.50
  -3  14  -3   20.30    4.80
   3 -14   2    1.20    1.70
   3 -14   2    0.20    1.50
  -3  14  -2    0.90    2.60
  -3  14  -2    1.20    2.30
   3 -14   1   25.50    3.00
   3 -14   1   24.60    3.00
  -3  14  -1   20.60    3.80
  -3  14  -1   26.70    4.60
   3 -14   0   49.99    5.10
   3 -14   0   53.09    3.50
   3 -14   0   44.10    4.80
   3 -14   0   49.20    4.70
  -3  14   0   49.20    5.50
  -3  14   0   47.90    4.80
  -3  14   0   46.20    3.80
   3 -14  -1   22.50    2.60
   3 -14  -1   31.60    4.50
   3 -14  -1   22.80    3.70
  -3  14   1   25.10    3.00
  -3  14   1   26.80    4.00
  -3  14   1   16.60    3.20
  -3  14   1   22.60    3.10
   3 -14  -2   -1.00    2.00
   3 -14  -2   -0.50    1.80
   3 -14  -2   -0.50    1.30
  -3  14   2   -0.40    1.70
  -3  14   2    1.20    1.70
  -3  14   2    2.20    1.70
  -3  14   2    0.90    2.20
   3 -14  -3   20.00    4.10
   3 -14  -3   16.70    4.40
   3 -14  -3   16.40    2.80
  -3  14   3   13.20    3.40
  -3  14   3   18.80    3.60
  -3  14   3   13.30    3.00
   3 -14  -4   -2.00    2.10
   3 -14  -4    1.20    2.70
  -3  14   4    3.60    2.90
  -3  14   4    2.60    2.70
   2 -14   4    1.20    2.90
   2 -14   4    3.30    3.10
  -2  14  -4    1.20    3.30
  -2  14  -4    2.20    3.60
  -2  14  -4    3.70    2.80
   2 -14   3    2.70    2.40
   2 -14   3    8.80    3.00
  -2  14  -3    3.80    3.10
  -2  14  -3    3.70    3.00
   2 -14   2   16.20    3.00
   2 -14   2   15.70    2.80
  -2  14  -2   12.30    3.50
  -2  14  -2   12.00    3.70
   2 -14   1  235.88    9.90
   2 -14   1  225.58   10.10
  -2  14  -1  238.88   12.30
  -2  14  -1  240.18   12.00
   2 -14   0    1.80    1.40
   2 -14   0   -0.50    1.60
   2 -14   0   -1.70    1.80
  -2  14   0    1.20    1.80
  -2  14   0   -0.80    1.70
  -2  14   0    1.80    1.70
   2 -14  -1  267.47   12.50
   2 -14  -1  246.38   11.80
   2 -14  -1  264.57   10.10
  -2  14   1  227.38   11.20
  -2  14   1  236.28   10.70
  -2  14   1  247.68   11.60
  -2  14   1  243.58   10.50
   2 -14  -2   15.20    3.60
   2 -14  -2   15.70    2.50
   2 -14  -2   12.10    3.20
  -2  14   2   21.50    3.30
  -2  14   2   20.80    3.10
  -2  14   2   16.50    3.40
  -2  14   2   14.70    3.00
   2 -14  -3    6.00    2.10
   2 -14  -3    7.50    3.00
   2 -14  -3    5.50    3.10
  -2  14   3    2.40    2.30
  -2  14   3   -0.50    1.90
  -2  14   3    5.70    2.30
  -2  14   3   13.10    4.10
   2 -14  -4    5.70    6.10
   2 -14  -4    1.10    2.00
   2 -14  -4    0.00    2.40
  -2  14   4    4.70    2.80
  -2  14   4    1.60    2.20
   1 -14   4   -2.70    2.20
   1 -14   4    3.50    2.60
  -1  14  -4    2.40    3.50
  -1  14  -4    1.30    2.80
  -1  14  -4    0.80    3.10
   1 -14   3   24.40    3.90
   1 -14   3   23.30    3.90
  -1  14  -3   24.10    4.90
  -1  14  -3   25.90    5.10
   1 -14   2  203.28    9.60
   1 -14   2  216.08   10.00
  -1  14  -2  189.68   11.30
  -1  14  -2  203.08   11.50
   1 -14   1  317.37   13.30
   1 -14   1  326.17   13.10
   1 -14   1  303.57   12.70
   1 -14   1  314.27   13.60
  -1  14  -1  333.07   15.30
  -1  14  -1  350.66   15.20
   1 -14   0   64.69    5.20
   1 -14   0   74.69    5.80
   1 -14   0   63.39    5.00
   1 -14   0   70.99    4.10
  -1  14   0   66.29    5.30
  -1  14   0   71.39    5.20
  -1  14   0   62.89    4.40
   1 -14  -1  348.97   16.10
   1 -14  -1  320.57   15.10
   1 -14  -1  324.17   14.60
   1 -14  -1  338.07   12.70
  -1  14   1  333.87   13.40
  -1  14   1  328.67   14.10
  -1  14   1  324.57   14.30
   1 -14  -2  198.98    8.80
   1 -14  -2  182.38   11.00
   1 -14  -2  189.78   10.60
  -1  14   2  211.98   10.00
  -1  14   2  202.78    9.50
  -1  14   2  213.48   10.50
  -1  14   2  217.28   10.00
   1 -14  -3   25.10    5.00
   1 -14  -3   30.60    3.60
   1 -14  -3   20.80    5.20
   1 -14  -3   24.60    4.50
  -1  14   3   22.30    3.60
  -1  14   3   21.50    3.50
  -1  14   3   17.80    3.60
  -1  14   3   23.30    3.60
   1 -14  -4    3.50    3.10
   1 -14  -4    6.60    3.70
   1 -14  -4   -0.30    3.10
  -1  14   4    3.80    2.40
  -1  14   4   -0.40    2.80
  -1  14   4    1.50    2.90
   0 -14   4    5.70    3.00
   0 -14   4    5.10    3.00
   0  14  -4    3.20    3.00
   0  14  -4    0.90    3.00
   0 -14   3   23.70    3.70
   0 -14   3   32.50    4.40
   0  14  -3   27.30    4.80
   0  14  -3   24.80    3.90
   0  14  -3   20.80    4.60
   0 -14   2   81.69    5.60
   0 -14   2   85.49    5.50
   0  14  -2   97.79    7.40
   0  14  -2   99.09    7.20
   0 -14   1    0.20    1.50
   0 -14   1    1.30    1.80
   0 -14   1    0.20    1.30
   0  14  -1    1.30    2.20
   0  14  -1   -0.20    2.00
   0 -14   0   22.70    4.10
   0 -14   0   25.10    3.50
   0 -14   0   20.20    2.40
   0 -14   0   21.60    3.60
   0  14   0   25.70    3.10
   0  14   0   22.70    3.50
   0  14   0   19.80    3.30
   0 -14  -1    2.10    2.30
   0 -14  -1    1.30    2.20
   0 -14  -1    0.70    1.80
   0 -14  -1    1.90    1.20
   0  14   1    0.90    1.60
   0  14   1    2.00    1.50
   0  14   1    2.30    1.50
   0  14   1   -0.10    1.60
   0 -14  -2   99.29    8.20
   0 -14  -2   94.49    5.10
   0 -14  -2   90.59    6.80
   0 -14  -2   90.39    7.30
   0  14   2  100.49    6.20
   0  14   2  100.59    6.20
   0  14   2   86.59    6.30
   0  14   2   98.29    5.90
   0 -14  -3   37.60    4.20
   0 -14  -3   27.90    4.80
   0 -14  -3   32.80    5.60
   0 -14  -3   24.40    5.40
   0  14   3   27.10    4.00
   0  14   3   28.60    3.90
   0  14   3   35.60    4.80
   0  14   3   25.60    3.80
   0 -14  -4    7.70    3.30
   0 -14  -4    1.80    3.40
   0 -14  -4    1.80    3.40
   0  14   4    1.70    2.30
   0  14   4    3.30    2.60
   0  14   4    4.60    2.80
  -1 -14   4   -1.30    2.40
  -1 -14   4   -2.80    2.60
   1  14  -4    4.40    3.00
   1  14  -4    0.40    3.00
  -1 -14   3   27.30    4.40
  -1 -14   3   29.70    4.10
   1  14  -3   25.60    4.90
   1  14  -3   26.20    4.80
   1  14  -3   25.40    4.20
  -1 -14   2  195.48    9.20
  -1 -14   2  197.58    9.60
   1  14  -2  203.78   11.40
   1  14  -2  188.68    9.90
   1  14  -2  208.38   10.90
  -1 -14   1  322.57   13.80
  -1 -14   1  314.17   13.30
  -1 -14   1  309.97   12.90
   1  14  -1  319.67   14.50
   1  14  -1  334.67   15.00
  -1 -14   0   66.79    5.10
  -1 -14   0   71.19    4.00
  -1 -14   0   69.49    5.90
  -1 -14   0   66.49    6.30
   1  14   0   62.69    4.50
   1  14   0   76.29    5.40
   1  14   0   62.69    5.00
  -1 -14  -1  349.96   12.40
  -1 -14  -1  314.57   14.60
  -1 -14  -1  294.37   15.70
  -1 -14  -1  307.87   15.10
   1  14   1  308.97   13.70
   1  14   1  347.27   13.70
   1  14   1  331.97   14.10
  -1 -14  -2  197.68   11.50
  -1 -14  -2  193.98   12.30
  -1 -14  -2  206.08    8.60
  -1 -14  -2  191.68   10.80
   1  14   2  217.58   10.50
   1  14   2  202.88    9.60
   1  14   2  205.08   10.00
  -1 -14  -3   31.60    5.70
  -1 -14  -3   12.50    3.40
  -1 -14  -3   16.80    4.90
   1  14   3   24.90    4.00
   1  14   3   24.30    3.60
   1  14   3   22.70    3.90
   1  14   3   26.40    4.00
  -1 -14  -4    2.90    3.30
  -1 -14  -4    0.90    2.70
  -1 -14  -4    2.40    3.90
   1  14   4    2.00    2.40
   1  14   4    4.10    2.70
   1  14   4    0.70    2.00
  -2 -14   4    2.00    3.10
  -2 -14   4    1.70    2.60
   2  14  -4    0.10    3.10
   2  14  -4    3.70    2.80
  -2 -14   3    4.90    2.30
  -2 -14   3    6.30    2.80
   2  14  -3    6.70    3.40
   2  14  -3    7.50    3.20
   2  14  -3    9.30    3.00
  -2 -14   2   14.00    2.80
  -2 -14   2   12.90    2.60
  -2 -14   2   10.90    2.50
   2  14  -2   16.80    3.40
   2  14  -2   14.50    3.70
  -2 -14   1  255.87   10.70
  -2 -14   1  246.58   11.00
  -2 -14   1  252.67   11.50
   2  14  -1  243.38   12.20
   2  14  -1  233.18   11.60
  -2 -14   0   -0.10    1.70
  -2 -14   0    0.00    1.00
  -2 -14   0   -1.30    1.80
  -2 -14   0   -0.20    2.00
   2  14   0    1.80    1.80
   2  14   0   -0.50    1.50
   2  14   0   -0.10    1.50
  -2 -14  -1  229.48   11.90
  -2 -14  -1  219.58   13.10
  -2 -14  -1  211.88   12.30
  -2 -14  -1  263.17    9.60
   2  14   1  246.78   11.30
   2  14   1  240.18   11.20
   2  14   1  263.47   11.10
  -2 -14  -2   20.00    5.00
  -2 -14  -2   14.00    3.50
  -2 -14  -2   12.80    3.70
   2  14   2   13.90    3.00
   2  14   2   17.60    2.90
   2  14   2   11.80    3.00
  -2 -14  -3    6.30    3.20
  -2 -14  -3    3.80    2.80
  -2 -14  -3    5.60    2.80
   2  14   3    7.30    2.60
   2  14   3    8.00    2.40
   2  14   3    4.90    2.50
   2  14   3    5.20    2.40
  -2 -14  -4    0.10    2.60
  -2 -14  -4    0.80    4.10
  -2 -14  -4    3.40    3.40
   2  14   4    2.60    2.60
   2  14   4    1.40    2.50
   2  14   4    2.30    2.70
   2  14   4   -1.50    2.00
  -3 -14   4    3.30    3.00
  -3 -14   4   -0.50    2.60
   3  14  -4    1.00    3.60
   3  14  -4    1.20    2.80
  -3 -14   3   13.40    3.20
  -3 -14   3   17.20    3.30
   3  14  -3   19.60    4.40
   3  14  -3   22.10    3.90
  -3 -14   2    0.20    1.70
  -3 -14   2    1.80    1.80
  -3 -14   2    0.50    1.60
   3  14  -2    6.80    3.10
   3  14  -2    3.00    2.20
  -3 -14   1   28.20    3.90
  -3 -14   1   25.80    3.40
  -3 -14   1   23.20    2.90
   3  14  -1   22.00    3.90
   3  14  -1   20.30    3.50
  -3 -14   0   50.39    6.50
  -3 -14   0   50.99    5.20
  -3 -14   0   48.50    3.50
  -3 -14   0   63.29    6.30
   3  14   0   49.80    4.00
   3  14   0   54.29    5.10
   3  14   0   54.19    4.60
  -3 -14  -1   28.60    4.50
  -3 -14  -1   20.00    3.80
  -3 -14  -1   23.80    5.10
   3  14   1   25.30    3.40
   3  14   1   20.40    3.20
   3  14   1   26.40    3.70
  -3 -14  -2    1.30    2.50
  -3 -14  -2    1.30    2.30
  -3 -14  -2   -1.50    1.70
   3  14   2    0.30    1.60
   3  14   2   -0.50    1.80
   3  14   2    0.90    1.70
  -3 -14  -3   16.90    4.40
  -3 -14  -3   16.80    5.20
  -3 -14  -3   12.80    3.60
   3  14   3   10.70    2.80
   3  14   3   16.70    3.40
   3  14   3   13.60    3.40
  -3 -14  -4    2.50    2.60
  -3 -14  -4    0.30    3.10
  -3 -14  -4   -0.40    3.80
   3  14   4    2.50    2.90
   3  14   4   -3.70    2.50
   3  14   4    2.10    2.30
  -4 -14   4    1.10    2.70
   4  14  -4    2.30    3.20
  -4 -14   3    5.30    2.60
  -4 -14   3    4.80    2.50
  -4 -14   3    3.50    2.50
   4  14  -3    6.70    3.40
  -4 -14   2   12.00    2.80
  -4 -14   2   18.60    3.40
  -4 -14   2   14.80    2.90
   4  14  -2   20.90    4.20
   4  14  -2   24.80    3.80
  -4 -14   1   52.39    5.00
  -4 -14   1   58.79    4.10
  -4 -14   1   53.39    5.40
   4  14  -1   54.29    5.20
   4  14  -1   53.79    5.80
  -4 -14   0   16.40    3.20
  -4 -14   0    7.50    3.50
  -4 -14   0   14.40    3.30
   4  14   0   15.50    2.70
   4  14   0   12.60    2.80
   4  14   0   11.70    2.60
  -4 -14  -1   50.19    6.10
  -4 -14  -1   47.80    5.50
  -4 -14  -1   44.40    7.00
   4  14   1   52.09    5.00
   4  14   1   55.79    5.40
   4  14   1   57.29    4.60
  -4 -14  -2   17.20    4.10
  -4 -14  -2   13.40    3.40
  -4 -14  -2   14.10    4.80
   4  14   2   12.10    2.70
   4  14   2    8.90    2.50
   4  14   2   21.20    3.60
  -4 -14  -3    4.30    3.20
  -4 -14  -3    6.20    3.00
  -4 -14  -3    4.40    3.40
   4  14   3    4.60    2.50
   4  14   3    2.90    2.40
  -4 -14  -4    0.90    2.80
   4  14   4    4.40    2.60
  -5 -14   3    5.80    2.70
  -5 -14   3    1.50    2.20
  -5 -14   3    3.00    2.60
   5  14  -3    1.70    2.70
  -5 -14   2   12.60    2.90
  -5 -14   2   18.40    3.60
  -5 -14   2   15.20    3.00
   5  14  -2   15.20    3.70
   5  14  -2   21.80    3.70
  -5 -14   1   21.00    3.30
  -5 -14   1   23.90    3.80
   5  14  -1   19.80    3.80
   5  14  -1   26.00    3.60
  -5 -14   0    1.30    1.70
  -5 -14   0    0.60    1.80
  -5 -14   0   -1.70    3.00
   5  14   0    0.40    1.60
   5  14   0   -1.30    1.40
   5  14   0    1.20    1.70
  -5 -14  -1   22.80    5.50
  -5 -14  -1   27.50    4.80
  -5 -14  -1   26.60    4.30
   5  14   1   30.30    4.20
   5  14   1   31.10    4.00
   5  14   1   26.40    3.70
  -5 -14  -2   23.80    5.50
  -5 -14  -2   23.50    5.10
  -5 -14  -2    9.00    3.10
   5  14   2   24.00    3.80
   5  14   2   14.40    3.20
   5  14   2   15.10    3.40
  -5 -14  -3    5.20    4.30
  -5 -14  -3    3.40    3.30
  -5 -14  -3    5.20    2.90
   5  14   3    2.00    2.50
   5  14   3    2.00    2.40
  -6 -14   3    7.90    3.40
  -6 -14   3   15.60    3.80
  -6 -14   3   10.00    3.10
   6  14  -3    7.00    3.50
  -6 -14   2    0.40    1.80
  -6 -14   2   -1.20    2.10
   6  14  -2    0.60    2.30
   6  14  -2    1.60    1.90
  -6 -14   1   80.89    6.10
  -6 -14   1   82.39    5.60
   6  14  -1   68.39    5.80
   6  14  -1   76.99    5.70
  -6 -14   0   11.40    3.20
  -6 -14   0   15.40    3.10
  -6 -14   0   13.60    4.60
   6  14   0   10.80    2.80
   6  14   0    8.90    2.50
  -6 -14  -1   64.09    6.60
  -6 -14  -1   77.69    9.70
  -6 -14  -1   70.59    7.50
   6  14   1   76.29    5.60
   6  14   1   74.99    5.90
   6  14   1   89.09    6.00
  -6 -14  -2    6.50    4.30
  -6 -14  -2    1.00    2.30
  -6 -14  -2   -1.10    2.60
   6  14   2   -0.20    2.10
   6  14   2   -0.50    1.80
   6  14   2   -0.10    1.80
  -6 -14  -3    3.30    4.40
  -6 -14  -3   15.50    4.50
  -6 -14  -3   14.40    4.00
   6  14   3   17.20    4.00
   6  14   3   12.20    3.60
   6  14   3   10.00    3.40
  -7 -14   3   -2.80    2.40
  -7 -14   3    0.80    2.80
   7  14  -3   -3.00    2.40
  -7 -14   2   11.90    3.00
  -7 -14   2   16.20    3.60
   7  14  -2    7.90    3.20
  -7 -14   1   14.00    3.00
  -7 -14   1   15.80    3.30
  -7 -14   1   14.50    4.70
   7  14  -1   14.70    2.90
   7  14  -1   14.60    3.30
  -7 -14   0    1.30    3.70
  -7 -14   0    1.10    2.10
  -7 -14   0    3.10    2.10
   7  14   0    4.30    2.40
   7  14   0    3.60    2.20
  -7 -14  -1   12.10    5.00
  -7 -14  -1   18.60    3.80
  -7 -14  -1   20.50    4.20
   7  14   1   16.50    3.40
   7  14   1   26.20    4.00
  -7 -14  -2   14.30    3.60
  -7 -14  -2    7.80    3.50
  -7 -14  -2   12.00    5.10
   7  14   2    8.90    3.00
   7  14   2   11.00    3.20
   7  14   2    8.90    2.80
  -7 -14  -3    1.00    2.50
  -7 -14  -3   -3.60    2.70
  -7 -14  -3    1.50    3.50
   7  14   3    4.90    2.90
   7  14   3    3.00    2.70
   7  14   3   -1.40    2.20
  -8 -14   3   10.40    3.80
  -8 -14   3    8.00    3.20
   8  14  -3    4.40    3.20
  -8 -14   2   14.60    3.30
  -8 -14   2   17.70    4.00
   8  14  -2   20.70    4.00
  -8 -14   1    4.30    4.30
  -8 -14   1    2.80    2.20
  -8 -14   1   13.60    3.30
   8  14  -1   12.00    3.10
   8  14  -1   13.20    2.90
  -8 -14   0    1.40    1.90
  -8 -14   0    0.20    1.90
  -8 -14   0   11.00    5.10
   8  14   0    0.50    1.80
   8  14   0    2.00    2.00
  -8 -14  -1    9.00    2.80
  -8 -14  -1   12.80    3.60
  -8 -14  -1   12.50    5.20
   8  14   1    7.60    2.80
   8  14   1   13.90    3.30
  -8 -14  -2   22.40    5.00
  -8 -14  -2   18.20    6.10
  -8 -14  -2   12.70    3.80
   8  14   2   24.60    4.70
   8  14   2   17.80    3.90
   8  14   2   12.00    3.30
  -8 -14  -3    6.00    4.30
  -8 -14  -3    3.50    3.20
  -8 -14  -3    8.60    5.50
   8  14   3    5.70    3.10
   8  14   3    6.20    3.20
   8  14   3    6.90    3.10
  -9 -14   2    8.30    3.20
  -9 -14   2    5.80    2.90
   9  14  -2    3.90    2.70
  -9 -14   1   14.20    5.00
  -9 -14   1   26.70    4.10
  -9 -14   1   22.90    4.10
   9  14  -1   15.80    3.40
   9  14  -1   14.20    3.30
  -9 -14   0    5.80    2.80
  -9 -14   0    2.70    4.40
  -9 -14   0    7.10    2.40
   9  14   0    2.20    2.20
   9  14   0   -1.40    2.00
  -9 -14  -1   20.70    4.20
  -9 -14  -1    8.20    4.70
  -9 -14  -1   15.50    3.60
   9  14   1   13.20    3.30
   9  14   1   19.60    3.80
  -9 -14  -2   11.20    3.80
  -9 -14  -2   10.90    3.20
  -9 -14  -2    8.00    5.50
   9  14   2   12.90    3.70
   9  14   2    8.70    3.20
 -10 -14   2   13.80    3.80
  10  14  -2   14.80    4.00
 -10 -14   1    4.20    2.80
 -10 -14   1    1.30    3.80
 -10 -14   1    7.20    2.80
  10  14  -1    0.20    2.70
 -10 -14   0   23.70    6.50
 -10 -14   0   26.50    4.60
 -10 -14   0   24.40    3.90
  10  14   0   28.30    4.50
  10  14   0   22.20    4.00
 -10 -14  -1    3.10    2.50
 -10 -14  -1   -1.00    2.50
 -10 -14  -1    2.70    4.80
  10  14   1    3.40    2.60
  10  14   1    3.40    2.70
 -10 -14  -2   11.80    6.00
 -10 -14  -2   12.50    4.40
 -10 -14  -2   11.60    3.90
  10  14   2   15.90    4.30
  10  14   2   13.00    3.70
 -11 -14   1    7.50    4.70
 -11 -14   1    9.70    3.30
  11  14  -1    6.30    3.10
 -11 -14   0   11.20    5.40
 -11 -14   0    8.50    2.80
 -11 -14   0    8.20    3.50
  11  14   0    6.70    2.90
  11  14   0   10.20    3.40
 -11 -14  -1   12.30    6.10
 -11 -14  -1    3.50    2.50
 -11 -14  -1    6.20    3.30
  11  14   1    7.00    3.40
  11  14   1    3.40    3.00
  11 -15   0    0.80    2.30
  11 -15   0   -0.20    2.00
 -11  15   0    4.90    4.10
  10 -15   1    8.60    3.20
  10 -15   1    8.50    2.90
 -10  15  -1   15.20    5.20
  10 -15   0   15.30    3.20
  10 -15   0   25.60    3.50
 -10  15   0   13.90    4.90
  10 -15  -1    5.10    2.30
  10 -15  -1    6.30    2.30
 -10  15   1    7.40    3.50
   9 -15   2    3.40    2.50
   9 -15   2    1.30    2.60
  -9  15  -2    2.30    3.90
   9 -15   1   13.70    3.00
   9 -15   1   15.40    3.20
  -9  15  -1   12.20    4.50
   9 -15   0   13.80    2.80
   9 -15   0   12.60    2.60
  -9  15   0    9.40    4.20
   9 -15  -1   19.90    3.10
   9 -15  -1   17.90    3.30
  -9  15   1   11.00    3.70
   9 -15  -2    6.20    2.50
  -9  15   2    4.00    3.40
   8 -15   2    3.70    2.50
   8 -15   2    6.60    2.80
  -8  15  -2    5.60    4.10
  -8  15  -2   13.50    4.40
   8 -15   1    0.30    1.90
   8 -15   1    1.70    2.00
  -8  15  -1    1.40    2.90
   8 -15   0  128.29    6.90
   8 -15   0  124.89    6.70
  -8  15   0  122.59    9.40
   8 -15  -1    1.20    1.70
   8 -15  -1    1.40    1.80
  -8  15   1    0.60    2.30
  -8  15   1    2.30    2.80
   8 -15  -2   11.10    3.50
   8 -15  -2    7.70    2.40
   8 -15  -2    2.40    3.70
  -8  15   2    6.40    3.00
  -8  15   2    5.30    2.60
  -8  15   2    6.70    2.70
   7 -15   3    0.50    2.50
   7 -15   3    0.50    2.70
  -7  15  -3    0.80    3.50
  -7  15  -3    2.00    3.50
   7 -15   2    5.90    2.50
   7 -15   2    6.00    2.50
  -7  15  -2    8.90    4.10
  -7  15  -2    5.40    3.90
   7 -15   1    6.00    2.40
   7 -15   1    3.30    2.00
  -7  15  -1    4.60    3.40
   7 -15   0   19.50    2.80
   7 -15   0   16.00    2.60
  -7  15   0   19.90    4.50
   7 -15  -1    8.80    3.00
   7 -15  -1    7.10    2.10
  -7  15   1    6.20    3.10
  -7  15   1    6.20    2.80
   7 -15  -2   12.80    2.80
   7 -15  -2    9.60    4.10
   7 -15  -2   11.60    3.40
  -7  15   2   12.30    3.30
  -7  15   2    8.40    2.70
  -7  15   2   10.80    3.10
   7 -15  -3    7.90    4.10
   7 -15  -3    2.90    3.20
   7 -15  -3    0.00    2.00
  -7  15   3    3.80    3.10
  -7  15   3   -0.10    2.30
  -7  15   3    8.50    3.30
   6 -15   3    1.10    2.30
   6 -15   3    0.00    2.30
  -6  15  -3   -4.30    3.20
  -6  15  -3   -1.60    3.10
   6 -15   2    3.10    2.00
   6 -15   2    2.60    2.30
  -6  15  -2    2.30    3.30
  -6  15  -2    6.20    3.70
   6 -15   1   35.90    4.10
   6 -15   1   34.10    4.00
  -6  15  -1   44.00    6.70
   6 -15   0    6.30    1.90
   6 -15   0    4.70    1.80
  -6  15   0    5.10    3.00
   6 -15  -1   40.40    3.90
   6 -15  -1   37.80    4.70
   6 -15  -1   33.60    4.80
  -6  15   1   30.00    4.60
  -6  15   1   39.70    4.20
  -6  15   1   31.40    4.80
  -6  15   1   44.30    4.20
   6 -15  -2    3.50    2.00
   6 -15  -2    2.80    3.30
   6 -15  -2    2.20    2.40
  -6  15   2    9.20    2.90
  -6  15   2    6.30    2.90
  -6  15   2    3.70    2.10
   6 -15  -3   -0.90    3.00
   6 -15  -3    1.20    1.90
   6 -15  -3   -2.20    2.60
  -6  15   3    2.00    2.50
  -6  15   3   -0.40    2.10
  -6  15   3    0.50    2.60
   5 -15   3   -3.00    2.20
   5 -15   3    5.50    2.90
  -5  15  -3    1.40    3.60
  -5  15  -3    2.00    3.00
   5 -15   2   15.80    3.10
   5 -15   2   20.40    3.40
  -5  15  -2   29.70    5.60
  -5  15  -2   24.70    4.90
   5 -15   1    6.30    2.20
   5 -15   1    6.10    2.00
  -5  15  -1    9.00    3.60
  -5  15  -1    4.80    2.70
   5 -15   0   22.40    2.80
   5 -15   0   25.20    3.00
  -5  15   0   26.20    4.50
  -5  15   0   27.90    4.70
   5 -15  -1   11.40    3.20
   5 -15  -1    6.20    1.90
   5 -15  -1   11.00    3.20
  -5  15   1    6.70    2.20
  -5  15   1    5.50    2.00
  -5  15   1    9.50    3.10
  -5  15   1    8.10    2.60
   5 -15  -2   24.30    4.80
   5 -15  -2   35.10    4.90
   5 -15  -2   29.20    3.70
  -5  15   2   29.70    4.10
  -5  15   2   24.80    4.30
  -5  15   2   21.10    3.30
  -5  15   2   23.90    4.00
   5 -15  -3    3.60    3.40
   5 -15  -3    2.40    2.20
   5 -15  -3    0.60    2.50
  -5  15   3    6.90    3.20
  -5  15   3    1.40    2.60
  -5  15   3    3.40    2.30
   4 -15   3    1.90    2.40
   4 -15   3   -1.30    2.00
  -4  15  -3    6.50    3.60
  -4  15  -3    1.50    3.10
   4 -15   2    2.60    1.90
   4 -15   2    1.00    2.00
  -4  15  -2    4.30    2.80
  -4  15  -2   -0.10    2.70
   4 -15   1   41.20    3.60
   4 -15   1   45.10    3.60
  -4  15  -1   42.30    5.50
  -4  15  -1   48.60    6.30
   4 -15   0   19.60    2.70
  -4  15   0   21.40    4.00
  -4  15   0   17.80    2.90
   4 -15  -1   46.90    3.50
   4 -15  -1   50.79    5.40
   4 -15  -1   41.40    5.40
  -4  15   1   42.80    4.30
  -4  15   1   48.80    5.60
  -4  15   1   54.29    4.50
  -4  15   1   55.99    5.50
   4 -15  -2    3.10    2.90
   4 -15  -2    5.20    2.10
   4 -15  -2    2.50    2.20
  -4  15   2    3.80    1.90
  -4  15   2    2.10    2.10
  -4  15   2    6.40    2.40
  -4  15   2    5.50    2.30
   4 -15  -3    1.70    1.80
   4 -15  -3    0.10    2.60
   4 -15  -3    0.80    3.00
  -4  15   3   -1.90    1.90
  -4  15   3    1.90    2.50
  -4  15   3    3.40    2.40
   3 -15   3    1.90    2.70
   3 -15   3   -2.60    2.20
  -3  15  -3    4.30    3.40
  -3  15  -3    6.20    3.30
   3 -15   2   -2.70    1.50
   3 -15   2   -2.60    1.50
  -3  15  -2    1.20    2.20
  -3  15  -2    0.90    2.40
   3 -15   1   13.20    2.30
   3 -15   1   12.80    2.40
  -3  15  -1   11.90    3.40
  -3  15  -1    8.70    2.90
   3 -15   0    5.80    2.40
   3 -15   0    6.80    2.30
   3 -15   0    7.70    1.80
  -3  15   0    7.00    2.80
  -3  15   0    8.70    2.80
  -3  15   0    7.30    2.20
   3 -15  -1    5.30    2.60
   3 -15  -1    9.50    1.90
   3 -15  -1    7.90    2.90
  -3  15   1   14.10    2.60
  -3  15   1   11.90    2.80
  -3  15   1   11.50    2.80
  -3  15   1   10.20    2.10
   3 -15  -2   -0.50    1.40
   3 -15  -2   -1.40    2.40
   3 -15  -2    3.20    2.40
  -3  15   2    0.70    1.70
  -3  15   2   -0.70    1.80
  -3  15   2   -0.10    1.90
  -3  15   2   -0.20    2.00
   3 -15  -3    8.50    3.70
   3 -15  -3   -0.50    2.20
   3 -15  -3    0.10    1.70
  -3  15   3   -0.30    2.50
  -3  15   3    3.30    2.20
  -3  15   3    0.80    2.10
   2 -15   3   16.90    3.70
   2 -15   3   15.90    3.50
  -2  15  -3   19.90    4.80
  -2  15  -3   19.00    4.50
   2 -15   2   10.90    2.60
   2 -15   2    7.90    2.40
  -2  15  -2   12.00    3.70
  -2  15  -2   10.00    3.60
   2 -15   1   31.30    3.50
  -2  15  -1   24.20    4.20
  -2  15  -1   29.70    4.80
   2 -15   0  235.38   12.00
   2 -15   0  212.08   10.80
   2 -15   0  223.38   11.40
   2 -15   0  247.88   10.00
  -2  15   0  238.58   10.50
  -2  15   0  248.18   11.50
  -2  15   0  237.08   11.90
   2 -15  -1   31.50    2.80
   2 -15  -1   31.80    4.70
   2 -15  -1   27.20    4.10
  -2  15   1   30.90    4.00
  -2  15   1   30.60    3.50
  -2  15   1   33.80    4.40
   2 -15  -2   10.40    3.10
   2 -15  -2   13.10    3.70
   2 -15  -2   11.80    2.30
  -2  15   2    6.00    2.30
  -2  15   2   12.70    2.70
  -2  15   2   14.30    3.20
  -2  15   2   11.40    2.70
   2 -15  -3   21.10    4.20
   2 -15  -3   18.90    3.20
   2 -15  -3   15.00    4.40
  -2  15   3   19.30    3.90
  -2  15   3   22.40    3.80
  -2  15   3    4.70    2.40
  -1  15  -4    9.80    4.20
   1 -15   3   14.10    3.20
   1 -15   3   21.00    4.00
  -1  15  -3   17.50    4.60
  -1  15  -3   10.70    3.50
   1 -15   2   97.49    6.20
   1 -15   2  104.69    6.50
  -1  15  -2  109.09    8.10
  -1  15  -2  112.69    8.20
   1 -15   1   22.00    3.00
   1 -15   1   36.20    4.10
   1 -15   1   28.70    3.50
  -1  15  -1   20.10    3.90
  -1  15  -1   27.60    4.60
   1 -15   0    3.90    2.30
   1 -15   0    9.50    2.00
   1 -15   0   10.20    2.70
   1 -15   0   12.00    3.20
  -1  15   0   11.60    2.90
  -1  15   0   12.40    2.30
  -1  15   0   13.90    3.00
   1 -15  -1   33.30    4.40
   1 -15  -1   28.10    5.00
   1 -15  -1   27.40    2.70
   1 -15  -1   18.80    3.90
  -1  15   1   30.10    4.00
  -1  15   1   24.20    3.50
  -1  15   1   31.50    3.50
   1 -15  -2  123.19    8.40
   1 -15  -2  113.89    7.70
   1 -15  -2  105.29    5.70
   1 -15  -2   87.79    9.30
  -1  15   2  102.59    6.30
  -1  15   2   97.59    6.50
  -1  15   2  114.59    6.80
  -1  15   2  110.29    7.10
   1 -15  -3   15.40    4.40
   1 -15  -3   18.10    3.00
   1 -15  -3   15.90    3.90
   1 -15  -3   15.40    4.70
  -1  15   3   24.30    4.30
  -1  15   3   12.90    3.10
  -1  15   3   19.30    3.60
  -1  15   3   21.60    3.80
   0  15  -4    0.30    2.40
   0  15  -4    1.80    3.50
   0 -15   3   47.70    5.20
   0 -15   3   38.90    4.90
   0  15  -3   53.49    7.30
   0  15  -3   53.39    5.70
   0  15  -3   49.50    6.30
   0 -15   2   23.30    3.60
   0  15  -2    9.30    3.30
   0  15  -2   11.20    3.60
   0 -15   1    2.00    1.60
   0 -15   1    2.90    1.90
   0 -15   1    1.60    1.50
   0  15  -1    2.80    2.20
   0  15  -1   -2.00    1.80
   0 -15   0   -0.60    1.00
   0 -15   0    1.10    1.90
   0 -15   0    0.30    2.00
   0 -15   0    0.00    2.00
   0  15   0   -0.80    1.40
   0  15   0   -2.70    1.40
   0  15   0    0.80    1.60
   0 -15  -1    3.40    2.30
   0 -15  -1    0.80    2.40
   0 -15  -1    1.90    1.20
   0 -15  -1    4.50    2.70
   0  15   1    2.00    1.50
   0  15   1    3.10    2.00
   0  15   1    2.70    1.80
   0 -15  -2   14.80    3.80
   0 -15  -2   10.50    4.00
   0 -15  -2   17.00    2.40
   0 -15  -2   10.20    3.30
   0  15   2   14.70    2.70
   0  15   2   13.60    2.90
   0  15   2    9.70    2.90
   0  15   2   18.50    3.30
   0 -15  -3   49.70    6.80
   0 -15  -3   47.80    6.00
   0 -15  -3   43.30    7.30
   0  15   3   47.30    5.30
   0  15   3   42.90    5.00
   0  15   3   47.60    5.80
   0  15   3   45.50    4.90
   0 -15  -4   -1.80    2.20
   0  15   4    4.40    2.70
  -1 -15   3   18.70    3.60
  -1 -15   3   18.10    3.40
   1  15  -3   14.40    4.30
   1  15  -3   11.90    3.20
   1  15  -3   22.00    4.50
  -1 -15   2  121.59    7.10
   1  15  -2  103.39    7.60
   1  15  -2  108.19    8.30
  -1 -15   1   32.50    4.00
  -1 -15   1   31.40    4.00
  -1 -15   1   27.60    3.30
   1  15  -1   21.40    3.80
   1  15  -1   32.30    4.60
  -1 -15   0    7.60    2.80
  -1 -15   0    2.30    2.70
  -1 -15   0    8.40    2.60
  -1 -15   0   10.40    2.00
   1  15   0    8.60    2.60
   1  15   0    6.90    2.30
   1  15   0   11.30    2.30
  -1 -15  -1   34.20    5.60
  -1 -15  -1   31.10    4.90
  -1 -15  -1   26.80    4.30
  -1 -15  -1   29.70    2.40
   1  15   1   31.60    3.90
   1  15   1   32.40    4.00
   1  15   1   26.10    3.70
  -1 -15  -2  122.99    8.60
  -1 -15  -2   89.69    7.20
  -1 -15  -2   85.49    9.30
   1  15   2  114.09    7.00
   1  15   2   97.39    6.50
   1  15   2   92.99    6.10
  -1 -15  -3   17.20    4.60
  -1 -15  -3   14.20    4.30
  -1 -15  -3    6.40    2.90
   1  15   3   18.00    3.50
   1  15   3   21.30    3.90
   1  15   3   20.20    3.90
   1  15   3   18.60    3.40
  -2 -15   3   16.50    3.40
   2  15  -3   18.60    4.50
   2  15  -3   16.00    3.80
  -2 -15   2   10.70    2.60
  -2 -15   2    9.40    2.60
  -2 -15   2   11.80    2.40
   2  15  -2   12.10    3.20
   2  15  -2   12.30    3.60
  -2 -15   1   24.40    3.30
  -2 -15   1   29.00    4.00
  -2 -15   1   35.00    4.00
   2  15  -1   30.90    4.20
   2  15  -1   33.70    4.80
  -2 -15   0  234.88   12.20
  -2 -15   0  245.18   10.10
  -2 -15   0  245.18   11.90
  -2 -15   0  233.98   13.10
   2  15   0  274.67   12.20
   2  15   0  246.98   11.00
   2  15   0  248.18   11.80
  -2 -15  -1   31.40    4.50
  -2 -15  -1   22.90    4.90
  -2 -15  -1   31.50    5.10
   2  15   1   27.80    3.80
   2  15   1   24.70    3.70
   2  15   1   37.20    4.20
  -2 -15  -2    9.00    4.10
  -2 -15  -2   12.20    3.60
  -2 -15  -2   14.60    4.10
   2  15   2   16.20    3.40
   2  15   2   14.60    3.20
  -2 -15  -3   19.00    4.00
  -2 -15  -3   15.10    4.30
  -2 -15  -3   25.10    6.10
   2  15   3   17.80    3.70
   2  15   3   24.50    3.80
   2  15   3   20.10    3.80
  -3 -15   3    1.60    2.40
   3  15  -3   -0.70    2.40
  -3 -15   2   -0.70    1.90
  -3 -15   2    0.10    1.90
  -3 -15   2   -1.20    1.40
   3  15  -2    1.00    2.40
   3  15  -2   -0.40    1.80
  -3 -15   1   11.60    2.60
  -3 -15   1   11.50    2.90
  -3 -15   1   13.50    2.60
   3  15  -1   15.70    3.60
   3  15  -1    9.40    2.70
  -3 -15   0   11.00    2.90
  -3 -15   0   11.40    3.30
  -3 -15   0    2.60    3.00
   3  15   0    4.40    2.10
   3  15   0    3.80    2.20
   3  15   0   10.70    2.80
  -3 -15  -1   11.60    4.20
  -3 -15  -1   11.00    3.40
  -3 -15  -1    7.80    2.80
   3  15   1   11.40    2.60
   3  15   1   16.10    3.00
   3  15   1   18.20    3.10
  -3 -15  -2   -2.20    2.60
  -3 -15  -2   -0.70    2.60
  -3 -15  -2   -0.20    2.00
   3  15   2    0.60    1.90
   3  15   2   -0.70    1.60
   3  15   2   -3.20    1.40
  -3 -15  -3    4.30    3.40
  -3 -15  -3   -0.30    2.40
  -3 -15  -3    1.90    3.70
   3  15   3    1.70    2.40
   3  15   3    2.90    2.30
   3  15   3   -1.00    1.80
  -4 -15   3    1.00    2.40
  -4 -15   3    4.20    2.50
   4  15  -3   -3.20    2.50
  -4 -15   2    1.80    1.80
  -4 -15   2    4.90    2.30
  -4 -15   2    4.30    2.30
   4  15  -2   -0.10    2.30
   4  15  -2    4.00    2.40
  -4 -15   1   45.20    5.00
  -4 -15   1   45.10    4.60
   4  15  -1   45.10    4.90
   4  15  -1   35.60    5.10
  -4 -15   0   20.10    3.80
  -4 -15   0   17.00    3.50
  -4 -15   0   21.20    5.20
   4  15   0   14.80    2.90
   4  15   0   20.30    3.40
   4  15   0   16.20    3.20
  -4 -15  -1   54.69    7.60
  -4 -15  -1   41.60    5.40
  -4 -15  -1   41.50    5.80
   4  15   1   50.39    5.10
   4  15   1   45.60    4.80
   4  15   1   51.39    5.10
  -4 -15  -2    1.00    2.70
  -4 -15  -2    2.80    3.50
  -4 -15  -2    6.70    2.70
   4  15   2    5.80    2.50
   4  15   2    1.50    1.90
   4  15   2    2.70    2.20
  -4 -15  -3    1.10    3.80
  -4 -15  -3   -0.30    2.70
  -4 -15  -3    2.40    2.50
   4  15   3    2.70    2.40
   4  15   3    3.60    2.60
  -5 -15   3    0.70    2.50
  -5 -15   3    4.40    2.90
  -5 -15   3   -0.80    2.10
   5  15  -3    4.70    3.40
  -5 -15   2   18.80    3.60
  -5 -15   2   19.60    3.40
   5  15  -2   32.50    4.50
   5  15  -2   16.20    3.80
  -5 -15   1    6.20    2.30
  -5 -15   1    1.50    1.90
   5  15  -1    2.80    2.50
   5  15  -1    7.90    2.50
  -5 -15   0   17.30    3.60
  -5 -15   0   16.60    3.40
  -5 -15   0   28.40    6.30
   5  15   0   24.10    3.70
   5  15   0   25.70    3.80
   5  15   0   21.90    3.60
  -5 -15  -1    3.10    2.50
  -5 -15  -1    0.60    2.40
  -5 -15  -1    4.40    3.70
   5  15   1    7.50    2.40
   5  15   1    8.20    2.90
   5  15   1    5.40    2.20
  -5 -15  -2   27.10    6.40
  -5 -15  -2   27.70    4.70
  -5 -15  -2   11.40    4.00
   5  15   2   27.30    4.20
   5  15   2   26.10    4.10
   5  15   2   20.60    4.00
  -5 -15  -3   -0.10    3.50
  -5 -15  -3    2.60    3.00
  -5 -15  -3    2.80    3.10
   5  15   3   -0.10    2.30
   5  15   3    4.30    2.70
  -6 -15   3   -1.10    2.70
  -6 -15   3   -3.80    2.00
   6  15  -3    2.40    3.00
  -6 -15   2    3.40    2.40
  -6 -15   2    3.70    2.30
   6  15  -2    3.70    2.90
   6  15  -2    7.40    3.00
  -6 -15   1   44.90    4.70
  -6 -15   1   33.00    4.60
   6  15  -1   38.30    5.10
   6  15  -1   43.20    5.00
  -6 -15   0    4.90    4.00
  -6 -15   0    1.20    2.20
  -6 -15   0    6.70    2.50
   6  15   0    8.30    2.40
   6  15   0    2.50    2.30
  -6 -15  -1   26.90    4.70
  -6 -15  -1   33.30    4.90
  -6 -15  -1   29.40    6.70
   6  15   1   39.40    4.80
   6  15   1   37.40    4.60
   6  15   1   37.70    4.80
  -6 -15  -2    4.00    2.80
  -6 -15  -2    2.70    3.10
  -6 -15  -2    8.40    4.50
   6  15   2    4.60    2.70
   6  15   2    2.70    2.50
   6  15   2    4.10    2.30
  -6 -15  -3    0.30    4.00
  -6 -15  -3   -0.20    3.20
  -6 -15  -3   -2.20    2.60
   6  15   3    2.20    2.70
   6  15   3   -1.00    3.60
   6  15   3    3.30    2.60
  -7 -15   3   -4.00    2.50
  -7 -15   3    2.10    2.80
   7  15  -3    4.20    3.50
  -7 -15   2    7.80    2.90
  -7 -15   2    5.10    2.60
   7  15  -2    9.70    3.50
  -7 -15   1   11.40    2.90
  -7 -15   1    4.80    2.60
   7  15  -1    7.60    2.80
   7  15  -1    5.50    2.70
  -7 -15   0   18.50    5.80
  -7 -15   0   22.40    3.60
  -7 -15   0   17.80    3.60
   7  15   0   15.80    3.20
   7  15   0   18.00    3.60
  -7 -15  -1    5.70    3.00
  -7 -15  -1    4.00    2.70
  -7 -15  -1    7.70    4.60
   7  15   1    5.40    2.40
   7  15   1    8.50    2.80
  -7 -15  -2   11.10    5.40
  -7 -15  -2   14.00    4.20
  -7 -15  -2   11.10    3.50
   7  15   2   13.10    3.40
   7  15   2    8.10    2.90
   7  15   2   12.50    3.50
  -7 -15  -3    4.20    3.00
  -7 -15  -3    0.30    3.30
  -7 -15  -3   -1.00    4.30
   7  15   3    5.80    3.40
   7  15   3    2.50    2.80
   7  15   3    0.60    2.80
  -8 -15   2   14.60    3.50
  -8 -15   2   13.80    3.50
   8  15  -2   12.40    3.80
  -8 -15   1    1.00    2.30
  -8 -15   1   -1.10    1.90
   8  15  -1   -2.00    1.80
   8  15  -1    4.30    2.50
  -8 -15   0  116.59    8.00
  -8 -15   0  110.49    7.40
  -8 -15   0  113.79   12.60
   8  15   0  123.19    7.70
   8  15   0  111.89    7.40
  -8 -15  -1   -0.20    1.90
  -8 -15  -1    1.70    3.90
  -8 -15  -1    5.30    2.70
   8  15   1   -0.40    1.90
   8  15   1    2.50    2.20
  -8 -15  -2    6.70    5.50
  -8 -15  -2   11.60    3.80
  -8 -15  -2   10.80    4.00
   8  15   2    6.90    3.40
   8  15   2    8.60    3.40
   8  15   2    9.30    3.10
  -9 -15   2    4.90    3.00
  -9 -15   2    4.40    3.00
   9  15  -2    4.20    2.90
  -9 -15   1   11.70    3.40
  -9 -15   1   23.30    4.00
   9  15  -1   13.30    3.30
   9  15  -1   18.50    3.80
  -9 -15   0   12.60    3.20
  -9 -15   0   11.10    3.40
  -9 -15   0   12.30    5.60
   9  15   0   12.40    3.40
   9  15   0   12.00    3.20
  -9 -15  -1   19.10    3.80
  -9 -15  -1   15.00    3.90
  -9 -15  -1   15.20    6.20
   9  15   1   16.70    3.70
   9  15   1   11.20    3.30
  -9 -15  -2    3.00    2.80
  -9 -15  -2   -0.40    3.20
  -9 -15  -2    9.40    6.00
   9  15   2   10.20    3.20
   9  15   2    2.30    3.00
 -10 -15   1    4.80    3.20
 -10 -15   1    9.30    3.20
  10  15  -1    7.50    3.30
 -10 -15   0   12.00    5.80
 -10 -15   0   18.90    3.90
 -10 -15   0   12.40    3.20
  10  15   0   23.10    4.30
  10  15   0   16.60    3.80
 -10 -15  -1    4.00    3.20
 -10 -15  -1   10.00    3.20
 -10 -15  -1    8.70    5.60
  10  15   1   11.00    3.40
  10  15   1    9.70    3.50
 -11 -15   0    1.80    2.30
 -11 -15   0    3.00    4.60
  11  15   0    2.50    2.80
  11  15   0   -0.70    2.50
  10 -16   1    0.60    2.50
  10 -16   1   -0.20    2.20
  10 -16   0   11.50    3.00
  10 -16   0    9.60    2.90
 -10  16   0    5.70    4.00
  10 -16  -1    1.80    2.10
   9 -16   1   13.60    3.10
   9 -16   1   15.70    3.40
  -9  16  -1    2.50    3.70
   9 -16   0    1.10    1.70
   9 -16   0    2.30    1.90
  -9  16   0    1.10    3.70
   9 -16  -1   10.00    2.60
  -9  16   1    6.90    3.50
   8 -16   2    2.00    2.40
   8 -16   2   -2.40    1.90
  -8  16  -2    3.40    3.70
   8 -16   1    6.90    2.40
   8 -16   1   -0.30    1.70
  -8  16  -1   -2.50    2.80
   8 -16   0    7.00    2.30
   8 -16   0    4.20    2.20
  -8  16   0    7.40    3.70
   8 -16  -1    3.10    1.80
  -8  16   1    9.10    3.20
  -8  16   1    1.70    2.90
   8 -16  -2   -0.30    1.80
  -8  16   2   -1.80    2.00
  -8  16   2    2.10    3.10
   7 -16   2    1.40    2.10
   7 -16   2    7.60    2.70
  -7  16  -2    4.30    3.60
  -7  16  -2    2.70    3.60
   7 -16   1    8.40    2.50
   7 -16   1    9.30    2.60
  -7  16  -1   12.60    4.40
   7 -16   0   18.90    3.00
   7 -16   0   16.60    2.90
  -7  16   0   27.10    5.20
   7 -16  -1   15.30    2.70
  -7  16   1   14.30    3.50
  -7  16   1   10.90    3.20
   7 -16  -2    8.70    4.10
   7 -16  -2    8.30    3.20
   7 -16  -2    8.60    2.40
  -7  16   2    3.30    2.80
  -7  16   2    4.50    2.50
  -7  16   2    9.70    3.20
   6 -16   3    1.40    2.50
  -6  16  -3    3.70    3.70
  -6  16  -3    5.60    3.80
   6 -16   2    1.40    2.20
   6 -16   2    5.70    2.70
  -6  16  -2    6.70    3.70
  -6  16  -2    4.30    3.60
   6 -16   1    7.80    2.40
   6 -16   1    8.20    2.30
  -6  16  -1    6.40    3.60
   6 -16   0   64.09    4.60
  -6  16   0   63.19    7.40
   6 -16  -1    4.50    1.80
  -6  16   1    7.80    2.80
  -6  16   1    5.50    3.30
   6 -16  -2    6.30    3.00
   6 -16  -2    5.20    2.20
   6 -16  -2    8.70    3.90
  -6  16   2   10.70    3.30
  -6  16   2    4.00    2.10
  -6  16   2   11.50    3.30
   6 -16  -3    0.30    2.10
   6 -16  -3   -0.40    4.20
   6 -16  -3    5.20    3.30
  -6  16   3    1.50    3.60
  -6  16   3    1.40    2.30
   5 -16   3   -0.40    2.70
   5 -16   3   -0.20    2.50
  -5  16  -3    0.10    3.10
  -5  16  -3   -0.30    3.20
   5 -16   2    7.40    2.40
   5 -16   2    4.20    2.20
  -5  16  -2    1.20    3.20
  -5  16  -2    8.50    3.50
   5 -16   1    6.20    2.00
   5 -16   1    6.20    2.00
  -5  16  -1    5.80    3.20
  -5  16  -1    3.00    2.60
   5 -16   0    0.70    1.40
  -5  16   0   -0.80    2.10
   5 -16  -1    9.50    2.10
   5 -16  -1    8.30    3.10
   5 -16  -1    5.20    2.80
  -5  16   1    6.80    2.90
  -5  16   1    3.20    2.00
  -5  16   1    4.10    2.50
  -5  16   1    4.00    2.30
   5 -16  -2    5.20    2.00
   5 -16  -2    8.90    3.20
   5 -16  -2   11.20    3.80
  -5  16   2    9.70    3.40
  -5  16   2    5.90    2.60
  -5  16   2    5.60    2.60
  -5  16   2    7.40    3.10
   5 -16  -3    1.50    2.80
   5 -16  -3    0.00    1.80
   5 -16  -3    1.90    3.40
  -5  16   3   -2.90    2.50
  -5  16   3    2.80    2.40
  -5  16   3    1.70    2.50
   4 -16   3    2.00    2.50
   4 -16   3    6.40    3.10
  -4  16  -3   -0.30    3.40
  -4  16  -3   -1.40    3.40
   4 -16   2   -2.70    1.80
   4 -16   2    3.80    2.10
  -4  16  -2   -0.80    2.80
  -4  16  -2    4.40    3.20
   4 -16   1   29.00    3.50
  -4  16  -1   25.40    4.70
  -4  16  -1   31.90    5.00
   4 -16   0   62.99    4.20
  -4  16   0   54.89    6.30
   4 -16  -1   26.70    4.30
   4 -16  -1   33.50    3.30
   4 -16  -1   27.90    4.50
  -4  16   1   31.10    3.70
  -4  16   1   48.10    5.50
  -4  16   1   35.90    4.00
  -4  16   1   31.20    4.40
   4 -16  -2    4.10    2.90
   4 -16  -2    1.20    1.60
   4 -16  -2   -0.80    2.00
  -4  16   2    0.10    2.20
  -4  16   2   -0.30    2.00
  -4  16   2    0.60    2.00
  -4  16   2   -2.40    2.00
   4 -16  -3    5.00    3.60
   4 -16  -3    2.00    2.90
   4 -16  -3    7.00    2.40
  -4  16   3    1.80    2.80
  -4  16   3    3.40    2.30
  -4  16   3    5.60    2.80
   3 -16   3    1.50    2.30
   3 -16   3    1.40    2.60
  -3  16  -3   -0.80    3.20
  -3  16  -3   -0.70    3.00
   3 -16   2    4.70    2.20
   3 -16   2    3.50    2.20
  -3  16  -2    0.50    2.60
  -3  16  -2    1.60    2.70
   3 -16   1   20.80    3.00
  -3  16  -1   24.40    4.50
  -3  16  -1   27.10    4.80
   3 -16   0   18.90    3.60
   3 -16   0   18.40    2.60
   3 -16   0   10.50    2.70
  -3  16   0   11.00    3.20
   3 -16  -1   20.10    3.70
   3 -16  -1   26.30    3.00
   3 -16  -1   28.00    4.70
  -3  16   1   27.40    3.30
  -3  16   1   20.40    3.70
  -3  16   1   24.30    4.10
   3 -16  -2    2.60    1.90
   3 -16  -2    1.40    2.20
   3 -16  -2    4.20    3.20
  -3  16   2    0.30    1.90
  -3  16   2    2.00    2.20
  -3  16   2    3.00    2.20
  -3  16   2    0.40    1.80
   3 -16  -3    0.70    2.50
   3 -16  -3    0.50    3.10
   3 -16  -3    0.90    1.70
  -3  16   3    0.80    2.50
  -3  16   3   -1.40    1.80
  -3  16   3    0.50    2.20
   2 -16   3    8.50    3.10
   2 -16   3    9.40    2.90
  -2  16  -3   11.40    4.10
  -2  16  -3    5.50    3.50
   2 -16   2    4.00    2.10
  -2  16  -2    4.70    2.90
  -2  16  -2    4.40    3.30
   2 -16   1   78.39    5.20
  -2  16  -1   84.49    6.80
  -2  16  -1   88.59    8.30
   2 -16   0    6.30    2.70
   2 -16   0    9.70    2.80
   2 -16   0   11.60    2.20
  -2  16   0   15.80    3.30
  -2  16   0   16.60    3.60
  -2  16   0    9.30    2.90
   2 -16  -1   87.39    6.60
   2 -16  -1   83.59    4.70
   2 -16  -1   80.19    7.70
  -2  16   1   75.49    6.00
  -2  16   1   79.49    5.10
  -2  16   1   83.49    5.80
   2 -16  -2    4.90    2.60
   2 -16  -2    4.20    2.00
   2 -16  -2    4.30    3.10
  -2  16   2    5.80    2.50
  -2  16   2    1.10    2.00
  -2  16   2    4.30    2.50
  -2  16   2    4.20    2.20
   2 -16  -3    6.20    3.20
   2 -16  -3    8.30    2.60
   2 -16  -3    4.00    3.60
  -2  16   3   10.60    3.00
  -2  16   3    6.30    2.80
  -2  16   3    6.20    2.60
   1 -16   3    7.20    3.00
   1 -16   3    5.70    2.70
  -1  16  -3    5.80    3.90
  -1  16  -3    9.00    3.70
   1 -16   2   25.40    3.70
  -1  16  -2   29.60    5.10
  -1  16  -2   36.50    5.80
   1 -16   1   31.60    3.70
  -1  16  -1   25.80    4.50
  -1  16  -1   34.40    5.10
   1 -16   0    6.50    2.40
   1 -16   0    3.70    2.70
   1 -16   0    6.70    1.90
  -1  16   0    3.50    1.70
  -1  16   0    4.40    2.30
  -1  16   0    6.90    2.40
   1 -16  -1   29.00    4.90
   1 -16  -1   32.00    4.70
   1 -16  -1   27.60    5.30
   1 -16  -1   29.10    3.00
  -1  16   1   29.30    4.20
  -1  16   1   26.90    4.00
   1 -16  -2   37.80    5.90
   1 -16  -2   30.40    4.80
   1 -16  -2   26.40    5.60
   1 -16  -2   32.00    3.30
  -1  16   2   35.40    4.70
  -1  16   2   31.70    3.90
  -1  16   2   29.70    4.30
  -1  16   2   35.50    4.40
   1 -16  -3    4.90    4.10
   1 -16  -3    8.20    4.40
   1 -16  -3   11.70    4.10
   1 -16  -3    6.40    3.20
  -1  16   3    3.60    2.30
  -1  16   3    0.60    2.60
  -1  16   3    5.40    2.60
  -1  16   3    7.30    3.10
   0 -16   3    5.50    2.70
   0  16  -3    0.50    2.90
   0  16  -3    2.60    3.30
   0 -16   2   22.20    3.70
   0  16  -2   25.10    4.90
   0  16  -2   26.00    4.50
   0 -16   1  114.99    6.60
   0 -16   1  102.09    6.10
   0 -16   1  100.09    6.60
   0  16  -1  103.79    7.80
   0  16  -1  102.49    7.40
   0 -16   0  206.98   11.40
   0 -16   0  226.18    9.60
   0 -16   0  207.48   10.90
   0 -16   0  226.58   12.20
   0  16   0  238.88   10.40
   0  16   0  231.48   11.30
   0  16   0  236.38   11.50
   0 -16  -1  118.99    5.70
   0 -16  -1  109.19    8.60
   0 -16  -1  103.89    8.10
   0 -16  -1  105.89    7.40
   0  16   1  105.99    6.70
   0  16   1  114.69    7.20
   0 -16  -2   24.30    2.90
   0 -16  -2   26.80    4.60
   0 -16  -2   22.80    5.30
   0 -16  -2   25.00    4.90
   0  16   2   30.40    3.90
   0  16   2   26.00    3.90
   0  16   2   24.40    3.90
   0 -16  -3    3.30    2.80
   0 -16  -3    5.00    3.70
   0 -16  -3   -1.60    3.00
   0  16   3    2.70    2.40
   0  16   3    3.50    2.30
   0  16   3    7.40    2.60
   0  16   3   -0.70    2.00
  -1 -16   3    3.20    2.50
   1  16  -3    2.00    3.20
   1  16  -3    6.10    3.10
  -1 -16   2   30.20    4.20
   1  16  -2   36.20    5.30
   1  16  -2   28.70    5.50
  -1 -16   1   32.80    4.00
  -1 -16   1   26.10    3.30
  -1 -16   1   23.60    3.80
   1  16  -1   31.20    4.50
   1  16  -1   27.90    4.50
  -1 -16   0    6.30    2.70
  -1 -16   0    5.30    3.00
  -1 -16   0    1.80    1.50
  -1 -16   0    4.20    2.30
   1  16   0    5.50    2.10
   1  16   0    5.40    2.50
   1  16   0    2.00    1.90
  -1 -16  -1   29.40    2.90
  -1 -16  -1   21.30    4.50
  -1 -16  -1   24.90    5.20
  -1 -16  -1   17.40    3.90
   1  16   1   22.30    3.60
   1  16   1   30.50    3.80
   1  16   1   32.80    4.20
  -1 -16  -2   27.50    5.80
  -1 -16  -2   27.60    4.70
  -1 -16  -2   29.70    5.40
   1  16   2   36.60    4.70
   1  16   2   41.40    4.50
   1  16   2   34.20    4.50
  -1 -16  -3    6.70    3.20
  -1 -16  -3    5.60    4.00
  -1 -16  -3   14.90    4.60
   1  16   3    3.20    2.30
   1  16   3    4.20    2.80
   1  16   3    8.10    2.80
  -2 -16   3    2.20    2.40
   2  16  -3    8.10    3.40
   2  16  -3    8.50    3.70
  -2 -16   2    4.00    2.10
  -2 -16   2    4.60    2.10
  -2 -16   2    3.60    2.60
   2  16  -2    5.10    3.30
   2  16  -2    4.50    2.70
  -2 -16   1   78.19    5.60
  -2 -16   1   81.99    5.20
  -2 -16   1   81.99    5.90
   2  16  -1   87.19    6.40
   2  16  -1   83.99    6.80
  -2 -16   0    8.10    2.00
  -2 -16   0    8.70    3.00
  -2 -16   0   10.80    3.00
  -2 -16   0   10.10    3.70
   2  16   0   10.40    2.80
   2  16   0    8.70    2.60
   2  16   0   10.70    2.60
  -2 -16  -1   81.19    7.60
  -2 -16  -1   87.09    8.40
  -2 -16  -1   82.79    9.00
   2  16   1   77.09    5.80
   2  16   1   82.79    5.70
   2  16   1   80.19    5.80
  -2 -16  -2    4.70    3.50
  -2 -16  -2    2.50    2.90
  -2 -16  -2    1.60    2.20
   2  16   2    3.30    2.40
   2  16   2    8.50    2.60
  -2 -16  -3    3.60    2.80
  -2 -16  -3   11.90    4.10
  -2 -16  -3    3.20    3.80
   2  16   3    6.00    2.80
   2  16   3    8.20    2.80
   2  16   3    8.90    3.30
  -3 -16   3    1.70    2.50
   3  16  -3    0.70    3.20
  -3 -16   2    4.70    2.20
  -3 -16   2    0.20    1.80
  -3 -16   2    3.00    2.00
   3  16  -2    1.40    2.40
   3  16  -2    0.50    2.30
  -3 -16   1   23.70    3.90
  -3 -16   1   25.20    3.40
  -3 -16   1   29.00    3.90
   3  16  -1   27.30    4.80
   3  16  -1   24.00    4.00
  -3 -16   0   11.70    3.00
  -3 -16   0   18.10    3.90
  -3 -16   0   21.40    5.00
   3  16   0   14.30    2.80
   3  16   0   11.10    3.10
   3  16   0   11.30    2.80
  -3 -16  -1   15.50    4.40
  -3 -16  -1   21.30    5.30
  -3 -16  -1   16.30    3.70
   3  16   1   24.20    3.70
   3  16   1   27.60    3.80
   3  16   1   27.40    4.10
  -3 -16  -2    4.00    3.20
  -3 -16  -2    1.30    3.50
  -3 -16  -2    4.90    2.70
   3  16   2    5.70    2.30
   3  16   2    4.30    2.30
  -3 -16  -3    0.10    2.70
  -3 -16  -3    2.60    3.80
  -3 -16  -3    0.50    2.50
   3  16   3    0.80    2.60
   3  16   3    1.50    2.20
  -4 -16   3    1.60    2.20
   4  16  -3    0.10    2.90
  -4 -16   2    0.00    2.00
  -4 -16   2    0.20    1.80
  -4 -16   2    3.60    2.40
   4  16  -2    3.80    2.70
   4  16  -2    3.30    2.90
  -4 -16   1   39.50    4.40
  -4 -16   1   21.10    3.80
   4  16  -1   25.00    3.80
   4  16  -1   19.50    4.10
  -4 -16   0   70.69    6.70
  -4 -16   0   69.49    7.00
  -4 -16   0   68.69    8.60
   4  16   0   70.59    5.50
   4  16   0   65.29    5.40
   4  16   0   77.09    6.00
  -4 -16  -1   29.60    4.80
  -4 -16  -1   31.00    6.20
  -4 -16  -1   28.20    5.00
   4  16   1   38.30    4.90
   4  16   1   22.90    3.80
   4  16   1   33.40    4.40
  -4 -16  -2    2.20    3.50
  -4 -16  -2   -2.00    1.90
  -4 -16  -2    3.90    3.10
   4  16   2   -0.90    1.90
   4  16   2    0.80    1.90
   4  16   2    1.20    2.20
  -4 -16  -3    2.30    3.00
  -4 -16  -3   -0.60    4.10
  -4 -16  -3    8.60    4.30
   4  16   3    3.70    2.80
   4  16   3    6.30    3.00
  -5 -16   3   -0.40    2.70
  -5 -16   3    0.90    2.60
  -5 -16   3   -0.70    3.50
   5  16  -3   -1.90    2.50
  -5 -16   2    5.40    2.50
  -5 -16   2    9.10    2.90
   5  16  -2    7.00    3.40
   5  16  -2    8.70    3.00
  -5 -16   1    6.30    2.30
  -5 -16   1    5.10    2.60
   5  16  -1    7.80    3.00
   5  16  -1    2.40    2.20
  -5 -16   0   -1.60    1.90
  -5 -16   0   -1.20    1.80
  -5 -16   0   -0.20    3.00
   5  16   0    0.80    2.00
   5  16   0    0.10    1.90
  -5 -16  -1    2.20    3.70
  -5 -16  -1    6.20    2.80
  -5 -16  -1    5.70    2.90
   5  16   1    4.30    2.20
   5  16   1    5.10    2.40
   5  16   1   -3.60    1.80
  -5 -16  -2   10.30    4.00
  -5 -16  -2    6.70    3.00
  -5 -16  -2    6.20    4.60
   5  16   2    4.60    2.60
   5  16   2    7.60    2.60
   5  16   2    8.90    3.10
  -5 -16  -3    0.80    3.80
  -5 -16  -3    0.10    3.20
  -5 -16  -3    1.40    2.80
   5  16   3   -1.40    2.50
   5  16   3    6.10    2.80
  -6 -16   3   -2.40    2.30
  -6 -16   3   -0.80    2.90
   6  16  -3    0.00    3.10
  -6 -16   2    3.90    2.80
  -6 -16   2    6.10    2.70
   6  16  -2    4.50    3.30
   6  16  -2    2.20    3.00
  -6 -16   1    2.10    2.20
  -6 -16   1    3.40    2.20
   6  16  -1    6.40    2.80
   6  16  -1    8.70    3.00
  -6 -16   0   69.09    9.40
  -6 -16   0   58.69    6.10
  -6 -16   0   63.79    6.80
   6  16   0   58.19    6.00
   6  16   0   69.79    5.60
  -6 -16  -1    3.40    2.50
  -6 -16  -1    0.30    2.30
  -6 -16  -1    7.70    4.40
   6  16   1    4.40    2.40
   6  16   1    4.30    2.40
   6  16   1   10.10    3.10
  -6 -16  -2    1.20    4.00
  -6 -16  -2    0.80    3.00
  -6 -16  -2   13.40    3.80
   6  16   2    3.70    2.50
   6  16   2    9.60    3.10
   6  16   2    1.50    2.80
  -6 -16  -3    4.50    4.50
  -6 -16  -3   -0.40    2.80
   6  16   3   -2.10    2.40
  -7 -16   2    5.20    2.90
  -7 -16   2    6.00    2.80
   7  16  -2    8.50    3.30
  -7 -16   1    7.90    2.70
  -7 -16   1   11.00    3.20
   7  16  -1    9.50    3.10
   7  16  -1    7.60    3.30
  -7 -16   0   10.40    3.20
  -7 -16   0   22.00    6.50
  -7 -16   0   25.20    4.10
   7  16   0   22.50    4.00
   7  16   0   25.70    4.20
  -7 -16  -1    7.20    3.00
  -7 -16  -1   11.80    5.30
  -7 -16  -1   10.60    3.70
   7  16   1   11.60    3.20
   7  16   1   11.00    3.20
  -7 -16  -2    4.00    3.40
  -7 -16  -2    4.60    4.80
  -7 -16  -2    8.50    3.50
   7  16   2    6.30    2.90
   7  16   2    5.50    2.90
   7  16   2    5.60    2.80
  -8 -16   2    1.90    2.60
  -8 -16   2   -1.20    2.40
   8  16  -2    4.10    2.80
  -8 -16   1   -0.30    2.20
  -8 -16   1    1.40    2.20
   8  16  -1    0.30    2.40
   8  16  -1    3.90    2.60
  -8 -16   0    4.90    2.60
  -8 -16   0   -1.50    4.10
  -8 -16   0    7.70    3.00
   8  16   0    9.80    3.00
   8  16   0    5.70    2.60
  -8 -16  -1    5.00    2.60
  -8 -16  -1   -5.80    3.10
  -8 -16  -1    4.10    3.20
   8  16   1    3.20    2.40
   8  16   1    2.10    2.50
  -8 -16  -2    3.30    2.80
  -8 -16  -2    3.60    3.20
  -8 -16  -2    4.10    4.50
   8  16   2    0.90    3.10
   8  16   2    1.20    2.40
   8  16   2   -0.80    2.80
  -9 -16   1   21.90    3.90
  -9 -16   1   16.30    4.00
   9  16  -1   13.80    3.50
   9  16  -1   10.20    3.40
  -9 -16   0    1.80    2.60
  -9 -16   0    1.10    2.30
  -9 -16   0    2.60    4.90
   9  16   0   -0.30    2.30
   9  16   0   -0.10    2.20
  -9 -16  -1   14.20    6.30
  -9 -16  -1   13.70    3.50
  -9 -16  -1    9.30    3.50
   9  16   1   12.10    3.50
   9  16   1   20.20    4.40
 -10 -16   1    2.70    2.70
  10  16  -1   -2.20    2.20
 -10 -16   0   12.80    6.00
 -10 -16   0    4.80    2.70
  10  16   0    6.30    3.20
  10  16   0   12.60    3.50
 -10 -16  -1    4.70    2.90
  10  16   1    5.30    3.10
   9 -17   1   13.90    3.20
   9 -17   1   19.20    3.80
   9 -17   0   17.60    3.60
   9 -17   0   14.00    3.00
  -9  17   0   20.60    5.30
   9 -17  -1   10.40    2.70
  -9  17   1   11.80    4.10
   8 -17   1    1.80    2.00
   8 -17   1    2.20    2.50
  -8  17  -1    2.10    3.70
   8 -17   0    2.60    1.90
  -8  17   0    8.40    3.90
   8 -17  -1    1.60    1.90
  -8  17   1    6.10    3.80
  -8  17   1    5.30    3.20
   7 -17   2    6.40    3.00
   7 -17   2    6.40    2.70
  -7  17  -2   -0.50    3.50
   7 -17   1    0.30    1.80
   7 -17   1    2.70    2.00
  -7  17  -1    3.70    3.70
   7 -17   0   -1.70    1.40
  -7  17   0    0.80    2.90
   7 -17  -1    3.30    1.80
  -7  17   1    2.30    3.30
  -7  17   1    2.10    2.50
   7 -17  -2    0.80    1.80
   7 -17  -2    5.60    3.20
  -7  17   2    7.70    2.70
  -7  17   2    5.30    3.10
  -7  17   2    5.70    3.10
   6 -17   2    6.50    2.60
   6 -17   2    7.90    3.00
  -6  17  -2    4.90    3.70
  -6  17  -2    8.10    4.00
   6 -17   1    4.00    2.00
  -6  17  -1    3.30    3.10
   6 -17   0    7.60    2.40
  -6  17   0    0.70    2.60
   6 -17  -1    4.50    1.90
  -6  17   1    4.00    3.10
  -6  17   1    5.00    2.60
   6 -17  -2   11.00    3.60
   6 -17  -2    8.80    2.50
   6 -17  -2    6.10    4.00
  -6  17   2    9.80    3.20
  -6  17   2    1.40    2.90
  -6  17   2    8.10    2.80
   5 -17   2    0.60    2.10
   5 -17   2   -1.00    1.90
  -5  17  -2   -0.20    2.90
  -5  17  -2   -0.10    2.90
   5 -17   1   31.00    3.90
  -5  17  -1   37.00    6.10
   5 -17   0    1.30    1.60
  -5  17   0    2.00    2.60
   5 -17  -1   34.70    5.00
   5 -17  -1   33.00    3.50
  -5  17   1   34.00    3.80
  -5  17   1   30.90    4.80
  -5  17   1   25.80    4.60
  -5  17   1   31.00    4.10
   5 -17  -2   -1.80    2.40
   5 -17  -2    0.10    1.60
   5 -17  -2   -2.30    2.60
  -5  17   2    0.10    1.90
  -5  17   2   -0.50    2.10
  -5  17   2   -1.10    2.30
   4 -17   3   -0.20    2.20
   4 -17   3    1.10    2.60
  -4  17  -3    3.80    3.60
  -4  17  -3    2.80    3.60
   4 -17   2    5.20    2.30
  -4  17  -2   -3.20    2.60
  -4  17  -2   -0.20    2.80
   4 -17   1   40.00    4.20
  -4  17  -1   35.80    5.40
  -4  17  -1   49.40    6.70
   4 -17   0   10.20    2.30
  -4  17   0   13.60    3.70
   4 -17  -1   38.60    5.60
   4 -17  -1   47.50    3.70
   4 -17  -1   43.30    5.30
  -4  17   1   39.80    5.40
  -4  17   1   44.10    4.40
  -4  17   1   52.19    5.60
   4 -17  -2   -0.60    1.60
   4 -17  -2    4.30    2.90
   4 -17  -2    3.00    3.40
  -4  17   2    1.00    2.30
  -4  17   2   -0.30    2.40
  -4  17   2    3.90    2.60
  -4  17   2    1.80    2.00
   4 -17  -3    3.00    2.40
   4 -17  -3    3.50    2.80
  -4  17   3    1.10    3.00
  -4  17   3    1.10    2.50
   3 -17   3   18.30    4.00
   3 -17   3    9.80    3.50
  -3  17  -3   17.20    5.00
  -3  17  -3    6.90    3.80
   3 -17   2    9.70    2.80
  -3  17  -2    4.30    3.20
  -3  17  -2   11.10    3.80
   3 -17   1   19.70    3.10
  -3  17  -1   11.00    3.60
  -3  17  -1   17.60    4.30
   3 -17   0  211.08    9.40
  -3  17   0  196.48   11.40
   3 -17  -1   17.60    3.80
   3 -17  -1   16.70    2.50
   3 -17  -1   14.00    4.00
  -3  17   1   16.10    3.60
  -3  17   1   15.40    2.80
  -3  17   1   18.20    3.70
   3 -17  -2   11.30    2.40
   3 -17  -2   13.90    4.70
   3 -17  -2   14.60    3.80
  -3  17   2   14.40    3.50
  -3  17   2    9.60    2.80
  -3  17   2   10.30    3.10
  -3  17   2    7.60    3.00
   3 -17  -3   17.40    5.70
   3 -17  -3   11.90    2.90
   3 -17  -3   19.00    4.60
  -3  17   3   12.00    3.60
  -3  17   3   20.30    4.00
  -3  17   3    8.90    2.90
   2 -17   3   11.50    3.40
  -2  17  -3    2.90    3.40
  -2  17  -3   10.70    4.20
   2 -17   2    2.50    2.40
  -2  17  -2    1.40    3.00
  -2  17  -2    0.80    2.70
   2 -17   1   -1.80    1.40
  -2  17  -1    1.50    2.70
  -2  17  -1    1.60    2.40
   2 -17   0   14.20    3.20
   2 -17   0   14.60    2.40
   2 -17   0    7.80    3.10
  -2  17   0   17.50    3.80
   2 -17  -1   -0.30    2.30
   2 -17  -1    2.80    1.40
   2 -17  -1   -0.90    2.50
   2 -17  -1    1.40    2.40
  -2  17   1    1.90    1.70
  -2  17   1    0.80    1.90
  -2  17   1   -1.70    1.80
   2 -17  -2    2.60    3.20
   2 -17  -2    1.90    3.20
   2 -17  -2    3.80    1.80
   2 -17  -2    3.90    2.70
  -2  17   2    2.30    2.30
  -2  17   2    4.40    2.30
  -2  17   2    2.70    2.40
  -2  17   2    5.90    2.60
   2 -17  -3   11.10    4.10
   2 -17  -3   10.20    2.90
   2 -17  -3   10.20    4.70
   2 -17  -3    6.90    3.50
  -2  17   3   11.50    3.60
  -2  17   3    6.10    2.90
  -2  17   3   13.90    3.30
   1 -17   3    0.20    2.60
  -1  17  -3    1.90    3.00
  -1  17  -3   10.00    4.00
   1 -17   2    4.30    2.40
  -1  17  -2    5.10    3.20
  -1  17  -2    6.70    3.40
   1 -17   1   13.40    2.50
  -1  17  -1   22.80    4.40
  -1  17  -1   15.90    3.80
   1 -17   0    3.80    1.80
   1 -17   0    3.40    2.20
   1 -17   0    0.50    2.30
  -1  17   0    4.60    2.40
  -1  17   0    2.60    2.50
   1 -17  -1   19.30    2.60
   1 -17  -1   19.10    3.80
   1 -17  -1   20.10    4.50
   1 -17  -1   25.70    5.30
  -1  17   1   16.50    3.40
  -1  17   1   15.40    3.40
   1 -17  -2    6.00    1.90
   1 -17  -2    8.40    3.40
   1 -17  -2    8.10    4.00
   1 -17  -2    2.30    3.00
  -1  17   2    4.90    2.40
  -1  17   2    3.50    2.30
  -1  17   2    5.10    2.70
   1 -17  -3    0.20    3.10
   1 -17  -3    2.10    3.00
   1 -17  -3    6.70    4.20
  -1  17   3    5.50    2.80
  -1  17   3    1.10    2.30
  -1  17   3    1.00    2.60
  -1  17   3    2.20    2.40
   0 -17   3   -1.20    2.50
   0  17  -3   -1.00    2.90
   0  17  -3   -1.10    3.00
   0 -17   2    8.60    2.60
   0  17  -2    9.50    3.70
   0  17  -2   13.30    3.80
   0 -17   1   46.60    4.50
   0 -17   1   37.70    4.40
   0 -17   1   41.00    5.40
   0  17  -1   41.70    5.30
   0  17  -1   42.70    5.70
   0 -17   0    0.10    1.30
   0 -17   0    2.70    2.20
   0 -17   0   -0.60    2.40
   0  17   0    1.30    2.00
   0  17   0    1.50    2.10
   0 -17  -1   38.40    5.90
   0 -17  -1   35.20    5.90
   0 -17  -1   41.10    3.30
   0 -17  -1   37.70    5.40
   0  17   1   39.40    4.60
   0  17   1   44.60    5.20
   0 -17  -2   12.90    4.40
   0 -17  -2   11.90    3.40
   0 -17  -2   13.20    4.60
   0  17   2    8.00    2.70
   0  17   2   11.30    3.20
   0  17   2   13.00    2.80
   0 -17  -3    0.80    3.20
   0 -17  -3    0.20    3.50
   0 -17  -3   -2.00    2.30
   0  17   3   -1.00    2.20
   0  17   3    6.00    2.90
   0  17   3   -0.40    2.40
   0  17   3   -1.20    1.80
  -1 -17   3    2.70    2.50
   1  17  -3    5.80    3.80
   1  17  -3    0.90    3.20
  -1 -17   2    5.10    2.50
   1  17  -2    1.20    2.60
   1  17  -2    0.60    2.70
  -1 -17   1   16.00    3.30
  -1 -17   1   24.80    3.40
  -1 -17   1   21.10    3.40
   1  17  -1   12.10    3.60
   1  17  -1   18.80    3.70
  -1 -17   0    3.80    1.70
  -1 -17   0   -0.10    2.10
  -1 -17   0    3.40    2.60
   1  17   0    1.60    2.10
   1  17   0    2.00    2.50
  -1 -17  -1   13.40    4.50
  -1 -17  -1   19.20    4.60
  -1 -17  -1   15.60    3.60
   1  17   1   17.80    3.40
   1  17   1   18.30    3.50
  -1 -17  -2    7.40    3.70
  -1 -17  -2    0.10    2.50
  -1 -17  -2   13.80    4.60
   1  17   2    7.00    2.60
   1  17   2    4.90    2.60
  -1 -17  -3   -2.40    3.10
  -1 -17  -3    2.90    2.90
  -1 -17  -3   -0.20    3.30
   1  17   3    4.20    2.70
   1  17   3    5.30    2.80
   1  17   3    3.20    2.60
  -2 -17   3    8.50    3.10
   2  17  -3   17.20    4.30
   2  17  -3   11.50    4.60
  -2 -17   2    1.80    1.90
   2  17  -2    3.90    3.00
   2  17  -2    6.20    2.90
  -2 -17   1   -1.20    1.60
  -2 -17   1   -1.50    1.50
  -2 -17   1    1.30    2.00
   2  17  -1   -3.60    1.90
   2  17  -1    0.10    2.00
  -2 -17   0   16.70    3.80
  -2 -17   0   13.10    3.30
   2  17   0   16.60    3.00
   2  17   0   16.70    3.50
   2  17   0   17.00    3.60
  -2 -17  -1    0.00    2.90
  -2 -17  -1    0.00    2.60
  -2 -17  -1    3.20    2.40
   2  17   1    3.10    2.00
   2  17   1    0.60    2.00
   2  17   1   -2.30    1.40
  -2 -17  -2    4.80    2.90
  -2 -17  -2    5.40    3.40
  -2 -17  -2    2.20    3.40
   2  17   2    5.10    2.40
   2  17   2    1.40    2.10
  -2 -17  -3   14.10    4.10
  -2 -17  -3    9.70    4.50
  -2 -17  -3   15.70    4.80
   2  17   3   11.00    3.10
   2  17   3    9.90    3.30
   2  17   3   13.50    3.60
  -3 -17   3   12.30    3.30
   3  17  -3    6.60    4.10
  -3 -17   2   10.40    2.80
  -3 -17   2    9.60    3.00
  -3 -17   2   13.70    3.10
   3  17  -2   10.40    3.10
   3  17  -2   13.60    3.90
  -3 -17   1   14.50    3.30
  -3 -17   1   16.70    3.30
   3  17  -1   19.10    3.70
   3  17  -1   17.70    4.00
  -3 -17   0  207.38   13.40
  -3 -17   0  200.98   10.80
  -3 -17   0  194.88   11.20
   3  17   0  208.88   10.80
   3  17   0  205.48   10.80
   3  17   0  212.58   10.30
  -3 -17  -1   19.40    5.20
  -3 -17  -1   12.70    3.50
  -3 -17  -1   12.50    4.00
   3  17   1   16.00    3.10
   3  17   1   21.30    3.60
   3  17   1    8.90    2.70
  -3 -17  -2    9.80    4.50
  -3 -17  -2   20.40    4.60
  -3 -17  -2   15.30    4.40
   3  17   2   14.80    3.50
   3  17   2   14.80    3.40
  -3 -17  -3   13.40    5.30
  -3 -17  -3   14.80    4.40
   3  17   3   12.00    3.40
   3  17   3   11.60    3.60
  -4 -17   3    3.70    2.90
   4  17  -3   10.30    4.10
  -4 -17   2    2.20    2.30
  -4 -17   2    3.60    2.20
   4  17  -2    0.70    2.70
   4  17  -2    2.70    3.10
  -4 -17   1   43.80    5.20
  -4 -17   1   43.80    4.80
   4  17  -1   35.30    5.30
   4  17  -1   35.20    4.70
  -4 -17   0   10.50    3.50
  -4 -17   0    8.00    3.00
  -4 -17   0   13.00    5.00
   4  17   0   10.30    3.10
   4  17   0   10.60    2.70
   4  17   0    6.80    2.80
  -4 -17  -1   37.00    6.10
  -4 -17  -1   39.30    7.10
  -4 -17  -1   34.30    5.10
   4  17   1   46.00    5.50
   4  17   1   53.49    5.50
   4  17   1   36.40    4.70
  -4 -17  -2    4.30    3.80
  -4 -17  -2    2.60    3.10
  -4 -17  -2    7.70    3.40
   4  17   2    5.70    2.80
   4  17   2    4.90    2.50
  -4 -17  -3    1.10    2.90
  -4 -17  -3    1.10    3.90
   4  17   3    3.90    3.00
   4  17   3    4.30    2.60
  -5 -17   2   -0.10    2.10
  -5 -17   2   -1.30    2.20
   5  17  -2   -0.60    3.10
   5  17  -2    2.40    2.40
  -5 -17   1   33.40    4.40
  -5 -17   1   29.30    4.50
   5  17  -1   30.10    4.80
   5  17  -1   44.30    5.40
  -5 -17   0    3.80    2.90
  -5 -17   0    4.00    4.10
  -5 -17   0    2.40    2.20
   5  17   0    3.20    2.30
   5  17   0    2.20    2.10
  -5 -17  -1   32.70    7.00
  -5 -17  -1   28.40    5.20
  -5 -17  -1   37.30    5.50
   5  17   1   35.20    4.90
   5  17   1   27.90    4.30
   5  17   1   35.70    4.70
  -5 -17  -2   -3.00    2.60
  -5 -17  -2    3.00    2.70
  -5 -17  -2    4.80    4.50
   5  17   2   -1.00    2.10
   5  17   2   -3.90    1.80
   5  17   2    1.10    2.50
  -6 -17   2   11.70    3.70
  -6 -17   2   11.60    3.10
   6  17  -2    6.80    3.50
  -6 -17   1    5.40    2.60
  -6 -17   1    4.80    2.60
   6  17  -1    5.40    2.90
   6  17  -1    5.40    2.60
  -6 -17   0    5.20    2.60
  -6 -17   0    6.60    4.90
  -6 -17   0    7.80    3.10
   6  17   0    2.90    2.30
   6  17   0    8.40    3.10
  -6 -17  -1    2.40    2.50
  -6 -17  -1    8.30    4.60
  -6 -17  -1    5.30    3.20
   6  17   1    0.90    2.00
   6  17   1    5.90    2.50
   6  17   1    3.60    2.50
  -6 -17  -2    7.00    3.10
  -6 -17  -2    6.80    5.40
  -6 -17  -2    7.00    3.90
   6  17   2    7.30    3.40
   6  17   2    7.60    3.00
   6  17   2   10.00    3.60
  -7 -17   2    3.10    2.50
  -7 -17   2   11.00    3.90
   7  17  -2    3.10    3.00
  -7 -17   1    6.10    3.10
  -7 -17   1    4.30    2.80
   7  17  -1    3.60    2.70
   7  17  -1    5.30    3.00
  -7 -17   0   -1.30    2.10
  -7 -17   0   -0.20    4.70
  -7 -17   0   -0.10    2.10
   7  17   0    0.20    2.30
   7  17   0    0.10    2.20
  -7 -17  -1   -1.60    2.20
  -7 -17  -1    9.20    5.00
  -7 -17  -1    7.00    3.30
   7  17   1    2.90    2.60
   7  17   1   11.00    3.20
  -7 -17  -2    7.60    5.50
  -7 -17  -2    4.00    3.20
   7  17   2    8.60    3.40
   7  17   2    2.50    3.10
   7  17   2    8.80    3.20
  -8 -17   1   -0.60    2.10
  -8 -17   1    1.70    2.60
   8  17  -1   -1.00    2.20
   8  17  -1    0.80    2.70
  -8 -17   0    8.80    5.40
  -8 -17   0    3.10    2.80
  -8 -17   0    0.70    2.50
   8  17   0    1.90    2.70
   8  17   0    3.30    2.40
  -8 -17  -1   -2.10    2.00
  -8 -17  -1   -0.70    4.30
  -8 -17  -1    6.30    3.40
   8  17   1    4.30    3.20
   8  17   1    2.40    2.90
  -9 -17   1   13.50    3.50
   9  17  -1   10.40    3.70
  -9 -17   0    8.80    5.60
  -9 -17   0   14.80    3.60
   9  17   0   12.90    3.70
   9  17   0   21.60    4.30
  -9 -17  -1   10.50    3.50
  -9 -17  -1    5.20    6.20
   9  17   1    9.70    3.30
   9  17   1   15.80    3.90
   8 -18   0   -1.20    1.60
  -8  18   0   -0.50    3.10
   7 -18   1   39.40    4.70
  -7  18  -1   43.30    7.00
   7 -18   0    0.40    1.80
  -7  18   0   -0.40    2.90
   7 -18  -1   43.80    4.40
  -7  18   1   48.90    6.80
  -7  18   1   40.30    5.70
   6 -18   2    4.00    2.70
  -6  18  -2    3.70    4.00
  -6  18  -2   11.50    4.40
   6 -18   1    9.20    2.70
  -6  18  -1   10.40    4.00
   6 -18   0    5.50    2.20
  -6  18   0    4.70    3.20
   6 -18  -1   13.60    2.70
  -6  18   1   13.80    4.10
  -6  18   1   13.20    3.50
   6 -18  -2   13.50    4.80
   6 -18  -2   14.70    4.20
   6 -18  -2    6.00    2.30
  -6  18   2    5.30    2.80
  -6  18   2   11.50    4.10
  -6  18   2    2.70    2.80
  -5  18  -2   45.40    7.10
  -5  18  -2   41.00    6.60
   5 -18   1   -0.70    1.60
  -5  18  -1    2.80    3.40
   5 -18   0   89.49    5.70
  -5  18   0   83.29    8.40
   5 -18  -1    3.10    1.80
  -5  18   1    1.10    2.40
  -5  18   1    2.50    2.80
   5 -18  -2   37.20    5.60
   5 -18  -2   35.50    6.50
   5 -18  -2   64.79    4.70
  -5  18   2   50.49    5.30
  -5  18   2   60.99    6.20
  -5  18   2   45.00    6.00
   4 -18   2   -2.40    1.90
  -4  18  -2    6.80    4.00
  -4  18  -2    3.30    3.30
   4 -18   1   18.60    3.30
  -4  18  -1   14.40    4.20
   4 -18   0    0.50    1.50
  -4  18   0    1.30    2.30
   4 -18  -1   13.30    3.90
   4 -18  -1   18.50    2.70
   4 -18  -1   18.10    4.30
  -4  18   1   17.70    3.70
  -4  18   1   15.50    3.10
  -4  18   1   20.90    4.20
   4 -18  -2    3.80    3.40
   4 -18  -2    1.30    1.90
   4 -18  -2    0.20    2.80
  -4  18   2    8.00    3.00
  -4  18   2    2.10    2.50
  -4  18   2    2.50    2.70
  -4  18   2   -1.50    2.10
   3 -18   2    4.40    2.60
  -3  18  -2    5.50    4.10
  -3  18  -2    4.00    3.10
   3 -18   1   22.40    3.50
  -3  18  -1   20.90    4.60
  -3  18  -1   25.80    4.80
   3 -18   0   22.70    3.20
  -3  18   0   28.50    5.00
   3 -18  -1   17.00    4.20
   3 -18  -1   22.60    2.90
   3 -18  -1   20.50    4.50
  -3  18   1   26.90    4.60
  -3  18   1   23.30    3.30
  -3  18   1   21.00    3.70
   3 -18  -2    3.60    3.50
   3 -18  -2    1.70    2.50
   3 -18  -2    5.10    2.10
  -3  18   2    5.60    3.10
  -3  18   2   -0.60    2.60
  -3  18   2    3.60    2.20
  -3  18   2    5.40    2.90
   2 -18   2   -0.80    1.80
  -2  18  -2    8.20    3.70
  -2  18  -2    1.80    3.10
   2 -18   1    0.20    1.60
  -2  18  -1    3.60    3.20
  -2  18  -1   -0.90    2.40
   2 -18   0    6.80    2.80
   2 -18   0    3.40    1.80
  -2  18   0    3.40    2.50
   2 -18  -1   -0.10    1.40
   2 -18  -1    2.20    2.80
   2 -18  -1   -0.70    3.20
   2 -18  -1   -1.40    2.50
  -2  18   1    0.70    2.10
  -2  18   1   -1.00    2.00
   2 -18  -2   -1.20    3.30
   2 -18  -2    3.90    3.30
   2 -18  -2    0.70    1.80
   2 -18  -2   -1.40    2.30
  -2  18   2    0.60    2.70
  -2  18   2    3.60    2.80
  -2  18   2    2.70    2.30
   1 -18   2   -2.10    1.80
  -1  18  -2    1.20    2.70
  -1  18  -2    4.30    3.30
   1 -18   1   27.60    3.60
  -1  18  -1   32.50    5.10
  -1  18  -1   26.70    4.80
   1 -18   0   -2.30    2.50
   1 -18   0    5.40    2.40
   1 -18   0    2.00    1.70
  -1  18   0    1.80    2.20
   1 -18  -1   30.00    3.30
   1 -18  -1   31.60    5.90
   1 -18  -1   29.60    4.90
   1 -18  -1   19.80    4.70
  -1  18   1   25.20    4.30
  -1  18   1   34.50    4.60
   1 -18  -2   -1.00    2.30
   1 -18  -2    1.20    1.80
   1 -18  -2    5.10    3.50
   1 -18  -2    6.10    3.90
  -1  18   2    0.70    2.30
  -1  18   2    3.00    2.30
  -1  18   2    0.10    2.40
   0 -18   3    7.90    3.30
   0  18  -3    8.40    4.10
   0 -18   2    1.40    2.20
   0  18  -2    1.00    2.60
   0  18  -2    3.60    3.20
   0 -18   1    4.10    2.10
   0  18  -1    5.60    2.90
   0  18  -1   12.20    3.80
   0 -18   0    0.50    2.00
   0 -18   0    0.80    1.50
   0 -18   0    0.30    2.60
   0  18   0   -2.10    2.00
   0  18   0   -0.40    2.20
   0 -18  -1   10.60    4.30
   0 -18  -1    4.50    1.80
   0 -18  -1    7.50    3.40
   0 -18  -1   10.30    3.30
   0  18   1    8.60    2.70
   0  18   1    5.60    2.60
   0 -18  -2    9.20    3.80
   0 -18  -2    3.30    3.60
   0 -18  -2    3.60    2.90
   0  18   2    1.80    2.60
   0  18   2    3.30    2.50
   0 -18  -3   15.10    4.30
   0  18   3    6.40    2.90
   1  18  -3    5.90    3.40
  -1 -18   2    0.90    2.00
   1  18  -2    2.50    3.40
   1  18  -2    2.50    2.70
  -1 -18   1   36.60    4.50
  -1 -18   1   27.40    3.70
  -1 -18   1   32.10    4.60
   1  18  -1   30.80    4.70
   1  18  -1   27.10    4.90
  -1 -18   0    3.50    2.70
  -1 -18   0   -0.30    1.30
  -1 -18   0    3.40    2.40
   1  18   0   -1.30    1.90
   1  18   0    1.00    2.40
  -1 -18  -1   18.20    4.00
  -1 -18  -1   35.70    6.40
  -1 -18  -1   25.80    4.90
   1  18   1   16.60    3.50
   1  18   1   22.60    3.80
  -1 -18  -2   -0.60    3.20
  -1 -18  -2    3.00    2.90
  -1 -18  -2    2.30    2.70
   1  18   2    1.80    2.40
   1  18   2    2.40    2.40
  -2 -18   2    3.10    2.20
   2  18  -2    6.90    3.40
   2  18  -2    5.40    2.90
  -2 -18   1    0.50    2.10
  -2 -18   1    0.10    1.70
  -2 -18   1    0.30    1.90
   2  18  -1    1.30    2.70
   2  18  -1   -0.70    2.20
  -2 -18   0    3.00    2.80
  -2 -18   0    2.70    2.30
   2  18   0    1.70    2.50
   2  18   0    1.90    2.20
  -2 -18  -1   -2.30    2.50
  -2 -18  -1    2.40    3.60
  -2 -18  -1    0.20    2.20
   2  18   1    2.70    2.30
   2  18   1    0.50    2.00
  -2 -18  -2    5.80    4.30
  -2 -18  -2    4.40    3.20
  -2 -18  -2    1.20    3.40
   2  18   2    2.20    2.60
   2  18   2    0.10    2.10
  -3 -18   2    5.00    2.70
   3  18  -2   -1.40    2.20
   3  18  -2    0.30    2.80
  -3 -18   1   23.20    4.20
  -3 -18   1   19.80    3.50
   3  18  -1   24.80    4.60
   3  18  -1   21.90    3.90
  -3 -18   0   15.80    3.70
  -3 -18   0   21.10    4.00
   3  18   0   18.90    3.80
   3  18   0   15.80    3.40
  -3 -18  -1   19.50    4.90
  -3 -18  -1   22.80    4.40
  -3 -18  -1   16.50    5.70
   3  18   1   21.50    3.80
   3  18   1   20.80    3.80
   3  18   1   26.40    4.10
  -3 -18  -2    8.70    3.70
  -3 -18  -2    4.20    3.40
  -3 -18  -2    3.50    4.60
   3  18   2    5.90    2.70
   3  18   2    4.50    2.70
  -4 -18   2    0.60    2.30
  -4 -18   2    2.30    2.20
   4  18  -2    5.30    2.70
   4  18  -2    0.30    2.90
  -4 -18   1   15.50    3.30
  -4 -18   1   13.10    3.30
   4  18  -1   16.70    4.10
   4  18  -1   14.00    3.40
  -4 -18   0   -0.80    2.10
  -4 -18   0   -0.70    2.00
   4  18   0   -2.00    2.00
   4  18   0    1.20    2.50
  -4 -18  -1   15.80    4.00
  -4 -18  -1   11.30    5.10
  -4 -18  -1   14.00    4.50
   4  18   1   14.90    3.40
   4  18   1   16.20    3.50
   4  18   1   12.70    3.40
  -4 -18  -2   -0.20    2.50
  -4 -18  -2    2.90    3.30
  -4 -18  -2   -0.50    3.60
   4  18   2    2.30    2.30
   4  18   2    2.80    2.50
  -5 -18   2   47.10    5.90
   5  18  -2   53.19    6.90
   5  18  -2   51.69    6.00
  -5 -18   1   -1.00    1.80
  -5 -18   1    3.50    2.60
   5  18  -1    3.00    2.90
   5  18  -1    0.00    2.40
  -5 -18   0   87.69    7.30
  -5 -18   0   83.19    7.70
   5  18   0  100.39    7.20
   5  18   0   95.99    7.20
  -5 -18  -1    0.30    2.40
  -5 -18  -1    1.00    2.80
  -5 -18  -1   -0.70    4.00
   5  18   1    0.10    2.10
   5  18   1   -0.70    2.40
   5  18   1    0.40    2.10
  -5 -18  -2   37.60    6.00
  -5 -18  -2   46.50    8.40
  -5 -18  -2   52.79    9.00
   5  18   2   56.99    6.60
   5  18   2   41.00    5.60
  -6 -18   2    8.20    3.60
  -6 -18   2    7.40    2.80
   6  18  -2    6.30    3.50
  -6 -18   1   14.50    3.30
  -6 -18   1    9.30    3.10
   6  18  -1   13.50    3.70
   6  18  -1   11.80    3.60
  -6 -18   0    4.90    2.80
  -6 -18   0    2.30    2.90
   6  18   0    6.50    3.00
   6  18   0    5.00    2.80
  -6 -18  -1   16.00    5.80
  -6 -18  -1    7.00    3.50
  -6 -18  -1   13.30    4.00
   6  18   1   14.40    3.60
   6  18   1   18.20    3.90
   6  18   1   15.20    3.70
  -6 -18  -2    6.20    5.10
  -6 -18  -2   15.20    4.30
   6  18   2    6.70    3.10
   6  18   2    5.00    3.10
   6  18   2    7.00    3.60
  -7 -18   1   32.10    4.80
  -7 -18   1   42.80    5.70
   7  18  -1   38.00    5.10
   7  18  -1   39.50    5.70
  -7 -18   0   -1.40    2.40
  -7 -18   0    1.40    2.40
   7  18   0    2.30    2.90
   7  18   0   -2.00    2.10
  -7 -18  -1   39.10    5.70
  -7 -18  -1   34.10    6.70
  -7 -18  -1   37.00    8.30
   7  18   1   44.40    5.60
   7  18   1   44.00    5.70
  -8 -18   0   -0.10    2.20
  -8 -18   0    3.60    6.10
   8  18   0    1.50    2.50
   8  18   0    0.50    2.50
   7 -19   0   11.10    2.80
   6 -19   1   16.10    3.30
  -6  19  -1   11.90    4.60
   6 -19   0    0.40    1.70
  -6  19   0   -0.30    2.60
   6 -19  -1   14.10    2.80
  -6  19   1   19.30    4.60
   5 -19   1    5.40    2.50
  -5  19  -1   -0.80    2.80
   5 -19   0   -0.20    1.70
  -5  19   0   -3.80    2.10
   5 -19  -1    1.80    2.00
  -5  19   1    1.00    2.70
   4 -19   2    4.40    2.60
  -4  19  -2    8.30    4.30
  -4  19  -2    2.50    3.70
   4 -19   1   34.20    4.20
  -4  19  -1   38.80    6.10
   4 -19   0    6.10    2.00
  -4  19   0    7.10    3.30
   4 -19  -1   54.49    4.40
  -4  19   1   45.70    6.20
  -4  19   1   45.00    5.50
   4 -19  -2    7.10    2.40
   4 -19  -2    2.40    4.00
   4 -19  -2    7.10    3.50
  -4  19   2   11.60    3.70
  -4  19   2    8.00    3.30
  -4  19   2    7.60    2.80
  -4  19   2    3.20    2.70
   3 -19   2   -0.80    2.00
  -3  19  -2   -0.10    3.60
  -3  19  -2    1.40    3.40
   3 -19   1   -0.40    1.60
  -3  19  -1    0.00    2.70
   3 -19   0    1.30    1.90
  -3  19   0    1.30    2.90
   3 -19  -1   -0.40    1.60
   3 -19  -1   -0.90    2.60
   3 -19  -1   -0.20    2.90
   3 -19  -1   -5.00    3.10
  -3  19   1    2.00    2.80
  -3  19   1    1.60    2.40
   3 -19  -2   -1.50    3.60
   3 -19  -2    1.60    1.80
   3 -19  -2    0.10    3.20
   3 -19  -2   -0.60    3.00
  -3  19   2    0.30    2.70
  -3  19   2   -1.70    2.60
  -3  19   2    2.90    2.40
   2 -19   2    6.60    2.60
  -2  19  -2    8.10    4.10
  -2  19  -2    6.50    3.80
   2 -19   1    7.80    2.70
  -2  19  -1   10.00    3.60
  -2  19  -1   13.00    4.20
   2 -19   0   43.70    4.40
  -2  19   0   53.99    6.40
   2 -19  -1   11.10    4.50
   2 -19  -1    9.00    4.40
   2 -19  -1    7.70    2.10
   2 -19  -1    6.30    2.90
  -2  19   1    8.30    3.60
  -2  19   1   12.80    3.10
   2 -19  -2   15.90    5.40
   2 -19  -2   18.60    4.50
   2 -19  -2   15.10    2.70
   2 -19  -2   21.90    5.50
  -2  19   2   11.50    3.70
  -2  19   2   15.90    3.40
  -2  19   2   15.50    3.80
   1 -19   2    0.00    2.20
  -1  19  -2    2.00    3.40
  -1  19  -2    3.90    3.10
   1 -19   1   19.90    3.40
  -1  19  -1   26.40    5.20
  -1  19  -1   18.70    4.40
   1 -19   0    6.90    2.80
   1 -19   0    4.70    3.50
   1 -19   0    9.40    2.40
  -1  19   0    8.80    3.20
   1 -19  -1   21.50    2.90
   1 -19  -1   20.60    4.30
   1 -19  -1   24.20    5.90
   1 -19  -1   17.60    5.00
  -1  19   1   28.60    4.50
  -1  19   1   19.40    3.60
   1 -19  -2    0.70    3.60
   1 -19  -2    2.50    3.60
   1 -19  -2    0.00    2.70
  -1  19   2    6.40    2.70
  -1  19   2   -1.60    2.40
  -1  19   2    1.20    2.00
   0 -19   2   12.50    3.40
   0  19  -2   13.70    4.60
   0  19  -2   16.80    4.20
   0 -19   1    3.10    2.10
   0  19  -1    3.50    2.90
   0  19  -1    3.30    3.00
   0 -19   0    0.50    1.50
   0 -19   0   -2.10    1.90
   0 -19   0   -1.10    2.80
   0  19   0    1.50    2.40
   0  19   0    0.70    2.30
   0 -19  -1   -1.60    2.10
   0 -19  -1    0.70    3.40
   0 -19  -1    1.10    2.80
   0  19   1    1.30    2.30
   0  19   1    2.70    2.70
   0 -19  -2   10.80    4.30
   0 -19  -2    9.30    3.80
   0 -19  -2   18.30    5.40
   0  19   2   15.10    3.70
   0  19   2   19.60    4.10
  -1 -19   2   -2.90    2.10
   1  19  -2    3.70    3.10
   1  19  -2   -2.20    2.90
  -1 -19   1   23.50    3.60
   1  19  -1   21.40    4.40
   1  19  -1   24.70    5.00
  -1 -19   0    4.90    2.70
  -1 -19   0    2.70    2.90
   1  19   0   12.60    3.50
   1  19   0   11.60    3.30
  -1 -19  -1   13.30    4.90
  -1 -19  -1    8.20    3.40
  -1 -19  -1   17.00    4.60
   1  19   1   14.10    3.50
   1  19   1   20.30    3.90
  -1 -19  -2   -4.10    3.40
  -1 -19  -2    0.80    2.80
  -1 -19  -2    0.30    3.60
   1  19   2    2.30    2.60
   1  19   2    0.80    2.40
  -2 -19   2   20.30    4.00
   2  19  -2   13.70    3.70
   2  19  -2   14.60    4.70
  -2 -19   1    9.60    2.80
  -2 -19   1   10.40    3.10
   2  19  -1    3.80    3.00
   2  19  -1    7.90    3.20
  -2 -19   0   39.10    5.20
  -2 -19   0   36.20    5.50
   2  19   0   38.50    5.10
   2  19   0   39.20    5.30
  -2 -19  -1    7.80    3.20
  -2 -19  -1   12.20    4.10
  -2 -19  -1    2.40    4.50
   2  19   1   12.20    3.40
   2  19   1   13.30    3.10
  -2 -19  -2   19.60    4.60
  -2 -19  -2   26.60    6.00
  -2 -19  -2   12.40    5.10
   2  19   2    8.40    3.30
   2  19   2   16.00    3.90
   3  19  -2   -1.40    2.60
   3  19  -2   -0.20    3.10
  -3 -19   1   -0.70    2.40
  -3 -19   1   -1.50    2.00
   3  19  -1    1.10    2.50
   3  19  -1   -0.50    3.00
  -3 -19   0    1.60    2.40
  -3 -19   0    4.30    3.10
   3  19   0    1.80    2.60
   3  19   0    3.00    2.80
  -3 -19  -1   -1.40    3.60
  -3 -19  -1   -2.80    3.30
  -3 -19  -1    3.80    2.80
   3  19   1    2.90    2.80
   3  19   1    0.90    1.90
   3  19   1    0.00    2.50
  -3 -19  -2   -1.40    3.90
  -3 -19  -2    1.00    2.90
   3  19   2    1.80    2.70
   3  19   2    1.30    2.40
  -4 -19   2    4.20    2.60
   4  19  -2    5.00    3.70
   4  19  -2    6.20    3.40
  -4 -19   1   39.90    5.50
  -4 -19   1   38.40    5.00
   4  19  -1   49.60    6.30
   4  19  -1   40.90    5.40
  -4 -19   0   -0.20    2.50
  -4 -19   0    9.50    3.30
   4  19   0   10.40    3.30
   4  19   0   11.40    3.40
  -4 -19  -1   48.20    8.60
  -4 -19  -1   38.80    5.90
  -4 -19  -1   31.20    5.90
   4  19   1   46.30    5.70
   4  19   1   48.50    5.80
   4  19   1   52.69    5.90
  -4 -19  -2    9.90    5.20
  -4 -19  -2    6.40    3.50
   4  19   2    5.00    3.20
   4  19   2    9.60    3.10
  -5 -19   1    5.50    2.80
  -5 -19   1    6.00    2.70
   5  19  -1    4.00    2.90
   5  19  -1    3.60    2.90
  -5 -19   0    2.80    2.70
  -5 -19   0   -0.50    2.50
   5  19   0   -2.10    2.10
   5  19   0   -2.30    2.20
  -5 -19  -1    0.20    3.10
  -5 -19  -1    2.60    2.70
  -5 -19  -1    6.50    4.90
   5  19   1   -0.50    2.20
   5  19   1    4.50    2.90
   5  19   1    5.00    3.00
  -6 -19   1   11.10    3.60
  -6 -19   1   10.20    3.10
   6  19  -1   10.10    3.90
   6  19  -1   14.50    3.80
  -6 -19   0   -2.90    2.70
  -6 -19   0   -1.10    2.10
   6  19   0   -1.50    2.50
   6  19   0   -0.40    2.40
  -6 -19  -1    4.70    5.10
  -6 -19  -1   17.30    4.20
   6  19   1   13.30    3.50
   6  19   1   14.10    3.70
   6  19   1   12.40    3.80
  -7 -19   0    6.20    3.00
   7  19   0    8.50    3.20
   7  19   0    9.00    3.40
   5 -20   0   10.50    2.60
  -5  20   0   14.40    4.80
   4 -20   1    0.40    2.10
  -4  20  -1    2.40    3.20
   4 -20   0   -0.70    1.60
  -4  20   0   -2.70    2.50
   4 -20  -1    1.70    1.80
  -4  20   1    1.30    3.20
   3 -20   1   -2.00    1.80
  -3  20  -1    0.60    3.40
   3 -20   0    2.40    2.00
  -3  20   0    4.10    3.00
   3 -20  -1   -1.70    2.70
   3 -20  -1    0.50    1.80
  -3  20   1   -2.30    2.20
   2 -20   1    5.30    2.30
  -2  20  -1    4.80    3.30
  -2  20  -1    9.00    4.70
   2 -20   0    1.60    1.80
  -2  20   0    0.60    2.70
   2 -20  -1    9.80    2.40
   2 -20  -1    4.80    4.00
   2 -20  -1    3.40    3.00
  -2  20   1    4.30    3.00
   1 -20   1   14.40    3.20
  -1  20  -1   21.60    5.10
  -1  20  -1   23.40    4.60
   1 -20   0    3.60    2.20
  -1  20   0    2.10    2.80
   1 -20  -1   14.60    2.70
   1 -20  -1   19.10    4.80
   1 -20  -1   15.10    4.20
  -1  20   1   20.90    4.50
  -1  20   1   17.80    4.10
   0 -20   1    1.80    1.90
   0  20  -1    2.80    3.50
   0  20  -1    1.10    2.70
   0 -20   0   20.90    3.30
   0 -20   0   20.20    4.50
   0 -20   0   12.90    3.50
   0  20   0   18.70    4.30
   0 -20  -1    3.50    3.40
   0 -20  -1    2.70    2.90
   0 -20  -1    0.80    4.20
   0  20   1    4.50    2.70
   0  20   1   -4.70    1.70
  -1 -20   1   13.30    3.00
   1  20  -1   19.90    4.80
   1  20  -1    9.60    3.40
  -1 -20   0    0.10    2.70
  -1 -20   0    4.20    2.90
   1  20   0    6.90    2.90
   1  20   0    4.30    2.90
  -1 -20  -1   13.30    3.90
  -1 -20  -1   15.30    4.60
  -1 -20  -1   15.80    5.40
   1  20   1   18.50    3.70
   1  20   1   16.60    3.80
  -2 -20   1    8.30    3.00
   2  20  -1    6.10    3.30
   2  20  -1    2.60    3.30
  -2 -20   0    3.90    2.80
  -2 -20   0    2.20    3.00
   2  20   0    2.20    2.50
   2  20   0    0.80    2.50
  -2 -20  -1    7.70    3.50
  -2 -20  -1    5.30    5.10
  -2 -20  -1    5.70    3.60
   2  20   1    0.10    2.40
   2  20   1    5.00    2.70
  -3 -20   1    0.00    2.30
  -3 -20   1   -0.10    2.10
   3  20  -1    2.20    3.40
   3  20  -1    2.60    2.70
  -3 -20   0   -2.90    2.00
  -3 -20   0    0.80    3.00
   3  20   0    0.30    2.20
   3  20   0    2.60    2.60
  -3 -20  -1    6.20    3.20
  -3 -20  -1   -3.10    4.30
  -3 -20  -1    1.10    3.30
   3  20   1   -1.40    2.30
   3  20   1    0.40    2.30
  -4 -20   1   -1.90    2.40
  -4 -20   1    0.60    2.40
   4  20  -1    5.70    3.30
   4  20  -1   -1.10    2.20
  -4 -20   0    2.40    3.10
  -4 -20   0    1.00    2.60
   4  20   0    3.40    2.70
   4  20   0    2.70    2.60
  -4 -20  -1   -1.60    4.90
  -4 -20  -1    3.40    3.00
   4  20   1    0.50    2.60
   4  20   1    0.30    2.40
   4  20   1   -2.50    2.40
  -5 -20   0   10.20    4.20
  -5 -20   0    5.20    2.90
   5  20   0   17.20    4.10
   5  20   0   11.50    3.50
   2 -21   0    7.00    2.40
  -2  21   0    8.20    3.60
   1 -21   0    5.10    2.30
  -1  21   0   -1.30    2.60
   0 -21   0   -1.20    2.20
   0  21   0   -1.40    2.30
  -1 -21   0    3.00    2.60
  -1 -21   0    4.60    3.40
   1  21   0    5.60    3.00
  -2 -21   0    2.70    2.80
  -2 -21   0    4.10    3.20
   2  21   0    3.00    2.60
   2  21   0    2.40    3.20
   0   0   0    0.00    0.00

_computing_structure_solution     'SHELXT 2014/5 (Sheldrick, 2014)'
;
_shelx_hkl_checksum              65521
_olex2_submission_special_instructions 'No special instructions were received'
loop_
_space_group_symop_operation_xyz
'x, y, z'
'-x, -y, z'
'-x+1/2, y+1/2, -z'
'x+1/2, -y+1/2, -z'
loop_
_atom_site_label
_atom_site_type_symbol
_atom_site_fract_x
_atom_site_fract_y
_atom_site_fract_z
_atom_site_U_iso_or_equiv
_atom_site_adp_type
_atom_site_occupancy
_atom_site_site_symmetry_order
_atom_site_calc_flag
_atom_site_refinement_flags_posn
_atom_site_refinement_flags_adp
_atom_site_refinement_flags_occupancy
_atom_site_disorder_assembly
_atom_site_disorder_group
Cl1 Cl 0.46226(9) 0.31790(7) -0.0963(3) 0.0881(4) Uani 1 1 d . . . . .
Cl2 Cl 0.83402(9) 0.37864(7) 0.4702(4) 0.0947(5) Uani 1 1 d . . . . .
O1 O 0.500000 0.500000 0.4117(7) 0.0704(11) Uani 1 2 d S T P . .
N004 N 0.5766(2) 0.46638(15) -0.0186(7) 0.0522(7) Uani 1 1 d . . . . .
H004 H 0.575724 0.471552 -0.208051 0.063 Uiso 1 1 calc R . . . .
C005 C 0.500000 0.500000 0.1427(9) 0.0426(10) Uani 1 2 d S T P . .
C006 C 0.6494(3) 0.34652(18) 0.1933(8) 0.0452(7) Uani 1 1 d . . . . .
N1 N 0.6565(2) 0.42393(17) 0.1106(9) 0.0710(10) Uani 1 1 d . . . . .
H1 H 0.715573 0.447680 0.142252 0.085 Uiso 1 1 calc R . . . .
C008 C 0.5710(3) 0.29211(19) 0.1164(8) 0.0490(8) Uani 1 1 d . . . . .
C009 C 0.7320(3) 0.3161(2) 0.3668(8) 0.0536(8) Uani 1 1 d . . . . .
C00A C 0.6594(3) 0.1874(2) 0.3702(9) 0.0591(9) Uani 1 1 d . . . . .
C00B C 0.5763(3) 0.2142(2) 0.2010(9) 0.0577(9) Uani 1 1 d . . . . .
H00B H 0.523200 0.179541 0.143137 0.069 Uiso 1 1 calc R . . . .
C00C C 0.7375(3) 0.2389(2) 0.4554(10) 0.0632(10) Uani 1 1 d . . . . .
H00C H 0.793599 0.221671 0.572007 0.076 Uiso 1 1 calc R . . . .
F1 F 0.7443(7) 0.0691(5) 0.332(6) 0.114(7) Uani 0.483(18) 1 d . . . A 1
F3 F 0.667(4) 0.0895(8) 0.717(3) 0.260(16) Uani 0.483(18) 1 d . . . A 1
C00F C 0.6663(5) 0.1018(2) 0.4545(12) 0.0829(14) Uani 1 1 d . . . . .
F1AA F 0.5899(7) 0.0801(7) 0.620(5) 0.115(6) Uani 0.517(18) 1 d . . . A 2
F0AA F 0.7468(9) 0.0856(9) 0.635(7) 0.151(9) Uani 0.517(18) 1 d . . . A 2
F2AA F 0.680(4) 0.0556(7) 0.252(3) 0.262(16) Uani 0.517(18) 1 d . . . A 2
F2 F 0.5857(7) 0.0595(5) 0.328(6) 0.118(6) Uani 0.483(18) 1 d . . . A 1
loop_
_atom_site_aniso_label
_atom_site_aniso_U_11
_atom_site_aniso_U_22
_atom_site_aniso_U_33
_atom_site_aniso_U_23
_atom_site_aniso_U_13
_atom_site_aniso_U_12
Cl1 0.0711(7) 0.0718(7) 0.1214(10) 0.0097(7) -0.0406(7) -0.0062(5)
Cl2 0.0640(6) 0.0652(6) 0.1551(13) -0.0097(7) -0.0441(8) 0.0065(5)
O1 0.099(3) 0.083(3) 0.0293(16) 0.000 0.000 -0.006(2)
N004 0.0604(16) 0.0475(15) 0.0486(15) 0.0073(13) 0.0043(14) 0.0159(13)
C005 0.054(3) 0.039(2) 0.036(2) 0.000 0.000 -0.0032(19)
C006 0.0411(16) 0.0409(15) 0.0537(18) 0.0016(14) 0.0060(14) 0.0087(13)
N1 0.0481(16) 0.0440(16) 0.121(3) 0.0180(18) -0.017(2) 0.0016(13)
C008 0.0455(17) 0.0466(17) 0.0548(19) 0.0020(16) 0.0049(15) 0.0034(14)
C009 0.0454(17) 0.0464(17) 0.069(2) -0.0049(17) -0.0043(17) 0.0107(15)
C00A 0.066(2) 0.0435(17) 0.068(2) 0.0099(17) 0.016(2) 0.0151(17)
C00B 0.059(2) 0.0453(18) 0.068(2) -0.0014(17) 0.0138(19) -0.0017(16)
C00C 0.060(2) 0.057(2) 0.072(3) 0.0050(19) -0.001(2) 0.0238(17)
F1 0.073(5) 0.041(4) 0.23(2) 0.006(6) 0.029(7) 0.027(3)
F3 0.63(5) 0.091(8) 0.061(6) 0.031(5) 0.044(19) 0.11(2)
C00F 0.114(4) 0.049(2) 0.086(3) 0.011(2) 0.022(3) 0.018(3)
F1AA 0.090(5) 0.073(5) 0.183(17) 0.061(8) 0.024(6) -0.001(4)
F0AA 0.117(8) 0.085(7) 0.25(2) 0.082(11) -0.046(10) 0.017(5)
F2AA 0.64(5) 0.059(6) 0.088(7) 0.003(5) 0.063(19) 0.060(18)
F2 0.093(6) 0.047(4) 0.214(19) 0.030(6) -0.012(7) -0.017(3)
loop_
_atom_type_symbol
_atom_type_description
_atom_type_scat_dispersion_real
_atom_type_scat_dispersion_imag
_atom_type_scat_source
C C 0.0033 0.0016 'International Tables Vol C Tables 4.2.6.8 and 6.1.1.4'
H H 0.0000 0.0000 'International Tables Vol C Tables 4.2.6.8 and 6.1.1.4'
Cl Cl 0.1484 0.1585 'International Tables Vol C Tables 4.2.6.8 and 6.1.1.4'
F F 0.0171 0.0103 'International Tables Vol C Tables 4.2.6.8 and 6.1.1.4'
N N 0.0061 0.0033 'International Tables Vol C Tables 4.2.6.8 and 6.1.1.4'
O O 0.0106 0.0060 'International Tables Vol C Tables 4.2.6.8 and 6.1.1.4'
loop_
_geom_angle_atom_site_label_1
_geom_angle_atom_site_label_2
_geom_angle_atom_site_label_3
_geom_angle
_geom_angle_site_symmetry_1
_geom_angle_site_symmetry_3
_geom_angle_publ_flag
C005 N004 H004 119.2 . . ?
C005 N004 N1 121.6(3) . . ?
N1 N004 H004 119.2 . . ?
O1 C005 N004 122.95(19) . . ?
O1 C005 N004 122.95(19) . 2_665 ?
N004 C005 N004 114.1(4) . 2_665 ?
N1 C006 C008 127.8(3) . . ?
N1 C006 C009 117.1(3) . . ?
C008 C006 C009 115.0(3) . . ?
N004 N1 C006 124.9(3) . . ?
N004 N1 H1 117.5 . . ?
C006 N1 H1 117.5 . . ?
C006 C008 Cl1 122.1(3) . . ?
C00B C008 Cl1 115.8(3) . . ?
C00B C008 C006 122.1(3) . . ?
C006 C009 Cl2 118.5(3) . . ?
C00C C009 Cl2 118.0(3) . . ?
C00C C009 C006 123.5(3) . . ?
C00B C00A C00F 120.3(4) . . ?
C00C C00A C00B 119.4(3) . . ?
C00C C00A C00F 120.3(4) . . ?
C008 C00B H00B 119.7 . . ?
C00A C00B C008 120.6(4) . . ?
C00A C00B H00B 119.7 . . ?
C009 C00C C00A 119.4(4) . . ?
C009 C00C H00C 120.3 . . ?
C00A C00C H00C 120.3 . . ?
F1 C00F C00A 111.1(7) . . ?
F1 C00F F2 99.6(8) . . ?
F3 C00F C00A 114.7(8) . . ?
F3 C00F F1 110.6(16) . . ?
F3 C00F F2 109.0(18) . . ?
F1AA C00F C00A 112.6(6) . . ?
F1AA C00F F0AA 99.0(8) . . ?
F0AA C00F C00A 113.5(8) . . ?
F2AA C00F C00A 116.1(6) . . ?
F2AA C00F F1AA 111.1(16) . . ?
F2AA C00F F0AA 102.8(14) . . ?
F2 C00F C00A 111.0(6) . . ?
loop_
_geom_bond_atom_site_label_1
_geom_bond_atom_site_label_2
_geom_bond_distance
_geom_bond_site_symmetry_2
_geom_bond_publ_flag
Cl1 C008 1.732(4) . ?
Cl2 C009 1.733(4) . ?
O1 C005 1.215(5) . ?
N004 H004 0.8600 . ?
N004 C005 1.339(3) . ?
N004 N1 1.370(4) . ?
C006 N1 1.370(4) . ?
C006 C008 1.398(5) . ?
C006 C009 1.404(5) . ?
N1 H1 0.8600 . ?
C008 C00B 1.379(5) . ?
C009 C00C 1.373(5) . ?
C00A C00B 1.377(5) . ?
C00A C00C 1.374(5) . ?
C00A C00F 1.506(5) . ?
C00B H00B 0.9300 . ?
C00C H00C 0.9300 . ?
F1 C00F 1.260(11) . ?
F3 C00F 1.206(12) . ?
C00F F1AA 1.275(12) . ?
C00F F0AA 1.333(14) . ?
C00F F2AA 1.218(11) . ?
C00F F2 1.370(14) . ?
