#------------------------------------------------------------------------------
#$Date: 2020-06-04 03:54:43 +0300 (Thu, 04 Jun 2020) $
#$Revision: 252588 $
#$URL: file:///home/coder/svn-repositories/cod/cif/4/51/76/4517667.cif $
#------------------------------------------------------------------------------
#
# This file is available in the Crystallography Open Database (COD),
# http://www.crystallography.net/
#
# All data on this site have been placed in the public domain by the
# contributors.
#
data_4517667
loop_
_publ_author_name
'Shao, Zhichao'
'Zhao, Yujie'
'Xie, Qiong'
'Wang, Hongfei'
'Cui, Yang'
'Yang, Xiaoqian'
'Hou, Hongwei'
_publ_section_title
;
 Efficient Identification for Alcohol Homologues and Hyperthermy Based on
 Coordination Polymer Multiple Structural Transformations.
;
_journal_issue                   21
_journal_name_full               'ACS applied materials &amp; interfaces'
_journal_page_first              24141
_journal_page_last               24148
_journal_paper_doi               10.1021/acsami.0c05208
_journal_volume                  12
_journal_year                    2020
_chemical_formula_moiety         'C8 H8 N O2 Zn0.5'
_chemical_formula_sum            'C8 H8 N O2 Zn0.5'
_chemical_formula_weight         182.84
_space_group_crystal_system      monoclinic
_space_group_IT_number           13
_space_group_name_Hall           '-P 2yac'
_space_group_name_H-M_alt        'P 1 2/n 1'
_atom_sites_solution_hydrogens   geom
_audit_creation_date             2019-12-19
_audit_creation_method
;
Olex2 1.2-beta
(compiled 2018.05.29 svn.r3508 for OlexSys, GUI svn.r5506)
;
_cell_angle_alpha                90
_cell_angle_beta                 97.841(2)
_cell_angle_gamma                90
_cell_formula_units_Z            4
_cell_length_a                   9.5875(6)
_cell_length_b                   5.6958(4)
_cell_length_c                   16.0243(11)
_cell_measurement_reflns_used    9963
_cell_measurement_temperature    293(2)
_cell_measurement_theta_max      27.28
_cell_measurement_theta_min      2.57
_cell_volume                     866.88(10)
_computing_cell_refinement       'SAINT v8.37A (Bruker, 2015)'
_computing_data_reduction        'SAINT v8.37A (Bruker, 2015)'
_computing_molecular_graphics    'Olex2 (Dolomanov et al., 2009)'
_computing_publication_material  'Olex2 (Dolomanov et al., 2009)'
_computing_structure_refinement  'ShelXL (Sheldrick, 2015)'
_computing_structure_solution    'SHELXT 2014/5 (Sheldrick, 2014)'
_diffrn_ambient_temperature      293.15
_diffrn_measured_fraction_theta_full 0.996
_diffrn_measured_fraction_theta_max 0.996
_diffrn_measurement_device_type  'Bruker APEX-II CCD'
_diffrn_measurement_method       '\f and \w scans'
_diffrn_radiation_type           MoK\a
_diffrn_radiation_wavelength     0.71073
_diffrn_reflns_av_R_equivalents  0.0341
_diffrn_reflns_av_unetI/netI     0.0174
_diffrn_reflns_Laue_measured_fraction_full 0.996
_diffrn_reflns_Laue_measured_fraction_max 0.996
_diffrn_reflns_limit_h_max       11
_diffrn_reflns_limit_h_min       -12
_diffrn_reflns_limit_k_max       7
_diffrn_reflns_limit_k_min       -7
_diffrn_reflns_limit_l_max       20
_diffrn_reflns_limit_l_min       -20
_diffrn_reflns_number            19249
_diffrn_reflns_point_group_measured_fraction_full 0.996
_diffrn_reflns_point_group_measured_fraction_max 0.996
_diffrn_reflns_theta_full        25.242
_diffrn_reflns_theta_max         27.553
_diffrn_reflns_theta_min         3.577
_diffrn_standards_number         0
_exptl_absorpt_coefficient_mu    1.436
_exptl_absorpt_correction_T_max  0.7456
_exptl_absorpt_correction_T_min  0.5970
_exptl_absorpt_correction_type   multi-scan
_exptl_absorpt_process_details
;
SADABS-2016/2 (Bruker,2016/2) was used for absorption correction.
wR2(int) was 0.0915 before and 0.0455 after correction.
The Ratio of minimum to maximum transmission is 0.8007.
The \l/2 correction factor is Not present.
;
_exptl_crystal_colour            yellow
_exptl_crystal_colour_primary    yellow
_exptl_crystal_density_diffrn    1.401
_exptl_crystal_description       block
_exptl_crystal_F_000             376
_exptl_crystal_size_max          0.12
_exptl_crystal_size_mid          0.11
_exptl_crystal_size_min          0.11
_refine_diff_density_max         1.819
_refine_diff_density_min         -0.663
_refine_diff_density_rms         0.120
_refine_ls_extinction_method     none
_refine_ls_goodness_of_fit_ref   1.131
_refine_ls_hydrogen_treatment    constr
_refine_ls_matrix_type           full
_refine_ls_number_parameters     106
_refine_ls_number_reflns         2008
_refine_ls_number_restraints     0
_refine_ls_restrained_S_all      1.131
_refine_ls_R_factor_all          0.0544
_refine_ls_R_factor_gt           0.0501
_refine_ls_shift/su_max          0.000
_refine_ls_shift/su_mean         0.000
_refine_ls_structure_factor_coef Fsqd
_refine_ls_weighting_details
'w=1/[\s^2^(Fo^2^)+(0.1080P)^2^+0.3495P] where P=(Fo^2^+2Fc^2^)/3'
_refine_ls_weighting_scheme      calc
_refine_ls_wR_factor_gt          0.1496
_refine_ls_wR_factor_ref         0.1534
_reflns_Friedel_coverage         0.000
_reflns_number_gt                1827
_reflns_number_total             2008
_reflns_threshold_expression     'I > 2\s(I)'
_iucr_refine_instructions_details
;
TITL mo_181203j_0m_a.res in P2/n
    mo_181203j_0m_a.res
    created by SHELXL-2018/3 at 23:07:03 on 19-Dec-2019
REM Old TITL mo_181203j_0m in Pn
REM SHELXT solution in P2/n
REM R1 0.101, Rweak 0.005, Alpha 0.024, Orientation as input
REM Formula found by SHELXT: C16 N O6 Zn
CELL 0.71073 9.5875 5.6958 16.0243 90 97.841 90
ZERR 4 0.0006 0.0004 0.0011 0 0.002 0
LATT 1
SYMM 0.5-X,+Y,0.5-Z
SFAC C H N O Zn
UNIT 32 32 4 8 2

L.S. 30
PLAN  20
SIZE 0.11 0.11 0.12
TEMP 20
BOND $H
LIST 4
fmap 2
acta
OMIT 1 0 1
OMIT -1 0 1
OMIT 0 0 4
OMIT -2 1 3
OMIT 1 0 3
OMIT -2 0 2
REM <olex2.extras>
REM <HklSrc "%.\\mo_181203j_0m_a.hkl">
REM </olex2.extras>

WGHT    0.108000    0.349500
FVAR       0.95115
ZN1   5    0.750000    0.200297    0.250000    10.50000    0.03944    0.03341 =
         0.03168    0.00000    0.00493    0.00000
O1    4    0.634108   -0.018722    0.177725    11.00000    0.06192    0.05696 =
         0.06118   -0.00394   -0.00984   -0.01481
N1    3    0.676244    0.422893    0.334121    11.00000    0.04613    0.03805 =
         0.03106    0.00129    0.00834    0.00344
O2    4    0.459533    0.239925    0.156386    11.00000    0.07792    0.07565 =
         0.11028   -0.03235    0.01464   -0.00575
C5    1    0.588323    0.745904    0.447373    11.00000    0.04950    0.04252 =
         0.03992   -0.00277    0.01317    0.00124
C8    1    0.544153    0.912018    0.509068    11.00000    0.05535    0.04698 =
         0.04071   -0.00736    0.01069    0.00144
AFIX  43
H8    2    0.581457    0.891241    0.565263    11.00000   -1.20000
AFIX   0
C4    1    0.524977    0.733985    0.363804    11.00000    0.06194    0.05911 =
         0.04824   -0.01083   -0.00087    0.02324
AFIX  43
H4    2    0.451671    0.835363    0.344333    11.00000   -1.20000
AFIX   0
C2    1    0.510140    0.041114    0.148957    11.00000    0.05919    0.05640 =
         0.05076   -0.00576    0.00378   -0.01706
C6    1    0.696313    0.591718    0.471870    11.00000    0.06921    0.05856 =
         0.03306   -0.00354    0.00210    0.01924
AFIX  43
H6    2    0.741286    0.592342    0.527094    11.00000   -1.20000
AFIX   0
C3    1    0.570950    0.573150    0.310791    11.00000    0.06458    0.05505 =
         0.03689   -0.00614   -0.00305    0.01690
AFIX  43
H3    2    0.526738    0.567592    0.255436    11.00000   -1.20000
AFIX   0
C7    1    0.737907    0.434979    0.413706    11.00000    0.06419    0.05882 =
         0.03630   -0.00075    0.00305    0.02371
AFIX  43
H7    2    0.812286    0.333672    0.431094    11.00000   -1.20000
AFIX   0
C1    1    0.423263   -0.140856    0.095919    11.00000    0.07882    0.06262 =
         0.09411   -0.01502   -0.03301   -0.01154
AFIX 137
H1A   2    0.484742   -0.244814    0.071007    11.00000   -1.50000
H1B   2    0.361332   -0.063676    0.052275    11.00000   -1.50000
H1C   2    0.368687   -0.229334    0.130880    11.00000   -1.50000
AFIX   0
HKLF 4




REM  mo_181203j_0m_a.res in P2/n
REM wR2 = 0.1534, GooF = S = 1.131, Restrained GooF = 1.131 for all data
REM R1 = 0.0501 for 1827 Fo > 4sig(Fo) and 0.0544 for all 2008 data
REM 106 parameters refined using 0 restraints

END  
     
WGHT      0.1080      0.3495 

REM Highest difference peak  1.819,  deepest hole -0.663,  1-sigma level  0.120
Q1    1   0.2500  1.0929  0.2500  10.50000  0.05    1.82
Q2    1   0.2957  1.1663  0.2886  11.00000  0.05    1.47
Q3    1   0.4774  0.1388  0.2132  11.00000  0.05    0.70
Q4    1   0.5626  0.7930  0.3774  11.00000  0.05    0.30
Q5    1   0.6802 -0.0851  0.1369  11.00000  0.05    0.27
Q6    1   0.4660 -0.3031  0.1074  11.00000  0.05    0.23
Q7    1   0.6837  0.4691  0.4473  11.00000  0.05    0.22
Q8    1   0.5448  1.0699  0.3400  11.00000  0.05    0.21
Q9    1   0.7182  0.4564  0.3433  11.00000  0.05    0.20
Q10   1   0.5940  1.0671  0.3612  11.00000  0.05    0.20
Q11   1   0.4185  0.9232  0.6026  11.00000  0.05    0.20
Q12   1   0.6700  0.3722  0.3801  11.00000  0.05    0.20
Q13   1   0.5807  0.1898  0.3686  11.00000  0.05    0.19
Q14   1   0.6350  1.0403  0.3869  11.00000  0.05    0.19
Q15   1   0.5791  0.2067  0.3099  11.00000  0.05    0.19
Q16   1   0.5236  0.6903  0.4101  11.00000  0.05    0.19
Q17   1   0.6014  0.6109  0.2996  11.00000  0.05    0.18
Q18   1   0.4839 -0.1548  0.0229  11.00000  0.05    0.18
Q19   1   0.5083  0.2038  0.3111  11.00000  0.05    0.17
Q20   1   0.5650  0.6786  0.3358  11.00000  0.05    0.16

  REM The information below was added by Olex2.
  REM
  REM R1 = 0.0501 for 1827 Fo > 4sig(Fo) and 0.0544 for all 20361 data
  REM n/a parameters refined using n/a restraints
  REM Highest difference peak 1.82, deepest hole -0.66
  REM Mean Shift 0, Max Shift 0.000.

  REM +++ Tabular Listing of Refinement Information +++
  REM R1_all = 0.0544
  REM R1_gt = 0.0501
  REM wR_ref = 0.1534
  REM GOOF = 1.131
  REM Shift_max = 0.000
  REM Shift_mean = 0
  REM Reflections_all = 20361
  REM Reflections_gt = 1827
  REM Parameters = n/a
  REM Hole = -0.66
  REM Peak = 1.82
  REM Flack = n/a

  
;
_cod_data_source_file            am0c05208_si_002.cif
_cod_data_source_block           5
_cod_depositor_comments
'Adding full bibliography for 4517663--4517671.cif.'
_cod_original_formula_sum        'C8 H8 N O2 Zn0.50'
_cod_database_code               4517667
_shelx_shelxl_version_number     2018/3
_shelx_space_group_comment
;
The symmetry employed for this shelxl refinement is uniquely defined
by the following loop, which should always be used as a source of
symmetry information in preference to the above space-group names.
They are only intended as comments.
;
_shelx_estimated_absorpt_t_max   0.858
_shelx_estimated_absorpt_t_min   0.847
_olex2_refinement_description
;
1. Fixed Uiso
 At 1.2 times of:
  All C(H) groups
 At 1.5 times of:
  All C(H,H,H) groups
2.a Aromatic/amide H refined with riding coordinates:
 C8(H8), C4(H4), C6(H6), C3(H3), C7(H7)
2.b Idealised Me refined as rotating group:
 C1(H1A,H1B,H1C)
;
_olex2_submission_special_instructions 'No special instructions were received'
loop_
_space_group_symop_operation_xyz
'x, y, z'
'-x+1/2, y, -z+1/2'
'-x, -y, -z'
'x-1/2, -y, z-1/2'
loop_
_atom_site_label
_atom_site_type_symbol
_atom_site_fract_x
_atom_site_fract_y
_atom_site_fract_z
_atom_site_U_iso_or_equiv
_atom_site_adp_type
_atom_site_occupancy
_atom_site_site_symmetry_order
_atom_site_calc_flag
_atom_site_refinement_flags_posn
_atom_site_refinement_flags_adp
_atom_site_refinement_flags_occupancy
_atom_site_disorder_assembly
_atom_site_disorder_group
Zn1 Zn 0.750000 0.20030(8) 0.250000 0.0348(2) Uani 1 2 d S T P . .
O1 O 0.6341(3) -0.0187(5) 0.17773(17) 0.0617(7) Uani 1 1 d . . . . .
N1 N 0.6762(3) 0.4229(5) 0.33412(15) 0.0381(5) Uani 1 1 d . . . . .
O2 O 0.4595(4) 0.2399(7) 0.1564(3) 0.0878(12) Uani 1 1 d . . . . .
C5 C 0.5883(4) 0.7459(6) 0.4474(2) 0.0433(7) Uani 1 1 d . . . . .
C8 C 0.5442(3) 0.9120(6) 0.5091(2) 0.0473(7) Uani 1 1 d . . . . .
H8 H 0.581457 0.891241 0.565263 0.057 Uiso 1 1 calc R . . . .
C4 C 0.5250(5) 0.7340(8) 0.3638(3) 0.0572(9) Uani 1 1 d . . . . .
H4 H 0.451671 0.835363 0.344333 0.069 Uiso 1 1 calc R . . . .
C2 C 0.5101(4) 0.0411(7) 0.1490(2) 0.0558(9) Uani 1 1 d . . . . .
C6 C 0.6963(4) 0.5917(7) 0.4719(2) 0.0541(8) Uani 1 1 d . . . . .
H6 H 0.741286 0.592342 0.527094 0.065 Uiso 1 1 calc R . . . .
C3 C 0.5709(4) 0.5732(7) 0.3108(2) 0.0531(8) Uani 1 1 d . . . . .
H3 H 0.526738 0.567592 0.255436 0.064 Uiso 1 1 calc R . . . .
C7 C 0.7379(4) 0.4350(7) 0.4137(2) 0.0535(8) Uani 1 1 d . . . . .
H7 H 0.812286 0.333672 0.431094 0.064 Uiso 1 1 calc R . . . .
C1 C 0.4233(5) -0.1409(9) 0.0959(4) 0.0827(15) Uani 1 1 d . . . . .
H1A H 0.484742 -0.244814 0.071007 0.124 Uiso 1 1 calc GR . . . .
H1B H 0.361332 -0.063676 0.052275 0.124 Uiso 1 1 calc GR . . . .
H1C H 0.368687 -0.229334 0.130880 0.124 Uiso 1 1 calc GR . . . .
loop_
_atom_site_aniso_label
_atom_site_aniso_U_11
_atom_site_aniso_U_22
_atom_site_aniso_U_33
_atom_site_aniso_U_23
_atom_site_aniso_U_13
_atom_site_aniso_U_12
Zn1 0.0394(3) 0.0334(3) 0.0317(3) 0.000 0.00493(18) 0.000
O1 0.0619(14) 0.0570(15) 0.0612(15) -0.0039(13) -0.0098(12) -0.0148(12)
N1 0.0461(12) 0.0381(12) 0.0311(11) 0.0013(9) 0.0083(9) 0.0034(10)
O2 0.078(2) 0.076(2) 0.110(3) -0.032(2) 0.015(2) -0.0058(18)
C5 0.0495(17) 0.0425(14) 0.0399(16) -0.0028(13) 0.0132(14) 0.0012(13)
C8 0.0554(17) 0.0470(17) 0.0407(15) -0.0074(13) 0.0107(13) 0.0014(14)
C4 0.062(2) 0.059(2) 0.048(2) -0.0108(16) -0.0009(17) 0.0232(18)
C2 0.0592(19) 0.056(2) 0.0508(18) -0.0058(16) 0.0038(15) -0.0171(17)
C6 0.069(2) 0.059(2) 0.0331(14) -0.0035(14) 0.0021(14) 0.0192(18)
C3 0.065(2) 0.055(2) 0.0369(15) -0.0061(14) -0.0031(14) 0.0169(16)
C7 0.0642(19) 0.059(2) 0.0363(15) -0.0008(14) 0.0030(14) 0.0237(17)
C1 0.079(3) 0.063(2) 0.094(4) -0.015(3) -0.033(3) -0.012(2)
loop_
_atom_type_symbol
_atom_type_description
_atom_type_scat_dispersion_real
_atom_type_scat_dispersion_imag
_atom_type_scat_source
C C 0.0033 0.0016 'International Tables Vol C Tables 4.2.6.8 and 6.1.1.4'
H H 0.0000 0.0000 'International Tables Vol C Tables 4.2.6.8 and 6.1.1.4'
N N 0.0061 0.0033 'International Tables Vol C Tables 4.2.6.8 and 6.1.1.4'
O O 0.0106 0.0060 'International Tables Vol C Tables 4.2.6.8 and 6.1.1.4'
Zn Zn 0.2839 1.4301 'International Tables Vol C Tables 4.2.6.8 and 6.1.1.4'
loop_
_geom_angle_atom_site_label_1
_geom_angle_atom_site_label_2
_geom_angle_atom_site_label_3
_geom_angle
_geom_angle_site_symmetry_1
_geom_angle_site_symmetry_3
_geom_angle_publ_flag
O1 Zn1 O1 100.18(17) . 2_655 ?
O1 Zn1 N1 103.06(11) 2_655 . ?
O1 Zn1 N1 103.06(11) . 2_655 ?
O1 Zn1 N1 124.70(11) . . ?
O1 Zn1 N1 124.70(11) 2_655 2_655 ?
N1 Zn1 N1 103.40(14) . 2_655 ?
C2 O1 Zn1 118.5(3) . . ?
C3 N1 Zn1 121.9(2) . . ?
C7 N1 Zn1 121.0(2) . . ?
C7 N1 C3 117.0(3) . . ?
C4 C5 C8 123.3(3) . . ?
C6 C5 C8 119.6(3) . . ?
C6 C5 C4 117.1(3) . . ?
C5 C8 H8 117.4 . . ?
C8 C8 C5 125.1(4) 3_676 . ?
C8 C8 H8 117.4 3_676 . ?
C5 C4 H4 120.1 . . ?
C3 C4 C5 119.7(3) . . ?
C3 C4 H4 120.1 . . ?
O1 C2 C1 116.0(4) . . ?
O2 C2 O1 124.8(4) . . ?
O2 C2 C1 119.0(4) . . ?
C5 C6 H6 120.2 . . ?
C5 C6 C7 119.6(3) . . ?
C7 C6 H6 120.2 . . ?
N1 C3 C4 123.5(3) . . ?
N1 C3 H3 118.2 . . ?
C4 C3 H3 118.2 . . ?
N1 C7 C6 123.1(3) . . ?
N1 C7 H7 118.5 . . ?
C6 C7 H7 118.5 . . ?
C2 C1 H1A 109.5 . . ?
C2 C1 H1B 109.5 . . ?
C2 C1 H1C 109.5 . . ?
H1A C1 H1B 109.5 . . ?
H1A C1 H1C 109.5 . . ?
H1B C1 H1C 109.5 . . ?
loop_
_geom_bond_atom_site_label_1
_geom_bond_atom_site_label_2
_geom_bond_distance
_geom_bond_site_symmetry_2
_geom_bond_publ_flag
Zn1 O1 1.944(2) . ?
Zn1 O1 1.944(2) 2_655 ?
Zn1 N1 2.046(2) 2_655 ?
Zn1 N1 2.046(2) . ?
O1 C2 1.262(5) . ?
N1 C3 1.337(4) . ?
N1 C7 1.332(4) . ?
O2 C2 1.244(6) . ?
C5 C8 1.472(5) . ?
C5 C4 1.395(5) . ?
C5 C6 1.373(5) . ?
C8 C8 1.319(7) 3_676 ?
C8 H8 0.9300 . ?
C4 H4 0.9300 . ?
C4 C3 1.363(5) . ?
C2 C1 1.516(5) . ?
C6 H6 0.9300 . ?
C6 C7 1.388(5) . ?
C3 H3 0.9300 . ?
C7 H7 0.9300 . ?
C1 H1A 0.9600 . ?
C1 H1B 0.9600 . ?
C1 H1C 0.9600 . ?
loop_
_refln_index_h
_refln_index_k
_refln_index_l
_refln_F_squared_meas
_refln_F_squared_sigma
2 0 0 51.09 1.7
2 0 0 47.2 2.6
-2 0 0 44.6 2.6
2 0 0 46.7 1.5
-2 0 0 46.4 1.7
-2 0 0 47.9 1.5
3 0 0 0.5 0.5
-3 0 0 -0.6 0.4
-3 0 0 0.6 0.6
-3 0 0 0.9 1.4
3 0 0 0 0.4
3 0 0 1.9 1.6
-4 0 0 3221.18 79.39
-4 0 0 3116.79 76.69
4 0 0 3221.28 79.19
4 0 0 3260.77 76.29
5 0 0 1.7 2.5
-5 0 0 0.1 0.9
-5 0 0 1.4 1
-5 0 0 0.2 2.5
5 0 0 1.6 0.7
6 0 0 823.72 24.3
6 0 0 784.82 20.2
-6 0 0 817.42 24.3
-6 0 0 838.62 20.5
-6 0 0 805.82 20.9
-7 0 0 -0.2 1.6
-7 0 0 1 1.3
-7 0 0 -1.4 1.9
-7 0 0 0.6 1.1
7 0 0 1.1 1.1
-7 0 0 -2.3 3.7
7 0 0 3.1 4.1
8 0 0 155.98 10.4
-8 0 0 163.88 8.3
8 0 0 168.98 5.2
-8 0 0 165.48 5.6
-8 0 0 159.88 6.1
-8 0 0 166.28 5.4
-8 0 0 157.68 10.2
-9 0 0 0.2 3.1
9 0 0 -1 5.7
-9 0 0 -0.1 1.5
-9 0 0 4.8 3.2
-9 0 0 -0.3 1.6
9 0 0 -0.8 1.3
-9 0 0 1.8 1.9
-10 0 0 138.59 5.8
10 0 0 136.39 9.4
-10 0 0 157.68 9.9
-10 0 0 132.59 5.1
-10 0 0 147.09 5.1
-10 0 0 125.79 8
10 0 0 129.29 10
-11 0 0 -7.2 4.8
-11 0 0 -1.9 2.2
-11 0 0 2.4 5
-12 0 0 69.49 8.8
0 -1 0 651.73 16.1
0 -1 0 655.13 18.5
0 -1 0 639.94 15.9
0 -1 0 650.73 15.9
0 -1 0 640.84 16
0 -1 0 644.94 16
0 1 0 641.84 18.5
0 1 0 660.33 16
0 1 0 650.13 15.9
0 1 0 619.84 16
0 1 0 622.44 15.9
1 -1 0 758.72 18.8
-1 -1 0 753.92 18.6
-1 -1 0 791.32 21
-1 -1 0 753.32 18.8
-1 -1 0 753.12 18.6
1 -1 0 764.22 18.9
1 -1 0 753.92 18.5
-1 -1 0 771.72 18.7
1 -1 0 786.82 18.9
-1 1 0 735.53 18.8
-1 1 0 754.12 18.9
-1 1 0 747.73 21.7
1 1 0 734.33 18.6
1 1 0 811.12 21.2
1 1 0 757.32 18.6
1 1 0 740.23 18.7
-1 1 0 779.02 18.9
-1 1 0 746.23 18.5
-2 -1 0 1751.32 43.1
-2 -1 0 1764.02 42.6
-2 -1 0 1847.72 45
2 -1 0 1765.42 43
2 -1 0 1765.32 42.6
2 -1 0 1806.32 43.1
2 1 0 1755.22 43.1
2 1 0 1691.83 42.6
-2 1 0 1718.83 43
-2 1 0 1805.32 43.1
-2 1 0 1778.82 42.6
2 1 0 1821.72 44.9
2 1 0 1796.82 42.6
-2 1 0 1739.33 43.1
-2 1 0 1898.71 47
-3 -1 0 4694.03 113.49
3 -1 0 4595.44 111.69
3 -1 0 4666.93 111.89
3 -1 0 4918.61 116.29
-3 1 0 4700.03 111.79
3 1 0 4631.94 113.29
-3 1 0 4652.83 116.09
3 1 0 4622.84 112.19
4 -1 0 0.4 0.9
-4 -1 0 1.9 1.1
4 -1 0 1.7 3.1
4 -1 0 -0.4 0.9
-4 1 0 0.2 0.9
-4 1 0 -1.2 2.9
4 1 0 2.8 0.7
-4 1 0 1.3 0.9
-4 1 0 1.4 0.8
4 1 0 1.1 1.8
4 1 0 -0.2 1.8
-5 -1 0 107.89 3.3
5 -1 0 98.99 4.1
5 -1 0 104.99 4.3
5 -1 0 107.99 8.9
-5 -1 0 109.39 4.9
-5 -1 0 98.69 4
5 1 0 105.19 3.2
-5 1 0 107.29 4
-5 1 0 100.19 4.1
5 1 0 96.09 6.2
-5 1 0 107.99 4.3
-5 1 0 106.19 4.1
-5 1 0 116.59 8.6
5 1 0 105.79 5.5
6 -1 0 28 2.9
-6 -1 0 30.7 1.6
6 -1 0 24.6 2.6
-6 -1 0 25.4 3.3
6 -1 0 23.5 6.2
-6 -1 0 25.5 2.6
-6 1 0 32.2 2.7
-6 1 0 30.8 6
-6 1 0 30.1 2.6
-6 1 0 27.8 2.6
6 1 0 26.1 3.7
6 1 0 27.4 1.5
6 1 0 29 3.9
-6 1 0 25.4 2.7
7 -1 0 825.22 21.3
-7 -1 0 744.63 23.4
-7 -1 0 800.22 20.2
7 -1 0 823.72 28.4
-7 -1 0 854.11 23.2
7 -1 0 822.82 21.9
-7 1 0 812.42 21.5
-7 1 0 821.32 21.6
-7 1 0 843.72 28.6
-7 1 0 822.92 21.6
-7 1 0 842.62 21.5
7 1 0 817.52 22.6
7 1 0 846.32 22.3
-8 -1 0 202.08 9.1
8 -1 0 209.78 7.1
-8 -1 0 194.08 6.9
8 -1 0 207.88 13.7
-8 1 0 194.68 7.4
-8 1 0 202.68 7.4
-8 1 0 200.68 14.4
8 1 0 206.78 6.3
-8 1 0 190.98 7.1
-8 1 0 191.88 7.2
9 -1 0 173.38 15.6
-9 -1 0 139.59 6.1
9 -1 0 150.68 6.2
-9 -1 0 148.29 8.6
-9 1 0 147.39 6.3
-9 1 0 142.39 6.1
-9 1 0 165.18 14.8
-9 1 0 163.48 6.6
-9 1 0 158.08 7
10 -1 0 20.5 3.2
-10 -1 0 19 2.8
-10 -1 0 19.6 4.8
10 -1 0 11.7 10.2
-10 1 0 18.2 2.9
-10 1 0 19.4 3
-10 1 0 25.5 4
-10 1 0 26 9.8
-10 1 0 22.7 3.1
11 -1 0 96.09 13.3
-11 -1 0 125.59 10.6
11 -1 0 95.79 5.6
-11 1 0 92.99 5.9
-11 1 0 106.29 6
-11 1 0 131.89 11.4
-11 1 0 144.79 17.7
-11 1 0 113.99 6.1
-12 -1 0 3.7 6.4
-12 1 0 1.1 3
-12 1 0 -2.8 6.5
0 -2 0 358.96 9.2
0 -2 0 324.17 9.3
0 -2 0 307.27 9.3
0 -2 0 302.87 9.6
0 2 0 331.67 9.2
0 2 0 329.47 14
0 2 0 324.67 9.2
0 2 0 343.87 9.4
0 2 0 317.17 9.2
-1 -2 0 293.77 8.3
-1 -2 0 302.27 8.5
-1 -2 0 299.87 12.4
1 -2 0 295.47 8.5
1 -2 0 322.57 8.3
1 -2 0 292.37 8.7
-1 -2 0 257.37 9
1 -2 0 289.77 13
-1 -2 0 300.47 8.5
1 -2 0 292.97 8.6
-1 -2 0 288.17 8.4
-1 2 0 298.17 8.6
-1 2 0 296.27 8.6
-1 2 0 281.77 13
1 2 0 285.27 8.4
-1 2 0 294.37 8.6
1 2 0 289.17 8.4
-1 2 0 292.97 8.1
-1 2 0 307.57 8.9
1 2 0 304.47 8.4
1 2 0 292.77 12.6
-2 -2 0 20.3 1.7
-2 -2 0 22.4 1.8
2 -2 0 21.7 2.3
-2 -2 0 15.1 3.5
-2 -2 0 19.6 1.7
-2 -2 0 18.7 2.1
2 -2 0 19.9 2.2
2 -2 0 15.3 4.6
2 -2 0 18.3 1.9
2 -2 0 16.6 1.7
-2 2 0 21.9 1.6
2 2 0 22.2 1.9
-2 2 0 20.7 1.9
-2 2 0 27.5 5.5
2 2 0 20.5 1.7
-2 2 0 23.4 2
2 2 0 20.7 1.7
2 2 0 22.9 4.2
-3 -2 0 103.49 3.7
-3 -2 0 115.59 7.4
3 -2 0 94.59 3.7
-3 -2 0 111.69 3.9
3 -2 0 102.89 9.2
3 -2 0 86.39 4.8
3 -2 0 108.49 4.5
-3 -2 0 107.09 4.3
-3 2 0 104.39 4.3
-3 2 0 101.79 4.3
-3 2 0 107.49 8.9
3 2 0 101.19 7.3
-3 2 0 97.69 4.3
-3 2 0 100.49 3.5
3 2 0 101.89 3.8
3 2 0 102.89 3.8
3 2 0 108.59 4.3
4 -2 0 1126.69 28.4
4 -2 0 1098.29 27.6
-4 -2 0 1102.19 27.6
-4 -2 0 1071.09 28.5
-4 -2 0 1118.99 32
4 -2 0 1111.49 28.9
-4 2 0 1119.89 36
4 2 0 1095.29 28.7
4 2 0 1125.79 32
4 2 0 1142.99 27.5
-4 2 0 1086.29 28.5
-4 2 0 1107.09 28.5
4 2 0 1122.29 27.6
-4 2 0 1133.59 28.5
-4 2 0 1136.19 27.5
-5 -2 0 444.06 13.1
5 -2 0 442.56 13.2
5 -2 0 430.06 19.9
-5 -2 0 447.86 11.8
5 -2 0 448.56 12.8
-5 2 0 421.96 12.9
-5 2 0 457.15 13
-5 2 0 430.46 20
5 2 0 445.36 11.8
5 2 0 466.95 17.9
-5 2 0 440.96 11.8
5 2 0 458.95 13.6
-5 2 0 447.96 13
6 -2 0 725.73 19.6
-6 -2 0 708.93 18.2
6 -2 0 699.23 19.9
6 -2 0 710.33 27
-6 -2 0 703.43 20
6 2 0 703.03 22.5
6 2 0 758.42 18
-6 2 0 707.13 27.8
-6 2 0 704.23 18.4
-6 2 0 738.73 19.8
6 2 0 728.43 22.1
-6 2 0 696.93 19.6
-6 2 0 741.13 19.7
-7 -2 0 280.17 10.3
7 -2 0 273.77 9.6
-7 -2 0 264.57 7.8
7 -2 0 285.67 17.9
7 -2 0 295.27 10.3
-7 2 0 298.37 9.9
-7 2 0 285.57 9.7
-7 2 0 293.57 9.7
7 2 0 279.47 12.4
-7 2 0 281.97 8.5
7 2 0 292.37 11.6
-7 2 0 271.97 18.8
8 -2 0 85.89 6.1
-8 -2 0 69.49 5.9
-8 -2 0 69.49 4.5
8 -2 0 63.89 5.5
8 -2 0 77.69 12.4
-8 2 0 65.89 5.1
-8 2 0 69.39 4
-8 2 0 56.29 10.5
-8 2 0 71.79 5
-8 2 0 67.69 4.8
9 -2 0 6 3
-9 -2 0 6.7 3.8
-9 -2 0 10.6 2.3
9 -2 0 11.4 11.3
-9 2 0 6.1 3
-9 2 0 15 10.9
-9 2 0 12.7 2.5
-9 2 0 6.7 2.7
-9 2 0 10.7 3
-10 -2 0 42.9 3.4
10 -2 0 47.1 5.5
-10 -2 0 34 4.4
-10 -2 0 40.6 5.8
-10 2 0 52.19 13.9
-10 2 0 37 4.6
-10 2 0 33.4 4.1
-10 2 0 37 4.7
-10 2 0 40.2 4.6
-11 -2 0 19.2 5.8
-11 2 0 17.8 4.6
-11 2 0 17.7 3.6
0 -3 0 641.74 17.4
0 -3 0 623.24 17.7
0 -3 0 669.23 17.5
0 -3 0 631.24 17.6
0 -3 0 677.73 24.7
0 -3 0 626.44 17.9
0 3 0 647.04 17.6
0 3 0 663.73 17.6
0 3 0 626.04 18.7
0 3 0 647.44 25.1
0 3 0 638.14 17.5
-1 -3 0 133.69 5.4
-1 -3 0 125.09 5.3
1 -3 0 133.09 5.5
1 -3 0 120.69 5.1
-1 -3 0 135.69 10.7
1 -3 0 123.59 5
1 -3 0 126.49 5.6
-1 -3 0 119.79 5.4
1 -3 0 136.29 11.3
-1 -3 0 125.39 5.3
-1 -3 0 124.89 5
1 3 0 135.79 5.3
1 3 0 121.69 5.2
-1 3 0 129.69 5.3
-1 3 0 129.89 5.3
-1 3 0 132.19 5.7
-1 3 0 145.29 5.6
1 3 0 129.39 11.2
-1 3 0 123.09 12.4
1 3 0 127.79 5.1
2 -3 0 703.23 18.7
2 -3 0 706.93 19.8
-2 -3 0 712.93 19.4
-2 -3 0 698.93 19.4
-2 -3 0 718.93 18.9
-2 -3 0 712.33 25.3
-2 -3 0 715.13 19.1
2 -3 0 710.53 19.6
2 -3 0 737.13 19.4
-2 -3 0 710.43 19.1
2 -3 0 698.43 27.3
2 3 0 715.33 19.3
-2 3 0 711.83 19.4
-2 3 0 699.23 27.6
2 3 0 716.23 26.2
-2 3 0 728.23 20
-2 3 0 718.33 19.4
-2 3 0 720.33 19.6
-2 3 0 695.03 18.4
2 3 0 695.83 20
2 3 0 720.23 18.9
3 -3 0 468.15 12.9
-3 -3 0 461.75 19.2
-3 -3 0 462.45 13.6
3 -3 0 480.25 13.7
-3 -3 0 453.75 13.7
3 -3 0 473.05 14.1
-3 -3 0 461.05 13.2
-3 -3 0 432.86 13
3 -3 0 492.35 21.9
3 3 0 464.95 13.5
-3 3 0 445.86 13.6
-3 3 0 477.85 14.5
-3 3 0 455.95 13.8
-3 3 0 456.15 12.5
3 3 0 461.95 13.1
-3 3 0 437.46 21.8
3 3 0 472.65 13
-3 3 0 457.65 13.6
3 3 0 478.65 20
4 -3 0 726.93 29.5
-4 -3 0 748.53 19.7
-4 -3 0 745.13 26.1
-4 -3 0 731.93 20.3
-4 -3 0 740.53 19.7
4 -3 0 711.23 20.3
4 -3 0 746.73 20.8
4 -3 0 725.43 19.4
-4 3 0 750.52 29.5
4 3 0 756.02 20.4
-4 3 0 731.83 19.1
-4 3 0 750.62 20.5
4 3 0 755.72 19.6
4 3 0 764.52 19.6
-4 3 0 730.63 20.4
-4 3 0 731.73 20.6
4 3 0 743.43 26.6
5 -3 0 114.79 6
-5 -3 0 118.49 5
-5 -3 0 125.09 5.1
-5 -3 0 134.19 11
-5 -3 0 126.09 6
5 -3 0 162.28 16.1
5 -3 0 123.79 5.1
5 3 0 122.59 5
5 3 0 125.29 6.3
-5 3 0 116.49 6
5 3 0 119.99 5.1
-5 3 0 121.19 6.1
-5 3 0 103.39 13.9
-5 3 0 116.69 4.5
5 3 0 131.19 12
-5 3 0 121.19 6.1
-6 -3 0 562.14 16.7
-6 -3 0 509.75 15
6 -3 0 575.54 17.3
6 -3 0 557.84 16.6
6 -3 0 560.74 15
-6 -3 0 561.64 15.3
-6 3 0 519.55 14.6
-6 3 0 545.95 16.8
6 3 0 611.14 15.4
6 3 0 554.34 17.4
6 3 0 542.05 21.6
-6 3 0 555.24 16.5
-6 3 0 556.94 29
-6 3 0 542.05 16.6
6 3 0 561.14 15.2
7 -3 0 115.09 6.7
7 -3 0 123.89 7.8
-7 -3 0 128.29 5.4
-7 -3 0 132.29 7.2
7 -3 0 119.99 16.1
-7 -3 0 110.59 4.9
-7 3 0 86.99 14.5
7 3 0 121.59 4.8
7 3 0 136.79 12.4
7 3 0 122.89 12.4
7 3 0 120.79 5.2
-7 3 0 119.59 4.7
-7 3 0 118.89 6.7
-7 3 0 129.39 7
-7 3 0 126.29 6.8
-8 -3 0 28.7 4.5
-8 -3 0 26.2 3
8 -3 0 20.5 14.2
-8 -3 0 25.7 2.4
8 -3 0 24 4.8
-8 3 0 30.1 4.2
8 3 0 30.5 2.9
-8 3 0 30 4
8 3 0 35.8 8
8 3 0 31.4 7.6
8 3 0 26 2.6
-8 3 0 33 13.7
-8 3 0 28.5 2.5
-8 3 0 30.8 4.3
-9 -3 0 40.7 4.2
9 -3 0 45.8 6.1
-9 -3 0 35 4.4
-9 -3 0 45.2 5.5
-9 3 0 36.7 4.5
-9 3 0 49.5 5.4
-9 3 0 37.8 3.4
-9 3 0 33.9 5
10 -3 0 77.09 9.8
-10 -3 0 88.99 9.3
-10 -3 0 58.99 6.3
-10 -3 0 75.99 7.6
-10 3 0 84.49 8.5
-10 3 0 61.09 6.5
-11 -3 0 9.8 6.5
-11 -3 0 10.5 6.6
-11 3 0 16.7 5.6
-11 3 0 22 4.5
0 -4 0 304.97 19.3
0 -4 0 298.77 10.3
0 -4 0 304.97 10.7
0 -4 0 325.67 11.1
0 -4 0 308.47 10.4
0 4 0 296.27 10.3
0 4 0 315.67 10.7
0 4 0 300.67 20.1
0 4 0 304.97 10.4
0 4 0 311.47 10.7
-1 -4 0 1172.58 32.1
1 -4 0 1240.68 32.6
1 -4 0 1195.18 32
1 -4 0 1181.18 41.9
-1 -4 0 1214.68 31.8
-1 -4 0 1210.48 31.5
1 -4 0 1196.88 31.4
-1 -4 0 1247.78 32.1
-1 -4 0 1204.78 31.9
-1 -4 0 1225.78 41.2
1 -4 0 1172.78 32.3
-1 4 0 1189.78 31.7
-1 4 0 1168.68 31.9
1 4 0 1207.38 31.6
1 4 0 1213.28 31.8
1 4 0 1131.79 31.4
-1 4 0 1220.58 43.5
-1 4 0 1278.07 34
-1 4 0 1229.58 31.9
-2 -4 0 14.1 2.9
2 -4 0 11.7 2.4
2 -4 0 21.3 9.1
-2 -4 0 19.1 3.2
2 -4 0 12.4 2.6
-2 -4 0 8.2 7.8
-2 -4 0 9.9 2.8
2 -4 0 20 3.7
-2 -4 0 26.9 3.7
-2 -4 0 16.2 3.3
2 -4 0 17.6 3.8
2 4 0 16.7 2.9
-2 4 0 13.9 2.7
-2 4 0 17.4 3.2
-2 4 0 3.9 9.1
2 4 0 11 2.6
-2 4 0 9.3 2.8
2 4 0 14.2 9.5
2 4 0 13.8 2.7
-2 4 0 13.4 3.2
3 -4 0 642.14 20
3 -4 0 647.64 19.2
-3 -4 0 674.43 19.4
3 -4 0 665.53 18.5
-3 -4 0 674.93 19.1
3 -4 0 662.93 30
-3 -4 0 663.53 19.1
-3 -4 0 666.33 27.5
-3 -4 0 675.23 19.7
-3 4 0 684.23 19.3
3 4 0 680.63 19.1
-3 4 0 656.33 19.5
3 4 0 688.73 18.9
3 4 0 648.64 18.6
-3 4 0 674.13 19.7
-3 4 0 657.03 20.2
-3 4 0 664.53 31.4
4 -4 0 25.8 11.4
4 -4 0 30.9 4
-4 -4 0 29 3.5
4 -4 0 35 4.6
4 -4 0 31.5 3.6
-4 -4 0 29.5 3.5
-4 -4 0 30.9 3.8
-4 -4 0 40.3 4.8
-4 4 0 24.4 3.6
-4 4 0 35.9 4.2
-4 4 0 28.4 4.7
-4 4 0 23.7 12.7
4 4 0 30 3.4
4 4 0 34 3.7
4 4 0 30.6 9.8
-4 4 0 29.6 3.8
-5 -4 0 264.47 10.4
-5 -4 0 276.67 9.7
-5 -4 0 282.47 11.1
5 -4 0 268.77 9.1
5 -4 0 262.27 23
5 -4 0 257.97 11.2
-5 -4 0 263.17 9.6
-5 4 0 272.37 10.7
-5 4 0 268.17 22.4
-5 4 0 272.57 10.7
-5 4 0 267.97 10.4
5 4 0 272.37 18.7
5 4 0 271.37 10.5
5 4 0 261.27 9.4
5 4 0 290.27 9.6
-5 4 0 266.47 12.1
-6 -4 0 13.3 2.9
-6 -4 0 19.1 3.2
-6 -4 0 13.1 3.6
6 -4 0 19.6 4.9
6 -4 0 20.5 13
-6 -4 0 21.6 4.1
6 -4 0 14.5 2.7
-6 4 0 17.5 14.4
-6 4 0 14 3.5
6 4 0 15.9 2.8
-6 4 0 13.7 3.6
-6 4 0 19.5 2.4
6 4 0 15.4 4
6 4 0 15.7 10
-6 4 0 16.7 3.9
6 4 0 13.7 3
-7 -4 0 151.38 8.4
-7 -4 0 147.39 9
7 -4 0 145.29 20.6
-7 -4 0 130.89 6.9
-7 -4 0 129.99 6.3
-7 -4 0 116.69 13.7
7 -4 0 145.39 11.5
7 4 0 158.38 6.4
-7 4 0 145.49 8.1
7 4 0 141.89 7
7 4 0 146.79 9.6
-7 4 0 131.69 9.2
-7 4 0 139.09 20.7
7 4 0 105.49 13.9
-7 4 0 133.19 5.5
-7 4 0 147.69 8.4
-8 -4 0 59.59 7.3
-8 -4 0 52.19 4.5
-8 -4 0 61.29 8.5
-8 -4 0 53.19 5.7
8 4 0 61.19 5.6
-8 4 0 52.99 6.2
-8 4 0 67.29 7.1
8 4 0 55.59 4.6
8 4 0 61.09 12.1
-8 4 0 64.39 6.8
-9 -4 0 121.69 9.4
-9 -4 0 122.39 10.8
-9 4 0 110.69 9.5
-9 4 0 92.49 8.2
9 4 0 86.69 12.6
-10 -4 0 12.4 4.6
-10 -4 0 2.5 5.9
-10 -4 0 6.6 6.4
-10 4 0 9.8 5.5
-10 4 0 13.2 5
0 -5 0 807.02 24.5
0 -5 0 784.12 23.6
0 -5 0 849.02 24.3
0 -5 0 832.02 36.4
0 -5 0 845.22 23.8
0 5 0 887.91 24.5
0 5 0 816.02 24.1
0 5 0 801.82 38.9
-1 -5 0 5.2 3.5
-1 -5 0 5.4 3.2
-1 -5 0 15.9 11.4
1 -5 0 26.3 11.8
-1 -5 0 1.9 2.8
1 -5 0 3.7 3.5
1 -5 0 2.3 3.5
-1 -5 0 7.7 3.4
-1 -5 0 3.7 4
1 -5 0 1 3.4
-1 5 0 5.8 2.9
1 5 0 4.2 12.7
-1 5 0 26.3 14.2
1 5 0 4 3.3
-1 5 0 -2.7 3.1
-1 5 0 2.3 3
-1 5 0 9.4 4.1
1 5 0 3.5 3.3
-2 -5 0 594.34 18.6
-2 -5 0 610.14 18.4
-2 -5 0 592.14 19
2 -5 0 566.84 18.4
2 -5 0 574.34 31.3
-2 -5 0 617.24 18.8
-2 -5 0 609.94 18.9
2 -5 0 616.54 18
-2 -5 0 639.84 31
2 5 0 611.44 31.9
-2 5 0 603.14 18.5
2 5 0 621.64 18.4
-2 5 0 585.34 18.9
-2 5 0 574.84 34.4
2 5 0 586.54 18.3
-2 5 0 578.94 19.1
-2 5 0 566.54 18.6
3 -5 0 210.58 8.8
-3 -5 0 206.38 10.4
-3 -5 0 169.98 20
3 -5 0 219.48 23.7
-3 -5 0 200.28 9.2
-3 -5 0 215.18 10.1
-3 -5 0 196.88 9.7
3 5 0 210.48 9
3 5 0 182.18 22.1
-3 5 0 187.08 9.7
-3 5 0 203.08 9.8
-3 5 0 200.98 10.7
-3 5 0 198.98 24.1
-3 5 0 209.68 9.5
3 5 0 212.18 9.4
-4 -5 0 141.09 8.4
-4 -5 0 138.29 9
-4 -5 0 151.98 8.4
4 -5 0 127.99 7
-4 -5 0 142.09 7.7
4 -5 0 116.59 19.1
4 5 0 136.29 8.1
-4 5 0 127.69 20.8
-4 5 0 120.89 8.6
-4 5 0 133.79 8.6
-4 5 0 138.79 8
4 5 0 136.39 18.3
4 5 0 139.29 7.2
-5 -5 0 8.6 4.1
-5 -5 0 17.8 13
5 -5 0 15.8 3.2
-5 -5 0 16.7 3.7
-5 -5 0 19 5.1
-5 -5 0 20.1 4.2
5 -5 0 -17.9 15
5 5 0 15.1 4.7
-5 5 0 16.4 4.9
5 5 0 1.5 14.5
-5 5 0 10.6 18
-5 5 0 15.2 4.2
-5 5 0 21.4 5
5 5 0 22.4 3.7
6 -5 0 103.59 6.4
-6 -5 0 94.09 7.7
-6 -5 0 113.29 7.2
-6 -5 0 104.79 8.6
-6 -5 0 120.39 9.9
-6 5 0 112.19 9
-6 5 0 115.89 8.2
-6 5 0 108.69 9.6
6 5 0 111.99 7.6
6 5 0 93.39 8.9
-7 -5 0 6 4.5
-7 -5 0 11.1 4.8
-7 -5 0 -3.4 3.5
-7 -5 0 10.3 5.6
7 -5 0 3.2 3
7 5 0 4.5 3.7
-7 5 0 -1.2 4.9
-8 -5 0 67.19 8.7
-8 -5 0 46.8 6.7
-8 5 0 37.1 6.9
-8 5 0 44.5 6.4
-9 -5 0 0.7 6
-9 -5 0 -0.3 6.6
-9 5 0 -5.6 6
-9 5 0 3 5.5
0 -6 0 71.59 8.1
0 -6 0 58.49 19
0 6 0 73.19 21.2
0 6 0 78.09 8
-1 -6 0 54.39 6.2
-1 -6 0 81.99 8.2
1 -6 0 57.19 20.1
1 -6 0 80.99 7.9
-1 6 0 80.99 9
1 6 0 74.69 7.5
1 6 0 78.29 21.3
-1 6 0 81.79 23.3
-2 -6 0 25 5.4
2 -6 0 31.6 19.1
2 -6 0 26 5
-2 -6 0 24.6 5.6
-2 -6 0 10 16.8
-2 -6 0 30 5.9
-2 6 0 27.2 21.6
2 6 0 30.1 5.6
2 6 0 19.3 18.7
-2 6 0 22.8 5.9
-3 -6 0 110.79 10
-3 -6 0 101.39 8.7
3 -6 0 88.59 7.5
3 -6 0 77.69 22.2
-3 -6 0 89.39 9.1
-3 6 0 31.8 23
3 6 0 89.99 8.5
4 -6 0 -6.8 3.7
-4 -6 0 2.6 4.7
-4 -6 0 -4.9 5.8
-4 -6 0 -4.3 4.5
-4 6 0 -34.2 22.9
-4 6 0 -0.4 5.1
-4 6 0 -2.2 4.3
4 6 0 -3.8 4
-5 -6 0 94.89 9
5 -6 0 77.29 8.2
-5 -6 0 91.89 10
-5 -6 0 71.09 8.7
5 6 0 110.69 8.6
-5 6 0 99.19 9.2
-5 6 0 82.99 10.3
-6 -6 0 -6.2 6.7
-6 -6 0 5.1 6.3
6 -6 0 13.3 4.5
-6 6 0 7.2 6.7
-6 6 0 1.9 4.9
6 6 0 0.6 4.6
-7 -6 0 11.4 7.8
-7 6 0 30.6 6.6
-7 6 0 22.6 7.3
0 -7 0 -7 6.5
0 7 0 5 6.8
1 -7 0 13.9 24.3
-1 -7 0 45.4 8.2
1 -7 0 45.4 7.8
-1 7 0 49.8 8.5
1 7 0 53.19 7.8
-1 7 0 49.8 38.3
-2 -7 0 8.2 7.3
2 7 0 20.6 6.3
-2 7 0 27 8.3
-3 -7 0 0.1 7.1
3 -7 0 11.9 6.4
-3 7 0 10.9 7.7
3 7 0 -3.4 5.9
-4 -7 0 65.39 9.9
4 -7 0 43.3 6.9
-4 -7 0 28 8
4 7 0 37.9 7.2
-4 7 0 56.49 9.4
-12 0 1 -2.1 6.3
-12 0 1 -1.5 3.8
-12 0 1 -0.5 4.3
-11 0 1 101.59 10.4
-11 0 1 104.79 8.7
-11 0 1 96.99 6
-10 0 1 1.6 2.5
-10 0 1 0.8 4.1
9 0 -1 323.57 11
-9 0 1 301.47 8.7
-9 0 1 336.47 12.8
9 0 -1 326.17 11
-9 0 1 333.27 8.7
-9 0 1 310.07 10.2
-8 0 1 8.2 3.8
-8 0 1 1.4 1.1
-8 0 1 0.5 1.8
-8 0 1 0.2 2.4
-8 0 1 0.7 1.2
-7 0 1 111.59 4.8
7 0 -1 100.49 7.2
-7 0 1 114.99 7
7 0 -1 111.39 3.5
-7 0 1 111.99 3.8
-7 0 1 102.89 3.7
6 0 -1 1.7 0.7
-6 0 1 0.5 0.8
-6 0 1 -1.3 2.6
-6 0 1 -0.4 0.8
-6 0 1 1.5 1.4
6 0 -1 0.4 2.4
-5 0 1 104.99 5.6
5 0 -1 102.79 3.1
-5 0 1 104.49 3.4
5 0 -1 100.19 5.5
-5 0 1 110.79 3.3
-5 0 1 95.99 4.6
4 0 -1 1.1 0.5
4 0 -1 1 1.6
-4 0 1 1.1 0.6
-4 0 1 0.4 0.6
-4 0 1 -0.2 0.8
-4 0 1 1.3 1.7
3 0 -1 517.45 14
-3 0 1 524.95 14.1
-3 0 1 528.05 12.7
3 0 -1 501.05 12.6
-3 0 1 529.35 12.7
-3 0 1 523.65 13.5
2 0 -1 0.5 0.4
-2 0 1 0.7 0.2
2 0 -1 0.1 0.2
-2 0 1 0.2 0.5
-2 0 1 1.5 0.7
2 0 -1 1.4 0.7
1 0 -1 -0.3 0.2
1 0 -1 0.3 0.2
1 0 1 0 0.2
-2 0 -1 0.3 0.4
-2 0 -1 0.7 1.4
2 0 1 -1.4 1.4
2 0 1 0.1 0.2
2 0 1 0.1 0.4
-3 0 -1 2383.56 55.89
3 0 1 2401.26 59.49
3 0 1 2383.76 56.29
-3 0 -1 2335.57 59.39
3 0 1 2261.47 55.89
-3 0 -1 2321.17 56.29
-4 0 -1 2 2.4
4 0 1 2.7 0.8
-4 0 -1 1 0.8
-4 0 -1 1.1 0.6
4 0 1 7.7 3.1
-5 0 -1 928.81 22.7
-5 0 -1 926.01 27.1
5 0 1 891.51 22.6
-5 0 -1 856.31 22.3
5 0 1 929.71 27.1
6 0 1 3.6 4.4
6 0 1 1.7 1.1
-6 0 -1 1.1 3.7
-6 0 -1 1.3 1.8
-6 0 -1 2.9 1.2
-6 0 -1 -0.1 1
-7 0 -1 1176.58 35.2
-7 0 -1 1195.48 32.3
-7 0 -1 1212.98 29.9
7 0 1 1203.68 29.7
-7 0 -1 1203.98 29.6
7 0 1 1162.88 35
-8 0 -1 -0.6 2.5
-8 0 -1 -0.3 1.4
8 0 1 -0.2 1.5
-8 0 -1 2.6 1.5
-8 0 -1 0.9 5.2
-8 0 -1 0.4 2.6
8 0 1 2.6 5.9
-8 0 -1 -1.7 1.4
9 0 1 219.08 14.1
-9 0 -1 201.08 9.2
-9 0 -1 219.08 10.7
-9 0 -1 216.78 7.3
-9 0 -1 211.68 7.1
-10 0 -1 1.8 2
-10 0 -1 -0.1 2.1
-10 0 -1 2.3 4.3
10 0 1 2.3 8.2
-10 0 -1 -0.2 4.1
-10 0 -1 -2.6 1.8
10 0 1 1.7 1.8
10 0 1 -5.6 7.7
-11 0 -1 54.99 7.3
-11 0 -1 52.29 4.7
-11 0 -1 60.79 7.1
11 0 1 47.9 7.8
-11 0 -1 62.39 4.2
-12 0 -1 4 6.2
-12 -1 1 15.9 6.9
-12 -1 1 20.3 4.7
-12 1 1 17 3.8
-12 1 1 21.3 3
-12 1 1 19.7 4.2
-12 1 1 23.7 7.5
11 -1 -1 17.8 9.5
-11 -1 1 5.1 9.9
-11 -1 1 0.3 3
-11 1 1 24.4 15
-11 1 1 8.4 5.5
-11 1 1 9.1 2.7
-11 1 1 0.7 2.6
-11 1 1 2.4 2.9
-10 -1 1 110.89 6
-10 -1 1 112.79 8.7
10 -1 -1 116.49 14.8
-10 1 1 108.29 14.3
-10 1 1 106.19 6
-10 1 1 118.59 5.6
-10 1 1 112.99 6.6
-10 1 1 97.19 5.4
9 -1 -1 147.99 14.3
9 -1 -1 171.78 6.3
-9 -1 1 154.58 6.7
-9 -1 1 156.78 8.5
-9 1 1 157.58 6.9
-9 1 1 165.38 6.6
-9 1 1 160.98 6.7
-9 1 1 161.08 6.3
-9 1 1 133.59 13.7
-8 -1 1 415.46 13.9
8 -1 -1 412.86 12.8
8 -1 -1 450.25 18.7
-8 -1 1 418.66 12.3
-8 1 1 384.86 18.5
-8 1 1 392.86 11.9
-8 1 1 396.86 12.3
-8 1 1 420.36 12
-8 1 1 410.16 11.9
7 -1 -1 134.29 6.9
7 -1 -1 138.79 5.2
7 -1 -1 136.39 11.5
-7 -1 1 126.79 5.5
-7 -1 1 136.29 6.4
-7 1 1 139.49 5.1
-7 1 1 131.19 5.7
-7 1 1 132.69 5.2
-7 1 1 131.09 5.2
-7 1 1 139.29 11
6 -1 -1 584.84 20.9
6 -1 -1 585.64 16.2
-6 -1 1 574.74 16.6
6 -1 -1 617.64 15.5
-6 -1 1 566.14 15.9
-6 1 1 589.04 15.6
-6 1 1 579.34 15.2
-6 1 1 580.84 15.6
-6 1 1 567.14 20.9
-6 1 1 594.84 16.1
5 -1 -1 22.7 5.1
5 -1 -1 22.7 2.3
5 -1 -1 20.4 2.5
-5 -1 1 21.5 2.4
-5 1 1 21.3 2
-5 1 1 24.2 4.9
-5 1 1 26.4 1.9
-5 1 1 24 2.5
-5 1 1 24.1 2
4 -1 -1 1030.6 25.9
4 -1 -1 1034.3 25.3
-4 -1 1 1050.39 25.9
4 -1 -1 1007.5 29.7
-4 -1 1 981.9 24.4
-4 1 1 1007.1 25.8
-4 1 1 1020.7 25.4
4 1 -1 1033.1 25.5
-4 1 1 993.3 25.3
-4 1 1 1003.8 29.7
-4 1 1 1027.8 24.8
4 1 -1 1028.6 25.7
3 -1 -1 1128.69 28.2
-3 -1 1 1163.88 28.6
3 -1 -1 1111.39 27.7
-3 -1 1 1110.99 27.9
3 -1 -1 1170.58 31.8
3 -1 -1 1113.79 27.8
-3 -1 1 1125.89 27.1
-3 1 1 1120.49 31.6
-3 1 1 1117.99 27.1
3 1 -1 1152.48 28.6
-3 1 1 1135.99 27.8
3 1 -1 1100.99 27
-3 1 1 1159.08 27.8
-3 1 1 1083.79 28.2
-2 -1 1 8050.89 190.78
-2 1 1 7931.81 193.68
1 -1 -1 457.25 11.4
1 -1 -1 444.06 10.9
1 -1 -1 450.65 11.4
1 -1 -1 439.46 11.6
-1 -1 1 443.16 11.4
-1 -1 1 440.16 11.2
-1 -1 1 444.06 13.3
-1 -1 1 446.66 11.1
-1 -1 1 434.76 11.1
1 1 -1 444.56 11.2
1 1 -1 429.96 11.1
-1 1 1 438.06 11.5
1 1 -1 441.06 13.4
-1 1 1 448.76 11.4
-1 1 1 440.06 14.2
-1 1 1 469.05 11.5
-1 1 1 455.85 11.7
1 1 -1 440.66 11.3
1 1 -1 443.16 11.1
0 -1 1 2718.93 69.09
0 -1 -1 2987.6 72.19
0 -1 1 3098.89 72.09
0 1 1 2982.9 72.09
0 1 -1 2766.42 68.99
0 1 1 2741.03 69.09
0 1 1 2849.71 69.19
0 1 -1 3025.4 72.19
1 -1 1 1421.96 33.8
-1 -1 -1 1402.96 34
-1 -1 -1 1422.06 36.6
-1 -1 -1 1378.96 33.7
1 -1 1 1359.16 33.8
-1 -1 -1 1444.26 33.7
1 -1 1 1388.96 33.9
1 -1 1 1354.16 37.1
1 1 1 1424.56 33.8
1 1 1 1346.57 33.5
1 1 1 1423.66 36.6
-1 1 -1 1421.86 33.7
-1 1 -1 1428.26 37.5
-1 1 -1 1390.86 33.9
-1 1 -1 1353.36 33.9
-1 1 -1 1341.77 33.7
1 1 1 1412.86 33.7
1 1 1 1395.76 34
2 -1 1 1198.88 29.4
-2 -1 -1 1206.28 29.7
-2 -1 -1 1200.28 29.1
2 -1 1 1205.48 29.3
2 -1 1 1199.48 29.4
-2 -1 -1 1234.98 32.3
-2 -1 -1 1149.39 28.9
-2 1 -1 1216.08 33.7
2 1 1 1227.08 32
-2 1 -1 1209.58 29.3
-2 1 -1 1153.68 29.5
-2 1 -1 1174.78 29.3
2 1 1 1204.28 29.2
2 1 1 1216.68 29.7
3 -1 1 243.08 11.3
3 -1 1 248.08 6.9
-3 -1 -1 213.88 6.8
3 -1 1 247.78 6.9
3 -1 1 241.68 7
-3 -1 -1 238.38 7.4
3 1 1 237.88 9.1
3 1 1 228.28 9.4
-3 1 -1 241.58 7.1
3 1 1 246.38 6.6
-3 1 -1 245.38 11.2
-3 1 -1 232.98 6.8
3 1 1 247.88 7.5
-3 1 -1 247.08 6.9
4 -1 1 3713.23 89.39
4 -1 1 3597.14 89.29
-4 -1 -1 3753.42 88.89
-4 -1 -1 3580.34 90.09
4 -1 1 3900.31 95.19
-4 1 -1 3591.64 89.49
-4 1 -1 3879.81 95.69
4 1 1 3713.63 92.09
-4 1 -1 3642.64 89.19
4 1 1 3868.31 92.89
4 1 1 3686.33 88.89
-4 1 -1 3804.82 89.39
-5 -1 -1 160.18 5.1
5 -1 1 166.28 5.6
-5 -1 -1 172.28 5.1
-5 -1 -1 163.38 6.4
5 -1 1 176.08 10.6
5 -1 1 168.08 5.7
-5 1 -1 176.48 5.8
5 1 1 169.18 5.1
5 1 1 169.98 8.8
-5 1 -1 179.98 11.2
-5 1 -1 166.38 5.7
-5 1 -1 156.28 6.2
5 1 1 150.78 8.1
6 -1 1 188.08 12.6
6 -1 1 203.98 6.9
-6 -1 -1 215.28 8.1
-6 -1 -1 218.28 6.3
6 -1 1 218.08 7
-6 -1 -1 207.18 6.4
6 1 1 208.78 10.6
6 1 1 205.58 9.9
6 1 1 213.98 6.2
-6 1 -1 216.88 7.2
-6 1 -1 210.58 6.9
-6 1 -1 220.08 7.1
-6 1 -1 210.18 7.1
-6 1 -1 207.78 13
7 -1 1 147.59 8.6
-7 -1 -1 132.59 4.7
7 -1 1 133.49 5.6
7 -1 1 124.69 11.9
-7 -1 -1 137.39 4.6
-7 -1 -1 146.49 7
-7 1 -1 140.09 5.8
-7 1 -1 133.19 5.5
7 1 1 155.58 9.7
-7 1 -1 133.99 12.4
7 1 1 132.99 8.7
-7 1 -1 132.69 5.3
-7 1 -1 142.19 5.9
7 1 1 136.49 4.5
8 -1 1 170.18 6.5
8 -1 1 151.98 6.5
8 -1 1 148.99 14.4
-8 -1 -1 168.28 8.2
-8 -1 -1 158.68 5.4
-8 -1 -1 158.08 5.3
-8 1 -1 173.08 14.6
-8 1 -1 165.08 6.8
-8 1 -1 171.48 6.9
8 1 1 159.38 9.5
8 1 1 168.78 5
-8 1 -1 152.88 6
-8 1 -1 168.68 6.5
9 -1 1 46.7 4.8
-9 -1 -1 50.69 3
9 -1 1 59.99 10.9
-9 -1 -1 56.79 3
-9 -1 -1 62.39 6.5
-9 1 -1 55.49 4
-9 1 -1 38.3 9.8
-9 1 -1 58.99 4.4
-9 1 -1 49.99 4.7
9 1 1 51.89 6.1
-9 1 -1 56.39 5.8
9 1 1 63.99 6.5
10 -1 1 170.98 18.4
10 -1 1 147.49 6.9
-10 -1 -1 152.58 9.7
-10 1 -1 141.59 6.6
-10 1 -1 147.39 9.8
-10 1 -1 137.39 6
-10 1 -1 155.08 16.2
-10 1 -1 151.48 7.2
11 -1 1 1.9 4.7
-11 -1 -1 8.7 5.3
-11 1 -1 5.3 2.7
-11 1 -1 -4.3 5.1
-11 1 -1 3.1 3.1
-11 1 -1 6.5 3.6
-12 -1 -1 50.99 8
-12 1 -1 50.39 9
-12 1 -1 42.3 4.4
-11 -2 1 67.09 12.4
-11 -2 1 53.79 6
-11 -2 1 46.1 6.3
-11 2 1 76.89 6.9
-11 2 1 49.5 5
-11 2 1 61.79 6.4
10 -2 -1 21.4 5
10 -2 -1 2.3 14.3
-10 -2 1 23.7 4.9
-10 -2 1 19.1 3.6
-10 -2 1 15.6 4.2
-10 2 1 19.6 2.5
-10 2 1 18.6 3.8
-10 2 1 15.6 3.7
-10 2 1 17.3 3.7
-10 2 1 1.4 12.4
9 -2 -1 12.9 10.2
9 -2 -1 23.4 3.6
9 -2 -1 18.4 4.3
-9 -2 1 23.1 3.5
-9 -2 1 15.6 3.8
-9 2 1 17.9 3.4
-9 2 1 14.8 11.6
-9 2 1 15.4 2.1
-9 2 1 18.5 3.2
-9 2 1 19.8 3.4
8 -2 -1 92.39 5.9
-8 -2 1 100.69 6.6
8 -2 -1 129.89 16.5
-8 -2 1 95.59 5.4
-8 2 1 95.89 4
-8 2 1 87.59 12.4
-8 2 1 94.59 5.7
-8 2 1 99.19 5.8
-8 2 1 104.69 5.7
7 -2 -1 655.63 18.4
7 -2 -1 661.23 27.1
-7 -2 1 651.53 19.1
7 -2 -1 668.83 19.3
-7 2 1 689.63 18.7
-7 2 1 694.23 18.7
-7 2 1 677.53 27.3
-7 2 1 659.83 18.8
-7 2 1 640.74 16.9
6 -2 -1 427.66 13.2
6 -2 -1 402.26 12.5
-6 -2 1 422.36 12.8
6 -2 -1 423.26 20
-6 -2 1 397.56 10.9
6 2 -1 425.96 14.2
-6 2 1 421.76 12.8
-6 2 1 424.66 12.6
6 2 -1 434.46 14
6 2 -1 431.06 10.6
-6 2 1 409.26 19.8
6 2 -1 423.46 10.7
-6 2 1 424.46 12.5
-6 2 1 420.76 11
5 -2 -1 1127.39 36.9
-5 -2 1 1129.79 31.6
5 -2 -1 1182.68 30.1
-5 -2 1 1146.69 29.5
-5 -2 1 1132.49 28.2
5 -2 -1 1162.28 29.4
-5 2 1 1171.48 29.5
5 2 -1 1159.18 31.8
-5 2 1 1150.98 37.2
5 2 -1 1170.18 28.1
-5 2 1 1139.49 27.9
-5 2 1 1103.79 29.6
-5 2 1 1137.99 29.4
4 -2 -1 371.66 9.8
-4 -2 1 374.66 10.1
4 -2 -1 377.76 10.9
-4 -2 1 383.46 10.9
4 -2 -1 367.06 12.4
-4 -2 1 370.16 13.6
4 2 -1 391.66 11.2
-4 2 1 378.96 9.7
-4 2 1 368.56 11
4 2 -1 366.56 13.9
-4 2 1 369.06 11
-4 2 1 366.76 18.1
-4 2 1 376.56 11.2
4 2 -1 378.46 10
3 -2 -1 2014.1 49.4
-3 -2 1 2070.49 48.6
-3 -2 1 2052.09 52.59
3 -2 -1 1689.53 54.79
3 -2 -1 2099.29 49.7
-3 -2 1 2038 48.5
-3 -2 1 1993.3 49
-3 -2 1 2027.1 49.4
3 -2 -1 1966 48.2
3 2 -1 2019.7 49
-3 2 1 1988.6 48.1
3 2 -1 2059.09 53.09
3 2 -1 2069.29 48.6
-3 2 1 1977.2 49.4
-3 2 1 1985 55.69
3 2 -1 2002.9 48.4
-3 2 1 2014.4 49.3
-3 2 1 1968.4 49.2
2 -2 -1 163.68 5.5
-2 -2 1 151.28 5
2 -2 -1 155.18 5.7
2 -2 -1 148.79 9.9
-2 -2 1 158.28 4.9
-2 -2 1 154.58 5.4
2 -2 -1 153.08 5.3
2 -2 -1 157.08 4.8
-2 -2 1 152.58 8.3
-2 -2 1 162.38 5.2
-2 -2 1 151.48 5.1
-2 2 1 161.28 5.5
-2 2 1 161.78 10.1
2 2 -1 172.08 9
2 2 -1 154.68 5
-2 2 1 153.28 5.3
2 2 -1 154.98 4.9
-2 2 1 158.08 5.9
-2 2 1 162.48 5.5
2 2 -1 156.48 5.1
-1 -2 1 16.1 1.8
1 -2 -1 15.4 1.5
1 -2 -1 20.3 4.3
-1 -2 1 16.8 1.8
1 -2 -1 14.5 1.8
1 -2 -1 15.4 1.7
-1 -2 1 14 1.5
-1 -2 1 13.5 1.6
-1 -2 1 12 3.5
-1 2 1 19.9 4
1 2 -1 11.5 4
-1 2 1 13.6 1.6
1 2 -1 14.4 1.5
-1 2 1 16.4 1.7
1 2 -1 16.5 1.5
1 2 -1 19.6 1.7
-1 2 1 16.1 2
0 -2 1 529.25 14.4
0 -2 1 544.35 14.5
0 -2 -1 539.75 19.2
0 -2 1 538.85 18.9
0 -2 1 564.84 14.4
0 -2 1 533.45 14.4
0 -2 -1 545.35 14.6
0 -2 1 570.44 14.5
0 -2 -1 540.55 14.4
0 -2 -1 564.84 14.5
0 -2 -1 543.35 14.8
0 2 -1 530.45 14.4
0 2 1 559.24 14.5
0 2 1 459.95 14.8
0 2 1 582.64 14.5
0 2 -1 535.55 14.4
0 2 -1 541.45 19.4
0 2 -1 573.14 14.4
0 2 1 539.35 19.3
0 2 1 548.25 14.6
0 2 -1 542.15 14.2
-1 -2 -1 98.79 3.7
1 -2 1 98.19 7.8
-1 -2 -1 95.99 3.8
-1 -2 -1 100.39 4
1 -2 1 92.19 3.9
1 -2 1 97.99 3.8
-1 -2 -1 97.39 3.8
-1 -2 -1 91.19 7
1 2 1 96.09 3.8
1 2 1 99.39 3.7
-1 2 -1 100.99 3.6
1 2 1 90.79 3.6
1 2 1 105.89 7.7
-1 2 -1 97.89 3.9
-1 2 -1 98.19 4
-1 2 -1 92.59 3.9
-1 2 -1 108.09 8.2
1 2 1 103.79 3.8
2 -2 1 42.9 2.6
-2 -2 -1 44.5 2.4
-2 -2 -1 42.9 2.8
-2 -2 -1 42.5 2.3
2 -2 1 40.5 2.8
2 -2 1 43.4 2.5
2 -2 1 32.7 6
-2 -2 -1 44.3 5.7
-2 2 -1 46.2 2.3
-2 2 -1 50.99 2.8
2 2 1 44.1 2.4
-2 2 -1 39.3 2.6
2 2 1 40 2.5
2 2 1 41.6 2.3
-2 2 -1 44 2.5
2 2 1 32.6 4.9
-2 2 -1 39.8 5.9
3 -2 1 1555.84 39.9
-3 -2 -1 1582.64 39.9
-3 -2 -1 1606.64 40.6
3 -2 1 1651.03 40.5
-3 -2 -1 1692.93 39.9
3 -2 1 1666.03 40.6
-3 -2 -1 1601.04 44.9
3 2 1 1648.24 40.7
3 2 1 1672.23 40
-3 2 -1 1619.14 47.5
-3 2 -1 1687.33 40.6
-3 2 -1 1656.33 39.8
-3 2 -1 1589.84 40.3
3 2 1 1584.64 44.6
3 2 1 1665.43 39.9
-3 2 -1 1567.34 40.5
-4 -2 -1 1420.26 36.5
4 -2 1 1463.75 36.4
-4 -2 -1 1454.15 35.6
-4 -2 -1 1423.66 40.7
4 -2 1 1480.75 36.3
-4 -2 -1 1498.45 35.4
4 2 1 1409.16 36.9
-4 2 -1 1454.25 36.5
4 2 1 1464.25 40.3
-4 2 -1 1422.46 36.1
-4 2 -1 1469.75 36.4
4 2 1 1480.15 35.4
-4 2 -1 1411.36 35.5
-4 2 -1 1447.86 44.4
4 2 1 1338.27 36.2
-5 -2 -1 271.87 7.9
-5 -2 -1 283.97 8.1
5 -2 1 244.98 11
-5 -2 -1 280.17 9.4
5 -2 1 277.97 16.2
5 -2 1 291.27 9.1
5 -2 1 295.47 8.5
5 2 1 292.07 8
-5 2 -1 267.67 8.8
5 2 1 285.67 13.3
-5 2 -1 288.27 9.1
5 2 1 284.17 9.8
-5 2 -1 280.17 9.2
5 2 1 275.37 8.2
-5 2 -1 267.67 16.4
5 2 1 261.57 12.8
-5 2 -1 276.07 8.3
-6 -2 -1 172.78 7.4
6 -2 1 171.98 7
-6 -2 -1 183.98 5.7
-6 -2 -1 178.08 5.9
6 -2 1 178.78 15
6 -2 1 187.28 7.1
-6 2 -1 183.58 14.7
-6 2 -1 182.38 7.1
6 2 1 182.48 6
-6 2 -1 184.98 6.3
6 2 1 196.18 10.8
-6 2 -1 174.28 6.7
-6 2 -1 186.58 7
6 2 1 181.38 11
-7 -2 -1 216.68 6.9
7 -2 1 231.98 16.9
-7 -2 -1 225.88 9.2
7 -2 1 216.58 8.4
-7 -2 -1 228.78 6.7
7 -2 1 226.18 8.5
-7 2 -1 228.78 7.6
-7 2 -1 233.68 18
7 2 1 227.78 6.9
-7 2 -1 219.48 8.6
7 2 1 226.38 11.9
-7 2 -1 216.08 8
7 2 1 215.08 12.5
-7 2 -1 231.78 8.4
7 2 1 230.88 6.6
-8 -2 -1 167.48 8.4
-8 -2 -1 158.68 5.2
8 -2 1 159.48 17.1
-8 -2 -1 156.88 6.8
-8 -2 -1 147.59 5.1
8 -2 1 151.58 7.4
8 -2 1 142.89 7.3
-8 2 -1 181.28 18.6
8 2 1 154.08 11.2
8 2 1 167.18 5
8 2 1 167.38 4.8
-8 2 -1 164.48 7.4
-8 2 -1 146.39 6.6
-8 2 -1 155.78 7
-8 2 -1 149.88 6.6
8 2 1 157.58 10.5
9 -2 1 147.59 8.1
9 -2 1 144.59 19.3
-9 -2 -1 154.88 9
-9 -2 -1 147.69 5
-9 -2 -1 140.49 4.7
-9 2 -1 146.79 7.8
-9 2 -1 141.29 6.5
-9 2 -1 195.98 20.4
9 2 1 145.09 8.2
9 2 1 144.69 7.6
-9 2 -1 159.08 6.8
-9 2 -1 149.88 7.3
-10 -2 -1 20.8 2.3
-10 -2 -1 21.9 5.5
-10 2 -1 22.5 4.3
-10 2 -1 22.4 3.5
-10 2 -1 21.1 3.9
-10 2 -1 24.4 3.8
-11 -2 -1 19.7 6.3
-11 2 -1 18 4.9
-11 2 -1 18.6 3.2
-11 -3 1 39.9 5.2
-11 -3 1 37.1 7
-11 -3 1 48.3 7.4
-11 3 1 36.2 4.7
-11 3 1 43.4 6.3
-10 -3 1 40.5 6
-10 -3 1 44.9 5
10 -3 -1 36.2 6.9
-10 3 1 34.7 4.7
-10 3 1 43.4 5.7
-9 -3 1 68.39 6.8
9 -3 -1 59.29 6.9
-9 -3 1 55.59 7
-9 -3 1 53.19 5.2
-9 -3 1 60.39 4.8
-9 3 1 55.19 6.2
-9 3 1 55.69 5.9
-9 3 1 41.3 8.9
-8 -3 1 55.59 6
-8 -3 1 61.99 4.5
-8 -3 1 64.79 6
8 -3 -1 73.19 14.7
8 -3 -1 66.59 7.9
-8 3 1 69.19 6.5
-8 3 1 56.59 5.7
8 3 -1 63.09 7
8 3 -1 52.69 6.5
-8 3 1 63.49 5.8
-8 3 1 48.1 13.9
7 -3 -1 294.97 11.8
-7 -3 1 279.07 8.7
7 -3 -1 288.87 23
7 -3 -1 288.17 10.9
-7 -3 1 290.97 9.4
-7 -3 1 293.77 11.4
-7 -3 1 298.87 10.7
-7 3 1 301.47 11.1
-7 3 1 286.67 10.9
7 3 -1 311.27 8.5
-7 3 1 294.17 22.7
7 3 -1 298.47 15.1
7 3 -1 286.57 8.5
-7 3 1 303.27 10.9
-7 3 1 283.27 8
-6 -3 1 135.19 6.3
-6 -3 1 119.99 5
6 -3 -1 120.09 6.7
-6 -3 1 135.99 5.6
6 -3 -1 128.59 7.4
-6 -3 1 145.89 11
-6 -3 1 128.19 7.1
-6 3 1 131.79 4.4
6 3 -1 132.09 11.7
-6 3 1 123.89 6.6
-6 3 1 137.59 6.7
6 3 -1 136.89 7
-6 3 1 133.89 6.7
6 3 -1 133.39 5.2
-5 -3 1 446.66 12.4
-5 -3 1 413.76 12.1
-5 -3 1 458.95 18.2
5 -3 -1 434.76 14.2
5 -3 -1 435.26 13.3
-5 -3 1 430.86 13.1
-5 -3 1 431.06 13.8
5 -3 -1 424.56 11.7
5 -3 -1 338.07 21.6
5 3 -1 427.56 18.7
-5 3 1 407.36 23
5 3 -1 421.36 13.2
5 3 -1 428.86 12
-5 3 1 421.56 11.3
-5 3 1 443.16 13.5
-5 3 1 440.16 13.4
-5 3 1 427.56 13.4
5 3 -1 432.16 12
-4 -3 1 228.58 7.8
4 -3 -1 242.78 9.1
-4 -3 1 238.08 8.9
-4 -3 1 236.28 8.2
-4 -3 1 240.68 13
-4 -3 1 249.18 7.9
4 -3 -1 240.88 8.5
4 -3 -1 239.78 16.6
4 3 -1 243.28 7.7
4 3 -1 229.38 7.7
-4 3 1 231.58 8.5
-4 3 1 236.38 8.6
4 3 -1 231.98 14.1
4 3 -1 255.67 8.4
-4 3 1 235.78 16.4
-4 3 1 232.98 8.5
-3 -3 1 1127.89 34.8
3 -3 -1 1106.69 29.2
-3 -3 1 1102.89 28.8
3 -3 -1 1109.09 29.6
3 -3 -1 1111.59 28
-3 -3 1 1125.39 29.4
-3 -3 1 1140.59 28.3
-3 -3 1 1089.09 28.6
3 -3 -1 1148.19 38.1
3 -3 -1 1115.99 29.1
-3 -3 1 1128.29 28.7
-3 3 1 1150.08 30.1
-3 3 1 1109.09 29.2
-3 3 1 1119.79 38.5
3 3 -1 1110.19 28.3
3 3 -1 1126.29 28.7
-3 3 1 1111.49 29.3
-3 3 1 1116.89 29.2
3 3 -1 1106.99 28.5
3 3 -1 1099.29 35.6
-2 -3 1 91.49 4.1
2 -3 -1 90.79 4
-2 -3 1 90.19 4.7
-2 -3 1 88.09 4.3
2 -3 -1 86.99 4.5
-2 -3 1 91.89 4.4
-2 -3 1 98.09 9.4
2 -3 -1 83.89 4.5
-2 -3 1 89.99 4.3
2 -3 -1 95.29 5
2 -3 -1 91.69 11
2 3 -1 88.69 4.1
-2 3 1 89.89 10.6
-2 3 1 96.49 4.7
-2 3 1 100.19 5.2
-2 3 1 90.49 4.5
2 3 -1 92.19 4.2
2 3 -1 89.29 9.9
-2 3 1 89.59 4.6
-1 -3 1 276.57 8.9
-1 -3 1 279.27 8.9
-1 -3 1 283.37 8.9
1 -3 -1 280.77 9.4
1 -3 -1 286.97 9
-1 -3 1 272.27 8.6
1 -3 -1 273.87 8.4
-1 -3 1 290.27 14.7
-1 -3 1 268.17 8.9
1 -3 -1 272.27 15.4
1 -3 -1 268.37 9
1 3 -1 250.97 15.3
-1 3 1 277.97 9
1 3 -1 281.77 8.7
1 3 -1 279.07 8.9
-1 3 1 258.17 16.1
-1 3 1 279.07 9.3
-1 3 1 285.67 9
1 3 -1 271.37 8.7
-1 3 1 286.77 9
0 -3 -1 273.77 8.5
0 -3 1 261.07 14.5
0 -3 -1 266.97 8.3
0 -3 1 274.57 8.8
0 -3 -1 274.27 8.7
0 -3 1 266.07 8.7
0 -3 -1 258.17 8.8
0 -3 1 267.27 8.3
0 -3 -1 255.27 8.9
0 -3 1 264.07 8.5
0 -3 -1 259.87 14.8
0 3 1 252.87 8.5
0 3 1 241.38 8.3
0 3 1 262.87 8.4
0 3 -1 259.97 8.4
0 3 -1 255.17 8.4
0 3 1 263.37 15.2
0 3 -1 257.07 8.6
0 3 -1 242.58 15.3
0 3 1 266.37 8.7
-1 -3 -1 416.26 18.2
-1 -3 -1 380.36 12
1 -3 1 400.86 12
1 -3 1 398.76 11.5
-1 -3 -1 405.66 11.5
-1 -3 -1 395.46 11.6
1 -3 1 383.66 11.5
-1 -3 -1 382.76 11.6
1 -3 1 396.46 11.9
1 -3 1 411.16 18.5
-1 -3 -1 399.26 11.8
1 3 1 391.56 11.9
-1 3 -1 396.96 11.7
-1 3 -1 385.66 11.6
1 3 1 388.86 11.5
-1 3 -1 397.36 11.9
1 3 1 380.66 11.5
1 3 1 405.16 11.5
-1 3 -1 400.06 19.5
-1 3 -1 370.46 12.8
1 3 1 386.46 17.9
-1 3 -1 384.16 11.2
-2 -3 -1 134.69 5.9
-2 -3 -1 128.09 10.8
2 -3 1 133.09 5.3
2 -3 1 132.39 5.6
-2 -3 -1 135.79 5.5
2 -3 1 153.88 12.5
2 -3 1 132.89 6
-2 -3 -1 132.99 5.5
-2 3 -1 141.79 5.1
-2 3 -1 120.79 5.5
2 3 1 137.09 5.3
-2 3 -1 134.99 6.1
2 3 1 139.99 11
-2 3 -1 124.89 13.1
2 3 1 142.89 5.6
2 3 1 135.99 5.5
-2 3 -1 126.99 5.6
-2 3 -1 128.19 5.8
-3 -3 -1 1501.55 38.3
3 -3 1 1531.65 38.7
3 -3 1 1495.05 39.1
-3 -3 -1 1523.45 38.4
-3 -3 -1 1530.55 45.6
-3 -3 -1 1506.25 38.9
3 -3 1 1525.75 38.2
3 -3 1 1510.15 47.8
3 3 1 1570.24 46.1
3 3 1 1539.95 38.3
-3 3 -1 1533.45 38.7
-3 3 -1 1519.95 39.1
-3 3 -1 1558.64 38.9
-3 3 -1 1502.95 37.9
3 3 1 1518.05 38.8
3 3 1 1569.14 38.3
-3 3 -1 1529.35 49
4 -3 1 7.5 7.6
-4 -3 -1 12.3 2.3
4 -3 1 5.8 2.1
-4 -3 -1 5.5 1.6
4 -3 1 6.7 2.2
-4 -3 -1 6.6 5.3
4 -3 1 8.1 1.6
-4 -3 -1 9.5 1.9
-4 3 -1 8.3 7.3
-4 3 -1 5.5 1.9
4 3 1 8.9 1.9
-4 3 -1 7.6 2.3
4 3 1 11 2.4
-4 3 -1 10.3 2.3
4 3 1 6.2 1.9
4 3 1 11.3 6.8
5 -3 1 479.05 24.7
5 -3 1 488.15 13.9
5 -3 1 491.55 15.4
-5 -3 -1 498.65 13.9
5 -3 1 472.95 14.8
-5 -3 -1 510.95 14
-5 -3 -1 502.75 21
-5 -3 -1 478.85 15
-5 3 -1 485.25 14.7
5 3 1 516.75 14.3
-5 3 -1 490.35 13.6
-5 3 -1 497.15 15
5 3 1 502.85 21.1
-5 3 -1 502.65 15.3
-5 3 -1 501.25 25.4
5 3 1 519.05 15.7
5 3 1 496.65 13.8
-6 -3 -1 514.45 14.5
6 -3 1 513.95 16.3
6 -3 1 537.75 14.6
-6 -3 -1 518.95 16
6 -3 1 507.55 15.8
-6 -3 -1 526.75 14.5
-6 3 -1 514.15 14.3
6 3 1 519.95 14.8
-6 3 -1 512.25 16
6 3 1 532.35 14.3
-6 3 -1 509.75 28.5
6 3 1 500.45 21.3
-6 3 -1 504.05 15.5
6 3 1 552.04 16.9
-6 3 -1 526.55 15.8
7 -3 1 97.79 7
7 -3 1 88.79 6.4
-7 -3 -1 91.09 4.6
-7 -3 -1 98.29 4.7
-7 -3 -1 102.39 6.7
7 -3 1 93.69 13.9
7 3 1 88.29 5
-7 3 -1 95.69 4.6
-7 3 -1 98.99 5.9
-7 3 -1 93.99 6.3
-7 3 -1 85.99 15.7
-7 3 -1 96.49 6.3
7 3 1 80.29 9.9
7 3 1 91.69 10.7
8 -3 1 22.2 12.8
-8 -3 -1 16 2.8
8 -3 1 11.3 4.1
-8 -3 -1 14.8 2.5
-8 -3 -1 14.2 3.9
-8 3 -1 11.3 3.6
8 3 1 14.7 2.5
-8 3 -1 17.8 3.9
8 3 1 12.5 8.1
-8 3 -1 16 2.5
-8 3 -1 12.4 3.4
8 3 1 12 9
8 3 1 18.5 2.2
-8 3 -1 14.9 14.3
-9 -3 -1 44.6 5.4
-9 -3 -1 40.1 3.6
9 -3 1 43.7 6.2
-9 -3 -1 47.3 6
-9 3 -1 45.2 4.6
-9 3 -1 48 5.7
9 3 1 49.3 10.2
-9 3 -1 51.89 4.8
9 3 1 43 8.8
-9 3 -1 47.9 5.4
-10 -3 -1 42.2 5.4
-10 3 -1 51.09 6.3
-10 3 -1 56.79 6.2
-11 -3 -1 54.59 8.3
-11 3 -1 52.69 5.2
-11 3 -1 46.4 6.7
-10 -4 1 37.2 7.5
-10 -4 1 29.8 6.1
-10 4 1 39.5 6.5
-9 -4 1 19.8 5.1
-9 -4 1 17 6.2
-9 -4 1 21.5 4.1
-9 4 1 30.9 5
-9 4 1 21.9 5.5
-9 4 1 17.1 8
9 4 -1 17.3 8.2
-8 -4 1 155.28 8.7
-8 -4 1 164.68 7.8
8 4 -1 156.08 17.4
8 4 -1 146.19 6.5
-8 4 1 152.78 8.8
8 4 -1 157.98 6.2
-8 4 1 151.18 9.8
-8 4 1 152.48 9.9
-7 -4 1 13.6 8.7
-7 -4 1 27.7 3.7
7 -4 -1 -1.3 14.1
-7 -4 1 24.9 4.2
-7 -4 1 27.1 5.6
-7 4 1 47.1 16.5
7 4 -1 19.7 3.2
-7 4 1 20.5 4.2
7 4 -1 27.2 4.8
-7 4 1 31.8 5
7 4 -1 29.4 10.7
-7 4 1 25.9 4.5
-6 -4 1 57.59 6.8
6 -4 -1 62.39 4.2
-6 -4 1 54.39 5.2
6 -4 -1 34.9 13.5
-6 -4 1 69.09 5.8
6 -4 -1 71.59 7.9
-6 -4 1 60.39 4.7
6 4 -1 63.49 5
-6 4 1 74.49 16.3
6 4 -1 53.39 11.3
6 4 -1 66.79 4.6
-6 4 1 63.09 5.8
-6 4 1 70.79 6.7
-6 4 1 57.39 5.9
6 4 -1 55.89 6.5
5 -4 -1 190.28 20.9
-5 -4 1 169.28 7.6
-5 -4 1 158.48 7
5 -4 -1 159.58 6.4
-5 -4 1 173.08 7.4
5 -4 -1 159.38 9.1
-5 -4 1 185.28 8.8
5 4 -1 149.88 6.9
-5 4 1 178.68 8.4
5 4 -1 154.98 16.5
5 4 -1 182.08 7.2
-5 4 1 163.28 8
-5 4 1 162.18 8
-5 4 1 159.08 20.8
-5 4 1 181.18 9.9
4 -4 -1 440.86 25.5
-4 -4 1 403.46 12.8
-4 -4 1 398.46 12.8
-4 -4 1 404.86 13.1
4 -4 -1 384.66 13.3
-4 -4 1 408.26 13.9
4 -4 -1 407.66 12
4 -4 -1 419.86 14.3
4 4 -1 406.76 12.9
-4 4 1 394.56 13.5
-4 4 1 407.66 14.7
-4 4 1 399.06 13.3
4 4 -1 382.46 22
-4 4 1 426.96 26
-4 4 1 390.76 13.5
4 4 -1 421.56 13.1
4 4 -1 385.96 12.3
-3 -4 1 5.1 7.7
-3 -4 1 23.2 3.3
3 -4 -1 17.5 3.7
-3 -4 1 15.8 3.5
3 -4 -1 21.1 2.8
-3 -4 1 11.5 2.7
-3 -4 1 20.2 2.9
-3 -4 1 16.4 2.9
3 -4 -1 3 9.1
3 -4 -1 14.1 3.3
3 -4 -1 12.5 2.9
-3 4 1 12.6 3
3 4 -1 12.5 2.7
3 4 -1 20 2.9
-3 4 1 17.8 3.1
-3 4 1 15.9 3.1
3 4 -1 17.2 2.9
-3 4 1 6.6 9.9
3 4 -1 16 9
-3 4 1 22.7 4.1
2 -4 -1 985.5 27.9
-2 -4 1 1033.2 27.9
2 -4 -1 1061.69 27.1
-2 -4 1 1038 28
-2 -4 1 984 27.6
-2 -4 1 1064.69 27.9
2 -4 -1 1016.1 28.6
2 -4 -1 1007.4 27.8
-2 -4 1 1071.29 36.6
2 -4 -1 1063.99 38.9
2 4 -1 1020.2 27.3
-2 4 1 1039.9 27.8
-2 4 1 1010.8 28
-2 4 1 1036.1 28.6
2 4 -1 1048.6 27.4
2 4 -1 1093.79 27.9
2 4 -1 995.3 38.1
-2 4 1 1029.9 39.4
-2 4 1 1036.6 28
-1 -4 1 183.88 7.8
-1 -4 1 180.58 7.8
1 -4 -1 182.68 8.4
1 -4 -1 197.58 16.6
-1 -4 1 179.68 15.3
1 -4 -1 180.18 7.9
1 -4 -1 196.68 7.4
-1 -4 1 187.08 7.8
-1 -4 1 172.08 7.1
-1 -4 1 182.38 7.9
1 4 -1 185.98 7.5
1 4 -1 198.18 7.8
-1 4 1 179.08 7.6
1 4 -1 199.48 7.6
-1 4 1 196.78 17.2
-1 4 1 177.18 7.7
-1 4 1 194.08 7.6
1 4 -1 173.28 27.8
-1 4 1 199.08 8.5
0 -4 -1 912.61 24.4
0 -4 -1 911.51 24.9
0 -4 1 910.21 34.3
0 -4 -1 905.41 34.6
0 -4 1 907.01 25.1
0 -4 -1 893.31 25.3
0 -4 1 876.61 24.4
0 -4 1 875.81 24.6
0 -4 1 917.31 25.1
0 -4 -1 931.41 24.7
0 -4 -1 938.61 25.4
0 4 1 913.21 24.9
0 4 -1 879.01 24.5
0 4 1 842.62 35
0 4 -1 931.81 25.1
0 4 1 998.1 26.4
0 4 1 865.51 24.6
0 4 -1 955.2 24.9
0 4 1 886.71 24.5
0 4 -1 886.21 35.5
1 -4 1 101.29 6.2
-1 -4 -1 91.69 5.3
-1 -4 -1 109.89 13.6
-1 -4 -1 94.59 6
-1 -4 -1 94.49 5.9
-1 -4 -1 84.19 5.4
-1 -4 -1 98.09 5.5
1 -4 1 106.89 5.9
1 -4 1 91.99 5.3
1 -4 1 104.19 13.4
-1 4 -1 93.49 5.6
1 4 1 93.59 5.5
-1 4 -1 93.29 5.4
1 4 1 98.09 16.1
-1 4 -1 96.39 5.5
1 4 1 93.39 5.5
-1 4 -1 97.49 5.8
1 4 1 98.59 5.7
-1 4 -1 118.19 14.9
1 4 1 99.89 5.2
-2 -4 -1 1197.08 31.2
2 -4 1 1153.48 30.6
-2 -4 -1 1148.79 31.4
-2 -4 -1 1185.28 31
-2 -4 -1 1169.68 40.6
2 -4 1 1209.28 42.5
-2 -4 -1 1234.68 31.3
2 -4 1 1149.19 30.9
2 -4 1 1171.88 31.6
2 4 1 1201.48 31.3
2 4 1 1091.39 30.6
2 4 1 1171.28 30.8
-2 4 -1 1096.09 42.6
-2 4 -1 1206.28 31.8
-2 4 -1 1160.38 31
-2 4 -1 1144.09 31.1
2 4 1 1174.68 41.4
-2 4 -1 1192.48 31.6
3 -4 1 0.9 2.5
-3 -4 -1 0.2 2.6
3 -4 1 0.8 3.1
-3 -4 -1 -1.9 1.9
3 -4 1 -4.1 8.7
3 -4 1 2.4 2.1
-3 -4 -1 -14.4 7.5
-3 -4 -1 1.9 2.4
-3 -4 -1 -2 2.3
3 4 1 0.6 2.6
-3 4 -1 0 2.8
-3 4 -1 2.2 1.9
3 4 1 -2.8 1.8
3 4 1 2.3 8.6
-3 4 -1 -4.3 2.2
-3 4 -1 7.4 10.3
-3 4 -1 0 2.3
3 4 1 1.6 2.3
-3 4 -1 -0.5 2.4
-4 -4 -1 279.97 10
4 -4 1 295.77 21.7
-4 -4 -1 287.07 10.8
4 -4 1 281.97 9.9
-4 -4 -1 292.97 10.9
4 -4 1 289.57 10.7
-4 -4 -1 289.67 10.4
4 -4 1 289.07 11.3
-4 4 -1 293.67 11.1
-4 4 -1 281.57 9.3
4 4 1 293.87 10.8
4 4 1 310.27 10.1
-4 4 -1 285.77 11.8
4 4 1 305.37 19.2
-4 4 -1 295.07 10.6
-4 4 -1 312.27 23.5
4 4 1 273.37 9.9
-4 4 -1 279.17 10.7
5 -4 1 2.5 11.3
-5 -4 -1 0.7 2.9
5 -4 1 -0.4 2.3
-5 -4 -1 1.4 3
-5 -4 -1 1.7 2.5
5 -4 1 1.6 3.6
-5 -4 -1 -2.4 2.1
5 4 1 -3.1 3.9
-5 4 -1 2.3 2.6
5 4 1 2.5 3.2
-5 4 -1 4.7 2.9
5 4 1 1.8 2.7
-5 4 -1 4.7 12.3
5 4 1 0.5 9.3
-5 4 -1 -1.9 2.9
-6 -4 -1 164.18 7
6 -4 1 183.58 23
-6 -4 -1 166.58 8.6
6 -4 1 181.78 9.7
-6 -4 -1 164.48 7.5
6 -4 1 164.78 6.8
6 4 1 153.08 8.9
-6 4 -1 169.28 9
-6 4 -1 162.58 8
-6 4 -1 166.78 6.5
6 4 1 149.79 17.4
6 4 1 169.78 7.1
6 4 1 158.48 7.6
-6 4 -1 165.18 8.6
-6 4 -1 147.59 20.2
7 -4 1 41.2 5.9
7 -4 1 59.49 4.8
7 -4 1 76.69 17.4
-7 -4 -1 47.3 4.7
-7 -4 -1 47.4 5.3
-7 -4 -1 54.29 6.8
-7 4 -1 46.1 5.8
7 4 1 45.7 5.5
7 4 1 55.99 4.6
-7 4 -1 47.8 18.4
7 4 1 20.9 12.5
7 4 1 59.49 6.6
-7 4 -1 49.99 5.7
-7 4 -1 48.4 4.3
-7 4 -1 49.6 5.7
-8 -4 -1 89.29 5.5
-8 -4 -1 92.09 8.1
-8 -4 -1 100.29 8.9
-8 -4 -1 77.09 8.1
-8 4 -1 81.09 9.1
-8 4 -1 94.49 8.3
8 4 1 79.99 14.9
-8 4 -1 94.89 7.3
8 4 1 81.79 6.4
-9 -4 -1 24.7 6
-9 -4 -1 26.2 5.7
-9 -4 -1 20.2 3.1
9 4 1 39.3 13.7
-9 4 -1 21 4.6
-9 4 -1 25.4 5.7
-10 -4 -1 62.49 8
-10 -4 -1 68.99 7.3
-10 -4 -1 61.09 8.1
-10 4 -1 69.69 6.9
-10 4 -1 74.59 8.2
-9 -5 1 26.8 6.1
-9 -5 1 21.6 7.6
-9 5 1 29.7 6.3
-9 5 1 31.9 7.1
-8 -5 1 0.9 4.5
-8 -5 1 8 6.2
-8 5 1 5.7 4.8
-8 5 1 -6.1 5.3
-7 -5 1 61.09 7.5
-7 -5 1 54.49 7.4
7 -5 -1 48.3 4.8
-7 5 1 51.39 7.4
7 5 -1 45.3 6.4
-7 5 1 51.79 7
7 5 -1 48.1 4.9
-7 5 1 41.1 6
-6 -5 1 4.1 5
-6 -5 1 -1 3.6
6 -5 -1 2.3 2.8
-6 -5 1 0.3 4.7
6 5 -1 -5.6 4.5
-6 5 1 5.4 4.6
-6 5 1 0.8 3.9
-6 5 1 -4.6 4.7
5 -5 -1 96.99 5.8
-5 -5 1 106.19 7.2
-5 -5 1 100.39 9.1
-5 -5 1 98.69 7.3
-5 -5 1 101.79 8
5 -5 -1 150.48 21.5
-5 5 1 100.39 8.1
5 5 -1 98.19 7.8
-5 5 1 96.09 8.5
5 5 -1 112.09 6.9
5 5 -1 104.79 17.9
-5 5 1 92.09 20.5
-5 5 1 97.79 7.2
-4 -5 1 -4.5 3.7
4 -5 -1 -4.5 13.6
-4 -5 1 1.7 3.2
4 -5 -1 0.7 2.7
-4 -5 1 2.4 3.5
-4 -5 1 2.2 3.6
-4 5 1 0.2 14.8
-4 5 1 -3.1 3.5
4 5 -1 -19.6 11.8
4 5 -1 1.2 2.8
-4 5 1 -5.4 3.9
-4 5 1 0 3.3
4 5 -1 4.7 3.4
-3 -5 1 57.39 6.2
3 -5 -1 57.59 5
3 -5 -1 51.79 6.4
-3 -5 1 54.09 12.4
3 -5 -1 60.59 15.7
-3 -5 1 52.59 6.3
-3 -5 1 48.3 5.5
-3 -5 1 57.49 6.3
-3 -5 1 54.49 5.7
3 5 -1 50.19 14.1
-3 5 1 56.09 15.9
-3 5 1 52.89 6.2
3 5 -1 56.39 5.9
-3 5 1 41.1 5
3 5 -1 55.99 6
-3 5 1 59.99 5.8
-2 -5 1 5.2 3.7
-2 -5 1 5.2 3.2
-2 -5 1 3.6 3.5
2 -5 -1 7.3 3.5
2 -5 -1 -0.1 3.3
2 -5 -1 8.7 2.9
-2 -5 1 10 3.2
-2 -5 1 12.4 11.4
2 -5 -1 6.2 12.8
-2 -5 1 5.2 3.4
2 5 -1 10.5 3.4
-2 5 1 5 3.1
-2 5 1 -0.3 3.2
-2 5 1 7.6 3.1
-2 5 1 7.4 4
2 5 -1 -23.3 11.5
2 5 -1 3.1 3.2
-2 5 1 4.6 14.5
1 -5 -1 873.71 25.5
-1 -5 1 914.81 25.8
1 -5 -1 858.61 44.7
-1 -5 1 918.71 37.8
-1 -5 1 895.81 25.6
-1 -5 1 892.81 25.5
1 -5 -1 879.71 24.7
1 -5 -1 875.51 25.2
-1 -5 1 871.81 24.7
-1 5 1 880.51 25.8
1 5 -1 933.81 25.7
-1 5 1 898.41 25.6
-1 5 1 830.82 25.2
1 5 -1 869.81 24.9
-1 5 1 876.11 41.2
1 5 -1 853.61 39.7
-1 5 1 892.11 25
0 -5 1 4.9 3.3
0 -5 -1 4.7 3.2
0 -5 -1 7.3 3.4
0 -5 1 4.3 3.2
0 -5 -1 8.2 4.2
0 -5 1 -0.9 11.7
0 -5 1 2.6 3.4
0 -5 -1 -3.4 3.1
0 -5 -1 -2.9 10.9
0 5 1 3.2 3.3
0 5 1 9.2 3.9
0 5 -1 6 3.4
0 5 1 -8.8 12.6
0 5 -1 -2.2 2.6
0 5 1 6 3
0 5 -1 13.7 3.8
0 5 1 3.7 2.9
0 5 -1 15.6 14.2
-1 -5 -1 494.15 17.1
-1 -5 -1 502.75 16.2
-1 -5 -1 504.45 17.1
1 -5 1 510.45 16.4
1 -5 1 524.55 16.4
1 -5 1 542.05 29.4
-1 -5 -1 519.25 29.2
-1 -5 -1 510.85 16.5
-1 -5 -1 529.75 16.5
-1 5 -1 495.65 16.9
1 5 1 483.85 29.6
-1 5 -1 543.35 17.2
1 5 1 507.45 16.6
-1 5 -1 501.35 16.4
-1 5 -1 530.35 32.9
1 5 1 539.55 16.6
-2 -5 -1 6.1 11.6
2 -5 1 -1.2 2.8
-2 -5 -1 -2.9 3.7
2 -5 1 3.8 12.2
-2 -5 -1 -4 2.7
2 -5 1 -2.3 3.4
-2 -5 -1 -1.1 3
-2 -5 -1 -2.9 2.9
2 5 1 -2.7 12.2
2 5 1 1.1 3.3
-2 5 -1 6 3.5
-2 5 -1 4.9 15.9
-2 5 -1 1.4 3.1
-2 5 -1 0.4 3.4
2 5 1 -1.9 2.6
-3 -5 -1 423.26 14.6
3 -5 1 406.06 27.6
-3 -5 -1 416.66 14.9
-3 -5 -1 420.26 14.1
-3 -5 -1 435.06 15.1
-3 -5 -1 432.26 27.2
3 -5 1 394.86 13.5
3 5 1 413.96 13.9
3 5 1 418.06 14.3
-3 5 -1 397.96 14.2
-3 5 -1 379.06 29.5
-3 5 -1 391.16 14.4
-3 5 -1 384.06 15.3
3 5 1 381.76 27.5
-3 5 -1 413.36 15
4 -5 1 47 5
-4 -5 -1 56.99 6.3
-4 -5 -1 52.99 6.1
-4 -5 -1 55.59 6
-4 -5 -1 45.4 5.2
4 -5 1 54.59 16.1
-4 5 -1 41.4 5.5
4 5 1 54.69 6.9
4 5 1 42.7 15
4 5 1 49.7 5.1
-4 5 -1 45.6 5.5
-4 5 -1 64.89 6.4
-4 5 -1 53.69 17.1
-5 -5 -1 188.08 10.7
-5 -5 -1 190.48 9.5
-5 -5 -1 167.58 9.8
-5 -5 -1 179.48 21.7
-5 -5 -1 175.88 8.5
5 -5 1 208.58 27
5 -5 1 166.88 8.2
-5 5 -1 147.89 10.5
5 5 1 175.18 9.9
5 5 1 200.18 8.7
-5 5 -1 181.38 9.1
-5 5 -1 138.69 22.9
5 5 1 141.19 19.2
-5 5 -1 170.38 10
-6 -5 -1 -5 5.1
-6 -5 -1 -3.5 4.4
6 -5 1 5.3 3.2
-6 -5 -1 -0.7 4.3
-6 -5 -1 8.8 3.2
6 5 1 0.5 3.3
-6 5 -1 1.5 3.7
-6 5 -1 -4.8 4.5
-7 -5 -1 153.88 8.4
-7 -5 -1 177.38 11.5
7 -5 1 145.69 7.7
-7 -5 -1 147.09 9.8
-7 -5 -1 155.38 10.4
7 5 1 149.69 8.3
-7 5 -1 158.58 15.1
-7 5 -1 148.79 11.2
-8 -5 -1 5.9 6.4
-8 -5 -1 -1.7 5.8
-8 5 -1 -4.3 5.3
-8 5 -1 0.2 5
-9 -5 -1 44.7 8.9
-9 -5 -1 39.7 7.3
-9 5 -1 47.1 7.9
-9 5 -1 45.4 6.9
-7 -6 1 46.7 7.4
-7 -6 1 30.4 8.8
-7 6 1 38.7 7.2
-7 6 1 42.4 7.8
-6 -6 1 46.6 6.8
6 -6 -1 58.59 6.9
-6 -6 1 51.09 9.2
6 6 -1 49.1 6.1
-6 6 1 51.39 7.3
-6 6 1 43.2 7.4
-5 -6 1 4.6 6.5
-5 -6 1 15.8 5.4
5 -6 -1 0.2 4.3
5 6 -1 -0.7 4.4
-5 6 1 -0.6 5.6
-5 6 1 9.8 5.1
4 -6 -1 198.98 10
-4 -6 1 201.88 11.4
-4 -6 1 223.08 12.9
-4 6 1 206.98 35.1
4 6 -1 217.38 10.7
-4 6 1 194.38 12.1
-4 6 1 187.98 10.9
-3 -6 1 28.6 5.3
3 -6 -1 38.5 4.8
-3 -6 1 34.1 6.6
3 -6 -1 -8.8 19.5
-3 6 1 38.7 22.8
3 6 -1 29.2 5.4
3 6 -1 25 4.9
-3 6 1 25.3 5.7
2 -6 -1 26.7 4.7
-2 -6 1 27.3 5.3
-2 -6 1 20 16.4
-2 -6 1 27.6 5.9
2 -6 -1 35.4 19.2
-2 6 1 26.3 5.1
-2 6 1 29.8 5.8
-2 6 1 8.6 20.3
2 6 -1 25 5.4
2 6 -1 15 4.5
2 6 -1 45.5 21.4
-1 -6 1 68.79 8.1
1 -6 -1 91.69 21.1
1 -6 -1 58.39 7.2
-1 -6 1 64.89 6.9
1 -6 -1 50.39 5.9
-1 6 1 68.29 8.1
1 6 -1 62.59 6.5
1 6 -1 58.19 7.4
1 6 -1 67.79 20.1
-1 6 1 54.99 22.3
0 -6 1 191.58 10.8
0 -6 1 200.88 24.8
0 -6 -1 194.28 23.7
0 -6 -1 175.68 10.1
0 -6 -1 158.98 15.1
0 6 1 118.79 24.1
0 6 -1 162.68 26.8
0 6 1 193.78 10.5
0 6 -1 189.38 10.4
1 -6 1 25 17.3
-1 -6 -1 35.6 5.6
1 -6 1 36.3 5.6
-1 -6 -1 -9.7 23.2
1 6 1 18.2 18.7
-1 6 -1 42.3 6
1 6 1 45 5.7
-1 6 -1 67.69 23.8
2 -6 1 79.19 21
-2 -6 -1 76.69 8.8
-2 -6 -1 78.49 20.2
-2 -6 -1 71.99 8.3
-2 -6 -1 67.49 8.7
2 -6 1 70.99 7.9
2 6 1 77.69 7.6
-2 6 -1 69.09 7.6
2 6 1 85.99 21.1
-2 6 -1 124.89 25.6
-3 -6 -1 7.8 5.4
3 -6 1 14.3 20
-3 -6 -1 6.4 4.5
3 -6 1 2.2 4
-3 -6 -1 4.3 4.9
3 6 1 4.6 4.2
-3 6 -1 -20.2 22
-4 -6 -1 101.89 10.3
-4 -6 -1 114.29 9.1
4 -6 1 104.99 8.3
-4 -6 -1 122.79 11.4
4 6 1 123.69 8.8
-4 6 -1 100.19 10.5
-4 6 -1 122.59 30.6
-5 -6 -1 0 4.3
-5 -6 -1 3.5 5.7
5 -6 1 -6.5 4.2
-5 -6 -1 -6 6.1
-5 6 -1 0.2 6
5 6 1 5.2 4.1
6 -6 1 49.7 6.3
-6 -6 -1 45.8 6.1
-6 -6 -1 44.9 8
-6 -6 -1 63.29 15.1
-6 6 -1 45.6 7.7
6 6 1 54.49 6.1
-7 -6 -1 5.6 6.3
-7 -6 -1 -9.3 7.5
7 -6 1 1.5 8.2
-7 -6 -1 -1 5.2
-7 6 -1 -7.3 6.6
-4 -7 1 44 8.9
4 -7 -1 48.2 6.9
-4 7 1 30.4 8.8
4 7 -1 33.5 7.2
-3 -7 1 67.69 9.8
3 -7 -1 65.29 7.5
3 7 -1 63.99 8
-3 7 1 49.8 8.6
2 -7 -1 -3.2 6.7
-2 -7 1 -2.6 7.6
2 7 -1 0.9 6.7
-2 7 1 -2.3 7.3
1 -7 -1 12.8 25
-1 -7 1 14.6 7.6
1 -7 -1 9.9 7.2
1 7 -1 10.9 6.3
-1 7 1 9.6 36
-1 7 1 17.3 7.4
0 -7 -1 29.3 7.2
0 -7 1 21.2 7.3
0 7 -1 18.9 8.3
0 7 1 32.3 8
1 -7 1 57.39 24.3
-1 -7 -1 12.5 7.1
1 -7 1 21.7 6.5
1 7 1 19.3 6.3
-1 7 -1 8.7 6.5
-1 7 -1 -10.1 42.9
-2 -7 -1 34.3 7.8
-2 -7 -1 32.4 7.4
2 -7 1 50.09 7.6
-2 7 -1 39.2 8.7
2 7 1 30.2 7.3
-3 -7 -1 22.2 6.7
-3 -7 -1 34.9 7.8
-3 -7 -1 26.3 7.7
-3 7 -1 45.5 9.1
3 7 1 26.7 6.6
-12 0 2 63.79 6.3
-12 0 2 67.09 8.1
-12 0 2 49.5 5.4
-11 0 2 -2 4.1
-11 0 2 5.7 8.9
-11 0 2 2.2 3.2
-11 0 2 3.9 2.9
-10 0 2 275.47 10.5
-10 0 2 286.87 12.3
-10 0 2 274.07 9.7
-10 0 2 255.37 9.4
-9 0 2 2.5 2.2
-9 0 2 -0.7 3
-8 0 2 471.55 14
-7 0 2 -1.4 1.7
-7 0 2 1.1 0.9
-7 0 2 1 2.5
7 0 -2 3.2 2.4
-7 0 2 0.4 0.8
-6 0 2 38.8 1.8
-6 0 2 34.9 2.9
-6 0 2 35.8 1.7
6 0 -2 33.1 3.6
-6 0 2 34.9 3.8
-5 0 2 0.8 1.5
5 0 -2 4.6 1.9
-5 0 2 1.8 1.8
-5 0 2 0.8 0.5
-4 0 2 2954.7 72.49
-4 0 2 2956.7 70.99
4 0 -2 3063.89 72.49
-3 0 2 0.6 0.4
3 0 -2 0.5 0.2
-3 0 2 0.2 0.7
-3 0 2 0.7 0.3
-3 0 2 0.9 0.5
-3 0 2 -0.6 0.9
3 0 -2 2.1 1.2
-2 0 2 6.6 0.9
-2 0 2 10 1.4
2 0 -2 8.2 1.3
-2 0 2 9.7 0.6
-1 0 2 0.8 0.8
1 0 -2 0.5 0.3
-1 0 2 1.5 1
-1 0 2 -0.1 0.4
1 0 -2 0.5 0.3
-1 0 2 0.5 0.3
-1 0 2 0.1 0.2
-1 0 2 0.3 0.3
1 0 2 -0.1 0.4
1 0 2 0.7 0.4
-1 0 -2 0 0.3
-1 0 -2 0.2 0.3
1 0 2 1.5 1.6
-1 0 -2 -0.5 1.6
-1 0 -2 -0.1 0.5
1 0 2 0.1 0.4
-2 0 -2 6233.58 150.38
2 0 2 6119.99 150.78
-3 0 -2 0.7 0.3
-3 0 -2 -2.3 2.5
3 0 2 0.3 0.3
-3 0 -2 0.5 0.8
3 0 2 -1 0.6
-3 0 -2 1.2 0.9
3 0 2 1.8 2.5
-4 0 -2 121.99 4.2
-4 0 -2 126.99 5.2
4 0 2 121.69 7.9
4 0 2 126.89 4.3
-4 0 -2 118.09 3.3
-4 0 -2 108.29 7.6
-5 0 -2 1.3 1.4
5 0 2 6.9 4.6
-5 0 -2 2.6 0.7
-5 0 -2 0.9 1
-5 0 -2 4.6 3.9
-6 0 -2 1448.06 38.2
6 0 2 1504.45 42.8
-6 0 -2 1401.26 42.2
-6 0 -2 1436.76 35.4
6 0 2 1509.45 36.4
-6 0 -2 1497.55 37.4
-6 0 -2 1470.05 36.5
7 0 2 3.8 6.3
-7 0 -2 0.5 2.4
-7 0 -2 -0.4 1.5
-7 0 -2 0.6 1
7 0 2 1.2 1.7
-7 0 -2 -8.7 5.4
-7 0 -2 0 2.2
-8 0 -2 502.75 13.3
-8 0 -2 510.25 21.4
-8 0 -2 535.35 17.3
8 0 2 562.54 14.8
8 0 2 517.65 21.5
-8 0 -2 527.55 14.8
9 0 2 -4.2 2.1
-9 0 -2 1.2 3.5
-9 0 -2 3.1 2.4
9 0 2 4.9 8.8
-9 0 -2 2.9 3.9
-9 0 -2 4.1 7.3
10 0 2 50.49 4.5
-10 0 -2 53.89 4.4
10 0 2 56.29 10.9
-10 0 -2 56.49 4.6
-10 0 -2 55.99 6.2
-10 0 -2 54.49 7
11 0 2 9.7 9.9
-11 0 -2 -1.5 5.2
-11 0 -2 0 5.6
-11 0 -2 -3 2.4
-11 0 -2 1.1 2.5
-12 0 -2 29.9 7.5
-12 0 -2 30.1 3.2
-12 -1 2 -1.8 4.5
-12 -1 2 0.5 6.1
-12 -1 2 3 3.9
-12 1 2 -2.9 4
-12 1 2 5 6.4
-11 -1 2 53.29 5.6
11 -1 -2 54.79 8.7
-11 -1 2 74.39 7.8
-11 -1 2 55.59 6
-11 1 2 71.89 9.5
-11 1 2 55.39 5.2
-11 1 2 55.59 6.2
-11 1 2 58.09 4.5
-11 1 2 50.09 4.5
-10 -1 2 3.8 3.7
-10 -1 2 8.9 3
10 -1 -2 11.4 7.9
-10 -1 2 8.8 3.5
-10 1 2 5.3 2.8
-10 1 2 6.9 3
-10 1 2 8.6 2.5
-10 1 2 5.3 7.7
-10 1 2 4.9 2.1
-10 1 2 8.2 2.3
-9 -1 2 154.28 6.8
-9 -1 2 157.98 8.3
-9 1 2 155.58 7
-9 1 2 151.48 6
-9 1 2 146.69 6
-9 1 2 138.79 5.8
-9 1 2 153.18 12.8
-8 -1 2 111.59 6.4
8 -1 -2 106.49 10.9
-8 -1 2 107.59 5.5
8 -1 -2 110.09 6.2
8 -1 -2 110.49 4.6
-8 1 2 98.29 4.7
-8 1 2 105.99 4.7
-8 1 2 101.99 4.6
-8 1 2 109.19 5.9
-8 1 2 101.89 10.6
-7 -1 2 466.45 14.2
7 -1 -2 477.05 18.5
7 -1 -2 482.95 12.8
7 -1 -2 484.45 14.1
-7 -1 2 454.05 13.7
-7 1 2 471.15 13.8
-7 1 2 459.45 12.5
-7 1 2 460.55 12.9
-7 1 2 453.95 12.9
-7 1 2 464.95 18.3
-6 -1 2 66.39 4
6 -1 -2 70.49 8
-6 -1 2 66.19 3.8
6 -1 -2 58.59 3.1
-6 1 2 65.99 4
-6 1 2 62.89 3.3
-6 1 2 62.89 3.2
-6 1 2 60.19 7.5
-6 1 2 63.79 2.8
5 -1 -2 982.6 24.1
5 -1 -2 973.1 25
5 -1 -2 957.8 28.9
-5 -1 2 953.8 24.7
-5 1 2 916.21 24.8
-5 1 2 953.1 28.6
-5 1 2 948.41 24.1
-5 1 2 973.5 24
-5 1 2 948.01 23.3
4 -1 -2 705.93 18.8
4 -1 -2 704.43 22.3
4 -1 -2 737.43 18.1
4 -1 -2 696.13 18
-4 -1 2 721.43 18.5
-4 1 2 718.13 18.1
-4 1 2 678.23 18.7
-4 1 2 717.33 17.1
-4 1 2 706.73 18
-4 1 2 709.83 22.1
-3 -1 2 17.5 1.4
3 -1 -2 17.6 1.5
3 -1 -2 18.1 1.8
-3 -1 2 20.9 2
-3 -1 2 18.8 0.9
3 -1 -2 16 1.5
-3 -1 2 25.1 2.4
3 -1 -2 10.6 3.1
3 1 -2 17.5 0.9
3 1 -2 18.1 0.9
-3 1 2 16.3 1.6
-3 1 2 17.8 1.9
-3 1 2 18.3 1.5
-3 1 2 19.7 3.7
3 1 -2 19.4 2.2
-2 -1 2 6267.57 145.79
-2 1 2 6255.77 150.68
-2 1 2 5660.33 144.59
2 1 -2 6119.39 146.19
-1 -1 2 6530.15 156.98
-1 1 2 6635.24 158.18
1 1 -2 6367.46 157.28
0 -1 2 509.35 15.9
0 -1 -2 486.25 12.9
0 -1 -2 509.75 13
0 -1 2 504.55 13
0 -1 -2 504.85 16.1
0 -1 2 519.65 12.9
0 -1 -2 479.05 13.1
0 1 2 530.35 13.2
0 1 -2 517.25 13
0 1 2 497.75 12.9
0 1 -2 522.65 16.3
0 1 -2 513.55 13
0 1 2 522.85 13
0 1 2 494.85 16
1 -1 2 232.58 6.6
-1 -1 -2 245.58 6.6
1 -1 2 249.48 6.9
-1 -1 -2 238.28 6.8
-1 -1 -2 248.18 9.9
-1 -1 -2 243.58 7
1 -1 2 259.57 6.9
1 -1 2 235.48 10
-1 1 -2 257.67 6.9
1 1 2 241.08 7
1 1 2 239.18 9.5
1 1 2 241.68 6.5
1 1 2 251.07 6.8
-1 1 -2 248.58 10.4
-2 -1 -2 84.99 5.8
-2 -1 -2 81.09 3.2
2 -1 2 89.49 3.1
-2 -1 -2 88.49 2.8
2 -1 2 97.89 3.4
2 -1 2 90.59 3.3
-2 1 -2 82.99 3
2 1 2 92.59 2.7
2 1 2 83.79 3.1
-2 1 -2 93.79 3.3
-2 1 -2 97.69 6.7
2 1 2 86.09 5.9
2 1 2 93.19 3.6
-2 1 -2 82.39 3.5
3 -1 2 4630.44 107.59
3 -1 2 4408.96 107.19
-3 -1 -2 4320.87 107.19
-3 -1 -2 4446.35 108.09
3 -1 2 4450.05 107.59
3 1 2 4704.43 112.09
-3 1 -2 4347.27 107.69
-3 1 -2 4746.02 113.99
3 1 2 4497.25 108.19
3 1 2 4508.85 111.19
-3 1 -2 4562.94 107.59
-3 1 -2 4345.47 107.09
-4 -1 -2 0 1.2
4 -1 2 1.5 1
-4 -1 -2 1.4 0.8
-4 -1 -2 2.7 0.6
4 -1 2 4.3 3.9
4 1 2 8.9 3.4
-4 1 -2 -0.3 1
-4 1 -2 1.1 0.9
4 1 2 4.5 1.1
-4 1 -2 1.9 4
-4 1 -2 0.3 1.2
4 1 2 1.9 3.9
-5 -1 -2 619.74 15.7
-5 -1 -2 605.54 14.9
-5 -1 -2 599.24 17.1
-5 -1 -2 615.44 14.7
5 -1 2 566.74 21.9
5 -1 2 594.44 16.1
5 -1 2 612.94 15.8
5 1 2 570.24 20.6
-5 1 -2 626.14 16.4
5 1 2 613.94 20.1
-5 1 -2 577.34 22.5
5 1 2 612.84 15.9
-5 1 -2 599.34 16.4
-5 1 -2 592.04 15.6
-6 -1 -2 7.8 1
6 -1 2 9 6.3
-6 -1 -2 5.7 1.5
-6 -1 -2 7.5 1
6 -1 2 8.5 1.7
-6 -1 -2 6.8 2.1
6 -1 2 5.1 1.9
-6 1 -2 6.7 1.9
-6 1 -2 8.3 5.7
6 1 2 3.4 5.1
6 1 2 12.3 4.9
-6 1 -2 10.5 2
6 1 2 7.8 1.5
-6 1 -2 4.9 1.8
7 -1 2 473.95 13.3
7 -1 2 459.25 13.6
-7 -1 -2 482.45 13
-7 -1 -2 476.25 15.2
7 -1 2 472.85 21.2
-7 1 -2 487.25 14.1
7 1 2 475.35 18.2
7 1 2 454.15 18.7
-7 1 -2 481.85 14.1
-7 1 -2 457.25 12.9
-7 1 -2 462.25 21.7
7 1 2 515.25 13.1
-8 -1 -2 263.67 10.8
8 -1 2 266.47 17.8
8 -1 2 255.07 9
-8 -1 -2 266.97 8
8 -1 2 258.37 8.4
-8 1 -2 262.07 8
-8 1 -2 296.37 18.3
-8 1 -2 246.58 9.6
-8 1 -2 260.57 9.2
8 1 2 275.17 15.1
8 1 2 249.38 7.9
-8 1 -2 265.27 8.9
8 1 2 247.78 13.7
-9 -1 -2 88.39 4.3
-9 -1 -2 91.49 7.7
9 -1 2 90.69 12.8
9 -1 2 82.09 5.7
-9 1 -2 80.99 6.8
-9 1 -2 85.39 5.7
-9 1 -2 95.29 8.1
9 1 2 99.19 10.4
-9 1 -2 70.39 12.1
9 1 2 85.19 10.9
-9 1 -2 77.69 5.2
-9 1 -2 83.89 4.1
-10 -1 -2 1.5 4.4
10 -1 2 -2 3.2
-10 -1 -2 1.4 2
10 1 2 -1.6 7.9
-10 1 -2 -0.1 4.4
-10 1 -2 2 2.8
10 1 2 8.7 7.4
-10 1 -2 4.9 5.1
-10 1 -2 2.5 1.9
-10 1 -2 3.1 3.1
-10 1 -2 1.7 13.2
-11 -1 -2 47 7.4
-11 1 -2 46.9 7.5
-11 1 -2 44.6 4.8
-12 -1 -2 1.9 6.8
-12 1 -2 -1.8 6.9
-12 -2 2 16.3 6.8
-12 -2 2 14.3 10.2
-12 2 2 22.6 5
-11 -2 2 25.3 5.6
-11 -2 2 22.3 5.1
-11 -2 2 19 4.2
-11 2 2 23.2 4.6
-11 2 2 14.8 4
-10 -2 2 33.6 5
-10 -2 2 26.3 3.8
-10 -2 2 28.1 5.2
10 -2 -2 36.6 5.7
-10 2 2 27.4 3.9
-10 2 2 34.2 4.7
-10 2 2 44.4 12.8
-10 2 2 25.8 4
9 -2 -2 104.99 8.1
-9 -2 2 116.29 6.8
-9 -2 2 113.19 7.3
-9 -2 2 119.69 7.3
9 -2 -2 129.09 16.7
9 -2 -2 117.39 6.6
-9 2 2 129.19 6.5
-9 2 2 115.59 6.4
-9 2 2 113.59 7.2
-9 2 2 90.39 13.3
-8 -2 2 265.97 10.5
-8 -2 2 273.97 9.9
8 -2 -2 287.07 19.3
8 -2 -2 277.47 10.9
8 -2 -2 275.47 9.6
-8 -2 2 279.27 10.4
-8 2 2 277.17 10.2
-8 2 2 288.97 9.8
-8 2 2 273.67 9.7
-8 2 2 248.28 18.2
-7 -2 2 86.59 5.8
7 -2 -2 93.49 6.2
-7 -2 2 96.79 5.2
7 -2 -2 79.39 5.1
7 -2 -2 78.99 11.1
-7 2 2 104.59 13
-7 2 2 79.19 4.9
-7 2 2 96.49 5.5
-7 2 2 80.19 5.2
6 -2 -2 276.17 16.2
6 -2 -2 289.67 10.1
-6 -2 2 264.17 9.6
-6 -2 2 286.67 9.2
6 -2 -2 275.07 10.4
6 2 -2 268.57 8.9
-6 2 2 263.37 15.9
-6 2 2 273.27 9.5
-6 2 2 278.67 9.1
-6 2 2 276.17 9
6 2 -2 264.17 9
-5 -2 2 1591.34 40.3
5 -2 -2 1622.14 39.8
5 -2 -2 1614.14 40.7
-5 -2 2 1563.24 41.2
-5 -2 2 1593.64 39.7
5 -2 -2 1611.04 47.8
-5 2 2 1589.44 40.3
5 2 -2 1532.45 41.5
-5 2 2 1601.04 39.8
5 2 -2 1511.15 38.3
-5 2 2 1603.34 47.4
5 2 -2 1606.94 38.3
-5 2 2 1623.54 40
4 -2 -2 4179.98 99.59
-4 -2 2 4058.69 98.49
-4 -2 2 4196.98 99.29
4 -2 -2 4196.48 98.89
-4 -2 2 4245.08 101.49
4 -2 -2 3975 97.29
4 2 -2 4144.39 101.99
4 2 -2 4102.09 98.79
-4 2 2 3950.5 98.69
4 2 -2 4111.49 97.69
-4 2 2 4074.49 98.99
-4 2 2 3988.3 99.19
-3 -2 2 126.29 4.4
-3 -2 2 136.49 5.4
3 -2 -2 123.79 5.6
-3 -2 2 127.09 4.2
3 -2 -2 128.59 5.1
3 -2 -2 122.99 3.8
-3 -2 2 136.39 7.5
-3 -2 2 130.29 4.5
3 -2 -2 131.99 5.5
3 2 -2 134.19 4.3
3 2 -2 130.99 4.5
3 2 -2 124.09 7.7
-3 2 2 139.89 5
3 2 -2 128.69 4.4
-3 2 2 130.29 5.7
-3 2 2 122.09 4.9
-3 2 2 114.69 9.4
-3 2 2 135.49 5.3
2 -2 -2 341.07 9.6
-2 -2 2 322.57 9
2 -2 -2 332.07 9.9
2 -2 -2 333.07 9.5
2 -2 -2 320.67 14.6
-2 -2 2 316.87 9.6
-2 -2 2 330.57 12.7
2 -2 -2 324.17 8.6
-2 -2 2 327.67 8.9
-2 2 2 312.57 9.6
-2 2 2 328.57 9.6
-2 2 2 304.57 14.1
2 2 -2 340.47 9
-2 2 2 323.27 9.5
2 2 -2 319.27 13.3
2 2 -2 332.27 9.1
-2 2 2 320.37 10
2 2 -2 332.57 8.9
1 -2 -2 10 1.4
1 -2 -2 10.1 1.6
1 -2 -2 7 1.4
1 -2 -2 15.1 1.8
-1 -2 2 10.7 1.5
-1 -2 2 10.2 3.8
-1 -2 2 8 1.2
1 -2 -2 21.7 4.8
-1 -2 2 8.6 1.2
1 2 -2 6.9 1.1
-1 2 2 6.5 1.2
-1 2 2 7.6 4.2
-1 2 2 7.9 1.2
1 2 -2 12.6 1.5
1 2 -2 9.4 1.4
1 2 -2 11.1 4.1
-1 2 2 10.5 1.5
0 -2 -2 587.74 20.7
0 -2 2 603.54 15.6
0 -2 2 577.14 20.1
0 -2 -2 591.54 15.9
0 -2 -2 594.94 15.6
0 -2 2 601.54 15.4
0 -2 2 585.04 15.4
0 -2 -2 570.34 15.7
0 2 -2 540.35 15.6
0 2 -2 577.04 15.4
0 2 -2 595.54 15.4
0 2 2 605.44 15.6
0 2 -2 591.74 15.3
0 2 -2 621.64 21.4
0 2 2 579.84 20.7
0 2 2 572.94 15.7
0 2 2 583.04 15.4
0 2 2 583.64 15.5
-1 -2 -2 468.25 17.5
1 -2 2 448.56 12.4
1 -2 2 441.66 17.5
1 -2 2 456.25 12.5
1 -2 2 468.25 12.5
-1 -2 -2 452.75 12.5
-1 -2 -2 451.45 12.8
-1 -2 -2 456.75 12.4
1 2 2 468.05 12.5
-1 2 -2 446.16 18.1
-1 2 -2 447.06 12.5
-1 2 -2 460.75 12.3
1 2 2 468.05 12.7
-1 2 -2 448.06 12.7
1 2 2 435.46 17
1 2 2 465.35 12.2
1 2 2 477.65 12.5
-2 -2 -2 3516.75 87.39
2 -2 2 3345.87 81.29
-2 -2 -2 3326.97 81.69
2 -2 2 3462.45 81.49
2 -2 2 3499.05 88.59
2 -2 2 3337.07 81.39
-2 -2 -2 3399.36 81.29
-2 -2 -2 3414.56 81.19
2 2 2 3024.9 81.29
-2 2 -2 3403.46 81.59
-2 2 -2 3344.17 81.19
2 2 2 3259.47 81.09
2 2 2 3338.67 81.29
2 2 2 3493.15 86.99
2 2 2 3441.46 81.69
-2 2 -2 3238.88 81.59
-2 2 -2 3637.74 89.99
-2 2 -2 3271.97 81.29
-3 -2 -2 53.09 2.7
3 -2 2 46.5 3.1
3 -2 2 48.4 7.6
3 -2 2 54.09 3.2
-3 -2 -2 55.39 6.9
3 -2 2 57.99 3.3
-3 -2 -2 52.49 2.9
-3 -2 -2 51.99 3.3
3 2 2 52.29 6.8
-3 2 -2 49.3 2.9
-3 2 -2 56.39 2.9
-3 2 -2 59.89 3.3
3 2 2 53.19 3.4
3 2 2 55.89 4
3 2 2 53.99 2.8
-3 2 -2 54.49 7.7
-3 2 -2 53.49 3.4
-4 -2 -2 346.77 9.5
-4 -2 -2 351.26 9.8
4 -2 2 341.47 10.3
4 -2 2 324.57 10
-4 -2 -2 346.37 15
4 -2 2 349.57 10.3
-4 -2 -2 329.57 10.6
4 2 2 334.07 14.5
4 2 2 345.17 9.9
-4 2 -2 342.37 9.9
-4 2 -2 337.27 10.6
-4 2 -2 351.26 17.6
4 2 2 351.26 11
-4 2 -2 330.17 10
-4 2 -2 343.47 10.4
4 2 2 338.97 9.6
-5 -2 -2 216.18 6.9
5 -2 2 223.68 7.3
5 -2 2 269.57 10.7
5 -2 2 187.48 8.1
-5 -2 -2 227.18 8.2
-5 -2 -2 228.88 6.6
-5 2 -2 214.38 7.9
-5 2 -2 207.08 7.3
-5 2 -2 211.38 19.4
5 2 2 213.58 7.1
-5 2 -2 218.68 7.3
5 2 2 227.88 12.7
5 2 2 219.18 6.8
-5 2 -2 223.88 7.7
5 2 2 217.78 12.3
5 2 2 220.08 8.7
6 -2 2 309.47 18.3
-6 -2 -2 311.27 9.2
6 -2 2 306.67 10
-6 -2 -2 311.17 8.7
6 -2 2 305.57 10.2
-6 -2 -2 315.97 11
6 2 2 302.57 9.4
-6 2 -2 312.67 9.6
6 2 2 316.87 9
6 2 2 293.47 15.5
-6 2 -2 324.07 10.3
-6 2 -2 321.37 9.8
-6 2 -2 326.47 10.6
6 2 2 303.27 14.8
-6 2 -2 299.77 19.3
7 -2 2 255.27 18.3
7 -2 2 272.47 9.7
-7 -2 -2 250.27 7.5
-7 -2 -2 269.57 10.4
-7 -2 -2 258.87 8
7 -2 2 269.47 9.4
-7 -2 -2 284.37 8.3
-7 2 -2 281.27 9.7
7 2 2 273.57 8.5
-7 2 -2 274.87 9.2
-7 2 -2 269.57 9.9
-7 2 -2 277.77 8.9
7 2 2 260.57 13.9
7 2 2 264.17 15.5
-7 2 -2 255.27 19.3
-8 -2 -2 29.4 2.8
-8 -2 -2 42.1 5
-8 -2 -2 37.8 3.3
8 -2 2 44.1 11
8 -2 2 38.5 4.7
8 -2 2 39.5 4.2
-8 -2 -2 39 2.4
-8 2 -2 38.4 4.3
-8 2 -2 10.1 11.3
8 2 2 40.4 2.8
8 2 2 40 8
-8 2 -2 41.5 4.7
-8 2 -2 42.4 4.5
-8 2 -2 40.9 3.8
9 -2 2 60.19 14.6
-9 -2 -2 66.19 7.5
-9 -2 -2 71.09 3.9
9 -2 2 83.59 6.4
9 2 2 73.79 10.3
-9 2 -2 87.79 6.5
-9 2 -2 73.09 4.7
-9 2 -2 74.89 6
-9 2 -2 76.99 6.1
9 2 2 75.79 8.9
9 2 2 79.49 3.4
-9 2 -2 79.99 14.7
-10 -2 -2 169.68 18
-10 -2 -2 159.28 5.7
10 -2 2 174.98 8.8
10 2 2 184.68 10.1
-10 2 -2 165.98 8.5
-10 2 -2 172.78 8.7
-10 2 -2 180.98 7.1
-10 2 -2 185.98 9.2
-11 -2 -2 26.7 6.5
-11 2 -2 30 5.5
-11 -3 2 40.7 5.4
-11 -3 2 41.7 7.2
-11 -3 2 31.8 6.6
-11 3 2 41.7 5.8
-11 3 2 48.8 6.1
-10 -3 2 40.5 5.7
-10 -3 2 37.8 5.1
-10 -3 2 41.5 4.4
-10 -3 2 40.8 7.5
-10 3 2 34.3 5.1
-10 3 2 39.5 5.2
-9 -3 2 13.1 3.6
9 -3 -2 10.6 5.2
-9 -3 2 11.8 4.1
-9 3 2 14 15.9
-9 3 2 9.5 3.5
-9 3 2 12.5 4.1
-9 3 2 10.8 4
8 -3 -2 100.69 16.6
-8 -3 2 93.59 6.7
-8 -3 2 84.59 7.5
8 -3 -2 116.19 9.1
-8 3 2 91.59 6.8
-8 3 2 91.59 14.9
-8 3 2 94.09 6.6
-7 -3 2 512.55 15.7
7 -3 -2 531.75 17.4
7 -3 -2 488.15 16
-7 -3 2 507.15 16.8
7 -3 -2 504.85 27.6
7 3 -2 516.55 18.6
-7 3 2 547.25 16.1
7 3 -2 511.65 13.4
-7 3 2 526.45 27.2
7 3 -2 547.35 13.4
-7 3 2 533.05 16.5
-7 3 2 522.85 17.7
7 3 -2 514.25 19.1
6 -3 -2 299.47 11.6
-6 -3 2 288.77 13.7
-6 -3 2 307.27 10.3
6 -3 -2 290.17 10.7
6 -3 -2 272.57 21.6
-6 -3 2 299.27 11.4
-6 3 2 297.07 10.9
6 3 -2 311.97 15.8
-6 3 2 302.77 10.6
6 3 -2 304.37 8.8
-6 3 2 314.47 11
-6 3 2 313.47 21
5 -3 -2 305.47 11.4
-5 -3 2 303.97 9.9
5 -3 -2 315.27 10.7
-5 -3 2 310.87 14.6
-5 -3 2 305.77 11.1
5 -3 -2 300.77 8.5
-5 3 2 316.87 10.9
-5 3 2 316.07 10.7
5 3 -2 299.87 15.9
-5 3 2 310.57 10.6
5 3 -2 312.17 10.3
5 3 -2 317.07 9.2
-5 3 2 306.87 19.8
5 3 -2 342.77 9.5
-4 -3 2 922.31 24.1
4 -3 -2 943.61 25.3
4 -3 -2 1034.5 28
4 -3 -2 924.21 23.7
-4 -3 2 961.4 24.6
-4 -3 2 962.6 24.7
-4 -3 2 921.91 24.7
-4 -3 2 933.51 25.8
-4 -3 2 966.3 30.2
4 -3 -2 955.6 25.3
4 -3 -2 865.51 33.9
-4 3 2 974.1 26.5
4 3 -2 975.7 24.8
-4 3 2 982.6 25.6
4 3 -2 971.9 24.2
4 3 -2 949.6 24.5
4 3 -2 927.21 31.2
-4 3 2 921.11 25.3
-4 3 2 881.71 33.7
-4 3 2 925.81 25.5
-3 -3 2 311.47 9.5
3 -3 -2 303.37 9.9
-3 -3 2 310.87 14.6
3 -3 -2 297.27 9.9
3 -3 -2 301.37 17.2
-3 -3 2 308.77 9.6
3 -3 -2 323.87 10.6
-3 -3 2 302.37 9
-3 -3 2 303.27 10.2
-3 -3 2 302.77 9.4
3 3 -2 292.17 9.1
-3 3 2 308.57 10.8
-3 3 2 284.07 9.8
-3 3 2 310.97 10.1
-3 3 2 304.07 10.1
3 3 -2 288.57 16.4
3 3 -2 314.57 9.5
3 3 -2 310.17 9.3
-2 -3 2 159.18 6
-2 -3 2 167.48 6.5
2 -3 -2 152.58 6.1
2 -3 -2 156.38 5.5
2 -3 -2 160.18 6.8
-2 -3 2 161.78 6.1
-2 -3 2 153.18 5.8
-2 -3 2 153.88 5.6
-2 -3 2 157.98 11
2 -3 -2 157.38 13.2
2 -3 -2 162.78 6.4
2 3 -2 161.68 5.8
2 3 -2 165.58 5.7
2 3 -2 152.38 12.1
-2 3 2 163.98 12.8
-2 3 2 165.68 7
-2 3 2 151.48 6.2
-2 3 2 155.98 6.3
-1 -3 2 1521.75 37.5
1 -3 -2 1478.05 37.7
1 -3 -2 1472.35 38.3
-1 -3 2 1475.35 44.2
1 -3 -2 1408.76 38
1 -3 -2 1548.55 46.5
-1 -3 2 1442.16 37.3
1 -3 -2 1520.15 37.7
1 -3 -2 1503.35 37
-1 -3 2 1506.65 37.8
-1 -3 2 1505.25 37.2
-1 3 2 1487.15 37.7
1 3 -2 1540.55 37.2
-1 3 2 1437.06 37.5
-1 3 2 1490.25 46.1
-1 3 2 1481.25 38
1 3 -2 1439.56 45.5
1 3 -2 1490.95 37.3
-1 3 2 1484.55 37.6
1 3 -2 1507.15 37.7
0 -3 2 519.65 14.5
0 -3 -2 491.25 14.4
0 -3 -2 506.55 21.5
0 -3 2 509.15 14.2
0 -3 2 524.65 14.5
0 -3 2 523.35 21.1
0 -3 -2 505.85 14.8
0 -3 -2 510.75 14
0 -3 -2 486.65 14.9
0 3 -2 502.25 14.6
0 3 -2 497.15 14.3
0 3 2 537.05 14.8
0 3 2 509.05 14.5
0 3 2 504.15 14.2
0 3 2 515.85 14.5
0 3 2 481.95 21.3
0 3 -2 501.95 14.2
0 3 -2 508.15 22.3
0 3 -2 503.85 14.1
1 -3 2 6.4 1.7
1 -3 2 9.3 5.8
-1 -3 -2 1.9 5.3
-1 -3 -2 7.7 1.9
-1 -3 -2 5.5 1.8
1 -3 2 6.6 1.8
1 -3 2 15.1 2.5
-1 -3 -2 9.2 2.1
1 3 2 8.7 6.2
-1 3 -2 9.2 2.3
1 3 2 7.9 1.9
-1 3 -2 8.9 6.7
1 3 2 7.2 1.7
1 3 2 6.4 1.7
1 3 2 8.8 2
-1 3 -2 8.2 2.1
-1 3 -2 5.8 1.8
-1 3 -2 8 1.6
2 -3 2 1782.92 44.3
2 -3 2 1808.12 44.5
-2 -3 -2 1769.62 52.19
-2 -3 -2 1713.63 44.9
2 -3 2 1801.02 44.8
-2 -3 -2 1806.92 44.5
-2 -3 -2 1827.92 44.5
2 -3 2 1800.12 53.49
-2 3 -2 1777.32 44.9
2 3 2 1738.93 44.6
2 3 2 1791.52 44.3
-2 3 -2 1735.83 54.39
2 3 2 1769.22 44
2 3 2 1699.43 51.79
-2 3 -2 1789.52 44.6
-2 3 -2 1760.02 44.5
-2 3 -2 1792.32 45
2 3 2 1787.52 44.2
-3 -3 -2 55.29 8.3
-3 -3 -2 52.79 4.2
-3 -3 -2 50.29 3.6
3 -3 2 55.29 3.9
3 -3 2 52.89 3.6
3 -3 2 59.79 9.7
3 -3 2 51.09 4.3
-3 -3 -2 56.09 4.1
-3 3 -2 52.49 3.3
3 3 2 52.49 3.7
3 3 2 57.19 9.6
-3 3 -2 68.29 11
-3 3 -2 47.2 3.7
3 3 2 56.79 4.4
3 3 2 55.89 4
-3 3 -2 53.39 3.7
-3 3 -2 50.39 4
4 -3 2 492.55 14.3
-4 -3 -2 504.25 21.5
-4 -3 -2 489.95 15
-4 -3 -2 508.35 14.2
4 -3 2 497.75 15
4 -3 2 494.75 23.5
4 -3 2 498.65 14.7
4 3 2 525.75 14.6
-4 3 -2 524.95 15
4 3 2 518.65 15.2
-4 3 -2 476.85 15.1
4 3 2 482.25 21.2
4 3 2 512.15 14.1
-4 3 -2 492.15 14.5
-4 3 -2 459.55 14.7
-4 3 -2 484.05 24.5
-5 -3 -2 164.18 13.6
5 -3 2 156.88 6.3
5 -3 2 171.08 17.2
5 -3 2 154.28 6.9
-5 -3 -2 152.08 6.1
5 -3 2 164.38 7.3
-5 -3 -2 151.28 7.1
-5 -3 -2 142.79 7.3
-5 3 -2 163.58 7.1
-5 3 -2 145.29 16.5
5 3 2 141.99 5.8
-5 3 -2 148.19 6.5
5 3 2 154.78 6.4
5 3 2 160.38 7.6
5 3 2 127.59 12.5
-5 3 -2 153.88 7.1
6 -3 2 196.98 8.6
-6 -3 -2 224.28 9.2
-6 -3 -2 219.78 7.6
6 -3 2 212.58 7.6
6 -3 2 221.18 9.2
-6 -3 -2 215.18 7.5
-6 3 -2 204.88 8.9
6 3 2 216.18 7.2
-6 3 -2 212.68 7.6
-6 3 -2 244.68 20.2
6 3 2 218.18 10
6 3 2 191.08 14.1
6 3 2 208.48 7.9
-6 3 -2 205.78 8.6
-6 3 -2 205.68 8.1
6 3 2 198.58 15.9
-7 -3 -2 296.37 9.4
-7 -3 -2 301.57 11.8
7 -3 2 308.47 11.6
-7 -3 -2 300.77 9.7
7 -3 2 297.87 25
7 3 2 303.37 18.5
7 3 2 314.87 12.7
7 3 2 288.57 10
-7 3 -2 302.97 11.1
-7 3 -2 305.27 10.6
-7 3 -2 296.47 9.8
7 3 2 316.27 9.4
-7 3 -2 303.17 11.6
7 3 2 324.87 17.9
-7 3 -2 314.57 26.4
8 -3 2 45.7 5.3
8 -3 2 12.1 13
-8 -3 -2 45.5 4.1
-8 -3 -2 38.3 3.7
-8 -3 -2 35.4 5.1
-8 3 -2 45.3 5.2
-8 3 -2 52.89 4.6
8 3 2 45.6 9.9
-8 3 -2 43.6 4.8
-8 3 -2 60.89 16.7
8 3 2 33.8 10.9
8 3 2 41.3 3.8
-8 3 -2 41.1 4.8
-9 -3 -2 48.9 3.9
-9 -3 -2 43.1 4
9 -3 2 61.29 6.6
-9 -3 -2 49.6 6.2
-9 -3 -2 51.19 5.2
9 3 2 61.29 12
9 3 2 47 4.5
-9 3 -2 58.59 5.7
9 3 2 54.19 3.8
-9 3 -2 44 5.4
-9 3 -2 48.5 5.4
-10 -3 -2 45.3 7.1
-10 -3 -2 37.1 3.6
-10 3 -2 34.3 5.7
10 3 2 28.5 11.2
-10 3 -2 29.1 4.2
-11 -3 -2 35.1 7.7
-11 3 -2 12.3 5.9
-10 -4 2 5.3 6
-10 -4 2 -5.1 4.7
-10 4 2 5.6 5
-10 4 2 11.3 5.4
-9 -4 2 29.1 4.8
-9 -4 2 33.6 6.8
-9 -4 2 32 4.8
-9 4 2 17.9 8.2
-9 4 2 29.2 5.5
-9 4 2 31.1 5.4
-8 -4 2 33.9 4.2
-8 -4 2 29.3 4.4
-8 -4 2 26.3 8.7
8 4 -2 31.6 9.7
8 4 -2 31.3 2.9
8 4 -2 27.2 3
-8 4 2 30.3 4.9
-8 4 2 21.7 5.4
-8 4 2 31.1 5.7
-7 -4 2 179.28 8.7
-7 -4 2 183.48 15
-7 -4 2 187.18 8.2
-7 -4 2 195.18 10.4
7 4 -2 187.78 19.3
7 4 -2 176.08 7.2
-7 4 2 231.88 29.1
-7 4 2 197.68 9.5
-7 4 2 181.18 9.2
-7 4 2 181.28 9.7
-6 -4 2 6 2.8
-6 -4 2 3.9 2.7
-6 -4 2 5.5 3.9
6 -4 -2 3.2 4.2
6 -4 -2 6.1 1.9
6 -4 -2 13.6 13.5
-6 -4 2 -3.3 7.5
-6 4 2 0.1 3.6
-6 4 2 7.3 3.1
6 4 -2 5.6 2.5
-6 4 2 21.9 14
6 4 -2 9 2.5
6 4 -2 3.2 3.5
6 4 -2 0.6 9.6
-6 4 2 1.4 3.1
5 -4 -2 8.3 3.9
-5 -4 2 3.5 3.3
-5 -4 2 2.6 2.4
-5 -4 2 4.6 2.3
5 -4 -2 1.8 2.1
5 -4 -2 17.7 11.7
5 4 -2 4.7 2.7
-5 4 2 2.5 3
-5 4 2 0.3 2.4
-5 4 2 8.6 3.1
-5 4 2 -1.8 10.8
5 4 -2 3.1 2.4
5 4 -2 1.5 9.8
5 4 -2 4 2.3
4 -4 -2 300.97 22.7
-4 -4 2 292.57 11.2
-4 -4 2 286.97 10.2
4 -4 -2 276.37 10.6
4 -4 -2 282.07 11.6
-4 -4 2 289.17 10.1
4 -4 -2 275.57 9
-4 -4 2 286.57 9.5
4 -4 -2 294.47 10.8
-4 4 2 295.07 12
4 4 -2 298.37 19.9
-4 4 2 301.77 10.8
-4 4 2 277.17 10.9
-4 4 2 291.47 10.8
4 4 -2 299.37 10.1
4 4 -2 284.37 9.6
-4 4 2 314.97 22.3
3 -4 -2 800.52 22.6
-3 -4 2 809.72 22.1
-3 -4 2 810.22 22.3
-3 -4 2 810.72 22.9
3 -4 -2 786.72 23.4
3 -4 -2 801.12 34.1
-3 -4 2 781.52 22
3 -4 -2 814.32 21.2
3 -4 -2 809.12 22.7
-3 -4 2 784.82 21.5
-3 -4 2 807.42 30.1
3 4 -2 769.72 21.6
3 4 -2 814.02 21.7
-3 4 2 827.22 34.5
-3 4 2 795.02 23.6
-3 4 2 786.92 22.7
-3 4 2 786.72 22.6
3 4 -2 765.42 31.9
3 4 -2 798.92 22.2
-3 4 2 796.02 22.5
2 -4 -2 120.69 15.3
-2 -4 2 103.49 5.6
2 -4 -2 99.39 4.9
-2 -4 2 97.89 12.7
-2 -4 2 104.69 6.4
2 -4 -2 97.09 5.9
-2 -4 2 89.89 5.7
2 -4 -2 95.59 6.3
-2 -4 2 93.79 5.6
2 -4 -2 96.89 5.9
2 4 -2 106.79 5.1
2 4 -2 96.19 5.6
-2 4 2 99.79 13.6
-2 4 2 101.79 5.9
2 4 -2 116.29 14.9
-2 4 2 106.19 6.5
2 4 -2 92.19 5.3
-2 4 2 96.29 5.6
-2 4 2 109.09 6.1
1 -4 -2 609.64 18.7
1 -4 -2 610.64 27.8
-1 -4 2 617.44 18.2
1 -4 -2 613.74 17.3
-1 -4 2 612.04 30.3
-1 -4 2 626.14 18
-1 -4 2 623.34 17.4
1 -4 -2 607.94 18.1
-1 4 2 609.94 18
1 4 -2 563.94 28.5
-1 4 2 623.84 18.1
-1 4 2 637.84 29.3
1 4 -2 608.04 17.6
-1 4 2 612.64 17.8
1 4 -2 629.84 18.2
-1 4 2 614.74 18.5
1 4 -2 646.34 17.6
0 -4 -2 254.97 9.4
0 -4 -2 257.77 10
0 -4 2 265.67 9.6
0 -4 -2 236.38 9.1
0 -4 2 263.37 18.3
0 -4 -2 252.97 8.9
0 -4 2 240.58 9
0 -4 -2 258.77 10
0 -4 -2 274.97 18.3
0 -4 2 245.88 9.5
0 4 2 252.87 9
0 4 -2 265.87 9.6
0 4 -2 271.57 9.4
0 4 2 252.07 9.4
0 4 -2 247.88 9.1
0 4 2 252.57 9.3
0 4 2 254.47 19.1
0 4 -2 250.57 20.1
0 4 2 261.67 9.8
1 -4 2 890.61 24.2
-1 -4 -2 858.01 24.9
1 -4 2 854.81 33.7
-1 -4 -2 903.31 24.2
-1 -4 -2 900.51 34.1
1 -4 2 946.11 26.4
-1 -4 -2 885.71 24.3
-1 -4 -2 881.31 24.8
1 -4 2 899.11 24.7
-1 4 -2 879.21 24.5
1 4 2 868.91 24.7
1 4 2 895.21 24.3
1 4 2 935.31 48.5
1 4 2 831.22 24.1
-1 4 -2 860.11 24.2
-1 4 -2 879.11 24.7
-1 4 -2 893.21 23.7
1 4 2 936.31 24.1
-1 4 -2 886.61 36.8
2 -4 2 -0.1 2.3
2 -4 2 2.3 2
-2 -4 -2 4 2.5
2 -4 2 0.7 2.9
-2 -4 -2 1.3 2
-2 -4 -2 -1.8 2.1
2 -4 2 3.5 9.1
-2 -4 -2 0.4 8
-2 -4 -2 0.4 2.3
2 4 2 1.6 2.4
-2 4 -2 -1.1 2.3
-2 4 -2 3.7 2.1
2 4 2 -3.8 8.8
2 4 2 1.4 2.2
-2 4 -2 2.4 2.6
2 4 2 -0.3 2.1
-2 4 -2 -7 11.4
-2 4 -2 1.7 2.3
-3 -4 -2 781.82 31.4
3 -4 2 766.12 32.4
3 -4 2 767.82 21
-3 -4 -2 753.62 22
3 -4 2 747.13 22
3 -4 2 718.23 21.2
-3 -4 -2 743.13 21.1
3 4 2 809.72 21.1
3 4 2 690.73 30.1
-3 4 -2 743.63 22
3 4 2 760.52 21.6
-3 4 -2 760.82 21.4
3 4 2 774.82 21.1
-3 4 -2 733.83 22.2
-3 4 -2 739.83 34.1
-3 4 -2 754.12 21.6
-3 4 -2 739.03 20.4
4 -4 2 4.3 3
4 -4 2 6.4 2.5
-4 -4 -2 15.1 9.4
-4 -4 -2 6.4 2.9
4 -4 2 15.7 11.1
4 -4 2 1.1 3.2
-4 -4 -2 1.2 2.1
-4 4 -2 8.4 13.5
4 4 2 3.8 3.2
-4 4 -2 10 4
4 4 2 0.5 8.6
-4 4 -2 2.2 2.7
4 4 2 0.4 2.5
4 4 2 5.3 2.2
-4 4 -2 -2.1 2.7
-4 4 -2 0.7 2.8
-4 4 -2 3.3 2
-5 -4 -2 223.78 10.1
5 -4 2 216.88 21.5
-5 -4 -2 229.58 8.7
5 -4 2 205.18 9.9
5 -4 2 229.48 8.7
-5 -4 -2 217.48 9.8
5 4 2 236.48 18
-5 4 -2 225.58 9.9
5 4 2 234.48 8.6
5 4 2 216.18 8.9
-5 4 -2 217.98 22.5
5 4 2 221.28 10
-5 4 -2 224.98 9.7
-5 4 -2 221.98 8.1
-5 4 -2 214.28 9.1
6 -4 2 45 14.7
-6 -4 -2 39.2 4.2
6 -4 2 39.3 4.1
6 -4 2 33.5 5.2
-6 -4 -2 45.3 4.4
-6 -4 -2 44.4 5.3
-6 4 -2 36 3.5
6 4 2 46 11.6
6 4 2 43 5.6
-6 4 -2 37.4 4.8
-6 4 -2 38 4.6
-6 4 -2 35.1 4.9
6 4 2 39.7 4.3
6 4 2 37.7 3.9
-6 4 -2 30.7 15.8
-7 -4 -2 96.09 8.1
7 -4 2 84.19 5.7
7 -4 2 92.69 23.3
7 -4 2 88.49 8.5
-7 -4 -2 80.89 6
-7 -4 -2 91.29 5.6
-7 4 -2 84.19 7.5
-7 4 -2 67.89 7.8
-7 4 -2 83.79 20.2
-7 4 -2 83.09 5.4
7 4 2 83.89 6.4
-7 4 -2 101.09 6.8
7 4 2 83.49 13.8
7 4 2 91.09 5.6
-8 -4 -2 1.6 4.1
-8 -4 -2 -0.1 3.4
-8 -4 -2 1.2 2.9
-8 4 -2 1.3 4.5
8 4 2 -8.8 12.8
-8 4 -2 3.3 4.8
-8 4 -2 -1.6 3.4
8 4 2 3.8 3
-8 4 -2 1.8 3
8 4 2 3.8 6.2
-9 -4 -2 76.09 8.8
-9 -4 -2 57.69 5.5
-9 4 -2 70.19 7.9
-9 4 -2 87.09 7.6
-10 -4 -2 5.4 6.5
-10 -4 -2 9 6.6
-10 -4 -2 5.5 2.9
-10 4 -2 2.5 5.7
-9 -5 2 4.3 5.2
-9 -5 2 8.9 7.4
-9 5 2 11 6
-9 5 2 2.1 5.9
-8 -5 2 56.39 8
-8 -5 2 43.2 5.9
-8 5 2 39 6.6
-8 5 2 42 6.1
-7 -5 2 2.5 5.8
-7 -5 2 4.2 4.1
-7 5 2 0.5 4.5
7 5 -2 -0.6 4.7
7 5 -2 -2.4 3.4
-7 5 2 1.9 5.7
-7 5 2 -2.8 4.2
-6 -5 2 76.59 7.5
-6 -5 2 82.39 9.4
6 -5 -2 74.29 5.6
-6 5 2 73.69 8.8
6 5 -2 85.39 8
6 5 -2 88.19 7
-6 5 2 88.69 7.7
-6 5 2 78.59 8.2
-5 -5 2 5.8 4.9
5 -5 -2 -18.1 16.2
-5 -5 2 8.6 4
5 -5 -2 1.4 2.5
5 5 -2 2.9 3.5
-5 5 2 34.8 17.4
-5 5 2 2.9 4.6
-5 5 2 9.5 4
-5 5 2 2.3 3.9
5 5 -2 -15.5 14.7
5 5 -2 6.3 3.6
-4 -5 2 92.19 8
-4 -5 2 93.19 8.2
4 -5 -2 83.79 18.2
-4 -5 2 89.79 6.2
-4 -5 2 75.19 6.7
4 -5 -2 81.19 7.2
4 -5 -2 78.69 5.5
-4 5 2 88.79 7.9
-4 5 2 100.49 7
4 5 -2 93.69 6.5
-4 5 2 75.59 18
4 5 -2 69.19 16.8
4 5 -2 87.59 6.7
-4 5 2 76.79 7.1
-3 -5 2 131.79 7.9
-3 -5 2 125.19 16.4
-3 -5 2 135.79 7.9
3 -5 -2 154.08 20.4
3 -5 -2 130.99 6.6
3 -5 -2 134.59 8.2
-3 -5 2 134.99 7.2
-3 -5 2 136.49 8.7
-3 5 2 142.79 8
3 5 -2 144.09 7.7
-3 5 2 133.19 8.2
-3 5 2 161.88 19.9
3 5 -2 151.58 20.2
-3 5 2 131.29 8.4
3 5 -2 135.09 7.4
-2 -5 2 106.89 7.4
2 -5 -2 110.79 6.4
-2 -5 2 107.89 6.8
-2 -5 2 116.69 7.8
-2 -5 2 115.19 6.5
2 -5 -2 100.09 6.8
2 -5 -2 103.19 7.1
-2 -5 2 106.69 15.6
2 -5 -2 116.19 17.9
2 5 -2 116.59 7
2 5 -2 133.89 19.4
2 5 -2 107.29 6.5
-2 5 2 99.99 7.4
-2 5 2 96.59 8.3
-2 5 2 109.49 6.9
-2 5 2 103.19 18
-2 5 2 99.59 7
-1 -5 2 129.29 7.1
1 -5 -2 128.79 7.8
1 -5 -2 126.39 7.7
-1 -5 2 136.19 8.1
1 -5 -2 120.09 7.2
-1 -5 2 116.59 7.6
-1 -5 2 146.89 19.1
-1 5 2 125.79 8.5
-1 5 2 130.29 7.1
-1 5 2 124.19 7.7
1 5 -2 137.29 8
1 5 -2 113.09 19.3
1 5 -2 139.89 7.5
-1 5 2 139.99 19.7
-1 5 2 131.69 7.6
0 -5 2 654.93 20.1
0 -5 -2 650.63 20.9
0 -5 -2 675.53 20.4
0 -5 -2 710.43 34
0 -5 2 699.63 32.6
0 -5 -2 684.93 19.7
0 -5 -2 644.54 20
0 -5 2 641.84 19.6
0 -5 -2 641.64 20.8
0 5 2 654.93 35.7
0 5 -2 678.83 37.1
0 5 2 673.03 20.6
0 5 2 688.53 19.8
0 5 -2 671.53 20.5
0 5 -2 643.44 19.8
0 5 2 664.13 20.3
-1 -5 -2 74.39 7.5
-1 -5 -2 77.39 6.2
-1 -5 -2 86.89 6.6
-1 -5 -2 89.39 7.4
-1 -5 -2 70.39 15.5
1 -5 2 91.49 15.8
1 -5 2 83.59 6.3
1 -5 2 83.29 6.7
-1 5 -2 92.59 7.1
1 5 2 87.19 6.3
1 5 2 89.59 6.7
-1 5 -2 75.19 18.2
-1 5 -2 85.09 7.1
-1 5 -2 67.29 6.3
1 5 2 81.09 16.7
2 -5 2 168.68 21.7
2 -5 2 170.18 8.2
-2 -5 -2 155.68 9
-2 -5 -2 187.68 21
-2 -5 -2 162.28 8.1
2 -5 2 142.39 7.9
-2 -5 -2 175.38 9.2
-2 -5 -2 167.48 8.3
-2 5 -2 149.49 8.3
2 5 2 154.78 7.8
-2 5 -2 172.28 8.9
-2 5 -2 165.08 9.6
2 5 2 149.19 8.4
2 5 2 172.18 20.5
-3 -5 -2 52.79 6.8
-3 -5 -2 49.8 5.5
3 -5 2 68.39 6.5
-3 -5 -2 54.49 6
-3 -5 -2 38.9 14.2
3 -5 2 60.69 16
-3 -5 -2 60.79 6
-3 5 -2 57.59 6.5
-3 5 -2 55.99 17.5
3 5 2 69.39 6.9
-3 5 -2 56.49 6.5
3 5 2 56.69 5.3
-3 5 -2 62.19 6.5
3 5 2 87.89 15.9
-4 -5 -2 222.08 10.3
-4 -5 -2 217.98 11
-4 -5 -2 228.38 10.7
4 -5 2 213.28 25.2
-4 -5 -2 223.18 9.7
4 -5 2 220.58 9.8
-4 5 -2 209.48 8.8
-4 5 -2 267.67 16.2
-4 5 -2 218.38 29.2
4 5 2 233.68 23.1
4 5 2 200.48 10.6
-4 5 -2 240.68 11.3
4 5 2 223.58 9.3
-5 -5 -2 0.2 4
5 -5 2 6.1 3.3
-5 -5 -2 -5.5 3.8
5 -5 2 -1.3 16.4
-5 -5 -2 6 12.9
-5 -5 -2 1 4.3
-5 -5 -2 0.1 3.2
-5 5 -2 3.7 3.2
5 5 2 -3.8 16.6
-5 5 -2 12.6 18.4
5 5 2 0.2 2.9
-5 5 -2 -4.5 3.8
-6 -5 -2 225.68 11.6
-6 -5 -2 252.37 12.6
6 -5 2 220.18 9.8
-6 -5 -2 229.28 10
-6 -5 -2 194.98 10.4
-6 5 -2 199.38 9.1
-6 5 -2 220.68 10.9
6 5 2 243.98 9.6
-6 5 -2 220.78 12.1
-7 -5 -2 9.4 5
7 -5 2 2.2 3.7
-7 -5 -2 -1.7 4.6
-7 -5 -2 9.7 5.5
-7 5 -2 8 5.8
-7 5 -2 7.1 3.8
-7 5 -2 3.1 5.6
-8 -5 -2 59.19 8.1
-8 -5 -2 71.29 8.6
-8 -5 -2 69.29 7.4
-8 5 -2 64.89 8.2
-7 -6 2 67.19 9.2
-7 -6 2 66.59 7.8
-7 6 2 65.99 8.2
-7 6 2 72.29 8
6 -6 -2 29.7 4.6
-6 -6 2 32.1 6.2
-6 -6 2 43.1 8.5
-6 6 2 28.6 7.2
-6 6 2 35.6 6.2
6 6 -2 34 7.4
-5 -6 2 137.59 12.1
-5 -6 2 139.29 9.7
5 -6 -2 137.29 8.3
-5 6 2 127.19 11.4
5 6 -2 125.79 9.7
5 6 -2 103.79 9.4
-5 6 2 120.69 9.6
-4 -6 2 8.4 6.1
4 -6 -2 4.9 4.1
-4 -6 2 5.3 4.4
4 6 -2 3.9 4.4
-4 6 2 12.4 6
4 6 -2 7.1 5.1
-4 6 2 4.7 4.6
-3 -6 2 138.19 11.5
-3 -6 2 115.19 9.2
3 -6 -2 165.58 25.4
3 -6 -2 133.49 10.3
3 -6 -2 128.89 8.1
-3 6 2 119.89 14.8
3 6 -2 133.29 9.3
3 6 -2 131.49 9.2
-3 6 2 128.79 9.3
-3 6 2 132.99 26
2 -6 -2 125.89 23.7
2 -6 -2 109.29 9.9
-2 -6 2 137.09 13.1
-2 -6 2 147.69 21.2
2 -6 -2 110.59 7.7
-2 -6 2 97.69 8.2
-2 6 2 113.29 8.7
2 6 -2 116.99 8.7
-2 6 2 90.89 21.9
-2 6 2 100.79 9.5
2 6 -2 130.99 26.4
2 6 -2 104.19 8.5
-1 -6 2 168.08 10
-1 -6 2 191.68 11.3
1 -6 -2 170.88 9.7
1 -6 -2 200.18 26.5
1 -6 -2 191.78 12.5
1 6 -2 179.58 10.4
-1 6 2 180.78 26.8
-1 6 2 188.08 10.5
1 6 -2 171.48 25.9
1 6 -2 180.78 10.1
0 -6 -2 49.5 6.1
0 -6 2 64.49 18.5
0 -6 -2 71.79 19.5
0 -6 2 50.19 6.5
0 6 2 -3.2 19.2
0 6 -2 36.1 21.5
0 6 2 60.19 6.7
0 6 -2 54.89 7.4
0 6 -2 47.3 6.2
-1 -6 -2 110.09 8.8
-1 -6 -2 105.99 9.6
1 -6 2 116.79 22.7
1 -6 2 115.39 9.2
-1 -6 -2 8.9 28.2
-1 -6 -2 116.59 9.8
1 6 2 97.39 21.8
-1 6 -2 123.89 9.6
1 6 2 108.19 8.2
-1 6 -2 101.59 24.2
2 -6 2 13.2 5
2 -6 2 -11.8 33.6
-2 -6 -2 11.7 5.8
-2 -6 -2 7.2 4.7
-2 -6 -2 15.2 5.5
-2 -6 -2 39.8 19.5
2 6 2 -14.8 17.3
-2 6 -2 10.6 22.3
2 6 2 12.2 4.3
-2 6 -2 4.8 4.8
3 -6 2 160.98 10.1
-3 -6 -2 167.98 10.4
-3 -6 -2 187.98 12.1
-3 -6 -2 174.68 11.8
3 -6 2 139.49 25.3
3 6 2 192.08 10
-3 6 -2 136.49 14.9
-3 6 -2 185.18 29.6
-4 -6 -2 6 6.3
4 -6 2 15.5 5
-4 -6 -2 5.1 5.1
-4 -6 -2 18.8 6.2
-4 6 -2 10.3 5.6
4 6 2 15.5 4.4
-4 6 -2 9.9 42.3
5 -6 2 98.69 8.8
-5 -6 -2 115.39 9.2
-5 -6 -2 129.19 11.7
-5 -6 -2 87.89 11.8
5 6 2 107.49 8.1
-5 6 -2 110.49 11.5
-6 -6 -2 -2.6 6.7
6 -6 2 -1 4.6
-6 -6 -2 -6 4.3
-6 -6 -2 1 6.8
6 6 2 1.6 4.7
-6 6 -2 -4.5 6.2
4 -7 -2 57.19 6.9
-4 -7 2 66.79 10
4 7 -2 62.69 8.4
-4 7 2 58.59 8.4
3 -7 -2 23.1 6.1
-3 -7 2 16.3 8.1
3 7 -2 32.1 7
-3 7 2 20.1 8.7
2 -7 -2 88.19 8.6
-2 -7 2 78.29 9.5
-2 7 2 110.19 13.5
2 7 -2 93.29 11.4
-1 -7 2 9.7 7.4
1 -7 -2 15.6 26.2
1 -7 -2 -4 6.6
1 -7 -2 -0.8 6.3
1 7 -2 -7.8 6.4
-1 7 2 6.3 6.8
-1 7 2 3.6 35.7
0 -7 2 27.3 7.8
0 -7 -2 29.5 6.8
0 -7 -2 22.9 7.1
0 7 -2 20.6 8.2
0 7 2 28.1 7.4
1 -7 2 44.5 39.1
-1 -7 -2 18.3 6.8
-1 -7 -2 19.7 6.8
1 -7 2 9.4 6.7
-1 7 -2 19.4 7.2
1 7 2 20.4 7.9
-2 -7 -2 33.6 8
2 -7 2 20.4 7.4
-2 -7 -2 30.2 7.1
-2 7 -2 38.8 8.9
2 7 2 43.5 7.3
3 -7 2 28.7 7.4
-3 -7 -2 42.5 8.9
-3 -7 -2 33.4 6.4
-3 -7 -2 10.3 7.8
3 7 2 29 6.8
-3 7 -2 23.3 8.7
-12 0 3 3.3 4.1
-12 0 3 0.3 3.7
-12 0 3 8.9 6.3
-11 0 3 182.18 11.3
-11 0 3 171.28 7.8
-11 0 3 166.18 8.5
-11 0 3 173.68 8.6
-10 0 3 3.2 2.9
-10 0 3 -1.7 3.7
-10 0 3 1.3 2.3
-9 0 3 308.77 10
-9 0 3 316.57 11.1
-8 0 3 -2.2 1.6
-8 0 3 -1.2 2.1
-7 0 3 274.17 8.5
-7 0 3 282.87 9.6
-6 0 3 0.6 0.6
-6 0 3 1.2 0.8
-6 0 3 -1.3 1.4
-6 0 3 -0.4 1.8
-6 0 3 -0.6 1.4
6 0 -3 0.7 1.8
-5 0 3 563.34 13.6
-5 0 3 551.44 15.1
-5 0 3 542.85 14.3
-5 0 3 537.75 15.3
5 0 -3 557.64 15.1
-4 0 3 1.7 0.6
-4 0 3 0 1.2
-4 0 3 -0.1 0.5
4 0 -3 0 1.6
4 0 -3 0.1 0.4
-4 0 3 -0.6 0.7
-3 0 3 49.6 2
3 0 -3 50.89 3.3
-3 0 3 47.9 3.2
-3 0 3 51.69 1.8
-2 0 3 -0.2 0.4
-2 0 3 0.5 0.7
-2 0 3 0.7 1.3
-2 0 3 1.1 1.4
2 0 -3 0.4 0.4
2 0 -3 0.2 0.4
-2 0 3 0.5 0.4
-1 0 3 4315.17 113.39
1 0 -3 5012.2 113.79
0 0 3 -0.2 0.4
0 0 3 0.3 0.4
0 0 -3 1 0.5
0 0 3 -1.9 1.5
0 0 -3 0.2 0.3
0 0 3 2.2 0.6
0 0 -3 -0.6 0.4
0 0 -3 -1.7 1.6
-1 0 -3 585.04 18.5
1 0 3 608.14 15
1 0 3 600.04 15.1
-1 0 -3 562.14 14.9
1 0 3 612.24 15
-1 0 -3 621.14 15.1
-1 0 -3 589.74 15.1
1 0 3 510.45 18
-2 0 -3 2.3 3.1
-2 0 -3 0.1 0.7
2 0 3 1.8 0.8
-3 0 -3 527.45 18.7
3 0 3 511.35 18.5
3 0 3 554.34 14.2
-3 0 -3 521.35 14.6
-3 0 -3 544.15 14.4
-3 0 -3 537.95 14.2
4 0 3 2 1
-4 0 -3 -0.2 1
-4 0 -3 -1.5 1.1
-4 0 -3 4.9 3.7
4 0 3 -2.7 3.5
-4 0 -3 1.6 1.3
5 0 3 1094.19 26.6
5 0 3 1020.9 32.9
-5 0 -3 1061.29 27.9
-5 0 -3 1035.8 32.8
-5 0 -3 1040.3 26.6
-5 0 -3 1006.7 27.3
-6 0 -3 2.3 1.6
-6 0 -3 2.2 1.9
6 0 3 2.1 1.7
6 0 3 1.5 5.5
-6 0 -3 2.5 4.8
-6 0 -3 1.4 1.9
7 0 3 613.34 24.3
-7 0 -3 583.34 16.3
-7 0 -3 597.04 23.6
-7 0 -3 574.64 18.2
-7 0 -3 574.04 17.3
-8 0 -3 1.2 3
-8 0 -3 -3.8 7
8 0 3 9.4 7.8
8 0 3 1 2.2
-8 0 -3 0.5 2.9
-8 0 -3 -0.1 2.1
-9 0 -3 71.49 10.6
9 0 3 81.19 5.2
-9 0 -3 75.09 5
-9 0 -3 90.09 7.7
-9 0 -3 71.29 7.3
9 0 3 68.39 11
-10 0 -3 -0.6 2.5
10 0 3 0.1 2.9
-10 0 -3 -4.9 5
-10 0 -3 5 2.7
10 0 3 -25.4 10.5
-10 0 -3 -2.7 4.9
-11 0 -3 41.7 4
-11 0 -3 47.7 8
-12 -1 3 53.99 7.8
-12 -1 3 61.39 7.1
-12 -1 3 55.19 6.3
-12 1 3 56.59 5.7
-12 1 3 58.89 8.7
-11 -1 3 10.1 3.8
-11 -1 3 11.3 4.8
-11 -1 3 6.9 4.1
11 -1 -3 8.9 5.7
-11 1 3 10 6.1
-11 1 3 11 2.9
-11 1 3 15.2 4
-11 1 3 10.6 2.4
-10 -1 3 91.59 6.8
-10 -1 3 96.19 6.3
-10 -1 3 92.49 7.6
10 -1 -3 95.19 12
-10 1 3 95.49 6.7
-10 1 3 85.29 4.5
-10 1 3 97.99 14.1
-10 1 3 88.19 4.7
-10 1 3 88.69 5
-10 1 3 91.19 4.8
9 -1 -3 4.1 6.6
-9 -1 3 4.4 2.7
-9 -1 3 3.4 2.7
-9 -1 3 4.6 3.3
-9 1 3 6.6 2
-9 1 3 9 2.9
-9 1 3 10.6 2
-9 1 3 7.5 2.1
8 -1 -3 289.87 14.2
8 -1 -3 305.07 10.6
-8 -1 3 285.07 10.1
-8 -1 3 291.97 10.4
-8 -1 3 278.27 9.9
-8 1 3 286.57 8.6
-8 1 3 287.27 8.2
-8 1 3 270.27 8
-8 1 3 279.47 14.3
-8 1 3 261.37 8.6
-8 1 3 289.57 10.1
7 -1 -3 20.4 3.2
-7 -1 3 15.9 2.8
-7 -1 3 13.1 2.6
7 -1 -3 6.5 5.4
-7 -1 3 12.9 2.6
-7 1 3 14 1.4
-7 1 3 17.3 2
-7 1 3 10.7 1.9
-7 1 3 11.8 5.1
-7 1 3 10.8 1.9
-7 1 3 15.1 2.7
6 -1 -3 534.95 19.2
-6 -1 3 525.75 15
-6 -1 3 522.55 15.3
-6 -1 3 524.45 14.9
6 -1 -3 548.65 15.5
-6 1 3 524.85 15.3
-6 1 3 539.35 14.1
-6 1 3 520.15 18.7
-6 1 3 522.65 13.2
-6 1 3 543.45 13.3
-6 1 3 522.45 14.2
5 -1 -3 179.48 5.7
-5 -1 3 181.58 6.2
-5 -1 3 180.28 6.3
5 -1 -3 174.68 9.8
-5 1 3 185.68 9.6
-5 1 3 190.38 5.7
-5 1 3 180.38 6.7
-5 1 3 174.58 5.8
-4 -1 3 1253.57 30.7
-4 -1 3 1191.28 30.3
4 -1 -3 1235.58 30.1
4 -1 -3 1234.38 31.2
4 -1 -3 1236.98 34.9
-4 1 3 1223.98 30.1
-4 1 3 1239.08 30.3
-4 1 3 1184.48 31.1
-4 1 3 1211.38 34.4
-3 -1 3 307.87 8.7
3 -1 -3 286.77 8.2
-3 -1 3 298.47 7.6
-3 -1 3 303.17 8
3 -1 -3 287.27 11.9
3 -1 -3 305.17 9.1
-3 -1 3 294.27 9.2
-3 1 3 311.87 8.4
-3 1 3 292.97 8.3
-3 1 3 308.77 9.1
3 1 -3 300.97 7.6
3 1 -3 322.67 9.9
-3 1 3 285.67 11.7
2 -1 -3 102.99 3.6
-2 -1 3 100.59 3.7
2 -1 -3 106.69 4.1
-2 -1 3 103.39 3.2
2 -1 -3 90.79 2.8
-2 -1 3 106.29 2.9
-2 -1 3 103.29 5.2
-2 1 3 95.09 4.6
2 1 -3 102.19 3.6
2 1 -3 105.09 3.3
-2 1 3 104.69 3.7
2 1 -3 103.09 5.6
-2 1 3 101.19 7
-2 1 3 107.79 4
1 -1 -3 9401.46 232.88
-1 1 3 9999 232.98
1 1 -3 9539.15 232.28
0 -1 3 5328.17 130.39
0 -1 3 5937.51 134.99
0 -1 -3 5362.16 134.79
0 -1 -3 5011 130.39
0 1 -3 5942.61 135.49
0 1 3 5318.37 134.49
1 -1 3 469.75 17.1
-1 -1 -3 528.25 12.9
-1 -1 -3 523.05 17.4
1 -1 3 511.45 13.2
1 -1 3 492.75 13.2
-1 -1 -3 498.85 13.1
-1 1 -3 502.95 13.3
-1 1 -3 503.85 17.8
1 1 3 507.45 13.3
-1 1 -3 487.45 13.2
1 1 3 485.15 12.7
1 1 3 503.15 16.9
1 1 3 500.35 13.2
2 -1 3 2265.77 55.99
2 -1 3 2309.17 56.59
-2 -1 -3 2349.56 56.89
-2 -1 -3 2280.87 55.79
-2 -1 -3 2298.47 56.39
2 -1 3 2399.36 62.29
2 1 3 2329.27 56.89
2 1 3 2299.47 56.49
-2 1 -3 2365.06 56.69
-2 1 -3 2290.67 56.79
2 1 3 2452.85 61.29
2 1 3 2255.67 55.59
-2 1 -3 2467.45 62.99
3 -1 3 283.37 8.3
3 -1 3 275.67 8.3
-3 -1 -3 277.17 8.6
3 -1 3 275.97 7.6
-3 -1 -3 272.67 8
-3 -1 -3 272.17 7.1
-3 1 -3 267.77 13.4
3 1 3 280.97 8.1
3 1 3 279.17 8.7
-3 1 -3 271.07 8.3
-3 1 -3 283.77 8.4
3 1 3 265.87 12
4 -1 3 759.02 33.2
4 -1 3 827.92 21.2
4 -1 3 808.22 20.4
-4 -1 -3 817.52 21.8
-4 -1 -3 830.82 20.9
4 1 3 808.12 21
4 1 3 799.32 22
-4 1 -3 799.12 20.3
-4 1 -3 823.32 21.3
-4 1 -3 798.02 28.9
4 1 3 853.21 26.8
4 1 3 796.22 25.6
-4 1 -3 826.32 21.4
5 -1 3 126.79 10.9
5 -1 3 122.09 5.1
-5 -1 -3 128.19 4.9
5 -1 3 124.59 4.4
-5 -1 -3 117.59 5.7
-5 1 -3 142.09 11.8
-5 1 -3 123.49 5.3
-5 1 -3 130.59 5.4
5 1 3 130.09 9.7
5 1 3 126.29 9.8
-5 1 -3 123.89 4.3
5 1 3 133.89 5
6 -1 3 1154.78 31.6
6 -1 3 1082.39 35.9
-6 -1 -3 1083.19 27.5
-6 -1 -3 1094.69 29.3
6 -1 3 1012.5 27
-6 1 -3 1096.69 28.3
6 1 3 1055.49 33.2
-6 1 -3 1038 26.7
6 1 3 1103.69 27.6
6 1 3 1115.49 34.7
-6 1 -3 1093.19 28.4
-6 1 -3 1049.59 36.5
-7 -1 -3 232.88 9.6
7 -1 3 230.38 8.4
7 -1 3 224.58 7.3
7 -1 3 224.28 15.7
-7 -1 -3 231.28 7.6
-7 1 -3 244.98 8.9
7 1 3 256.67 8
7 1 3 246.48 14.7
7 1 3 210.18 13.4
-7 1 -3 199.38 16
-7 1 -3 228.98 8.5
-8 -1 -3 141.39 7.8
8 -1 3 121.39 6.4
8 -1 3 141.89 15.8
8 -1 3 122.39 5
-8 -1 -3 131.29 5.6
8 1 3 141.59 13.5
-8 1 -3 136.59 6.6
-8 1 -3 119.69 7
8 1 3 128.99 5.6
8 1 3 131.79 12.8
-8 1 -3 118.89 15.6
-9 -1 -3 55.79 7
9 -1 3 36.1 11.9
9 -1 3 43.8 5.3
-9 -1 -3 43.1 4.1
9 1 3 49.2 9.6
-9 1 -3 45.7 5.3
-9 1 -3 41.9 4.7
9 1 3 40.9 4.2
-9 1 -3 47.1 5.2
-9 1 -3 43.5 6.1
-9 1 -3 26.3 11.1
9 1 3 35.3 10.4
-10 -1 -3 41.3 4.1
-10 -1 -3 41.7 7.9
10 1 3 41.5 4.3
-10 1 -3 44.9 13.4
10 1 3 32.5 10.6
-10 1 -3 47.9 5.5
-10 1 -3 51.89 7.8
-10 1 -3 46.3 4.8
-10 1 -3 41.8 5.8
-11 -1 -3 9 2.9
-11 -1 -3 8.5 2.6
-11 -1 -3 16.5 6.2
11 1 3 16.8 10.1
-11 1 -3 4.5 6
-11 1 -3 7.5 4.1
-12 -2 3 11.7 6.2
-12 -2 3 5.8 5.9
-12 -2 3 9.1 5
-12 2 3 -0.3 3.9
-12 2 3 3.1 4.7
-11 -2 3 25 4.5
-11 -2 3 35 5.8
-11 -2 3 41.9 5.9
-11 2 3 29.9 5.2
-11 2 3 33.5 4.2
-10 -2 3 28.9 4.7
10 -2 -3 26.8 5.7
-10 -2 3 25.3 4.6
10 -2 -3 29.1 12.1
-10 -2 3 28.1 4.5
-10 2 3 30.8 4.6
-10 2 3 28.3 3.9
-10 2 3 23.2 3.6
9 -2 -3 83.89 12.2
-9 -2 3 79.99 6.6
-9 -2 3 82.29 6.8
9 -2 -3 81.39 8
-9 -2 3 87.29 6.5
-9 2 3 72.29 11.8
-9 2 3 85.39 6.6
-9 2 3 79.29 5.6
-9 2 3 77.69 5.4
-8 -2 3 121.29 7.4
-8 -2 3 122.79 6.8
8 -2 -3 119.59 7.9
8 -2 -3 110.99 6.1
-8 -2 3 129.19 6.6
8 -2 -3 118.09 15.2
-8 2 3 120.19 6.9
-8 2 3 121.79 6
-8 2 3 109.79 14.3
-8 2 3 119.99 6.1
7 -2 -3 733.83 20
-7 -2 3 733.13 20.4
7 -2 -3 735.23 28.4
-7 -2 3 734.73 21.1
7 -2 -3 728.13 21.5
-7 2 3 742.23 20
-7 2 3 723.53 20.2
-7 2 3 757.02 28.6
-7 2 3 742.13 21
6 -2 -3 498.15 22
6 -2 -3 524.55 15.9
-6 -2 3 496.35 14.4
-6 -2 3 502.85 15.2
6 -2 -3 506.25 15.6
-6 2 3 518.55 14.4
-6 2 3 519.45 21.8
-6 2 3 495.75 14.6
-6 2 3 503.65 15.1
-5 -2 3 416.16 12.8
5 -2 -3 381.46 18.9
5 -2 -3 398.36 11.5
5 -2 -3 384.56 11.6
-5 -2 3 388.66 12.2
5 -2 -3 406.36 12.6
-5 -2 3 397.06 11.2
5 2 -3 389.66 10.1
-5 2 3 387.56 11.5
-5 2 3 392.36 18.2
-5 2 3 387.36 12.2
5 2 -3 395.56 10
-5 2 3 385.16 11.7
5 2 -3 380.86 13.4
4 -2 -3 1999.1 49.6
4 -2 -3 1905.81 61.79
-4 -2 3 2062.49 48.5
-4 -2 3 2105.09 51.99
4 -2 -3 2055.49 50.59
-4 -2 3 1968.9 50.09
4 2 -3 2020.4 49.3
-4 2 3 2008.4 50.19
4 2 -3 2023.1 52.89
4 2 -3 2079.19 48.5
-4 2 3 1840.02 60.29
-4 2 3 1994.5 49.6
-4 2 3 2060.59 49.9
3 -2 -3 2134.79 52.49
3 -2 -3 2103.79 50.99
-3 -2 3 2073.29 51.59
-3 -2 3 2183.18 55.59
-3 -2 3 2101.49 51.49
3 -2 -3 2187.28 52.49
-3 -2 3 2192.68 52.79
3 2 -3 2119.39 51.79
3 2 -3 2125.79 56.69
3 2 -3 2109.09 51.59
-3 2 3 2092.79 52.39
-3 2 3 2093.69 52.79
-3 2 3 2215.28 59.19
3 2 -3 2113.99 51.69
-3 2 3 2159.78 52.59
-3 2 3 2209.58 53.39
2 -2 -3 738.23 18.4
-2 -2 3 738.53 19.7
-2 -2 3 742.23 23.1
-2 -2 3 739.93 18.8
2 -2 -3 737.63 19.5
2 -2 -3 751.12 19.4
2 -2 -3 741.03 25.6
-2 -2 3 739.33 18.6
2 -2 -3 728.93 19.9
2 2 -3 752.42 18.5
-2 2 3 741.83 19.4
2 2 -3 762.02 18.9
-2 2 3 719.23 19.6
-2 2 3 756.52 20
2 2 -3 727.33 19.1
-2 2 3 726.23 25.2
2 2 -3 747.73 19.4
-2 2 3 753.12 19.6
2 2 -3 763.52 24.2
1 -2 -3 728.53 19.2
1 -2 -3 734.33 19.4
-1 -2 3 742.63 19.1
-1 -2 3 708.63 23.2
1 -2 -3 686.93 24.5
-1 -2 3 713.03 18.5
1 -2 -3 741.83 18.9
-1 2 3 706.43 18.8
-1 2 3 740.93 19.3
1 2 -3 743.03 18.6
1 2 -3 693.33 18.7
-1 2 3 702.93 18.9
1 2 -3 708.73 18.7
1 2 -3 727.03 24.3
-1 2 3 704.03 18.9
1 2 -3 713.83 18.1
-1 2 3 757.12 25
0 -2 -3 1928.61 47.8
0 -2 -3 1985.4 54.39
0 -2 3 1899.81 53.19
0 -2 -3 2016.8 48
0 -2 3 1919.31 47.6
0 -2 3 1963.6 47.6
0 -2 3 1972.4 47.9
0 -2 -3 1901.61 48.2
0 2 3 1987.8 47.9
0 2 -3 1779.92 48.6
0 2 3 1918.51 47.6
0 2 3 1906.61 47.7
0 2 -3 1993.7 54.69
0 2 3 1957.6 53.99
0 2 3 1998 48.1
0 2 -3 2004.6 47.8
0 2 -3 1970.2 47.8
0 2 -3 1963.5 47.4
-1 -2 -3 1664.43 47
1 -2 3 1585.24 40.7
1 -2 3 1652.73 40.5
-1 -2 -3 1703.13 40.6
-1 -2 -3 1596.14 40.5
1 -2 3 1580.84 46.6
-1 -2 -3 1624.64 41
1 -2 3 1628.04 40.6
1 2 3 1651.53 40.6
1 2 3 1655.03 46.6
1 2 3 1601.64 42.5
-1 2 -3 1661.73 40.9
1 2 3 1680.23 40.3
1 2 3 1658.03 40.9
-1 2 -3 1682.23 40.6
-2 -2 -3 595.74 21.7
2 -2 3 600.24 16.3
-2 -2 -3 579.84 16.4
2 -2 3 594.14 15.9
-2 -2 -3 604.04 15.8
-2 -2 -3 595.84 15.9
2 -2 3 583.54 22.3
2 -2 3 598.24 16.1
2 2 3 564.74 15.9
-2 2 -3 626.54 16.1
2 2 3 604.94 16.2
2 2 3 604.34 21.5
-2 2 -3 609.44 16.5
2 2 3 603.64 16.4
-2 2 -3 597.54 23.3
-3 -2 -3 2140.09 59.89
3 -2 3 2203.58 53.59
3 -2 3 2196.78 53.29
-3 -2 -3 2213.98 53.19
-3 -2 -3 2142.29 53.89
3 -2 3 2148.89 61.29
-3 -2 -3 2136.59 52.79
3 -2 3 2117.69 53.39
-3 2 -3 2178.08 62.29
-3 2 -3 2119.19 53.79
3 2 3 2219.28 53.39
3 2 3 2206.18 53.99
-3 2 -3 2218.18 53.29
3 2 3 2169.78 59.19
-4 -2 -3 16.4 1.9
4 -2 3 5.4 6.1
-4 -2 -3 15.4 2.3
-4 -2 -3 15.1 2
4 -2 3 14.6 2
4 -2 3 13.8 2.2
4 -2 3 14.7 2.1
4 2 3 23.2 3.1
-4 2 -3 14.8 2.4
-4 2 -3 14.8 1.9
-4 2 -3 19.4 7.2
4 2 3 22.6 6
4 2 3 20.5 2.3
-4 2 -3 18.5 2.2
5 -2 3 916.91 24.2
-5 -2 -3 924.61 23.7
5 -2 3 949.51 24.1
5 -2 3 923.51 24.5
-5 -2 -3 906.11 25
-5 -2 -3 959.5 23
-5 2 -3 885.61 34.4
5 2 3 1006.2 27.4
5 2 3 910.51 31
-5 2 -3 898.01 24.8
-5 2 -3 911.21 23.7
-5 2 -3 825.32 24.9
5 2 3 912.51 23.9
5 2 3 921.31 31
-6 -2 -3 477.95 15
-6 -2 -3 477.45 12.3
6 -2 3 476.85 14.2
6 -2 3 437.26 14.5
-6 -2 -3 478.75 13.3
6 -2 3 456.75 22.4
-6 2 -3 484.25 13.9
-6 2 -3 481.75 14.3
6 2 3 470.15 15.6
-6 2 -3 476.45 13.3
6 2 3 460.65 19.6
-6 2 -3 476.15 24.4
6 2 3 477.55 13.6
6 2 3 475.45 21.4
-6 2 -3 470.95 14.6
-7 -2 -3 27.4 2.8
7 -2 3 33.4 3.9
-7 -2 -3 30.5 1.9
-7 -2 -3 32.1 4.3
7 -2 3 18.2 10.7
7 -2 3 34.5 3.8
7 2 3 28.8 8.2
7 2 3 28.9 3.1
7 2 3 30.8 7.5
-7 2 -3 32.3 4
-7 2 -3 19.8 10.9
-7 2 -3 32.1 3.5
-7 2 -3 30.7 3.8
-7 2 -3 28.7 3.1
8 -2 3 30.2 11.5
8 -2 3 27.5 4.3
-8 -2 -3 32.2 3.7
-8 -2 -3 36.1 5
8 -2 3 36.5 4.5
8 2 3 32.8 3.4
-8 2 -3 31.7 4
8 2 3 45.4 9.8
-8 2 -3 32.2 3.7
-8 2 -3 30.3 3.4
8 2 3 26.3 8.1
-8 2 -3 29.6 4
-8 2 -3 19.6 12.9
-9 -2 -3 241.98 8.1
9 -2 3 239.08 25
9 -2 3 243.98 9.4
-9 -2 -3 261.07 11.9
9 2 3 245.28 7.6
-9 2 -3 255.67 24.4
9 2 3 246.28 8.4
-9 2 -3 238.28 10.3
9 2 3 267.67 18.9
9 2 3 206.58 16.2
-9 2 -3 236.88 9.8
-10 -2 -3 67.49 4.4
-10 -2 -3 88.29 9.6
-10 2 -3 66.19 7.9
10 2 3 73.79 11.9
-10 2 -3 65.79 6.8
-11 -2 -3 60.19 7.9
-11 2 -3 65.29 6.9
-11 2 -3 53.59 8.9
-11 -3 3 14.8 5.7
-11 -3 3 6.3 6.3
-11 -3 3 17.3 5.7
-11 3 3 15.1 5
-11 3 3 15 5.2
-10 -3 3 33.5 4.7
-10 -3 3 19.2 5.7
-10 -3 3 28.8 5.2
-10 3 3 21.5 5.7
-10 3 3 24 4.9
-9 -3 3 42.7 5.7
-9 -3 3 50.09 5.1
-9 3 3 53.59 5.9
-9 3 3 38.1 15.9
-9 3 3 44.6 5.3
-9 3 3 48.9 5.4
-8 -3 3 21.5 3.5
-8 -3 3 14.6 4.4
8 -3 -3 18.7 5
8 -3 -3 11.5 12.1
-8 3 3 14.5 3.9
-8 3 3 16.9 12.4
-8 3 3 15 3.8
-8 3 3 17.3 3.5
-7 -3 3 192.58 7.6
7 -3 -3 203.38 20
7 -3 -3 180.38 10
7 -3 -3 165.38 8.2
-7 -3 3 171.88 8.9
-7 3 3 175.18 7.7
-7 3 3 183.88 8.7
7 3 -3 160.98 10.6
-7 3 3 194.78 19
6 -3 -3 445.56 15
-6 -3 3 425.66 13
-6 -3 3 449.56 14.6
-6 -3 3 458.15 16.9
6 -3 -3 412.66 13.7
6 -3 -3 393.26 24.1
-6 3 3 432.66 13.7
6 3 -3 421.36 18.4
6 3 -3 447.86 11.8
6 3 -3 453.15 12
-6 3 3 435.46 23.4
-6 3 3 436.66 15.3
-6 3 3 447.16 14.3
-5 -3 3 491.25 15.4
5 -3 -3 470.55 12.2
5 -3 -3 482.55 14.6
5 -3 -3 472.25 14.7
-5 -3 3 489.05 13.9
-5 -3 3 495.45 18.6
-5 3 3 488.55 16.2
-5 3 3 500.65 15.1
-5 3 3 482.85 24.1
-5 3 3 495.55 15.2
5 3 -3 458.55 20.1
-5 3 3 483.05 14.7
5 3 -3 490.35 13.5
5 3 -3 478.15 13.1
5 3 -3 508.35 14.2
4 -3 -3 1390.86 36.2
4 -3 -3 1368.26 45.1
-4 -3 3 1316.77 34
4 -3 -3 1332.17 34.8
-4 -3 3 1349.47 33.6
-4 -3 3 1309.67 35.3
4 -3 -3 1366.76 35
-4 -3 3 1384.16 39.7
4 -3 -3 1306.07 33
-4 3 3 1341.27 35.1
4 3 -3 1366.76 34
-4 3 3 1315.47 44.3
-4 3 3 1403.06 35.2
-4 3 3 1369.96 36.1
4 3 -3 1395.76 33.7
4 3 -3 1312.07 41.2
4 3 -3 1323.07 34
-4 3 3 1350.56 34.9
3 -3 -3 131.59 5.9
-3 -3 3 128.59 5
-3 -3 3 142.59 6.2
3 -3 -3 147.69 6.8
3 -3 -3 158.08 13.7
3 -3 -3 140.99 6
-3 -3 3 138.89 5.4
-3 -3 3 130.79 10.1
3 -3 -3 129.19 4.8
-3 3 3 141.09 6.8
-3 3 3 138.19 6.2
-3 3 3 143.39 6.1
3 3 -3 136.29 5.2
3 3 -3 136.49 5.1
3 3 -3 143.59 5.6
-3 3 3 140.39 6
-3 3 3 139.39 13.4
-2 -3 3 491.65 14.4
-2 -3 3 468.65 13.3
-2 -3 3 495.35 13.8
-2 -3 3 477.85 13.4
-2 -3 3 484.85 19.5
2 -3 -3 484.45 14.7
2 -3 -3 482.85 14.1
2 -3 -3 490.35 13
2 -3 -3 490.35 22.3
2 -3 -3 473.35 14.1
2 3 -3 459.05 21
-2 3 3 470.95 14
-2 3 3 485.75 21.8
2 3 -3 480.95 13.1
2 3 -3 489.45 13.5
-2 3 3 476.85 14.1
-2 3 3 486.55 14.7
-2 3 3 484.35 14.2
-1 -3 3 345.17 10.8
1 -3 -3 331.77 17.8
1 -3 -3 345.17 11.1
-1 -3 3 336.67 16.2
-1 -3 3 336.87 10.3
1 -3 -3 333.97 11.2
1 -3 -3 334.37 9.7
-1 -3 3 331.97 10.1
1 -3 -3 344.97 10.6
-1 3 3 337.77 11
-1 3 3 331.37 10.5
1 3 -3 322.17 10.4
-1 3 3 329.97 10.5
-1 3 3 347.57 18.3
1 3 -3 316.97 17.8
-1 3 3 335.67 10.6
1 3 -3 347.17 10.2
1 3 -3 334.87 9.8
1 3 -3 346.17 10.4
0 -3 3 1362.86 34.5
0 -3 3 1390.06 34.1
0 -3 -3 1283.87 34.3
0 -3 3 1364.86 41.9
0 -3 -3 1297.37 34.6
0 -3 3 1331.97 34.1
0 -3 -3 1345.97 42.8
0 -3 -3 1341.97 35
0 3 3 1388.36 34.4
0 3 -3 1278.57 42.8
0 3 3 1322.67 34.1
0 3 -3 1362.16 33.9
0 3 3 1388.66 43.1
0 3 3 1327.17 34.2
0 3 -3 1382.36 34.2
0 3 -3 1303.77 34.4
0 3 3 1341.27 34.6
0 3 -3 1375.16 34.1
1 -3 3 1197.78 30.7
-1 -3 -3 1181.08 30.8
-1 -3 -3 1194.18 31
1 -3 3 1218.18 30.9
-1 -3 -3 1178.58 31.4
-1 -3 -3 1177.38 38.9
1 -3 3 1204.98 30.9
1 3 3 1191.98 30.4
1 3 3 1144.09 38.4
-1 3 -3 1187.38 30.5
1 3 3 1217.08 30.7
1 3 3 1223.08 30.9
-1 3 -3 1205.28 30.8
-1 3 -3 1160.08 30.7
1 3 3 1216.28 31.1
-1 3 -3 1224.68 41.1
-1 3 -3 1192.18 31.2
-2 -3 -3 27.9 3.2
-2 -3 -3 33.5 3
2 -3 3 29.2 3
2 -3 3 32.1 3.3
-2 -3 -3 30.7 3.4
2 -3 3 29.8 3.4
2 -3 3 49.6 8.7
-2 -3 -3 30.5 7.5
2 3 3 31.8 2.9
2 3 3 37 7.7
2 3 3 31.7 2.7
-2 3 -3 25.8 9.3
2 3 3 29.2 3.3
2 3 3 27.8 3.4
-2 3 -3 27.9 3.4
-2 3 -3 23.8 3
-2 3 -3 29.2 2.9
3 -3 3 511.25 14.9
3 -3 3 515.45 15.2
3 -3 3 513.45 23.4
-3 -3 -3 533.15 22.7
-3 -3 -3 521.25 14.8
-3 -3 -3 505.35 15.4
3 3 3 427.76 28.2
-3 3 -3 530.65 25
3 3 3 520.65 14.7
3 3 3 526.25 15.5
3 3 3 531.85 15
-3 3 -3 519.35 15.6
-3 3 -3 522.65 14.7
-3 3 -3 554.04 15.4
-4 -3 -3 4.6 6.4
4 -3 3 2.1 8.2
4 -3 3 0.7 2.2
4 -3 3 2 2.2
-4 -3 -3 2.7 1.7
-4 -3 -3 -0.7 2
-4 -3 -3 0.1 1.5
4 -3 3 2.2 1.9
4 3 3 3.3 2.4
4 3 3 3.8 2.1
-4 3 -3 4.3 1.7
-4 3 -3 1.6 1.7
4 3 3 14.5 6.7
-4 3 -3 0.3 2.1
-4 3 -3 -4.5 8.2
-4 3 -3 2.5 2.3
-5 -3 -3 415.06 11.7
5 -3 3 399.26 12.4
5 -3 3 403.16 12.8
-5 -3 -3 399.86 12
-5 -3 -3 392.46 13.2
5 -3 3 386.86 22.4
5 -3 3 382.36 12.7
-5 -3 -3 430.36 20.8
5 3 3 354.16 19.1
-5 3 -3 389.76 12.3
-5 3 -3 388.66 12
5 3 3 382.46 12.2
-5 3 -3 402.86 12.9
5 3 3 405.66 11.8
5 3 3 409.86 13.7
-5 3 -3 402.66 13.2
-5 3 -3 373.06 24.1
-6 -3 -3 116.09 6.9
-6 -3 -3 118.09 5.7
6 -3 3 120.89 16.8
6 -3 3 115.59 6
6 -3 3 112.39 7.6
6 -3 3 110.59 6.6
-6 -3 -3 124.29 5.3
6 3 3 137.19 15
6 3 3 123.99 8
-6 3 -3 126.99 7.1
-6 3 -3 116.59 5.8
6 3 3 122.29 5.4
-6 3 -3 117.59 5.9
6 3 3 102.79 13.5
6 3 3 123.49 6.2
-6 3 -3 115.59 17.2
-6 3 -3 122.09 6.9
-7 -3 -3 70.99 4.6
-7 -3 -3 54.49 3.9
7 -3 3 65.09 6.3
-7 -3 -3 65.89 6.4
-7 3 -3 50.49 6
-7 3 -3 60.89 5.1
7 3 3 57.99 7.3
7 3 3 57.09 4.1
7 3 3 69.39 10.9
-7 3 -3 61.19 6.2
7 3 3 60.49 5.4
-7 3 -3 55.39 4.9
7 3 3 51.19 10.8
-7 3 -3 64.99 17.8
8 -3 3 198.38 9.8
8 -3 3 209.08 23.1
-8 -3 -3 176.78 6.6
-8 -3 -3 204.48 10.4
-8 -3 -3 197.58 7.6
-8 3 -3 202.08 9.8
8 3 3 218.28 9.4
-8 3 -3 184.18 8.3
-8 3 -3 220.88 8.4
8 3 3 200.98 17.8
8 3 3 193.08 8.4
-8 3 -3 209.18 9.7
-8 3 -3 218.58 27
9 -3 3 53.39 6.1
-9 -3 -3 49 4.5
-9 -3 -3 53.79 6.8
9 3 3 54.39 13.7
-9 3 -3 54.89 6
-9 3 -3 62.89 7.7
9 3 3 46.9 5.6
-9 3 -3 55.99 6.8
9 3 3 53.39 4.3
-10 -3 -3 16.1 2.9
-10 -3 -3 21.6 6.3
-10 3 -3 17.6 5.4
10 3 3 16.3 15.4
-10 -4 3 30 7.3
-10 -4 3 36.2 5.5
-10 4 3 34.9 6.3
-10 4 3 46.1 6.3
-9 -4 3 20.5 4.3
-9 -4 3 10.7 4.3
-9 -4 3 19.3 6.2
-9 4 3 13.1 5
-9 4 3 15.9 5.1
-8 -4 3 81.99 6.7
-8 -4 3 84.49 6.8
-8 -4 3 88.99 10.4
-8 4 3 75.69 8.8
-8 4 3 73.79 8
8 4 -3 89.99 10.3
-8 4 3 93.49 8.1
-7 -4 3 -2.2 3
-7 -4 3 6.7 3.9
-7 -4 3 3.9 3.1
-7 -4 3 -12.7 7.4
-7 4 3 -13.4 17
-7 4 3 3.4 3.6
-7 4 3 -2.9 4
7 4 -3 -8 10.4
7 4 -3 -1.5 2.4
7 4 -3 0 2.3
-7 4 3 -3.3 3.7
-6 -4 3 83.69 5.9
6 -4 -3 96.69 10.8
-6 -4 3 89.99 5.7
6 -4 -3 93.99 3.6
-6 -4 3 101.49 7.8
6 -4 -3 95.19 17.4
-6 4 3 93.49 6.5
6 4 -3 86.79 5.3
-6 4 3 102.29 7.6
6 4 -3 104.19 14.2
6 4 -3 92.59 5.2
6 4 -3 85.59 6.3
-6 4 3 103.19 16.9
-6 4 3 105.99 7.1
5 -4 -3 3.5 11.2
-5 -4 3 10.2 2.9
-5 -4 3 6 2.7
-5 -4 3 8.3 3.5
5 -4 -3 8.4 3.1
5 -4 -3 14.6 4.7
-5 -4 3 8.2 2.3
5 4 -3 6.9 10.2
5 4 -3 6.7 2.5
-5 4 3 21.7 11.8
-5 4 3 3.4 3.2
-5 4 3 10.6 3.1
5 4 -3 10.1 2.8
5 4 -3 9.2 2.6
-5 4 3 10 3.6
-4 -4 3 30.3 4.2
-4 -4 3 42.9 9.3
4 -4 -3 37.4 5.4
4 -4 -3 30.5 3.8
-4 -4 3 35.1 3.8
4 -4 -3 43.1 4.5
-4 -4 3 40.3 4.1
-4 -4 3 31.2 3.6
4 -4 -3 34.4 3.1
4 -4 -3 21.6 11.5
-4 4 3 41.3 12
4 4 -3 43.2 3.9
4 4 -3 38.9 11
4 4 -3 36.4 3.9
-4 4 3 38 4.5
-4 4 3 25.6 3.6
-4 4 3 45.6 5.6
-4 4 3 32 4
4 4 -3 34.3 5.9
3 -4 -3 477.75 25.5
3 -4 -3 436.76 12.5
3 -4 -3 422.36 13.9
-3 -4 3 450.75 14.5
-3 -4 3 432.26 12.9
3 -4 -3 441.76 14.1
-3 -4 3 457.35 21.8
-3 -4 3 405.06 13.3
3 -4 -3 423.26 14.9
-3 -4 3 413.56 13.1
3 4 -3 438.86 12.8
3 4 -3 416.26 13
-3 4 3 424.76 13.9
-3 4 3 449.16 14.3
-3 4 3 416.06 14
-3 4 3 400.66 25.4
3 4 -3 421.46 24.7
3 4 -3 466.55 13.8
-3 4 3 438.46 15.2
2 -4 -3 386.66 14
2 -4 -3 426.26 23.7
2 -4 -3 408.96 13.4
-2 -4 3 422.76 13.8
-2 -4 3 413.16 12.7
-2 -4 3 419.96 13.1
-2 -4 3 413.76 20.7
2 -4 -3 411.86 13.5
2 -4 -3 409.66 12.2
-2 4 3 398.56 13.3
-2 4 3 413.16 14
2 4 -3 411.16 12.7
-2 4 3 414.16 13.5
-2 4 3 411.86 13.3
-2 4 3 421.06 24.1
2 4 -3 409.16 13.2
2 4 -3 420.06 12.3
2 4 -3 417.16 24.1
1 -4 -3 198.28 8.8
-1 -4 3 192.38 7.4
-1 -4 3 189.58 8.3
-1 -4 3 173.58 17.8
-1 -4 3 193.38 8
1 -4 -3 199.78 8.2
1 -4 -3 200.98 17.3
1 -4 -3 192.58 8.8
1 -4 -3 202.38 7.5
-1 4 3 193.78 8.1
1 4 -3 205.18 7.5
1 4 -3 191.58 18.9
-1 4 3 198.18 8.2
-1 4 3 194.88 7.9
-1 4 3 205.18 18.1
-1 4 3 206.48 8.8
1 4 -3 191.78 8.1
1 4 -3 199.28 7.7
0 -4 3 502.15 23.7
0 -4 -3 453.25 14.7
0 -4 -3 434.66 13.3
0 -4 -3 452.65 15
0 -4 -3 456.85 14.2
0 -4 3 436.96 13.6
0 -4 3 426.36 14.1
0 -4 3 458.85 14.2
0 -4 -3 483.65 24.2
0 4 -3 452.65 14.4
0 4 3 439.36 13.6
0 4 3 459.75 24.3
0 4 -3 442.56 13.6
0 4 3 419.76 13.8
0 4 -3 448.36 13.8
0 4 -3 465.95 26
0 4 3 451.15 14.5
0 4 -3 457.85 13.7
0 4 3 445.16 14.1
-1 -4 -3 10.4 8.2
1 -4 3 4.9 7.7
-1 -4 -3 3.5 2.6
-1 -4 -3 3.7 2.2
1 -4 3 3.6 2.7
-1 -4 -3 8.3 2.6
1 -4 3 2.4 2.1
-1 4 -3 3.1 2.4
1 4 3 7.3 2.4
1 4 3 2.7 2.1
-1 4 -3 5.6 2.6
-1 4 -3 -2.1 10.3
-1 4 -3 7.4 2.8
1 4 3 3 2.4
1 4 3 5.9 2.2
-1 4 -3 5.3 2.5
2 -4 3 342.87 11.5
-2 -4 -3 354.16 12.2
-2 -4 -3 355.26 21.5
-2 -4 -3 344.97 12.4
2 -4 3 322.47 11.4
2 -4 3 339.77 12.1
2 -4 3 354.56 21.4
-2 -4 -3 350.16 11.5
-2 4 -3 334.47 12
-2 4 -3 343.57 11.8
2 4 3 357.06 11.5
2 4 3 338.67 11.8
2 4 3 348.97 11.8
-2 4 -3 339.17 12.1
-2 4 -3 382.46 24
2 4 3 358.86 11
2 4 3 318.77 21.1
-3 -4 -3 121.69 6.3
3 -4 3 109.49 15.1
-3 -4 -3 130.59 15.9
-3 -4 -3 123.89 7.3
3 -4 3 133.19 6.4
3 -4 3 113.99 6.5
3 -4 3 127.79 7.2
3 4 3 109.09 14.5
3 4 3 125.89 7
3 4 3 127.69 6.2
3 4 3 125.59 6.6
-3 4 -3 109.99 6.6
-3 4 -3 127.79 6
-3 4 -3 121.89 7.2
-3 4 -3 116.19 7.5
-3 4 -3 148.79 18.2
-4 -4 -3 627.54 19.3
-4 -4 -3 643.14 18.3
4 -4 3 603.24 18.2
4 -4 3 620.54 18.8
4 -4 3 643.24 30.7
4 -4 3 635.04 19.3
-4 -4 -3 637.14 29.4
-4 -4 -3 671.63 18.9
4 4 3 654.23 18.2
4 4 3 629.94 18.4
-4 4 -3 592.24 18.8
4 4 3 613.14 19.2
-4 4 -3 596.04 17.7
-4 4 -3 625.34 19.4
4 4 3 649.83 29.2
-4 4 -3 613.64 32.8
-5 -4 -3 31.5 3.6
-5 -4 -3 17.9 10.4
5 -4 3 39.3 13
5 -4 3 36.7 5.2
-5 -4 -3 30 4.4
-5 -4 -3 36.4 4.1
5 -4 3 38.3 4
-5 4 -3 29.2 3.3
5 4 3 37.3 4.4
-5 4 -3 31.9 4.3
-5 4 -3 26.7 4.8
5 4 3 30.2 3.6
-5 4 -3 51.89 14.6
5 4 3 28.1 10.7
5 4 3 28.6 4.5
6 -4 3 158.68 7.5
-6 -4 -3 170.78 9
-6 -4 -3 171.78 7.5
6 -4 3 149.59 9.2
6 -4 3 166.98 20.6
-6 -4 -3 145.49 7.4
6 4 3 115.29 15.2
6 4 3 147.49 9.4
-6 4 -3 154.68 8.7
6 4 3 146.29 8.7
-6 4 -3 149.49 8.5
6 4 3 146.09 7.9
-6 4 -3 192.58 23
-6 4 -3 136.99 7.1
7 -4 3 24 5.5
-7 -4 -3 18.8 3.5
-7 -4 -3 20.6 3.7
-7 -4 -3 27.3 4.7
7 -4 3 19.6 3.4
-7 4 -3 18.4 4.5
7 4 3 23.6 3.6
7 4 3 18.7 13.3
-7 4 -3 43.8 18.7
-7 4 -3 27.8 7.6
-8 -4 -3 51.79 5.7
-8 -4 -3 52.39 5.4
-8 -4 -3 59.99 7.1
-8 4 -3 55.89 6.7
8 4 3 59.99 5.3
-8 4 -3 53.59 6.6
-9 -4 -3 13.3 5.9
-9 -4 -3 8.8 3.3
-9 4 -3 3.4 5.5
-10 -4 -3 25.3 7.5
-10 4 -3 30.8 6.4
-9 -5 3 128.09 9.8
-9 -5 3 134.69 13.4
-9 5 3 99.29 10.9
-9 5 3 121.39 11.3
-8 -5 3 0.2 4.2
-8 -5 3 -10.1 5.8
-8 5 3 2.9 4.9
-8 5 3 4.9 5.1
-7 -5 3 77.89 8.7
-7 -5 3 77.49 7.7
7 5 -3 64.99 6.5
7 5 -3 74.59 8.4
-7 5 3 76.79 9
-7 5 3 43.2 6.9
-7 5 3 71.09 8.7
-6 -5 3 -8.3 5.1
6 -5 -3 0.7 2.6
-6 -5 3 1.8 3.7
-6 5 3 -0.8 4.5
6 5 -3 0.6 3.6
6 5 -3 -5.5 4
-6 5 3 -2.6 4.9
-6 5 3 3.3 6.5
5 -5 -3 196.48 10
-5 -5 3 200.88 11.4
5 -5 -3 169.48 23.4
-5 -5 3 194.48 9.2
5 -5 -3 181.28 7.5
-5 5 3 186.58 10.7
5 5 -3 178.38 22.7
-5 5 3 210.78 10.4
5 5 -3 180.08 8.9
5 5 -3 200.28 9.4
-5 5 3 182.38 24.3
-5 5 3 191.98 9.7
4 -5 -3 36 3.7
-4 -5 3 29.6 5.1
-4 -5 3 40.5 5
4 -5 -3 47.1 16.8
-4 -5 3 36.3 4.5
4 -5 -3 24.1 4.5
4 5 -3 42.2 5.5
-4 5 3 38.7 5.3
4 5 -3 10.7 14.8
-4 5 3 34.9 4.8
-4 5 3 45.4 14.8
-4 5 3 37.8 5.7
4 5 -3 30.3 4.5
3 -5 -3 227.48 8.6
3 -5 -3 230.78 10.1
3 -5 -3 210.58 24
-3 -5 3 232.28 9.1
-3 -5 3 243.68 11
-3 -5 3 180.88 19.6
-3 -5 3 209.88 9.2
-3 5 3 249.88 24
-3 5 3 206.98 9.7
3 5 -3 233.38 25.1
3 5 -3 226.78 9.8
-3 5 3 228.38 10.6
-3 5 3 207.78 10.2
2 -5 -3 70.59 15.8
-2 -5 3 63.99 7.2
2 -5 -3 51.59 5
2 -5 -3 43.9 4.9
-2 -5 3 53.09 5.5
-2 -5 3 61.99 14.3
2 -5 -3 38.3 4.7
-2 5 3 53.99 6
2 5 -3 62.99 6.3
2 5 -3 72.49 16.8
-2 5 3 84.79 17.6
-2 5 3 68.79 8.1
-2 5 3 57.89 5.9
-2 5 3 56.19 6.2
-1 -5 3 263.47 11
1 -5 -3 249.08 10.7
-1 -5 3 253.57 10
1 -5 -3 247.68 12.4
-1 -5 3 297.97 14.6
1 -5 -3 257.97 9.9
-1 -5 3 275.67 35.1
-1 5 3 236.98 10.5
1 5 -3 270.07 10.2
-1 5 3 228.98 24.9
1 5 -3 249.78 10.6
-1 5 3 252.27 11.3
1 5 -3 259.27 25.8
-1 5 3 257.07 10
-1 5 3 241.38 10.5
0 -5 -3 10.5 3.4
0 -5 3 -4.2 11.4
0 -5 -3 11.1 4.3
0 -5 3 2.3 3.1
0 -5 -3 5 3.1
0 -5 -3 15.8 4.3
0 -5 -3 3.5 12
0 -5 3 7.3 3.6
0 5 3 9.3 4
0 5 -3 4.9 3.5
0 5 3 16.2 15.2
0 5 -3 20 15.2
0 5 3 10.4 3.9
0 5 -3 9.8 3.5
0 5 3 13.3 4.1
0 5 3 8.6 3.1
1 -5 3 256.27 10.6
-1 -5 -3 280.17 10.8
1 -5 3 296.47 24.2
-1 -5 -3 259.07 10.8
-1 -5 -3 280.67 23.8
-1 -5 -3 265.97 11.7
-1 -5 -3 289.37 12.1
1 -5 3 265.37 10.9
1 5 3 247.68 24.4
-1 5 -3 295.67 15.4
1 5 3 272.07 11.3
-1 5 -3 267.47 11
1 5 3 279.37 11
-1 5 -3 279.27 11.5
-1 5 -3 255.27 28.1
1 5 3 272.97 10.2
-2 -5 -3 31.9 4.7
-2 -5 -3 47.5 14.7
2 -5 3 34.7 4.9
-2 -5 -3 27.2 4.7
2 -5 3 28.7 4.1
-2 -5 -3 24.5 4.2
-2 -5 -3 26.5 4.6
-2 5 -3 20.1 3.7
-2 5 -3 23.7 4.8
2 5 3 39.1 5.1
2 5 3 30.2 13
-2 5 -3 36.4 5.3
-2 5 -3 37.1 19
2 5 3 28.6 4.4
3 -5 3 173.68 21
-3 -5 -3 203.28 9.9
3 -5 3 196.28 9.6
-3 -5 -3 208.98 9.1
-3 -5 -3 208.68 9.8
-3 -5 -3 198.18 23.4
-3 -5 -3 199.48 10.4
3 5 3 172.28 20.1
-3 5 -3 229.88 27.4
-3 5 -3 198.18 10.8
-3 5 -3 176.68 8.5
3 5 3 167.38 9.5
-3 5 -3 199.28 10.4
3 5 3 218.08 9.2
4 -5 3 -11.5 14.9
4 -5 3 0.7 3.3
-4 -5 -3 -0.4 3.8
-4 -5 -3 1.7 4.2
-4 -5 -3 2.5 3.1
-4 -5 -3 -9.4 3.7
4 5 3 -4.4 2.8
-4 5 -3 -2.2 3.2
-4 5 -3 6.7 16.7
-4 5 -3 -1.5 3.5
4 5 3 -1.8 12.6
-5 -5 -3 110.19 18.8
5 -5 3 119.59 8.4
5 -5 3 115.59 20.8
-5 -5 -3 122.79 9.2
-5 -5 -3 133.79 8
-5 -5 -3 112.59 8.5
-5 5 -3 119.79 22
-5 5 -3 106.79 7.2
5 5 3 116.39 6.9
-5 5 -3 110.19 10.7
-6 -5 -3 -1.3 3.4
-6 -5 -3 4 4.7
-6 -5 -3 7.2 5.6
-6 -5 -3 7.8 4.7
6 -5 3 4.7 4.3
6 5 3 1.4 3.5
-6 5 -3 -2.7 3.8
-6 5 -3 -0.1 4.8
-7 -5 -3 159.08 8.7
7 -5 3 129.99 9.2
-7 -5 -3 151.88 9.8
-7 -5 -3 167.98 11.3
7 5 3 145.89 8.2
-7 5 -3 115.69 9
-7 5 -3 143.09 11.4
-8 -5 -3 0.5 6.1
-8 -5 -3 0.7 5.8
-8 -5 -3 2.6 3.9
8 -5 3 -0.5 4.7
-8 5 -3 -3.2 5.9
-7 -6 3 -5.6 5.5
-7 -6 3 -1.1 7.1
-7 6 3 2 5.5
-7 6 3 -4.2 6.2
-6 -6 3 83.29 9
-6 -6 3 79.29 9.3
6 -6 -3 70.49 6.9
-6 6 3 105.79 9.7
-6 6 3 86.19 9.5
-5 -6 3 17.6 7
-5 -6 3 13.1 4.8
5 -6 -3 17.2 3.8
-5 6 3 12 6.1
5 6 -3 14.7 5.5
-5 6 3 12.4 5.6
4 -6 -3 131.99 7.7
-4 -6 3 140.39 12
-4 -6 3 127.59 9.3
4 -6 -3 137.39 11.3
-4 -6 3 132.99 9
-4 6 3 122.99 9.5
4 6 -3 114.39 9.1
-4 6 3 141.99 11
4 6 -3 160.48 9.6
-3 -6 3 42.8 7.3
3 -6 -3 46.7 7.5
-3 -6 3 32.9 5.4
3 -6 -3 46.2 5.2
3 -6 -3 48.3 20.8
-3 6 3 20.6 21.2
3 6 -3 42.4 5.8
3 6 -3 30.6 5.4
-3 6 3 40 6.9
-3 6 3 52.49 6.1
2 -6 -3 185.28 26.5
2 -6 -3 178.78 11.7
-2 -6 3 175.08 9.6
-2 -6 3 160.58 17.7
-2 -6 3 200.98 25.6
2 -6 -3 180.08 9.2
2 6 -3 163.08 9.6
2 6 -3 181.28 10.4
2 6 -3 151.58 26.6
-2 6 3 174.08 10.6
-2 6 3 173.68 27.8
-2 6 3 186.98 10.1
1 -6 -3 37.7 19.9
-1 -6 3 53.69 6.8
1 -6 -3 57.89 6
-1 -6 3 41.5 5.8
1 -6 -3 41.5 9.6
1 6 -3 63.59 7.8
1 6 -3 74.79 24.4
-1 6 3 61.89 7.6
-1 6 3 46.9 6.9
1 6 -3 54.39 6.1
-1 6 3 40 20.1
0 -6 -3 102.29 8.4
0 -6 -3 115.49 13.9
0 -6 3 50.29 19
0 -6 -3 76.89 21.1
0 -6 3 127.89 9.9
0 6 3 117.49 8.8
0 6 -3 113.59 9.4
0 6 3 115.39 9.5
0 6 3 122.79 21.8
0 6 -3 131.89 9.6
0 6 -3 127.49 25.9
1 -6 3 22.6 18.9
-1 -6 -3 36 6.3
-1 -6 -3 28.6 5.8
1 -6 3 31.5 5.6
-1 -6 -3 41 6.3
1 6 3 47.8 19.5
-1 6 -3 66.99 24.1
1 6 3 24.2 5.1
-1 6 -3 37.8 6.5
-2 -6 -3 219.48 11.4
-2 -6 -3 230.48 12.4
2 -6 3 284.77 31.4
2 -6 3 220.98 11.5
-2 -6 -3 229.98 12.8
-2 -6 -3 209.68 26.6
2 6 3 230.38 10.8
2 6 3 200.38 25.4
-2 6 -3 194.38 30.1
-2 6 -3 227.28 12.6
-3 -6 -3 7.1 4.5
-3 -6 -3 2.6 5.6
-3 -6 -3 -1.5 5
3 -6 3 4 4.7
3 -6 3 -41.8 19.9
3 6 3 2.8 4
-3 6 -3 20.7 25.5
-3 6 -3 3.9 6
-4 -6 -3 117.49 9.6
-4 -6 -3 139.49 11.2
-4 -6 -3 117.39 16.4
4 -6 3 136.19 9.9
-4 6 -3 128.19 11.9
4 6 3 118.39 9.1
5 -6 3 20.7 5.5
-5 -6 -3 12.6 4.9
-5 -6 -3 22.1 6.9
-5 -6 -3 16.3 6.9
-5 6 -3 1.9 6.7
5 6 3 17.5 4.8
-6 -6 -3 54.69 6.5
6 -6 3 58.19 6.6
-6 -6 -3 82.69 9.8
-6 -6 -3 57.99 9
-6 6 -3 68.39 9.3
6 6 3 57.89 6.4
-3 -7 3 40.9 9
3 -7 -3 48.3 6.6
-3 7 3 57.19 9
-3 7 3 57.09 7.6
3 7 -3 38.9 7.3
2 -7 -3 27.1 6.5
-2 -7 3 35.5 9
2 -7 -3 28.3 7.9
-2 7 3 40.1 8.7
-2 7 3 31 6.7
2 7 -3 23 7.2
-1 -7 3 76.09 9.6
1 -7 -3 83.89 9.8
1 -7 -3 93.89 10.9
1 -7 -3 35.1 36.4
-1 7 3 83.79 9.7
-1 7 3 114.19 37.3
1 7 -3 100.29 12.4
0 -7 3 8.3 7.6
0 -7 -3 -1.8 6.1
0 -7 -3 2.3 5.7
0 7 -3 13.8 7.2
0 7 3 13.4 6.4
-1 -7 -3 29.7 6.8
-1 -7 -3 20.2 7.1
1 -7 3 32 7.6
-1 7 -3 30.5 7.8
1 7 3 17.4 10.8
-2 -7 -3 18.8 7.8
-2 -7 -3 18.5 7.7
-2 -7 -3 4.4 5.4
2 -7 3 18.3 7.1
-2 7 -3 22.1 8.6
2 7 3 12.2 6.2
-3 -7 -3 73.79 9.5
-3 -7 -3 62.69 8
3 -7 3 60.29 8.7
-3 -7 -3 79.09 10
3 7 3 86.19 10.3
-3 7 -3 68.09 10.9
-12 0 4 25.3 5
-12 0 4 25.2 6.9
-12 0 4 31.4 4.3
-11 0 4 -1.9 3.8
-11 0 4 -1.9 3.8
-11 0 4 2.9 3.1
-11 0 4 2.5 4.9
-10 0 4 213.88 9.6
-10 0 4 224.58 8.4
-10 0 4 234.08 10.9
-9 0 4 -2.7 1.9
-9 0 4 0.2 2.7
-8 0 4 500.75 14.2
-8 0 4 517.55 15.7
-7 0 4 2.4 1.6
-7 0 4 0.2 2
-6 0 4 665.63 15.5
-6 0 4 610.74 17
-6 0 4 624.44 16.9
-6 0 4 633.04 15.5
-6 0 4 621.54 17.9
-5 0 4 0.5 1.8
-5 0 4 3.4 1.1
-5 0 4 0.8 1.5
-5 0 4 1 1.9
-5 0 4 0.4 0.7
-5 0 4 0.7 0.6
-4 0 4 1723.63 41.3
-4 0 4 1704.83 43.6
-4 0 4 1674.53 41
-4 0 4 1703.93 43.2
-4 0 4 1709.33 42.6
3 0 -4 0.3 0.6
-3 0 4 0.2 2
-3 0 4 2.7 2
-3 0 4 1.4 1.2
-3 0 4 -0.3 0.6
-3 0 4 0.1 0.5
-2 0 4 7479.85 176.58
-2 0 4 7130.19 176.68
-1 0 4 -0.4 0.5
1 0 -4 1.3 0.5
1 0 -4 1.3 2.1
-1 0 4 0.6 0.6
1 0 -4 -0.7 0.5
-1 0 4 2.4 0.5
-1 0 4 0.4 0.6
-1 0 4 0 2
1 0 -4 -0.4 0.5
0 0 -4 93.79 3.3
0 0 4 94.69 3.1
0 0 4 87.79 6.2
0 0 -4 91.09 3.3
0 0 4 95.89 3.4
0 0 -4 82.39 3
0 0 4 96.59 3.4
0 0 -4 92.29 6.4
-1 0 -4 -1.8 2.5
1 0 4 0.1 0.9
1 0 4 -0.3 0.6
-1 0 -4 0 0.6
1 0 4 0.2 0.6
1 0 4 -0.1 2.9
-1 0 -4 0.5 0.7
-1 0 -4 -1.4 0.8
-2 0 -4 2588.94 62.89
2 0 4 2561.44 62.69
-2 0 -4 2683.63 62.89
2 0 4 2540.45 62.89
-2 0 -4 2695.93 68.59
-2 0 -4 2462.15 62.69
-3 0 -4 -0.3 4.1
-3 0 -4 -1.5 0.8
-3 0 -4 -1.7 1.2
3 0 4 0.7 1
-3 0 -4 -0.9 1
3 0 4 0.3 0.3
-4 0 -4 449.95 18.8
4 0 4 437.26 18.4
-4 0 -4 453.25 12.6
4 0 4 445.16 12.5
-4 0 -4 433.26 13.2
5 0 4 5.4 4.6
-5 0 -4 3.5 4.7
-5 0 -4 -3.4 1.7
-5 0 -4 1.4 1.6
-5 0 -4 3.2 1.5
5 0 4 -1.1 1.4
-6 0 -4 1646.44 49.8
-6 0 -4 1646.84 41.8
-6 0 -4 1666.53 42.7
6 0 4 1672.53 50.09
-6 0 -4 1662.73 43.3
6 0 4 1690.83 41.8
-7 0 -4 1 2
-7 0 -4 5 2.8
-7 0 -4 2.8 3.1
7 0 4 1.1 2.1
-7 0 -4 6.6 7.1
7 0 4 8.2 8.4
-8 0 -4 17.4 9
-8 0 -4 32.8 4.6
8 0 4 33.3 3.6
8 0 4 37.6 10.2
-8 0 -4 28.9 3.4
-8 0 -4 28.6 4.4
9 0 4 9.5 11.1
9 0 4 2.3 3
-9 0 -4 -1 2.5
-9 0 -4 9.9 9.7
-9 0 -4 -3.6 3.5
-9 0 -4 -2.3 4.2
-10 0 -4 40.3 7.3
10 0 4 36.4 13.5
-10 0 -4 40.3 4.2
-10 0 -4 47.9 6.9
-11 0 -4 1.4 3.5
-11 0 -4 0.8 6.1
-12 -1 4 10.9 6.1
-12 -1 4 -2.3 4.6
-12 -1 4 6.2 4.6
-12 1 4 -0.8 4.5
-11 -1 4 94.59 7.9
-11 -1 4 102.29 8.9
-11 -1 4 88.99 8
-11 1 4 106.99 7.9
-10 -1 4 30.4 4.3
10 -1 -4 30 6.7
-10 -1 4 23.2 3.9
-10 -1 4 25.6 4.4
-10 1 4 30.3 2.9
-10 1 4 23.4 2.5
-10 1 4 22.1 2.6
-10 1 4 22.8 2.4
-10 1 4 24.6 4.7
9 -1 -4 302.17 14.6
-9 -1 4 289.57 11
-9 -1 4 306.57 10.7
-9 -1 4 301.67 11.4
-9 1 4 288.77 8.2
-9 1 4 299.77 14.7
-9 1 4 289.77 8.9
-9 1 4 284.67 11.1
-9 1 4 299.87 8.9
-9 1 4 293.87 8.3
-8 -1 4 4.9 2.6
-8 -1 4 2.2 2.3
-8 -1 4 2 2.5
8 -1 -4 2.4 5.4
-8 1 4 -1.6 1.5
-8 1 4 0.2 5.2
-8 1 4 1.9 1.1
-8 1 4 2.1 2.4
-8 1 4 2.5 1.3
-8 1 4 1.6 1.6
-7 -1 4 290.67 9.8
-7 -1 4 300.87 9.7
-7 -1 4 297.47 10.5
7 -1 -4 308.07 10.6
7 -1 -4 278.87 13.5
-7 1 4 285.57 10.2
-7 1 4 291.87 7.7
-7 1 4 290.47 8.6
-7 1 4 278.37 8.7
-7 1 4 280.97 7.6
-7 1 4 320.17 13.8
-6 -1 4 33.4 3.6
6 -1 -4 32.3 5.8
-6 -1 4 31.5 2.9
-6 -1 4 31.4 3.1
6 -1 -4 35.3 3.9
-6 1 4 37.4 3.7
-6 1 4 30.5 2.7
-6 1 4 36.7 5.5
-6 1 4 39.7 2.6
5 -1 -4 1073.19 31.9
5 -1 -4 1057.69 26.8
-5 -1 4 1083.19 27.5
5 -1 -4 1088.79 28.4
-5 -1 4 1067.59 27.2
-5 1 4 1055.59 28.2
-5 1 4 1052.79 27
-5 1 4 1076.69 31.6
-5 1 4 1129.59 26.9
-4 -1 4 204.88 5.3
-4 -1 4 189.38 6.6
4 -1 -4 188.58 10.1
4 -1 -4 198.58 6
-4 -1 4 193.88 6
-4 -1 4 210.08 6.7
4 -1 -4 202.48 7.3
4 1 -4 202.28 5.2
4 1 -4 201.18 5.1
-4 1 4 201.98 6.1
-4 1 4 208.18 7.2
-4 1 4 203.08 6.3
-4 1 4 193.88 10.1
4 1 -4 202.08 7.1
-3 -1 4 11.2 2.4
3 -1 -4 13.3 3.4
3 -1 -4 18.1 2.3
-3 -1 4 13.3 1.8
-3 -1 4 10.5 1.1
3 -1 -4 8.9 1.2
-3 -1 4 12.6 1
3 1 -4 10.9 1.3
-3 1 4 12.1 1.9
-3 1 4 13.7 1.8
-3 1 4 12.3 3.6
-3 1 4 12 1.4
-3 1 4 10.1 1.4
3 1 -4 8.6 2.5
2 -1 -4 3413.26 79.69
2 -1 -4 3274.77 78.89
-2 -1 4 3316.77 79.29
2 -1 -4 3221.08 80.19
-2 -1 4 3209.68 79.99
-2 -1 4 3312.47 82.79
-2 1 4 3296.47 80.29
2 1 -4 3373.96 79.69
-2 1 4 3380.16 79.79
-2 1 4 3361.86 80.09
2 1 -4 3282.77 83.29
-2 1 4 3512.35 84.69
2 1 -4 3185.88 79.39
1 -1 -4 1546.95 38
1 -1 -4 1601.54 42.8
-1 -1 4 1497.55 37.5
1 -1 -4 1527.05 37.6
1 -1 -4 1535.85 37.2
1 -1 -4 1503.25 37.9
-1 -1 4 1564.04 41.8
1 1 -4 1532.55 42.1
1 1 -4 1544.75 37.7
-1 1 4 1528.15 37.8
-1 1 4 1522.55 37.7
-1 1 4 1576.84 42.4
1 1 -4 1503.15 37.6
0 -1 -4 108.69 3.9
0 -1 -4 105.49 7.5
0 -1 4 111.79 3.9
0 -1 -4 97.09 4.4
0 -1 4 106.39 7.3
0 1 -4 110.69 7.6
0 1 4 114.79 7.4
0 1 -4 114.49 4.1
0 1 -4 105.39 3.9
0 1 4 112.29 3.9
0 1 4 113.19 4.1
0 1 4 107.09 3.9
-1 -1 -4 28 1.7
-1 -1 -4 25.6 1.9
1 -1 4 30.2 5.1
-1 -1 -4 27.6 2.1
1 -1 4 26.5 2.2
1 -1 4 25.2 1.9
1 1 4 33.8 5
-1 1 -4 29.7 5.5
1 1 4 29 2
-1 1 -4 28.9 2.1
-1 1 -4 28.6 2.3
1 1 4 28.2 2.1
2 -1 4 205.48 6.7
-2 -1 -4 193.48 6.6
-2 -1 -4 196.78 6.3
2 -1 4 202.38 6.5
-2 -1 -4 192.78 5.6
2 -1 4 192.58 5.7
2 -1 4 196.18 11.1
2 1 4 203.38 10.9
2 1 4 207.48 6.7
-2 1 -4 207.08 6.6
2 1 4 198.48 6.5
2 1 4 206.28 5.5
-2 1 -4 199.98 6.6
-2 1 -4 196.58 11.7
-3 -1 -4 3608.64 88.89
3 -1 4 3646.34 95.79
3 -1 4 3642.34 88.59
-3 -1 -4 3439.56 86.99
3 -1 4 3567.64 87.49
-3 -1 -4 3662.83 88.29
3 1 4 3373.66 86.79
3 1 4 3836.72 95.59
-3 1 -4 3702.33 88.69
-3 1 -4 3824.32 88.69
-3 1 -4 3811.42 96.59
3 1 4 3714.73 88.39
3 1 4 3835.82 94.59
4 -1 4 329.67 10.1
4 -1 4 332.57 9.1
-4 -1 -4 329.17 10.6
-4 -1 -4 330.87 9.8
4 -1 4 342.67 10.1
4 1 4 330.27 15.2
-4 1 -4 341.87 17.7
-4 1 -4 330.47 10.2
4 1 4 339.27 10.9
4 1 4 313.47 15.6
-4 1 -4 325.07 10.3
4 1 4 329.37 9.9
5 -1 4 844.92 30.7
-5 -1 -4 857.61 23.6
5 -1 4 864.51 22.7
-5 -1 -4 871.11 22.4
5 -1 4 866.51 21.5
5 1 4 893.11 22.6
-5 1 -4 837.02 22.9
-5 1 -4 868.11 23
-5 1 -4 843.52 31.1
5 1 4 814.52 29.5
5 1 4 821.32 29.5
-6 -1 -4 257.17 9.8
6 -1 4 246.18 7.5
-6 -1 -4 265.27 8.5
6 -1 4 229.38 15.6
6 -1 4 251.87 8.8
-6 1 -4 264.47 9.1
6 1 4 268.37 15.9
-6 1 -4 279.77 17.8
-6 1 -4 268.17 9.4
6 1 4 259.57 8.6
6 1 4 266.07 15.4
7 -1 4 266.87 18.3
-7 -1 -4 258.37 8.4
7 -1 4 239.38 8.9
7 -1 4 239.58 7.2
-7 -1 -4 228.38 9.8
7 1 4 238.18 8.5
-7 1 -4 241.38 9.5
-7 1 -4 244.28 18.2
-7 1 -4 245.88 9
7 1 4 225.08 15.1
-7 1 -4 232.48 10.4
7 1 4 229.88 16.6
8 -1 4 49 11.6
-8 -1 -4 45.1 5.8
-8 -1 -4 50.89 4.4
8 -1 4 46.2 5.3
-8 1 -4 48.4 5
-8 1 -4 40.6 4.9
8 1 4 55.09 9.9
-8 1 -4 50.49 6.4
8 1 4 42 4.6
8 1 4 43.7 9.7
-8 1 -4 40.5 11.1
-9 -1 -4 285.77 12.7
-9 -1 -4 294.07 9.6
-9 -1 -4 314.67 15.4
9 -1 4 270.27 22.8
-9 1 -4 260.87 11.8
-9 1 -4 289.57 10.8
9 1 4 273.67 9.8
9 1 4 322.77 29.7
-9 1 -4 281.97 13.4
-9 1 -4 265.57 22.9
9 1 4 234.58 18.7
-10 -1 -4 63.49 5.1
-10 -1 -4 62.99 7.8
-10 1 -4 53.59 7.4
10 1 4 65.29 13.8
-10 1 -4 69.19 6.9
-10 1 -4 51.29 6
-10 1 -4 53.99 6.7
10 1 4 54.69 5.7
-11 -1 -4 8.9 6
-11 -1 -4 10.6 3.1
-11 1 -4 9.8 4.6
-11 1 -4 13.6 6.8
-11 -2 4 13.3 4.9
-11 -2 4 7.2 4.9
-11 -2 4 10.4 4.3
-11 2 4 10.3 4.6
-11 2 4 5 3.4
-10 -2 4 -0.3 4
-10 -2 4 -2.2 3.6
10 -2 -4 10.9 5.4
-10 -2 4 0.8 3.6
10 -2 -4 6.6 11.4
-10 2 4 -1.9 3.7
-10 2 4 -1.9 11
-10 2 4 -0.5 2.7
-10 2 4 -2.2 2.9
-9 -2 4 3.9 3.4
9 -2 -4 13.4 10.2
-9 -2 4 15.4 3.9
-9 -2 4 13.7 3.8
9 -2 -4 15.3 5
-9 2 4 12.2 2.8
-9 2 4 7.8 2.9
-9 2 4 18.6 9.7
-9 2 4 10.2 3.5
8 -2 -4 473.75 23.5
-8 -2 4 505.35 15.1
-8 -2 4 507.55 16.1
-8 -2 4 487.95 15.8
8 -2 -4 488.15 16.6
-8 2 4 517.05 14.6
-8 2 4 506.15 16.1
-8 2 4 486.15 14.8
-8 2 4 498.95 23.2
7 -2 -4 127.39 7.5
-7 -2 4 139.89 5.9
-7 -2 4 124.19 6.9
7 -2 -4 129.59 13.9
-7 2 4 130.89 6.9
-7 2 4 126.69 6.1
-7 2 4 135.59 13.7
-7 2 4 128.59 5.9
-6 -2 4 443.86 13.6
-6 -2 4 437.86 12.4
6 -2 -4 423.36 20.5
6 -2 -4 425.16 12.6
-6 2 4 440.16 13.8
-6 2 4 439.66 12.7
-6 2 4 436.36 13
-6 2 4 415.46 19.7
-5 -2 4 280.57 10.1
5 -2 -4 282.37 8.9
-5 -2 4 289.57 9.6
-5 -2 4 292.77 7.5
5 -2 -4 282.27 10.2
5 -2 -4 269.47 16.3
-5 -2 4 287.27 8.4
5 2 -4 256.97 12.5
-5 2 4 271.97 9.1
-5 2 4 275.27 9.6
5 2 -4 285.67 7.4
5 2 -4 274.87 7.5
-5 2 4 287.27 15.7
-5 2 4 276.77 8.9
-4 -2 4 275.97 7.3
4 -2 -4 228.28 18.3
-4 -2 4 261.57 7.5
4 -2 -4 274.87 9.4
4 -2 -4 237.38 8.9
-4 -2 4 260.07 10.5
-4 -2 4 266.87 9.1
-4 2 4 266.27 9
-4 2 4 251.17 8.5
4 2 -4 271.37 7.2
-4 2 4 265.97 9.4
-4 2 4 249.78 15
4 2 -4 261.67 11.6
-4 2 4 255.37 8.3
3 -2 -4 1698.53 41.4
-3 -2 4 1702.63 40.6
-3 -2 4 1747.23 41.9
3 -2 -4 1708.03 42.3
-3 -2 4 1597.94 40.2
-3 -2 4 1673.23 44.9
3 -2 -4 1615.14 39.9
-3 2 4 1620.84 41.3
3 2 -4 1651.03 46.1
-3 2 4 1637.04 41.9
3 2 -4 1661.03 40.6
3 2 -4 1612.44 40.9
3 2 -4 1687.33 41.4
-3 2 4 1730.03 41.7
3 2 -4 1641.34 40.3
-3 2 4 1703.23 42.3
-3 2 4 1646.04 48.3
2 -2 -4 2295.57 58.09
-2 -2 4 2337.87 61.79
-2 -2 4 2297.57 56.79
-2 -2 4 2393.86 57.79
2 -2 -4 2414.76 65.09
2 -2 -4 2404.06 57.49
-2 -2 4 2282.17 56.19
2 2 -4 2223.08 57.09
-2 2 4 2288.37 57.39
-2 2 4 2341.77 57.69
2 2 -4 2465.95 56.89
2 2 -4 2315.77 56.09
-2 2 4 2378.76 57.59
-2 2 4 2335.37 60.79
-2 2 4 2323.17 64.19
2 2 -4 2472.15 63.59
1 -2 -4 2446.16 57.79
1 -2 -4 2292.97 57.79
-1 -2 4 2380.26 57.59
-1 -2 4 2265.37 62.49
-1 -2 4 2363.36 56.99
1 -2 -4 2428.96 64.79
1 -2 -4 2239.98 57.19
-1 2 4 2349.46 57.69
-1 2 4 2304.67 57.29
1 2 -4 2367.96 56.19
-1 2 4 2221.58 57.29
1 2 -4 2401.06 57.29
1 2 -4 2435.76 64.29
1 2 -4 2249.18 57.19
-1 2 4 2456.05 64.49
-1 2 4 2320.97 57.39
0 -2 -4 476.85 13.9
0 -2 -4 511.95 19.9
0 -2 4 501.15 13.4
0 -2 4 483.35 18.9
0 -2 4 471.05 13.6
0 -2 -4 508.05 13.8
0 -2 -4 470.15 13.4
0 2 4 510.65 13.6
0 2 -4 478.05 13.7
0 2 4 466.85 13.3
0 2 -4 487.55 13.5
0 2 4 512.25 13.7
0 2 4 498.05 13.8
0 2 -4 477.15 19.8
0 2 4 490.35 19.3
1 -2 4 400.46 17.4
1 -2 4 420.26 11.5
-1 -2 -4 398.56 11.8
-1 -2 -4 390.16 11.4
-1 -2 -4 388.76 11.3
-1 -2 -4 375.76 17.1
1 -2 4 401.66 11.6
1 -2 4 400.56 11.1
1 2 4 385.86 11.6
-1 2 -4 386.96 11.7
1 2 4 399.86 11.8
-1 2 -4 403.86 11.4
1 2 4 418.76 17.3
-1 2 -4 399.76 18.4
1 2 4 406.06 11
-2 -2 -4 2412.66 62.19
2 -2 4 2637.34 70.19
2 -2 4 2543.85 61.89
-2 -2 -4 2496.15 61.29
-2 -2 -4 2557.34 69.39
2 -2 4 2527.15 61.39
-2 -2 -4 2428.16 61.59
2 -2 4 2481.95 61.89
-2 2 -4 2562.64 61.79
2 2 4 2522.25 60.99
2 2 4 2471.35 62.09
2 2 4 2604.84 61.89
-2 2 -4 2487.85 62.19
-2 2 -4 2649.73 71.29
2 2 4 2533.25 68.59
3 -2 4 1015.5 34.8
-3 -2 -4 1029.2 26.6
3 -2 4 1078.79 27.1
-3 -2 -4 1007.5 26.1
-3 -2 -4 1049.2 27.5
-3 -2 -4 1044.6 34.1
3 -2 4 1040.2 26.5
3 -2 4 1027.1 27
-3 2 -4 1037.9 27.1
3 2 4 1043.2 26.9
3 2 4 1035.1 27.5
-3 2 -4 1115.39 36.8
3 2 4 1044.1 25.7
-3 2 -4 1004.3 27.3
3 2 4 1024.5 33.1
4 -2 4 433.86 12.5
-4 -2 -4 419.76 11.7
4 -2 4 458.35 13.1
-4 -2 -4 434.36 12.6
-4 -2 -4 442.66 13.5
4 -2 4 439.66 13
4 -2 4 436.26 21.3
-4 2 -4 442.46 13.4
4 2 4 460.75 12.9
-4 2 -4 449.95 13
4 2 4 422.56 19.7
-4 2 -4 439.96 21.8
4 2 4 427.86 21.1
-5 -2 -4 2.2 1.4
5 -2 4 -0.9 7.4
5 -2 4 0.7 2
-5 -2 -4 0.7 2
-5 -2 -4 2.5 1.1
5 -2 4 0.4 1.9
5 -2 4 3.1 1.6
5 2 4 -1.1 6.4
-5 2 -4 1.2 7.8
-5 2 -4 1.9 1.8
-5 2 -4 -0.4 1.9
5 2 4 1.1 1.9
5 2 4 -1.1 2.6
5 2 4 2.1 5.7
-6 -2 -4 199.88 5.6
-6 -2 -4 200.78 8.8
-6 -2 -4 204.48 7.3
6 -2 4 202.38 8.1
-6 2 -4 190.38 8.1
6 2 4 188.78 9.2
6 2 4 184.68 14.5
6 2 4 212.08 15.4
-6 2 -4 203.18 8
6 2 4 211.18 7.7
7 -2 4 107.79 6.2
-7 -2 -4 124.09 7.2
7 -2 4 126.69 16.6
-7 -2 -4 110.49 5.6
7 -2 4 102.99 6.6
7 2 4 110.39 6
-7 2 -4 123.39 6.6
-7 2 -4 120.79 16.8
-7 2 -4 118.29 6.8
-7 2 -4 109.39 6.4
7 2 4 151.28 15.2
7 2 4 113.49 13.2
-8 -2 -4 107.39 8.1
8 -2 4 116.29 16.5
-8 -2 -4 109.19 5.4
8 -2 4 108.19 5.9
8 2 4 106.79 13.3
-8 2 -4 95.49 14.9
8 2 4 105.19 6.1
-8 2 -4 104.89 7.1
-8 2 -4 98.69 7
8 2 4 133.19 14.9
-8 2 -4 97.19 6.6
9 -2 4 52.19 5.3
-9 -2 -4 47.8 6.4
-9 -2 -4 44.2 4.4
-9 2 -4 51.79 5.5
-9 2 -4 53.39 5.3
9 2 4 48.9 5.5
-9 2 -4 64.19 7
9 2 4 51.99 12.7
-9 2 -4 54.79 23.1
-10 -2 -4 136.29 11.1
-10 -2 -4 115.09 5.9
10 2 4 102.69 15.4
-10 2 -4 100.39 9.1
10 2 4 115.59 6.5
-10 2 -4 133.69 12.1
-10 2 -4 114.59 9.5
-11 -2 -4 31.5 3.2
-11 -2 -4 40.6 7.8
-11 2 -4 37.9 5.9
-11 2 -4 31.1 8.5
-11 -3 4 21 6.7
-11 -3 4 17.5 5.3
-11 -3 4 15.8 5.2
-11 3 4 15.7 6.8
-11 3 4 15.8 5
-10 -3 4 19.8 5.5
-10 -3 4 17.1 4.1
-10 -3 4 24.5 5.3
-10 3 4 18.6 4.9
-10 3 4 9.2 5
-9 -3 4 34 4.6
-9 -3 4 34.2 5.6
-9 3 4 23.1 20.4
-9 3 4 28 4.6
-9 3 4 37.2 4.4
-9 3 4 41.5 5.2
8 -3 -4 227.28 11.8
-8 -3 4 235.58 9
-8 -3 4 250.87 11.1
8 -3 -4 235.88 21.7
-8 3 4 219.08 21.4
-8 3 4 247.28 10.7
-8 3 4 241.98 9.6
-8 3 4 232.28 9.8
7 -3 -4 3.1 11.1
-7 -3 4 30.3 3.5
7 -3 -4 37.3 5.4
-7 -3 4 19.2 4.2
-7 -3 4 22.6 4.1
-7 3 4 30 4.3
-7 3 4 26.7 3.6
-7 3 4 21.8 11.2
7 3 -4 27 5.9
-6 -3 4 125.19 13.6
6 -3 -4 93.59 13.5
-6 -3 4 116.19 7.2
6 -3 -4 111.49 7.8
6 -3 -4 103.69 5.8
-6 -3 4 101.89 5.1
6 3 -4 97.09 11.4
-6 3 4 112.49 8
-6 3 4 119.49 6.7
-6 3 4 107.59 13.9
-6 3 4 108.29 6
6 3 -4 110.29 4.4
-6 3 4 94.29 7.3
6 3 -4 115.69 4.2
5 -3 -4 1405.76 37.4
-5 -3 4 1442.56 38.1
-5 -3 4 1422.26 41.1
5 -3 -4 1466.75 37.3
-5 -3 4 1404.16 35.7
5 -3 -4 1430.26 38.6
-5 -3 4 1417.46 36.2
5 3 -4 1386.36 43
-5 3 4 1490.35 37.4
-5 3 4 1473.25 47.9
-5 3 4 1372.46 37.7
-5 3 4 1447.36 38.9
-5 3 4 1524.35 37.8
5 3 -4 1494.05 36.2
5 3 -4 1477.25 35.7
5 3 -4 1444.46 36.4
-4 -3 4 562.94 17.1
4 -3 -4 553.94 14.3
4 -3 -4 576.44 17.5
-4 -3 4 569.04 15.1
4 -3 -4 571.74 16.4
-4 -3 4 558.34 15.3
-4 -3 4 591.84 21.1
4 -3 -4 522.45 25.3
-4 3 4 564.64 16.4
-4 3 4 585.24 16.7
-4 3 4 527.35 25.3
-4 3 4 586.14 17.7
-4 3 4 554.04 16.8
4 3 -4 548.35 23
4 3 -4 565.64 15.7
4 3 -4 575.24 15.3
4 3 -4 571.14 15.2
3 -3 -4 529.55 13.7
3 -3 -4 543.95 24.4
-3 -3 4 505.55 14.1
3 -3 -4 519.45 15.1
-3 -3 4 518.35 15.5
3 3 -4 529.85 14.3
-3 3 4 513.55 15.4
-3 3 4 505.65 23.3
3 3 -4 519.15 22.7
-3 3 4 528.55 15.4
3 3 -4 514.55 13.8
-3 3 4 520.55 15.1
3 3 -4 508.75 14.7
-2 -3 4 86.89 4
2 -3 -4 96.39 11.8
2 -3 -4 87.29 4.6
2 -3 -4 84.79 5.2
2 -3 -4 86.79 3.7
-2 -3 4 82.09 4.9
-2 -3 4 87.79 9.9
2 3 -4 79.69 5.3
-2 3 4 83.29 4.5
-2 3 4 79.19 4.6
-2 3 4 79.09 4.7
-2 3 4 88.09 5.2
2 3 -4 91.69 4.2
2 3 -4 97.59 12
2 3 -4 83.59 3.5
-2 3 4 94.69 12
1 -3 -4 1117.69 29.4
-1 -3 4 1116.29 28.4
1 -3 -4 1069.69 37.5
1 -3 -4 1126.49 29
-1 -3 4 1113.49 28.6
-1 -3 4 1090.89 29.1
1 -3 -4 1093.79 29.6
1 3 -4 1158.08 28.5
-1 3 4 1113.49 28.8
1 3 -4 1100.49 28.7
-1 3 4 1081.29 28.9
1 3 -4 1120.39 27.9
1 3 -4 1089.49 37.6
1 3 -4 1086.99 28.9
-1 3 4 1104.09 28.8
-1 3 4 1106.29 37.8
-1 3 4 1091.29 29.3
0 -3 -4 775.12 22.1
0 -3 4 800.82 21.7
0 -3 4 693.23 23.6
0 -3 -4 802.72 21.5
0 -3 -4 801.42 21.9
0 -3 -4 801.02 30
0 -3 4 829.72 21.4
0 -3 4 778.72 28.6
0 3 -4 768.12 21.7
0 3 -4 834.22 21.4
0 3 4 818.02 21.6
0 3 4 804.52 21.9
0 3 4 801.72 21.5
0 3 4 808.62 21.3
0 3 4 738.53 29.1
0 3 -4 812.22 21.3
0 3 -4 806.42 20.9
0 3 -4 797.62 30.7
-1 -3 -4 1838.22 46.8
1 -3 4 1843.32 47
-1 -3 -4 1849.61 47
1 -3 4 1823.92 55.39
-1 -3 -4 1845.52 47.5
1 -3 4 1882.31 46.7
1 -3 4 1881.31 46.7
-1 -3 -4 1882.21 56.19
1 3 4 1856.01 55.49
1 3 4 1932.01 47.3
1 3 4 1826.42 46.7
-1 3 -4 1908.51 57.89
1 3 4 1874.81 46.4
-1 3 -4 1928.01 46.7
-1 3 -4 1905.81 46.9
-1 3 -4 1833.02 47.3
1 3 4 1839.32 46.9
-1 3 -4 1875.71 46.7
2 -3 4 826.42 22.5
-2 -3 -4 814.52 22.9
-2 -3 -4 849.81 31.4
2 -3 4 866.11 31.5
2 -3 4 824.22 22.2
2 -3 4 825.62 22.3
-2 -3 -4 833.82 22.3
-2 -3 -4 804.22 22.1
2 3 4 810.32 22
-2 3 -4 845.42 22.5
-2 3 -4 830.32 22.9
2 3 4 834.32 22.4
2 3 4 823.22 22.7
-2 3 -4 796.92 22
-2 3 -4 841.32 33.3
2 3 4 786.22 29.9
2 3 4 820.52 21.5
-3 -3 -4 19.3 2.4
-3 -3 -4 14 2.8
3 -3 4 16.9 8.1
3 -3 4 15.4 2.6
3 -3 4 16.8 2.7
3 -3 4 16.1 2.6
3 3 4 12.6 7.7
-3 3 -4 9.5 2.4
-3 3 -4 19.4 2.9
3 3 4 16.2 2.6
-3 3 -4 15.2 2.3
3 3 4 11.5 1.9
3 3 4 14.7 2.1
-3 3 -4 9.3 9.3
-4 -3 -4 512.45 24.6
4 -3 4 533.15 15.7
-4 -3 -4 535.55 15.4
-4 -3 -4 558.64 15.2
4 -3 4 531.15 15.9
4 -3 4 532.25 25.7
-4 -3 -4 535.85 16.4
4 -3 4 562.94 15.9
-4 3 -4 520.25 16.4
-4 3 -4 545.05 16.1
4 3 4 541.65 23.5
4 3 4 541.65 15.7
4 3 4 522.55 16.5
-4 3 -4 512.15 15.4
-4 3 -4 522.05 26.3
4 3 4 527.05 15.3
5 -3 4 169.18 17.3
5 -3 4 154.68 7.3
5 -3 4 157.68 7
-5 -3 -4 162.58 6.2
5 -3 4 152.88 7.2
-5 -3 -4 159.98 6.7
-5 -3 -4 154.08 7.7
5 3 4 156.18 8.1
-5 3 -4 157.08 6.9
5 3 4 147.89 8.7
-5 3 -4 154.18 7.7
-5 3 -4 164.98 18.1
5 3 4 160.38 14.4
-5 3 -4 150.78 7.4
5 3 4 142.19 6.9
-6 -3 -4 44.5 4.3
6 -3 4 42.1 7.4
-6 -3 -4 42.7 5.5
6 -3 4 43.1 4.8
6 -3 4 34 4.1
6 -3 4 37.4 12.8
-6 -3 -4 43.5 3.6
-6 3 -4 46.8 4.8
6 3 4 46.1 5.1
6 3 4 42.2 4.1
-6 3 -4 30.2 14
6 3 4 43.1 10.1
6 3 4 53.89 6.8
-6 3 -4 43.7 5.2
-6 3 -4 44.1 4.9
6 3 4 45.5 11.4
-7 -3 -4 45.4 4.4
7 -3 4 7.2 13
-7 -3 -4 44.7 3.5
7 -3 4 43.5 4.9
-7 -3 -4 56.89 6.6
-7 3 -4 49 6.1
7 3 4 42.8 4.1
-7 3 -4 51.29 19.2
7 3 4 49 4.7
-7 3 -4 34.7 4.5
7 3 4 32.5 10.6
7 3 4 43.4 11.7
8 -3 4 91.39 7.8
-8 -3 -4 118.99 6
-8 -3 -4 115.49 9
-8 3 -4 102.29 23.3
8 3 4 114.69 5.7
-8 3 -4 106.09 7.1
8 3 4 95.39 14.6
8 3 4 104.69 7.2
-8 3 -4 114.49 8.3
-9 -3 -4 107.09 10
-9 -3 -4 100.29 6
9 -3 4 75.39 8.3
-9 3 -4 96.99 7.9
-9 3 -4 101.19 10.2
-9 3 -4 97.39 9
-10 -3 -4 55.29 5.5
-10 -3 -4 72.99 8.9
-10 3 -4 49.2 6.8
-10 -4 4 -1 4.4
-10 -4 4 13.7 7.3
-10 4 4 3.4 5.5
-10 4 4 -0.6 4.8
-9 -4 4 94.89 7.6
-9 -4 4 103.89 10.7
-9 4 4 93.19 10
-9 4 4 82.89 8.3
-8 -4 4 11.4 5.9
-8 -4 4 9.4 3.8
-8 -4 4 13.2 3.6
-8 4 4 5.1 4.2
-8 4 4 3 4.3
-8 4 4 8.5 5.5
-7 -4 4 204.38 15.3
-7 -4 4 238.08 11.6
-7 -4 4 231.08 9.6
-7 -4 4 225.88 9.1
7 4 -4 234.98 8.1
-7 4 4 227.68 10.1
-7 4 4 267.37 28.1
-7 4 4 218.08 11.2
-7 4 4 244.68 10.9
7 4 -4 193.48 19.1
7 4 -4 225.18 7.8
-6 -4 4 1.5 2.2
-6 -4 4 1.5 2.9
-6 -4 4 9.2 7.5
6 -4 -4 -0.2 2.9
6 -4 -4 1.3 13.4
-6 -4 4 3.8 4.1
-6 4 4 0.4 3.5
6 4 -4 -1.1 2.3
-6 4 4 4 3
-6 4 4 -0.1 3.5
-6 4 4 7.9 13.9
6 4 -4 2.3 2.4
6 4 -4 7 10.4
6 4 -4 -1.1 2.7
5 -4 -4 209.08 21.5
-5 -4 4 194.08 7.2
-5 -4 4 197.88 8.3
5 -4 -4 194.58 6.4
-5 -4 4 204.68 7.8
-5 -4 4 203.68 9.7
5 -4 -4 196.38 8.6
5 4 -4 201.38 7.8
5 4 -4 203.98 8.1
5 4 -4 159.28 17.8
5 4 -4 189.98 7.5
-5 4 4 209.28 8.8
-5 4 4 203.98 9.3
-5 4 4 197.38 9.1
-5 4 4 186.78 20.8
4 -4 -4 7.9 2
-4 -4 4 8.1 2.4
-4 -4 4 6.1 2.7
-4 -4 4 11.6 4
4 -4 -4 13.2 11.4
4 -4 -4 7 2.7
-4 -4 4 2.8 2.1
-4 -4 4 15.2 7.6
4 -4 -4 11.1 4.4
-4 4 4 -1.3 10.5
-4 4 4 7.9 2.7
4 4 -4 -10.4 9.4
-4 4 4 11 4.2
-4 4 4 5.4 3
-4 4 4 7.8 3
4 4 -4 8.8 2.4
-3 -4 4 167.08 6.5
-3 -4 4 159.98 6.5
3 -4 -4 155.58 7.4
3 -4 -4 152.58 8.5
-3 -4 4 153.18 7.9
3 -4 -4 154.68 5.9
-3 -4 4 153.58 7
3 -4 -4 154.38 17.9
-3 -4 4 133.19 13.9
-3 4 4 150.48 7.5
-3 4 4 158.88 8.6
-3 4 4 129.49 16.4
-3 4 4 152.08 7.3
3 4 -4 158.28 6.7
-3 4 4 165.18 7.6
3 4 -4 156.98 18.6
3 4 -4 165.48 7.2
3 4 -4 155.18 6
-2 -4 4 546.75 16.8
2 -4 -4 547.05 27.2
2 -4 -4 537.05 14.8
-2 -4 4 509.75 23.6
2 -4 -4 518.75 17.1
2 -4 -4 532.95 16.2
-2 -4 4 430.36 17.9
-2 -4 4 539.25 15.8
-2 4 4 522.45 16.3
-2 4 4 536.85 16
-2 4 4 499.05 26.6
2 4 -4 527.25 15.4
-2 4 4 535.95 17
2 4 -4 534.15 26.8
-2 4 4 528.25 16.1
2 4 -4 518.85 16
2 4 -4 539.15 15
1 -4 -4 337.47 11.4
1 -4 -4 323.97 12.2
-1 -4 4 327.37 11.6
-1 -4 4 360.46 20
1 -4 -4 326.87 10.4
-1 -4 4 338.77 11.3
1 -4 -4 327.77 21.5
1 -4 -4 323.17 12.2
-1 -4 4 333.97 10.8
-1 4 4 330.27 11.3
1 4 -4 310.67 10.9
1 4 -4 327.87 10.4
-1 4 4 331.27 12
-1 4 4 324.97 21.5
-1 4 4 345.07 11.3
1 4 -4 330.97 23.2
1 4 -4 332.87 11.5
-1 4 4 321.57 11.5
1 4 -4 324.57 11.1
0 -4 4 21.4 3.4
0 -4 -4 28.4 4.2
0 -4 4 23.2 3.1
0 -4 -4 6.9 9.1
0 -4 4 18.8 3.2
0 -4 -4 15.7 3.4
0 -4 -4 17.6 2.9
0 -4 4 32.8 9.8
0 4 4 25.6 3.3
0 4 -4 25.6 3.2
0 4 4 18.6 2.8
0 4 4 27 3.4
0 4 4 22.1 9.9
0 4 -4 16.7 2.9
0 4 4 24.4 3.6
0 4 -4 8.1 12.8
0 4 -4 18.1 3
0 4 -4 22.1 3.3
1 -4 4 173.48 16.7
-1 -4 -4 160.88 17.1
1 -4 4 152.08 7
1 -4 4 162.68 7.5
-1 -4 -4 165.28 7.2
-1 -4 -4 160.58 7.7
1 -4 4 177.08 7.7
-1 -4 -4 162.68 8.2
-1 4 -4 151.78 19.3
1 4 4 160.38 7.5
1 4 4 157.98 7
-1 4 -4 159.38 7.2
1 4 4 123.49 19.4
-1 4 -4 156.88 7
1 4 4 162.18 7.6
-1 4 -4 156.48 7.3
1 4 4 158.08 6.8
-1 4 -4 168.48 7.8
2 -4 4 39.3 4.5
-2 -4 -4 42.7 11
-2 -4 -4 33.8 4
-2 -4 -4 42.1 5
-2 -4 -4 42.5 4.2
2 -4 4 30.6 3.6
2 -4 4 31.6 10.5
2 -4 4 26.2 3.8
2 4 4 42.9 10.8
-2 4 -4 35.2 4.3
-2 4 -4 38.4 4.2
-2 4 -4 36.4 4.2
2 4 4 35.8 4.2
2 4 4 31.6 3.6
2 4 4 30.8 3.8
2 4 4 33.9 4.2
-2 4 -4 37.3 12.7
3 -4 4 343.87 12.2
3 -4 4 366.16 23.7
-3 -4 -4 346.47 11.5
-3 -4 -4 360.16 23
-3 -4 -4 330.57 12.5
3 -4 4 342.47 11.8
3 -4 4 325.47 11.7
3 4 4 370.96 11.5
-3 4 -4 308.97 11.7
3 4 4 335.17 11.9
3 4 4 342.07 12.3
-3 4 -4 334.17 12.6
-3 4 -4 327.27 11.2
3 4 4 322.87 21.3
-3 4 -4 385.36 25.7
4 -4 4 -3.8 2.7
4 -4 4 18.8 11.3
-4 -4 -4 -5.2 9.5
-4 -4 -4 6 3.3
-4 -4 -4 -1.1 2.7
-4 -4 -4 2.3 2.3
4 -4 4 1.5 3.3
4 -4 4 2 3
-4 4 -4 4.1 2.9
-4 4 -4 -5.7 2.8
4 4 4 -2.8 2.2
4 4 4 -7.1 9.2
-4 4 -4 8.7 12.3
4 4 4 3.1 3
-4 4 -4 -0.9 2.4
4 4 4 -3.6 3.3
-5 -4 -4 579.84 16.8
5 -4 4 559.74 17.8
-5 -4 -4 555.04 16.6
-5 -4 -4 580.34 18.4
5 -4 4 540.75 17.1
5 -4 4 609.74 32.4
-5 4 -4 569.44 18.4
-5 4 -4 553.14 34.9
5 4 4 546.25 17.1
5 4 4 524.05 18.1
5 4 4 527.35 27.1
-5 4 -4 522.95 17.5
5 4 4 573.54 16.5
-5 4 -4 540.75 16.4
6 -4 4 167.98 8.4
6 -4 4 209.38 25.4
6 -4 4 164.48 9.4
-6 -4 -4 167.88 7.9
-6 -4 -4 177.98 9.8
-6 -4 -4 155.38 7.7
-6 4 -4 175.28 9.7
6 4 4 171.98 7.7
-6 4 -4 153.88 9
6 4 4 148.89 19.6
-6 4 -4 156.18 7.7
-6 4 -4 168.28 23.2
7 -4 4 74.19 8.2
-7 -4 -4 88.39 8.2
-7 -4 -4 76.89 6
7 -4 4 75.59 6.9
-7 -4 -4 85.39 6.2
7 4 4 95.59 19.2
7 4 4 73.39 8.5
-7 4 -4 71.19 8.5
-7 4 -4 70.99 8.5
-7 4 -4 75.69 6.6
-8 -4 -4 6.4 3.5
-8 -4 -4 11 3.5
8 -4 4 3.7 9.7
-8 -4 -4 10.7 5.9
-8 4 -4 7.9 4.3
-8 4 -4 10.7 5.5
-8 4 -4 2.9 5.1
8 4 4 4.2 3.1
-9 -4 -4 78.39 8.5
-9 4 -4 74.09 8.3
-9 -5 4 6 4.7
-9 -5 4 8.8 8.3
-9 5 4 -4.3 5.7
-9 5 4 -3.5 5.3
-8 -5 4 93.79 8.8
-8 -5 4 102.49 12
-8 5 4 100.79 9.7
-8 5 4 88.19 9.8
-7 -5 4 8.7 6.5
-7 -5 4 3.8 4
-7 5 4 6.8 5.1
-7 5 4 12.9 5.9
-7 5 4 -1.1 4.8
7 5 -4 -4.3 3.5
-6 -5 4 117.69 7.7
6 -5 -4 112.29 7.6
-6 -5 4 161.48 11.3
-6 5 4 115.29 10.9
-6 5 4 126.09 9.9
6 5 -4 138.59 8.2
6 5 -4 124.99 8.2
-6 5 4 123.49 9.2
-5 -5 4 16.3 3.7
-5 -5 4 19.4 5.9
5 -5 -4 26.2 17
5 -5 -4 11.4 4.3
5 -5 -4 18.1 3.1
-5 -5 4 14.7 3.4
5 5 -4 16.2 4.3
5 5 -4 3.7 30
-5 5 4 22.6 4.6
-5 5 4 19.8 4.9
5 5 -4 26.6 4.1
-5 5 4 21 4.7
-5 5 4 28.5 18.8
-4 -5 4 265.87 10.3
4 -5 -4 262.87 11.3
-4 -5 4 293.07 12.7
-4 -5 4 258.17 10.2
4 -5 -4 280.57 28
4 -5 -4 257.07 9.2
-4 5 4 275.17 11.4
-4 5 4 280.97 12.2
4 5 -4 277.47 10.1
4 5 -4 274.17 27.5
-4 5 4 266.17 25.7
-4 5 4 285.37 11.7
4 5 -4 301.97 11.5
3 -5 -4 111.69 7.5
3 -5 -4 118.19 6.2
-3 -5 4 93.59 6.5
3 -5 -4 121.49 19.2
-3 -5 4 127.59 8.6
-3 5 4 108.89 7.8
-3 5 4 120.99 7.7
3 5 -4 114.59 6.5
3 5 -4 128.59 7.8
3 5 -4 108.89 18.4
-3 5 4 103.89 7.8
-3 5 4 131.09 18.4
2 -5 -4 341.47 13.1
2 -5 -4 355.16 11.9
2 -5 -4 397.26 27.8
-2 -5 4 353.06 12.3
-2 -5 4 351.66 24.4
-2 -5 4 348.37 13.9
-2 5 4 363.96 12.9
2 5 -4 340.47 27.6
2 5 -4 359.66 13.3
2 5 -4 362.46 11.9
-2 5 4 382.16 28.9
-2 5 4 357.56 13.1
1 -5 -4 6.9 3
1 -5 -4 8.4 3.3
-1 -5 4 10.6 3.3
-1 -5 4 7.9 3.8
1 -5 -4 9.9 3.9
-1 -5 4 -3.3 13.6
1 5 -4 7.8 3.7
-1 5 4 9.7 3.4
-1 5 4 5.3 3.2
-1 5 4 5.5 3.9
1 5 -4 26.9 14.8
-1 5 4 8.9 4.9
1 5 -4 9.5 5.1
-1 5 4 -0.2 14.1
0 -5 -4 181.58 9.9
0 -5 4 199.88 20.7
0 -5 -4 168.08 9.8
0 -5 -4 216.78 9.1
0 -5 -4 196.18 9.2
0 -5 -4 209.98 23.2
0 -5 4 195.78 9.7
0 -5 4 187.58 8.6
0 5 4 182.28 9.6
0 5 -4 205.88 10
0 5 -4 199.58 8.9
0 5 4 204.78 8.7
0 5 4 195.28 9.1
0 5 4 205.98 24
0 5 -4 194.98 24.3
1 -5 4 0 2.9
-1 -5 -4 -3 2.7
-1 -5 -4 -2.1 2.8
1 -5 4 4.2 11.4
1 -5 4 3.4 3.5
-1 -5 -4 -9.9 13.2
-1 -5 -4 2.5 4
-1 -5 -4 -0.9 4
1 5 4 0.6 2.6
-1 5 -4 -1.3 3.2
-1 5 -4 2.1 3.3
1 5 4 1.6 3.1
-1 5 -4 8.2 16.7
1 5 4 -3.4 13.3
-1 5 -4 1.4 3.3
1 5 4 2.6 3.2
2 -5 4 311.17 12.3
2 -5 4 351.26 26.4
-2 -5 -4 327.87 13.3
-2 -5 -4 352.06 12.7
-2 -5 -4 333.07 12.3
-2 -5 -4 333.17 26.7
-2 -5 -4 333.87 13.6
2 -5 4 349.47 12.9
-2 5 -4 305.27 11.9
-2 5 -4 337.67 13.3
2 5 4 346.57 12.5
2 5 4 338.07 11.6
2 5 4 354.86 14.8
2 5 4 300.47 25.8
-2 5 -4 355.36 31.1
-2 5 -4 348.97 13.7
-3 -5 -4 5.7 4.2
-3 -5 -4 6.9 4.2
-3 -5 -4 27.9 14.6
3 -5 4 18.1 14.5
3 -5 4 13.5 3.8
-3 -5 -4 7.5 3.3
3 5 4 7.4 3.2
-3 5 -4 4.4 4.2
3 5 4 -4.8 13.1
-3 5 -4 10.7 3.6
-3 5 -4 -6.9 20
-3 5 -4 6 4.6
-4 -5 -4 141.59 9.3
4 -5 4 159.68 8.8
-4 -5 -4 154.68 8.3
-4 -5 -4 164.68 10.5
4 -5 4 177.78 23
-4 5 -4 168.68 10.2
4 5 4 167.08 8.1
4 5 4 115.29 18
-4 5 -4 138.69 23.2
-4 5 -4 159.48 8.4
-5 -5 -4 4.2 4.5
5 -5 4 0.8 3.7
5 -5 4 10.2 17.7
-5 -5 -4 -11.4 4.3
-5 -5 -4 -0.8 3.3
-5 5 -4 28.4 21.1
5 5 4 3.6 3.1
-5 5 -4 -9.9 6.9
-5 5 -4 -4.1 3.7
-6 -5 -4 119.49 10.2
-6 -5 -4 106.79 9
-6 -5 -4 112.39 8.2
6 -5 4 104.89 8.3
6 5 4 121.89 7.6
-6 5 -4 108.39 10.2
-6 5 -4 93.39 8
-7 -5 -4 -7 3.7
-7 -5 -4 0 5.3
7 -5 4 -12.4 4.1
7 5 4 4.6 3.6
-7 5 -4 -1.4 6
-8 -5 -4 69.79 8.2
8 -5 4 63.19 6.6
-8 -5 -4 65.59 8.7
-8 5 -4 75.39 8.7
-7 -6 4 44.3 6.7
-7 -6 4 39.2 9.6
-7 6 4 39.7 7.6
-7 6 4 50.69 7.4
-6 -6 4 4.1 4.6
-6 -6 4 -12 6.4
-6 6 4 7.8 5.2
-6 6 4 -6.8 6
-5 -6 4 126.09 12.7
5 -6 -4 111.29 7
-5 -6 4 115.69 8.7
-5 6 4 104.79 10.8
5 6 -4 119.19 10.2
-5 6 4 123.49 9.8
4 -6 -4 9.5 7.1
4 -6 -4 13.5 3.7
-4 -6 4 14.2 6.3
-4 -6 4 9.6 4.7
4 6 -4 17.7 5.2
-4 6 4 5.1 5.4
-4 6 4 20.2 5.7
4 6 -4 4 4.5
-3 -6 4 89.59 10.4
3 -6 -4 104.09 24.7
3 -6 -4 81.69 7
3 -6 -4 93.79 12.5
-3 -6 4 69.09 6.6
3 6 -4 94.49 8.8
-3 6 4 92.09 9.6
3 6 -4 79.29 7.8
-3 6 4 81.39 24.1
-3 6 4 79.99 8.4
2 -6 -4 8.5 20
-2 -6 4 57.09 6
2 -6 -4 50.49 5.2
-2 -6 4 54.09 7.8
-2 -6 4 58.49 18.2
-2 6 4 63.29 7.8
-2 6 4 44.6 6.2
-2 6 4 59.79 22.8
2 6 -4 53.59 27.4
2 6 -4 57.79 7
2 6 -4 53.79 5.9
1 -6 -4 154.08 25.5
-1 -6 4 148.09 9.6
1 -6 -4 172.08 9.2
1 -6 -4 141.79 15.2
-1 -6 4 169.08 13.2
-1 6 4 140.09 9.4
-1 6 4 161.08 10
1 6 -4 160.78 10.2
-1 6 4 158.58 26.7
1 6 -4 139.29 9.3
1 6 -4 94.89 26.3
0 -6 4 -10.8 18.9
0 -6 -4 20.2 4.7
0 -6 4 11.7 5.4
0 -6 -4 2.6 5.7
0 -6 -4 5.1 18.8
0 -6 -4 6.7 4.8
0 6 -4 9.7 5.1
0 6 -4 44.7 22
0 6 -4 7.7 5
0 6 4 11.3 7.6
0 6 4 9.8 4.5
0 6 4 17.1 19.4
1 -6 4 187.18 11.3
-1 -6 -4 178.98 12.2
-1 -6 -4 187.78 10.7
-1 -6 -4 174.38 10.3
1 -6 4 190.78 25.5
-1 6 -4 204.48 12.1
1 6 4 197.78 10.4
-1 6 -4 189.68 29.7
1 6 4 170.08 24.6
-2 -6 -4 52.79 22.2
2 -6 4 -0.4 4.6
-2 -6 -4 -5.1 7.1
2 -6 4 18.6 20.9
-2 6 -4 -2.2 5.4
-2 6 -4 32.6 25.5
2 6 4 11.7 19.8
-3 -6 -4 93.09 10.8
3 -6 4 129.59 28.1
-3 -6 -4 115.19 9.1
3 -6 4 102.79 10.1
-3 6 -4 114.29 11.6
-3 6 -4 61.79 28.6
3 6 4 118.29 8.5
-4 -6 -4 27 5.7
4 -6 4 35.6 6.4
-4 -6 -4 32.1 7.6
-4 -6 -4 40.2 6.7
-4 6 -4 18.3 7.2
4 6 4 23.3 5.2
-5 -6 -4 48.4 6.3
5 -6 4 54.99 7.6
-5 -6 -4 56.49 9.1
-5 -6 -4 68.89 8.7
5 6 4 53.39 6.3
-5 6 -4 55.99 9.4
-6 -6 -4 7 7.6
6 -6 4 -13.7 5.4
-6 -6 -4 0.5 4.7
-6 -6 -4 0.5 6.5
6 6 4 -2.2 5.2
-6 6 -4 3.6 7.3
3 -7 -4 17.3 5.7
-3 -7 4 14.6 8.4
3 -7 -4 17.1 8.3
3 7 -4 21.5 7.2
-3 7 4 17.6 8
-3 7 4 19.9 6.4
2 -7 -4 36.5 6.5
2 -7 -4 35.4 8.3
-2 -7 4 35.2 8.3
-2 7 4 40.5 6.9
2 7 -4 29.5 7.8
-2 7 4 41.4 8.7
1 -7 -4 26.9 7.3
1 -7 -4 25.3 6.8
-1 -7 4 31.2 8.9
1 7 -4 33.5 7.9
-1 7 4 7.3 38.5
-1 7 4 36 7.6
-1 7 4 34.6 7
0 -7 4 77.69 9.3
0 -7 -4 71.79 8.5
0 -7 -4 71.39 8.3
0 7 4 72.49 8.6
0 7 -4 82.89 10.5
-1 -7 -4 36.1 7.5
-1 -7 -4 30.3 6.9
1 -7 4 26 8.2
1 7 4 21.8 7
-1 7 -4 36.8 9.5
-2 -7 -4 24.1 7.7
-2 -7 -4 47.1 8.9
2 -7 4 36.5 8.5
-2 -7 -4 28.5 6.7
-2 7 -4 41.3 9.5
2 7 4 32.1 7.7
-12 0 5 -3.1 3.8
-12 0 5 2.4 6.1
-12 0 5 -6 4.4
-11 0 5 119.69 8.3
-11 0 5 114.19 6.7
-11 0 5 104.99 10
-10 0 5 -2.9 2.5
-10 0 5 3.2 3.5
-9 0 5 247.58 8.5
-9 0 5 256.77 10.5
-8 0 5 1 1.8
-8 0 5 3.2 2.4
-7 0 5 321.37 9.4
-7 0 5 307.27 10.9
-6 0 5 2.6 0.8
-6 0 5 2.4 2.5
-6 0 5 1.6 1.9
-6 0 5 2.2 2.2
-6 0 5 0.4 0.9
-5 0 5 1582.54 37.9
-5 0 5 1629.34 40.7
-5 0 5 1560.54 38
-5 0 5 1539.45 41
-5 0 5 1586.24 40.2
-5 0 5 1528.15 38.4
-4 0 5 1.8 2.4
-4 0 5 2.5 1.6
-4 0 5 0.6 0.9
-4 0 5 1 0.8
4 0 -5 1.9 0.8
-4 0 5 2.5 2.3
-3 0 5 1584.44 41.5
-3 0 5 1538.85 38.7
-3 0 5 1537.05 37.4
-3 0 5 1559.24 37.5
-3 0 5 1522.25 37.6
3 0 -5 1509.75 37.3
3 0 -5 1544.85 37.3
-3 0 5 1490.15 40.9
-2 0 5 1.1 0.8
-2 0 5 0.4 1.2
2 0 -5 0.7 0.7
-2 0 5 1 0.8
2 0 -5 0.3 0.8
-2 0 5 1.7 0.7
-2 0 5 2.8 2.8
-2 0 5 -3.8 2.4
1 0 -5 260.97 7.7
1 0 -5 265.07 7.2
1 0 -5 265.57 11.4
-1 0 5 271.17 7.2
-1 0 5 261.17 7.7
-1 0 5 270.07 11.8
1 0 -5 262.47 7.6
-1 0 5 271.77 7.7
0 0 5 0.8 0.8
0 0 5 0.5 0.8
0 0 -5 2.4 0.7
0 0 -5 0.7 3.1
0 0 5 0.3 3.1
0 0 -5 1.4 0.7
0 0 5 1.6 0.6
0 0 -5 2 0.8
-1 0 -5 3610.24 85.79
1 0 5 3569.94 91.89
1 0 5 3613.94 85.79
-1 0 -5 3461.95 85.69
1 0 5 3554.54 85.69
1 0 5 3439.96 85.39
-1 0 -5 3649.14 91.99
-2 0 -5 1.2 4.6
2 0 5 -0.7 0.9
-2 0 -5 3.1 1.2
-2 0 -5 6.3 1.3
2 0 5 0 0.9
-2 0 -5 -0.4 1.1
2 0 5 1.6 3.9
-3 0 -5 1637.54 43.7
-3 0 -5 1790.42 43
-3 0 -5 1764.92 49.9
-3 0 -5 1711.73 42.6
3 0 5 1715.33 41
3 0 5 1636.34 43.4
-4 0 -5 0.4 1.5
4 0 5 -1 1.4
-4 0 -5 8.2 6.2
-4 0 -5 -1.5 1.3
4 0 5 -3.5 10
-4 0 -5 -0.5 1.4
-5 0 -5 1744.03 44
-5 0 -5 1641.44 50.99
-5 0 -5 1688.03 42.9
5 0 5 1723.73 42.9
5 0 5 1693.03 51.49
-5 0 -5 1731.03 43.6
-6 0 -5 1.1 2
6 0 5 -3.3 6.6
-6 0 -5 14.7 7
-6 0 -5 0.6 2.5
6 0 5 0.1 1.9
-7 0 -5 1286.57 44.5
-7 0 -5 1384.26 35.6
7 0 5 1455.95 45.7
7 0 5 1349.86 35.4
-7 0 -5 1332.07 36.6
-7 0 -5 1430.26 37.4
8 0 5 -2.2 2.8
-8 0 -5 11.5 9.6
-8 0 -5 0.6 2.6
-8 0 -5 -6.1 3.6
8 0 5 20.1 10.8
-8 0 -5 3.9 3.7
9 0 5 -15.1 11.6
-9 0 -5 5.2 3.7
9 0 5 5.9 4.2
-9 0 -5 22.2 11.2
-9 0 -5 3.3 2.9
-9 0 -5 6.1 4.9
-10 0 -5 0.5 3.2
-10 0 -5 -1.3 5.2
-11 0 -5 21.6 7.7
-11 0 -5 25.6 7.5
-12 -1 5 37.2 5.5
-12 -1 5 27.9 5.2
-12 1 5 19.6 5.1
-11 -1 5 1 4.5
-11 -1 5 1.1 4
-11 -1 5 8.3 3.9
-11 1 5 4.2 4.2
-10 -1 5 178.18 9.3
-10 -1 5 183.88 9.1
-10 -1 5 174.08 8.7
-10 1 5 172.48 11.3
-10 1 5 165.78 6.1
-10 1 5 177.68 6.1
-10 1 5 184.68 9.2
-9 -1 5 -0.9 2.9
-9 -1 5 4.1 2.9
9 -1 -5 1.8 6.4
-9 -1 5 -1.8 3
-9 1 5 3 3.2
-9 1 5 -5.6 5.6
-9 1 5 -0.1 1.8
-9 1 5 -1.1 1.8
-8 -1 5 578.64 17.7
-8 -1 5 581.54 16.8
8 -1 -5 566.24 20.7
-8 -1 5 577.24 16.9
-8 1 5 575.24 17.8
-8 1 5 568.24 15.2
-8 1 5 554.24 15.3
-8 1 5 562.74 20.4
7 -1 -5 -4.1 4.7
-7 -1 5 0.1 1.7
-7 -1 5 2 1.7
-7 -1 5 1.5 2.3
-7 1 5 -1.1 1.5
-7 1 5 1.9 4.5
-7 1 5 -0.5 1.3
-7 1 5 2.6 2.4
6 -1 -5 714.93 20.2
-6 -1 5 684.63 18.7
6 -1 -5 711.73 18
6 -1 -5 717.73 23.9
-6 -1 5 685.93 19.9
-6 -1 5 713.53 19
-6 1 5 694.73 23.1
-6 1 5 688.53 18.3
-6 1 5 681.03 20
-6 1 5 707.13 18.1
5 -1 -5 17.9 2.7
-5 -1 5 13.1 1.8
-5 -1 5 17.5 2.2
5 -1 -5 19.4 5.1
-5 -1 5 20.4 2.5
5 -1 -5 16 1.9
-5 1 5 16.6 1.8
-5 1 5 12.7 1.7
-5 1 5 18.1 4.6
-5 1 5 14.7 2.6
4 -1 -5 2046.6 51.39
-4 -1 5 2132.49 53.49
-4 -1 5 2173.48 50.79
4 -1 -5 2056.59 52.79
-4 -1 5 2028.4 50.99
-4 -1 5 2229.18 52.09
4 -1 -5 2090.79 57.09
4 1 -5 2124.19 51.59
-4 1 5 2061.89 56.49
-4 1 5 2033.4 52.79
-4 1 5 2191.38 52.59
-4 1 5 2125.79 51.69
4 1 -5 2215.38 54.09
-4 1 5 2143.39 51.49
3 -1 -5 1371.36 33.8
-3 -1 5 1248.18 31.6
-3 -1 5 1321.57 32.2
-3 -1 5 1281.57 35.7
3 -1 -5 1294.57 37.9
3 -1 -5 1325.37 31.7
3 -1 -5 1348.77 32.6
-3 -1 5 1331.77 33
-3 1 5 1286.47 33.6
3 1 -5 1299.97 36.2
3 1 -5 1305.47 32.3
3 1 -5 1340.07 32.7
-3 1 5 1356.16 33.3
-3 1 5 1322.47 32.8
-3 1 5 1318.57 37.9
-2 -1 5 1705.93 46.1
2 -1 -5 1687.73 42.2
2 -1 -5 1710.63 42.6
2 -1 -5 1681.63 41.9
-2 -1 5 1731.13 42.2
2 -1 -5 1683.33 41.3
-2 -1 5 1719.53 41.6
-2 1 5 1728.03 42.1
-2 1 5 1778.62 47.6
2 1 -5 1724.83 41.9
-2 1 5 1707.43 42.6
2 1 -5 1654.53 41.7
2 1 -5 1691.83 46.5
-2 1 5 1716.83 42.2
-1 -1 5 88.99 3.9
1 -1 -5 101.09 4
1 -1 -5 89.49 3.8
-1 -1 5 84.39 3.5
1 -1 -5 88.69 3.4
-1 -1 5 91.49 7
1 -1 -5 84.99 7.5
1 -1 -5 82.69 3.6
-1 1 5 84.69 3.7
1 1 -5 90.59 3.7
-1 1 5 90.59 3.9
1 1 -5 85.89 3.6
-1 1 5 89.99 3.7
1 1 -5 86.89 2.5
-1 1 5 87.79 7.3
1 1 -5 85.59 7.7
0 -1 -5 481.05 13.2
0 -1 -5 480.05 18.5
0 -1 5 526.55 13.7
0 -1 -5 508.95 13.4
0 -1 5 488.45 13.3
0 -1 5 494.45 18.5
0 -1 -5 492.85 13.4
0 -1 -5 503.35 13.5
0 1 -5 514.75 19.1
0 1 -5 478.15 13.4
0 1 -5 481.05 13.5
0 1 5 505.35 13.5
0 1 5 486.05 13.3
0 1 5 482.45 18.3
0 1 -5 483.75 12.6
1 -1 5 140.59 9.5
-1 -1 -5 127.49 4.7
-1 -1 -5 118.79 4.7
1 -1 5 119.09 4.8
1 -1 5 127.59 4.7
-1 -1 -5 127.69 4.4
-1 1 -5 128.09 4.9
-1 1 -5 125.39 4.9
1 1 5 124.39 9.4
1 1 5 126.99 4.3
1 1 5 129.89 4.8
1 1 5 133.59 4.9
-1 1 -5 120.59 9.4
-1 1 -5 121.69 4.4
1 1 5 136.39 9.3
2 -1 5 2219.68 61.89
-2 -1 -5 2183.78 54.79
-2 -1 -5 2128.69 53.69
-2 -1 -5 2205.38 54.49
2 -1 5 2242.38 54.69
2 -1 5 2269.87 54.89
-2 1 -5 2284.77 54.79
2 1 5 2161.78 53.39
2 1 5 2186.08 54.59
-2 1 -5 2276.57 62.59
-2 1 -5 2243.98 54.89
2 1 5 2230.28 60.99
2 1 5 2312.47 62.19
2 1 5 2229.58 54.89
3 -1 5 33.6 3.1
3 -1 5 33.3 2
3 -1 5 35 2.7
-3 -1 -5 40.5 2.9
3 -1 5 39.8 7.5
-3 -1 -5 36.5 1.7
-3 -1 -5 34.6 3
3 1 5 33.7 1.5
-3 1 -5 29.5 2.9
-3 1 -5 30.8 3.4
3 1 5 30.1 5.7
3 1 5 34.7 3
3 1 5 37.5 2.9
-3 1 -5 34.1 7.8
4 -1 5 819.92 20.7
-4 -1 -5 802.22 22.5
4 -1 5 826.82 22
-4 -1 -5 825.42 21.8
4 -1 5 816.32 22.1
-4 1 -5 822.12 30.4
-4 1 -5 845.12 22.3
4 1 5 822.72 29.3
4 1 5 819.52 28.4
-4 1 -5 831.72 22.3
4 1 5 829.42 21.9
4 1 5 830.42 22.8
5 -1 5 58.69 2.9
5 -1 5 61.09 5
-5 -1 -5 63.59 4.6
-5 -1 -5 64.09 3.8
-5 1 -5 63.69 4.9
5 1 5 60.99 9
5 1 5 61.09 4.3
5 1 5 64.39 9.5
-5 1 -5 62.59 4.5
-5 1 -5 67.39 4.4
-6 -1 -5 336.57 11.9
-6 -1 -5 343.57 10.6
6 -1 5 314.77 19.8
6 -1 5 337.67 11
6 -1 5 342.37 9.2
-6 1 -5 336.77 12.2
6 1 5 298.67 17.9
6 1 5 335.07 10.8
-6 1 -5 304.67 20.3
-6 1 -5 322.17 11.3
6 1 5 327.27 18.6
-6 1 -5 323.67 11.1
-7 -1 -5 46.2 4.2
7 -1 5 43.4 4.3
7 -1 5 47.6 2.7
-7 -1 -5 49.6 5.3
7 -1 5 69.29 12.2
-7 1 -5 48.4 4.8
7 1 5 45.4 4.7
-7 1 -5 51.49 11.2
7 1 5 22.8 9.8
-7 1 -5 40.9 4.5
7 1 5 40.8 9.3
-7 1 -5 50.49 5.7
8 -1 5 260.47 20.1
-8 -1 -5 258.77 11.4
-8 -1 -5 248.08 11.8
-8 -1 -5 260.67 9.3
8 -1 5 230.18 9.6
8 1 5 274.77 19.7
8 1 5 210.68 18.6
-8 1 -5 261.27 10.1
-8 1 -5 240.78 10.8
8 1 5 258.47 9.6
-8 1 -5 257.47 21.2
-8 1 -5 257.87 11.7
-9 -1 -5 8 4.2
9 -1 5 2.6 12.9
-9 -1 -5 2 2.7
-9 1 -5 -3.7 4.5
-9 1 -5 2.8 3.3
-9 1 -5 -26 12.7
9 1 5 0.9 11.7
9 1 5 -0.8 3.3
-10 -1 -5 96.79 10.8
-10 -1 -5 85.89 6
-10 1 -5 75.39 7.9
-10 1 -5 105.89 11
-10 1 -5 85.09 7
-10 1 -5 72.29 7.7
-11 -1 -5 25.2 6.9
-11 -1 -5 16.7 3.9
-11 1 -5 14.3 5
-11 1 -5 21.4 8
-11 -2 5 29.5 5.2
-11 -2 5 34.5 5.4
-11 -2 5 32.1 5.8
-11 2 5 31.7 4.1
-11 2 5 32.8 5.5
-10 -2 5 48.7 5.7
-10 -2 5 47.3 5.9
10 -2 -5 59.99 12.6
-10 -2 5 52.09 6.6
-10 2 5 52.89 5.9
-10 2 5 48.8 5.1
-10 2 5 45.4 5.4
-10 2 5 41.7 11.1
-9 -2 5 37.2 4.8
9 -2 -5 19.3 10.2
-9 -2 5 40.1 5.7
9 -2 -5 31.1 5.8
-9 -2 5 32.7 4
-9 2 5 29.4 3.7
-9 2 5 35.2 3.6
-9 2 5 33.8 4.8
-9 2 5 39.4 10.4
8 -2 -5 3.3 3.8
-8 -2 5 9.2 2.7
-8 -2 5 3.4 3.5
-8 -2 5 9.4 3.4
8 -2 -5 15 8.5
-8 2 5 1.2 2.5
-8 2 5 -1.2 8.3
-8 2 5 4.1 2.3
-8 2 5 8.4 3.3
7 -2 -5 337.27 12.8
7 -2 -5 338.27 19.3
-7 -2 5 342.57 12.1
-7 -2 5 336.47 10.6
-7 2 5 357.26 12.5
-7 2 5 361.26 18.8
-7 2 5 322.57 11
-7 2 5 366.66 11
6 -2 -5 96.99 4.8
-6 -2 5 96.69 4.4
6 -2 -5 104.99 6.6
-6 -2 5 103.69 4.4
6 -2 -5 100.49 12.2
-6 -2 5 102.39 5.9
-6 2 5 94.59 5.1
-6 2 5 105.19 6.1
-6 2 5 88.19 11.7
-6 2 5 103.29 5
-5 -2 5 798.92 19.5
5 -2 -5 809.32 22.7
-5 -2 5 774.82 20
-5 -2 5 799.52 21.7
5 -2 -5 751.22 28.7
-5 2 5 758.32 27.9
-5 2 5 792.12 20.9
-5 2 5 769.52 21.2
5 2 -5 797.82 19.4
5 2 -5 783.92 19.6
-5 2 5 802.12 22.5
-5 2 5 784.52 21.9
5 2 -5 775.22 23.8
-4 -2 5 242.28 8.3
-4 -2 5 231.18 6.7
-4 -2 5 229.18 10.3
4 -2 -5 190.68 16.7
4 -2 -5 259.67 9.1
-4 -2 5 233.58 6.6
4 -2 -5 225.48 7.7
-4 2 5 229.38 7.7
-4 2 5 243.98 8.9
4 2 -5 243.08 6.9
4 2 -5 241.68 7.2
4 2 -5 242.58 12.1
-4 2 5 201.18 16.1
-4 2 5 233.38 8.1
-4 2 5 239.58 8.5
-3 -2 5 37.4 2.3
3 -2 -5 13.5 5.7
3 -2 -5 36.3 3.6
-3 -2 5 35.2 5.4
3 -2 -5 33 1.8
-3 -2 5 30 3.2
3 -2 -5 31.3 3
-3 -2 5 35.9 1.6
-3 2 5 39 3.5
-3 2 5 28.9 2.8
-3 2 5 35.2 6.5
3 2 -5 37.5 6.8
-3 2 5 33.7 2.8
3 2 -5 35.5 3
3 2 -5 36 2.5
-3 2 5 36.1 3.2
2 -2 -5 577.04 15.6
-2 -2 5 527.05 19.9
2 -2 -5 564.24 22.5
2 -2 -5 584.24 16.4
2 -2 -5 575.74 16.3
-2 -2 5 572.74 15.9
-2 -2 5 566.04 15.1
2 2 -5 549.54 21.4
-2 2 5 563.94 15.6
-2 2 5 586.34 16.1
2 2 -5 559.74 15.4
-2 2 5 589.24 15.9
-2 2 5 569.14 15.9
-2 2 5 543.85 21.7
2 2 -5 580.44 15.6
2 2 -5 570.44 13.9
-1 -2 5 3594.64 83.59
1 -2 -5 3458.45 84.59
-1 -2 5 3577.64 84.19
-1 -2 5 3718.03 90.59
1 -2 -5 3502.05 83.89
1 -2 -5 3634.34 92.39
1 -2 -5 3444.36 84.39
-1 2 5 3264.47 83.69
1 2 -5 3540.85 82.49
1 2 -5 3187.38 83.99
1 2 -5 3629.44 91.89
-1 2 5 3289.07 83.79
-1 2 5 3470.65 91.29
-1 2 5 3620.24 84.19
1 2 -5 3017.7 84.49
0 -2 5 1180.78 37.6
0 -2 -5 1252.47 31.5
0 -2 -5 1223.28 31.2
0 -2 5 1155.38 31.4
0 -2 5 1236.28 31.1
0 -2 -5 1293.17 39.4
0 -2 -5 1229.58 31.7
0 2 -5 1267.77 39.4
0 2 5 1207.38 38.1
0 2 5 1198.78 31
0 2 5 1361.26 35
0 2 -5 1225.08 31.5
0 2 5 1179.48 31.5
1 -2 5 1773.62 43.4
-1 -2 -5 1772.02 43.3
-1 -2 -5 1723.83 43.8
1 -2 5 1765.42 51.09
-1 -2 -5 1707.63 43.3
1 -2 5 1750.42 43.7
1 2 5 1754.82 43.6
1 2 5 1755.32 42.9
-1 2 -5 1595.94 44.2
-1 2 -5 1785.62 52.49
1 2 5 1779.12 50.79
-1 2 -5 1698.73 43.7
1 2 5 1782.22 43.7
2 -2 5 1984.2 56.79
-2 -2 -5 2004.6 56.99
2 -2 5 1965.1 48.2
-2 -2 -5 1905.01 48.6
-2 -2 -5 1886.81 48
-2 -2 -5 1894.41 47.7
2 -2 5 1976 48.5
2 -2 5 1904.71 47.6
-2 2 -5 1969.1 48.3
2 2 5 1874.91 47.2
2 2 5 1951.4 48.3
2 2 5 1955 55.59
-2 2 -5 1909.81 48.6
-2 2 -5 2005.1 58.19
2 2 5 1922.81 48.6
-3 -2 -5 303.07 9.6
3 -2 5 308.27 9.3
-3 -2 -5 294.47 9
-3 -2 -5 311.77 10.4
3 -2 5 343.07 18.1
3 -2 5 297.77 10
3 -2 5 323.17 10.1
3 2 5 319.67 10
-3 2 -5 310.97 10.3
-3 2 -5 316.37 10
-3 2 -5 306.37 18.7
3 2 5 321.57 10.5
3 2 5 286.37 9
3 2 5 313.17 15.8
-4 -2 -5 39.3 3.2
4 -2 5 39.8 3.8
4 -2 5 46.8 3.2
4 -2 5 42.4 3.9
-4 -2 -5 39.9 2.5
-4 -2 -5 41.5 4
4 -2 5 52.09 10.1
4 2 5 49.2 9.7
-4 2 -5 47.6 3.8
-4 2 -5 41.4 9.6
4 2 5 44.6 3.8
-4 2 -5 39 3.9
4 2 5 38 8.3
5 -2 5 208.18 18
5 -2 5 227.88 8.5
5 -2 5 229.78 7.7
-5 -2 -5 208.98 6.3
-5 -2 -5 225.68 8.9
5 -2 5 209.58 8.3
-5 -2 -5 223.28 7.8
5 2 5 222.18 9.4
-5 2 -5 217.18 8.7
5 2 5 225.18 8.3
5 2 5 196.28 15.1
-5 2 -5 220.58 18.5
5 2 5 195.28 14.8
-5 2 -5 218.78 8.3
-6 -2 -5 85.29 4.8
-6 -2 -5 78.09 5.9
6 -2 5 66.89 5.5
6 -2 5 70.89 5.3
6 2 5 67.59 10.1
-6 2 -5 79.49 14.9
-6 2 -5 78.69 5.7
6 2 5 80.59 5.4
-6 2 -5 66.39 5.4
6 2 5 79.39 6.7
6 2 5 87.09 12.1
7 -2 5 82.59 13.4
-7 -2 -5 91.89 5.3
7 -2 5 87.89 6.3
-7 -2 -5 98.09 7
-7 2 -5 81.39 15.7
7 2 5 92.19 13.3
7 2 5 83.19 11.4
-7 2 -5 89.19 6.4
-7 2 -5 106.89 6.6
7 2 5 93.49 6.2
8 -2 5 69.39 14.8
-8 -2 -5 86.49 5.4
-8 -2 -5 80.79 7.7
8 2 5 46.2 11.5
-8 2 -5 74.99 6.4
-8 2 -5 80.09 16.2
-8 2 -5 75.49 7.1
8 2 5 62.39 13
8 2 5 70.69 6.2
-8 2 -5 78.79 6.8
9 -2 5 105.19 6.1
-9 -2 -5 106.29 12.2
-9 -2 -5 118.59 6.4
9 2 5 95.89 8
-9 2 -5 97.69 7.6
-9 2 -5 113.99 10.7
9 2 5 175.38 28
-9 2 -5 99.19 8.7
-9 2 -5 111.09 8.6
-10 -2 -5 22.4 6.4
-10 -2 -5 27.1 3.6
-10 2 -5 16.8 6.1
-10 2 -5 23.5 7.5
-10 2 -5 23.6 5.2
-11 -2 -5 51.99 8.2
-11 -2 -5 41.8 4.1
-11 2 -5 32.1 8.5
-11 2 -5 44.9 6.9
-11 -3 5 13.6 5.9
-11 -3 5 12.3 4.8
-11 -3 5 13.1 6.8
-11 3 5 21.7 5.3
-11 3 5 24.3 6.6
-10 -3 5 -5.5 5.2
-10 -3 5 0.6 3.9
-10 -3 5 2.1 4.7
-10 3 5 -2.1 4.8
-10 3 5 0.1 4
-9 -3 5 139.49 10
-9 -3 5 145.19 7.6
-9 3 5 143.69 8.8
-9 3 5 145.59 9.5
-9 3 5 147.29 7.9
8 -3 -5 45.4 14.2
-8 -3 5 50.39 4.7
-8 -3 5 57.09 6.3
-8 3 5 61.79 6.8
-8 3 5 41.7 5.2
-8 3 5 53.09 5.9
-8 3 5 40.1 13
-7 -3 5 206.28 7.5
-7 -3 5 176.88 8.8
7 -3 -5 268.67 20.9
7 -3 -5 196.28 10.7
7 -3 -5 205.98 8.6
-7 -3 5 209.28 9.9
7 3 -5 195.58 10.4
-7 3 5 198.68 8.5
-7 3 5 209.98 9.6
-7 3 5 230.98 19.5
6 -3 -5 125.99 8.7
-6 -3 5 127.19 10.1
-6 -3 5 133.69 5.4
-6 -3 5 138.79 7.8
6 -3 -5 141.09 17
6 -3 -5 119.99 6.4
-6 -3 5 130.99 4.7
-6 3 5 129.79 7.2
-6 3 5 129.09 6.6
6 3 -5 127.89 5
-6 3 5 136.19 7.6
-6 3 5 141.19 8.7
6 3 -5 127.59 4.6
-6 3 5 124.29 15.3
6 3 -5 132.99 12.8
5 -3 -5 398.96 14
-5 -3 5 407.76 16.5
-5 -3 5 393.46 10.9
5 -3 -5 385.96 12.4
-5 -3 5 384.26 11.2
-5 -3 5 394.06 13.4
5 3 -5 395.26 10.9
-5 3 5 398.96 23
-5 3 5 386.76 13.2
5 3 -5 374.76 18.7
5 3 -5 389.66 11.4
-5 3 5 385.96 12.9
-5 3 5 385.76 12.5
-5 3 5 382.46 13.9
-4 -3 5 736.03 19.9
4 -3 -5 776.92 21.4
-4 -3 5 798.62 20.2
-4 -3 5 801.72 26.4
4 -3 -5 787.12 22.7
4 -3 -5 762.02 19.2
4 -3 -5 760.32 31.8
-4 -3 5 778.72 22.1
4 3 -5 722.03 28.5
4 3 -5 773.22 20.8
4 3 -5 783.02 19.9
-4 3 5 780.02 21.4
-4 3 5 773.72 22
-4 3 5 788.92 22.7
-4 3 5 762.32 21.7
4 3 -5 810.62 20.3
-4 3 5 773.92 30.6
-3 -3 5 203.18 8.2
-3 -3 5 205.28 6.8
-3 -3 5 196.78 12.4
3 -3 -5 198.38 16.6
3 -3 -5 210.78 8.7
-3 -3 5 200.38 6.3
3 -3 -5 208.98 7.8
3 -3 -5 172.28 6.6
-3 3 5 208.68 8
3 3 -5 197.88 7.4
-3 3 5 196.48 15.7
-3 3 5 209.78 8
-3 3 5 210.38 8.7
3 3 -5 207.98 6.2
-3 3 5 200.88 7.7
3 3 -5 203.28 7.8
3 3 -5 188.28 15.3
3 3 -5 211.38 7
2 -3 -5 380.86 20.7
2 -3 -5 398.36 13
-2 -3 5 400.46 11.4
-2 -3 5 387.86 12.4
-2 -3 5 388.96 18.1
2 -3 -5 390.76 12.9
2 -3 -5 396.96 12.1
2 3 -5 386.16 12.1
-2 3 5 387.56 12.3
-2 3 5 360.56 19.8
2 3 -5 380.26 10.5
2 3 -5 402.96 11.5
-2 3 5 369.76 12.1
2 3 -5 374.66 20
-2 3 5 401.46 13
-2 3 5 375.46 11.9
2 3 -5 407.76 12.3
1 -3 -5 340.97 11.5
1 -3 -5 344.77 11.6
-1 -3 5 330.67 10.3
-1 -3 5 339.37 17.5
1 -3 -5 353.76 19.5
1 -3 -5 335.27 10.8
-1 -3 5 331.77 11.1
1 3 -5 342.77 10.8
1 3 -5 353.26 10.6
1 3 -5 327.17 10.8
1 3 -5 333.07 9.6
-1 3 5 347.97 10.9
-1 3 5 336.77 10.8
-1 3 5 314.87 18.7
-1 3 5 344.87 11.3
-1 3 5 343.37 11.1
1 3 -5 332.77 19.5
0 -3 5 308.27 9.7
0 -3 5 270.47 16.2
0 -3 -5 297.67 10.5
0 -3 5 288.97 10.1
0 -3 -5 298.87 10.3
0 -3 -5 307.07 9.9
0 -3 5 304.17 9.6
0 -3 -5 329.17 18.5
0 3 -5 302.17 9.1
0 3 5 285.87 9.6
0 3 -5 290.37 18.7
0 3 5 300.27 10.3
0 3 -5 299.07 9.8
0 3 5 315.37 17.9
0 3 5 295.97 9.8
0 3 -5 288.07 9.7
0 3 -5 297.27 10.1
0 3 5 303.37 10.1
1 -3 5 1374.66 44.4
1 -3 5 1425.66 35.2
-1 -3 -5 1340.77 35.3
-1 -3 -5 1406.36 45.6
1 -3 5 1377.46 35.3
-1 -3 -5 1346.27 35.6
1 -3 5 1360.36 35.7
-1 -3 -5 1328.37 36.1
1 3 5 1401.06 35.9
1 3 5 1407.76 35.4
1 3 5 1364.36 44.2
1 3 5 1404.66 34.9
1 3 5 1361.26 35.6
-1 3 -5 1392.06 35.3
-1 3 -5 1346.77 35.4
-1 3 -5 1371.16 36
-1 3 -5 1400.06 46.9
-2 -3 -5 735.83 30.2
-2 -3 -5 750.62 21.6
-2 -3 -5 748.93 20.8
2 -3 5 761.92 21.3
2 -3 5 747.13 20.9
2 -3 5 785.82 20.8
-2 -3 -5 764.02 20.8
2 -3 5 760.12 30.5
2 3 5 727.23 29.1
2 3 5 754.62 21.3
-2 3 -5 772.42 21.1
2 3 5 770.52 20.7
-2 3 -5 767.62 32.2
2 3 5 780.72 20.1
-2 3 -5 742.03 21.5
-2 3 -5 771.02 20.9
3 -3 5 396.86 13.1
3 -3 5 460.65 23
3 -3 5 410.26 13
-3 -3 -5 400.76 21.6
3 -3 5 434.86 12.9
-3 -3 -5 404.16 13.6
-3 -3 -5 421.06 12.8
-3 3 -5 426.16 25.2
3 3 5 434.46 12.7
-3 3 -5 420.36 12.9
3 3 5 412.26 11.8
-3 3 -5 407.46 13.1
3 3 5 443.96 13.3
3 3 5 410.76 13.6
-3 3 -5 415.16 13.6
3 3 5 397.16 20.9
-4 -3 -5 92.69 6.2
4 -3 5 85.79 5.6
4 -3 5 92.89 5.4
-4 -3 -5 84.79 4.6
4 -3 5 87.79 13.3
4 -3 5 81.29 5.4
-4 -3 -5 88.19 5.2
-4 -3 -5 93.69 13.2
4 3 5 79.49 5.4
-4 3 -5 72.69 5.7
4 3 5 72.39 11.3
4 3 5 94.09 4.8
-4 3 -5 87.49 14.2
-4 3 -5 84.09 6.5
4 3 5 86.89 6.2
-4 3 -5 82.99 5.4
-5 -3 -5 136.29 6.2
5 -3 5 131.99 17.2
-5 -3 -5 127.89 5.5
-5 -3 -5 130.79 7.4
5 -3 5 114.29 6.7
5 -3 5 134.29 6.9
5 -3 5 131.29 6.8
5 3 5 123.49 7.9
5 3 5 114.89 14.9
5 3 5 134.39 6.1
-5 3 -5 146.49 18.4
5 3 5 149.59 14.8
-5 3 -5 97.79 10.3
5 3 5 132.79 7
-5 3 -5 142.39 7.4
-6 -3 -5 48.7 4.5
6 -3 5 45.3 4.7
6 -3 5 56.19 14.6
-6 -3 -5 50.79 3.7
-6 -3 -5 47.3 5.6
6 3 5 47.9 11.6
6 3 5 56.09 11.2
-6 3 -5 32.9 15.4
6 3 5 49.3 4.6
6 3 5 44.1 5.5
-6 3 -5 50.69 5.7
-6 3 -5 45.1 5.5
6 3 5 39.9 4.4
-6 3 -5 40 4.3
-7 -3 -5 126.29 8.5
-7 -3 -5 119.79 4.8
7 -3 5 127.99 7.4
7 -3 5 107.99 18
-7 -3 -5 135.89 6.5
7 3 5 134.59 7.7
-7 3 -5 127.39 8.2
-7 3 -5 110.49 7.3
7 3 5 99.99 13.9
7 3 5 131.19 6.3
-7 3 -5 151.18 21.9
7 3 5 127.09 16.6
-7 3 -5 141.39 8.2
-8 -3 -5 51.59 6.7
8 -3 5 53.39 5.7
-8 -3 -5 55.29 5.4
-8 3 -5 74.49 7.8
8 3 5 59.29 15.5
8 3 5 61.19 5.1
-8 3 -5 47.5 5.3
-9 -3 -5 100.69 6.6
-9 -3 -5 96.49 10.4
9 3 5 95.39 6.2
-9 3 -5 94.69 9.4
-9 3 -5 110.69 9.5
-9 3 -5 84.19 8.7
-10 -3 -5 12.3 6.1
-10 -3 -5 12.6 3.9
-10 3 -5 5.4 5.5
-10 -4 5 55.39 5.8
-10 -4 5 59.99 8.9
-10 4 5 49.9 6.5
-10 4 5 52.89 7.8
-9 -4 5 3.5 3.8
-9 -4 5 1.7 5.9
-9 4 5 -1.9 4.1
-9 4 5 -1.4 5
-8 -4 5 188.38 11.8
-8 -4 5 229.58 19.6
-8 -4 5 218.48 9
-8 4 5 248.88 12
-8 4 5 240.48 11.1
-8 4 5 239.28 13.6
-7 -4 5 42.5 4.7
-7 -4 5 44 8.9
-7 -4 5 46.3 6.6
-7 4 5 40.6 5.4
-7 4 5 32.8 4.7
7 4 -5 33.8 3.5
7 4 -5 36.9 12
-7 4 5 26.3 5.4
-7 4 5 16.8 19.5
7 4 -5 36.9 3.3
-6 -4 5 321.17 10.2
6 -4 -5 309.47 27.4
6 -4 -5 349.87 12.3
-6 -4 5 333.57 13.5
-6 -4 5 330.27 10.7
-6 -4 5 314.77 17.6
6 4 -5 331.87 10.8
-6 4 5 339.57 27.8
-6 4 5 332.47 13
-6 4 5 330.57 12.9
6 4 -5 316.37 10.2
-6 4 5 325.47 12.2
6 4 -5 306.97 22.3
5 -4 -5 28.2 2.8
-5 -4 5 33.8 4
5 -4 -5 43 7.1
-5 -4 5 43.7 5.5
5 -4 -5 27.4 13.2
5 -4 -5 43.5 5.1
-5 -4 5 34.5 3.7
-5 4 5 49.7 14
-5 4 5 32.2 4.3
-5 4 5 31.2 4.5
5 4 -5 44.3 12.6
5 4 -5 37.7 3.9
-5 4 5 36.3 4.7
5 4 -5 36.1 3.6
5 4 -5 34.4 3.8
4 -4 -5 556.94 17.1
-4 -4 5 577.64 18
4 -4 -5 572.44 30.6
-4 -4 5 530.15 15.5
4 -4 -5 525.95 18.5
-4 -4 5 532.25 16.5
-4 -4 5 579.44 24.5
-4 -4 5 546.05 15.6
4 -4 -5 547.15 14.8
-4 4 5 545.85 17.3
4 4 -5 543.95 15.3
-4 4 5 566.84 17.1
4 4 -5 550.84 15.8
4 4 -5 576.14 28.3
-4 4 5 568.44 17.7
-4 4 5 547.25 28.7
3 -4 -5 4.3 10.3
-3 -4 5 4.2 8
3 -4 -5 11.2 3.1
-3 -4 5 12 3.7
3 -4 -5 10.8 3.9
-3 -4 5 15.1 2.6
-3 -4 5 11.8 3
3 -4 -5 15.6 2.1
3 4 -5 12 2.5
-3 4 5 13.1 3.4
3 4 -5 20.8 2.4
3 4 -5 11.5 2.9
-3 4 5 1.7 10.5
3 4 -5 36.1 11.8
-3 4 5 21.2 4.3
-3 4 5 15.7 3.4
-3 4 5 15 2.9
-2 -4 5 323.87 11.4
2 -4 -5 329.97 12.8
2 -4 -5 346.07 11.9
2 -4 -5 340.57 10.5
-2 -4 5 371.26 20.5
-2 -4 5 338.67 11
-2 -4 5 333.37 12.3
2 -4 -5 368.66 23.3
-2 4 5 318.07 21.8
2 4 -5 344.97 10.2
-2 4 5 337.97 11.8
2 4 -5 352.56 23.4
-2 4 5 347.57 12.2
2 4 -5 344.17 12
2 4 -5 324.87 11.5
-2 4 5 340.67 11.8
2 4 -5 326.37 11.1
-2 4 5 344.87 12.7
1 -4 -5 398.76 12.9
-1 -4 5 390.76 12.6
-1 -4 5 398.36 13.4
1 -4 -5 378.36 13.8
-1 -4 5 385.16 12.2
1 -4 -5 413.36 24.6
1 -4 -5 391.76 14
-1 -4 5 365.56 21.1
1 4 -5 410.86 13.4
-1 4 5 387.16 12.7
-1 4 5 370.46 13.1
-1 4 5 368.06 23.5
1 4 -5 378.46 25.4
1 4 -5 377.66 12.4
-1 4 5 388.46 13.6
1 4 -5 393.76 12.7
-1 4 5 389.66 12.8
1 4 -5 382.46 12.4
0 -4 5 287.17 10.3
0 -4 -5 273.07 11
0 -4 -5 298.67 10.4
0 -4 5 279.57 9.9
0 -4 -5 281.07 11.3
0 -4 5 295.57 10.9
0 -4 -5 298.47 21.3
0 4 -5 280.37 10.7
0 4 5 281.07 10.6
0 4 5 286.27 10.2
0 4 -5 276.37 23.1
0 4 5 261.67 19.9
0 4 -5 274.17 10.1
0 4 -5 272.97 9.5
0 4 5 273.87 10.7
0 4 -5 279.07 10.1
0 4 5 281.17 9.9
-1 -4 -5 11.4 3.2
1 -4 5 11.6 2.7
-1 -4 -5 11 2.9
1 -4 5 11.1 3
1 -4 5 19.4 9.1
1 -4 5 15.3 2.8
-1 -4 -5 13.6 3.3
1 4 5 14.3 3.4
-1 4 -5 12.2 3
-1 4 -5 7.6 12.1
1 4 5 9.5 3.2
1 4 5 9.6 2.5
1 4 5 1.9 9.6
-1 4 -5 12.7 2.9
-1 4 -5 11.8 3.1
1 4 5 9.2 2.5
-1 4 -5 12.9 2.8
-2 -4 -5 215.68 8.6
-2 -4 -5 213.78 19.8
2 -4 5 214.38 9
2 -4 5 190.98 8.5
2 -4 5 200.18 8.9
-2 -4 -5 211.78 9.1
-2 -4 -5 204.78 9.8
2 -4 5 198.48 19.2
2 4 5 217.78 9.4
2 4 5 214.08 7.9
2 4 5 210.98 9
-2 4 -5 215.08 22.2
-2 4 -5 207.88 8.5
2 4 5 212.88 18.5
-2 4 -5 194.68 9.1
2 4 5 220.58 8.4
-2 4 -5 213.98 9
3 -4 5 -2 2.7
-3 -4 -5 1.5 3.1
-3 -4 -5 -1.9 10.1
3 -4 5 0.9 3
3 -4 5 6.3 3.2
-3 -4 -5 -0.1 2.1
3 -4 5 19 11.1
3 4 5 0.7 2.5
3 4 5 -7.5 10.2
-3 4 -5 5.3 13
-3 4 -5 -0.5 2.9
-3 4 -5 0.1 2.4
3 4 5 -1.1 2.6
3 4 5 -0.2 2.1
3 4 5 4.8 2.9
-3 4 -5 -3.4 2.7
4 -4 5 311.37 11.7
-4 -4 -5 280.17 23.1
4 -4 5 326.17 25
-4 -4 -5 321.57 12.3
4 -4 5 288.47 11.6
4 -4 5 306.17 11.9
-4 -4 -5 318.37 11
-4 -4 -5 329.07 11.3
-4 4 -5 298.67 11.8
-4 4 -5 299.97 11
4 4 5 300.07 11.4
4 4 5 307.67 12.6
-4 4 -5 317.97 12.5
-4 4 -5 314.47 26.9
4 4 5 283.97 21.8
4 4 5 319.27 10.8
5 -4 5 76.49 17.3
5 -4 5 97.09 7.8
-5 -4 -5 89.09 6.5
-5 -4 -5 101.69 6.5
5 -4 5 106.89 7.4
-5 -4 -5 98.69 8.1
-5 4 -5 93.29 7.6
-5 4 -5 90.79 6.5
5 4 5 98.19 5.9
-5 4 -5 99.59 7.6
-5 4 -5 108.09 20.4
5 4 5 103.49 15.2
6 -4 5 307.07 12.6
-6 -4 -5 324.17 11.5
-6 -4 -5 320.37 11.1
6 -4 5 321.77 12.3
6 -4 5 348.77 30.2
-6 -4 -5 338.27 13.5
-6 4 -5 293.47 11.6
-6 4 -5 317.07 13
-6 4 -5 287.67 30.2
6 4 5 283.77 24.1
6 4 5 281.67 25.9
-6 4 -5 323.97 13.7
6 4 5 338.57 11.3
-7 -4 -5 8.5 3.1
-7 -4 -5 16.4 5.3
7 -4 5 12.5 4.9
7 -4 5 8.6 4.3
-7 -4 -5 17.1 3.7
-7 4 -5 16.7 4.2
-7 4 -5 8.7 5.1
7 4 5 19.1 3.7
-7 4 -5 5.7 4.9
8 -4 5 77.49 8.9
-8 -4 -5 84.89 10.3
-8 4 -5 82.89 8.5
8 4 5 90.59 6.6
-8 4 -5 83.69 8.2
-8 4 -5 98.09 10.1
-9 -4 -5 4.6 6.1
-9 -4 -5 1.6 4
-9 4 -5 3.8 5.9
-9 -5 5 60.39 6.5
-9 -5 5 38.3 9.1
-9 5 5 36.3 6.7
-9 5 5 46.4 7.4
-8 -5 5 0.3 4.3
-8 -5 5 6.6 6.2
-8 5 5 5.6 5.7
-8 5 5 -6 4.9
-7 -5 5 83.59 7
-7 -5 5 83.39 9.2
-7 5 5 85.29 8.7
-7 5 5 89.19 9.2
7 5 -5 85.49 7.8
-7 5 5 99.19 11.3
-6 -5 5 9.4 3.4
-6 -5 5 -2.4 5.6
6 -5 -5 15.2 4.6
6 5 -5 10.8 4.1
-6 5 5 1.9 4.2
-6 5 5 9.5 5.3
-6 5 5 5.8 4.6
6 5 -5 12.8 4
-5 -5 5 241.18 14.2
5 -5 -5 236.98 28.1
5 -5 -5 218.98 10.6
5 -5 -5 221.48 7.9
-5 -5 5 224.28 9.1
-5 -5 5 216.68 9
5 5 -5 227.68 9.3
-5 5 5 220.08 11.7
5 5 -5 244.58 10.8
-5 5 5 239.08 13.5
-5 5 5 224.38 11.3
-5 5 5 244.68 30.1
4 -5 -5 -9.4 15.5
-4 -5 5 3.6 11.9
-4 -5 5 3.3 2.9
-4 -5 5 10 5.3
4 -5 -5 9.8 2.6
4 -5 -5 1 3.7
4 5 -5 10.7 16.7
-4 5 5 11.4 4.3
-4 5 5 3.4 3.9
-4 5 5 12.6 4.3
4 5 -5 7.8 4.2
-4 5 5 2.9 15.7
4 5 -5 8.1 3
3 -5 -5 247.38 9.1
-3 -5 5 247.08 9.8
3 -5 -5 267.17 11.1
-3 -5 5 261.77 11.9
3 -5 -5 247.88 26.5
3 5 -5 245.88 10.9
3 5 -5 236.48 26.3
-3 5 5 245.28 10.9
-3 5 5 243.58 11.3
3 5 -5 257.17 9.2
-3 5 5 245.18 26
-3 5 5 242.98 10.8
-2 -5 5 17 12.4
-2 -5 5 17.6 4.5
2 -5 -5 8.4 14.7
2 -5 -5 19.7 3.4
-2 -5 5 19.9 3.9
2 -5 -5 22.1 4.3
-2 5 5 16.2 4.3
-2 5 5 26.9 14.7
2 5 -5 18 4.2
-2 5 5 18.2 3.6
-2 5 5 18.6 5.4
2 5 -5 21.9 3.3
2 5 -5 17.3 15.9
-1 -5 5 359.36 24.5
1 -5 -5 334.37 28.1
1 -5 -5 342.27 11.8
1 -5 -5 332.87 13.9
-1 -5 5 333.47 11.9
-1 -5 5 315.67 13.4
1 -5 -5 333.87 12.5
1 5 -5 298.27 28.7
1 5 -5 340.07 13.2
1 5 -5 327.87 11.5
-1 5 5 300.07 26.9
-1 5 5 324.97 12.2
-1 5 5 337.87 12.6
0 -5 -5 53.39 6
0 -5 5 31.1 4.3
0 -5 -5 43.8 15.7
0 -5 -5 41.5 6
0 -5 -5 43.2 4.7
0 -5 5 45.1 5.5
0 -5 5 39.4 13.3
0 -5 -5 44.9 6.1
0 5 -5 46.7 5.7
0 5 -5 43.8 4.9
0 5 -5 47.4 17.6
0 5 5 35.4 15.6
0 5 -5 34.2 4.5
0 5 5 42.9 5.1
0 5 5 42.6 4.8
1 -5 5 159.88 19.9
-1 -5 -5 169.58 9.8
-1 -5 -5 181.58 8.2
-1 -5 -5 158.98 10
1 -5 5 167.98 8.7
-1 -5 -5 162.88 8.3
1 -5 5 166.88 9.3
-1 -5 -5 193.18 23.4
-1 5 -5 149.99 8.4
-1 5 -5 171.38 9.9
-1 5 -5 150.18 24.2
1 5 5 168.18 7.9
1 5 5 168.48 21.7
1 5 5 172.58 8.5
-1 5 -5 161.08 8.6
-2 -5 -5 -7 14.3
2 -5 5 11 4.4
2 -5 5 16.1 13.2
-2 -5 -5 9.5 4.6
2 -5 5 1.3 3.6
-2 -5 -5 4.7 3.1
-2 -5 -5 -0.4 4.3
2 5 5 -0.4 3.4
2 5 5 2.3 3
-2 5 -5 2.9 4.2
-2 5 -5 4.3 19.9
-2 5 -5 2.3 3.7
-2 5 -5 6.4 4.1
2 5 5 -1.1 13.4
3 -5 5 326.87 13
-3 -5 -5 333.27 13.4
-3 -5 -5 321.57 12.3
-3 -5 -5 323.47 13.9
-3 5 -5 323.17 13.8
-3 5 -5 333.47 13.9
3 5 5 325.17 26.5
3 5 5 339.57 12.4
-3 5 -5 297.57 33.6
-3 5 -5 290.37 12.1
-4 -5 -5 20.6 4.1
-4 -5 -5 8.6 15.8
4 -5 5 17.9 4.4
-4 -5 -5 12.1 5.3
4 -5 5 36.7 17.3
-4 -5 -5 24.8 5.3
-4 5 -5 21.6 5.1
-4 5 -5 65.29 21.2
4 5 5 21.4 4
-4 5 -5 24.3 4.7
4 5 5 5.9 15
-5 -5 -5 231.88 14.9
-5 -5 -5 261.97 13
-5 -5 -5 238.38 11.6
5 -5 5 240.28 11.3
5 5 5 243.78 10.2
-5 5 -5 225.28 10.7
-5 5 -5 252.07 30.2
-5 5 -5 262.57 13.4
-6 -5 -5 -6.7 4.8
-6 -5 -5 -4.6 5.5
6 -5 5 1.1 4.3
-6 -5 -5 -8.4 3.7
-6 5 -5 -1.1 4.5
-6 5 -5 4.5 6
6 5 5 6.5 3.9
7 -5 5 74.69 7.1
-7 -5 -5 81.19 7.9
-7 -5 -5 98.49 9.6
7 5 5 74.29 7.2
-7 5 -5 77.69 9.2
-8 -5 -5 0.7 6.6
8 -5 5 0.1 5.1
-8 -5 -5 -1.1 4.3
-8 5 -5 0.5 6.2
-7 -6 5 9.2 7.7
-7 6 5 -6.3 5.9
-7 6 5 -5.2 5.4
-6 -6 5 74.29 9.1
-6 6 5 63.39 8.3
-6 6 5 75.79 8.2
5 -6 -5 3.1 3.7
-5 -6 5 -4.6 7
-5 6 5 6.8 5.3
-5 6 5 0.3 5.5
5 6 -5 -2.2 5.3
4 -6 -5 33.2 4.7
-4 -6 5 46.6 7.9
-4 -6 5 30.5 5.4
-4 6 5 32 6.2
-4 6 5 37.4 6.3
4 6 -5 36.1 5.9
-3 -6 5 34.4 6.9
3 -6 -5 48.2 5.2
3 -6 -5 85.49 31.4
-3 -6 5 42.8 5.9
-3 6 5 29.5 6.1
3 6 -5 56.69 6.9
-3 6 5 -5.6 22.3
-3 6 5 45.9 6.6
3 6 -5 48.4 6.2
2 -6 -5 160.58 14.3
2 -6 -5 126.29 25.9
-2 -6 5 165.78 12.4
-2 -6 5 169.28 10.2
2 -6 -5 170.08 8.7
-2 6 5 190.58 10.3
2 6 -5 170.38 9.2
2 6 -5 184.88 11
-2 6 5 166.38 25.9
-1 -6 5 35.3 7.1
-1 -6 5 38.1 18.3
-1 -6 5 36.4 5.4
1 -6 -5 80.69 23.1
1 -6 -5 42.8 5.6
1 -6 -5 42.7 6.7
-1 6 5 33.4 5.5
1 6 -5 29.2 5.9
1 6 -5 11.3 23.4
-1 6 5 28.3 20.7
1 6 -5 43.2 5.4
-1 6 5 36.4 6.1
0 -6 5 71.49 8.4
0 -6 -5 68.89 7.4
0 -6 -5 76.79 8
0 -6 -5 71.79 9.5
0 -6 -5 118.29 25.6
0 6 -5 72.49 8.7
0 6 5 68.09 24.2
0 6 5 86.39 8.7
0 6 -5 82.19 9.5
0 6 5 75.89 11.3
0 6 -5 41.6 25.6
-1 -6 -5 1.6 4.7
-1 -6 -5 -2 4.3
1 -6 5 20.8 18.8
1 -6 5 0 5.3
-1 -6 -5 1.5 6.1
1 6 5 -11.7 19.4
-1 6 -5 -4 5.5
1 6 5 4.6 4.5
1 6 5 3.7 4.6
-1 6 -5 -1 4.9
-1 6 -5 -5.9 25.9
-2 -6 -5 165.48 14.8
-2 -6 -5 171.18 12
2 -6 5 192.18 12.2
-2 -6 -5 181.48 12.7
-2 -6 -5 228.68 27.7
2 -6 5 163.18 26.8
2 6 5 187.88 10.3
-2 6 -5 144.79 32.3
-2 6 -5 178.48 12.6
2 6 5 143.59 25.5
3 -6 5 18.6 5.9
-3 -6 -5 7.3 6.2
-3 -6 -5 16.7 6.1
3 -6 5 -16.6 20.7
-3 -6 -5 9 5.2
-3 6 -5 -2.8 26.5
-3 6 -5 6.2 6.9
3 6 5 10.8 4.1
-4 -6 -5 32.5 7.1
4 -6 5 21 6.4
-4 -6 -5 28.8 7.1
-4 -6 -5 31.1 5.8
4 6 5 27.2 5.5
-4 6 -5 32.2 7.9
-5 -6 -5 4.1 6.7
-5 -6 -5 -1.2 4.9
5 -6 5 -0.8 6
-5 -6 -5 -3.1 6.7
-5 6 -5 -0.9 7
5 6 5 -2.5 4.8
-6 -6 -5 72.09 8.5
-6 -6 -5 51.29 7
-6 -6 -5 52.19 8.9
6 -6 5 65.29 7.8
-6 6 -5 41.1 9
-3 -7 5 34 8.8
3 -7 -5 49.99 6.7
3 -7 -5 34 8.4
-3 7 5 40.4 8.8
-3 7 5 54.59 8
3 7 -5 44.3 8.7
2 -7 -5 15.4 6.2
-2 -7 5 18.6 8.9
2 -7 -5 15.6 7.6
2 7 -5 15.1 7.3
-2 7 5 23.8 6.3
-2 7 5 24.7 7.8
1 -7 -5 72.89 8
-1 -7 5 52.69 9.5
1 -7 -5 55.49 8.6
1 7 -5 74.69 10
-1 7 5 54.99 7.4
-1 7 5 47.3 8
0 -7 -5 34.1 7.5
0 -7 -5 31.8 7.1
0 -7 5 31 9.1
0 7 5 38.8 7.8
0 7 -5 38 8.7
1 -7 5 46.8 8.8
-1 -7 -5 46.9 8.8
-1 -7 -5 49.7 7.4
-1 -7 -5 48.4 8.3
-1 7 -5 58.49 10
1 7 5 47.4 8.2
-2 -7 -5 40.5 9.2
2 -7 5 53.99 9.6
-2 -7 -5 27.4 7.3
-2 -7 -5 31.1 8.3
2 7 5 42.1 8
-2 7 -5 46.4 9.8
-12 0 6 78.19 8.9
-12 0 6 87.09 9.1
-11 0 6 -3.8 2.9
-11 0 6 8.3 4.7
-11 0 6 -4 3.9
-10 0 6 208.48 10
-10 0 6 189.88 7.8
-9 0 6 1.9 2.2
-9 0 6 3.8 3.4
-8 0 6 243.18 8
-8 0 6 250.77 10.3
-7 0 6 0.5 1
-7 0 6 0.5 2.5
-7 0 6 -2.7 2.6
-7 0 6 -0.7 0.9
-7 0 6 -2.2 2.2
-7 0 6 1.7 1.7
6 0 -6 2341.67 55.59
-6 0 6 2113.69 60.79
-6 0 6 2379.46 55.99
-6 0 6 2379.46 58.69
-6 0 6 2351.66 55.69
-6 0 6 2379.16 58.69
-6 0 6 2314.37 56.59
-5 0 6 -0.3 1.4
-5 0 6 0.6 1
-5 0 6 2.3 2.8
-5 0 6 0.2 3
-5 0 6 3.6 2
-4 0 6 1350.86 33.2
4 0 -6 1337.17 33
-4 0 6 1279.37 33.5
4 0 -6 1417.46 33.1
-4 0 6 1330.27 34.9
-4 0 6 1337.97 37.2
-4 0 6 1401.76 33.4
-4 0 6 1334.37 37.7
-3 0 6 2 1.1
3 0 -6 1 0.9
-3 0 6 -0.1 1.5
-3 0 6 0 0.9
-3 0 6 0.6 3.2
-3 0 6 0 2.7
-3 0 6 2.2 0.9
3 0 -6 3.3 1
-2 0 6 3908.71 100.29
-2 0 6 4300.77 104.99
2 0 -6 4243.48 99.39
2 0 -6 4124.19 99.09
-2 0 6 4186.38 105.39
2 0 -6 4170.38 99.49
-2 0 6 4125.49 99.59
1 0 -6 0.3 3.2
-1 0 6 -0.6 0.9
-1 0 6 0.2 0.9
-1 0 6 0.2 0.6
1 0 -6 0.2 0.9
-1 0 6 0.4 3.3
1 0 -6 0.9 0.9
-1 0 6 -0.3 1
0 0 -6 217.58 6.5
0 0 -6 208.78 11.8
0 0 -6 228.48 7.1
0 0 6 220.58 12
0 0 6 222.08 6.5
0 0 6 225.18 7.1
0 0 6 219.98 7.1
0 0 -6 223.58 7.1
0 0 6 211.28 7.1
1 0 6 -0.2 0.9
-1 0 -6 -2.5 4
1 0 6 0.6 1
-1 0 -6 0.5 0.9
-1 0 -6 -0.1 1
1 0 6 2.1 1.1
-1 0 -6 0.5 1.1
1 0 6 1 0.8
1 0 6 1.7 3.7
2 0 6 3884.81 90.89
2 0 6 3743.43 89.79
2 0 6 3363.66 91.29
-2 0 -6 3777.02 90.89
-2 0 -6 3714.63 90.69
-2 0 -6 3652.43 91.99
2 0 6 3897.01 99.29
-2 0 -6 3989.6 99.19
3 0 6 9.4 6.4
-3 0 -6 -0.5 1.2
3 0 6 1.1 0.8
-3 0 -6 1.4 5.1
-3 0 -6 1.4 1.6
3 0 6 2 1.4
-3 0 -6 1.4 1.3
-4 0 -6 1252.67 34.5
-4 0 -6 1330.67 34.6
-4 0 -6 1310.07 34.2
4 0 6 1412.46 31.8
-4 0 -6 1342.07 43.3
4 0 6 1332.57 34.2
-5 0 -6 -0.5 2.3
-5 0 -6 11.6 7.3
5 0 6 -0.1 1.9
-5 0 -6 0.1 1.8
-5 0 -6 2.4 2
5 0 6 5.5 7.9
-6 0 -6 1546.85 39.7
-6 0 -6 1543.45 49.8
6 0 6 1522.25 49.8
-6 0 -6 1535.05 40.9
6 0 6 1565.84 39.6
-6 0 -6 1527.75 40.4
-7 0 -6 -8.6 8.6
7 0 6 -7.4 9.7
-7 0 -6 1.6 2.5
-7 0 -6 2.8 2.9
7 0 6 0.2 2.6
-7 0 -6 -2.1 3.4
-8 0 -6 545.75 27.8
8 0 6 508.65 16.2
-8 0 -6 506.75 17.9
-8 0 -6 535.05 16.4
-8 0 -6 553.34 18.6
8 0 6 556.34 28.5
-9 0 -6 -1 3.1
-9 0 -6 2.7 5.3
9 0 6 3 14.3
-9 0 -6 14.6 12.7
-10 0 -6 16.7 5.9
-10 0 -6 19.2 4.3
-11 0 -6 -8.3 4.3
-11 0 -6 -4.6 6.3
-12 -1 6 12.6 5.2
-12 -1 6 23.5 5.9
-12 -1 6 19.4 6
-12 1 6 18.7 5.7
-11 -1 6 25.9 4.7
-11 -1 6 27 5.3
-11 -1 6 23 4.9
-11 1 6 27.7 5.4
-10 -1 6 0.7 3.3
-10 -1 6 1.5 3.3
-10 -1 6 -1 3.9
-10 1 6 1.9 5.8
-10 1 6 -0.2 1.8
-10 1 6 2.7 5.9
-10 1 6 2.2 3.9
-10 1 6 0.4 1.9
-9 -1 6 295.87 12
-9 -1 6 287.17 10.7
-9 -1 6 286.07 10.3
9 -1 -6 263.17 14.7
-9 1 6 292.17 8.6
-9 1 6 280.07 14.3
-9 1 6 271.97 8.7
-9 1 6 295.07 11.8
-8 -1 6 12.2 3.1
-8 -1 6 15.5 3
8 -1 -6 12 6.4
-8 -1 6 13.2 3.5
-8 1 6 11.9 2.1
-8 1 6 18.1 4
-8 1 6 14 5.8
-8 1 6 9.4 1.9
7 -1 -6 511.55 19.1
-7 -1 6 497.05 15.9
-7 -1 6 492.75 14.5
-7 -1 6 487.45 14.2
7 -1 -6 478.75 15.8
-7 1 6 499.65 15.8
-7 1 6 478.75 13.6
-7 1 6 496.45 13.4
-7 1 6 495.45 18.7
6 -1 -6 92.49 9.8
-6 -1 6 76.09 3.9
6 -1 -6 82.09 3.6
-6 -1 6 80.19 4.5
-6 -1 6 78.69 5.3
-6 1 6 78.29 5.3
-6 1 6 79.99 3.7
-6 1 6 80.69 4
-6 1 6 89.89 8.5
5 -1 -6 1004.2 25.3
5 -1 -6 1044.2 27.2
-5 -1 6 994.1 25.9
-5 -1 6 969 27
-5 -1 6 1023.2 24.5
-5 -1 6 972.5 27.1
5 -1 -6 989.2 31.2
-5 1 6 993.9 27.1
5 1 -6 986.8 24.3
-5 1 6 1009.7 25.3
-5 1 6 990 25.5
-5 1 6 988.5 30.7
-5 1 6 1017 26.7
-4 -1 6 1 1.3
4 -1 -6 1.2 1.7
-4 -1 6 -1.7 2.7
-4 -1 6 1.8 0.9
4 -1 -6 3.7 4.4
4 -1 -6 0.8 0.6
4 -1 -6 2.5 1.1
-4 1 6 2.8 1.5
-4 1 6 4.1 4.1
-4 1 6 1.4 1.5
-4 1 6 -0.5 1.1
-4 1 6 2.1 0.7
4 1 -6 -2.8 3.4
-4 1 6 2.7 1.1
4 1 -6 3.5 1.3
3 -1 -6 1570.84 44.9
3 -1 -6 1461.65 37.6
-3 -1 6 1557.54 38.8
-3 -1 6 1492.35 42.6
3 -1 -6 1588.94 39.7
3 -1 -6 1544.75 38.4
-3 -1 6 1573.74 38.1
-3 1 6 1575.54 38.7
-3 1 6 1503.45 39.5
3 1 -6 1525.65 38.2
3 1 -6 1576.64 43.4
3 1 -6 1599.14 38.6
-3 1 6 1571.04 44.5
-3 1 6 1632.44 39
-2 -1 6 1945.11 49.4
2 -1 -6 2060.89 49.99
2 -1 -6 2010.2 48.6
-2 -1 6 1932.61 54.19
-2 -1 6 2003.1 49
2 -1 -6 2043.6 49.2
2 -1 -6 1975.2 49.4
-2 1 6 2092.19 55.59
2 1 -6 2007.4 49.2
2 1 -6 1952.2 49
-2 1 6 1958.2 49.8
2 1 -6 2038.5 54.99
-2 1 6 2043.6 49.4
-2 1 6 2011.4 49.3
1 -1 -6 2348.86 57.29
1 -1 -6 2281.77 56.99
-1 -1 6 2415.76 63.69
1 -1 -6 2275.37 63.99
1 -1 -6 2367.46 57.39
-1 -1 6 2315.77 57.19
-1 -1 6 2335.67 57.59
1 -1 -6 2375.66 57.79
-1 1 6 2435.86 64.09
-1 1 6 2374.96 57.49
1 1 -6 2252.77 57.29
1 1 -6 2275.47 55.89
-1 1 6 2409.56 57.29
-1 1 6 2309.47 57.59
1 1 -6 2345.67 63.89
1 1 -6 2447.16 57.39
0 -1 6 2.3 1.1
0 -1 6 -2.9 3.8
0 -1 -6 3.5 1.3
0 -1 -6 0.8 1.1
0 -1 -6 2 1
0 -1 6 1.9 1.2
0 -1 -6 1.1 0.9
0 1 -6 -1.2 4.1
0 1 6 0.4 0.9
0 1 6 2.3 1.2
0 1 -6 0.9 0.7
0 1 -6 1.7 1.3
0 1 6 1.1 4.4
0 1 6 10.3 4.4
0 1 -6 2.6 1.3
1 -1 6 2430.36 59.09
-1 -1 -6 2342.77 58.99
1 -1 6 2386.06 59.29
-1 -1 -6 2320.27 59.09
-1 -1 -6 2459.65 59.19
-1 -1 -6 2335.67 58.59
1 -1 6 2445.76 66.79
-1 1 -6 2366.76 59.29
1 1 6 2433.46 67.09
1 1 6 2457.65 59.29
1 1 6 2454.15 59.09
-1 1 -6 2560.24 59.39
-1 1 -6 2218.68 59.19
1 1 6 2478.85 66.29
-1 1 -6 2494.95 67.49
2 -1 6 20 2.4
-2 -1 -6 17.3 1.8
-2 -1 -6 17.4 2.1
2 -1 6 12.6 5.6
-2 -1 -6 14.6 2.1
-2 -1 -6 19.5 2.5
2 -1 6 19.9 2.4
-2 1 -6 16.6 2.1
2 1 6 21.2 2.5
2 1 6 13.6 2
2 1 6 22.1 6.8
-2 1 -6 21.6 2.7
2 1 6 18.1 6.3
-2 1 -6 14.8 2
2 1 6 18.4 1.6
-2 1 -6 16.3 6.9
3 -1 6 116.09 11.5
3 -1 6 122.49 4.1
-3 -1 -6 117.89 5.1
-3 -1 -6 121.99 5.5
3 -1 6 124.79 5.6
3 -1 6 125.99 5.4
-3 1 -6 123.59 5.5
-3 1 -6 114.29 5.4
-3 1 -6 118.29 11.7
-3 1 -6 119.19 5.5
3 1 6 125.69 5.6
3 1 6 123.49 11.3
3 1 6 132.89 3.8
3 1 6 122.09 5.4
4 -1 6 15.4 2.5
-4 -1 -6 14.4 2.7
4 -1 6 12.4 1.5
-4 -1 -6 9.3 1.9
4 -1 6 4.6 7.1
4 -1 6 8.6 2.1
4 1 6 11.7 2.3
4 1 6 6.8 6.6
-4 1 -6 8.1 2
-4 1 -6 17.6 7.5
-4 1 -6 6.3 2.1
4 1 6 10.7 2.4
-4 1 -6 8 2.1
5 -1 6 2315.07 54.69
5 -1 6 2228.88 56.59
-5 -1 -6 2221.38 56.29
-5 -1 -6 2276.77 57.39
-5 -1 -6 2235.98 57.39
-5 1 -6 2253.87 56.89
-5 1 -6 2257.97 57.49
5 1 6 2312.87 66.89
-5 1 -6 2295.67 57.09
5 1 6 2250.87 65.39
5 1 6 2299.07 56.59
-5 1 -6 2243.48 68.09
-6 -1 -6 34.1 4.4
-6 -1 -6 40.7 5
-6 -1 -6 41.3 4
6 -1 6 39.1 4.5
6 -1 6 43.8 2.5
6 -1 6 56.09 12.7
-6 1 -6 39.1 4.8
6 1 6 39.8 4.5
-6 1 -6 41.4 4.7
-6 1 -6 27.2 10.3
-6 1 -6 35.9 4.2
6 1 6 41.1 10.2
6 1 6 47 10.4
-7 -1 -6 51.79 4.6
7 -1 6 47.7 4.8
7 -1 6 52.19 13.4
7 -1 6 41.8 2.3
-7 -1 -6 44.1 5.7
-7 -1 -6 62.29 6.9
-7 1 -6 47.4 5.9
7 1 6 38 10.6
-7 1 -6 46.7 4.8
7 1 6 46.2 4.5
-7 1 -6 40.6 4.9
7 1 6 56.29 11.6
-7 1 -6 39.9 12
-8 -1 -6 45.8 5.7
-8 -1 -6 58.49 5.1
8 -1 6 54.29 15.1
8 1 6 59.39 6
8 1 6 48.9 12.2
-8 1 -6 51.29 14.4
-8 1 -6 50.99 5.9
-8 1 -6 50.19 5.9
8 1 6 38.6 11.7
-8 1 -6 63.89 7.5
-9 -1 -6 160.78 10.8
-9 -1 -6 140.79 7.4
-9 1 -6 152.48 11.1
9 1 6 141.89 18.2
-9 1 -6 152.88 9.9
-9 1 -6 138.89 8.4
-10 -1 -6 1.5 5.5
-10 -1 -6 5.8 3.6
-10 1 -6 5.1 4.2
-10 1 -6 5 6.4
-11 -1 -6 58.29 8.3
-11 -1 -6 60.89 7.3
-11 1 -6 72.49 9.7
-11 1 -6 65.89 7.1
-11 -2 6 22.9 5.5
-11 -2 6 22.6 5.6
-11 -2 6 23.6 4.8
-11 2 6 27.2 3.7
-11 2 6 15.4 5.7
-10 -2 6 61.69 7.8
-10 -2 6 58.49 6.1
-10 -2 6 50.39 6.5
10 -2 -6 60.69 12.9
-10 2 6 63.89 5.7
-10 2 6 63.79 8.2
-10 2 6 57.19 12.1
-10 2 6 63.99 5.4
-9 -2 6 61.69 5.3
9 -2 -6 54.89 7.6
-9 -2 6 62.39 7.5
9 -2 -6 48.8 11
-9 -2 6 68.49 6.8
-9 2 6 62.19 4.9
-9 2 6 60.99 5.4
-9 2 6 58.09 7.1
-9 2 6 65.89 11.6
-8 -2 6 26.5 4.4
8 -2 -6 26 4.9
8 -2 -6 18.4 9.1
-8 -2 6 32.6 4.9
-8 -2 6 24.7 3
-8 2 6 24.2 4.3
-8 2 6 18 9.1
-8 2 6 24.8 3.1
-8 2 6 22.1 3.3
-7 -2 6 -1.1 2.7
-7 -2 6 2.6 1.7
7 -2 -6 0.4 3.3
7 -2 -6 4.2 2.1
7 -2 -6 7.5 8.1
-7 2 6 5.7 7.2
-7 2 6 1.4 2.6
-7 2 6 0.5 2.4
-7 2 6 -0.3 1.8
-7 2 6 1 3.4
6 -2 -6 485.25 14
-6 -2 6 487.15 12.3
6 -2 -6 503.55 22.3
-6 -2 6 486.25 15.1
-6 -2 6 490.95 14.3
6 -2 -6 489.45 16
-6 -2 6 470.35 13.2
-6 2 6 494.65 21.9
-6 2 6 502.85 16.1
-6 2 6 474.15 14.5
-6 2 6 495.55 14.1
-6 2 6 489.15 15.6
5 -2 -6 71.09 4.3
5 -2 -6 66.59 5.6
-5 -2 6 66.29 2.9
-5 -2 6 71.39 2.9
-5 -2 6 65.39 6.3
5 -2 -6 69.29 10.1
-5 -2 6 71.69 5
-5 2 6 66.99 4.5
-5 2 6 93.69 8.5
-5 2 6 79.99 5.3
5 2 -6 65.59 3.2
5 2 -6 64.29 7.3
-5 2 6 84.99 10.5
-5 2 6 68.39 4
-4 -2 6 70.09 6.8
4 -2 -6 62.89 3.9
-4 -2 6 64.99 4.4
4 -2 -6 67.99 5
-4 -2 6 67.39 3.1
-4 -2 6 65.29 2.3
4 2 -6 68.39 3.1
-4 2 6 69.29 4.6
-4 2 6 69.29 4.2
-4 2 6 64.99 4.7
4 2 -6 69.49 3.4
-4 2 6 67.59 3.7
4 2 -6 70.19 4.2
3 -2 -6 3.8 1.1
-3 -2 6 2.6 1.2
3 -2 -6 1.3 5.7
-3 -2 6 4 2
3 -2 -6 0.9 1.4
3 -2 -6 9.5 2.4
-3 -2 6 8.6 3.9
3 2 -6 2.2 1.4
-3 2 6 4.5 1.8
3 2 -6 5.1 1.5
3 2 -6 8.4 5.6
-3 2 6 0.8 1.3
-3 2 6 2.6 1.9
-3 2 6 3.6 5.6
-3 2 6 3.4 1.8
-2 -2 6 635.74 23.3
2 -2 -6 684.93 19.1
2 -2 -6 687.73 17.6
2 -2 -6 693.83 18.4
2 -2 -6 702.43 19.3
2 -2 -6 660.33 26.1
-2 -2 6 692.73 18
-2 -2 6 645.04 18.7
-2 2 6 691.13 18.5
-2 2 6 691.23 18.7
-2 2 6 690.33 25.5
2 2 -6 682.53 25.3
-2 2 6 676.83 18.8
-2 2 6 681.13 18.8
2 2 -6 677.93 18.4
2 2 -6 676.83 18.4
-1 -2 6 180.28 11.7
1 -2 -6 187.08 7.1
1 -2 -6 198.78 6.8
-1 -2 6 185.18 7
1 -2 -6 187.98 7.2
1 -2 -6 192.78 13.3
-1 -2 6 186.78 6.5
-1 2 6 184.58 6.7
1 2 -6 181.58 6.6
-1 2 6 183.88 7
1 2 -6 176.58 12.8
-1 2 6 183.38 12.3
-1 2 6 193.18 7
1 2 -6 187.48 5.3
1 2 -6 181.38 6.8
0 -2 6 2187.38 55.09
0 -2 -6 2265.47 55.09
0 -2 -6 2176.18 54.69
0 -2 6 2273.17 54.69
0 -2 -6 2190.58 55.19
0 -2 6 2162.08 62.39
0 2 6 2210.98 54.99
0 2 -6 2274.37 64.19
0 2 6 2216.48 54.99
0 2 -6 2262.07 54.89
0 2 6 2262.37 62.99
0 2 6 2143.09 54.39
0 2 -6 2197.58 54.99
-1 -2 -6 905.51 24.4
-1 -2 -6 899.81 23.8
1 -2 6 883.01 24.2
1 -2 6 902.71 23.9
-1 -2 -6 925.51 23.9
-1 -2 -6 890.21 32.4
1 -2 6 886.81 31.8
1 2 6 899.21 31.4
1 2 6 947.41 24.3
1 2 6 921.01 24.2
1 2 6 909.31 23.3
-1 2 -6 873.81 24.2
-1 2 -6 923.31 24
-1 2 -6 899.91 33
-2 -2 -6 611.94 17.9
-2 -2 -6 597.34 17.2
2 -2 6 604.64 17.8
2 -2 6 631.24 17.5
2 -2 6 625.44 25.7
-2 -2 -6 600.44 16.8
2 2 6 637.84 16.5
-2 2 -6 644.24 17.6
2 2 6 648.34 17.9
2 2 6 619.24 24.7
-2 2 -6 654.43 27.3
2 2 6 619.84 17.6
-2 2 -6 644.74 18
3 -2 6 99.79 5.2
3 -2 6 91.79 5.3
-3 -2 -6 94.19 4.2
-3 -2 -6 97.09 4.8
-3 -2 -6 95.29 5.3
3 -2 6 92.49 12.2
-3 2 -6 116.89 13.6
3 2 6 101.19 5.6
-3 2 -6 99.09 5.3
3 2 6 106.39 5.4
3 2 6 84.49 11.1
-3 2 -6 103.39 5.4
3 2 6 118.39 4.6
4 -2 6 94.89 5.4
-4 -2 -6 99.99 5
-4 -2 -6 93.89 4
4 -2 6 104.49 5.6
4 -2 6 127.29 13.4
-4 -2 -6 98.59 5.7
-4 2 -6 97.49 5.7
4 2 6 101.59 5.6
4 2 6 96.69 12.6
4 2 6 108.59 6.2
-4 2 -6 107.09 5.7
-4 2 -6 92.29 13.5
4 2 6 120.39 14.4
4 2 6 101.09 3.5
-5 -2 -6 159.68 7.9
-5 -2 -6 167.08 5.2
-5 -2 -6 178.38 7.1
5 -2 6 167.98 7.6
5 -2 6 179.58 7.7
5 -2 6 169.28 17.2
5 2 6 163.18 16.7
5 2 6 183.28 14.5
-5 2 -6 183.88 18.9
-5 2 -6 174.28 7.9
5 2 6 170.58 7.6
5 2 6 182.28 8.8
-5 2 -6 192.28 11.3
-6 -2 -6 7 2.3
6 -2 6 9.1 10.3
-6 -2 -6 -0.6 2.4
6 -2 6 2.8 2.9
6 -2 6 4.9 3.4
6 2 6 3.8 3.3
6 2 6 6.6 3
-6 2 -6 -0.2 2.8
-6 2 -6 -7.5 9.6
6 2 6 -4.3 7.7
-6 2 -6 3.7 2.8
6 2 6 0.4 9.4
7 -2 6 36.3 3.7
-7 -2 -6 33 3.6
-7 -2 -6 41.7 5.5
7 2 6 41.3 12.3
7 2 6 17.5 9.7
7 2 6 31.7 4.3
-7 2 -6 32.5 4.7
-7 2 -6 34.4 4.6
-8 -2 -6 172.38 7.7
8 -2 6 162.88 20.7
-8 -2 -6 187.18 10.3
8 -2 6 168.48 6.9
8 2 6 180.08 19.1
8 2 6 121.09 17.2
-8 2 -6 171.88 9.6
-8 2 -6 168.58 9.2
-8 2 -6 183.48 10.9
-8 2 -6 132.29 21
-9 -2 -6 28.4 3.9
9 -2 6 28 3.5
-9 -2 -6 30.7 6.2
-9 2 -6 27.9 6
-9 2 -6 26.6 6.9
-9 2 -6 20.2 5
-9 2 -6 21 5.2
-10 -2 -6 24.9 7.2
-10 -2 -6 20.2 4
-10 2 -6 20.8 7
-10 2 -6 23.8 5.6
-11 -3 6 0.3 4.3
-11 -3 6 -2 6.2
-11 -3 6 2.2 6.2
-11 3 6 2.7 4.7
-11 3 6 0.3 6.3
-10 -3 6 50.79 5.5
-10 -3 6 45.3 6.6
-10 -3 6 37.9 6.7
-10 3 6 41 5
-9 -3 6 67.99 7
-9 -3 6 77.19 5.6
-9 3 6 68.29 6.4
-9 3 6 73.09 7.6
-9 3 6 62.59 6.9
-8 -3 6 258.47 9.2
8 -3 -6 266.57 23.2
-8 -3 6 274.77 12
-8 3 6 255.47 10.3
-8 3 6 257.07 11.4
-8 3 6 311.87 23.9
-8 3 6 243.58 10.8
7 -3 -6 -3.5 4.4
-7 -3 6 5.9 4.2
7 -3 -6 0.9 2.7
-7 -3 6 7.1 3.5
7 -3 -6 -5.7 11.6
-7 -3 6 7.2 2.2
-7 3 6 2.4 5.1
7 3 -6 -10.3 5.2
-7 3 6 3.9 2.7
-7 3 6 2 3.2
-7 3 6 -2.4 10.5
6 -3 -6 316.67 21.8
-6 -3 6 316.77 9.3
6 -3 -6 317.07 11.2
-6 -3 6 333.77 9.9
-6 -3 6 349.67 12.6
-6 -3 6 342.37 14.5
6 -3 -6 344.07 13.6
6 3 -6 313.07 17
-6 3 6 330.57 12
-6 3 6 348.37 12.5
-6 3 6 342.17 13.4
-6 3 6 327.07 21.5
6 3 -6 340.57 9.4
6 3 -6 313.47 9.6
-6 3 6 329.07 11.2
5 -3 -6 -0.2 2.3
5 -3 -6 9.2 9.9
-5 -3 6 0.5 2.9
-5 -3 6 3.9 4.9
-5 -3 6 2.7 1.5
5 -3 -6 2.5 3.3
-5 -3 6 0.4 1.4
5 3 -6 2.3 1.7
-5 3 6 5 2.7
-5 3 6 -13.1 8.9
-5 3 6 0.5 2.3
5 3 -6 -1.4 7.3
5 3 -6 0.4 1.5
-5 3 6 3.6 2.7
-5 3 6 2.2 3.2
-4 -3 6 289.67 10.8
-4 -3 6 294.27 8.8
4 -3 -6 288.37 8
4 -3 -6 288.37 7.8
4 -3 -6 286.47 20.1
4 -3 -6 281.37 9.9
-4 -3 6 318.37 15.2
4 -3 -6 301.17 11.6
-4 -3 6 264.17 8
4 3 -6 283.37 9.5
4 3 -6 307.07 9.9
-4 3 6 283.97 19.1
-4 3 6 290.97 11.3
4 3 -6 298.87 18
-4 3 6 286.17 10.1
-4 3 6 285.47 10.4
-4 3 6 308.67 10.9
-3 -3 6 340.67 12.1
-3 -3 6 346.47 16.7
3 -3 -6 365.46 11.6
3 -3 -6 349.07 20.5
-3 -3 6 357.56 10.6
3 3 -6 322.37 19.6
-3 3 6 353.06 11.9
-3 3 6 354.26 12.3
-3 3 6 364.36 20.2
-3 3 6 350.76 11.9
3 3 -6 347.77 9.4
3 3 -6 385.86 11.8
3 3 -6 363.76 11.6
-3 3 6 367.06 11.5
3 3 -6 361.86 11.4
-2 -3 6 513.65 14.3
-2 -3 6 485.15 24.3
2 -3 -6 488.75 17.2
2 -3 -6 508.95 15
-2 -3 6 495.15 15.4
2 -3 -6 475.55 15.7
2 -3 -6 540.95 25.3
-2 3 6 509.15 15.3
-2 3 6 502.15 14.9
2 3 -6 530.85 16.3
2 3 -6 533.95 15.1
2 3 -6 512.75 13
-2 3 6 515.55 16
-2 3 6 495.25 23.5
2 3 -6 509.45 15.1
-2 3 6 470.65 15
2 3 -6 497.05 24.9
1 -3 -6 64.09 5.1
-1 -3 6 73.69 10
1 -3 -6 81.99 11.9
-1 -3 6 62.79 4.6
1 -3 -6 71.69 4.5
-1 -3 6 67.09 4
1 -3 -6 74.69 5.1
1 3 -6 68.49 3.3
-1 3 6 69.09 4.4
-1 3 6 66.29 10.9
1 3 -6 73.09 12
-1 3 6 64.49 4.8
1 3 -6 76.29 4.6
-1 3 6 65.99 4.3
0 -3 6 1345.37 34.5
0 -3 -6 1301.07 34.7
0 -3 -6 1333.77 35.3
0 -3 -6 1397.56 45.7
0 -3 6 1357.66 43.7
0 -3 -6 1336.07 35.7
0 -3 6 1362.16 35.3
0 3 -6 1342.87 33.7
0 3 6 1320.87 44.3
0 3 -6 1318.77 35.2
0 3 6 1353.16 34.7
0 3 -6 1324.57 34.9
0 3 6 1298.87 34.4
0 3 -6 1368.46 46.4
0 3 6 1412.46 35.3
-1 -3 -6 258.27 9.9
-1 -3 -6 298.67 18.9
1 -3 6 288.57 17.8
1 -3 6 265.67 9.3
1 -3 6 266.57 9.8
-1 -3 -6 269.07 9.3
-1 -3 -6 259.17 9.5
1 -3 6 277.67 9.2
1 3 6 261.67 9.8
-1 3 -6 280.87 9.6
1 3 6 272.07 17.2
-1 3 -6 268.87 9.9
-1 3 -6 274.87 20.1
1 3 6 266.37 9.3
1 3 6 272.17 8.9
-2 -3 -6 459.15 24.1
-2 -3 -6 439.86 14.3
2 -3 6 440.46 13.8
2 -3 6 453.05 13.3
2 -3 6 378.66 15
2 -3 6 458.75 22.7
-2 -3 -6 419.46 13.3
-2 -3 -6 431.86 13.4
-2 3 -6 431.16 14.1
2 3 6 423.66 22.1
-2 3 -6 466.65 14.9
2 3 6 443.16 12.6
2 3 6 445.56 13.8
2 3 6 441.36 13.4
2 3 6 443.26 14.1
-2 3 -6 429.96 24.9
3 -3 6 275.57 10
-3 -3 -6 270.87 19
3 -3 6 244.78 9.5
3 -3 6 271.07 19.3
3 -3 6 275.97 9.4
-3 -3 -6 272.87 10.5
-3 -3 -6 250.07 9.3
-3 -3 -6 267.07 9.5
3 3 6 283.47 10
-3 3 -6 266.37 21.3
-3 3 -6 271.87 10.4
3 3 6 269.07 8.4
3 3 6 275.37 10.4
3 3 6 257.67 18.7
-4 -3 -6 262.07 9.5
4 -3 6 285.87 10.7
4 -3 6 272.67 10.3
-4 -3 -6 272.57 9
4 -3 6 265.47 20.4
-4 -3 -6 265.87 10.7
4 3 6 238.78 18.6
-4 3 -6 267.97 9.9
4 3 6 263.17 10.1
-4 3 -6 248.58 22.1
4 3 6 272.97 10.9
-4 3 -6 278.17 10.6
-5 -3 -6 113.09 6
-5 -3 -6 114.59 5.3
-5 -3 -6 108.79 7.2
5 -3 6 117.59 6.8
5 -3 6 103.69 15.9
5 3 6 115.19 8
5 3 6 119.59 7
5 3 6 106.69 15.5
5 3 6 106.99 14.9
-5 3 -6 118.59 6.9
-5 3 -6 143.59 18.3
-5 3 -6 123.79 7.2
-6 -3 -6 142.69 5.5
6 -3 6 144.79 8.2
6 -3 6 145.69 8.4
6 -3 6 158.58 20
-6 -3 -6 137.69 8.5
-6 -3 -6 141.99 6.9
-6 3 -6 133.89 7.6
-6 3 -6 158.78 8.2
-6 3 -6 140.69 21.4
6 3 6 137.49 8
6 3 6 130.89 16.7
6 3 6 132.99 16.7
-6 3 -6 130.09 8.2
7 -3 6 13.5 15.9
7 -3 6 21.4 4
-7 -3 -6 23.8 3.4
-7 -3 -6 19.2 4.5
7 3 6 15.1 13
7 3 6 19.9 14
-7 3 -6 22.4 4.3
-7 3 -6 20.9 4.8
-7 3 -6 6.1 18.2
7 3 6 21.4 3.6
-7 3 -6 21.9 4.4
-8 -3 -6 108.09 10.2
-8 -3 -6 110.19 6.9
8 -3 6 94.99 7.9
-8 3 -6 109.49 9.1
-8 3 -6 107.69 9.2
-8 3 -6 119.59 8.4
8 3 6 111.29 6.8
-9 -3 -6 24.5 4.8
-9 -3 -6 20.4 6.3
-9 3 -6 22.2 5.7
-9 3 -6 17 5.2
-10 -3 -6 51.09 9
-10 -3 -6 40.3 4.9
-10 3 -6 32.6 8.4
-10 3 -6 36.4 6.9
-10 -4 6 13.1 7.4
-10 -4 6 12.8 4.8
-10 4 6 18.9 5.1
-10 4 6 2.7 5.9
-9 -4 6 62.39 8.2
-9 -4 6 84.29 6.4
-9 4 6 75.99 8.4
-9 4 6 83.19 9.9
-8 -4 6 6.3 3.1
-8 4 6 -8.8 5.3
-8 4 6 0.7 3.9
-8 4 6 8.2 7
-7 -4 6 262.77 12.9
7 -4 -6 264.07 10.9
-7 -4 6 253.17 9.3
-7 -4 6 260.67 15.9
-7 4 6 271.97 12.1
7 4 -6 264.07 8.9
7 4 -6 256.37 8.5
-7 4 6 268.07 12.5
7 4 -6 238.78 21.5
-7 4 6 255.17 11
-6 -4 6 56.39 4.3
6 -4 -6 56.49 6.1
-6 -4 6 64.49 7.2
6 -4 -6 40.5 16.7
-6 -4 6 63.49 4.3
-6 -4 6 57.99 9.5
-6 4 6 55.09 6.2
6 4 -6 55.79 5.2
-6 4 6 58.39 6.2
6 4 -6 55.49 13.4
-6 4 6 34.2 15.4
-6 4 6 63.49 6.6
6 4 -6 59.49 4.6
-5 -4 6 617.84 17.3
-5 -4 6 618.54 17.5
5 -4 -6 674.63 19.4
5 -4 -6 618.84 34.5
-5 -4 6 684.63 20.9
5 -4 -6 607.64 16
-5 4 6 633.14 19.8
5 4 -6 633.44 29.8
5 4 -6 605.64 17.5
5 4 -6 627.44 18.5
-5 4 6 630.04 19.3
-5 4 6 662.63 20.2
5 4 -6 618.94 17.1
-5 4 6 661.43 33.4
-4 -4 6 67.09 6.7
4 -4 -6 76.59 4
-4 -4 6 79.39 4.6
4 -4 -6 71.19 6
-4 -4 6 77.29 15
4 -4 -6 69.99 16
-4 4 6 68.59 6
-4 4 6 72.19 5.8
4 4 -6 76.09 5
-4 4 6 71.79 14.1
-4 4 6 75.09 6.7
4 4 -6 107.59 15.3
4 4 -6 73.89 4
4 4 -6 77.29 6
3 -4 -6 402.26 14.8
3 -4 -6 400.66 13.3
-3 -4 6 396.36 12.3
3 -4 -6 416.76 26.7
-3 -4 6 403.26 14
3 -4 -6 402.76 11.5
-3 -4 6 382.36 24.6
-3 4 6 380.76 13.1
3 4 -6 391.46 11.1
3 4 -6 403.66 25.6
-3 4 6 358.86 14.2
3 4 -6 400.06 13.2
-3 4 6 384.36 13.8
-3 4 6 375.66 13.3
-3 4 6 431.26 26.2
3 4 -6 397.46 12.4
2 -4 -6 155.98 8.7
2 -4 -6 151.18 9
-2 -4 6 161.78 8.2
2 -4 -6 166.08 6.4
-2 -4 6 176.38 7
-2 -4 6 178.38 16.1
2 -4 -6 162.28 19.6
-2 -4 6 162.28 7.5
2 -4 -6 168.38 7.9
2 4 -6 165.68 5.9
-2 4 6 146.69 8
2 4 -6 180.98 8.1
-2 4 6 149.88 18.2
2 4 -6 155.88 7.7
-2 4 6 158.88 8.7
2 4 -6 163.28 7.2
-2 4 6 154.48 7.6
-2 4 6 159.38 7.7
2 4 -6 154.88 18.5
1 -4 -6 961.6 38.5
-1 -4 6 940.21 35.3
1 -4 -6 930.71 25.4
1 -4 -6 887.11 26.3
-1 -4 6 917.41 24.9
-1 -4 6 919.01 25.9
-1 -4 6 881.51 24.5
1 -4 -6 885.41 26.4
-1 4 6 923.31 25.9
1 4 -6 898.91 25
-1 4 6 882.51 25.1
-1 4 6 872.11 25.5
1 4 -6 909.41 24.8
1 4 -6 889.71 25.6
-1 4 6 905.01 25
1 4 -6 832.22 37.7
-1 4 6 864.41 37
1 4 -6 924.11 23.7
0 -4 6 -11.1 8.5
0 -4 -6 0.8 2.3
0 -4 -6 0.3 3.2
0 -4 6 -1 2.4
0 -4 6 0.3 2.9
0 -4 -6 -1.7 3.1
0 -4 -6 5.4 10.7
0 -4 6 -2.1 2.6
0 4 -6 12.8 11.7
0 4 6 1.2 2.6
0 4 -6 -0.3 1.9
0 4 6 1 2.4
0 4 -6 1.1 2.5
0 4 -6 -1.6 2.5
0 4 -6 5.1 2.7
0 4 6 -5.8 9.8
0 4 6 1.2 2.7
0 4 6 2.4 2.7
-1 -4 -6 144.59 18.2
-1 -4 -6 134.29 6.8
1 -4 6 132.19 7.5
1 -4 6 134.29 6.9
-1 -4 -6 113.79 7.3
1 -4 6 122.29 15.2
1 -4 6 127.19 6.7
-1 -4 -6 129.39 7.9
1 4 6 129.29 6.1
-1 4 -6 122.79 6.9
-1 4 -6 112.09 21.5
1 4 6 140.49 6.7
-1 4 -6 131.39 7.5
-1 4 -6 126.39 6.4
1 4 6 111.69 7.1
-1 4 -6 121.19 6.8
1 4 6 156.48 18
1 4 6 120.39 7.1
2 -4 6 139.79 7.4
-2 -4 -6 164.18 19.1
2 -4 6 142.19 18.1
2 -4 6 128.19 7.6
-2 -4 -6 134.49 6.9
2 -4 6 135.69 7.1
-2 -4 -6 129.49 7.8
-2 -4 -6 140.09 7.6
2 4 6 145.29 7.9
2 4 6 152.88 18.5
-2 4 -6 132.29 19.7
-2 4 -6 138.19 7.5
2 4 6 125.69 7.3
2 4 6 136.29 6.3
2 4 6 141.49 6.8
-2 4 -6 132.69 7.7
-2 4 -6 118.99 6.8
-3 -4 -6 472.55 16.1
-3 -4 -6 473.05 15
3 -4 6 448.86 15.2
3 -4 6 480.85 15.8
3 -4 6 471.05 15.3
-3 -4 -6 507.45 43.5
-3 -4 -6 479.35 16.6
3 -4 6 479.75 27.5
3 4 6 465.05 15.5
3 4 6 456.55 13.8
-3 4 -6 484.15 31.3
3 4 6 445.26 15.8
-3 4 -6 479.75 16.2
3 4 6 471.95 14.7
-3 4 -6 486.25 15.6
3 4 6 492.75 27.3
-3 4 -6 454.25 14.9
-4 -4 -6 9.8 3.2
4 -4 6 18.8 4.1
4 -4 6 26.7 13.2
-4 -4 -6 12.2 4
-4 -4 -6 36.4 14.7
-4 -4 -6 15.8 3.6
4 -4 6 15.6 4
-4 4 -6 18 4.1
-4 4 -6 14.5 4.1
4 4 6 29.6 11.8
-4 4 -6 32.1 14.4
-4 4 -6 10.5 3.3
4 4 6 17.4 3.2
-5 -4 -6 332.17 13.6
5 -4 6 374.36 28.9
-5 -4 -6 323.17 11.4
-5 -4 -6 336.67 11.8
5 -4 6 332.87 12.7
5 -4 6 328.17 12.7
-5 4 -6 345.27 13.6
-5 4 -6 295.07 12.9
5 4 6 304.17 24.1
5 4 6 314.17 11.2
-5 4 -6 309.87 30.1
-5 4 -6 297.67 11.9
-6 -4 -6 8.1 3.3
-6 -4 -6 8.5 3.4
6 -4 6 8.8 4.3
-6 -4 -6 8.8 4.7
6 -4 6 8.9 4.8
6 -4 6 12.1 15.8
6 4 6 5.9 3
-6 4 -6 14 5.1
-6 4 -6 8.1 4
-6 4 -6 3.3 5.1
-6 4 -6 -12.7 18.5
7 -4 6 171.78 10.2
-7 -4 -6 184.68 10.1
7 -4 6 184.58 9.7
-7 -4 -6 194.08 12.1
-7 4 -6 187.48 11.8
-7 4 -6 180.68 10
7 4 6 174.08 8.5
-7 4 -6 189.88 10.9
-8 -4 -6 8.5 4.2
-8 -4 -6 7.5 6.1
8 4 6 8.6 3.7
-8 4 -6 14.6 5.1
-8 4 -6 14.5 5.7
-9 -4 -6 52.99 8.2
-9 -4 -6 45.1 5.7
-9 4 -6 53.29 8.1
-8 -5 6 71.89 9.5
-8 -5 6 62.69 7.3
-8 5 6 74.09 7.7
-8 5 6 61.39 7.4
-7 -5 6 3.5 3.8
-7 -5 6 8.5 7.1
7 -5 -6 -1.2 4.5
-7 5 6 9.6 4.8
-7 5 6 8.1 4.9
-7 5 6 0.3 7
-6 -5 6 78.49 6.2
-6 -5 6 93.99 9.5
-6 -5 6 88.19 6.1
6 -5 -6 97.79 8.3
-6 5 6 88.89 10.7
-6 5 6 98.39 8.7
-6 5 6 77.69 8.3
6 5 -6 88.79 7.6
5 -5 -6 -0.2 2.1
5 -5 -6 -3.2 4.1
-5 -5 6 2.3 3.1
-5 -5 6 -1.7 6
5 5 -6 -1.1 4
5 5 -6 4 2.9
-5 5 6 -7.2 16.9
-5 5 6 2.1 5.7
-5 5 6 -0.3 4.7
-5 5 6 2.7 6.1
4 -5 -6 359.06 31
4 -5 -6 335.17 10.7
-4 -5 6 362.16 24.4
4 -5 -6 341.87 13.4
-4 -5 6 351.36 14.7
-4 -5 6 349.67 11.9
-4 5 6 341.97 16.2
-4 5 6 273.67 28.2
4 5 -6 302.67 31.7
-4 5 6 346.97 13.5
4 5 -6 326.67 11.1
4 5 -6 365.56 13.6
-4 5 6 353.06 13.5
3 -5 -6 10.9 4
-3 -5 6 10.7 3.3
3 -5 -6 12.6 2.9
3 -5 -6 26.9 17
-3 -5 6 11.8 4.6
3 5 -6 17.5 4.3
-3 5 6 5.4 3.8
-3 5 6 -6 14.5
3 5 -6 13.7 2.8
3 5 -6 8.5 14.5
-3 5 6 14.2 4.2
2 -5 -6 145.29 7.2
-2 -5 6 127.39 17.6
2 -5 -6 148.39 21.8
-2 -5 6 147.69 9.6
2 -5 -6 143.49 8.6
2 5 -6 148.09 8.8
-2 5 6 157.58 8.5
-2 5 6 154.88 8.6
2 5 -6 156.38 22.8
2 5 -6 148.09 6.7
-2 5 6 153.98 20.9
1 -5 -6 18.2 15.2
1 -5 -6 1.8 2.8
-1 -5 6 0.6 3.8
-1 -5 6 1.6 3.2
1 -5 -6 -0.6 3.2
1 -5 -6 -2.5 3.4
-1 -5 6 -5.9 12.2
1 5 -6 -0.9 2.9
-1 5 6 -0.2 3
-1 5 6 -1.4 3.2
1 5 -6 1.6 3.6
-1 5 6 -0.1 14.1
1 5 -6 -9.8 16
0 -5 -6 98.49 8.3
0 -5 6 78.39 6.7
0 -5 -6 117.79 20.2
0 -5 -6 92.09 6.9
0 -5 6 119.69 27.3
0 -5 -6 97.99 6.4
0 -5 6 91.69 7.9
0 5 6 96.39 6.6
0 5 6 105.09 7.1
0 5 -6 93.39 8.5
0 5 -6 95.59 21
0 5 6 70.99 18.7
-1 -5 -6 27.2 27.6
-1 -5 -6 10.3 4.4
1 -5 6 12.5 3.8
-1 -5 -6 9.1 3.4
1 -5 6 -2.7 13.3
1 -5 6 15.7 4.4
-1 -5 -6 16.5 4.5
1 5 6 -0.8 15.3
-1 5 -6 16.9 4.5
-1 5 -6 46.3 17.5
1 5 6 16.4 3.5
-1 5 -6 12.5 3.9
1 5 6 10.4 3.6
-2 -5 -6 215.88 9.9
2 -5 6 210.58 24.6
-2 -5 -6 223.98 11.5
-2 -5 -6 212.08 25.4
-2 -5 -6 213.88 11.1
2 -5 6 219.38 10.9
2 5 6 194.28 23.3
2 5 6 228.08 9.2
2 5 6 237.08 10.4
-2 5 -6 240.98 11.7
-2 5 -6 203.28 10.5
-2 5 -6 237.58 29.4
-3 -5 -6 3.7 4.2
-3 -5 -6 9.1 3.9
3 -5 6 4.4 16.1
3 -5 6 8.9 4.3
-3 -5 -6 1.3 4.6
3 5 6 9.1 3.9
-3 5 -6 13.8 5
-3 5 -6 7.8 4.4
-3 5 -6 20.4 19.9
3 5 6 10.4 14.2
4 -5 6 197.28 25.2
-4 -5 -6 253.37 13.1
4 -5 6 271.07 12.2
-4 -5 -6 231.18 11.6
-4 -5 -6 221.18 29.3
4 5 6 245.38 27
4 5 6 252.97 10.5
-4 5 -6 264.07 13.5
-5 -5 -6 26 5.2
-5 -5 -6 32.3 6.9
-5 -5 -6 28.1 5.7
5 -5 6 36.8 5.7
-5 5 -6 39.3 7
-5 5 -6 17.6 29.6
5 5 6 26.8 4.4
-6 -5 -6 156.58 12.4
-6 -5 -6 149.29 10.2
6 -5 6 177.58 10.9
-6 -5 -6 182.08 9.8
6 5 6 183.18 9.1
-6 5 -6 168.18 12.4
-7 -5 -6 10.7 6.3
-7 -5 -6 0.9 4.3
7 -5 6 14.7 5.2
7 5 6 4.5 4.4
-7 5 -6 4.8 6.3
-6 -6 6 -9.2 6.9
6 -6 -6 6.1 7.1
-6 6 6 -1.7 5.9
-6 6 6 4.5 5.8
-5 -6 6 40.2 8.2
5 -6 -6 44.3 8.1
5 -6 -6 53.19 6.1
-5 6 6 45.5 6.9
5 6 -6 52.99 7.2
-5 6 6 52.29 7.2
-4 -6 6 21.7 7.7
4 -6 -6 15.9 3.8
4 -6 -6 16.5 6.2
4 6 -6 16 5.1
-4 6 6 17.8 5.5
-4 6 6 17.5 5.7
-3 -6 6 106.59 11.2
3 -6 -6 100.19 7.5
3 -6 -6 96.59 10.5
-3 -6 6 83.79 8.5
-3 6 6 103.69 9.8
3 6 -6 117.39 10
-3 6 6 132.89 32.5
-3 6 6 106.89 9.1
3 6 -6 92.69 7.7
-2 -6 6 12.4 6.6
2 -6 -6 17.7 23.1
2 -6 -6 17.8 5.9
2 -6 -6 21.7 4.1
-2 -6 6 14.3 5.1
-2 6 6 19 22.9
2 6 -6 12.4 4.3
-2 6 6 8.7 5.3
2 6 -6 15.8 5.3
-2 6 6 13.3 4.8
1 -6 -6 98.59 9.6
1 -6 -6 99.19 8.4
1 -6 -6 96.29 23.5
-1 -6 6 90.29 8.3
-1 -6 6 111.19 20.8
-1 -6 6 79.89 8.4
1 6 -6 82.29 8
-1 6 6 94.59 8.6
1 6 -6 98.09 28.3
-1 6 6 97.89 9.1
-1 6 6 68.99 22.4
1 6 -6 105.29 9.3
0 -6 -6 59.19 6.3
0 -6 6 63.09 8.1
0 -6 -6 94.09 24
0 -6 -6 60.59 7.1
0 -6 -6 52.69 7.9
0 6 -6 51.49 7.4
0 6 6 44.9 22.6
0 6 6 67.99 7.8
0 6 6 55.29 6.6
0 6 -6 66.89 6.7
0 6 -6 90.39 27.5
-1 -6 -6 150.08 12.6
-1 -6 -6 170.18 10.6
-1 -6 -6 140.69 9.8
-1 6 -6 131.69 10.2
-1 6 -6 144.09 11.9
-1 6 -6 113.69 29.5
1 6 6 121.99 25.1
1 6 6 155.28 9.9
-2 -6 -6 4.3 4.7
2 -6 6 51.99 22.3
2 -6 6 3.2 8.2
-2 -6 -6 23.8 22.5
-2 -6 -6 6.7 5.6
-2 -6 -6 6.8 6.3
2 6 6 3.9 36.7
2 6 6 7.5 5.1
-2 6 -6 -16.9 26.8
-3 -6 -6 99.99 8.9
-3 -6 -6 103.09 11.9
3 -6 6 84.89 10
-3 -6 -6 107.89 10.8
3 -6 6 105.89 26
3 6 6 104.69 8.8
-3 6 -6 142.99 32.8
-3 6 -6 82.49 9.8
-4 -6 -6 6.6 5.1
-4 -6 -6 19.5 7.2
-4 -6 -6 22.6 6.6
4 -6 6 17.3 7.2
4 6 6 18.7 4.9
-4 6 -6 11.4 7.9
-5 -6 -6 17.5 7.1
-5 -6 -6 17.5 5.6
-5 -6 -6 23.2 6.7
-5 6 -6 15.7 8.2
5 6 6 17.4 5.3
-2 -7 6 84.59 10.4
2 -7 -6 60.29 9.1
2 -7 -6 92.39 10.3
2 7 -6 67.89 9.5
-2 7 6 56.89 7.9
-2 7 6 58.59 9.1
-1 -7 6 9 8.7
1 -7 -6 24.2 7.8
1 -7 -6 22.1 6.6
-1 7 6 9.3 7
-1 7 6 22.1 6.8
1 7 -6 18 9.9
0 -7 6 33.5 9.5
0 -7 -6 54.89 8
0 -7 -6 51.79 8
0 7 -6 50.69 9.8
0 7 6 43.4 7.8
0 7 6 50.29 8.8
1 -7 6 18.4 8.7
-1 -7 -6 29.6 8.1
-1 -7 -6 27.2 8.3
-1 -7 -6 27.7 7
-1 7 -6 27.5 9.4
1 7 6 36.3 7.9
-12 0 7 13 7.1
-12 0 7 -6 5.1
-11 0 7 84.09 8.7
-11 0 7 85.49 8.9
-11 0 7 68.79 5.9
-10 0 7 -0.6 2.5
-10 0 7 8.1 4.6
-9 0 7 220.78 7.8
-9 0 7 238.28 10.8
-8 0 7 -4 2.8
-8 0 7 -0.4 1.8
-7 0 7 313.27 12.1
-7 0 7 319.37 11.5
-7 0 7 333.47 8.9
-7 0 7 324.17 8.6
7 0 -7 321.57 8.3
-7 0 7 301.27 9.6
-7 0 7 326.67 12
-6 0 7 0.3 1.2
-6 0 7 2.8 3.3
-6 0 7 -0.1 1.7
-6 0 7 1.7 1.1
-6 0 7 -0.1 2.3
6 0 -7 0.2 0.8
-6 0 7 -0.9 3.5
-5 0 7 2493.55 59.69
-5 0 7 2455.55 63.39
-5 0 7 2341.47 64.09
-5 0 7 2516.25 59.19
5 0 -7 2371.46 58.69
-5 0 7 2402.46 61.09
-5 0 7 2442.96 58.99
5 0 -7 2425.16 58.69
-4 0 7 -1.2 1.9
-4 0 7 2.2 1.2
4 0 -7 3 1.2
-4 0 7 0.3 1.4
-4 0 7 -0.3 1.2
4 0 -7 2.1 1.1
-4 0 7 6.9 3.9
-4 0 7 1.3 3.7
3 0 -7 3299.57 79.79
-3 0 7 3356.86 85.69
-3 0 7 3224.88 86.09
3 0 -7 3298.97 79.59
-3 0 7 3329.47 79.99
-3 0 7 3214.68 81.19
-3 0 7 3402.26 79.59
-3 0 7 3348.17 79.99
2 0 -7 -0.3 1.1
2 0 -7 1.5 0.9
-2 0 7 -3.5 3.6
2 0 -7 1.2 1.1
-2 0 7 0.2 1.1
-2 0 7 2.6 0.9
-2 0 7 -1.3 1.3
-2 0 7 0.2 1.3
-1 0 7 37.7 6.6
1 0 -7 25.4 5.8
-1 0 7 28.7 2.4
1 0 -7 25.5 2.9
-1 0 7 26.5 2.4
-1 0 7 27.6 1.9
-1 0 7 25.1 2.4
1 0 -7 25.7 2.4
1 0 -7 24.3 2
0 0 7 4.4 1.4
0 0 -7 1.7 1.2
0 0 7 -0.5 1.1
0 0 7 2 1.1
0 0 -7 1.7 1.3
0 0 -7 1.5 1.1
0 0 -7 2.6 4.6
0 0 7 2.6 0.9
0 0 7 -5.3 4.3
-1 0 -7 80.89 3.8
-1 0 -7 109.99 9.9
-1 0 -7 82.69 4.2
1 0 7 90.09 4
1 0 7 90.39 9.7
1 0 7 94.99 4.4
1 0 7 87.49 4.4
-2 0 -7 -1.7 5.8
2 0 7 2 1.4
-2 0 -7 1.3 1.5
2 0 7 -1.5 5.3
2 0 7 0.5 1.4
-2 0 -7 -0.1 1.2
2 0 7 0.2 1.1
-2 0 -7 0.1 1.3
3 0 7 2306.67 67.39
-3 0 -7 2321.67 57.89
3 0 7 2449.66 57.99
3 0 7 2267.87 56.29
-3 0 -7 2240.28 57.89
-3 0 -7 2421.76 67.49
-3 0 -7 2316.27 58.19
-4 0 -7 4.7 7
4 0 7 0 0.6
-4 0 -7 0.2 1.8
4 0 7 0.1 0.8
4 0 7 9.5 8.1
-4 0 -7 -1.6 2.2
-4 0 -7 0.7 1.5
-5 0 -7 997.3 27.2
-5 0 -7 942.51 27
-5 0 -7 1000.3 26.5
5 0 7 959.1 26.4
-5 0 -7 991.5 37.7
-6 0 -7 -4.1 3
-6 0 -7 0.7 2.6
-6 0 -7 -0.4 2.3
6 0 7 0.5 2.5
-6 0 -7 6.7 9.2
6 0 7 19.7 9.4
-7 0 -7 318.07 12.5
7 0 7 344.57 23.8
7 0 7 286.47 11.1
-7 0 -7 309.47 11.1
-7 0 -7 301.47 22.5
-7 0 -7 295.97 12.5
-8 0 -7 0.2 5.8
-8 0 -7 1.3 4.1
-8 0 -7 -3.4 2.8
-8 0 -7 -0.1 11.8
8 0 7 4.8 12.8
-9 0 -7 404.96 16.7
-9 0 -7 398.26 14.2
-10 0 -7 -0.8 5.7
-10 0 -7 -0.9 4.1
-11 0 -7 12.6 5.3
-11 0 -7 10.8 7.7
-12 -1 7 48.5 6.7
-12 -1 7 50.49 7.1
-12 -1 7 36.5 5.8
-11 -1 7 39.8 5.5
-11 -1 7 45.8 6.1
-11 -1 7 32.2 5.3
-11 1 7 38.8 6.2
-10 -1 7 18.4 3.8
-10 -1 7 29.2 4.5
-10 -1 7 21.2 4.8
-10 1 7 19.3 4.7
-10 1 7 22 2.4
-10 1 7 14.3 6
-10 1 7 19.7 2.5
-10 1 7 28 6.4
-9 -1 7 15 3.1
-9 -1 7 16.1 3.2
-9 -1 7 20.1 4.6
-9 1 7 23.4 6.7
-9 1 7 15.9 2.3
-9 1 7 15.4 4
-9 1 7 19 6.9
-9 1 7 18.3 2.4
-8 -1 7 409.06 12.6
-8 -1 7 400.36 12.8
-8 -1 7 403.06 14.5
-8 1 7 394.96 17.1
-8 1 7 392.36 11.3
-8 1 7 389.86 11.7
-8 1 7 410.56 14.4
7 -1 -7 2.2 6
-7 -1 7 8.3 3.1
7 -1 -7 8.5 1.7
-7 -1 7 6.5 2.3
-7 -1 7 7.2 2.6
-7 1 7 6.7 5.3
-7 1 7 4.6 1.7
-7 1 7 6.2 1.8
-7 1 7 7.5 3.1
-6 -1 7 840.22 21.5
-6 -1 7 831.92 20.4
-6 -1 7 796.62 22.5
6 -1 -7 831.62 28.2
6 -1 -7 837.92 23.7
-6 -1 7 810.22 22.6
-6 -1 7 811.92 23.7
-6 -1 7 796.42 22.2
6 -1 -7 825.52 21.3
-6 1 7 839.32 21.4
-6 1 7 853.31 27.7
-6 1 7 826.62 21.8
-6 1 7 846.22 23.2
-6 1 7 843.52 23.8
5 -1 -7 2.3 1.3
-5 -1 7 -0.4 1.9
-5 -1 7 1.1 3.3
-5 -1 7 1.2 1
-5 -1 7 1.2 1.7
5 -1 -7 1.1 2.4
5 -1 -7 4.5 5.6
-5 1 7 0.4 0.8
-5 1 7 1.6 1.4
5 1 -7 0.5 0.8
-5 1 7 -1.3 1.8
5 1 -7 1.3 1.5
-5 1 7 2.2 1.5
-5 1 7 1.4 1.7
-5 1 7 11.1 5
-4 -1 7 454.35 16.7
4 -1 -7 476.55 19.1
4 -1 -7 450.25 11.5
4 -1 -7 430.36 12.4
-4 -1 7 431.06 11.4
-4 -1 7 456.15 12.1
-4 -1 7 455.45 13
4 -1 -7 474.45 14.1
4 1 -7 446.26 17.2
-4 1 7 446.36 18.4
-4 1 7 420.46 14
-4 1 7 448.96 12.8
-4 1 7 435.36 13.9
-4 1 7 441.66 11.7
4 1 -7 443.86 12.1
-3 -1 7 19.9 4.4
-3 -1 7 15.4 1.8
3 -1 -7 15.7 1.9
-3 -1 7 18.2 2.4
3 -1 -7 15.6 2
3 -1 -7 15 5.8
3 -1 -7 13.6 2.4
-3 1 7 18 2.8
3 1 -7 18.6 2.1
-3 1 7 19.4 2.5
-3 1 7 19.8 1.9
-3 1 7 16.4 2.1
3 1 -7 24.8 5.6
-3 1 7 8 5.3
3 1 -7 15.2 2
-2 -1 7 3338.27 80.29
2 -1 -7 3332.37 79.89
-2 -1 7 3427.86 86.69
2 -1 -7 3315.47 79.99
2 -1 -7 3285.57 80.69
-2 -1 7 3232.78 79.69
2 -1 -7 3201.88 79.39
-2 1 7 3351.16 79.89
-2 1 7 3238.28 79.99
2 1 -7 3215.98 79.79
2 1 -7 3308.67 86.89
-2 1 7 3275.37 86.79
2 1 -7 3431.86 79.99
-2 1 7 3180.28 80.49
-1 -1 7 192.28 6.6
1 -1 -7 203.88 6.7
-1 -1 7 184.98 6.9
-1 -1 7 188.48 11.8
1 -1 -7 191.58 6.7
1 -1 -7 199.18 6.5
1 -1 -7 196.18 7.1
1 1 -7 175.28 7.6
1 1 -7 190.68 5.4
1 1 -7 210.98 7
1 1 -7 177.38 12.4
-1 1 7 197.48 12.3
-1 1 7 203.88 7
-1 1 7 193.58 12.8
-1 1 7 197.18 6.9
-1 1 7 203.28 6.6
0 -1 7 947.91 32.3
0 -1 -7 978.7 25
0 -1 -7 970.2 25
0 -1 -7 924.51 24.9
0 -1 -7 1015.5 25.2
0 -1 7 1010.3 25.1
0 -1 7 972.6 25.4
0 1 -7 947.41 25.2
0 1 -7 910.21 26
0 1 -7 1010.7 33.1
0 1 -7 952.6 24.1
0 1 7 940.81 32.9
0 1 7 910.31 31.6
0 1 7 957.9 25.2
0 1 7 964.1 24.9
0 1 7 970.2 24.9
1 -1 7 112.99 5.3
-1 -1 -7 111.79 5.3
-1 -1 -7 115.29 5
1 -1 7 125.79 11.1
1 -1 7 106.99 5.7
-1 -1 -7 117.49 4.7
-1 -1 -7 124.79 5.2
-1 1 -7 120.99 4.8
1 1 7 118.69 5.2
-1 1 -7 125.59 5.4
1 1 7 120.49 4.7
1 1 7 107.29 11
-1 1 -7 125.29 5.3
1 1 7 138.19 11.7
-1 1 -7 147.09 11.9
-2 -1 -7 1011.8 25.9
-2 -1 -7 993.3 26.2
2 -1 7 1003.8 26.3
2 -1 7 1036.3 26.1
-2 -1 -7 962 26
2 -1 7 946.11 34.1
-2 1 -7 982.9 26
2 1 7 966 34.6
2 1 7 938.51 33.4
2 1 7 926.81 24.7
-2 1 -7 990.5 34.8
-2 1 -7 997.3 26.2
2 1 7 1014.5 26.1
-2 1 -7 969.9 25.7
2 1 7 990 26.1
3 -1 7 249.38 8.6
3 -1 7 240.48 8.8
-3 -1 -7 239.88 8.3
3 -1 7 242.48 16.2
-3 -1 -7 238.18 9
-3 -1 -7 244.58 8.7
-3 1 -7 265.87 17.5
3 1 7 245.78 8.8
3 1 7 245.38 8.7
3 1 7 227.48 6.8
3 1 7 253.97 15.8
-3 1 -7 236.68 8.7
-3 1 -7 242.78 8.8
3 1 7 216.58 15.8
-3 1 -7 244.08 8.6
-4 -1 -7 629.14 18.3
4 -1 7 616.84 15.7
4 -1 7 607.84 17.6
4 -1 7 591.74 26.8
-4 -1 -7 618.84 18.1
-4 -1 -7 611.24 17.4
4 -1 7 582.04 17.6
4 1 7 622.34 14.9
-4 1 -7 598.94 17.9
4 1 7 607.74 18.3
-4 1 -7 624.64 18
-4 1 -7 621.74 27.2
-4 1 -7 612.34 17.8
4 1 7 599.04 17.8
5 -1 7 287.67 10.2
-5 -1 -7 284.17 9.9
5 -1 7 309.07 21
-5 -1 -7 292.17 10.9
5 -1 7 281.77 8.1
-5 -1 -7 273.67 11
5 1 7 282.67 18.5
-5 1 -7 295.37 11
5 1 7 281.77 10.3
-5 1 -7 284.27 10.7
-5 1 -7 287.97 20.6
5 1 7 295.27 19.9
-5 1 -7 286.27 10.5
6 -1 7 564.74 17.4
-6 -1 -7 557.44 18.3
-6 -1 -7 610.14 17.3
-6 -1 -7 590.34 18.8
6 -1 7 580.84 14.9
6 1 7 561.44 28
-6 1 -7 597.54 18.6
6 1 7 586.34 17.5
-6 1 -7 589.34 17.7
6 1 7 575.34 26.9
-6 1 -7 644.54 31.7
-6 1 -7 557.84 18
7 -1 7 92.09 14.6
-7 -1 -7 95.49 8.3
-7 -1 -7 98.59 5.9
7 -1 7 102.49 7.7
-7 -1 -7 84.69 7.2
-7 1 -7 95.19 7.4
-7 1 -7 105.79 7.7
-7 1 -7 85.39 16.1
-7 1 -7 97.49 6.3
7 1 7 84.59 13.8
7 1 7 81.79 13.5
7 1 7 86.99 6.7
8 -1 7 112.39 18.9
-8 -1 -7 126.49 9.1
-8 -1 -7 128.99 7
-8 1 -7 95.49 9
8 1 7 101.49 17.6
8 1 7 106.09 16.5
-8 1 -7 113.99 18.3
-8 1 -7 124.29 7.9
-8 1 -7 123.89 9.6
-9 -1 -7 -0.6 4.8
-9 -1 -7 -1.4 3.4
-9 1 -7 -2.1 5.3
-10 -1 -7 113.89 8
-10 -1 -7 81.29 8.8
-10 1 -7 94.39 9
-10 1 -7 91.99 11.9
-11 -2 7 31.7 5
-11 -2 7 34.8 6.6
-11 -2 7 29.3 5.5
-11 2 7 37.8 4
-10 -2 7 66.49 7.8
10 -2 -7 78.89 21.9
-10 -2 7 48.5 6.9
-10 -2 7 60.99 6.2
-10 2 7 38.1 12.2
-10 2 7 66.59 5.9
-10 2 7 69.89 7
-10 2 7 48.7 5.3
9 -2 -7 232.28 19.3
-9 -2 7 215.58 8.6
-9 -2 7 215.28 11.2
-9 -2 7 225.68 10.4
-9 2 7 226.08 8.4
-9 2 7 214.08 8.9
-9 2 7 242.48 11.4
-9 2 7 227.38 18.8
-8 -2 7 200.78 9.6
8 -2 -7 196.88 7.8
8 -2 -7 206.38 17.4
8 -2 -7 206.48 11
-8 -2 7 214.38 10.4
-8 -2 7 204.28 7.5
-8 2 7 211.88 7.9
-8 2 7 200.88 8.4
-8 2 7 205.98 10.9
-8 2 7 212.58 10.2
-8 2 7 219.98 17.1
7 -2 -7 11.6 8.9
-7 -2 7 -0.3 2.8
-7 -2 7 6.2 1.9
7 -2 -7 8 2.4
7 -2 -7 1.5 3.5
-7 2 7 16.1 7.8
-7 2 7 8.8 2.8
-7 2 7 10.8 3.7
-7 2 7 7.3 2.3
-7 2 7 1.3 3.5
-6 -2 7 9.3 1.3
6 -2 -7 10.3 7.9
6 -2 -7 7.2 3.4
-6 -2 7 9 1.6
-6 -2 7 16.5 3.7
-6 -2 7 6.4 2.6
-6 2 7 8.7 3.2
-6 2 7 10.9 2.5
-6 2 7 7.2 2.9
6 2 -7 8.1 1.2
-6 2 7 5.1 6.4
6 2 -7 7.9 5
-6 2 7 7 2.3
-5 -2 7 385.06 10.1
5 -2 -7 395.56 13.7
-5 -2 7 393.36 12.7
5 -2 -7 400.96 12
-5 -2 7 402.16 10.7
5 -2 -7 357.96 20
-5 -2 7 420.76 15.1
5 2 -7 401.76 10.6
-5 2 7 380.96 19.4
-5 2 7 396.16 13.2
5 2 -7 367.66 16.9
-5 2 7 386.36 14.6
-5 2 7 396.76 12.4
-5 2 7 397.46 11.9
-4 -2 7 295.17 8.6
-4 -2 7 288.97 13.5
4 -2 -7 292.37 7.8
4 -2 -7 292.07 11
-4 -2 7 291.57 10
4 -2 -7 289.17 9.3
4 2 -7 294.97 9.6
-4 2 7 300.07 10.5
-4 2 7 294.57 9.8
-4 2 7 298.67 9.5
4 2 -7 290.77 9
-4 2 7 288.47 10.2
4 2 -7 303.47 15.8
-4 2 7 248.78 19.4
3 -2 -7 108.19 5
3 -2 -7 111.29 6.1
3 -2 -7 113.29 12.1
-3 -2 7 113.39 4.5
-3 -2 7 104.49 9.1
-3 -2 7 108.59 5.5
3 -2 -7 116.39 4.2
-3 2 7 106.99 4.9
-3 2 7 109.09 5.6
-3 2 7 112.19 11.2
-3 2 7 120.99 5.7
3 2 -7 105.29 5.2
3 2 -7 104.99 12
3 2 -7 114.99 5
-3 2 7 110.99 5.3
2 -2 -7 497.65 14.4
-2 -2 7 469.65 14.1
2 -2 -7 486.35 14.5
-2 -2 7 475.95 19.8
2 -2 -7 442.16 12.8
-2 -2 7 473.05 13.2
2 -2 -7 500.65 22.4
2 -2 -7 463.65 13.6
2 2 -7 475.05 21.1
2 2 -7 480.95 13.7
-2 2 7 426.06 20.5
-2 2 7 443.76 13.9
-2 2 7 447.96 15
2 2 -7 456.75 13.9
-2 2 7 492.05 14.1
1 -2 -7 1554.94 39.8
-1 -2 7 1527.75 39.7
1 -2 -7 1550.54 48.8
1 -2 -7 1578.94 39.4
-1 -2 7 1529.85 46.7
1 -2 -7 1563.34 39.8
-1 -2 7 1562.04 39.1
1 -2 -7 1601.14 38.9
-1 2 7 1525.15 39.4
1 2 -7 1461.65 37.5
1 2 -7 1555.54 39.5
-1 2 7 1601.84 39.7
1 2 -7 1565.34 48.7
-1 2 7 1556.64 47.7
1 2 -7 1620.44 39.5
-1 2 7 1513.35 39.5
0 -2 -7 50.79 3.8
0 -2 7 61.79 8.8
0 -2 -7 48.5 3.6
0 -2 7 44.5 3.3
0 -2 7 54.69 4.2
0 -2 -7 49.1 9.4
0 -2 -7 49.2 4
0 2 -7 51.29 3.8
0 2 7 60.69 9.8
0 2 -7 63.59 9.9
0 2 7 55.19 3.8
0 2 7 50.99 3.8
0 2 7 50.79 3.4
0 2 -7 49.99 3.9
1 -2 7 1534.35 49.1
-1 -2 -7 1492.95 40.5
1 -2 7 1596.74 40.2
1 -2 7 1573.64 40.6
-1 -2 -7 1579.34 40
-1 -2 -7 1606.84 50.19
-1 -2 -7 1571.54 40.1
-1 2 -7 1599.44 40.3
1 2 7 1632.54 40.5
1 2 7 1615.54 40.5
1 2 7 1592.64 39.5
-1 2 -7 1639.14 40.8
-1 2 -7 1603.04 51.29
1 2 7 1518.45 48.5
2 -2 7 797.92 21.6
2 -2 7 779.02 21.9
-2 -2 -7 775.12 21.4
2 -2 7 795.22 30.8
-2 -2 -7 793.42 22
-2 -2 -7 779.62 20.9
2 2 7 770.12 29.9
2 2 7 750.02 20.3
2 2 7 787.72 31.2
2 2 7 810.32 21.9
-2 2 -7 791.42 21.7
-2 2 -7 799.52 32.7
-2 2 -7 776.12 22
2 2 7 812.82 22
3 -2 7 679.83 28.7
-3 -2 -7 643.94 18.8
-3 -2 -7 642.94 18
-3 -2 -7 652.43 17.2
3 -2 7 636.74 18.6
3 -2 7 597.24 18.2
3 -2 7 646.94 17.2
-3 2 -7 656.23 18.5
3 2 7 624.34 18.8
3 2 7 615.14 26.3
3 2 7 619.24 16.6
3 2 7 593.64 27.9
-3 2 -7 708.13 30
3 2 7 644.24 18.5
-3 2 -7 644.34 18.8
4 -2 7 70.99 5.2
-4 -2 -7 65.39 5.2
-4 -2 -7 65.79 3.5
4 -2 7 67.29 5
-4 -2 -7 71.69 4.8
4 -2 7 72.69 12.8
4 -2 7 75.79 4
-4 2 -7 67.69 5.3
4 2 7 50.59 10.6
4 2 7 62.59 5.6
-4 2 -7 73.29 12.8
4 2 7 70.99 5.2
4 2 7 67.29 2.9
-4 2 -7 66.49 5.3
5 -2 7 35.6 4.2
5 -2 7 34 4
5 -2 7 20.6 10.7
-5 -2 -7 37 4
5 -2 7 40.3 4.9
-5 -2 -7 37.6 4.4
5 2 7 36.8 4.2
5 2 7 34.3 10.4
-5 2 -7 39.5 4.4
-5 2 -7 40.6 4.9
-5 2 -7 37.2 12.4
5 2 7 39.4 5
5 2 7 18.6 10.2
-6 -2 -7 10.9 2.9
6 -2 7 6.9 3.4
6 -2 7 9.2 12.4
-6 -2 -7 11.8 3.6
-6 2 -7 7.5 3.6
6 2 7 14.3 9.6
-6 2 -7 12.5 12.6
6 2 7 27.8 11.7
-6 2 -7 5.2 3.1
6 2 7 10.1 4.2
6 2 7 13.4 3.6
-7 -2 -7 113.99 8.3
7 -2 7 112.79 5.5
-7 -2 -7 115.99 6.5
7 2 7 103.89 14.2
-7 2 -7 111.39 21.5
7 2 7 101.99 14.6
-7 2 -7 111.09 8.8
-7 2 -7 104.99 7.6
-7 2 -7 104.09 7.9
7 2 7 125.09 12.3
-8 -2 -7 41.6 4.4
-8 -2 -7 55.99 11.3
8 -2 7 40.6 4.5
-8 2 -7 49.3 6.2
8 2 7 66.19 17.1
-8 2 -7 36.8 5.5
-9 -2 -7 53.49 7.7
-9 -2 -7 49.4 5.2
-9 2 -7 48.4 6.2
-9 2 -7 65.99 8.6
-10 -2 -7 14.5 7.1
-10 -2 -7 16.5 4.6
-10 2 -7 17.8 5.7
-10 2 -7 11.2 7.3
-11 -3 7 27.9 4.9
-11 -3 7 28 7.6
-11 -3 7 21.5 7.3
-11 3 7 18 6.8
-11 3 7 20.4 4.8
-10 -3 7 27.8 6.7
-10 -3 7 26.4 4
-10 -3 7 23.5 6.2
-10 3 7 30.1 7
-10 3 7 25.4 4.8
-9 -3 7 109.29 9.7
-9 -3 7 107.69 9.9
-9 -3 7 112.49 6.4
-9 3 7 121.39 9.7
-9 3 7 104.89 8.6
-9 3 7 114.69 7.5
8 -3 -7 58.49 14.8
-8 -3 7 44 4.4
-8 -3 7 63.49 6.7
8 -3 -7 50.49 5.7
-8 3 7 52.29 5.5
-8 3 7 64.59 14.9
-8 3 7 33.7 6.7
-8 3 7 65.79 7.7
7 -3 -7 168.28 18.6
-7 -3 7 177.18 5.8
-7 -3 7 194.88 10
-7 -3 7 192.28 6.9
7 -3 -7 188.68 8.3
-7 -3 7 194.98 10
-7 3 7 193.18 8.6
-7 3 7 221.78 21.3
-7 3 7 184.18 9.2
-7 3 7 205.48 10.1
7 3 -7 188.18 12.8
-6 -3 7 147.19 5.3
6 -3 -7 148.69 7
-6 -3 7 153.18 8.7
-6 -3 7 156.28 11.1
6 -3 -7 135.49 9.5
6 -3 -7 153.28 17.5
-6 -3 7 150.18 5.3
-6 3 7 146.49 16.9
-6 3 7 158.78 7.2
-6 3 7 150.48 8.2
-6 3 7 147.99 9.4
6 3 -7 156.98 6
6 3 -7 166.98 15
-6 3 7 164.08 8.1
5 -3 -7 257.57 11.4
-5 -3 7 238.28 7.7
-5 -3 7 244.78 14.2
-5 -3 7 250.07 10.2
5 -3 -7 239.58 9
-5 3 7 242.48 9.2
-5 3 7 234.68 10.7
5 3 -7 234.38 17.3
-5 3 7 255.07 10.2
-5 3 7 244.68 9.9
5 3 -7 231.78 8.2
5 3 -7 245.68 7.9
-5 3 7 194.78 18.3
4 -3 -7 9.2 1.5
4 -3 -7 7.9 1.3
-4 -3 7 6.6 3
-4 -3 7 9.6 1.8
4 -3 -7 16.7 10.1
4 -3 -7 7.8 3.8
-4 -3 7 3.7 6
4 -3 -7 2.8 2.3
-4 3 7 3.3 2.1
4 3 -7 6.4 2.3
4 3 -7 13.8 2.2
4 3 -7 8.8 2.9
-4 3 7 13.4 3.6
-4 3 7 5.9 2.7
-4 3 7 1.2 8.3
4 3 -7 13.8 8.7
-4 3 7 9 3
3 -3 -7 316.47 20.6
-3 -3 7 290.57 9.3
3 -3 -7 296.37 10.2
-3 -3 7 331.77 16.6
-3 -3 7 282.07 10.8
3 -3 -7 287.87 11.4
-3 3 7 307.57 10.8
-3 3 7 260.87 18.3
-3 3 7 292.27 11.1
3 3 -7 296.67 9.4
-3 3 7 289.77 10.2
3 3 -7 287.77 19.6
3 3 -7 294.07 10.3
-3 3 7 297.97 10.6
-2 -3 7 241.28 9.2
-2 -3 7 228.68 8.1
2 -3 -7 235.48 9.7
2 -3 -7 243.18 8.8
-2 -3 7 232.28 15.4
2 -3 -7 227.78 9.6
2 -3 -7 252.27 19.3
-2 3 7 233.98 17.4
-2 3 7 243.48 9.4
-2 3 7 227.28 8.9
2 3 -7 233.08 8.8
-2 3 7 253.67 9.4
2 3 -7 235.58 19.2
2 3 -7 239.78 9
2 3 -7 237.18 6.5
-2 3 7 231.58 8.7
2 3 -7 242.38 8.4
-1 -3 7 1036.7 35.8
-1 -3 7 976.8 27.9
1 -3 -7 1021.6 28.3
1 -3 -7 1041 27.3
1 -3 -7 1045.8 38.9
-1 -3 7 1027.8 27.9
-1 3 7 1015.1 27.3
-1 3 7 995.5 27.2
-1 3 7 1036.6 37.7
-1 3 7 1010.3 27.7
1 3 -7 1029.4 27.7
1 3 -7 980.9 44.4
1 3 -7 1024.3 25.5
-1 3 7 1049.89 27.9
1 3 -7 1000.6 27.2
0 -3 7 122.49 5.8
0 -3 -7 122.69 6.7
0 -3 -7 135.29 15.2
0 -3 -7 124.69 6.1
0 -3 7 116.49 6.5
0 -3 -7 123.99 6.6
0 -3 7 124.09 13.4
0 3 -7 131.29 5.1
0 3 -7 125.69 6.1
0 3 7 130.69 14.3
0 3 7 122.39 5.8
0 3 7 125.59 6.4
0 3 -7 135.29 15.8
0 3 7 128.09 6.6
0 3 7 127.69 5.8
0 3 -7 131.29 6.6
1 -3 7 518.85 15.2
1 -3 7 496.95 24.6
-1 -3 -7 505.15 16
-1 -3 -7 509.75 15.2
1 -3 7 507.15 15.1
1 -3 7 501.65 15.8
-1 -3 -7 501.45 15.5
-1 -3 -7 511.65 25.7
-1 3 -7 513.85 15.9
-1 3 -7 541.45 27.7
1 3 7 507.15 25
-1 3 -7 503.45 15.3
1 3 7 507.65 14.6
1 3 7 481.65 15.5
1 3 7 498.35 15.6
-2 -3 -7 129.09 15.9
2 -3 7 95.79 5.6
2 -3 7 98.39 6.3
2 -3 7 98.09 6.4
-2 -3 -7 98.59 6.4
2 -3 7 92.39 13.7
-2 -3 -7 109.39 5.7
-2 -3 -7 101.39 5.6
-2 3 -7 92.49 5.8
-2 3 -7 94.09 14.9
2 3 7 103.39 6.2
-2 3 -7 102.89 6.3
2 3 7 101.49 4.9
2 3 7 98.89 6
-3 -3 -7 414.86 13.9
-3 -3 -7 406.26 12.9
3 -3 7 384.26 13
3 -3 7 375.96 13.6
3 -3 7 408.26 24.1
-3 -3 -7 388.56 24
-3 -3 -7 402.36 12.5
3 -3 7 411.26 13.7
3 3 7 401.46 11.6
3 3 7 404.46 13.5
3 3 7 391.76 13.8
-3 3 -7 383.66 25.5
-3 3 -7 397.76 13.2
-3 3 -7 417.16 14.1
3 3 7 416.26 23.3
-4 -3 -7 134.09 7.6
-4 -3 -7 131.59 6.6
4 -3 7 137.79 7.4
4 -3 7 140.49 7.7
4 -3 7 155.78 19.1
-4 -3 -7 130.29 6.1
4 -3 7 135.09 7.3
-4 3 -7 128.09 7.6
-4 3 -7 140.39 7.4
4 3 7 129.89 5.1
4 3 7 118.79 14.9
4 3 7 133.29 7.5
-4 3 -7 120.99 18.7
4 3 7 157.78 8.1
-5 -3 -7 109.99 5.3
5 -3 7 137.79 18
5 -3 7 107.79 7.4
5 -3 7 115.99 6.6
-5 -3 -7 114.49 7.5
-5 -3 -7 106.39 6.2
5 3 7 101.99 14.8
-5 3 -7 104.19 6.9
5 3 7 103.09 13.8
5 3 7 111.59 7.4
5 3 7 119.99 8.9
-5 3 -7 128.09 7.8
-5 3 -7 105.09 19
6 -3 7 20.7 4.1
6 -3 7 19.4 13.9
-6 -3 -7 25 3.2
-6 -3 -7 28.1 3.9
6 -3 7 25.3 4
-6 -3 -7 36.4 5.6
-6 3 -7 32.4 16.1
6 3 7 29.1 13.3
-6 3 -7 26.7 5
6 3 7 14.9 14.7
7 -3 7 132.79 7.7
-7 -3 -7 149.19 9.9
-7 -3 -7 136.49 7.5
7 3 7 122.09 22.6
-7 3 -7 113.49 8.9
-7 3 -7 137.59 22.4
-7 3 -7 136.69 9
-7 3 -7 143.89 11
-8 -3 -7 15.4 5.8
-8 -3 -7 17.7 3.9
8 -3 7 15.3 4.5
-8 3 -7 24.3 5.5
-8 3 -7 10 5.3
-8 3 -7 20.9 5.5
-9 -3 -7 126.29 11.7
-9 -3 -7 100.29 7.8
-9 3 -7 100.59 10.4
-9 3 -7 83.29 9.6
-10 -4 7 28.5 7.9
-10 4 7 41.1 7.8
-10 4 7 28.4 6
-9 -4 7 10.2 3.9
-9 -4 7 0.8 6.3
-9 4 7 13.2 6.4
-9 4 7 2.1 4.9
8 -4 -7 67.09 7.1
-8 -4 7 50.29 7.7
-8 -4 7 54.69 5.5
-8 4 7 53.89 6.9
-8 4 7 55.89 6.2
-8 4 7 45.4 7.3
-7 -4 7 -0.1 2.1
-7 -4 7 3.5 2.7
7 -4 -7 0 3.3
-7 -4 7 -2.4 4.5
-7 -4 7 10.8 8.9
7 4 -7 0.5 2.4
-7 4 7 -1.7 5.3
-7 4 7 2.4 4.3
7 4 -7 -0.7 2.7
-7 4 7 3.1 5
-6 -4 7 386.66 15.1
6 -4 -7 381.66 13.6
6 -4 -7 372.06 30.8
-6 -4 7 389.16 19.7
-6 -4 7 367.26 11.3
-6 4 7 421.76 31
-6 4 7 373.86 14.9
-6 4 7 379.36 13.4
6 4 -7 360.56 26.1
-6 4 7 373.16 14.5
6 4 -7 365.96 12.2
6 4 -7 359.06 11.5
5 -4 -7 60.89 15.3
5 -4 -7 61.39 6.3
-5 -4 7 68.79 4.6
5 -4 -7 61.09 3
5 -4 -7 69.99 3.2
-5 -4 7 69.79 7.6
-5 4 7 62.99 16.5
-5 4 7 59.19 6.4
5 4 -7 66.09 5
-5 4 7 77.79 6.8
5 4 -7 60.19 14.2
-5 4 7 67.39 6.4
5 4 -7 49.6 5.8
4 -4 -7 327.17 11.8
4 -4 -7 345.47 27
-4 -4 7 332.07 13
-4 -4 7 299.37 10.3
4 -4 -7 307.17 9.3
4 4 -7 300.97 24.3
-4 4 7 323.57 11.8
4 4 -7 312.47 11.6
-4 4 7 329.37 12.3
-4 4 7 308.97 22.8
-4 4 7 322.87 12.7
4 4 -7 320.47 10.7
4 4 -7 313.57 9
3 -4 -7 140.39 7.4
-3 -4 7 136.79 8.2
3 -4 -7 135.49 5.7
-3 -4 7 133.09 15.5
3 -4 -7 164.28 20.1
-3 -4 7 153.38 6.5
-3 4 7 145.49 7.5
3 4 -7 155.48 7
-3 4 7 156.88 18.6
-3 4 7 146.49 7.5
3 4 -7 144.59 5
3 4 -7 147.09 7.6
-3 4 7 149.09 8.4
3 4 -7 127.89 17.7
-2 -4 7 475.95 14.3
2 -4 -7 509.95 28.6
2 -4 -7 487.25 16.4
-2 -4 7 465.65 24.8
-2 -4 7 474.65 15.9
2 -4 -7 487.95 15.4
2 -4 -7 470.65 16.4
-2 4 7 477.05 15.7
2 4 -7 389.16 14.7
-2 4 7 485.85 15.2
2 4 -7 444.26 29.2
2 4 -7 480.35 15.4
-2 4 7 483.15 15.2
-2 4 7 458.65 26.4
-2 4 7 412.16 15.5
2 4 -7 463.65 14.4
2 4 -7 472.95 12.8
1 -4 -7 -1.6 2.5
1 -4 -7 13.9 11.9
-1 -4 7 -2.3 2.2
-1 -4 7 3.4 3
1 -4 -7 2 3.4
1 -4 -7 3.7 3.5
-1 -4 7 -0.9 2.7
-1 -4 7 17 9.7
-1 4 7 -0.1 2.5
1 4 -7 3.6 1.9
-1 4 7 -0.6 3
1 4 -7 3.4 2.7
-1 4 7 -2.1 2.9
1 4 -7 13.6 11.7
-1 4 7 -2 2.3
1 4 -7 -3.7 2.8
1 4 -7 2 2.9
-1 4 7 -12.2 10.2
0 -4 7 423.56 13.8
0 -4 -7 411.96 14
0 -4 7 445.66 25
0 -4 -7 441.46 15.4
0 -4 -7 422.76 15
0 -4 7 438.16 14.8
0 -4 7 414.66 13.6
0 -4 -7 415.36 27.6
0 4 -7 395.26 28
0 4 -7 430.36 14.7
0 4 7 413.96 14.4
0 4 -7 421.46 14
0 4 7 435.56 14.2
0 4 7 425.46 14.6
0 4 7 395.66 26
0 4 -7 425.46 12.9
0 4 7 422.06 13.6
0 4 -7 415.56 13.8
1 -4 7 215.58 9.6
1 -4 7 230.28 30.5
-1 -4 -7 191.78 9.7
-1 -4 -7 201.98 9.7
-1 -4 -7 227.28 21.4
1 -4 7 203.08 8.7
-1 -4 -7 216.58 8.8
1 -4 7 209.98 9
-1 4 -7 219.58 8.5
1 4 7 207.08 21.5
1 4 7 191.58 9.1
-1 4 -7 207.38 9.8
1 4 7 200.78 9.4
1 4 7 182.68 8.1
-1 4 -7 199.68 8.8
-1 4 -7 201.18 9
1 4 7 210.28 8.7
-1 4 -7 225.88 26.4
-2 -4 -7 177.68 8
2 -4 7 169.08 8.2
-2 -4 -7 175.48 21.4
-2 -4 -7 170.78 9.4
2 -4 7 186.08 8.5
2 -4 7 169.18 9
-2 -4 -7 182.98 8.9
2 -4 7 166.78 20.6
2 4 7 180.98 8.2
2 4 7 188.48 20.5
-2 4 -7 170.88 8.3
-2 4 -7 163.08 9.1
2 4 7 179.98 7.3
-2 4 -7 142.19 21.5
-2 4 -7 173.08 8.6
-3 -4 -7 65.19 5.7
3 -4 7 57.99 6.1
-3 -4 -7 54.39 6.5
3 -4 7 57.19 6.3
3 -4 7 68.99 14.7
-3 -4 -7 55.89 6.1
-3 -4 -7 49.1 15.3
-3 4 -7 53.99 6.2
3 4 7 55.79 4.3
-3 4 -7 93.79 17.8
-3 4 -7 51.79 6
3 4 7 33 11.3
-3 4 -7 52.59 5.4
3 4 7 44.1 5
-4 -4 -7 514.05 16.1
4 -4 7 550.34 31.5
4 -4 7 516.85 16.6
-4 -4 -7 483.25 16.4
-4 -4 -7 535.55 18
-4 -4 -7 531.95 32.1
4 -4 7 521.55 17.3
-4 4 -7 521.25 34.7
-4 4 -7 512.95 17.9
-4 4 -7 493.75 17
4 4 7 518.05 16
4 4 7 466.25 28.3
-4 4 -7 494.75 16.4
5 -4 7 37.2 5.3
-5 -4 -7 32.8 4.3
-5 -4 -7 34.7 4.4
-5 -4 -7 31.8 5.3
5 -4 7 53.89 16.5
5 -4 7 35 5.2
-5 4 -7 45 5.4
5 4 7 30.4 13.5
-5 4 -7 39.8 18.1
-5 4 -7 31.1 5.2
-5 4 -7 22 4.7
5 4 7 36.8 14.5
5 4 7 36.8 4.3
6 -4 7 139.59 9.3
6 -4 7 139.09 9.4
-6 -4 -7 189.88 16.8
-6 -4 -7 140.89 7.4
-6 -4 -7 154.18 8.2
-6 4 -7 120.19 8.7
-6 4 -7 160.78 11
-6 4 -7 150.68 25.9
6 4 7 147.29 7.6
-7 -4 -7 6.9 3.1
-7 -4 -7 18.8 6.2
7 -4 7 8.3 4.9
-7 -4 -7 6.9 3.9
7 -4 7 10.2 5.1
-7 4 -7 7 5.4
7 4 7 10.1 3.7
-8 -4 -7 118.49 11.6
-8 -4 -7 102.39 8.3
8 4 7 105.09 9.8
-8 4 -7 105.39 10.6
-8 -5 7 5.2 7
-8 -5 7 0.5 6.6
-8 5 7 6.7 5.2
-8 5 7 2.7 6.2
7 -5 -7 97.29 8.7
-7 -5 7 94.69 6.6
-7 -5 7 98.39 10.2
-7 5 7 104.49 10.2
-7 5 7 119.39 9.5
6 -5 -7 14.3 4.6
-6 -5 7 7.6 6.2
-6 -5 7 8.4 3.3
6 5 -7 5.7 4.4
-6 5 7 7.1 4.9
-6 5 7 14 5.3
-5 -5 7 178.98 8.3
5 -5 -7 175.18 10.2
5 -5 -7 174.38 6.6
-5 -5 7 194.78 12.2
-5 5 7 176.18 10.7
5 5 -7 185.28 7.3
5 5 -7 198.08 10
-5 5 7 202.98 10.6
4 -5 -7 2.4 4
-4 -5 7 1.4 12.2
-4 -5 7 7.3 5.6
-4 -5 7 7.6 3
4 -5 -7 2.1 18.1
4 -5 -7 3.5 2.3
4 5 -7 31.1 34.2
-4 5 7 19.3 17.9
4 5 -7 4.6 2.5
-4 5 7 3.5 5.2
-4 5 7 2.7 4
4 5 -7 5.5 3.8
-3 -5 7 399.56 13.5
3 -5 -7 405.86 12.6
3 -5 -7 411.76 15
-3 -5 7 404.16 16.1
3 -5 -7 416.36 33.5
-3 5 7 395.66 31.2
3 5 -7 404.86 33.4
3 5 -7 393.76 12
-3 5 7 394.56 14.8
3 5 -7 429.26 15.2
-3 5 7 410.16 14.8
2 -5 -7 6.2 3.5
-2 -5 7 2.9 4
2 -5 -7 3.4 2.7
-2 -5 7 3.5 3.3
2 -5 -7 32.8 17.3
2 5 -7 4.2 3.9
2 5 -7 7.3 17.7
-2 5 7 4.1 3.7
-2 5 7 8.6 15.8
2 5 -7 3.1 2.5
-2 5 7 5.4 3.9
1 -5 -7 34.1 5.6
1 -5 -7 35.4 16.7
-1 -5 7 33.7 4.5
-1 -5 7 47.6 15.1
-1 -5 7 32.2 5.5
1 -5 -7 27.3 4.6
1 -5 -7 37.9 4.1
-1 5 7 28.4 4.7
-1 5 7 30.6 4.6
-1 5 7 34.8 16.8
1 5 -7 29 5.4
1 5 -7 14.7 18.2
1 5 -7 35.7 4.1
0 -5 7 15.8 14.6
0 -5 -7 18.2 5.1
0 -5 -7 27.1 17.2
0 -5 7 21.5 4.2
0 -5 7 25.6 5.2
0 -5 -7 20.2 4.6
0 5 -7 15.9 19.2
0 5 7 30.6 16
0 5 7 16.7 3.9
0 5 -7 24.1 5.2
0 5 7 17.9 3.9
0 5 -7 28.3 4.1
1 -5 7 178.28 9.3
1 -5 7 187.88 10.6
1 -5 7 187.88 23.3
-1 -5 -7 223.18 17.8
-1 -5 -7 187.48 11
-1 -5 -7 185.98 9.3
-1 -5 -7 204.38 28.1
1 5 7 202.78 9.3
-1 5 -7 188.38 9.4
1 5 7 204.08 9
1 5 7 154.28 21.6
-1 5 -7 226.78 28
-1 5 -7 193.48 10.6
2 -5 7 7.3 4.3
-2 -5 -7 20.2 18.5
-2 -5 -7 6.4 4.5
2 -5 7 -6.1 15.4
-2 -5 -7 10.7 3.7
-2 -5 -7 3.4 4.6
-2 5 -7 -16.3 19.7
-2 5 -7 10.3 4.4
2 5 7 0.9 2.9
2 5 7 16 15
2 5 7 6.6 3.5
-2 5 -7 -5.2 4.2
-3 -5 -7 122.19 10.1
-3 -5 -7 128.39 12.4
-3 -5 -7 117.89 9.8
3 -5 7 141.79 22.8
3 -5 7 130.39 9.7
-3 5 -7 106.49 9.6
3 5 7 117.49 6.8
-3 5 -7 152.98 27.6
3 5 7 118.79 8.2
-3 5 -7 130.19 10.1
3 5 7 112.09 19.4
4 -5 7 -20.2 19.4
-4 -5 -7 2.5 6.5
-4 -5 -7 8.6 5
-4 -5 -7 -8.2 18.8
-4 -5 -7 3.5 4
4 -5 7 -6.2 4.6
4 5 7 0 4
-4 5 -7 6.3 9.5
-4 5 -7 44.6 24.2
-5 -5 -7 144.89 10.2
-5 -5 -7 144.39 9.4
-5 -5 -7 139.49 11.9
5 -5 7 142.79 10.7
5 5 7 144.59 8.5
-5 5 -7 119.49 11.4
-6 -5 -7 25.6 5.1
-6 -5 -7 36.1 7.7
6 -5 7 25.8 5.7
-6 5 -7 18.7 7.1
6 5 7 12.5 3.9
7 -5 7 100.19 10.7
-7 -5 -7 78.19 8.9
-7 -5 -7 86.19 8.7
7 5 7 88.09 9.3
-7 5 -7 75.29 9.4
6 -6 -7 16.7 7.2
-6 -6 7 27.7 7.8
-6 6 7 25.2 6.4
-6 6 7 28.1 6.4
5 -6 -7 12.6 6.9
5 -6 -7 0.4 3.4
-5 -6 7 0.8 6.9
5 6 -7 -2.4 5.7
-5 6 7 4.2 5.8
-5 6 7 7.7 6
4 -6 -7 58.79 6.4
4 -6 -7 54.49 7.9
-4 -6 7 55.69 8.7
4 6 -7 57.59 6.9
-4 6 7 55.79 7
-4 6 7 49.99 7.2
-3 -6 7 12.4 5
3 -6 -7 16.1 6.1
3 -6 -7 11.1 3.9
-3 -6 7 12.7 7.1
-3 6 7 7.9 5.6
3 6 -7 -0.9 5.9
-3 6 7 17.4 5.9
-2 -6 7 118.69 11.6
2 -6 -7 74.09 26.2
2 -6 -7 101.09 9.8
2 -6 -7 100.99 7.4
-2 -6 7 79.99 9.3
-2 6 7 87.29 27
2 6 -7 85.89 9
2 6 -7 103.09 10.5
-2 6 7 98.69 9.4
-2 6 7 103.09 9.8
-1 -6 7 20.8 6.6
1 -6 -7 53.09 24.4
1 -6 -7 21.4 7
1 -6 -7 25.3 5.2
1 -6 -7 26.2 5.9
-1 6 7 34.7 21
1 6 -7 27.2 5.1
-1 6 7 22.3 5.3
1 6 -7 25.7 6.3
-1 6 7 15.7 6.3
0 -6 -7 143.49 9.4
0 -6 7 130.39 12.5
0 -6 -7 62.89 26.1
0 -6 -7 122.49 10.2
0 -6 -7 135.19 12.4
0 -6 7 105.49 23.7
0 6 7 135.49 9.3
0 6 -7 109.09 9.1
0 6 7 116.89 26
0 6 7 131.09 10.6
0 6 -7 95.29 32.5
0 6 -7 159.08 11.6
-1 -6 -7 37.6 6.4
1 -6 7 23 6.8
-1 -6 -7 49.6 29.7
-1 -6 -7 35.8 6.1
-1 -6 -7 50.89 9.1
1 6 7 72.39 22.3
-1 6 -7 39.1 7.2
1 6 7 31.2 5.6
1 6 7 33.4 5.9
-1 6 -7 30.7 6
-1 6 -7 23.2 29.9
-2 -6 -7 132.29 12.9
2 -6 7 61.49 22.6
-2 -6 -7 128.79 10.8
2 -6 7 140.19 13
-2 -6 -7 141.49 10.1
-2 6 -7 117.39 13.2
-2 6 -7 122.09 33.7
2 6 7 147.89 10.2
2 6 7 120.49 14.3
3 -6 7 18.8 7.2
-3 -6 -7 14.9 7
-3 -6 -7 11.7 4.9
3 6 7 12.6 5.3
-3 6 -7 50.89 33.7
-3 6 -7 24.2 7.9
-4 -6 -7 42.8 6.7
-4 -6 -7 31 7.2
4 -6 7 37 8.2
-4 6 -7 46.5 9.3
4 6 7 37.5 6.2
-5 -6 -7 10.4 7.4
5 -6 7 -0.3 7.4
-5 -6 -7 7.5 5.3
5 6 7 2.3 4.9
-5 6 -7 6.6 7.9
-12 0 8 12.6 10.7
-11 0 8 -1.9 4.7
-11 0 8 6.1 3.2
-11 0 8 -6.7 5
-10 0 8 75.39 5.2
-10 0 8 73.19 8.4
-9 0 8 2.6 2.2
-9 0 8 4 3.9
-8 0 8 301.87 10.2
-8 0 8 270.17 10.5
-8 0 8 282.97 11.9
-8 0 8 276.87 7.9
-8 0 8 278.87 7.6
-8 0 8 282.87 9
-7 0 8 1.5 1.7
-7 0 8 -1 1.3
7 0 -8 0.3 1
-7 0 8 0.3 1.2
-7 0 8 -2.1 4
-7 0 8 10.2 4.7
-7 0 8 0 2.7
-6 0 8 566.54 19.7
-6 0 8 573.94 20.6
-6 0 8 565.94 17.9
-6 0 8 585.54 15.4
-6 0 8 570.94 15.6
5 0 -8 2.2 1.2
-5 0 8 1.3 2.2
-5 0 8 5.7 4.7
-5 0 8 -1.7 4
-5 0 8 0.6 1.7
-5 0 8 -2.1 1.3
-5 0 8 -1.7 1.5
5 0 -8 -0.2 1.2
-4 0 8 3964.1 97.19
-4 0 8 4019.3 102.49
4 0 -8 3999.2 94.99
-4 0 8 4002.1 95.39
-4 0 8 4070.59 101.69
-4 0 8 3964.3 95.09
4 0 -8 3802.82 95.09
-4 0 8 3819.82 95.29
-3 0 8 2.5 1.4
-3 0 8 9.1 4.9
-3 0 8 4.2 1.1
3 0 -8 1 1.3
-3 0 8 1.3 1.3
-3 0 8 0.9 1.9
-3 0 8 -1.1 4.5
3 0 -8 6.2 1.6
2 0 -8 886.31 22.9
-2 0 8 892.31 30.6
-2 0 8 902.61 23.7
-2 0 8 904.31 22.7
2 0 -8 909.11 23.4
-2 0 8 921.41 24.5
-2 0 8 901.21 23.6
-1 0 8 0.2 1.2
1 0 -8 1.1 1.3
-1 0 8 -0.6 1.3
-1 0 8 -0.6 0.8
1 0 -8 -0.2 1.3
-1 0 8 1.2 1.3
-1 0 8 3.8 4.9
1 0 -8 -1.8 5.5
0 0 8 239.78 14.7
0 0 8 230.38 7.9
0 0 -8 243.68 14.7
0 0 -8 215.18 7.2
0 0 -8 218.48 7.7
0 0 8 234.28 7.2
0 0 8 236.78 7.8
0 0 8 221.28 7.8
0 0 -8 222.98 7.9
-1 0 -8 1.6 1.4
1 0 8 -1 1.1
1 0 8 1.7 1.6
-1 0 -8 -0.2 1.1
-1 0 -8 -3.4 5.8
1 0 8 0.3 1.4
1 0 8 -3.9 5.4
1 0 8 1.3 1.3
-1 0 -8 0.9 1.5
-2 0 -8 125.29 12.5
2 0 8 117.19 5.7
2 0 8 114.99 12.6
-2 0 -8 134.19 6.1
-2 0 -8 124.19 5.5
2 0 8 127.09 5.8
2 0 8 130.99 5.6
-2 0 -8 123.79 5.7
2 0 8 127.59 5
-3 0 -8 0 2
-3 0 -8 9.3 7.1
3 0 8 4.1 2.2
3 0 8 5.4 7.2
-3 0 -8 -0.9 1.8
-3 0 -8 0.8 1.6
4 0 8 1125.39 30
4 0 8 1130.59 27.7
-4 0 -8 1121.59 40.5
4 0 8 1089.49 40.5
-4 0 -8 1114.09 30.4
-4 0 -8 1145.49 30.1
-4 0 -8 1128.69 30.3
-5 0 -8 0.1 9
5 0 8 1.6 2.5
-5 0 -8 -1.4 2.1
-5 0 -8 -1.6 2.7
5 0 8 -5.1 8.9
-5 0 -8 2.9 2.6
-6 0 -8 54.19 5.2
6 0 8 63.09 14.9
6 0 8 63.19 5.9
-6 0 -8 52.59 13.1
-6 0 -8 67.89 6.8
-6 0 -8 57.69 5.7
-7 0 -8 -3.3 11.4
-7 0 -8 1.5 3
7 0 8 -14.6 12
-7 0 -8 -3.5 3.9
-7 0 -8 -2.3 3.2
-8 0 -8 220.28 24.6
-8 0 -8 214.98 12
-8 0 -8 213.48 9.8
8 0 8 215.28 24.8
-9 0 -8 0.1 4.7
-9 0 -8 -3.8 6
-10 0 -8 87.89 8.6
-10 0 -8 98.19 11.9
-11 -1 8 68.49 7.8
-11 -1 8 67.99 7.5
-11 -1 8 65.29 7.8
-11 1 8 67.89 8
-10 -1 8 39.3 5.9
-10 -1 8 44.7 5.1
-10 -1 8 36 5
-10 1 8 36.6 7
-10 1 8 41.5 3.6
-10 1 8 41.8 4.2
-10 1 8 35.2 5.9
-9 -1 8 24.2 5
-9 -1 8 25.2 3.6
-9 -1 8 24.5 3.4
-9 1 8 23.2 7.8
-9 1 8 34.6 7.5
-9 1 8 23.7 2.5
-9 1 8 24.6 5
-9 1 8 24 2.8
-8 -1 8 14.4 4.2
-8 -1 8 18.8 2.7
-8 -1 8 15 3
-8 1 8 19.7 2.6
-8 1 8 14.5 2.3
-8 1 8 14.5 6.5
-8 1 8 11 4
-8 1 8 11 3.6
-8 1 8 7.7 7.2
-7 -1 8 408.76 12.8
-7 -1 8 405.36 11.9
-7 -1 8 417.96 14.6
-7 -1 8 399.96 11.2
7 -1 -8 412.16 11.5
-7 -1 8 373.86 11.1
-7 1 8 405.56 11.7
-7 1 8 394.96 13.7
-7 1 8 403.96 12
-7 1 8 420.56 17.9
-7 1 8 415.66 14.4
-6 -1 8 47.6 4.1
-6 -1 8 40.4 5.3
-6 -1 8 43.8 2.6
-6 -1 8 43.2 5.4
-6 -1 8 40.1 5.3
6 -1 -8 46.1 3.2
-6 1 8 51.59 4.9
-6 1 8 48.9 5.2
6 1 -8 48.2 2.4
-6 1 8 44.2 2.3
-6 1 8 49.4 3.4
-6 1 8 42.1 3.5
-6 1 8 46.7 7.5
5 -1 -8 436.46 14.3
-5 -1 8 440.16 12
-5 -1 8 410.56 16.6
-5 -1 8 436.76 14.4
-5 -1 8 420.86 16.5
-5 -1 8 428.86 11.7
-5 -1 8 436.16 13.1
5 -1 -8 439.16 12.4
5 -1 -8 439.66 11.3
-5 1 8 441.86 12.9
-5 1 8 450.15 12.5
-5 1 8 439.06 14.4
-5 1 8 441.56 19
5 1 -8 453.25 12.7
-5 1 8 433.26 11.6
-5 1 8 445.36 13.5
-4 -1 8 156.48 11.1
-4 -1 8 189.98 5.1
-4 -1 8 186.88 6.3
4 -1 -8 180.08 6.5
4 -1 -8 191.08 8
4 -1 -8 186.98 5.7
-4 -1 8 172.28 6.9
-4 1 8 185.08 6.8
-4 1 8 187.58 5.9
-4 1 8 183.58 7.2
4 1 -8 191.68 6.7
-4 1 8 189.88 7.9
4 1 -8 180.38 12.3
-4 1 8 186.68 12.4
4 1 -8 176.38 6.2
-3 -1 8 982.6 25.2
-3 -1 8 971.4 31.7
3 -1 -8 1015.9 24.9
3 -1 -8 998.2 25.5
3 -1 -8 990.8 26.6
-3 -1 8 977 25.9
-3 1 8 998 25.8
-3 1 8 938.11 24.9
-3 1 8 928.81 26.4
-3 1 8 1007.4 25.6
3 1 -8 977.1 25.4
3 1 -8 969.4 32.1
3 1 -8 979.9 25.4
2 -1 -8 214.68 7.1
-2 -1 8 208.38 7.3
2 -1 -8 213.98 7.4
-2 -1 8 197.58 12.8
2 -1 -8 217.28 7.5
2 -1 -8 226.78 8.2
-2 -1 8 216.98 7.8
-2 1 8 215.98 13.4
2 1 -8 214.78 7.5
2 1 -8 202.28 13.2
-2 1 8 210.88 8
-2 1 8 219.68 7.7
2 1 -8 236.38 5.8
2 1 -8 200.88 7.6
-2 1 8 206.48 13.9
-2 1 8 223.28 7.3
-1 -1 8 251.47 8.2
-1 -1 8 242.78 14.5
1 -1 -8 237.98 8
1 -1 -8 252.17 8.3
1 -1 -8 254.57 8.6
-1 -1 8 242.58 8.5
1 -1 -8 239.98 8.1
1 1 -8 243.38 8.2
-1 1 8 225.18 14.1
-1 1 8 239.78 8.5
1 1 -8 266.17 15.4
-1 1 8 262.37 8.1
1 1 -8 235.78 6.8
-1 1 8 255.17 8.5
-1 1 8 241.08 14.9
1 1 -8 244.48 8.3
0 -1 -8 527.25 14.8
0 -1 8 520.45 15.2
0 -1 8 513.35 14.8
0 -1 -8 521.85 14.8
0 -1 -8 528.05 14.9
0 -1 8 502.65 22.1
0 -1 -8 506.35 14.9
0 1 -8 517.95 15.1
0 1 8 512.25 14.7
0 1 8 534.85 15.1
0 1 -8 492.25 13.9
0 1 8 523.25 22.3
0 1 -8 508.65 22.9
0 1 8 532.45 23.1
0 1 -8 516.95 14.9
1 -1 8 2920.21 71.79
1 -1 8 2919.51 81.59
-1 -1 -8 2855.41 71.69
1 -1 8 2723.33 71.99
-1 -1 -8 3008 71.99
-1 -1 -8 2859.81 71.69
1 1 8 2926.11 71.99
1 1 8 3052.79 81.39
-1 1 -8 2906.31 82.19
1 1 8 2932.51 82.19
-1 1 -8 2995.2 71.99
1 1 8 3007.1 71.79
-1 1 -8 2868.71 71.99
-1 1 -8 2896.21 71.09
1 1 8 2968.2 71.19
2 -1 8 641.74 27.2
-2 -1 -8 640.84 18.2
2 -1 8 654.03 18.3
-2 -1 -8 619.94 17.8
2 -1 8 630.14 17.9
-2 -1 -8 598.14 17.8
-2 1 -8 645.34 27.6
2 1 8 610.44 27.2
2 1 8 614.04 16.7
2 1 8 641.34 18
-2 1 -8 621.04 18.1
2 1 8 652.43 26.9
-2 1 -8 631.34 18.2
2 1 8 666.73 18.3
-2 1 -8 611.44 17.5
3 -1 8 176.18 7.6
-3 -1 -8 177.18 7.1
-3 -1 -8 175.98 7.3
3 -1 8 191.28 15.8
3 1 8 173.28 14.8
-3 1 -8 174.58 15.5
3 1 8 187.68 8.7
-3 1 -8 172.28 7.1
3 1 8 166.68 5.5
3 1 8 187.98 10.3
3 1 8 169.68 15.8
-3 1 -8 177.68 7.4
-3 1 -8 189.78 7.9
4 -1 8 395.36 11.1
-4 -1 -8 410.76 13.5
4 -1 8 399.26 13.2
4 -1 8 394.66 23.1
-4 -1 -8 417.16 13.9
-4 -1 -8 416.36 13
4 -1 8 421.16 13.4
-4 1 -8 421.06 13.5
-4 1 -8 394.36 13.5
4 1 8 408.86 10.5
4 1 8 417.16 13.9
-4 1 -8 437.76 23.9
4 1 8 397.26 13.2
4 1 8 385.56 22.2
-4 1 -8 423.76 13.5
4 1 8 444.56 23.9
5 -1 8 371.16 10.5
5 -1 8 369.76 12.9
5 -1 8 378.96 24.1
-5 -1 -8 413.46 14.1
-5 -1 -8 397.36 13.6
-5 -1 -8 382.36 12.7
-5 1 -8 406.66 13.6
-5 1 -8 387.86 13.3
5 1 8 383.76 12.9
5 1 8 395.36 22.5
-5 1 -8 385.66 24.4
-5 1 -8 378.36 13.5
-6 -1 -8 152.18 8.3
6 -1 8 161.38 5
6 -1 8 133.89 7.7
-6 -1 -8 144.89 9.1
-6 -1 -8 143.49 7.2
6 1 8 156.78 20.4
-6 1 -8 159.28 8.7
6 1 8 136.79 7.8
-6 1 -8 143.29 18.2
6 1 8 168.98 17.8
-6 1 -8 156.18 8
-6 1 -8 136.99 8.1
-7 -1 -8 578.44 19.4
-7 -1 -8 590.84 17.9
7 -1 8 594.64 33.2
-7 1 -8 605.64 19.6
-7 1 -8 586.84 33.3
-7 1 -8 576.14 18.4
-7 1 -8 537.95 19.1
7 1 8 600.44 33.1
7 1 8 569.74 30.6
-8 -1 -8 18.3 3.9
-8 1 -8 9.7 4.3
-8 1 -8 14.5 7
-8 1 -8 14.4 15.4
-9 -1 -8 53.89 7.8
-9 1 -8 48.2 6.1
-9 1 -8 31.9 6.6
-10 -1 -8 5.7 4.6
-10 -1 -8 -3.7 6.5
-10 1 -8 -4.3 4.9
-10 1 -8 8.6 6.3
-11 -2 8 40.3 7.3
-11 -2 8 46.2 5.4
-11 -2 8 37.7 6
-11 2 8 35 4.1
-11 2 8 35.8 7.3
-10 -2 8 165.48 11.4
-10 -2 8 171.18 9.8
-10 -2 8 159.28 7.8
-10 2 8 177.08 11.6
-10 2 8 203.78 25.3
-10 2 8 161.38 7.4
-10 2 8 146.39 8
-9 -2 8 80.69 8.8
9 -2 -8 83.89 14.5
-9 -2 8 73.79 7.2
-9 -2 8 74.49 5.2
-9 2 8 67.79 6
-9 2 8 74.59 8.3
-9 2 8 95.39 13
-9 2 8 72.09 5.4
-8 -2 8 138.89 9.3
8 -2 -8 137.49 6.4
8 -2 -8 143.09 17.3
-8 -2 8 120.59 8.1
-8 -2 8 128.09 5.8
-8 2 8 186.58 16.7
-8 2 8 144.69 6.6
-8 2 8 128.59 9.4
-8 2 8 151.68 9
-8 2 8 131.79 7.1
-7 -2 8 163.98 8.1
7 -2 -8 161.48 6.8
-7 -2 8 139.79 7.4
7 -2 -8 168.78 17.4
-7 -2 8 157.08 6.2
7 -2 -8 147.89 9.5
-7 2 8 163.98 8.6
-7 2 8 166.58 6.7
-7 2 8 159.38 9.1
-7 2 8 162.98 15.3
-7 2 8 155.58 7.3
-6 -2 8 234.58 7.2
-6 -2 8 246.08 11.6
6 -2 -8 242.78 10.9
-6 -2 8 255.47 9.8
6 -2 -8 258.47 8.8
-6 -2 8 235.78 6.9
6 -2 -8 245.88 17.6
6 2 -8 246.58 13.6
-6 2 8 242.58 9.2
6 2 -8 249.97 7.3
6 2 -8 237.08 7
-6 2 8 253.47 10.4
-6 2 8 250.87 10.4
-6 2 8 284.47 17.8
-6 2 8 250.17 8.7
5 -2 -8 75.89 6.2
5 -2 -8 68.09 10.8
-5 -2 8 75.49 5.2
5 -2 -8 72.59 4.6
-5 -2 8 77.59 3.6
-5 -2 8 89.59 8.6
-5 2 8 69.09 10.8
5 2 -8 82.59 10
-5 2 8 79.09 5
-5 2 8 75.79 5.9
5 2 -8 78.29 5.1
-5 2 8 78.99 5.9
5 2 -8 71.89 3.9
-5 2 8 70.59 4.4
-4 -2 8 33.7 3.6
-4 -2 8 30.9 6.4
4 -2 -8 27.1 2.1
-4 -2 8 28.3 2.6
4 -2 -8 29.7 4.2
4 -2 -8 17.8 2.4
-4 2 8 25.4 3.1
-4 2 8 32.3 8.7
-4 2 8 23.9 3.2
4 2 -8 36.5 8.2
-4 2 8 30 3.7
4 2 -8 26.2 3.1
-4 2 8 23.7 3.1
4 2 -8 31.3 3.4
-3 -2 8 552.94 28.1
3 -2 -8 620.14 18.3
3 -2 -8 645.04 17.7
-3 -2 8 632.74 18.2
3 -2 -8 637.84 27.4
3 -2 -8 637.34 20.3
-3 -2 8 633.24 17.1
3 -2 -8 637.34 16.6
-3 2 8 620.64 20.3
-3 2 8 637.24 25.9
3 2 -8 614.14 17.5
-3 2 8 635.44 18.5
-3 2 8 644.04 18.2
3 2 -8 609.64 25.8
3 2 -8 631.54 17.7
-2 -2 8 1179.28 30.7
2 -2 -8 1161.68 30.1
-2 -2 8 1120.19 37.2
2 -2 -8 1148.69 40
-2 -2 8 1150.08 29.7
2 -2 -8 1153.38 29.4
2 -2 -8 1164.48 30.7
2 -2 -8 1169.18 31.1
-2 2 8 1126.99 38.9
2 2 -8 1111.29 30.1
-2 2 8 1206.78 30.5
-2 2 8 1144.69 30.5
2 2 -8 1114.99 38.8
2 2 -8 1163.38 30.1
-2 2 8 1173.28 30.5
-1 -2 8 297.57 10.3
1 -2 -8 292.67 10.3
1 -2 -8 288.37 18.5
1 -2 -8 302.87 10.4
-1 -2 8 295.27 9.6
1 -2 -8 291.07 10.2
1 -2 -8 285.67 9.7
-1 -2 8 294.77 16.8
-1 2 8 301.67 10
-1 2 8 295.07 10.1
1 2 -8 288.77 7.9
1 2 -8 295.77 9.9
1 2 -8 320.27 10.1
1 2 -8 305.17 18.8
-1 2 8 288.17 9.8
-1 2 8 284.87 17.1
0 -2 -8 1142.59 30.5
0 -2 -8 1145.09 30.2
0 -2 -8 1181.88 30.4
0 -2 8 1181.68 30.3
0 -2 8 1211.98 39.9
0 -2 8 1152.48 30.8
0 -2 -8 1141.19 30.7
0 -2 -8 1142.69 40.7
0 2 -8 1214.68 41.6
0 2 -8 1090.39 29.1
0 2 -8 1141.49 30.7
0 2 8 1114.29 39.1
0 2 -8 1176.38 30.5
0 2 8 1169.68 30.7
0 2 8 1192.48 30.5
0 2 8 1154.58 30
1 -2 8 704.43 28.8
-1 -2 -8 667.53 20.8
-1 -2 -8 692.83 20.3
-1 -2 -8 699.03 19.8
1 -2 8 732.43 20
1 -2 8 724.03 20.5
1 2 8 725.03 20.3
-1 2 -8 699.83 30.6
-1 2 -8 742.93 20.2
1 2 8 714.73 30.3
-1 2 -8 713.03 20.4
-1 2 -8 710.13 19.2
1 2 8 690.03 28.4
1 2 8 732.63 19.2
1 2 8 749.73 20.3
-2 -2 -8 290.37 9.9
2 -2 8 292.77 18.8
-2 -2 -8 285.77 9.4
-2 -2 -8 293.37 10.5
2 -2 8 281.47 10.3
2 2 8 296.47 10.4
2 2 8 316.37 20.4
2 2 8 289.67 18.4
2 2 8 281.87 8.8
2 2 8 295.47 10.5
-2 2 -8 274.77 9.5
-2 2 -8 288.37 10.5
-2 2 -8 308.87 21
-3 -2 -8 423.76 12.9
3 -2 8 391.36 13
3 -2 8 382.56 22.9
3 -2 8 429.66 11.9
-3 -2 -8 412.16 13.5
-3 -2 -8 396.26 11.8
3 -2 8 411.86 13.5
-3 2 -8 411.26 13.5
-3 2 -8 397.26 12.9
3 2 8 390.16 13.5
-3 2 -8 419.76 13.4
3 2 8 401.06 13.3
-3 2 -8 432.56 25.7
3 2 8 404.96 23.3
3 2 8 337.67 22
3 2 8 416.06 11.3
4 -2 8 648.34 19.5
-4 -2 -8 652.93 19.7
4 -2 8 661.73 19.3
-4 -2 -8 635.74 17.2
4 -2 8 669.33 17.6
-4 -2 -8 691.83 19
4 -2 8 682.53 31.4
-4 2 -8 648.94 19.5
4 2 8 607.24 17.1
-4 2 -8 651.43 32.1
4 2 8 628.04 28.9
-4 2 -8 658.53 19.8
-4 2 -8 642.04 19.4
4 2 8 643.14 19.4
5 -2 8 15.8 11.9
5 -2 8 6.9 3.1
5 -2 8 4.8 3.3
-5 -2 -8 6.2 2.6
-5 -2 -8 10.2 2.7
5 -2 8 7.9 2.1
5 2 8 9.2 11
-5 2 -8 9.2 2.9
-5 2 -8 11.9 3.6
-5 2 -8 20.6 11.9
5 2 8 13.8 3.4
5 2 8 11 4.7
5 2 8 -7.1 14.4
-5 2 -8 8.5 3.1
-6 -2 -8 80.79 5.9
6 -2 8 93.59 5.4
-6 -2 -8 84.09 7.2
6 -2 8 85.99 16.8
6 2 8 92.79 7.2
-6 2 -8 80.29 7.4
-6 2 -8 84.19 6.8
-6 2 -8 87.79 7.3
-6 2 -8 78.19 16.1
6 2 8 78.19 14.3
6 2 8 86.19 15.6
7 -2 8 46.6 4.3
-7 -2 -8 46 5.4
-7 -2 -8 51.09 6.1
7 -2 8 59.99 17.2
-7 2 -8 36 17.2
7 2 8 67.79 16.6
-7 2 -8 61.99 7.3
-7 2 -8 44.5 5.7
7 2 8 31.4 13.6
-7 2 -8 47.4 6
8 -2 8 150.68 6.6
-8 -2 -8 161.38 11.2
-8 -2 -8 152.18 8.4
-8 2 -8 155.88 10.1
-8 2 -8 156.08 11.8
-9 -2 -8 17.2 6.4
-9 -2 -8 22 4.5
-9 2 -8 28.2 7
-9 2 -8 11.6 5.3
-10 -2 -8 21.8 5
-10 -2 -8 12.4 7.5
-10 2 -8 21.1 7.4
-10 2 -8 19.2 6.4
-10 -3 8 50.79 5
-10 -3 8 45.4 8.5
-10 -3 8 53.29 8.4
-10 3 8 57.29 6.9
-10 3 8 57.59 7.9
-9 -3 8 79.59 5.4
-9 -3 8 86.39 8.7
-9 -3 8 90.49 9.6
-9 3 8 71.99 8.4
-9 3 8 63.19 8
-9 3 8 86.69 9.8
-8 -3 8 78.49 8.5
-8 -3 8 64.89 4.6
8 -3 -8 78.19 6.5
-8 3 8 89.09 9
-8 3 8 82.59 8.2
-8 3 8 59.69 14.8
-8 3 8 73.39 6.3
7 -3 -8 80.89 5.7
-7 -3 8 75.99 7.5
7 -3 -8 101.39 16.3
-7 -3 8 76.59 3.7
-7 -3 8 75.29 8.6
-7 -3 8 78.59 3.7
-7 3 8 85.59 7
-7 3 8 90.79 6.1
-7 3 8 88.79 14.7
7 3 -8 75.29 3.4
7 3 -8 64.69 9.2
-7 3 8 90.89 7.9
7 3 -8 77.39 3.6
6 -3 -8 187.68 8.1
-6 -3 8 182.88 12.2
-6 -3 8 184.68 9.6
-6 -3 8 188.08 6.5
6 -3 -8 170.78 20.1
-6 3 8 206.08 10.6
6 3 -8 188.28 16.7
6 3 -8 187.38 6.4
-6 3 8 192.78 9.6
-6 3 8 198.48 8.2
-6 3 8 211.78 19.5
-6 3 8 184.98 9.2
-5 -3 8 220.88 9.9
5 -3 -8 220.08 8.6
-5 -3 8 216.08 7.3
5 -3 -8 215.68 10.9
5 3 -8 221.28 17.6
-5 3 8 220.18 9.6
-5 3 8 213.88 10.1
-5 3 8 194.78 19.1
5 3 -8 208.28 7.9
5 3 -8 210.48 7.3
-5 3 8 221.88 9.8
-5 3 8 208.78 8.4
-4 -3 8 129.29 17.3
4 -3 -8 146.79 7
4 -3 -8 156.58 18.7
4 -3 -8 155.48 9.1
4 -3 -8 147.19 5.3
-4 -3 8 165.88 8.1
-4 -3 8 143.49 6
4 3 -8 151.28 16.6
-4 3 8 146.39 7
4 3 -8 151.98 7
-4 3 8 152.98 16.1
4 3 -8 148.39 6.2
4 3 -8 168.68 7.5
-4 3 8 139.89 7.7
-4 3 8 146.59 7.7
-4 3 8 146.49 8.2
-3 -3 8 341.17 10.6
3 -3 -8 323.97 12.9
-3 -3 8 344.07 12.2
-3 -3 8 349.57 18.3
3 -3 -8 343.77 22.7
3 -3 -8 346.67 12.7
3 -3 -8 332.37 10.1
3 -3 -8 346.97 11.5
-3 3 8 335.87 12
3 3 -8 330.37 11.6
3 3 -8 307.97 21.4
-3 3 8 322.07 12.1
3 3 -8 336.37 11.6
-3 3 8 337.27 11.4
-3 3 8 348.37 12.1
-3 3 8 324.37 20.6
3 3 -8 332.87 10.7
-2 -3 8 683.03 27.5
2 -3 -8 671.03 20.2
-2 -3 8 668.33 19.9
-2 -3 8 651.73 18.4
2 -3 -8 641.44 20.2
2 -3 -8 725.93 31.5
2 -3 -8 657.03 19
-2 3 8 700.93 20.1
-2 3 8 669.23 19.3
-2 3 8 630.24 19.5
2 3 -8 643.34 19.1
-2 3 8 657.93 19.1
2 3 -8 630.94 30.7
2 3 -8 638.74 19
-2 3 8 672.53 29.2
-1 -3 8 147.39 17.4
1 -3 -8 124.89 7.4
-1 -3 8 126.09 6.9
1 -3 -8 134.99 6.4
1 -3 -8 131.19 7.2
1 -3 -8 150.78 16.5
-1 -3 8 125.09 5.9
-1 3 8 130.29 6.9
-1 3 8 136.89 6.5
1 3 -8 147.39 18.3
-1 3 8 145.39 6.6
-1 3 8 136.49 7
1 3 -8 133.09 6.8
-1 3 8 138.69 15.7
1 3 -8 130.09 6.6
1 3 -8 130.59 4.6
0 -3 8 494.85 15.2
0 -3 -8 523.15 26.9
0 -3 -8 500.95 15.4
0 -3 8 491.65 16
0 -3 -8 500.85 16.3
0 -3 8 503.65 24.5
0 -3 -8 541.35 17.9
0 3 8 546.15 26.2
0 3 8 483.35 15.7
0 3 8 500.85 15
0 3 8 513.75 16
0 3 -8 508.85 16
0 3 -8 512.15 15.6
0 3 -8 513.05 28.1
1 -3 8 832.72 34
-1 -3 -8 860.61 24.5
-1 -3 -8 865.81 23.5
-1 -3 -8 864.01 36.1
-1 -3 -8 855.61 23.8
1 -3 8 824.92 24.1
1 -3 8 833.62 22.9
1 3 8 832.62 22.7
-1 3 -8 845.22 24.2
-1 3 -8 870.21 37.4
1 3 8 846.62 24.1
1 3 8 827.12 23.9
1 3 8 841.72 34.6
-1 3 -8 827.52 23.6
2 -3 8 413.16 24.4
-2 -3 -8 427.26 13.5
2 -3 8 422.26 13
2 -3 8 409.76 13.6
2 -3 8 409.46 14.2
-2 -3 -8 404.26 13.4
-2 -3 -8 430.76 14.5
-2 3 -8 405.96 13.7
2 3 8 423.86 12.6
2 3 8 420.26 14.1
-2 3 -8 425.86 27
-2 3 -8 432.96 14.4
2 3 8 415.26 24.6
2 3 8 414.66 14.1
-3 -3 -8 170.68 7.2
3 -3 8 174.28 18.9
-3 -3 -8 160.38 7.5
3 -3 8 166.98 7.2
3 -3 8 166.88 8
3 -3 8 174.78 8.5
-3 -3 -8 166.38 8.6
-3 3 -8 159.68 19.9
3 3 8 172.18 8.7
-3 3 -8 170.38 8.1
3 3 8 158.78 19.3
-3 3 -8 157.18 8.4
3 3 8 165.68 6.3
3 3 8 145.69 18.5
3 3 8 158.38 8.2
4 -3 8 28.4 4.1
4 -3 8 18 3.9
4 -3 8 36.3 4
-4 -3 -8 26.5 3.6
4 -3 8 24.3 12.4
-4 -3 -8 34.5 4.9
4 3 8 27.7 3
-4 3 -8 20.8 3.8
4 3 8 35.7 14.1
-4 3 -8 24.4 4.2
4 3 8 54.79 13.4
-4 3 -8 21.5 14.7
4 3 8 29.7 4.3
-5 -3 -8 69.99 4.6
5 -3 8 68.79 16.8
-5 -3 -8 68.09 6.9
5 -3 8 64.49 5.7
-5 -3 -8 58.59 5.7
5 -3 8 61.19 6.6
-5 3 -8 64.79 6.6
5 3 8 64.29 17
5 3 8 89.19 15.5
-5 3 -8 68.09 6.9
-5 3 -8 83.19 19.6
6 -3 8 182.48 23
-6 -3 -8 180.78 10.1
-6 -3 -8 159.08 5.9
-6 -3 -8 177.18 8.5
6 -3 8 172.28 8.3
6 -3 8 171.18 9.3
6 3 8 135.39 17.8
-6 3 -8 171.98 10.1
6 3 8 191.58 25.1
-6 3 -8 160.08 9.4
-6 3 -8 190.28 24.9
-7 -3 -8 37 4.8
-7 -3 -8 27.4 6
7 -3 8 39.4 4.8
-7 3 -8 33.5 6.1
-8 -3 -8 114.99 10.6
-8 -3 -8 113.69 7.9
-8 3 -8 123.59 10.1
-8 3 -8 89.39 10.2
-8 3 -8 103.99 11.7
-9 -3 -8 0.2 4.2
-9 -3 -8 1.6 6.5
-9 3 -8 -2.7 5.8
-9 3 -8 -10 7.6
-9 -4 8 55.19 5.7
-9 -4 8 58.89 8.7
-9 4 8 56.59 8.1
-9 4 8 47.1 5.7
8 -4 -8 6.2 4
-8 -4 8 3.5 6.1
-8 4 8 12.5 4.4
-8 4 8 11.3 6.4
-8 4 8 9.2 5.5
-7 -4 8 51.79 4.1
7 -4 -8 41.2 5.1
-7 -4 8 52.29 6.9
-7 4 8 47.3 6.5
7 4 -8 36.5 4.5
7 4 -8 46.2 5.2
-7 4 8 55.29 7.3
-7 4 8 42.7 5.5
-6 -4 8 14.4 5.6
6 -4 -8 23.4 16.3
6 -4 -8 15.3 3.8
-6 -4 8 15 2.6
-6 -4 8 19.9 8.6
6 4 -8 16.3 3.1
-6 4 8 14.2 5.3
-6 4 8 18.8 14.9
-6 4 8 14.8 4.1
6 4 -8 11.6 3.2
6 4 -8 20.4 15.3
-6 4 8 18.8 4.4
-5 -4 8 491.55 17.1
5 -4 -8 447.76 12.2
5 -4 -8 474.55 15.6
-5 -4 8 468.05 13.8
5 -4 -8 460.35 12
5 -4 -8 477.25 31.9
-5 4 8 455.85 16.3
-5 4 8 472.85 16.7
5 4 -8 430.66 28.6
-5 4 8 466.25 15.6
-5 4 8 489.55 31.3
5 4 -8 467.25 15.1
5 4 -8 446.76 14
4 -4 -8 -2.5 14.6
4 -4 -8 2.7 1.6
-4 -4 8 -3.7 3.3
4 -4 -8 1.8 3.3
4 -4 -8 4.2 2.1
-4 -4 8 -0.4 2.2
-4 4 8 -10.3 11.6
4 4 -8 -0.1 3.1
4 4 -8 3.7 2.8
-4 4 8 -2.1 2.8
-4 4 8 5.5 3.4
4 4 -8 -5.2 12.8
-4 4 8 -0.9 4.1
3 -4 -8 139.39 19.8
-3 -4 8 115.49 6.4
3 -4 -8 107.59 9.8
-3 -4 8 116.99 8.1
-3 -4 8 122.69 15
3 -4 -8 123.89 7.3
3 4 -8 121.29 7.5
-3 4 8 117.89 6.9
3 4 -8 119.69 17.2
-3 4 8 131.69 8.3
-3 4 8 120.49 7.4
-3 4 8 104.39 9.2
-3 4 8 138.99 18.3
3 4 -8 121.29 4
3 4 -8 121.79 6.7
2 -4 -8 62.09 15.7
2 -4 -8 71.79 5.9
2 -4 -8 63.69 6.6
-2 -4 8 64.49 6.5
-2 -4 8 60.09 4.8
-2 -4 8 71.59 13.1
2 -4 -8 48.5 6
-2 4 8 60.59 6.7
2 4 -8 60.49 5.5
2 4 -8 65.69 3.3
2 4 -8 65.89 5.7
-2 4 8 48.5 5.4
-2 4 8 68.49 12.5
2 4 -8 53.19 15.4
-2 4 8 66.19 5.8
-1 -4 8 321.97 22.5
1 -4 -8 347.17 26.6
1 -4 -8 321.07 11.8
1 -4 -8 299.67 12.8
-1 -4 8 295.37 12.3
-1 -4 8 310.37 11
1 -4 -8 318.17 12.8
-1 -4 8 302.67 11.4
1 4 -8 310.47 9.6
-1 4 8 313.57 11.6
1 4 -8 300.87 11.7
-1 4 8 290.97 23.8
1 4 -8 320.67 11.5
1 4 -8 320.77 12.1
-1 4 8 321.97 11.5
1 4 -8 288.27 27.2
-1 4 8 326.17 12.5
0 -4 -8 16.4 11.9
0 -4 -8 5 3.6
0 -4 8 4 3.3
0 -4 8 5.6 3.2
0 -4 -8 10.9 3.9
0 -4 -8 4.6 2.6
0 -4 8 7.3 3
0 -4 8 22.5 10.9
0 4 8 4.9 3.5
0 4 -8 7.3 3
0 4 8 6.5 2.7
0 4 -8 5.9 3.3
0 4 -8 4.4 3.2
0 4 8 3.4 2.7
0 4 8 5.9 14.6
0 4 -8 2.7 3.2
0 4 -8 -19.2 12.9
-1 -4 -8 227.78 23.9
1 -4 8 243.98 9.6
1 -4 8 212.08 9.4
-1 -4 -8 230.68 10.5
-1 -4 -8 228.18 9.5
1 -4 8 225.38 10.4
-1 -4 -8 225.08 10.7
1 -4 8 234.78 21.2
-1 4 -8 234.58 8.9
-1 4 -8 221.48 9.7
-1 4 -8 204.78 9.5
-1 4 -8 210.88 10.3
-1 4 -8 181.28 23.4
1 4 8 235.08 9
1 4 8 234.88 9.5
1 4 8 202.48 23.1
-2 -4 -8 3.8 3.6
2 -4 8 11.1 3.4
-2 -4 -8 12.9 3.7
-2 -4 -8 9.1 3.1
2 -4 8 11.6 3.5
2 -4 8 10.8 3.7
2 -4 8 10 14.3
-2 -4 -8 20.7 14.6
-2 4 -8 12.2 17.1
2 4 8 2.8 13.1
2 4 8 13.5 2.9
-2 4 -8 8.1 3.4
-2 4 -8 16.8 3.8
2 4 8 12.9 3.3
-2 4 -8 9.6 3.6
3 -4 8 134.39 18.5
3 -4 8 120.79 8.3
3 -4 8 128.99 8.2
-3 -4 -8 140.39 21.2
-3 -4 -8 128.99 7.3
-3 -4 -8 131.09 7.9
-3 -4 -8 124.29 8.8
3 4 8 126.29 6.3
3 4 8 141.39 7.5
-3 4 -8 137.19 9
-3 4 -8 123.49 8
-3 4 -8 124.29 21
3 4 8 125.19 17.7
4 -4 8 316.67 12.7
-4 -4 -8 285.07 12.9
4 -4 8 270.17 27.3
-4 -4 -8 287.27 11.1
4 -4 8 296.27 11.8
-4 4 -8 248.58 30.7
-4 4 -8 272.87 11.6
4 4 8 279.27 9.5
4 4 8 294.47 10.9
-4 4 -8 291.17 13.1
4 4 8 226.78 24.9
5 -4 8 256.27 29.3
-5 -4 -8 253.57 10.6
5 -4 8 245.48 12.1
-5 -4 -8 233.98 9.9
-5 -4 -8 236.88 12.4
5 -4 8 242.08 11.1
5 4 8 220.78 25.7
-5 4 -8 257.67 32.8
-5 4 -8 248.28 12.6
5 4 8 248.98 10.1
6 -4 8 -7.2 4.4
6 -4 8 -5.9 4.2
-6 -4 -8 -1.7 3.7
-6 -4 -8 -4.6 4.8
-6 -4 -8 4 3.3
6 4 8 -2.5 3.2
-6 4 -8 2.9 5.3
-7 -4 -8 122.19 8.6
-7 -4 -8 128.89 11.6
7 -4 8 123.09 11.5
7 -4 8 128.49 10.3
7 4 8 124.79 8.3
-7 4 -8 140.39 12
-8 -4 -8 7.6 6.8
-8 -4 -8 -1.8 4.1
-8 4 -8 5 6.4
-8 -5 8 28.9 8.4
8 -5 -8 36.7 6.6
-8 5 8 23.2 6.1
-8 5 8 41.4 7.5
7 -5 -8 12.7 5
-7 -5 8 9.8 6.7
-7 5 8 13 5.3
-7 5 8 4.1 5.8
6 -5 -8 170.98 10.5
-6 -5 8 152.98 8.3
-6 -5 8 186.78 13.1
-6 5 8 162.38 10.7
-6 5 8 164.58 11.1
6 5 -8 171.08 9.9
5 -5 -8 6.1 2.4
-5 -5 8 10 3.3
5 -5 -8 2.5 2.8
-5 -5 8 3 5.8
5 -5 -8 4.8 4.5
-5 5 8 1.8 4.3
5 5 -8 -2.3 4
-5 5 8 0.9 4.5
4 -5 -8 209.88 7.7
-4 -5 8 206.68 9.1
4 -5 -8 244.18 29.4
4 -5 -8 230.88 11.2
-4 -5 8 209.28 13.3
4 5 -8 209.08 10.6
-4 5 8 207.28 11.6
4 5 -8 202.28 7
-4 5 8 222.28 26.3
-4 5 8 196.28 12.4
3 -5 -8 6.1 2.8
3 -5 -8 4.7 3.9
3 -5 -8 4.7 18.3
-3 -5 8 11.4 5.4
-3 -5 8 -3.2 13.4
-3 -5 8 11 3.7
-3 5 8 0.7 3.7
-3 5 8 -19.3 16.9
3 5 -8 11.4 18.7
3 5 -8 6.7 2.3
-3 5 8 2.4 3.8
3 5 -8 0.1 4
-2 -5 8 345.27 14.7
2 -5 -8 376.56 33.6
2 -5 -8 346.17 11.8
-2 -5 8 331.77 12.4
2 -5 -8 345.27 13.5
2 -5 -8 349.27 15.3
-2 5 8 351.16 13.3
2 5 -8 333.77 10.6
-2 5 8 348.77 13.7
2 5 -8 333.97 14
2 5 -8 296.67 33.5
1 -5 -8 18.2 4.7
-1 -5 8 13.5 3.9
-1 -5 8 -9.7 13.1
-1 -5 8 7.2 4.6
1 -5 -8 8.8 4.6
1 -5 -8 -3.3 17
-1 5 8 19.1 17.5
1 5 -8 10.7 4.7
1 5 -8 11.6 19.2
1 5 -8 13.1 3.2
-1 5 8 13.4 4.3
-1 5 8 11.7 4.3
0 -5 8 38.8 6.1
0 -5 8 45.5 5.5
0 -5 -8 35.5 6.1
0 -5 8 66.19 17.5
0 -5 -8 45.2 5.4
0 -5 -8 44.8 19.4
0 5 -8 45.9 6
0 5 -8 45.8 5.6
0 5 8 28.3 18.2
0 5 -8 47.2 20.8
0 5 8 41.6 5.1
0 5 8 39.3 5.2
1 -5 8 17.4 16
1 -5 8 25.5 5.7
-1 -5 -8 14.3 5.1
-1 -5 -8 6.3 19.1
-1 -5 -8 8.9 3.8
1 5 8 26.7 17.3
-1 5 -8 62.19 21.8
1 5 8 17 3.7
-1 5 -8 6 4.6
-1 5 -8 20 4.3
1 5 8 16.2 4.3
2 -5 8 189.18 11.5
-2 -5 -8 164.08 25.7
-2 -5 -8 205.08 12
-2 -5 -8 189.98 12.8
2 -5 8 205.98 24.8
-2 -5 -8 192.88 11.4
2 5 8 136.89 21.3
-2 5 -8 218.68 32.1
-2 5 -8 190.98 10.2
-2 5 -8 200.48 11.7
2 5 8 216.78 8.9
2 5 8 195.48 9.7
-3 -5 -8 53.09 6.8
3 -5 8 56.99 19.3
3 -5 8 70.99 7.8
-3 -5 -8 45.6 8
-3 -5 -8 72.69 7.9
3 5 8 36.2 18.2
3 5 8 61.69 6.8
3 5 8 68.79 6
-3 5 -8 46.8 7
-3 5 -8 62.39 7
-3 5 -8 48 24.6
-4 -5 -8 106.19 8.5
-4 -5 -8 93.59 9.9
-4 -5 -8 95.79 11.3
4 -5 8 104.99 10.3
4 -5 8 70.29 21.7
-4 5 -8 83.49 9
-4 5 -8 68.39 28.5
4 5 8 95.69 7.8
-5 -5 -8 5 4.4
5 -5 8 11.1 6
-5 -5 -8 3.6 5.9
-5 -5 -8 -5 5.6
5 5 8 -1.4 4.3
-5 5 -8 3.9 6.4
6 -5 8 65.59 8.3
-6 -5 -8 68.69 9
-6 -5 -8 48.2 6
6 5 8 52.09 6.3
-6 5 -8 52.89 8.3
-7 -5 -8 0.1 4.9
7 -5 8 -7.7 6.9
-7 -5 -8 0.1 6.4
-7 5 -8 -3.1 7
-6 -6 8 10.3 8.2
6 -6 -8 14.8 6.8
-6 6 8 11 6.2
-6 6 8 11.2 6.4
5 -6 -8 16.2 7.1
-5 -6 8 3.6 7.4
-5 6 8 21.2 6.4
-5 6 8 18 6.1
-4 -6 8 -2.3 6.2
4 -6 -8 -2.8 3.5
4 -6 -8 6.8 6.4
4 6 -8 2.3 5.2
-4 6 8 -3.4 5.4
-4 6 8 8.4 6
3 -6 -8 128.09 10.9
-3 -6 8 107.09 12.6
3 -6 -8 106.59 7.9
-3 6 8 123.19 10.5
-3 6 8 124.09 11.5
3 6 -8 122.29 11.2
2 -6 -8 -3.8 5.2
2 -6 -8 -3.6 4
-2 -6 8 1.5 5.3
-2 -6 8 -4.2 6.7
-2 6 8 -13.2 24.9
-2 6 8 2.3 5
-2 6 8 0.7 5.8
2 6 -8 4.8 5.5
1 -6 -8 127.89 12.7
1 -6 -8 96.39 10.1
-1 -6 8 116.99 12.5
1 -6 -8 76.49 28.7
1 -6 -8 99.59 8.5
-1 6 8 99.59 26.2
-1 6 8 99.89 9.9
-1 6 8 98.39 9.5
1 6 -8 102.29 11.3
0 -6 -8 -0.3 29.9
0 -6 -8 6.6 5.2
0 -6 -8 11.9 7
0 -6 8 10.1 19.5
0 -6 -8 10.2 5
0 -6 8 18.2 6.8
0 6 8 9.8 5.1
0 6 8 34.7 25.1
0 6 -8 13.9 6.5
0 6 -8 15.1 8.3
0 6 8 14 10
0 6 -8 39.2 54.29
1 -6 8 157.68 25.9
1 -6 8 148.79 13.1
-1 -6 -8 128.89 29.8
-1 -6 -8 139.09 13.4
-1 -6 -8 131.99 12.2
-1 -6 -8 139.39 10.9
1 6 8 141.29 10
1 6 8 128.99 11
-1 6 -8 154.28 35.4
-1 6 -8 146.49 12.9
1 6 8 75.29 27.5
-1 6 -8 113.49 10.3
-2 -6 -8 78.99 9.3
2 -6 8 80.49 9.5
-2 -6 -8 80.99 10
-2 6 -8 46.3 35.1
2 6 8 63.89 8
2 6 8 74.19 8.9
-2 6 -8 52.99 8.6
3 -6 8 44.3 8.7
-3 -6 -8 62.39 9.1
-3 -6 -8 59.99 7.3
-3 6 -8 40.1 8.5
3 6 8 52.09 7.1
-4 -6 -8 3.9 7.5
4 -6 8 3.4 7.8
-4 -6 -8 2.9 5.2
4 6 8 -6.6 4.8
-4 6 -8 -3.4 7.8
-11 0 9 0 6.8
-11 0 9 0.9 3.1
-10 0 9 -2.6 2.7
-10 0 9 4.9 4.8
-9 0 9 50.39 4.7
-9 0 9 59.59 7.6
-8 0 9 1.7 1.6
-8 0 9 1.8 3.2
-8 0 9 -2.2 4.8
8 0 -9 1.9 1.1
-8 0 9 1.6 2.4
-8 0 9 1.3 1.3
-8 0 9 4.2 4.6
-8 0 9 3.5 3.7
-7 0 9 328.97 9
-7 0 9 307.37 9.8
-7 0 9 316.37 10.7
-7 0 9 303.97 12.5
-7 0 9 319.37 15
-7 0 9 321.17 9.3
-7 0 9 319.07 14
7 0 -9 268.97 8.6
-6 0 9 0 1.6
-6 0 9 2.9 3.1
-6 0 9 3.3 1.7
-6 0 9 6.2 4.9
6 0 -9 0.2 1.4
6 0 -9 2 1.5
-6 0 9 0.3 2.1
-6 0 9 -4.7 5.3
-5 0 9 183.68 12.3
-5 0 9 194.58 13
-5 0 9 208.58 7.1
5 0 -9 202.38 6.7
-5 0 9 195.48 7
-5 0 9 208.28 9
-5 0 9 205.68 7.2
5 0 -9 202.38 6.8
4 0 -9 2.4 1.6
4 0 -9 5.2 1.6
-4 0 9 4.7 1.4
-4 0 9 0.6 1.7
-4 0 9 2.2 2.4
-4 0 9 7.9 5.6
-4 0 9 2.7 1.7
-4 0 9 8.6 5.1
-3 0 9 2359.36 64.69
-3 0 9 2318.47 55.99
-3 0 9 2356.66 56.99
-3 0 9 2214.78 64.79
3 0 -9 2467.55 56.69
3 0 -9 2065.19 57.29
-3 0 9 2302.87 56.99
-3 0 9 2344.67 58.29
-2 0 9 2.2 1.6
2 0 -9 -0.3 1.4
-2 0 9 0.9 1.8
-2 0 9 0.5 1
-2 0 9 0.6 1.6
-2 0 9 -8.3 4.9
2 0 -9 0.9 1.7
-2 0 9 -7 5.4
1 0 -9 470.05 14.5
1 0 -9 531.65 14.7
-1 0 9 512.65 14.7
1 0 -9 510.05 13.9
1 0 -9 529.45 22.8
-1 0 9 481.85 22.1
-1 0 9 506.65 15.1
-1 0 9 506.05 13.8
-1 0 9 505.75 14.7
0 0 9 2.6 1.8
0 0 9 2.2 1.7
0 0 9 4.7 6.5
0 0 9 -0.2 1.6
0 0 -9 1.5 1.7
0 0 -9 1.1 1
0 0 -9 4.2 6.8
0 0 9 -0.9 1.1
0 0 -9 0.1 1.7
1 0 9 1023.3 26.7
1 0 9 932.71 27.4
-1 0 -9 1045.4 27.4
1 0 9 1004.6 27.2
-1 0 -9 1046.5 37.2
-1 0 -9 1019.9 26.6
1 0 9 1014.2 36.8
1 0 9 1060.79 27.4
-1 0 -9 1022.8 27.3
-2 0 -9 3.2 1.8
-2 0 -9 -0.3 2
-2 0 -9 0.3 1.8
2 0 9 -1.3 1.6
2 0 9 0.4 1.3
2 0 9 2 7.2
2 0 9 2.1 1.7
-2 0 -9 -6.3 7.4
2 0 9 -0.6 1.9
-3 0 -9 339.07 11.9
3 0 9 355.26 10.2
-3 0 -9 341.87 11.5
-3 0 -9 328.67 20.5
-3 0 -9 331.17 11.3
3 0 9 345.67 21.3
3 0 9 336.07 11.6
-4 0 -9 -0.2 2.4
4 0 9 -1.2 2.4
-4 0 -9 1.7 3.1
4 0 9 8.2 9.8
4 0 9 1.4 1.3
-4 0 -9 1.3 2.3
-4 0 -9 -5.3 8.1
-5 0 -9 448.96 27.3
-5 0 -9 495.75 16.3
5 0 9 509.55 16
-5 0 -9 484.25 16.5
5 0 9 533.75 28.7
-5 0 -9 498.45 15.8
6 0 9 0.6 3.3
-6 0 -9 -0.6 2.8
-6 0 -9 1.9 2.5
-6 0 -9 -0.9 4.1
-6 0 -9 4.6 13.2
-7 0 -9 0.2 3.6
-7 0 -9 4.2 3.1
7 0 9 10.8 13.2
-7 0 -9 -12.1 13
-8 0 -9 -3.9 4.5
-8 0 -9 -6.4 3.3
-9 0 -9 69.69 8
-9 0 -9 58.09 8
-10 0 -9 -0.1 6.6
-10 0 -9 -0.6 4.8
-11 -1 9 20.6 4.8
-11 -1 9 15.6 4.5
-11 -1 9 19.6 8
-11 1 9 29 7.2
-10 -1 9 140.89 7.7
-10 -1 9 150.98 10.8
-10 -1 9 126.69 8.1
-10 1 9 139.09 5.5
-10 1 9 139.69 6.2
-10 1 9 144.79 10.8
-10 1 9 146.09 12.8
-9 -1 9 49.9 6.8
-9 -1 9 50.69 5
-9 -1 9 51.19 5
-9 1 9 49 4.4
-9 1 9 47.5 8.5
-9 1 9 52.09 6.6
-9 1 9 51.99 6.4
-9 1 9 57.39 9.5
-9 1 9 43 3.8
-8 -1 9 50.09 4.2
-8 -1 9 42.7 5.9
-8 -1 9 43.7 4.9
-8 1 9 47.3 3.8
-8 1 9 45.7 5.4
-8 1 9 51.49 6.3
-8 1 9 38.2 9.2
-8 1 9 56.99 4.3
-8 1 9 53.19 8.8
-7 -1 9 127.59 8
-7 -1 9 130.89 5.4
-7 -1 9 123.89 8.2
7 -1 -9 133.49 5.4
-7 -1 9 125.89 6.5
-7 -1 9 135.69 5.8
-7 -1 9 124.89 4.4
-7 1 9 131.09 5.6
-7 1 9 135.49 6
-7 1 9 124.99 7.3
-7 1 9 127.99 8.1
-7 1 9 156.88 12.9
-6 -1 9 840.82 23.7
-6 -1 9 861.41 25.5
-6 -1 9 861.71 27.2
-6 -1 9 863.71 27.1
6 -1 -9 874.61 22.8
-6 -1 9 870.61 22.2
-6 -1 9 851.41 22.2
-6 1 9 887.41 30.2
-6 1 9 882.71 25.5
-6 1 9 889.81 22.9
-6 1 9 870.81 24.2
-6 1 9 878.51 23.3
6 1 -9 886.71 23
-6 1 9 828.22 21.7
-5 -1 9 138.39 10.7
5 -1 -9 142.19 5.7
5 -1 -9 131.29 4.6
-5 -1 9 135.09 5.3
-5 -1 9 134.49 7.4
-5 -1 9 128.19 6.3
-5 -1 9 144.49 10.9
-5 -1 9 134.49 4.5
5 1 -9 139.99 5.9
-5 1 9 137.79 7.5
-5 1 9 136.79 6
-5 1 9 131.39 5
5 1 -9 141.29 5.3
-5 1 9 120.49 12
-5 1 9 140.19 6.4
-5 1 9 138.49 13.4
-4 -1 9 499.05 14.2
4 -1 -9 517.35 13.6
-4 -1 9 494.05 15
4 -1 -9 517.75 16
-4 -1 9 498.65 12.6
4 -1 -9 504.45 14.6
-4 -1 9 531.45 20.8
-4 1 9 505.65 13.8
-4 1 9 518.65 14.8
4 1 -9 518.15 21.4
-4 1 9 459.05 22.3
4 1 -9 503.35 14.5
-4 1 9 513.85 16.1
-4 1 9 513.95 14.8
-4 1 9 511.65 22.1
4 1 -9 494.45 14.2
-3 -1 9 4.2 1.6
3 -1 -9 4.7 1.7
3 -1 -9 7.3 1.8
3 -1 -9 6 1.9
-3 -1 9 7.3 5.7
-3 -1 9 6.1 2.1
3 -1 -9 5.6 2.4
3 1 -9 7.2 1.9
-3 1 9 4.7 6.6
-3 1 9 5.8 1.5
-3 1 9 3.5 7.2
-3 1 9 3.7 2.9
-3 1 9 3.1 1.7
-3 1 9 6.4 2.3
3 1 -9 3.6 1.8
-2 -1 9 624.34 17.6
2 -1 -9 627.14 17.6
-2 -1 9 643.64 18.2
2 -1 -9 657.63 18.6
2 -1 -9 641.84 17.4
-2 -1 9 650.63 25.6
2 -1 -9 622.64 17.7
-2 1 9 628.74 18.4
-2 1 9 636.54 26.6
2 1 -9 638.94 17.7
2 1 -9 646.04 26
-2 1 9 632.94 25.8
2 1 -9 612.84 15.8
2 1 -9 638.54 17.9
-2 1 9 644.14 18
-1 -1 9 81.19 10.5
-1 -1 9 62.79 4.4
1 -1 -9 68.49 4.6
1 -1 -9 66.49 4
-1 -1 9 69.49 4.1
1 -1 -9 65.19 3.9
1 -1 -9 66.09 4.1
-1 1 9 64.79 10
1 1 -9 68.19 10.3
-1 1 9 71.19 4.4
1 1 -9 71.29 4.3
-1 1 9 65.69 4.3
-1 1 9 67.19 3.9
-1 1 9 74.69 10.9
1 1 -9 72.99 4.4
1 1 -9 62.39 2.9
0 -1 -9 670.83 18.5
0 -1 9 650.43 18.5
0 -1 9 633.24 26.9
0 -1 -9 647.44 18.3
0 -1 9 645.94 18.8
0 -1 -9 662.73 18.5
0 1 9 666.03 28
0 1 9 650.73 18.3
0 1 9 682.23 18.9
0 1 -9 662.43 18.6
0 1 9 663.23 18.2
0 1 9 665.93 27
0 1 -9 700.03 28.5
0 1 -9 630.84 18.6
0 1 -9 640.84 17.3
-1 -1 -9 709.13 20.2
1 -1 9 723.73 29.7
-1 -1 -9 711.73 20.2
-1 -1 -9 737.23 20.5
1 -1 9 709.43 20.3
1 -1 9 715.63 20.6
-1 1 -9 730.93 20.6
1 1 9 702.73 29.2
1 1 9 745.33 30.6
-1 1 -9 752.02 30.7
1 1 9 752.12 20.2
-1 1 -9 721.83 19.5
1 1 9 707.63 19.6
-1 1 -9 746.43 20.6
1 1 9 741.03 20.7
2 -1 9 244.08 9.3
-2 -1 -9 238.18 8.9
2 -1 9 262.97 18.1
2 -1 9 249.18 9.1
-2 -1 -9 255.77 9.1
-2 1 -9 250.67 8.7
2 1 9 265.07 18.2
2 1 9 253.37 9.1
-2 1 -9 233.08 9.2
2 1 9 237.18 7.8
2 1 9 241.98 18.4
-2 1 -9 244.88 19.1
3 -1 9 221.68 8.7
-3 -1 -9 214.98 9.2
3 -1 9 212.98 8.8
-3 -1 -9 221.08 8.7
3 -1 9 239.78 18.9
-3 -1 -9 218.88 8.4
3 1 9 202.18 6.9
-3 1 -9 211.68 8.3
-3 1 -9 204.68 8.6
3 1 9 202.18 17.7
3 1 9 228.38 18
-3 1 -9 206.48 8.9
3 1 9 210.18 8.7
-3 1 -9 204.78 18.2
4 -1 9 326.47 11.9
4 -1 9 313.17 11.5
4 -1 9 318.37 22.7
-4 -1 -9 324.67 12.4
4 -1 9 324.97 9.3
-4 -1 -9 345.77 12.1
-4 -1 -9 332.07 11.3
4 1 9 325.07 8.8
4 1 9 318.77 12.1
4 1 9 306.97 22.2
-4 1 -9 337.77 11.9
4 1 9 328.37 22
-4 1 -9 316.67 22.4
-4 1 -9 332.47 12.1
4 1 9 320.17 11.6
-4 1 -9 330.67 11.9
-5 -1 -9 362.06 13.7
5 -1 9 360.26 12.8
-5 -1 -9 378.86 13.4
5 -1 9 390.46 25.8
-5 -1 -9 362.56 12.4
5 -1 9 368.56 10.1
5 1 9 362.26 24.5
-5 1 -9 368.76 13.3
5 1 9 341.97 12.7
-5 1 -9 377.06 13.6
-5 1 -9 337.47 24.6
-5 1 -9 369.06 13
-6 -1 -9 205.38 10.2
-6 -1 -9 206.68 9
6 -1 9 211.18 22.6
6 -1 9 193.28 6.1
-6 1 -9 202.98 9.7
6 1 9 199.38 21.4
-6 1 -9 195.98 10.3
6 1 9 218.58 22.2
-6 1 -9 196.18 9.8
-6 1 -9 239.78 23.9
-7 -1 -9 11.3 3.7
-7 -1 -9 13.5 4.3
-7 1 -9 18.7 17.4
7 1 9 20.3 14.4
7 1 9 6.9 15.4
-7 1 -9 20.6 4.5
-7 1 -9 13.3 4.2
-8 -1 -9 176.58 11.7
-8 -1 -9 166.38 9.3
-8 1 -9 154.08 11.1
-8 1 -9 164.78 11.5
-9 -1 -9 -0.2 4.1
-9 -1 -9 -2.7 5.8
-9 1 -9 -3.2 4.6
-9 1 -9 4.9 6
-10 -1 -9 49.3 8.4
-10 -1 -9 57.39 6.4
-10 1 -9 58.39 7.4
-10 1 -9 58.69 8.5
-11 -2 9 39.7 5.1
-11 -2 9 43.8 8.3
-11 -2 9 44.5 6.4
-11 2 9 37.9 4.2
-11 2 9 50.09 8.8
-10 -2 9 40.9 5.8
-10 -2 9 35.1 7.6
-10 -2 9 48 5.6
-10 2 9 50.59 5.4
-10 2 9 47.4 7.1
-9 -2 9 182.38 11.4
-9 -2 9 179.18 7.3
9 -2 -9 190.98 21.3
9 -2 -9 168.98 7.5
-9 -2 9 172.68 9.9
-9 2 9 170.58 8.5
-9 2 9 182.28 10.7
-9 2 9 183.38 19.7
-9 2 9 182.58 7.7
-8 -2 9 103.19 8.9
8 -2 -9 90.09 5.8
-8 -2 9 98.59 4.9
-8 -2 9 112.49 8
8 -2 -9 108.29 13.7
-8 2 9 107.79 5.8
-8 2 9 92.89 8.5
-8 2 9 85.39 6.4
-8 2 9 102.69 8.4
-8 2 9 88.69 13.2
7 -2 -9 269.37 20.4
-7 -2 9 248.98 10.9
-7 -2 9 251.47 7.2
-7 -2 9 240.38 11
-7 -2 9 251.97 11.7
-7 -2 9 248.08 7.4
-7 -2 9 277.27 10.9
-7 2 9 250.37 9.1
-7 2 9 257.07 11.6
-7 2 9 267.87 18.7
-7 2 9 276.37 11.6
-7 2 9 233.88 9.6
-6 -2 9 132.49 5
6 -2 -9 123.79 15.5
6 -2 -9 134.69 8.7
6 -2 -9 139.49 6.4
-6 -2 9 137.09 7.5
-6 -2 9 144.19 10.2
-6 2 9 127.99 7.8
6 2 -9 136.29 5
-6 2 9 136.69 6.4
-6 2 9 144.39 8.2
-6 2 9 134.19 6.9
-6 2 9 154.18 15.2
-5 -2 9 209.78 7
5 -2 -9 202.18 7.7
5 -2 -9 203.88 5.7
-5 -2 9 209.98 8.9
-5 -2 9 213.88 12.8
5 -2 -9 212.48 17.6
-5 2 9 202.48 7.9
5 2 -9 207.38 8.2
5 2 -9 202.28 7.2
-5 2 9 201.38 8.4
-5 2 9 188.48 8.8
5 2 -9 186.68 15.4
-5 2 9 215.08 17
-5 2 9 209.68 9.5
4 -2 -9 148.39 6.4
-4 -2 9 143.69 5.8
4 -2 -9 139.89 5.1
4 -2 -9 138.69 7.7
-4 -2 9 146.69 7.2
-4 -2 9 147.99 11.9
4 2 -9 143.39 14.5
4 2 -9 151.38 6.8
4 2 -9 150.38 6.3
-4 2 9 112.99 9.9
-4 2 9 156.08 7.6
-4 2 9 132.59 15.4
-4 2 9 147.59 6.5
3 -2 -9 383.86 10.9
3 -2 -9 376.16 13.2
3 -2 -9 355.26 22
3 -2 -9 380.66 12.4
-3 -2 9 358.06 18.4
3 -2 -9 384.16 11.8
-3 -2 9 367.26 12.4
-3 -2 9 379.56 11.3
-3 2 9 361.66 20.3
-3 2 9 386.36 12.7
3 2 -9 341.17 20.1
-3 2 9 358.36 12.1
3 2 -9 359.26 12.1
-3 2 9 372.56 12.2
2 -2 -9 571.14 16.7
2 -2 -9 605.34 16.2
-2 -2 9 604.54 16.5
-2 -2 9 612.64 17.5
2 -2 -9 553.94 27.1
2 -2 -9 575.34 17.3
-2 2 9 582.04 17.2
2 2 -9 573.74 16.8
2 2 -9 506.75 19.8
2 2 -9 554.34 26.5
-2 2 9 568.54 25.5
-2 2 9 573.04 17.2
-2 2 9 588.84 16.9
1 -2 -9 1501.65 39.3
-1 -2 9 1553.74 39.4
1 -2 -9 1526.85 38.7
1 -2 -9 1520.25 38.4
1 -2 -9 1501.85 39.1
1 -2 -9 1515.15 50.29
-1 -2 9 1438.16 47.6
1 2 -9 1503.05 40.2
-1 2 9 1476.35 38.7
-1 2 9 1517.85 48.7
1 2 -9 1456.35 36.4
-1 2 9 1541.05 38.9
1 2 -9 1458.15 49.5
-1 2 9 1533.35 39.2
1 2 -9 1505.95 39
0 -2 9 974.6 26.3
0 -2 -9 978.7 26.3
0 -2 -9 952.2 26.7
0 -2 -9 1024.1 26.7
0 -2 9 954.1 26.9
0 -2 -9 941.01 26.2
0 -2 9 1039.4 36.7
0 2 -9 969.9 26.8
0 2 -9 978.4 38.1
0 2 9 995.4 26
0 2 -9 987.7 26.5
0 2 9 1004.3 26.5
0 2 -9 914.61 25.6
0 2 9 964.6 36
0 2 9 983.4 26.8
1 -2 9 545.85 16.1
-1 -2 -9 538.65 16
1 -2 9 517.75 16.6
-1 -2 -9 555.24 16.6
1 -2 9 543.15 25.8
-1 -2 -9 535.85 16.5
-1 -2 -9 535.85 15.9
-1 2 -9 549.85 16.6
-1 2 -9 533.25 15.1
1 2 9 529.05 16.2
-1 2 -9 534.45 27.2
1 2 9 523.05 16.4
-1 2 -9 553.74 16.3
1 2 9 523.95 25.2
1 2 9 564.54 27.4
1 2 9 536.75 15.2
-2 -2 -9 286.77 10.9
2 -2 9 295.27 10.4
2 -2 9 286.77 10.7
2 -2 9 295.47 19.6
-2 -2 -9 274.37 10.5
-2 -2 -9 288.17 10.1
-2 2 -9 274.37 10.6
-2 2 -9 276.17 9.7
2 2 9 279.57 10.5
2 2 9 294.37 10.8
-2 2 -9 300.47 21.7
2 2 9 280.17 19.7
-2 2 -9 294.57 10.7
2 2 9 275.87 20.4
2 2 9 279.97 8.9
3 -2 9 222.98 9.1
3 -2 9 213.08 19.3
-3 -2 -9 240.68 9.8
-3 -2 -9 231.28 10.1
-3 -2 -9 232.08 8
3 -2 9 244.08 10.1
-3 -2 -9 230.08 9
3 -2 9 237.48 8
3 2 9 223.28 9.5
3 2 9 232.18 9.8
3 2 9 232.98 7.4
-3 2 -9 233.88 9.6
-3 2 -9 221.38 9.6
-3 2 -9 215.08 21
3 2 9 213.08 20.1
3 2 9 241.18 19.4
-3 2 -9 222.48 8.8
4 -2 9 696.93 21
4 -2 9 665.53 20.4
4 -2 9 682.33 33.3
-4 -2 -9 705.03 21.2
-4 -2 -9 682.63 20.1
4 -2 9 715.53 18.8
-4 -2 -9 694.33 21.6
4 2 9 694.63 17.9
4 2 9 686.33 20.8
-4 2 -9 749.53 35.2
-4 2 -9 686.13 20.8
-4 2 -9 705.73 21.2
4 2 9 678.33 21.2
4 2 9 699.73 31.6
4 2 9 676.83 33.9
-4 2 -9 700.03 20.7
5 -2 9 559.84 18.1
5 -2 9 609.34 31.6
-5 -2 -9 559.64 18.5
-5 -2 -9 563.24 17.3
5 -2 9 592.14 15.9
-5 2 -9 582.74 18.5
5 2 9 532.35 28.8
-5 2 -9 573.74 18.5
-5 2 -9 581.64 32.1
-5 2 -9 555.54 18.2
5 2 9 554.14 17.9
6 -2 9 33.8 15.3
-6 -2 -9 35 5.3
6 -2 9 33 4
-6 -2 -9 34.8 4.3
-6 2 -9 37.2 5.4
6 2 9 19.1 12.5
-6 2 -9 35.9 5.3
-6 2 -9 38.5 5.9
-6 2 -9 45.9 17.5
6 2 9 32.9 14.8
-7 -2 -9 180.68 8.9
7 -2 9 159.68 7.4
-7 -2 -9 187.08 16.9
7 2 9 173.48 31.5
-7 2 -9 182.48 11.3
-7 2 -9 180.98 11.1
-7 2 -9 207.68 26.5
-8 -2 -9 41.5 7
-8 -2 -9 33.3 5.1
8 -2 9 35.7 3.6
-8 2 -9 36.1 7.2
-8 2 -9 31.4 5.7
-9 -2 -9 48.8 8.3
-9 -2 -9 35.2 5.2
-9 2 -9 33.1 6.2
-9 2 -9 37.3 7.6
-10 -3 9 43.6 5.6
-10 -3 9 42.9 8.5
-10 3 9 45.8 5.6
-10 3 9 54.89 8.1
9 -3 -9 54.69 6.4
-9 -3 9 48.5 7.5
-9 -3 9 46.5 4.8
-9 -3 9 41.3 6.8
-9 3 9 45.7 5.2
-9 3 9 61.19 7.6
-8 -3 9 48.7 6.3
8 -3 -9 44.9 5.1
-8 3 9 53.59 5.8
-8 3 9 37.6 6.4
-8 3 9 45.1 4.9
7 -3 -9 133.09 18.6
7 -3 -9 102.69 6.4
-7 -3 9 100.19 10.5
-7 -3 9 116.19 8.6
-7 -3 9 100.29 4.3
7 3 -9 89.29 4.5
-7 3 9 100.29 8.3
-7 3 9 102.79 8
-7 3 9 106.79 6.6
7 3 -9 108.89 14.4
7 3 -9 97.89 4.3
-7 3 9 89.19 15.8
6 -3 -9 84.69 5.9
-6 -3 9 80.89 4.3
6 -3 -9 83.39 15
-6 -3 9 89.49 11.4
-6 -3 9 78.69 7.4
6 3 -9 82.09 4.6
-6 3 9 85.79 6
-6 3 9 81.69 8
-6 3 9 94.29 15.6
-6 3 9 92.79 7.3
-6 3 9 79.19 7.2
6 3 -9 104.09 13.3
-5 -3 9 97.19 4.8
-5 -3 9 102.79 7.3
5 -3 -9 100.29 6.2
-5 3 9 93.79 14.2
-5 3 9 87.59 7.2
5 3 -9 97.39 5.8
5 3 -9 97.39 5.1
-5 3 9 91.59 7.5
-5 3 9 94.19 6.1
-5 3 9 89.19 7
5 3 -9 92.39 14.3
5 3 -9 111.49 6.9
-4 -3 9 126.89 7.8
4 -3 -9 132.09 6.7
-4 -3 9 130.39 5.7
4 -3 -9 104.09 8.5
4 -3 -9 125.29 5.2
-4 -3 9 130.49 13.5
4 -3 -9 130.89 17.6
-4 3 9 122.19 6.5
4 3 -9 134.39 6
4 3 -9 113.99 7.1
4 3 -9 121.09 14.7
-4 3 9 144.19 7.5
-4 3 9 127.19 7.5
-4 3 9 150.18 17.9
-4 3 9 143.59 8.2
4 3 -9 127.39 6.8
-3 -3 9 261.87 17.8
3 -3 -9 270.37 9.8
-3 -3 9 263.67 9.1
-3 -3 9 264.67 10.8
3 -3 -9 254.77 8.7
3 -3 -9 264.57 11.4
3 -3 -9 258.47 22.1
3 -3 -9 252.37 10.8
-3 3 9 276.07 9.9
-3 3 9 250.37 10.6
3 3 -9 268.57 21.3
-3 3 9 248.88 10.1
3 3 -9 258.67 10.1
-3 3 9 302.07 15.6
3 3 -9 267.37 10
-3 3 9 251.77 19.6
2 -3 -9 341.27 12.7
-2 -3 9 336.67 12.4
2 -3 -9 336.57 11.4
2 -3 -9 328.37 10.7
2 -3 -9 331.77 12.8
2 -3 -9 339.57 23.9
-2 -3 9 305.67 11.8
-2 -3 9 337.17 20.1
-2 3 9 348.67 12.3
-2 3 9 324.47 11.8
-2 3 9 319.37 11.9
2 3 -9 321.27 23.7
-2 3 9 353.56 22.5
2 3 -9 325.97 11.5
-2 3 9 336.27 11.5
2 3 -9 319.27 11.7
1 -3 -9 733.03 33.3
1 -3 -9 723.73 21.4
-1 -3 9 707.23 20
1 -3 -9 684.53 21.2
-1 -3 9 708.03 21.3
-1 -3 9 733.53 30.4
1 -3 -9 713.83 20.5
1 3 -9 752.22 34.3
1 3 -9 685.83 18.1
1 3 -9 713.23 20.9
-1 3 9 717.73 21.1
1 3 -9 716.53 18
-1 3 9 653.63 31
1 3 -9 694.93 20.4
-1 3 9 679.13 20.6
-1 3 9 701.13 20.2
0 -3 -9 103.49 16
0 -3 9 73.59 5.3
0 -3 -9 71.99 5.4
0 -3 -9 70.09 6
0 -3 -9 77.89 6.3
0 -3 9 64.89 6
0 3 9 64.29 13.7
0 3 9 71.29 5.5
0 3 9 69.19 4.8
0 3 -9 79.39 16.1
0 3 -9 74.89 5.5
0 3 9 81.39 6.3
0 3 -9 72.59 5.7
-1 -3 -9 150.28 7.3
1 -3 9 166.08 8.5
1 -3 9 140.99 16.9
-1 -3 -9 151.88 8.4
-1 -3 -9 158.48 7.7
1 -3 9 161.08 7.5
-1 -3 -9 190.58 20
-1 3 -9 170.08 20.6
1 3 9 143.49 18.7
1 3 9 151.78 6.6
-1 3 -9 154.58 8
1 3 9 153.38 8
-1 3 -9 153.28 7.8
-2 -3 -9 1232.98 33.8
2 -3 9 1190.38 32.7
2 -3 9 1218.18 32
2 -3 9 1211.28 45.4
2 -3 9 1235.18 33.7
-2 -3 -9 1232.08 32.7
-2 -3 -9 1210.98 32.5
-2 3 -9 1238.48 33.1
2 3 9 1163.78 33.2
2 3 9 1239.98 33.4
-2 3 -9 1231.18 48.8
2 3 9 1213.18 31.5
2 3 9 1257.07 45.6
-2 3 -9 1198.58 33.7
-3 -3 -9 109.09 6.2
-3 -3 -9 110.69 7.6
3 -3 9 101.19 6.1
3 -3 9 100.49 7.7
-3 -3 -9 105.29 6.2
3 -3 9 94.29 6.7
3 -3 9 95.49 16
-3 3 -9 119.69 19.5
3 3 9 127.09 18.1
3 3 9 114.09 15.7
-3 3 -9 94.29 7.2
-3 3 -9 117.19 7.7
3 3 9 108.99 5.1
-4 -3 -9 212.58 10.3
4 -3 9 214.18 10.3
-4 -3 -9 191.08 8.1
4 -3 9 213.58 8.5
4 -3 9 258.17 23.8
-4 -3 -9 190.48 8.7
-4 3 -9 216.38 10.5
-4 3 -9 217.58 25
4 3 9 168.98 19.6
4 3 9 199.48 6.9
-4 3 -9 199.08 9.6
4 3 9 198.88 25.2
5 -3 9 82.19 18.6
-5 -3 -9 87.49 5.3
5 -3 9 101.69 7.8
-5 -3 -9 103.99 8.4
5 -3 9 97.09 6.3
-5 -3 -9 91.59 6.8
5 3 9 80.19 15.1
-5 3 -9 117.79 20.3
-5 3 -9 88.39 7.7
-5 3 -9 85.49 7.5
-6 -3 -9 73.99 8.8
-6 -3 -9 54.09 6.3
6 -3 9 62.19 6.6
6 -3 9 64.99 19
6 -3 9 70.39 6.4
-6 3 -9 64.49 7.4
6 3 9 69.49 17.3
-6 3 -9 53.29 7.5
-6 3 -9 33.7 18.9
-7 -3 -9 122.19 10.7
-7 -3 -9 116.19 8.3
7 -3 9 102.89 7.5
-7 3 -9 112.79 11.3
-7 3 -9 116.19 10.3
-8 -3 -9 30 7.2
-8 -3 -9 22.6 5
-8 3 -9 21.2 6.9
-8 3 -9 30.3 7
-9 -3 -9 25.1 5.1
-9 -3 -9 22.8 7.4
-9 3 -9 26 6.7
-9 3 -9 8.7 7.8
-9 -4 9 13.3 6.7
9 -4 -9 10 5.2
-9 4 9 14.4 4.9
-9 4 9 12.3 6.6
8 -4 -9 52.09 5.6
-8 -4 9 41.8 7.4
-8 4 9 38.9 6.3
-8 4 9 49.2 5.7
7 -4 -9 29.7 4.8
-7 -4 9 29.2 3.1
-7 4 9 42.1 7
-7 4 9 23 4.9
-7 4 9 23.2 5.9
7 4 -9 25.2 3.3
7 4 -9 15.2 3.3
-6 -4 9 182.48 7.2
6 -4 -9 189.08 9.7
-6 -4 9 203.18 11.6
-6 4 9 162.88 26.8
-6 4 9 162.18 16.9
6 4 -9 175.78 7.5
6 4 -9 185.88 8.6
-6 4 9 176.98 11.6
-6 4 9 184.98 13.4
5 -4 -9 13.8 4.3
5 -4 -9 22.3 2.3
-5 -4 9 23.4 5.3
-5 -4 9 19.8 3.1
5 -4 -9 43.4 17.2
5 -4 -9 23.8 2.7
-5 4 9 24.2 5.2
5 4 -9 2.5 15.4
-5 4 9 12.9 5.1
-5 4 9 19.4 4.1
5 4 -9 21.7 3.6
5 4 -9 22.9 4.1
-5 4 9 2.7 14.9
-4 -4 9 240.48 9
-4 -4 9 232.18 11.3
4 -4 -9 258.47 27.2
4 -4 -9 234.98 10.3
4 -4 -9 215.98 8.2
4 -4 -9 230.98 7.6
-4 4 9 246.18 10.8
4 4 -9 247.78 10.5
-4 4 9 238.48 10
-4 4 9 223.18 24.1
4 4 -9 232.58 26.3
-4 4 9 225.28 11.7
4 4 -9 227.18 9.9
-3 -4 9 4.3 3.7
3 -4 -9 9 3.5
-3 -4 9 0.6 9.7
3 -4 -9 16.8 15.2
3 -4 -9 10 3
-3 -4 9 12.3 2.7
-3 4 9 29.5 12.7
-3 4 9 13 4.5
-3 4 9 9.2 3.5
-3 4 9 8.9 3.4
3 4 -9 5.1 3.3
3 4 -9 11.1 4
3 4 -9 3.8 14.6
2 -4 -9 248.68 10.2
-2 -4 9 236.98 11.3
-2 -4 9 236.18 9.5
2 -4 -9 208.18 11.8
2 -4 -9 273.37 26.1
2 -4 -9 247.68 11.7
-2 -4 9 247.98 21.3
-2 4 9 239.68 10.1
2 4 -9 248.88 10.8
-2 4 9 241.78 11.2
2 4 -9 239.48 7
2 4 -9 251.17 24.3
-2 4 9 233.38 10.2
2 4 -9 264.77 12.7
-2 4 9 234.48 22.2
1 -4 -9 3.3 3.7
1 -4 -9 2.7 2.6
-1 -4 9 -4 2.8
-1 -4 9 1 3.8
1 -4 -9 8.6 4.9
1 -4 -9 6.2 13.5
1 4 -9 4 15.8
1 4 -9 0.8 3.1
1 4 -9 1.8 1.9
-1 4 9 4.8 2.7
-1 4 9 3.7 2.7
-1 4 9 -9.4 3.9
-1 4 9 -6.4 11.9
0 -4 -9 123.19 9.2
0 -4 9 168.98 20
0 -4 -9 135.09 7.5
0 -4 9 126.29 7.2
0 -4 9 130.29 7.4
0 -4 9 128.29 8.4
0 -4 -9 121.69 25.6
0 -4 -9 141.39 8.9
0 4 -9 135.29 22.1
0 4 -9 129.39 8.3
0 4 -9 129.29 9
0 4 9 128.89 7.1
0 4 9 117.49 18.4
0 4 9 128.09 8.3
0 4 9 137.09 7.5
1 -4 9 45.3 5.7
-1 -4 -9 28.8 15.2
1 -4 9 37.8 4.7
-1 -4 -9 30.7 4
1 -4 9 20.2 13.5
-1 -4 -9 32.3 5
-1 -4 -9 37.9 5.4
1 -4 9 39.5 5.4
-1 4 -9 28 5.2
-1 4 -9 39.4 5.5
-1 4 -9 31.8 17.7
1 4 9 37.8 4.2
-1 4 -9 37.5 4.2
1 4 9 46.7 5
1 4 9 40.9 14.2
-2 -4 -9 86.59 7.5
2 -4 9 82.29 6.7
2 -4 9 90.49 8.2
-2 -4 -9 145.09 22.4
2 -4 9 105.29 17.6
-2 -4 -9 88.99 6.4
2 -4 9 90.59 7.1
-2 -4 -9 92.69 8
-2 4 -9 89.99 21.4
2 4 9 92.99 6.4
2 4 9 102.89 18.4
-2 4 -9 85.69 7.7
2 4 9 89.09 6
3 -4 9 -3 15
-3 -4 -9 30.7 5.8
3 -4 9 25.3 4
3 -4 9 27.9 5.6
-3 -4 -9 25.7 4.2
-3 -4 -9 23.2 4.7
3 4 9 29.5 4.4
-3 4 -9 25.6 5.1
-3 4 -9 11.1 33
3 4 9 33.9 3.6
3 4 9 17.7 14.2
-4 -4 -9 37.8 5.8
-4 -4 -9 40 5
-4 -4 -9 45.1 6.6
4 -4 9 32.3 4.8
4 -4 9 41.9 5.9
4 -4 9 33.9 17.3
4 4 9 43.7 4.3
-4 4 -9 42.2 6.5
4 4 9 24 17.6
4 4 9 46.1 5.1
-4 4 -9 63.49 21.8
4 4 9 53.89 17
5 -4 9 50.39 19.8
-5 -4 -9 36.8 4.9
5 -4 9 26.6 5.2
-5 -4 -9 40.2 5.5
-5 -4 -9 36.5 6.3
5 -4 9 30.4 6.3
-5 4 -9 39.2 6.9
-5 4 -9 44.8 21.3
5 4 9 36.2 4.5
-6 -4 -9 129.19 11.5
-6 -4 -9 110.79 7
6 -4 9 128.89 10.4
-6 -4 -9 120.19 8.7
-6 4 -9 117.79 10.8
6 4 9 111.49 7.9
7 -4 9 4.8 5.5
-7 -4 -9 1.2 4.7
-7 -4 -9 -6.4 6.4
-7 4 -9 -3.1 6.4
7 4 9 2.7 3.8
-8 -4 -9 17.8 7.5
-8 -4 -9 21.9 5.3
-8 4 -9 10 7.1
8 -5 -9 1.4 5.9
-8 -5 9 14.3 8.7
-8 5 9 25.1 7.1
-8 5 9 13.6 5.9
7 -5 -9 34.9 5.9
-7 -5 9 25.5 7.3
-7 5 9 25.2 6.8
-7 5 9 33.6 6.4
6 -5 -9 -5.6 4.8
-6 -5 9 -0.7 6.8
6 5 -9 2.7 5
-6 5 9 1.2 4.4
-6 5 9 2.5 4.8
-5 -5 9 202.58 13.3
5 -5 -9 196.48 8.4
5 -5 -9 179.18 6.9
5 -5 -9 197.88 10.9
-5 5 9 188.78 11.1
5 5 -9 203.78 10.9
-5 5 9 212.88 11.8
-4 -5 9 14.5 5.6
4 -5 -9 12.5 4.8
-4 -5 9 10.8 3.8
4 -5 -9 13.5 3
4 -5 -9 7.2 3.7
4 5 -9 2.1 4.5
-4 5 9 13.2 4.8
-4 5 9 7.8 5
-3 -5 9 207.88 13
3 -5 -9 251.07 30.2
3 -5 -9 219.28 8.4
-3 -5 9 231.48 24.9
3 -5 -9 223.08 11.1
3 5 -9 228.28 11.3
-3 5 9 185.48 24.3
-3 5 9 176.98 16.7
3 5 -9 208.08 6.8
-2 -5 9 6 15.1
2 -5 -9 14.7 4.6
2 -5 -9 16.6 22.6
-2 -5 9 1.9 6.7
-2 -5 9 1.9 3.7
2 -5 -9 0.8 6.9
2 5 -9 16.9 21
-2 5 9 8 4.4
-2 5 9 4.7 4.2
2 5 -9 9.3 2.4
2 5 -9 6.6 4.2
-2 5 9 24.1 17.4
1 -5 -9 199.58 10.3
-1 -5 9 178.08 11.6
1 -5 -9 175.08 12.8
1 -5 -9 170.38 26.3
-1 -5 9 165.08 9.7
-1 5 9 173.38 9.5
1 5 -9 186.18 11.3
-1 5 9 183.08 9.9
-1 5 9 179.58 24
1 5 -9 191.18 7.7
1 5 -9 166.48 26.4
0 -5 -9 5.9 4.3
0 -5 -9 4.3 6
0 -5 9 -7.4 3.9
0 -5 9 5.1 4.9
0 -5 -9 -12.9 18.1
0 -5 9 -5.7 16.6
0 5 9 -0.7 18.7
0 5 -9 -1.2 3.1
0 5 9 4 3.6
0 5 9 5.9 4
0 5 -9 8.7 20.7
0 5 -9 2 4.3
1 -5 9 136.89 23.1
-1 -5 -9 168.08 26.5
1 -5 9 149.49 11.2
-1 -5 -9 141.29 13.5
-1 5 -9 151.28 11
-1 5 -9 146.39 8.7
1 5 9 152.08 8.3
1 5 9 152.78 23.6
-1 5 -9 134.89 26.8
1 5 9 147.39 9.3
2 -5 9 7 18
2 -5 9 10.9 6.1
-2 -5 -9 12 5.9
-2 -5 -9 7.6 4.3
-2 -5 -9 -9.7 22.8
-2 5 -9 10.3 25.4
2 5 9 6 3.5
-2 5 -9 11.4 5.3
2 5 9 27.9 19
2 5 9 4.1 4.1
-2 5 -9 10 4.8
-3 -5 -9 135.79 10.9
-3 -5 -9 177.78 29
3 -5 9 179.98 12.2
3 -5 9 284.57 32
-3 -5 -9 181.58 10.3
-3 -5 -9 184.88 12.7
3 5 9 170.58 8.3
-3 5 -9 148.49 10.6
3 5 9 196.68 10.1
-3 5 -9 152.98 30.4
3 5 9 138.99 24.1
-4 -5 -9 20 6.6
4 -5 9 16.1 10.2
-4 -5 -9 21 5.3
-4 -5 -9 15.5 6.2
-4 5 -9 6.7 30.4
4 5 9 16.6 4.3
-4 5 -9 18.4 6.6
5 -5 9 63.09 8.8
-5 -5 -9 70.79 8.5
-5 -5 -9 51.89 6.6
5 5 9 64.39 7.6
-5 5 -9 60.29 8.8
-6 -5 -9 0 5.2
6 -5 9 1.3 6.5
-6 -5 -9 10 6.8
-6 5 -9 1.8 7.3
6 5 9 3.9 5
5 -6 -9 36.3 7.5
-5 -6 9 34.2 8.7
-5 6 9 32.5 6.9
-5 6 9 37.2 7.4
4 -6 -9 66.09 6.8
-4 -6 9 63.39 9.3
4 -6 -9 64.59 8.1
4 6 -9 72.49 8.6
-4 6 9 56.69 7.4
-4 6 9 49.7 7.6
3 -6 -9 2.4 6.1
3 -6 -9 5.9 3.9
-3 -6 9 15.7 7.3
-3 6 9 8.4 6.3
-3 6 9 2.4 5.8
3 6 -9 0.2 6.5
-2 -6 9 96.19 10.3
2 -6 -9 88.59 8
2 -6 -9 88.69 10.3
-2 -6 9 68.39 9.7
-2 6 9 87.09 9.9
-2 6 9 84.99 10.2
2 6 -9 80.99 8.8
1 -6 -9 3.3 5.4
-1 -6 9 2.2 7.3
1 -6 -9 7.6 6.7
1 -6 -9 -49.8 36.1
1 -6 -9 4.6 4.3
1 6 -9 6.9 6.4
-1 6 9 11.7 5.4
-1 6 9 -37 25.7
-1 6 9 8 6
0 -6 -9 110.49 9.6
0 -6 -9 108.69 11.1
0 -6 9 100.29 10.6
0 -6 -9 100.19 12.8
0 6 9 97.19 9.2
0 6 9 82.29 28.8
0 6 -9 110.99 11.5
0 6 9 108.69 10.5
-1 -6 -9 -7.6 26.2
1 -6 9 11.8 7.1
-1 -6 -9 9.5 6.8
-1 -6 -9 14.6 6
1 -6 9 53.19 23.6
1 6 9 -12.5 29
-1 6 -9 44.9 43.8
1 6 9 14.5 5.4
-1 6 -9 21 8.4
1 6 9 11.7 6.2
2 -6 9 96.49 25.8
2 -6 9 79.79 10.3
-2 -6 -9 70.69 9.8
-2 -6 -9 79.59 9.5
2 6 9 78.39 8.8
-2 6 -9 56.09 10.3
-2 6 -9 102.29 38.2
2 6 9 58.99 8.4
-3 -6 -9 24.1 6
-3 -6 -9 20.5 8.1
3 -6 9 34.9 8.8
-3 6 -9 42.7 9.5
3 6 9 31.7 6.5
-4 -6 -9 72.29 9.8
-4 -6 -9 55.49 7.1
4 -6 9 60.19 10.1
4 6 9 96.29 9.8
-4 6 -9 67.49 10.4
-11 0 10 3.6 6.3
-10 0 10 10.3 3.2
-10 0 10 5.2 5.1
-10 0 10 3.5 5.8
-9 0 10 2.2 1.3
-9 0 10 -0.9 2.7
-9 0 10 5.9 3.9
-9 0 10 4.5 4.1
-9 0 10 -4.4 4.2
-9 0 10 4.6 3.6
-8 0 10 234.08 8.5
-8 0 10 235.58 11.6
-8 0 10 220.88 13.5
-8 0 10 226.68 7.2
8 0 -10 242.98 6.9
-8 0 10 211.98 9.6
-8 0 10 244.38 7.7
-8 0 10 238.88 12.6
-7 0 10 1.2 1.8
-7 0 10 2.1 2.5
-7 0 10 3.6 1.9
-7 0 10 -2.6 5.9
-7 0 10 -1.6 2.2
-7 0 10 2.5 3.3
-7 0 10 -4.5 6.1
6 0 -10 320.97 9.6
-6 0 10 289.87 11.7
6 0 -10 320.87 10.9
-6 0 10 303.87 16.1
-6 0 10 321.87 17.3
-6 0 10 331.57 12.7
-6 0 10 322.17 10
-6 0 10 322.07 10.3
-5 0 10 1.1 5.9
-5 0 10 3.1 2.8
-5 0 10 1.5 1.8
-5 0 10 -5.8 6
5 0 -10 2.4 1.8
-5 0 10 0.8 1.9
-5 0 10 2.4 1.8
4 0 -10 555.04 15.4
-4 0 10 541.05 15.5
4 0 -10 545.75 15.3
-4 0 10 548.15 17.2
-4 0 10 503.95 22.8
-4 0 10 546.05 14.7
-4 0 10 532.65 22.6
-4 0 10 536.95 15.5
3 0 -10 2.1 1.7
-3 0 10 0.8 2
-3 0 10 1.8 6.7
3 0 -10 0.4 1.9
-3 0 10 3.3 2
-3 0 10 3.3 1.3
-3 0 10 3.7 1.9
-2 0 10 445.66 14
2 0 -10 426.66 13
2 0 -10 447.96 13.1
-2 0 10 441.56 21
-2 0 10 416.86 21.2
-2 0 10 430.56 12
-2 0 10 427.86 13.3
-2 0 10 433.46 13.2
2 0 -10 429.76 12.3
-1 0 10 6 6.6
-1 0 10 2 1.4
-1 0 10 -1.1 1.7
1 0 -10 2.1 1.9
1 0 -10 0.9 7.6
1 0 -10 1.8 1.5
-1 0 10 -0.5 1.8
1 0 -10 -0.3 1.5
-1 0 10 1.9 2
0 0 -10 1571.94 40
0 0 -10 1526.85 39.9
0 0 -10 1525.15 39
0 0 -10 1611.94 50.89
0 0 10 1553.14 39.1
0 0 10 1520.55 50.49
0 0 10 1548.55 40
0 0 10 1555.44 40
0 0 10 1562.34 40.1
-1 0 -10 1.7 2.1
-1 0 -10 -5 7.4
1 0 10 2 8.1
1 0 10 0.1 2
1 0 10 4.3 2.2
-1 0 -10 1.1 1.5
-1 0 -10 -4.1 2.4
1 0 10 -1.3 1.6
1 0 10 0.2 1.5
2 0 10 471.15 14.8
-2 0 -10 449.56 14.1
-2 0 -10 478.45 15
2 0 10 464.65 13.6
2 0 10 455.45 24.8
-2 0 -10 474.75 25.5
-2 0 -10 458.05 14.6
2 0 10 477.35 14.3
3 0 10 3.4 9.2
3 0 10 -2.3 2.3
3 0 10 -0.1 1.6
-3 0 -10 0.5 2.8
-3 0 -10 -1.3 2.2
-3 0 -10 6.1 9.7
-3 0 -10 -1.8 2
4 0 10 850.71 37
-4 0 -10 832.32 23.9
-4 0 -10 829.82 35.9
4 0 10 814.72 23.9
-4 0 -10 856.91 24.2
-5 0 -10 1.2 3.3
-5 0 -10 0.4 2.7
5 0 10 1.6 1
5 0 10 -4.6 11.9
-5 0 -10 -2.8 11.2
5 0 10 -1.5 1.1
-5 0 -10 2.6 4
-6 0 -10 9.9 3.7
-6 0 -10 12.5 13.2
-6 0 -10 9 3.5
6 0 10 -3.7 13.7
-7 0 -10 -3.4 3.1
-7 0 -10 2.8 4.5
-7 0 -10 7.7 25.4
-8 0 -10 118.49 9
-8 0 -10 113.49 10.5
-9 0 -10 0.6 6
-9 0 -10 3.5 4.7
-10 0 -10 55.29 7.1
-10 0 -10 46.8 8.5
-11 -1 10 42.3 7.6
-11 -1 10 37.2 5.8
-11 -1 10 37.3 5.5
-11 1 10 42 7.9
-10 -1 10 14.4 3.5
-10 -1 10 11.1 5.7
-10 -1 10 13.2 4.9
-10 -1 10 7.8 4.1
-10 1 10 12 9
-10 1 10 7.9 2.2
-10 1 10 19.2 9.1
-10 1 10 4.2 2.9
9 -1 -10 137.79 5.7
-9 -1 10 145.79 10.5
-9 -1 10 135.49 8
-9 -1 10 153.68 8.1
-9 -1 10 139.89 6.7
-9 1 10 153.98 10.1
-9 1 10 157.28 14.4
-9 1 10 141.69 5.9
-9 1 10 142.89 6.8
-9 1 10 123.39 9.9
-8 -1 10 86.79 5.1
-8 -1 10 87.49 6.3
8 -1 -10 93.99 4.8
-8 -1 10 87.29 3.6
-8 -1 10 93.99 8.9
-8 -1 10 92.49 5.2
-8 1 10 93.39 8.1
-8 1 10 84.39 10.6
-8 1 10 91.29 7.7
-8 1 10 90.49 11.2
-8 1 10 90.89 5.5
-8 1 10 89.99 4.8
-7 -1 10 160.38 7.5
7 -1 -10 162.08 6.4
-7 -1 10 160.68 5.6
-7 -1 10 166.48 9.4
-7 -1 10 152.88 6.1
-7 -1 10 155.08 6.2
-7 -1 10 149.79 11.2
-7 -1 10 160.18 11
-7 1 10 161.88 6.5
-7 1 10 150.18 14
-7 1 10 164.98 9.1
-7 1 10 150.18 6.8
-7 1 10 155.58 8.2
7 1 -10 158.38 5.2
6 -1 -10 208.88 7.4
-6 -1 10 199.58 9.9
-6 -1 10 190.48 6.7
-6 -1 10 208.28 8.2
-6 -1 10 183.88 6.2
6 -1 -10 198.38 6
-6 -1 10 181.38 12.5
-6 -1 10 162.18 12.3
-6 1 10 173.78 7.3
-6 1 10 189.38 14.8
-6 1 10 153.88 15.2
-6 1 10 194.28 7.7
6 1 -10 203.58 7.6
-6 1 10 206.38 9.6
-6 1 10 194.78 8.4
-6 1 10 188.68 7.3
-5 -1 10 458.45 12.1
-5 -1 10 478.65 20.5
-5 -1 10 492.85 14.8
5 -1 -10 456.15 12.8
-5 -1 10 472.45 20.3
-5 -1 10 458.85 16
-5 -1 10 475.55 13.6
-5 1 10 488.55 14.6
-5 1 10 474.65 14.4
5 1 -10 474.35 14
-5 1 10 491.45 16.1
-5 1 10 464.25 23.3
-5 1 10 470.45 13.2
5 1 -10 472.55 13.6
-5 1 10 481.65 22
-4 -1 10 138.39 7.7
-4 -1 10 143.79 6.8
4 -1 -10 149.19 6.2
-4 -1 10 164.08 13.4
-4 -1 10 146.99 6.1
4 -1 -10 146.69 5.5
-4 1 10 125.69 13.4
4 1 -10 137.89 6
-4 1 10 141.59 14
-4 1 10 145.79 6.2
-4 1 10 143.59 5.6
-4 1 10 142.99 7.6
-4 1 10 137.59 6.5
4 1 -10 134.49 14
4 1 -10 154.78 6.4
-3 -1 10 1597.74 40.6
3 -1 -10 1572.54 39.9
3 -1 -10 1664.83 39.5
3 -1 -10 1571.04 40
-3 -1 10 1543.25 48.7
-3 -1 10 1508.45 37.6
-3 -1 10 1558.34 39.8
-3 1 10 1535.55 41.2
3 1 -10 1613.14 40
3 1 -10 1586.24 40.1
-3 1 10 1544.25 49.2
-3 1 10 1545.95 39.7
-3 1 10 1574.74 39.4
-3 1 10 1564.24 40.4
3 1 -10 1553.44 49.5
2 -1 -10 11.1 2.4
-2 -1 10 10.8 2.5
2 -1 -10 10.9 2.3
-2 -1 10 11.3 2.3
2 -1 -10 13 2.5
-2 -1 10 4 7.3
-2 1 10 7.2 7.3
-2 1 10 11.3 2.1
-2 1 10 1.1 7.1
2 1 -10 9.5 2.6
-2 1 10 13.3 2.6
2 1 -10 12.8 2.3
2 1 -10 2.9 10.4
-2 1 10 7.7 2.3
2 1 -10 12.4 1.4
-1 -1 10 724.53 29.4
1 -1 -10 717.03 19.5
-1 -1 10 666.63 19.7
1 -1 -10 700.73 19.6
1 -1 -10 704.73 19.5
-1 -1 10 711.73 20.1
-1 1 10 685.13 19.9
1 1 -10 698.93 29.5
1 1 -10 715.83 19.9
1 1 -10 681.53 17.9
-1 1 10 651.83 29.4
-1 1 10 678.03 19.8
-1 1 10 692.33 28.3
-1 1 10 710.43 19.2
1 1 -10 721.13 19.8
0 -1 -10 79.99 5.2
0 -1 -10 79.09 4.8
0 -1 -10 82.39 5
0 -1 10 75.79 4.9
0 -1 10 82.89 5.4
0 -1 10 96.89 13.4
0 1 10 85.99 4.7
0 1 -10 51.69 6.4
0 1 10 80.79 5.4
0 1 -10 87.49 12.9
0 1 10 83.39 12.2
0 1 10 87.39 12.4
0 1 10 78.79 4.8
0 1 -10 74.69 3.8
0 1 -10 82.29 5.2
1 -1 10 416.66 13.4
-1 -1 -10 435.86 13.5
1 -1 10 413.06 13.8
1 -1 10 419.86 23.2
-1 -1 -10 421.36 13.3
-1 1 -10 415.36 13.7
1 1 10 433.86 12.8
-1 1 -10 403.76 12.4
-1 1 -10 409.56 13.6
1 1 10 412.56 22.7
-1 1 -10 444.86 24.6
1 1 10 437.96 23.8
1 1 10 444.66 13.4
-2 -1 -10 276.87 10.2
-2 -1 -10 294.37 10.3
2 -1 10 279.07 10.6
2 -1 10 277.17 10.3
2 -1 10 293.57 20.4
-2 -1 -10 267.27 10.6
-2 1 -10 281.57 10.5
2 1 10 292.27 10.7
2 1 10 291.47 9.1
2 1 10 280.37 20.5
2 1 10 271.17 20
-2 1 -10 285.27 9.8
-2 1 -10 284.77 21.5
2 1 10 296.57 10.6
-2 1 -10 271.37 10.5
-3 -1 -10 670.43 20.7
3 -1 10 645.24 20.1
-3 -1 -10 711.63 20.5
3 -1 10 722.63 20.7
-3 -1 -10 685.33 20.1
3 -1 10 706.23 32.5
-3 1 -10 757.42 34.1
-3 1 -10 689.23 20.6
3 1 10 679.93 32.2
-3 1 -10 688.83 19.9
3 1 10 681.13 20.4
3 1 10 695.93 18.2
3 1 10 614.94 38.5
3 1 10 686.63 20.5
-3 1 -10 680.83 20.6
4 -1 10 159.98 8.3
4 -1 10 191.38 8.8
-4 -1 -10 191.08 8.9
-4 -1 -10 181.78 8.3
4 -1 10 183.28 21.3
-4 -1 -10 204.88 9.8
4 1 10 200.18 9.4
-4 1 -10 184.08 8.7
-4 1 -10 182.18 8.8
4 1 10 188.68 8.9
4 1 10 187.58 6
-4 1 -10 193.28 9.4
4 1 10 209.18 21
-4 1 -10 182.18 21
4 1 10 168.58 20
5 -1 10 29.4 14
-5 -1 -10 25.7 3.8
5 -1 10 24 2.7
-5 -1 -10 30 5.5
-5 -1 -10 35.7 4.9
5 1 10 15.9 12.6
-5 1 -10 19 3.6
5 1 10 22.6 4.3
-5 1 -10 26.2 5
5 1 10 6.7 13.2
-5 1 -10 30.5 4.3
-5 1 -10 27.8 13.9
6 -1 10 1.4 1.9
-6 -1 -10 4.6 3.6
6 -1 10 1.1 1.6
6 -1 10 13.6 13.7
-6 -1 -10 0.6 2.9
6 1 10 -9.3 13.1
-6 1 -10 5.1 15.2
-6 1 -10 1.7 3.5
-6 1 -10 -0.4 3.4
-7 -1 -10 132.59 8.6
-7 -1 -10 137.09 11.4
-7 1 -10 125.69 21.4
-7 1 -10 159.08 10.5
7 1 10 110.39 19.9
-7 1 -10 132.29 8.9
-8 -1 -10 30.4 5.4
-8 -1 -10 29.8 6.4
-8 1 -10 28.8 6.6
-8 1 -10 31 5.9
-9 -1 -10 53.39 6.4
-9 -1 -10 53.79 8.3
-9 1 -10 60.29 7
-9 1 -10 59.19 8.2
-11 -2 10 13.9 7.8
-11 -2 10 2 5.8
-11 -2 10 6.9 5
-11 2 10 8 4.1
-11 2 10 -3.5 6.2
-10 -2 10 72.39 9.5
-10 -2 10 78.19 9
-10 -2 10 80.29 6.2
-10 2 10 75.19 8.6
-10 2 10 72.79 6.1
-9 -2 10 82.19 4.8
-9 -2 10 83.89 7.8
-9 -2 10 83.19 5.8
9 -2 -10 75.79 5.7
-9 -2 10 96.39 10.1
-9 2 10 92.79 18.4
-9 2 10 80.69 5.8
-9 2 10 70.09 6.8
-8 -2 10 87.59 4.4
-8 -2 10 98.69 9.2
-8 -2 10 90.19 4.1
8 -2 -10 88.99 6
-8 -2 10 92.99 7.9
8 -2 -10 81.19 14
-8 2 10 93.69 10.4
-8 2 10 114.99 14
-8 2 10 91.59 6.8
-8 2 10 94.09 8.6
-8 2 10 104.99 6.1
-7 -2 10 43.4 6.9
7 -2 -10 45.5 11.7
-7 -2 10 39.2 4.9
-7 -2 10 46 6.4
7 -2 -10 44.4 4.9
-7 -2 10 36.1 5.6
-7 -2 10 40.7 3
-7 2 10 48.1 11.4
7 2 -10 38.8 2.8
-7 2 10 32.4 4.3
-7 2 10 43.5 4.6
-7 2 10 42.3 5.6
-7 2 10 43 5.4
7 2 -10 43.4 3
-6 -2 10 314.77 12.1
-6 -2 10 303.17 15.6
6 -2 -10 348.97 23
-6 -2 10 304.57 9.4
6 -2 -10 311.47 10.6
6 -2 -10 304.97 13.5
-6 2 10 305.27 11.4
-6 2 10 308.97 12.6
6 2 -10 318.17 11.1
-6 2 10 314.87 10.7
-6 2 10 359.86 21.6
-6 2 10 306.87 12.2
5 -2 -10 35.5 3.8
5 -2 -10 34.8 5.2
-5 -2 10 27.3 3.3
5 -2 -10 27.7 2.6
5 -2 -10 43.7 11.5
-5 -2 10 31.3 7.4
-5 -2 10 33.6 4.3
-5 2 10 33.2 3.8
5 2 -10 34.5 3.9
5 2 -10 30.6 3.6
5 2 -10 25.3 8.8
-5 2 10 32.5 4.3
-5 2 10 30.5 10.5
-5 2 10 27.7 4.1
-4 -2 10 332.47 12.1
4 -2 -10 345.67 11.2
4 -2 -10 340.87 10
-4 -2 10 338.17 10.7
4 -2 -10 338.77 13
-4 -2 10 368.36 18.7
4 2 -10 324.77 11.1
-4 2 10 331.97 21.1
4 2 -10 335.07 20.8
4 2 -10 341.87 11.7
-4 2 10 335.77 12.5
-4 2 10 338.77 11.9
-4 2 10 341.17 11.8
-3 -2 10 144.59 6.2
-3 -2 10 142.99 13.9
3 -2 -10 152.98 6.1
3 -2 -10 156.18 7.2
3 -2 -10 149.49 6.6
-3 -2 10 144.89 7.5
3 -2 -10 128.09 16.3
-3 2 10 142.49 7.6
3 2 -10 149.69 7
3 2 -10 117.19 15.4
-3 2 10 163.98 9.1
3 2 -10 146.09 7.1
-3 2 10 128.29 15.5
-3 2 10 149.49 7.2
2 -2 -10 246.38 9
2 -2 -10 242.48 9.9
2 -2 -10 222.58 8.4
-2 -2 10 237.68 9.7
-2 -2 10 239.78 8.7
2 -2 -10 249.08 9.4
-2 -2 10 233.88 16.5
2 2 -10 236.18 9
-2 2 10 253.97 9.6
-2 2 10 233.98 9.3
2 2 -10 208.08 19.4
2 2 -10 232.28 9.1
-2 2 10 237.78 17.4
1 -2 -10 113.29 5.8
1 -2 -10 113.49 6.3
1 -2 -10 114.49 5.9
-1 -2 10 117.99 6.8
-1 -2 10 121.99 17
-1 -2 10 116.49 5.8
1 2 -10 111.09 6.3
1 2 -10 111.49 3.9
1 2 -10 102.59 6.2
-1 2 10 112.09 13.8
-1 2 10 116.69 6.1
1 2 -10 122.09 15.8
-1 2 10 130.29 16.3
-1 2 10 114.79 6.6
0 -2 -10 1030.5 28.5
0 -2 -10 1070.09 28.9
0 -2 10 1075.79 39.6
0 -2 10 1065.79 29.4
0 -2 -10 1027.9 28.9
0 -2 10 1061.99 28.6
0 -2 -10 1052.89 28.6
0 2 10 1054.49 28.2
0 2 -10 1050.19 28.8
0 2 -10 1025 26.9
0 2 10 1025 38.9
0 2 10 1034.7 41.1
0 2 10 1096.49 29.3
0 2 -10 1105.19 42
0 2 -10 1100.29 29.3
0 2 10 1094.29 28.8
-1 -2 -10 302.57 11.2
-1 -2 -10 288.37 10.5
1 -2 10 309.47 11.4
-1 -2 -10 306.97 10.8
1 -2 10 283.17 20.7
1 -2 10 316.47 11.6
-1 -2 -10 285.97 11.2
1 2 10 299.77 11.4
-1 2 -10 307.57 9.8
-1 2 -10 269.77 22.5
-1 2 -10 304.17 11.1
1 2 10 311.57 22.4
1 2 10 325.47 11.1
-1 2 -10 307.97 11.4
1 2 10 320.67 20.8
1 2 10 310.67 10
-2 -2 -10 103.19 5.5
-2 -2 -10 97.99 6.6
2 -2 10 101.19 6.7
2 -2 10 120.89 15.8
2 -2 10 95.39 6.2
-2 -2 -10 106.39 7.2
-2 -2 -10 96.89 6
-2 2 -10 103.29 5.6
2 2 10 132.19 16.8
2 2 10 115.79 15.8
-2 2 -10 105.09 6.8
2 2 10 101.29 6.7
2 2 10 98.89 4.9
-2 2 -10 126.79 17.5
2 2 10 102.39 6.6
-2 2 -10 105.89 6.9
3 -2 10 449.56 27.5
-3 -2 -10 464.85 15.1
-3 -2 -10 474.05 16.3
3 -2 10 476.55 16
-3 -2 -10 486.05 15.8
-3 2 -10 511.65 29.7
-3 2 -10 469.85 15.6
3 2 10 457.55 26.9
3 2 10 470.35 28.5
3 2 10 465.25 15.7
3 2 10 476.35 15.8
-3 2 -10 464.75 15.9
3 2 10 460.95 13.2
-3 2 -10 465.45 15
-4 -2 -10 147.49 8.5
4 -2 10 157.28 6.4
-4 -2 -10 163.18 7.7
4 -2 10 151.28 8.5
4 -2 10 148.89 8
4 -2 10 155.08 20.7
-4 2 -10 162.38 8.2
4 2 10 152.98 19.8
-4 2 -10 183.58 24.2
4 2 10 158.18 5.6
-4 2 -10 163.98 8.9
4 2 10 147.59 8.6
-4 2 -10 153.48 8.4
4 2 10 193.18 22.6
5 -2 10 334.97 13.1
5 -2 10 363.36 28.4
-5 -2 -10 354.76 12.4
-5 -2 -10 351.26 13.4
5 -2 10 342.77 10.7
5 2 10 326.27 24.6
-5 2 -10 350.06 13.3
-5 2 -10 364.56 29.1
5 2 10 317.77 8.8
5 2 10 303.67 28.7
-5 2 -10 336.07 13.1
-5 2 -10 301.47 13
6 -2 10 549.95 33.8
-6 -2 -10 568.74 19.2
-6 -2 -10 541.45 17.4
6 -2 10 538.25 15.3
6 2 10 508.75 44.4
-6 2 -10 525.75 18.5
-6 2 -10 553.24 19
6 2 10 477.85 31.2
-6 2 -10 541.05 36.1
-7 -2 -10 76.59 9.6
-7 2 -10 54.09 6.9
-7 2 -10 61.09 11.5
-8 -2 -10 54.09 6
-8 -2 -10 37.5 7.2
-8 2 -10 44.2 6.9
-8 2 -10 43.8 7.9
-9 -2 -10 66.79 9.3
-9 -2 -10 65.99 8.1
-9 2 -10 70.99 8.3
-9 2 -10 53.69 8.8
-10 -3 10 39.7 7.9
-10 -3 10 42.9 9
-10 3 10 45.7 7.9
-10 3 10 37.6 5.4
9 -3 -10 33.7 4.2
-9 -3 10 39.4 6.8
-9 -3 10 35.5 8
-9 3 10 30.1 4.7
-9 3 10 41.5 7.4
-8 -3 10 43.4 5.4
-8 -3 10 49.9 6.4
-8 -3 10 36 4.6
8 -3 -10 55.69 6.5
-8 3 10 48.3 6.6
-7 -3 10 143.29 5.6
7 -3 -10 149.79 7.6
-7 -3 10 105.59 12.3
-7 -3 10 132.19 9.8
-7 3 10 145.89 9.7
-7 3 10 120.39 17.1
7 3 -10 139.09 5.5
-7 3 10 141.09 9.3
-7 3 10 159.48 8.1
7 3 -10 140.89 17.6
7 3 -10 133.39 5.8
-6 -3 10 137.09 5.9
6 -3 -10 158.98 20.6
-6 -3 10 170.58 13.7
-6 -3 10 163.08 9.6
6 -3 -10 158.18 7.6
-6 3 10 137.59 7.5
6 3 -10 146.89 6.2
-6 3 10 157.28 9.2
-6 3 10 138.79 9
-6 3 10 141.29 18.5
6 3 -10 149.49 6.8
6 3 -10 134.09 16.6
-5 -3 10 0.4 3.5
-5 -3 10 -1 2
5 -3 -10 3.2 1.5
5 -3 -10 -12.6 12.9
5 -3 -10 1 2.8
-5 3 10 1 2.6
5 3 -10 1.1 3.3
5 3 -10 -2.6 2.2
5 3 -10 0.1 2.8
-5 3 10 1.1 3.5
-5 3 10 0.9 4.2
-5 3 10 10.7 11
5 3 -10 0.7 10.3
-5 3 10 2.5 3.2
-4 -3 10 134.79 8
4 -3 -10 137.59 5.7
4 -3 -10 127.39 6.8
-4 -3 10 136.39 6.1
4 -3 -10 119.39 17.9
4 3 -10 132.09 7.2
-4 3 10 125.99 16.3
4 3 -10 132.79 17.1
4 3 -10 116.89 7.5
-4 3 10 130.79 7.6
-4 3 10 136.79 8.2
-4 3 10 130.99 6.9
3 -3 -10 228.48 9
-3 -3 10 210.58 9.8
-3 -3 10 216.08 8.3
-3 -3 10 256.97 18.4
3 -3 -10 219.48 10.7
3 -3 -10 204.88 8.3
3 -3 -10 214.08 10
3 -3 -10 192.28 20.6
-3 3 10 229.48 9.6
-3 3 10 221.98 19.5
3 3 -10 216.68 21.8
-3 3 10 208.48 9.8
3 3 -10 209.58 9.3
-3 3 10 214.08 9.9
3 3 -10 220.38 9.3
-3 3 10 211.38 8.8
2 -3 -10 735.63 34.8
-2 -3 10 745.13 31
-2 -3 10 744.23 22.2
2 -3 -10 721.63 22.5
-2 -3 10 726.43 20.5
2 -3 -10 736.73 20.5
2 -3 -10 734.73 21.1
2 -3 -10 712.63 22
-2 3 10 711.03 21.5
-2 3 10 717.23 21
2 3 -10 707.83 34.2
-2 3 10 731.73 22
2 3 -10 703.93 21.1
-2 3 10 740.03 21.4
-2 3 10 744.03 33.6
2 3 -10 714.13 21.4
1 -3 -10 61.29 5.8
1 -3 -10 64.29 5.6
1 -3 -10 65.39 6.4
-1 -3 10 70.69 12.5
-1 -3 10 71.69 5.2
1 -3 -10 67.39 6.7
-1 -3 10 65.79 6.5
1 -3 -10 47.1 14.7
-1 3 10 61.99 5.8
1 3 -10 46.5 15.6
1 3 -10 68.49 6
-1 3 10 65.99 6.1
-1 3 10 66.19 5.6
-1 3 10 42.5 12.2
1 3 -10 64.29 5.8
1 3 -10 66.19 3.2
1 3 -10 59.29 3.2
0 -3 10 122.59 7.9
0 -3 -10 124.09 6.9
0 -3 10 117.79 6.8
0 -3 10 151.28 17.4
0 -3 -10 123.19 7.8
0 -3 -10 135.29 7.9
0 -3 -10 119.79 18.3
0 -3 -10 130.29 7.4
0 3 -10 118.29 7.1
0 3 -10 111.99 18.3
0 3 10 128.39 6.6
0 3 -10 131.89 7.6
0 3 10 108.79 7.4
0 3 -10 117.19 5.3
0 3 10 136.09 7.4
0 3 10 135.69 17.7
1 -3 10 66.99 6.5
1 -3 10 70.69 6
-1 -3 -10 83.49 5.8
-1 -3 -10 67.59 6.7
-1 -3 -10 65.09 6.1
1 3 10 72.79 5
1 3 10 68.99 6.3
1 3 10 56.09 6.3
-1 3 -10 61.69 6.3
-1 3 -10 84.29 18.4
1 3 10 60.29 22.2
-1 3 -10 68.49 4.4
-1 3 -10 75.09 6.5
2 -3 10 170.38 9.1
2 -3 10 171.58 7.8
-2 -3 -10 183.68 8.4
-2 -3 -10 164.58 8.3
2 -3 10 175.98 21.2
2 -3 10 173.98 8.6
-2 -3 -10 164.78 9.1
2 3 10 177.78 7.1
2 3 10 145.99 19.1
2 3 10 192.58 23
-2 3 -10 162.08 8.9
-2 3 -10 191.28 23.1
-2 3 -10 182.58 7.8
-2 3 -10 176.18 9.3
2 3 10 167.98 9.1
3 -3 10 1020.6 29.7
3 -3 10 1063.49 30.6
3 -3 10 1092.79 28.7
-3 -3 -10 1082.29 29.6
3 -3 10 1110.99 44.7
-3 -3 -10 1107.09 31.1
-3 -3 -10 1043.3 28.9
-3 3 -10 1025.8 30
-3 3 -10 1106.49 29.8
3 3 10 1091.79 46.6
3 3 10 1028.1 42.7
-3 3 -10 1076.29 47.9
3 3 10 1117.09 28
-3 3 -10 1037.8 30.7
4 -3 10 80.49 6.3
4 -3 10 88.89 17.7
-4 -3 -10 93.89 7
-4 -3 -10 97.59 8.4
-4 -3 -10 99.39 6
4 -3 10 94.89 8.2
-4 3 -10 91.49 7.2
4 3 10 97.89 19.1
4 3 10 91.09 4.4
-4 3 -10 103.09 20.2
-4 3 -10 88.59 7.9
4 3 10 93.79 17.4
5 -3 10 72.79 6.1
-5 -3 -10 65.39 6.2
-5 -3 -10 74.39 8.7
5 -3 10 77.89 18.8
-5 -3 -10 55.49 4.9
5 -3 10 63.69 6.6
-5 3 -10 63.49 7.5
-5 3 -10 50.89 6.9
-5 3 -10 59.49 20.6
5 3 10 27.6 18
5 3 10 50.39 16.3
6 -3 10 80.19 9
6 -3 10 69.49 6.9
-6 -3 -10 94.19 9.9
-6 -3 -10 67.89 8.2
-6 3 -10 86.39 9.4
-6 3 -10 87.69 9.2
-7 -3 -10 117.69 8.6
-7 -3 -10 117.79 11.1
-7 3 -10 83.79 10
-7 3 -10 98.19 11.3
-8 -3 -10 53.79 6
-8 -3 -10 50.59 8.3
-8 3 -10 39.4 7.4
-8 3 -10 49.1 8.5
-9 -4 10 16 8.5
9 -4 -10 4 5.9
-9 4 10 10.2 6.6
-9 4 10 14.7 5.2
-8 -4 10 18.6 7.4
8 -4 -10 8.7 4.9
-8 -4 10 10.3 3.1
-8 4 10 10.7 4.8
-8 4 10 9.2 6
-7 -4 10 113.39 5.8
7 -4 -10 123.19 8.1
-7 -4 10 113.69 11.7
7 4 -10 107.09 6.2
-7 4 10 105.99 11.8
-7 4 10 125.29 10.6
-7 4 10 110.89 8.7
-6 -4 10 35.3 6.7
6 -4 -10 58.29 7.1
-6 -4 10 39.2 4.7
6 4 -10 47.7 5
-6 4 10 41.2 5.5
-6 4 10 45.9 7
-6 4 10 52.29 7.3
5 -4 -10 179.38 9.5
5 -4 -10 170.98 24.8
5 -4 -10 164.58 6.2
5 -4 -10 166.68 6.6
-5 -4 10 185.48 11.4
-5 -4 10 165.28 7.6
-5 4 10 194.48 23.3
-5 4 10 182.98 11.1
-5 4 10 185.28 10.6
-5 4 10 178.58 9.7
5 4 -10 182.28 11.8
-4 -4 10 46.4 6.4
4 -4 -10 55.39 19.5
-4 -4 10 45.2 6.5
4 -4 -10 44.4 5.1
-4 -4 10 33.2 15.3
4 -4 -10 53.29 5
-4 4 10 47.5 6.4
4 4 -10 53.19 5.7
-4 4 10 40 15.4
4 4 -10 41.8 16.7
-4 4 10 51.59 6.1
-4 4 10 55.69 6.9
3 -4 -10 381.66 12.8
-3 -4 10 374.76 12.9
3 -4 -10 438.96 32.9
3 -4 -10 395.86 14.1
-3 -4 10 390.86 15.3
3 -4 -10 383.66 15.5
-3 4 10 377.96 14
-3 4 10 437.76 28.6
-3 4 10 360.76 15
3 4 -10 378.46 14.1
3 4 -10 400.56 31.6
-3 4 10 390.46 14.4
-2 -4 10 60.29 6
-2 -4 10 53.29 13.6
2 -4 -10 71.79 6
2 -4 -10 80.39 19.1
2 -4 -10 73.49 8
-2 -4 10 69.29 7.5
-2 4 10 77.49 6.5
-2 4 10 63.89 16.7
2 4 -10 46.9 18.6
-2 4 10 64.19 7.8
-2 4 10 74.29 6.7
2 4 -10 67.19 6.7
-1 -4 10 207.08 22.3
1 -4 -10 245.98 26.5
1 -4 -10 227.08 10
1 -4 -10 236.18 11.7
1 -4 -10 219.28 11.6
-1 -4 10 224.18 11
-1 -4 10 229.28 9.7
-1 4 10 233.58 11.2
-1 4 10 226.08 10.1
1 4 -10 218.98 28.4
-1 4 10 201.68 23.9
-1 4 10 226.68 9.8
1 4 -10 218.98 10.8
1 4 -10 231.18 7.4
0 -4 10 267.47 10.9
0 -4 -10 278.77 12.4
0 -4 -10 274.37 11.2
0 -4 10 272.07 12.5
0 -4 -10 310.17 28.5
0 -4 -10 252.47 12.5
0 4 -10 287.77 12.5
0 4 -10 262.67 31.1
0 4 10 279.47 10.5
0 4 -10 236.58 10.7
0 4 10 278.17 11.1
0 4 10 262.37 26.5
-1 -4 -10 247.58 12.2
1 -4 10 269.87 12.5
-1 -4 -10 235.28 28.6
-1 -4 -10 273.37 12.5
1 -4 10 313.57 26.2
-1 -4 -10 267.87 11.1
1 -4 10 243.88 11
1 4 10 276.37 11
1 4 10 275.17 10.4
-1 4 -10 278.17 12.4
1 4 10 284.37 27.2
-1 4 -10 233.28 31
2 -4 10 0.2 4.2
-2 -4 -10 -0.1 4.3
2 -4 10 -12.1 14.1
-2 -4 -10 -0.1 3
-2 -4 -10 18.8 16.6
-2 -4 -10 -2.1 4.1
2 4 10 2.1 14.4
-2 4 -10 -11.3 19.2
2 4 10 0.8 3.1
-2 4 -10 -1 4.3
2 4 10 4.4 3.1
3 -4 10 77.19 19.3
-3 -4 -10 66.29 6.4
3 -4 10 68.29 7.3
-3 -4 -10 61.29 7.1
-3 -4 -10 66.49 6.6
-3 4 -10 57.39 21.2
3 4 10 64.79 6.5
-3 4 -10 55.89 6.5
3 4 10 71.09 5.6
3 4 10 36.6 19.7
3 4 10 85.89 18
4 -4 10 22.3 18.3
-4 -4 -10 11.4 5.2
-4 -4 -10 19.8 6.6
-4 -4 -10 12 4.5
4 -4 10 22.6 5.4
4 4 10 14.4 2.9
4 4 10 11.7 4.1
-4 4 -10 13.6 5.7
4 4 10 22.4 16.8
5 -4 10 18.6 6
-5 -4 -10 20.1 4.9
-5 -4 -10 24.6 4.6
-5 -4 -10 30.3 6.6
5 4 10 24.2 4.6
-5 4 -10 25.2 6.7
-6 -4 -10 15.9 6.4
-6 -4 -10 20.6 5
-6 4 -10 32.8 7.5
6 4 10 18.5 5.3
-7 -4 -10 32.2 7.4
-7 -4 -10 26.4 5.5
7 -4 10 29.1 7.5
-7 4 -10 31 8.1
7 4 10 28 5.3
-7 4 -10 20.7 7.4
7 -5 -10 10.7 5.6
-7 -5 10 3.8 7.9
-7 5 10 13.5 6.6
-7 5 10 18.6 6
-6 -5 10 32.7 8.1
6 -5 -10 50.79 7
-6 5 10 41.1 6.7
-6 5 10 53.39 7.1
-5 -5 10 6.1 6.7
5 -5 -10 12.6 4.9
5 -5 -10 3 2.3
5 5 -10 7.3 5
-5 5 10 -6.5 5
-5 5 10 -4.2 4.5
4 -5 -10 166.08 7.1
-4 -5 10 164.28 9.2
-4 -5 10 178.08 12.5
4 -5 -10 168.98 8.8
4 -5 -10 166.88 9.9
-4 5 10 160.08 10.6
4 5 -10 163.08 10.7
-4 5 10 167.18 10.3
3 -5 -10 16.3 4.7
3 -5 -10 8 3.1
-3 -5 10 15.9 4.3
-3 -5 10 2.2 5.4
3 5 -10 5.5 5.2
-3 5 10 11.6 5.2
-3 5 10 20.7 20.1
-3 5 10 11.8 5
-2 -5 10 91.39 18.6
-2 -5 10 111.09 11.4
-2 -5 10 100.99 8.5
2 -5 -10 90.49 10.5
2 -5 -10 129.49 31.1
2 -5 -10 98.29 8.8
2 5 -10 43.7 26.4
2 5 -10 107.39 9.5
-2 5 10 66.99 20.7
2 5 -10 108.39 4.7
-1 -5 10 12.3 5.8
1 -5 -10 -6 5.8
1 -5 -10 -12.6 20.3
-1 -5 10 -2.6 4.2
1 -5 -10 -3.3 4.1
1 5 -10 6 4.4
-1 5 10 -2.9 4.4
1 5 -10 -3.8 22
-1 5 10 22.1 19.1
1 5 -10 -1.4 5
-1 5 10 0.1 4.1
0 -5 -10 184.98 13
0 -5 10 165.98 15
0 5 -10 196.18 11.7
0 5 10 151.58 25.9
0 5 -10 135.29 27.2
0 5 -10 179.48 8.3
0 5 10 188.58 10.5
0 5 10 191.08 9.9
-1 -5 -10 -1.2 5.3
1 -5 10 8.4 7.4
1 -5 10 45.8 19.4
-1 -5 -10 0 4.4
-1 -5 -10 11.9 21.9
1 5 10 3 21
1 5 10 0.6 4.6
-1 5 -10 2.7 5.1
-1 5 -10 2.4 4
1 5 10 3.6 3.9
-1 5 -10 -62.49 23.8
2 -5 10 163.18 13.1
2 -5 10 164.88 25.3
-2 -5 -10 139.99 9.8
-2 -5 -10 138.59 12.3
2 5 10 158.48 25.3
-2 5 -10 142.89 12.4
-2 5 -10 147.39 9.9
2 5 10 144.99 9.5
-2 5 -10 186.08 32.6
2 5 10 153.48 8.4
-3 -5 -10 12 4.9
3 -5 10 -6.9 21
3 -5 10 14.8 6.8
-3 -5 -10 17.5 23.9
-3 -5 -10 12.1 6.4
-3 5 -10 1.6 6.4
-3 5 -10 -15.1 26.9
-3 5 -10 9.9 6.1
3 5 10 4.7 3.4
3 5 10 1.5 4.5
-4 -5 -10 99.59 8.6
4 -5 10 72.59 9.2
-4 -5 -10 99.39 12.3
-4 -5 -10 79.39 8.7
-4 5 -10 70.29 9.5
4 5 10 78.99 6.5
4 5 10 105.69 8.9
-5 -5 -10 8.9 5.3
5 -5 10 11.3 7.3
-5 -5 -10 4.6 7.3
5 5 10 14.4 5.1
-5 5 -10 0.6 7.9
-6 -5 -10 40.9 6.5
-6 -5 -10 38.1 8.9
6 -5 10 36 8.9
-6 5 -10 27.9 8.6
6 5 10 32.1 5.8
5 -6 -10 57.39 9
-5 6 10 52.19 8
-4 -6 10 5.8 7.8
4 -6 -10 10.9 7.1
4 -6 -10 10.9 3.9
-4 6 10 15.1 6.5
-4 6 10 18.4 6.2
4 6 -10 9.2 6.6
-3 -6 10 61.99 9.2
3 -6 -10 56.99 5.6
3 -6 -10 71.69 9
-3 6 10 84.19 10.6
3 6 -10 69.09 8.7
-3 6 10 47.9 7.8
2 -6 -10 -6.5 4.2
-2 -6 10 -0.5 7.6
2 -6 -10 4.2 6.4
-2 6 10 -10.1 5.5
2 6 -10 8.8 6.7
-2 6 10 -4.1 5.9
1 -6 -10 100.29 11.5
-1 -6 10 79.89 9.6
1 -6 -10 87.99 9
1 -6 -10 81.99 11.2
-1 6 10 78.29 9
-1 6 10 97.19 10.3
1 6 -10 86.99 10.2
0 -6 -10 -7.5 7.3
0 -6 10 3.7 7.8
0 -6 -10 -2.8 5.9
0 6 10 -6.6 5.2
0 6 -10 2.7 6.7
0 6 10 6.1 6.1
0 6 10 2.5 28.1
-1 -6 -10 75.89 8.3
1 -6 10 87.29 11.2
-1 -6 -10 68.89 10.2
-1 6 -10 58.19 9.5
1 6 10 81.69 9.5
1 6 10 80.99 10.1
-2 -6 -10 37.1 7.2
-2 -6 -10 60.09 10.2
2 -6 10 40.8 9.7
2 6 10 31.4 7.2
-2 6 -10 34.1 9.2
-2 6 -10 50.29 55.39
2 6 10 38.4 6.2
-3 -6 -10 41.9 9
3 -6 10 36 9.5
-3 -6 -10 25.7 6.9
3 6 10 32.6 8.5
-3 6 -10 18.7 9.1
3 6 10 27.8 5.7
-11 0 11 85.69 9.7
-10 0 11 3.5 5.8
-10 0 11 -6.7 5.4
-10 0 11 -1.7 3.2
-9 0 11 59.69 4.3
-9 0 11 51.09 5.8
-9 0 11 62.39 7.2
-9 0 11 65.59 3.7
-9 0 11 57.19 7.2
-9 0 11 79.39 9.5
-9 0 11 64.09 5.7
-8 0 11 4.6 7.1
-8 0 11 0.8 2.2
-8 0 11 4.1 2.9
8 0 -11 3.5 1.8
-8 0 11 -0.7 4.4
-8 0 11 -3 3.3
-8 0 11 3.8 6.3
-8 0 11 -1 2
-7 0 11 272.47 12.2
7 0 -11 267.67 8.4
-7 0 11 258.37 9
-7 0 11 262.37 9.3
-7 0 11 259.97 15.7
-7 0 11 276.97 9.7
-7 0 11 239.58 16.8
-6 0 11 -1 7.5
-6 0 11 -0.6 7.2
-6 0 11 2.7 2.3
6 0 -11 4.2 1.9
-6 0 11 -0.2 2
-6 0 11 -2.2 2.9
6 0 -11 1.7 2
-5 0 11 682.63 19
5 0 -11 682.33 18.7
5 0 -11 662.03 18.3
-5 0 11 667.53 18.1
-5 0 11 678.63 21
-5 0 11 673.33 18.9
-5 0 11 659.53 26.5
-4 0 11 3.8 6.7
-4 0 11 -1.4 1.4
-4 0 11 -0.3 2.8
-4 0 11 -2.3 2.1
-4 0 11 -0.9 7
-4 0 11 0.1 2
4 0 -11 0.5 2.3
4 0 -11 2 2.1
-3 0 11 439.16 13.6
-3 0 11 411.96 14.4
-3 0 11 429.66 13.5
-3 0 11 421.56 12.1
-3 0 11 426.06 22.1
3 0 -11 430.66 13.2
3 0 -11 455.55 12.5
3 0 -11 440.76 13.1
2 0 -11 1.6 1.7
-2 0 11 -1.1 2
-2 0 11 -1.1 7.6
-2 0 11 -4.6 7.6
2 0 -11 3.2 1.5
-2 0 11 0.5 1.3
2 0 -11 -2.4 2.2
-2 0 11 2.6 2.2
-2 0 11 1.4 2.2
-1 0 11 1084.69 40.3
-1 0 11 1108.39 29.7
1 0 -11 1101.59 29.6
1 0 -11 1115.19 29.5
-1 0 11 1115.89 29.7
-1 0 11 1110.79 28.4
1 0 -11 1108.59 28.5
-1 0 11 1098.69 30
0 0 11 3.6 2.4
0 0 11 -1.4 1.4
0 0 11 6.5 8.8
0 0 -11 4.3 1.9
0 0 11 1.3 2.1
0 0 -11 20 9.8
0 0 -11 3.3 3
0 0 -11 2.5 2
0 0 11 0.5 2.2
-1 0 -11 1258.57 33
1 0 11 1298.97 46.4
1 0 11 1283.47 33.1
-1 0 -11 1256.17 45.5
1 0 11 1268.47 33.3
-1 0 -11 1246.08 33.9
1 0 11 1228.68 33.8
1 0 11 1292.07 34.1
-1 0 -11 1286.17 33.9
-2 0 -11 -1.9 2.4
2 0 11 -1 2.3
2 0 11 2.6 2.8
2 0 11 18.2 10.5
2 0 11 1.1 1.9
-2 0 -11 -9.2 9.3
-2 0 -11 0.7 1.8
-2 0 -11 3.3 2.9
-3 0 -11 702.33 20.8
-3 0 -11 679.63 21.1
3 0 11 672.13 33.4
3 0 11 659.83 20.6
-3 0 -11 709.13 33.7
-3 0 -11 711.23 20.6
3 0 11 716.53 19.1
-4 0 -11 2.7 2.8
-4 0 -11 -1.9 3.8
4 0 11 1.9 1.8
4 0 11 1.8 3
-4 0 -11 -3.9 11.3
4 0 11 21.5 12.9
-4 0 -11 -1.5 2.6
5 0 11 75.29 3.1
-5 0 -11 65.59 17.1
-5 0 -11 92.29 7
5 0 11 75.99 3.6
5 0 11 84.79 18
-5 0 -11 87.29 6.7
6 0 11 -11 14.9
-6 0 -11 -5.4 3.5
-6 0 -11 3.5 15.7
-6 0 -11 -0.3 3.4
-7 0 -11 64.79 8.7
-7 0 -11 84.39 9.7
-8 0 -11 0.5 5.1
-8 0 -11 0.2 4.9
-9 0 -11 110.49 11.9
-9 0 -11 106.29 10
-11 -1 11 -4.6 5.1
-11 -1 11 -2.2 7
-11 -1 11 -1.9 4.6
-11 1 11 1.6 6.8
-10 -1 11 74.99 6.1
-10 -1 11 70.79 6.6
-10 -1 11 79.49 9.2
-10 1 11 66.59 8.3
-10 1 11 67.49 4.6
-10 1 11 68.19 5.7
-10 1 11 60.29 10.8
-9 -1 11 17.2 3.1
-9 -1 11 13.8 3.8
-9 -1 11 24.3 6.4
-9 -1 11 22 4.1
-9 1 11 20.7 9.5
-9 1 11 16.2 3.3
-9 1 11 20.9 7
-9 1 11 26.1 5.6
-9 1 11 13.5 2.6
-8 -1 11 166.48 8.5
-8 -1 11 186.58 10.4
-8 -1 11 157.08 6.5
-8 -1 11 157.38 5.5
-8 -1 11 152.78 6.8
-8 -1 11 162.58 5.7
8 -1 -11 166.48 6.6
-8 -1 11 172.48 11
-8 -1 11 160.18 10.3
-8 1 11 157.08 17.5
-8 1 11 157.88 9.3
-8 1 11 172.78 16.2
-8 1 11 169.28 7.7
-8 1 11 153.68 6.6
-8 1 11 181.58 10.7
-7 -1 11 7 6.7
-7 -1 11 8.4 4.7
-7 -1 11 5.4 2.1
-7 -1 11 2.3 6.7
7 -1 -11 6.2 2.4
-7 -1 11 10.3 3.1
-7 -1 11 3 1.9
-7 1 11 1.6 8.2
-7 1 11 6.3 3.6
-7 1 11 3.3 4.1
-7 1 11 5.7 2.2
7 1 -11 1.7 1.7
-7 1 11 7.1 2.7
-6 -1 11 215.08 14.7
6 -1 -11 212.68 8.3
-6 -1 11 199.38 6.3
-6 -1 11 207.98 10.5
-6 -1 11 215.28 9
-6 -1 11 210.98 7.6
6 -1 -11 209.88 6.8
-6 1 11 214.98 10.4
-6 1 11 208.48 7.3
-6 1 11 220.18 8.5
-6 1 11 213.38 9
6 1 -11 217.08 7.5
-6 1 11 213.68 16.8
-5 -1 11 235.88 9.3
-5 -1 11 234.18 8.3
-5 -1 11 231.78 10.7
5 -1 -11 239.78 7.6
-5 -1 11 227.98 6.3
5 -1 -11 232.18 8.6
-5 -1 11 218.18 15.8
-5 -1 11 238.98 15.8
-5 1 11 226.78 16.8
-5 1 11 217.88 20.6
5 1 -11 233.58 8.3
-5 1 11 224.48 10.3
-5 1 11 228.08 7.8
-5 1 11 234.18 8.8
5 1 -11 247.18 10.6
-5 1 11 220.38 8.9
-4 -1 11 687.73 19.5
4 -1 -11 705.33 19.7
-4 -1 11 691.53 20.3
-4 -1 11 704.53 21.6
-4 -1 11 703.13 28.4
-4 1 11 684.83 29.2
-4 1 11 715.33 31.1
-4 1 11 698.63 21.4
-4 1 11 693.93 19.1
-4 1 11 698.33 19.6
-4 1 11 708.53 20.2
4 1 -11 725.33 20.9
3 -1 -11 100.29 5.3
3 -1 -11 96.79 5.3
-3 -1 11 97.69 6
-3 -1 11 92.39 3.2
-3 -1 11 104.69 5.5
3 -1 -11 91.89 5.3
-3 -1 11 101.29 13
3 1 -11 99.19 5.4
3 1 -11 89.69 12.9
-3 1 11 73.19 12.3
-3 1 11 91.79 4.9
-3 1 11 102.69 6.6
-3 1 11 101.59 5.9
-3 1 11 100.19 5.1
-3 1 11 97.29 12.7
-2 -1 11 918.31 35.1
2 -1 -11 904.11 24.5
2 -1 -11 882.41 24.5
-2 -1 11 948.51 25.5
2 -1 -11 892.01 24.8
-2 1 11 895.41 25.6
-2 1 11 877.31 36
2 1 -11 900.81 26.2
-2 1 11 923.41 25.3
-2 1 11 876.01 34.1
2 1 -11 923.51 25
2 1 -11 940.41 36.5
-2 1 11 899.71 24.3
2 1 -11 930.81 22.8
1 -1 -11 27.4 3.5
-1 -1 11 39.1 10
1 -1 -11 22.1 3
1 -1 -11 26 3.4
-1 -1 11 17.3 3.1
-1 -1 11 16.2 2.9
-1 1 11 20.1 9.9
1 1 -11 25.8 11.1
1 1 -11 21.3 2.3
-1 1 11 18 3.3
1 1 -11 22.2 3.2
-1 1 11 20.8 2.9
-1 1 11 19.5 3
-1 1 11 37.1 9.5
1 1 -11 26.1 3.6
0 -1 11 1144.79 30.8
0 -1 -11 1109.19 30.4
0 -1 11 1131.59 42.3
0 -1 -11 1147.89 30.7
0 -1 11 1187.68 31.4
0 1 -11 1164.78 30.9
0 1 11 1170.48 42
0 1 -11 1143.29 29.3
0 1 11 1167.98 30.6
0 1 11 1150.78 30.4
0 1 11 1131.99 43.5
0 1 -11 1119.99 42.9
0 1 -11 1126.09 31
1 -1 11 127.39 6.7
1 -1 11 126.59 7.2
-1 -1 -11 125.19 6.6
1 -1 11 139.59 16.7
-1 -1 -11 130.99 7.3
-1 -1 -11 141.49 6.7
-1 1 -11 127.59 5.7
1 1 11 123.19 16
-1 1 -11 129.99 6.7
-1 1 -11 110.29 15.7
1 1 11 162.28 16.8
1 1 11 128.79 7.2
1 1 11 121.49 6
-1 1 -11 115.89 7
2 -1 11 451.75 25.3
-2 -1 -11 399.66 14.1
-2 -1 -11 415.56 13.7
2 -1 11 387.86 13.7
-2 -1 -11 413.96 13.7
2 -1 11 413.56 14.2
-2 1 -11 376.66 13.8
-2 1 -11 439.76 26.3
2 1 11 442.66 26.1
-2 1 -11 411.66 14.1
-2 1 -11 405.36 13
2 1 11 393.76 13.9
2 1 11 400.26 13.6
2 1 11 419.46 12.4
2 1 11 403.36 24.3
-3 -1 -11 114.39 6.9
3 -1 11 97.29 6.9
3 -1 11 119.69 7.2
-3 -1 -11 103.99 6.5
3 -1 11 104.19 16.6
-3 -1 -11 93.89 7.5
3 1 11 117.99 7.1
3 1 11 97.79 7.2
-3 1 -11 119.19 6.5
3 1 11 100.89 4.9
3 1 11 98.99 16.8
-3 1 -11 108.99 6.9
-3 1 -11 119.69 18
-3 1 -11 109.59 7.6
3 1 11 134.39 18
-4 -1 -11 262.27 10.5
4 -1 11 264.37 11
4 -1 11 277.57 23.9
-4 -1 -11 261.77 10.9
-4 1 -11 269.57 10.8
4 1 11 272.47 26.1
-4 1 -11 252.77 10.9
4 1 11 240.18 11.2
4 1 11 252.47 23.4
4 1 11 265.97 8
-4 1 -11 252.17 11.7
-4 1 -11 292.87 25.8
5 -1 11 2.2 13.7
-5 -1 -11 4.8 3.6
-5 -1 -11 5.6 3.5
5 -1 11 4.1 1.7
-5 1 -11 2.4 3.3
5 1 11 16.7 15
5 1 11 14.8 13.4
-5 1 -11 5.6 3.5
-5 1 -11 -1.1 13.1
6 -1 11 136.09 21
-6 -1 -11 150.48 9.7
-6 -1 -11 131.89 8.1
6 -1 11 142.59 5.1
-6 1 -11 140.29 9.6
-6 1 -11 142.79 9.1
6 1 11 136.59 21
-6 1 -11 145.49 20.3
-7 -1 -11 22.8 5.8
-7 -1 -11 18.1 4.9
-7 1 -11 22.1 5.3
-7 1 -11 19.7 7.9
-8 -1 -11 58.89 8.1
-8 -1 -11 51.79 6.4
-8 1 -11 53.69 7.6
-8 1 -11 59.79 7.3
-9 -1 -11 2.2 7.3
-9 -1 -11 3.1 4.8
-9 1 -11 -6.2 6.7
-9 1 -11 0.2 5.8
-10 -2 11 18.4 3.3
-10 -2 11 14.5 7.9
-10 -2 11 14.8 5.7
-10 2 11 15.7 7.1
-10 2 11 14.6 4.4
-9 -2 11 43.4 9
-9 -2 11 29.5 3.6
-9 -2 11 35.4 5.5
9 -2 -11 31.7 4
-9 -2 11 30.6 3.9
-9 2 11 31.5 4.8
-9 2 11 38.5 7
-9 2 11 27.2 4.1
-8 -2 11 133.99 4.9
-8 -2 11 154.08 9
-8 -2 11 144.49 9.1
-8 -2 11 147.69 8.3
-8 -2 11 142.19 11.5
-8 2 11 152.38 7.3
-8 2 11 158.78 19.3
-8 2 11 148.49 11
-8 2 11 142.89 8.3
-7 -2 11 142.19 11.9
7 -2 -11 135.89 6.9
-7 -2 11 138.89 5.5
-7 -2 11 120.89 12
-7 -2 11 148.69 10.3
-7 -2 11 140.59 8.5
-7 2 11 155.58 8.2
7 2 -11 141.79 5.5
-7 2 11 147.19 7.3
7 2 -11 138.49 5.5
-7 2 11 150.68 18.1
-7 2 11 144.39 9.8
-7 2 11 131.69 9.3
-6 -2 11 42.8 8.4
6 -2 -11 63.39 2.5
-6 -2 11 62.59 4.2
6 -2 -11 62.89 5.4
-6 -2 11 66.39 6.5
-6 2 11 63.29 13.2
-6 2 11 45.5 5.5
6 2 -11 53.89 6
-6 2 11 55.79 5
6 2 -11 61.19 4.4
-6 2 11 54.09 5.6
5 -2 -11 155.58 7.2
5 -2 -11 148.39 5.6
-5 -2 11 151.88 6.4
-5 -2 11 145.49 8.2
-5 2 11 161.58 18.2
-5 2 11 164.08 8
-5 2 11 145.29 8.3
5 2 -11 147.19 7.8
5 2 -11 165.38 17.7
-5 2 11 162.18 8.8
-5 2 11 157.28 7.1
5 2 -11 156.38 7
-4 -2 11 105.59 13.9
-4 -2 11 108.39 7
4 -2 -11 112.59 6.1
4 -2 -11 98.89 7.8
-4 -2 11 104.99 5.5
4 -2 -11 100.39 5.1
-4 2 11 111.89 7.4
-4 2 11 114.79 6.7
4 2 -11 99.79 8.2
4 2 -11 109.59 14.4
-4 2 11 112.09 7.1
4 2 -11 97.79 6.3
-4 2 11 65.99 12.6
-3 -2 11 746.83 30.9
3 -2 -11 749.23 20.7
-3 -2 11 763.92 22.6
3 -2 -11 784.92 21.6
3 -2 -11 746.83 22.9
3 -2 -11 780.32 22.2
-3 -2 11 736.13 21.1
-3 2 11 746.23 22.3
3 2 -11 768.82 33.9
-3 2 11 735.53 31.9
3 2 -11 750.22 21.6
-3 2 11 793.72 22.7
-3 2 11 757.72 21.7
3 2 -11 762.22 21.6
-2 -2 11 36.4 3.7
-2 -2 11 44.1 10.4
2 -2 -11 27.1 3.5
2 -2 -11 32.1 3.8
2 -2 -11 21.1 4
2 -2 -11 37.8 4.3
-2 -2 11 26.8 4.3
-2 2 11 33.5 4.4
2 2 -11 20.6 3.5
-2 2 11 37 4.1
-2 2 11 34.3 10.5
2 2 -11 30.8 3.9
-2 2 11 30.6 4.3
2 2 -11 32.8 12.4
1 -2 -11 41.3 4.8
-1 -2 11 46.6 5.3
-1 -2 11 40.2 11
1 -2 -11 56.69 5.3
1 -2 -11 51.39 4.5
1 -2 -11 41.9 5
-1 -2 11 39.9 4.5
-1 2 11 62.19 13.4
-1 2 11 41.7 4.5
1 2 -11 43.7 5.4
-1 2 11 48.1 4.9
-1 2 11 55.79 12.1
1 2 -11 58.19 5.5
-1 2 11 47.3 5.4
1 2 -11 42.6 2.6
1 2 -11 49.5 12
0 -2 11 4.8 3.1
0 -2 -11 11.6 2.8
0 -2 11 -12 9.6
0 -2 11 7.9 3.2
0 -2 -11 5.7 3
0 -2 -11 2.9 2.5
0 2 11 -0.1 2.3
0 2 11 5.7 2.5
0 2 -11 3.6 1.8
0 2 -11 -0.5 2.6
0 2 11 -1.2 10.5
0 2 -11 2.1 3
0 2 11 6.1 10.2
0 2 11 4.7 3.1
0 2 -11 11.6 13.4
1 -2 11 652.23 32.3
-1 -2 -11 670.73 19.7
-1 -2 -11 642.74 20.3
-1 -2 -11 677.83 19.9
1 -2 11 674.33 20.7
1 -2 11 662.23 19.9
-1 -2 -11 682.73 20.4
1 2 11 673.93 20.6
-1 2 -11 706.23 34.7
1 2 11 658.43 20
-1 2 -11 660.53 18.6
1 2 11 693.13 19.1
-1 2 -11 700.83 20.7
-1 2 -11 672.33 20.2
1 2 11 662.13 32.2
1 2 11 664.43 33.3
2 -2 11 103.09 7.4
-2 -2 -11 110.09 6.6
2 -2 11 108.79 6.9
-2 -2 -11 102.09 6.1
-2 -2 -11 114.99 7.3
2 -2 11 134.09 16.9
-2 -2 -11 105.69 7.8
-2 2 -11 109.29 7.4
2 2 11 123.99 18.2
2 2 11 106.69 7.6
2 2 11 111.79 5.5
-2 2 -11 114.99 17.9
-2 2 -11 106.89 7.2
-2 2 -11 103.69 6
2 2 11 107.99 17.5
2 2 11 114.09 7.3
-3 -2 -11 56.09 6
3 -2 11 47.2 5.8
3 -2 11 56.89 6.4
-3 -2 -11 56.29 5.1
3 -2 11 67.49 15.5
-3 -2 -11 58.09 6.7
-3 2 -11 57.59 5.5
3 2 11 28.4 13.4
3 2 11 53.49 3.9
3 2 11 57.49 6.7
-3 2 -11 53.09 5.7
3 2 11 49.2 15.4
-3 2 -11 52.89 16.9
-3 2 -11 59.19 6.2
-4 -2 -11 105.79 7.1
-4 -2 -11 119.09 8
4 -2 11 96.29 18.7
4 -2 11 111.09 5.7
4 -2 11 121.19 8.4
4 2 11 109.49 4.7
-4 2 -11 106.79 8
-4 2 -11 110.59 19.4
-4 2 -11 110.79 7.6
4 2 11 110.19 19.2
4 2 11 158.28 18.8
-5 -2 -11 183.48 9
5 -2 11 161.78 9.9
5 -2 11 170.28 7.1
5 -2 11 220.78 27.3
-5 -2 -11 175.78 9.9
-5 2 -11 178.48 25
5 2 11 178.68 20.9
-5 2 -11 182.48 9.9
-5 2 -11 184.38 9.8
5 2 11 165.08 5.2
5 2 11 171.28 23
-6 -2 -11 170.58 10.6
6 -2 11 153.88 7
-6 2 -11 187.98 26.3
-6 2 -11 161.18 10.4
6 2 11 145.29 22
-7 -2 -11 214.18 12.8
-7 -2 -11 197.18 10.6
-7 2 -11 174.98 11.2
-7 2 -11 192.58 12.8
-8 -2 -11 82.69 8.4
-8 -2 -11 82.49 9.4
-8 2 -11 78.49 8.6
-8 2 -11 67.99 8.8
-9 -2 -11 13 7.8
-9 -2 -11 8.6 5.2
-9 2 -11 16.1 7.9
-9 2 -11 -5.2 6.1
-10 -3 11 30.8 9.5
-10 -3 11 47 8.6
-10 3 11 29.9 5.2
-10 3 11 33.9 8.6
9 -3 -11 36.8 5
-9 -3 11 34.7 9.2
-9 -3 11 34.7 8.2
-9 3 11 35.7 7
-9 3 11 38.8 5.2
-8 -3 11 58.09 4
8 -3 -11 63.59 6.6
-8 -3 11 43.2 7.9
-8 -3 11 61.69 7.2
-8 3 11 63.69 7.3
-8 3 11 71.89 8.5
-8 3 11 91.19 9.5
-7 -3 11 76.19 7.8
-7 -3 11 73.99 4.6
7 -3 -11 71.99 6.2
-7 3 11 73.29 7.4
-7 3 11 102.49 10.7
7 3 -11 73.69 4.8
-7 3 11 62.09 6.3
7 3 -11 72.19 5.1
6 -3 -11 118.09 17.9
-6 -3 11 122.79 8.9
-6 -3 11 114.79 5.7
6 -3 -11 123.39 7
-6 -3 11 116.69 14.5
6 3 -11 125.99 6.7
6 3 -11 120.49 6.2
-6 3 11 115.19 18.2
-6 3 11 120.49 7.3
6 3 -11 107.19 16.1
-6 3 11 139.19 9.4
-6 3 11 113.19 8.9
-5 -3 11 147.69 9.4
-5 -3 11 141.19 6.4
5 -3 -11 142.99 5.4
5 -3 -11 117.59 19.8
5 -3 -11 146.39 7.7
5 3 -11 142.09 7.8
-5 3 11 140.49 9.2
-5 3 11 148.89 19.3
-5 3 11 130.49 9.3
5 3 -11 140.19 6.9
5 3 -11 133.19 18.1
-5 3 11 136.59 9.2
-5 3 11 136.19 7.6
4 -3 -11 1.5 3
4 -3 -11 -2.4 2.2
-4 -3 11 1.5 2.5
4 -3 -11 17 13.8
-4 -3 11 3.5 3.7
4 3 -11 6.4 3.6
-4 3 11 6.7 3.8
4 3 -11 -1.2 3.2
-4 3 11 6 3.7
-4 3 11 0.8 2.8
4 3 -11 8.1 13
-4 3 11 5.5 3.8
-4 3 11 10.5 13.6
3 -3 -11 377.76 14.2
3 -3 -11 398.36 13.3
3 -3 -11 373.36 12.3
-3 -3 11 337.37 22.6
-3 -3 11 391.16 12.7
3 -3 -11 432.86 28.9
-3 -3 11 372.26 14.1
3 -3 -11 372.16 14.8
-3 3 11 363.36 14.2
-3 3 11 404.26 14.1
3 3 -11 339.57 27.5
3 3 -11 374.96 13.4
3 3 -11 400.96 13.5
-3 3 11 372.46 25
-3 3 11 387.76 13.3
-3 3 11 391.66 13.9
2 -3 -11 65.79 6.9
-2 -3 11 74.79 14.1
-2 -3 11 63.49 7
-2 -3 11 69.99 5.8
2 -3 -11 64.29 6
2 -3 -11 63.69 7.4
2 -3 -11 82.99 6.1
2 -3 -11 99.79 17.5
-2 3 11 70.09 6.1
2 3 -11 64.09 15.5
2 3 -11 63.99 6.1
-2 3 11 67.69 6.2
-2 3 11 83.59 15.5
2 3 -11 74.29 6.4
-2 3 11 63.29 6.8
-1 -3 11 300.47 12.7
1 -3 -11 329.47 26.4
1 -3 -11 327.07 12.6
1 -3 -11 328.87 11.8
1 -3 -11 296.67 12.5
1 -3 -11 313.17 11.6
-1 -3 11 310.77 23.4
-1 -3 11 323.17 12.6
-1 3 11 324.07 12.7
-1 3 11 290.17 11.7
1 3 -11 308.47 8.7
1 3 -11 343.57 27.9
-1 3 11 301.57 23.1
1 3 -11 305.87 8.7
-1 3 11 304.87 11.5
1 3 -11 299.97 12.1
0 -3 -11 6.8 3.2
0 -3 11 -3.1 11.7
0 -3 -11 9.5 3.8
0 -3 11 12.7 3.8
0 -3 -11 1.4 3.2
0 -3 11 2.6 3
0 -3 -11 5 3.6
0 3 -11 6.4 2.1
0 3 -11 4.9 3.2
0 3 11 8.2 4
0 3 11 10.8 11.3
0 3 11 5.6 3.2
0 3 11 5.9 3
0 3 -11 1.6 14.7
1 -3 11 207.68 10.3
-1 -3 -11 215.08 10.5
-1 -3 -11 205.98 9.9
-1 -3 -11 213.38 9.4
1 -3 11 213.38 22
-1 -3 -11 214.38 10.5
1 -3 11 220.38 9.7
1 3 11 223.98 8.5
1 3 11 216.98 9.9
-1 3 -11 183.48 9.6
-1 3 -11 214.38 8.2
-1 3 -11 217.18 26.6
1 3 11 223.48 10.5
-1 3 -11 227.88 10.5
1 3 11 204.18 24.2
1 3 11 259.97 24.6
2 -3 11 8.2 4.2
2 -3 11 17.5 26.5
-2 -3 -11 0.6 4.2
-2 -3 -11 0.7 3.9
2 -3 11 6.3 3.3
-2 -3 -11 1.5 3.4
-2 -3 -11 -0.8 2.9
2 -3 11 0.2 3.6
2 3 11 7.1 15.2
-2 3 -11 7 2.7
2 3 11 0.2 2.3
-2 3 -11 1 16.6
-2 3 -11 0.8 3.6
2 3 11 4.5 14.1
3 -3 11 128.59 7.2
-3 -3 -11 127.49 7.4
3 -3 11 117.09 19.7
-3 -3 -11 118.59 7.5
-3 -3 -11 119.79 8.8
3 -3 11 124.09 9.1
-3 3 -11 119.49 7.6
-3 3 -11 151.08 22.7
-3 3 -11 122.29 8.7
3 3 11 105.99 18.5
3 3 11 126.79 6
3 3 11 105.89 19.4
-4 -3 -11 429.56 16.8
4 -3 11 431.16 16.3
4 -3 11 417.96 14
-4 -3 -11 430.56 15.2
-4 -3 -11 434.46 13.8
4 -3 11 384.66 32.3
4 3 11 400.86 31.7
-4 3 -11 422.26 34.7
-4 3 -11 443.46 16.5
4 3 11 413.16 34
4 3 11 430.86 12.5
-4 3 -11 457.25 15.5
5 -3 11 134.49 7.8
-5 -3 -11 132.29 12.1
5 -3 11 153.28 10.7
5 -3 11 144.49 23.4
-5 3 -11 151.28 9.6
5 3 11 132.39 20.9
-5 3 -11 121.39 23.3
5 3 11 140.19 5.4
6 -3 11 50.89 7.3
6 -3 11 33.7 4.9
-6 -3 -11 39.8 5.6
-6 -3 -11 27.9 6.8
-6 3 -11 40.3 6.7
-6 3 -11 41.8 6.9
-7 -3 -11 108.59 8.9
-7 -3 -11 102.59 11.5
-7 3 -11 106.39 12.1
-7 3 -11 112.19 11
-8 -3 -11 28.5 7.4
-8 -3 -11 18.3 5.6
-8 3 -11 25.4 8.2
-8 3 -11 19.2 6.9
-9 4 11 -5.9 6.4
8 -4 -11 17.4 5
-8 -4 11 13.5 7.2
-8 4 11 5.1 6.6
-8 4 11 11.9 5.1
7 -4 -11 29.4 5.5
-7 -4 11 31.5 7
-7 -4 11 25.6 5.2
-7 4 11 43.5 7.8
-7 4 11 19.9 4.8
-7 4 11 32.6 6.9
-6 -4 11 151.58 7.3
6 -4 -11 151.08 9.2
-6 -4 11 158.38 11.8
-6 4 11 137.59 11.9
6 4 -11 139.89 8.8
-6 4 11 153.08 10.9
-6 4 11 149.09 9.1
-5 -4 11 24.6 3.9
5 -4 -11 31.6 3.1
5 -4 -11 33.2 5
-5 -4 11 29.3 7.2
5 -4 -11 30.4 2.9
-5 4 11 24.1 5.6
5 4 -11 27 5.5
-5 4 11 29.1 5.2
-5 4 11 36.9 6.6
4 -4 -11 219.78 29.3
4 -4 -11 194.68 8.3
-4 -4 11 181.08 8.4
-4 -4 11 205.58 11.9
-4 -4 11 201.48 20.1
4 -4 -11 196.18 9.5
-4 4 11 174.68 21.6
4 4 -11 185.08 10.3
-4 4 11 189.28 9.8
-4 4 11 213.08 10.8
4 4 -11 163.88 24.3
-4 4 11 180.48 11.8
3 -4 -11 12.1 4.1
3 -4 -11 15.9 5.6
3 -4 -11 23.1 4.2
3 -4 -11 1.6 17.7
-3 -4 11 6 4.1
-3 -4 11 15.9 3.8
3 4 -11 14.3 18.6
-3 4 11 -0.4 4.9
-3 4 11 18.2 4.4
-3 4 11 -2.2 14.9
3 4 -11 13.8 4.2
-3 4 11 14.3 4.2
2 -4 -11 332.07 14.5
2 -4 -11 314.27 12.5
2 -4 -11 309.77 12.4
-2 -4 11 305.47 11.9
-2 -4 11 310.77 13.8
2 -4 -11 361.66 30.9
2 4 -11 311.97 31.9
2 4 -11 297.57 12.8
-2 4 11 323.67 12.7
-2 4 11 317.67 12.8
-2 4 11 308.47 27.4
1 -4 -11 -2.6 4.5
-1 -4 11 -8.4 3.2
1 -4 -11 3.2 4.3
-1 -4 11 4.7 13.9
1 -4 -11 2.9 3.5
-1 -4 11 -1.9 3.9
1 -4 -11 -2.9 18
-1 4 11 -4.8 16
1 4 -11 -2.5 3.9
1 4 -11 2.1 1.8
-1 4 11 4.1 3.8
-1 4 11 1 3.2
1 4 -11 -17.6 17
0 -4 -11 533.45 36.9
0 -4 11 469.15 17.5
0 -4 -11 447.86 17.2
0 -4 -11 470.85 16.2
0 -4 11 459.35 15.9
0 -4 11 446.26 30.4
0 -4 -11 468.15 17.7
0 4 -11 457.85 14
0 4 -11 470.55 17.3
0 4 11 464.15 32.5
0 4 -11 477.45 14.4
0 4 11 485.15 15.5
0 4 -11 432.16 37.7
0 4 11 494.65 16.3
1 -4 11 127.89 8.3
-1 -4 -11 120.89 9.6
1 -4 11 117.19 9.8
-1 -4 -11 119.29 9.6
-1 -4 -11 95.69 23.1
-1 -4 -11 120.79 8.1
-1 4 -11 116.89 9.1
1 4 11 125.49 7.3
-1 4 -11 168.08 26.5
1 4 11 131.39 8.2
1 4 11 140.99 21.5
2 -4 11 286.97 29.8
-2 -4 -11 285.57 14
2 -4 11 292.07 13.8
-2 -4 -11 258.57 12.6
-2 -4 -11 283.57 11.9
-2 4 -11 289.37 13.6
2 4 11 285.97 29.3
-2 4 -11 258.87 32.8
2 4 11 292.57 12
2 4 11 276.27 10.6
3 -4 11 23.9 6.1
3 -4 11 18.4 18.1
-3 -4 -11 32.9 5.6
-3 -4 -11 24.2 5.8
-3 -4 -11 27 7.9
-3 4 -11 19.5 5.9
3 4 11 11.2 17.8
3 4 11 22.8 3.8
-3 4 -11 10.9 24.7
3 4 11 30.3 4.9
-4 -4 -11 58.99 7.9
4 -4 11 38.9 7.7
4 -4 11 51.49 20.8
-4 -4 -11 37.5 5.5
-4 -4 -11 37 5.2
4 4 11 69.69 21.3
-4 4 -11 44.8 7.5
-4 4 -11 38.5 24.9
4 4 11 53.69 4.9
-5 -4 -11 1 4.7
-5 -4 -11 0.4 6.2
5 -4 11 1.6 6.3
-5 -4 -11 1.6 4.2
5 4 11 2.2 4.3
-5 4 -11 3.1 6.2
-5 4 -11 1 5.3
-6 -4 -11 49.8 6.7
-6 -4 -11 57.79 8.8
6 -4 11 36.7 8.1
6 4 11 45.4 5.8
-6 4 -11 44 8.2
-6 4 -11 51.69 8.7
-7 -4 -11 6.8 5.3
-7 -4 -11 5.4 6.9
7 -4 11 8.1 7.6
-7 4 -11 2.8 6.4
7 4 11 4.7 5.4
-7 4 -11 12.3 7.9
-7 -5 11 64.79 9.9
7 -5 -11 72.29 7.9
-7 5 11 59.79 8.7
-7 5 11 55.19 7.1
6 -5 -11 10.9 5.5
-6 -5 11 16.4 7.6
-6 5 11 9.5 6.5
-6 5 11 2.3 5.4
-5 -5 11 60.49 8.5
5 -5 -11 62.19 4.5
5 -5 -11 55.79 6.7
-5 5 11 45.2 7.3
5 5 -11 74.69 9.2
-5 5 11 55.59 7
4 -5 -11 7 2.9
4 -5 -11 1.3 4.9
-4 -5 11 4.5 4.4
-4 -5 11 4.9 6.3
4 5 -11 3 5.3
-4 5 11 -1.6 5.3
-4 5 11 4.9 5.1
-3 -5 11 150.68 12.7
-3 -5 11 133.29 9.8
3 -5 -11 158.18 10.6
3 -5 -11 139.69 10.3
-3 5 11 171.48 10.8
3 5 -11 153.48 11.3
-3 5 11 151.38 10.3
2 -5 -11 13.2 5.8
2 -5 -11 -3.6 23.4
2 -5 -11 24 6.3
2 -5 -11 17.2 6.1
-2 -5 11 11.4 6.3
-2 -5 11 12.3 5.1
-2 5 11 6.8 4.8
-2 5 11 6 20.6
2 5 -11 21.3 5.7
-2 5 11 11.1 5.5
-1 -5 11 132.29 9.1
1 -5 -11 129.79 28
-1 -5 11 137.99 11.9
1 -5 -11 124.19 11.9
-1 -5 11 81.29 19.5
1 -5 -11 120.99 12
1 5 -11 116.69 10.5
-1 5 11 112.59 13.6
-1 5 11 134.99 24
1 5 -11 141.19 6.2
1 5 -11 85.09 30
0 -5 -11 6.2 5
0 -5 11 24.5 6.7
0 -5 -11 22.2 7.6
0 -5 -11 -38 22.4
0 -5 11 34.1 30.7
0 5 -11 22.6 27
0 5 11 28.4 21.1
0 5 11 14.1 5.3
0 5 11 23.9 5.1
0 5 -11 12.9 3.7
0 5 -11 11.6 6.2
1 -5 11 127.39 12.2
-1 -5 -11 142.79 12.3
-1 -5 -11 154.68 30.3
-1 -5 -11 145.79 10.1
1 5 11 125.79 26.6
1 5 11 145.39 9.9
-1 5 -11 119.49 12.4
1 5 11 150.48 9
-1 5 -11 153.78 33
-1 5 -11 122.29 8.7
-2 -5 -11 -25 25.7
2 -5 11 16.7 22.8
-2 -5 -11 6.2 5.1
-2 -5 -11 8.1 6.2
2 -5 11 10.1 6.9
2 5 11 11.7 4
2 5 11 6.5 4.7
-2 5 -11 22.2 31
2 5 11 -16.6 21.7
-2 5 -11 5.6 4.9
-3 -5 -11 113.09 9.8
-3 -5 -11 103.89 12.3
3 -5 11 45.5 39.7
3 -5 11 89.29 9.8
3 5 11 85.79 9.2
3 5 11 107.29 7.4
-3 5 -11 66.19 33.6
-3 5 -11 109.79 12.7
-4 -5 -11 5.4 6.8
-4 -5 -11 9.4 5.7
4 -5 11 8.1 7.7
4 5 11 6.1 5.3
4 5 11 5.8 3.8
-4 5 -11 15.5 7.5
5 -5 11 21 8.6
-5 -5 -11 26.1 7.1
-5 -5 -11 21.9 6
-5 5 -11 25.9 9
5 5 11 29.3 5.8
4 -6 -11 47.7 8.3
-4 -6 11 43.3 9.7
4 6 -11 50.09 15.2
-4 6 11 57.19 8.2
-4 6 11 52.39 8.1
-3 -6 11 -11.4 6.9
3 -6 -11 4.6 4.4
3 -6 -11 5.4 6.8
-3 6 11 0.8 6
3 6 -11 3.5 7.6
-3 6 11 -3.6 6.7
-2 -6 11 53.69 10
2 -6 -11 66.59 6.2
2 -6 -11 56.29 8.4
-2 6 11 46.6 7.7
-2 6 11 60.69 8.5
2 6 -11 56.39 9.1
-1 -6 11 -6.9 7.9
1 -6 -11 -6.7 4.4
1 -6 -11 6.8 8
1 -6 -11 -2.8 6.2
-1 6 11 -3.3 6.3
1 6 -11 -1.2 7.2
-1 6 11 4.1 6
0 -6 -11 61.59 8.3
0 -6 -11 76.29 10.1
0 -6 11 61.19 9.6
0 6 11 71.19 7.9
0 6 11 65.69 8.4
0 6 -11 69.79 12.6
1 -6 11 5.9 8.5
-1 -6 -11 1.4 8.3
-1 -6 -11 12.6 6.4
1 6 11 17.5 7.2
-1 6 -11 10.1 8.6
1 6 11 11.1 6.1
-2 -6 -11 5 6.1
-2 -6 -11 15.9 7.8
2 -6 11 17 9.1
2 6 11 23.1 6.1
-2 6 -11 26.3 9.8
2 6 11 15.6 7.1
-11 0 12 -10.9 7.3
-10 0 12 119.19 12.3
-10 0 12 122.39 7.4
-9 0 12 2.2 5.5
-9 0 12 0.7 3.1
-9 0 12 -3.7 7.5
-9 0 12 0 2
-9 0 12 1.5 2.5
9 0 -12 1.7 1.8
-9 0 12 3.3 4.5
-8 0 12 205.28 8
-8 0 12 200.68 9.3
-8 0 12 205.38 15.4
-8 0 12 176.08 16.2
-8 0 12 214.58 7.5
-8 0 12 240.98 12.3
-8 0 12 211.88 8.6
-7 0 12 10.4 8.4
-7 0 12 3 2.7
-7 0 12 0 2.6
7 0 -12 3.5 2.3
-7 0 12 0 4
-7 0 12 -1.9 2.5
7 0 -12 2.1 2.1
-7 0 12 -2.6 8
-6 0 12 265.07 12.1
6 0 -12 271.07 9.1
-6 0 12 224.18 17.4
6 0 -12 257.57 9
-6 0 12 259.77 9.6
-6 0 12 251.77 9.4
-5 0 12 -1.5 3.2
5 0 -12 8.1 2.5
-5 0 12 2.1 1.9
-5 0 12 -21.6 8.4
-5 0 12 -0.3 2.8
5 0 -12 1.8 2.7
-5 0 12 -1.1 7.9
-5 0 12 -0.9 2.4
-4 0 12 843.62 23.5
-4 0 12 853.51 25.3
4 0 -12 824.82 23.1
-4 0 12 882.71 23.6
-4 0 12 809.32 32.8
-4 0 12 822.92 22
4 0 -12 882.61 23
-4 0 12 815.62 34.1
-3 0 12 5.3 8.3
3 0 -12 0.4 2.3
-3 0 12 2 3.1
-3 0 12 -0.5 1.6
3 0 -12 -0.7 2.3
-3 0 12 -8.3 8.8
-3 0 12 1.8 2.4
-3 0 12 1.5 2.9
3 0 -12 1.8 1.7
-2 0 12 654.23 19.1
2 0 -12 654.83 19
-2 0 12 613.94 28.8
-2 0 12 609.94 29.7
2 0 -12 676.83 17.9
-2 0 12 646.04 17.7
-2 0 12 652.13 19.2
-2 0 12 668.23 20
-1 0 12 1.7 1.7
1 0 -12 2.1 2.1
-1 0 12 7.5 9.3
1 0 -12 8.4 2
-1 0 12 -0.7 2.5
-1 0 12 -1.7 2.4
-1 0 12 -2.7 2.6
1 0 -12 3.8 2.6
0 0 12 1476.65 39.5
0 0 12 1567.74 39.9
0 0 12 1532.35 53.09
0 0 -12 1512.75 39.6
0 0 12 1454.85 38.4
0 0 -12 1500.05 38.6
0 0 12 1512.45 40.1
0 0 -12 1500.15 39.6
1 0 12 6.9 2.4
-1 0 -12 0 3.2
1 0 12 -4.4 2
1 0 12 5.1 10.8
1 0 12 -2 2.8
-1 0 -12 2.9 2
-1 0 -12 -13.5 10.7
1 0 12 -3.2 2.4
-1 0 -12 1.9 2.5
-2 0 -12 700.63 21.3
2 0 12 741.63 20.4
2 0 12 706.53 34.6
-2 0 -12 716.13 33.6
2 0 12 717.23 21.6
2 0 12 714.53 20.8
-2 0 -12 707.83 20.8
-3 0 -12 -4.2 12.7
-3 0 -12 -1.1 2.4
-3 0 -12 0.1 5.1
3 0 12 2.5 2
3 0 12 -3.3 3.3
3 0 12 16.6 13.4
-3 0 -12 1.5 2.8
-4 0 -12 250.27 11
-4 0 -12 253.47 25.7
4 0 12 293.67 26
-4 0 -12 262.47 11
4 0 12 251.07 8.5
-5 0 -12 10.7 14.4
5 0 12 -24.9 14.3
5 0 12 1 1.4
-5 0 -12 -3 3.3
-5 0 -12 2.4 3.6
-6 0 -12 90.09 21.9
-6 0 -12 93.39 9.1
-6 0 -12 78.89 8.6
-7 0 -12 4.3 5.9
-7 0 -12 -0.7 4.6
-8 0 -12 35.8 7.9
-8 0 -12 35 6
-9 0 -12 3.1 5.6
-9 0 -12 -8.7 6.7
-10 -1 12 8 3.7
-10 -1 12 15.8 7.1
-10 -1 12 10.3 5.4
-10 1 12 6.8 6.4
-10 1 12 9.7 2.9
-9 -1 12 37.1 4.6
-9 -1 12 40.1 5.4
-9 -1 12 35.9 3.8
-9 -1 12 36.4 7.2
-9 1 12 56.89 11.5
-9 1 12 48 7
-9 1 12 43.9 4.5
-9 1 12 45.2 7.2
-9 1 12 41.1 3.9
-8 -1 12 16.8 7.2
-8 -1 12 15.4 2.7
-8 -1 12 17.6 2.8
-8 -1 12 9.8 5.4
-8 -1 12 28 7.3
8 -1 -12 12.1 2.7
-8 -1 12 19.2 2.6
-8 -1 12 11.9 3.9
-8 1 12 13.1 5.5
8 1 -12 17.3 2.1
-8 1 12 15.4 2.9
-8 1 12 7.6 10.3
-8 1 12 17.3 4.9
-8 1 12 14.8 3.7
7 -1 -12 209.68 8.1
-7 -1 12 194.38 6.4
-7 -1 12 191.28 9.2
-7 -1 12 202.68 7.5
-7 -1 12 175.18 14.9
-7 -1 12 188.48 11.3
-7 -1 12 189.98 6.4
-7 -1 12 222.48 15.4
7 1 -12 195.28 8.5
-7 1 12 204.88 8
-7 1 12 203.08 18.3
-7 1 12 205.08 11.3
-7 1 12 214.48 8.9
-7 1 12 186.08 9.5
-6 -1 12 21.2 3
-6 -1 12 21.5 4
-6 -1 12 19.4 4.9
6 -1 -12 21.4 3.3
-6 -1 12 19.7 2.1
6 -1 -12 22.4 2.6
-6 -1 12 23.1 8.8
-6 1 12 22.2 10.3
-6 1 12 21.3 2.9
6 1 -12 25.3 3.7
-6 1 12 20.8 3.7
6 1 -12 22.3 2.9
-6 1 12 18.2 4.5
5 -1 -12 272.67 10.4
-5 -1 12 256.97 18.4
5 -1 -12 304.97 10.4
-5 -1 12 303.77 12.8
-5 -1 12 289.97 10.1
-5 -1 12 310.27 11.4
-5 1 12 292.37 10.5
-5 1 12 290.37 19.9
-5 1 12 308.67 12.4
-5 1 12 297.17 9.6
-5 1 12 314.27 11.1
5 1 -12 286.67 10.4
-5 1 12 290.87 22.6
5 1 -12 297.47 10.3
4 -1 -12 28.8 3.3
-4 -1 12 23.3 9.4
-4 -1 12 28.8 4.5
-4 -1 12 23.9 3.2
-4 -1 12 22 3.7
4 -1 -12 20.9 3
-4 1 12 20.4 11.5
-4 1 12 25.1 3.1
-4 1 12 22.7 4.1
4 1 -12 22.8 3.6
4 1 -12 24.5 3.5
-4 1 12 21.3 10.6
-4 1 12 27.3 3.9
-4 1 12 32.9 4
-3 -1 12 269.67 10.7
3 -1 -12 255.77 9.5
-3 -1 12 228.88 19.2
-3 -1 12 265.87 11
-3 -1 12 246.18 7.2
3 -1 -12 260.77 9.5
3 -1 -12 255.77 9.7
-3 -1 12 265.47 9.9
-3 1 12 223.48 21.7
-3 1 12 249.28 10.7
3 1 -12 273.17 10
-3 1 12 257.77 19.4
3 1 -12 265.87 9.8
-3 1 12 269.37 10.4
3 1 -12 271.07 20.9
-3 1 12 264.97 9.3
2 -1 -12 132.19 6.6
-2 -1 12 139.59 6.9
-2 -1 12 132.29 7.3
2 -1 -12 134.89 6.8
2 -1 -12 130.29 6.9
-2 -1 12 135.79 17.3
2 1 -12 138.49 5
-2 1 12 131.29 6.3
2 1 -12 150.68 17.3
2 1 -12 114.39 6.6
-2 1 12 135.19 17.2
2 1 -12 138.79 7.2
-2 1 12 140.29 15.1
-2 1 12 141.09 7.6
-2 1 12 135.99 7.6
-1 -1 12 1791.22 58.99
1 -1 -12 1823.32 45.9
1 -1 -12 1799.72 46.2
1 -1 -12 1836.02 46.5
-1 -1 12 1776.42 46.3
-1 -1 12 1821.02 46.9
1 1 -12 1788.72 59.99
-1 1 12 1778.12 46.6
1 1 -12 1720.73 44.2
1 1 -12 1842.32 46.4
-1 1 12 1792.42 58.39
-1 1 12 1850.91 61.09
-1 1 12 1774.72 45.6
1 1 -12 1725.53 46.4
0 -1 12 102.79 15.6
0 -1 12 100.69 6.9
0 -1 -12 90.09 5.7
0 -1 -12 85.99 6
0 -1 -12 92.89 6.7
0 -1 12 84.59 6.8
0 1 -12 86.19 6.1
0 1 12 90.99 6.7
0 1 12 105.19 14.1
0 1 -12 89.79 16.3
0 1 -12 90.19 4.6
0 1 -12 87.39 6.7
0 1 12 86.19 15.3
0 1 12 85.69 5.8
-1 -1 -12 378.36 12.9
-1 -1 -12 357.26 12.5
1 -1 12 343.97 12.7
1 -1 12 376.06 13.3
1 -1 12 359.36 24.8
-1 -1 -12 354.06 13
1 1 12 385.66 26.3
-1 1 -12 347.17 11.6
1 1 12 364.86 12.4
-1 1 -12 334.67 12.9
1 1 12 366.46 12
1 1 12 390.66 25.1
1 1 12 369.76 13.1
-1 1 -12 364.56 13.1
-1 1 -12 399.76 26.3
2 -1 12 40.9 5.3
2 -1 12 20.1 12.3
-2 -1 -12 32.6 4.3
-2 -1 -12 31.8 4.2
2 -1 12 33.1 4.6
-2 -1 -12 44.3 5.5
2 1 12 29.1 4
-2 1 -12 23.8 13.3
2 1 12 42.9 5.1
2 1 12 32.1 4.1
-2 1 -12 30.8 3.5
-2 1 -12 27.5 4.2
2 1 12 46.4 14.3
-2 1 -12 28.7 4.5
2 1 12 28.7 13.3
3 -1 12 582.04 18.8
-3 -1 -12 573.84 18.4
3 -1 12 518.05 32
-3 -1 -12 598.24 18.7
-3 1 -12 607.64 33.3
-3 1 -12 603.14 18.3
3 1 12 637.24 34.4
3 1 12 586.64 18.8
3 1 12 578.44 33.2
-3 1 -12 599.14 19
3 1 12 568.54 16.3
3 1 12 585.54 18.9
4 -1 12 19.9 14.8
-4 -1 -12 11.9 3.9
-4 -1 -12 6.3 3.3
4 1 12 10.2 4.7
4 1 12 11.5 1.9
4 1 12 18.5 15.6
-4 1 -12 -9.9 13.9
-4 1 -12 7 4
4 1 12 15.1 15.3
-4 1 -12 7.5 3.2
-5 -1 -12 246.28 11.6
5 -1 12 267.27 28.1
5 -1 12 220.08 8.3
-5 -1 -12 216.18 10.3
5 -1 12 201.38 7.2
-5 1 -12 179.48 23.8
-5 1 -12 223.38 11
5 1 12 254.57 27.9
5 1 12 298.87 30
5 1 12 225.38 6.4
-5 1 -12 218.98 10.8
6 -1 12 16.1 2.4
6 -1 12 14.6 2.9
-6 -1 -12 22.6 9.7
-6 1 -12 14.5 5.8
-6 1 -12 20.4 20.9
6 1 12 18.7 18.7
-6 1 -12 13.6 4.9
-7 -1 -12 85.49 8.6
-7 -1 -12 105.89 11.2
-7 1 -12 84.19 9.7
-7 1 -12 84.39 8.9
-8 -1 -12 11.9 5.2
-8 -1 -12 8.2 6.7
-8 1 -12 9 5.9
-8 1 -12 16.2 7
-10 -2 12 40.9 6.5
-10 -2 12 44.5 9
-10 2 12 37.9 4.7
-10 2 12 45.1 7.7
-9 -2 12 17.4 6.9
9 -2 -12 19.6 3.9
-9 -2 12 22.1 5.6
-9 2 12 12.2 6.1
-9 2 12 11.6 6.1
-8 -2 12 81.09 8.4
-8 -2 12 78.39 13.7
-8 -2 12 61.29 8.6
8 -2 -12 68.49 6.5
-8 -2 12 63.49 4
-8 2 12 59.49 5.9
-8 2 12 71.19 7.7
-8 2 12 64.89 8.1
-7 -2 12 150.78 17.1
7 -2 -12 183.58 8.2
-7 -2 12 179.68 11.6
-7 -2 12 163.38 6.6
-7 -2 12 165.58 9.7
-7 -2 12 162.58 14.2
-7 2 12 173.28 8.1
-7 2 12 180.38 11
-7 2 12 205.78 21.3
-7 2 12 179.38 10.6
-7 2 12 140.09 10.3
-6 -2 12 41.8 6.8
-6 -2 12 44.5 4.3
6 -2 -12 46.5 5
6 -2 -12 45 3.1
-6 -2 12 42.4 5.2
-6 2 12 42.1 5.4
-6 2 12 42.8 5.1
-6 2 12 42.1 12.8
-6 2 12 42.4 5.9
6 2 -12 50.29 5.2
-6 2 12 43.3 5
6 2 -12 47.6 4.7
-5 -2 12 80.59 7.4
5 -2 -12 85.69 5.9
5 -2 -12 86.09 4.6
-5 -2 12 90.09 5.3
-5 2 12 75.79 7.3
-5 2 12 87.09 5.9
-5 2 12 66.39 6.6
-5 2 12 70.99 16
5 2 -12 87.59 7.2
5 2 -12 81.39 13.5
-5 2 12 88.99 7.2
-5 2 12 91.49 15.4
5 2 -12 75.19 5.7
4 -2 -12 428.56 13.7
-4 -2 12 419.66 13.2
-4 -2 12 419.06 14.7
-4 -2 12 419.96 23.2
4 -2 -12 340.97 14.9
4 -2 -12 438.96 12.8
4 2 -12 433.56 25.6
4 2 -12 422.16 13.9
4 2 -12 419.36 13.8
-4 2 12 434.56 15.1
-4 2 12 414.16 14.5
-4 2 12 408.86 28.9
-4 2 12 398.86 14
-4 2 12 375.66 24
-3 -2 12 63.39 12.4
3 -2 -12 87.89 5.8
-3 -2 12 80.59 6.3
3 -2 -12 80.19 5.6
-3 -2 12 86.39 7
3 -2 -12 76.89 7.3
3 -2 -12 85.39 6.3
-3 2 12 92.59 16.5
3 2 -12 80.99 6.5
-3 2 12 72.59 8.4
-3 2 12 70.49 6.7
-3 2 12 80.79 5.9
-3 2 12 79.69 13.5
3 2 -12 79.59 6.3
3 2 -12 67.29 15.3
-2 -2 12 147.19 7.3
2 -2 -12 163.18 8.8
-2 -2 12 155.28 8.4
2 -2 -12 143.19 7.4
2 -2 -12 152.38 8
2 -2 -12 156.48 7.6
-2 -2 12 140.39 18.1
-2 2 12 147.99 8.1
-2 2 12 160.48 18.7
2 2 -12 137.39 7.9
-2 2 12 173.48 20.9
2 2 -12 159.88 8.2
-2 2 12 154.48 7.7
-2 2 12 138.19 8.4
2 2 -12 127.99 17.7
-1 -2 12 102.29 15.7
-1 -2 12 112.79 7.4
1 -2 -12 119.09 7.2
1 -2 -12 125.09 6.7
1 -2 -12 110.19 7.5
-1 -2 12 125.19 7
1 -2 -12 121.89 7.4
-1 2 12 120.79 16.2
1 2 -12 143.49 19.4
-1 2 12 109.19 7.6
1 2 -12 110.99 4.4
1 2 -12 114.69 7
1 2 -12 110.49 7.4
-1 2 12 142.49 19
-1 2 12 113.19 7.3
-1 2 12 107.69 6.7
0 -2 -12 8.6 2.8
0 -2 -12 4.9 3.4
0 -2 12 11.3 3.6
0 -2 12 12.7 11.5
0 -2 -12 6.7 3.3
0 -2 12 14.9 3.5
0 -2 -12 9.6 3.2
0 2 -12 6 3.3
0 2 12 1.3 10.3
0 2 12 14.4 12.4
0 2 12 10.8 3.6
0 2 12 16.4 3.2
0 2 -12 19.7 14.6
0 2 12 13.2 3.4
0 2 -12 10.7 2
0 2 -12 9.9 3.3
1 -2 12 46.3 5
1 -2 12 53.89 6.4
-1 -2 -12 47.8 5.3
1 -2 12 49.8 16.6
-1 -2 -12 50.09 5.5
-1 -2 -12 52.39 6.2
-1 2 -12 62.49 18.7
-1 2 -12 36.7 4.8
-1 2 -12 53.89 6.2
1 2 12 60.99 6
1 2 12 62.59 14.3
-1 2 -12 44.4 3.9
1 2 12 62.29 6.6
1 2 12 59.69 15.7
1 2 12 51.49 4.7
-2 -2 -12 307.97 13.2
-2 -2 -12 318.07 12
2 -2 12 337.47 25.5
2 -2 12 325.97 12.9
2 -2 12 311.67 12.1
-2 -2 -12 307.87 12.3
2 2 12 336.87 10.7
-2 2 -12 288.87 28.4
-2 2 -12 321.57 12.8
2 2 12 322.07 12.6
-2 2 -12 331.77 11.2
2 2 12 292.37 26.6
2 2 12 325.67 26.9
2 2 12 304.37 12.8
3 -2 12 67.19 16.5
3 -2 12 70.19 7.3
-3 -2 -12 59.39 6
-3 -2 -12 60.19 7.1
-3 2 -12 92.99 18.3
-3 2 -12 60.99 6.7
-3 2 -12 64.09 6.3
3 2 12 58.99 16.8
3 2 12 57.39 4.3
3 2 12 35.2 15.8
-4 -2 -12 62.49 7.4
-4 -2 -12 64.89 6.3
4 -2 12 74.19 19
4 -2 12 63.29 7.1
-4 2 -12 61.89 19
-4 2 -12 61.39 7.2
4 2 12 85.89 18
4 2 12 58.39 3.9
4 2 12 48.5 18.4
-4 2 -12 62.69 6.5
-5 -2 -12 45.4 5.5
5 -2 12 70.19 19.9
-5 -2 -12 49.9 6.4
5 -2 12 58.39 5
5 -2 12 55.79 6.6
-5 2 -12 50.09 6.5
5 2 12 53.99 22.3
5 2 12 38.2 17.5
-5 2 -12 44.4 6
-5 2 -12 67.89 20.2
5 2 12 45.5 3.4
6 -2 12 182.28 8
-6 -2 -12 196.08 10.6
-6 -2 -12 226.28 12.4
-6 2 -12 193.38 12
-6 2 -12 202.18 12.2
-7 -2 -12 24.2 7.2
-7 -2 -12 22.5 5.6
-7 2 -12 24.2 6.5
-7 2 -12 33.1 7.5
-8 -2 -12 30.6 8
-8 -2 -12 12.6 5.8
-8 2 -12 17.7 7.8
-8 2 -12 15 7
-9 -3 12 28.4 8.3
-9 -3 12 24.4 7.3
-9 3 12 26.6 5.1
-9 3 12 20.8 7.6
-8 -3 12 58.29 7.3
-8 -3 12 50.69 4.2
-8 -3 12 63.79 8.7
8 -3 -12 49.2 5.8
-8 -3 12 58.29 10
-8 3 12 67.99 8.3
-8 3 12 50.09 5.8
-7 -3 12 134.09 6.2
-7 -3 12 149.99 11.2
7 -3 -12 145.09 8.1
-7 3 12 153.38 8.7
-7 3 12 156.58 11.3
7 3 -12 131.89 6.5
-7 3 12 145.09 10.8
6 -3 -12 99.09 6.9
-6 -3 12 99.59 5.8
-6 -3 12 98.49 9.4
-6 3 12 71.39 8.6
-6 3 12 99.99 7.4
6 3 -12 92.79 6.6
6 3 -12 97.59 6.8
5 -3 -12 98.69 6.8
-5 -3 12 104.99 8.8
5 -3 -12 107.59 19.8
-5 -3 12 90.59 5.8
5 -3 -12 98.89 5.1
-5 3 12 84.39 8.8
-5 3 12 95.49 8.4
-5 3 12 103.29 18.2
-5 3 12 92.19 6.9
5 3 -12 79.29 16.8
4 -3 -12 227.78 26.8
-4 -3 12 225.58 9.2
4 -3 -12 219.58 9.7
-4 -3 12 233.38 11.5
4 -3 -12 219.88 8.4
4 3 -12 235.18 25.7
-4 3 12 207.48 9.4
-4 3 12 204.08 10.6
-4 3 12 191.38 24.7
4 3 -12 215.58 9.8
-4 3 12 210.18 11
-4 3 12 186.18 10.4
3 -3 -12 28.1 5.1
-3 -3 12 25.7 4.9
3 -3 -12 28.5 4
3 -3 -12 28.1 4.3
3 -3 -12 25.9 16.2
-3 -3 12 23.2 3.9
-3 -3 12 26.8 11.6
-3 3 12 23 4.3
-3 3 12 35.2 14.1
-3 3 12 23.7 4.9
3 3 -12 26.6 15.6
3 3 -12 26.6 4.1
-3 3 12 25 3.9
-3 3 12 27 4.8
2 -3 -12 305.27 11.7
2 -3 -12 293.17 11.6
-2 -3 12 309.57 13
-2 -3 12 296.77 23.3
2 -3 -12 305.37 12.7
-2 -3 12 298.47 11.4
2 -3 -12 298.87 13.1
2 3 -12 289.07 12.1
-2 3 12 283.17 24
-2 3 12 310.97 12
2 3 -12 328.17 28.5
-2 3 12 274.07 12.7
-2 3 12 278.07 11.8
-1 -3 12 82.69 16.7
-1 -3 12 86.09 7.9
1 -3 -12 85.49 6.3
-1 -3 12 85.69 6.8
1 -3 -12 70.19 7.1
1 -3 -12 81.99 7.4
1 -3 -12 72.29 8.1
1 3 -12 81.79 7.1
1 3 -12 80.59 3.5
1 3 -12 72.69 17.6
1 3 -12 75.89 3.4
-1 3 12 62.49 15.1
-1 3 12 76.09 6.3
-1 3 12 71.39 6.7
-1 3 12 66.29 7.8
0 -3 12 221.48 10.1
0 -3 -12 236.38 11.1
0 -3 12 211.78 23.5
0 -3 -12 240.78 11.2
0 -3 -12 229.28 10.1
0 -3 -12 240.18 11.1
0 -3 12 228.78 11.4
0 3 -12 226.48 7.9
0 3 12 224.68 11.2
0 3 -12 221.78 28.5
0 3 -12 236.48 11.1
0 3 12 210.08 11
0 3 12 245.68 9.9
0 3 12 218.88 27.2
0 3 12 237.88 24.8
1 -3 12 2.5 13.7
-1 -3 -12 3.3 3.4
-1 -3 -12 12.6 4
1 -3 12 -1.2 3.8
1 -3 12 3.7 3.6
-1 -3 -12 8.4 4.4
-1 -3 -12 0.7 4.8
1 3 12 2.2 3
-1 3 -12 22.1 18.3
1 3 12 18.1 13.8
-1 3 -12 2.6 3.8
-1 3 -12 1.9 2.3
1 3 12 8.1 16.3
2 -3 12 103.19 8.7
-2 -3 -12 79.19 8.2
-2 -3 -12 84.29 7.4
-2 -3 -12 94.39 7.3
2 -3 12 98.09 18.7
-2 3 -12 87.99 8.2
-2 3 -12 114.49 23
-2 3 -12 92.89 6.3
2 3 12 113.89 21.7
2 3 12 80.69 17
2 3 12 89.29 5.9
3 -3 12 -33 29
-3 -3 -12 -1 4.1
3 -3 12 8.5 3.6
-3 -3 -12 7.5 4.6
3 -3 12 -1.2 4.6
-3 -3 -12 1.9 3.6
-3 3 -12 9.1 20.1
3 3 12 -17.4 15.3
3 3 12 7.2 18.4
-3 3 -12 1.6 3.3
-3 3 -12 2.4 4.9
3 3 12 -0.5 2.5
4 -3 12 206.98 9.6
4 -3 12 180.68 25.9
-4 -3 -12 203.18 19.1
4 -3 12 224.58 12.5
-4 3 -12 226.48 12.4
4 3 12 195.68 24
4 3 12 213.58 7.7
-4 3 -12 219.88 10.7
-4 3 -12 239.98 30.7
5 -3 12 75.29 7.3
-5 -3 -12 63.49 7.6
-5 -3 -12 73.69 8.1
5 3 12 90.79 37.8
5 3 12 74.89 4.2
-5 3 -12 60.49 7.7
-5 3 -12 70.49 8.8
-6 -3 -12 108.29 11.7
6 -3 12 125.09 11.7
-6 -3 -12 114.39 9.4
-6 3 -12 92.99 11.6
-6 3 -12 118.69 12.4
-7 -3 -12 0 5.1
-7 -3 -12 2.7 6.7
-7 3 -12 -2.3 6.2
-7 3 -12 11.4 7.5
-8 -4 12 10.2 7.7
8 -4 -12 3.6 5.4
-8 4 12 -3.6 5.7
-8 4 12 6.2 5.3
-7 -4 12 30.7 7.9
7 -4 -12 38.1 5.9
-7 4 12 35.2 5.9
-7 4 12 43.7 7.9
-6 -4 12 1.1 6
-6 -4 12 8.9 3.5
6 -4 -12 0.9 4.4
-6 4 12 1.3 4.7
-6 4 12 -15.1 6.7
6 4 -12 1.2 4.5
-6 4 12 7.9 5.9
-5 -4 12 84.49 9.2
5 -4 -12 72.29 7.2
-5 -4 12 84.39 6.5
5 -4 -12 83.39 5.5
5 -4 -12 81.59 4.2
5 4 -12 75.39 7.7
-5 4 12 77.29 9.4
-5 4 12 78.99 8.7
-5 4 12 99.29 8.1
4 -4 -12 31.1 4.4
-4 -4 12 27 4.3
4 -4 -12 35.5 5.1
-4 4 12 30.2 5.2
4 4 -12 32 4.8
-4 4 12 26.3 6.6
-4 4 12 33.3 6.4
-4 4 12 3.1 20
-3 -4 12 246.48 10.8
3 -4 -12 246.58 32.6
3 -4 -12 233.98 13.3
-3 -4 12 224.18 24.8
3 -4 -12 257.57 11.6
-3 -4 12 253.37 13.2
3 -4 -12 233.68 12.6
3 4 -12 248.08 11.6
-3 4 12 254.47 12.1
3 4 -12 258.57 32.2
-3 4 12 253.37 12.3
-3 4 12 249.97 28.5
2 -4 -12 -1.4 4.4
-2 -4 12 -0.3 4.9
2 -4 -12 -3.6 19.8
2 -4 -12 5.9 5.1
-2 -4 12 -2.6 3.8
2 -4 -12 2.2 3.8
-2 4 12 1.8 4.2
-2 4 12 -1.7 17
2 4 -12 2.9 4.1
-2 4 12 -0.9 3.6
2 4 -12 24.7 21
1 -4 -12 199.78 10.1
1 -4 -12 202.88 12.3
-1 -4 12 190.28 9.9
-1 -4 12 205.78 12.2
1 -4 -12 180.78 29.4
1 -4 -12 195.58 11.5
-1 4 12 159.48 29.5
-1 4 12 195.68 10.1
1 4 -12 195.78 6.5
1 4 -12 202.48 25.9
1 4 -12 202.58 6.5
1 4 -12 199.38 11.7
-1 4 12 207.08 10.3
0 -4 12 10 4.4
0 -4 -12 14.2 4.6
0 -4 -12 6.2 5
0 -4 12 1.2 16.6
0 -4 12 9.7 5.8
0 -4 -12 -17.6 17.7
0 -4 -12 -1.2 5
0 4 -12 4.5 5
0 4 12 11.1 3.9
0 4 -12 9.3 3
0 4 -12 8.6 2.9
0 4 -12 19.3 20.8
0 4 12 13.5 4.4
0 4 12 -7.2 16.2
1 -4 12 706.13 39.7
-1 -4 -12 643.94 20.9
-1 -4 -12 584.84 21.4
1 -4 12 670.03 23.2
-1 -4 -12 646.74 23.1
-1 4 -12 609.84 45.5
-1 4 -12 636.94 19
1 4 12 672.03 19.8
1 4 12 686.03 39.9
1 4 12 690.33 21.1
-1 4 -12 668.53 22.7
-2 -4 -12 125.29 9.9
-2 -4 -12 130.49 11.4
2 -4 12 156.88 17.9
-2 -4 -12 127.39 10.4
-2 4 -12 119.69 27.2
-2 4 -12 131.39 10.9
2 4 12 128.79 7.6
-2 4 -12 129.09 8.1
2 4 12 172.28 27.9
2 4 12 127.59 22.8
-3 -4 -12 127.39 11.5
-3 -4 -12 135.39 9.1
3 -4 12 205.08 27.5
3 -4 12 152.68 12.7
-3 -4 -12 123.19 10.6
3 4 12 90.99 23.7
-3 4 -12 173.98 29.8
-3 4 -12 156.58 9.1
3 4 12 139.79 7.6
4 -4 12 21.8 7.1
-4 -4 -12 3.7 5.3
-4 -4 -12 7.4 6.3
-4 -4 -12 9.5 4.6
4 4 12 1.4 3
-4 4 -12 -4.9 6.4
-4 4 -12 4.3 31.2
-4 4 -12 -5.4 4.7
5 -4 12 126.19 12.9
-5 -4 -12 128.59 9.5
-5 -4 -12 121.19 12.8
-5 4 -12 123.99 11.1
-5 4 -12 124.49 13.6
-6 -4 -12 1 4.9
-6 -4 -12 2.3 7
6 -4 12 4.9 7.4
-6 4 -12 -1.9 6.9
-6 4 -12 2.8 7.4
6 -5 -12 80.79 9.9
-6 -5 12 80.79 11.4
-6 5 12 105.89 11.8
-6 5 12 70.79 7.6
-5 -5 12 -11.2 7.2
5 -5 -12 -4 5.3
-5 5 12 3 6.5
-5 5 12 -3.3 5.1
5 5 -12 3.3 5.7
4 -5 -12 63.99 7.9
-4 -5 12 46.7 7.7
4 -5 -12 51.29 5.4
-4 5 12 50.09 7.5
4 5 -12 75.59 9.3
-4 5 12 59.59 7.5
-3 -5 12 3.3 5.1
-3 -5 12 -3.8 5.9
-3 5 12 4 5.2
-3 5 12 -3.6 5.2
3 5 -12 6.7 6.1
-2 -5 12 175.58 13.7
-2 -5 12 174.28 11
2 -5 -12 161.98 14
2 -5 -12 149.19 12.2
2 -5 -12 166.58 11.3
-2 5 12 171.08 11.1
-2 5 12 186.98 11.4
2 5 -12 179.88 12.6
1 -5 -12 34 7.8
1 -5 -12 46.2 6.9
1 -5 -12 -12 26.4
-1 -5 12 50.99 8.7
-1 5 12 42.6 6.4
1 5 -12 36.9 7.3
1 5 -12 45.7 4.7
-1 5 12 40.5 6.8
-1 5 12 46.2 24.3
0 -5 12 171.48 13.9
0 -5 -12 178.88 32.3
0 -5 12 154.08 24.7
0 -5 -12 184.48 11.5
0 -5 -12 164.98 14
0 5 -12 164.38 8.3
0 5 -12 100.59 35.5
0 5 -12 153.98 13
0 5 12 151.68 27.9
0 5 12 178.18 11.7
1 -5 12 -0.9 21.4
-1 -5 -12 -2 6.5
-1 -5 -12 4.2 5.1
1 -5 12 -7.1 6
1 5 12 0.7 4.4
-1 5 -12 7.9 6.9
1 5 12 -1 6.3
-1 5 -12 -20.6 30
1 5 12 18.4 24.8
-1 5 -12 -1.9 4
-2 -5 -12 70.09 9.1
-2 -5 -12 79.59 9.4
2 -5 12 76.29 10
-2 5 -12 44.9 35.4
2 5 12 104.59 13
-2 5 -12 94.29 10.8
2 5 12 86.59 7.4
2 5 12 73.89 31.3
-3 -5 -12 10.3 7
3 -5 12 15.3 7.7
-3 -5 -12 5.1 5.2
3 5 12 6.9 4
3 5 12 10.5 5.5
-3 5 -12 -3.5 7.6
4 -5 12 85.79 10.9
-4 -5 -12 61.09 7.3
-4 -5 -12 76.49 10.9
4 5 12 78.09 7.2
4 5 12 72.39 7.9
-4 5 -12 85.29 9
-4 5 -12 65.89 10.7
-2 -6 12 4.5 8.6
2 -6 -12 3.2 7.3
2 -6 -12 -0.4 4.8
-2 6 12 6.2 7.2
2 6 -12 13.8 8.3
-2 6 12 -5.4 6.5
1 -6 -12 55.49 8.8
-1 -6 12 38.1 10.2
1 -6 -12 53.89 10.3
-1 6 12 40.3 8.1
1 6 -12 43.2 9.8
-1 6 12 42.4 7.9
0 -6 12 -2.8 8.5
0 -6 -12 -1 6.4
0 -6 -12 11.9 8.4
0 6 -12 5.6 8.7
0 6 12 4.2 7
0 6 12 -0.8 5.8
-10 0 13 1.3 6.2
-10 0 13 0.6 2
-10 0 13 2.3 3.9
-9 0 13 85.59 7.2
-9 0 13 98.49 8.2
-9 0 13 85.69 11.7
-9 0 13 105.09 6
-9 0 13 106.59 11.5
-9 0 13 90.99 5
-8 0 13 3.7 3.1
-8 0 13 -0.6 2.6
-8 0 13 -4.1 2.9
-8 0 13 1.6 6.3
-8 0 13 6.3 3.6
-8 0 13 2.7 10.1
-7 0 13 219.88 9
-7 0 13 239.68 12.6
7 0 -13 227.48 8.5
-7 0 13 235.88 18.1
-7 0 13 222.58 8.4
7 0 -13 205.88 8.3
-7 0 13 220.18 9.1
6 0 -13 -1 2.7
-6 0 13 5 3.1
-6 0 13 6.5 3
-6 0 13 5.2 9.8
-6 0 13 0.9 4.1
-6 0 13 3.5 2.9
6 0 -13 1.2 2.9
-5 0 13 76.19 12.2
-5 0 13 65.69 5.8
5 0 -13 60.69 5.3
-5 0 13 48 13
-5 0 13 64.79 4.3
5 0 -13 64.49 5.5
-5 0 13 63.09 7.4
-5 0 13 66.89 5.6
-4 0 13 -5.9 9.2
-4 0 13 -0.1 3.2
4 0 -13 -2.4 3.2
-4 0 13 -0.5 1.7
-4 0 13 0.2 2.8
4 0 -13 0.7 2.5
-4 0 13 6.8 10.7
3 0 -13 783.42 22.4
3 0 -13 793.52 21.1
-3 0 13 778.92 23.8
3 0 -13 792.32 22.2
-3 0 13 768.22 20.8
-3 0 13 789.52 34.4
-3 0 13 783.22 35
-3 0 13 779.62 22.6
-3 0 13 776.42 22.5
-2 0 13 0.8 2.9
2 0 -13 -0.8 3.1
-2 0 13 3.5 3
2 0 -13 -0.8 2.4
-2 0 13 2.6 2.8
2 0 -13 2.6 2
-2 0 13 2.9 1.9
-2 0 13 8.5 10.1
-2 0 13 -3.4 10.3
1 0 -13 1462.85 38.8
1 0 -13 1498.95 37.6
-1 0 13 1462.25 39.4
-1 0 13 1457.85 52.59
-1 0 13 1438.66 37.4
-1 0 13 1519.85 39.2
-1 0 13 1462.95 40.4
1 0 -13 1406.56 38.7
0 0 -13 5.2 3.2
0 0 -13 -0.1 3.1
0 0 13 5.4 3
0 0 13 -13.1 10.7
0 0 -13 -2.3 1.9
0 0 13 -1.7 3.3
0 0 13 -0.1 2
0 0 13 3.2 2.8
1 0 13 588.74 19.1
1 0 13 583.44 19.2
-1 0 -13 642.44 33.6
-1 0 -13 597.94 19.2
-1 0 -13 616.84 18.1
1 0 13 612.24 33.1
-1 0 -13 617.14 19.1
1 0 13 605.74 18.4
1 0 13 612.34 19
2 0 13 -1.1 3.6
-2 0 -13 2.3 2.9
2 0 13 1.3 12.9
-2 0 -13 0 2.9
2 0 13 -0.1 2.7
-2 0 -13 -1.1 4.1
2 0 13 0.3 2.5
-2 0 -13 12.3 12.8
3 0 13 853.51 42.1
-3 0 -13 894.81 26.3
-3 0 -13 897.01 25.9
-3 0 -13 926.11 41.4
3 0 13 891.91 24.4
4 0 13 -0.6 2.1
-4 0 -13 -2.6 3
-4 0 -13 10.2 14.6
-4 0 -13 5.5 3.8
4 0 13 -9.7 15.6
-5 0 -13 26.8 5
-5 0 -13 24.2 5.2
-5 0 -13 15.2 16.9
5 0 13 26.1 3
5 0 13 20 18.4
-6 0 -13 5 7
-6 0 -13 4.6 4.5
-7 0 -13 54.49 7.1
-7 0 -13 52.19 8
-8 0 -13 3.5 5.5
-8 0 -13 -0.5 6.9
-10 -1 13 60.99 6.8
-10 -1 13 70.69 9.3
-10 -1 13 62.69 6.6
-10 1 13 56.39 5.4
-10 1 13 96.39 12.2
-9 -1 13 26 3.4
-9 -1 13 30 3.8
-9 -1 13 26.7 2.6
-9 -1 13 33.3 7.7
-9 -1 13 39.2 7
-9 -1 13 23.1 5.2
-9 1 13 29.3 7.3
-9 1 13 25.6 3.7
-9 1 13 29.1 6.6
8 -1 -13 59.39 5.6
-8 -1 13 61.99 4.2
-8 -1 13 67.09 6.4
-8 -1 13 68.59 10.4
-8 -1 13 58.99 4.8
-8 -1 13 62.99 8.1
-8 1 13 88.99 8.4
8 1 -13 64.79 4.4
-8 1 13 66.69 5.6
-8 1 13 61.19 5.7
-8 1 13 49.3 12.2
-8 1 13 77.99 8.6
7 -1 -13 20.4 2.7
-7 -1 13 41.5 10
-7 -1 13 22 5.7
-7 -1 13 16.9 9.6
-7 -1 13 26.9 3.5
-7 -1 13 21.9 4.7
-7 1 13 27.7 4.5
-7 1 13 21.9 5.7
-7 1 13 28.2 4.3
7 1 -13 25.6 3.3
-7 1 13 17.3 12
7 1 -13 29.1 4.2
-7 1 13 31.6 3.5
6 -1 -13 174.38 6.9
6 -1 -13 186.48 7.7
-6 -1 13 170.68 17.3
-6 -1 13 175.88 9.4
-6 -1 13 178.38 7.8
-6 -1 13 196.68 11.3
-6 1 13 183.48 19.2
-6 1 13 185.68 10.7
-6 1 13 198.58 9.1
6 1 -13 164.58 8.4
6 1 -13 171.18 7.6
-6 1 13 181.98 8.5
5 -1 -13 30.7 3.5
-5 -1 13 22.5 3.7
-5 -1 13 26.3 4.4
-5 -1 13 33.8 6.1
5 -1 -13 30.8 3.8
-5 -1 13 39.9 10.7
5 1 -13 26 3.9
-5 1 13 26.9 4.8
5 1 -13 31.6 4
-5 1 13 30.1 11.5
-5 1 13 26.9 4.4
-5 1 13 13.4 12.1
-5 1 13 32.9 4
-4 -1 13 351.86 11.9
4 -1 -13 337.37 11.9
-4 -1 13 358.46 23.2
-4 -1 13 338.67 13
-4 -1 13 344.57 13.6
4 -1 -13 355.46 11.6
-4 1 13 330.87 25.8
4 1 -13 347.87 12.2
-4 1 13 370.66 13
-4 1 13 348.67 13.7
-4 1 13 305.67 27.1
4 1 -13 327.37 11.8
-4 1 13 332.57 11.5
3 -1 -13 9.2 2.8
-3 -1 13 3.8 3.1
-3 -1 13 5.7 2.8
-3 -1 13 28.4 13.1
-3 -1 13 11.7 3.5
3 -1 -13 7.5 3.1
3 -1 -13 8 2.8
-3 1 13 9.2 3.6
-3 1 13 -8.6 11
3 1 -13 12 3.5
-3 1 13 10.3 2.7
-3 1 13 24.2 13.4
3 1 -13 11.9 12.1
3 1 -13 8.3 2.5
-3 1 13 9.6 3.7
-2 -1 13 124.39 16.8
2 -1 -13 99.69 6.9
2 -1 -13 102.79 5.9
-2 -1 13 105.19 7.3
-2 -1 13 100.19 6.9
-2 -1 13 112.89 6.9
2 -1 -13 100.09 6.2
-2 1 13 103.09 14.5
-2 1 13 93.59 11.3
2 1 -13 112.59 5.9
-2 1 13 99.39 5.9
-2 1 13 108.29 17.9
-2 1 13 100.09 7.2
2 1 -13 97.89 6.8
2 1 -13 95.59 6.7
2 1 -13 90.39 16.2
-1 -1 13 26.2 4.1
1 -1 -13 17.5 3.4
-1 -1 13 47 13.2
1 -1 -13 14.5 3.3
1 -1 -13 18.7 4.1
-1 -1 13 29.2 4.8
1 1 -13 28.8 4.2
-1 1 13 14.4 10.9
-1 1 13 5.4 12.6
1 1 -13 23.5 3.6
1 1 -13 2.5 12.4
-1 1 13 21.8 4.2
-1 1 13 19.2 4
1 1 -13 23 3
0 -1 13 704.63 35
0 -1 -13 742.53 21.6
0 -1 13 751.02 22.2
0 -1 13 756.72 22.5
0 -1 -13 733.03 22.2
0 -1 -13 756.52 22.1
0 1 13 756.62 21.8
0 1 -13 767.62 37.2
0 1 13 737.63 21.4
0 1 13 741.73 34.2
0 1 -13 737.73 20.3
0 1 -13 733.93 22.2
0 1 13 718.13 22.5
0 1 -13 752.82 22.4
0 1 13 769.92 36.9
-1 -1 -13 11.8 3.9
1 -1 13 7 3.2
1 -1 13 22.2 12.4
1 -1 13 10.5 3.6
-1 -1 -13 5.8 3.3
-1 -1 -13 10.6 3.4
1 1 13 26.5 13.3
1 1 13 8.3 2.8
-1 1 -13 20.4 4.4
1 1 13 11.9 3.3
1 1 13 8.9 3.8
-1 1 -13 8 3.7
-1 1 -13 3.9 15.5
-1 1 -13 9.9 2.6
1 1 13 27.4 14
-2 -1 -13 442.46 14.7
2 -1 13 441.16 15.2
2 -1 13 402.06 14.9
-2 -1 -13 377.46 14.8
-2 -1 -13 396.56 14.4
2 -1 13 428.96 29.5
-2 1 -13 372.66 29.3
-2 1 -13 416.46 15
2 1 13 474.35 31
2 1 13 394.46 14.9
2 1 13 392.86 14.3
2 1 13 428.26 13.2
2 1 13 391.16 28.3
-2 1 -13 424.16 13.8
-3 -1 -13 18.5 4.2
3 -1 13 15.5 4.1
3 -1 13 17.4 3.3
3 -1 13 28.7 15.2
-3 -1 -13 13.3 4.1
3 1 13 18.5 15.9
-3 1 -13 14.4 4.7
3 1 13 13 2.7
3 1 13 17.1 4.4
3 1 13 -11.7 15.3
-3 1 -13 20.4 3.8
-3 1 -13 23.4 15.9
-4 -1 -13 231.78 10.8
4 -1 13 235.38 9.1
4 -1 13 212.58 25.8
-4 -1 -13 248.18 11.3
-4 1 -13 221.58 11.3
-4 1 -13 245.48 10.8
-4 1 -13 262.77 28.4
4 1 13 220.18 7.8
4 1 13 220.78 28.3
4 1 13 225.38 27.3
-5 -1 -13 17.3 5.5
5 -1 13 21.6 2.8
5 -1 13 31.8 3.5
-5 -1 -13 21.8 5.2
5 -1 13 38.1 19.5
5 1 13 24.5 2.4
-5 1 -13 43.6 20.6
5 1 13 15.9 17.4
5 1 13 69.49 24.1
-5 1 -13 25.1 6.3
-5 1 -13 18.1 5
-6 -1 -13 160.48 11.6
6 -1 13 133.59 5.4
6 -1 13 127.39 6.1
-6 -1 -13 146.79 9.7
-6 1 -13 129.29 15.2
-6 1 -13 137.19 11.2
-7 -1 -13 69.09 8.3
-7 -1 -13 76.69 9.1
-7 1 -13 65.49 8.6
-7 1 -13 53.79 7.4
-8 -1 -13 106.79 10.4
-8 -1 -13 87.39 10.8
-8 1 -13 79.89 9.2
-8 1 -13 95.19 11
-10 -2 13 19.4 6.7
-10 -2 13 27 8.5
-10 2 13 8.2 7.5
-10 2 13 12.2 4.2
-9 -2 13 70.59 10
-9 -2 13 40.4 6.6
-9 2 13 50.59 8.3
-9 2 13 40.4 4.9
-8 -2 13 22.4 2.9
-8 -2 13 18.9 7.2
-8 -2 13 17.6 9
8 -2 -13 20.1 3.9
-8 -2 13 28.1 6.2
-8 2 13 22.1 5.1
-8 2 13 22.7 6.9
8 2 -13 20 2.7
-7 -2 13 97.39 19.2
7 -2 -13 121.19 7.9
-7 -2 13 125.19 9.5
-7 -2 13 109.69 14.9
-7 -2 13 124.09 6.2
-7 2 13 129.79 8.9
-7 2 13 129.59 10.5
-7 2 13 123.59 9.4
-7 2 13 122.19 7.4
7 2 -13 111.39 12.3
6 -2 -13 208.58 9.1
-6 -2 13 226.08 12.2
-6 -2 13 202.98 10.8
-6 -2 13 206.28 8.2
6 -2 -13 204.58 6.9
-6 2 13 189.98 21.1
6 2 -13 193.18 8.6
-6 2 13 208.28 11.6
-6 2 13 203.48 10.4
-6 2 13 207.78 9.1
-6 2 13 205.68 25.6
6 2 -13 188.68 9.7
-6 2 13 181.58 10.1
-5 -2 13 117.19 6.7
5 -2 -13 142.99 7.6
-5 -2 13 145.79 8.9
5 2 -13 121.79 8.3
-5 2 13 111.59 8
5 2 -13 117.99 17.9
-5 2 13 130.09 9.3
-5 2 13 138.29 8.9
-5 2 13 110.29 23.3
5 2 -13 136.09 7.8
-4 -2 13 111.79 6.7
4 -2 -13 106.49 6.5
4 -2 -13 124.39 7
-4 -2 13 120.79 8.4
-4 2 13 100.79 18.5
4 2 -13 114.29 7.2
-4 2 13 109.09 7.3
-4 2 13 119.29 17.8
-4 2 13 109.49 8.5
-4 2 13 100.09 12.6
4 2 -13 126.69 7.8
4 2 -13 133.09 18.1
-3 -2 13 490.45 15.6
-3 -2 13 472.55 27.2
3 -2 -13 516.25 16
3 -2 -13 465.15 17.2
-3 -2 13 516.85 17.1
3 -2 -13 465.75 16.2
3 -2 -13 499.45 15.5
-3 2 13 480.85 15.9
-3 2 13 464.95 27.4
-3 2 13 506.35 17
3 2 -13 497.55 16.1
-3 2 13 496.05 17
3 2 -13 476.45 16.1
3 2 -13 515.05 29.7
2 -2 -13 256.67 10.7
-2 -2 13 257.27 10.5
2 -2 -13 280.07 12.1
2 -2 -13 264.87 11.2
-2 -2 13 243.08 21.7
2 -2 -13 262.47 10.7
-2 -2 13 270.27 11.7
-2 2 13 277.47 11.3
2 2 -13 265.17 11
2 2 -13 271.97 25.6
-2 2 13 281.17 26.6
-2 2 13 264.67 11.6
2 2 -13 269.67 11.2
-2 2 13 253.47 23
-2 2 13 249.68 10.4
-1 -2 13 45.1 5.5
-1 -2 13 40.6 4.7
1 -2 -13 46.4 5.8
-1 -2 13 33.8 14.2
1 -2 -13 47.6 6
1 -2 -13 57.39 5.6
1 -2 -13 49.6 5.4
-1 2 13 51.99 5.9
-1 2 13 69.89 17
-1 2 13 44.4 13.8
1 2 -13 82.09 17.8
1 2 -13 53.39 6.2
-1 2 13 45.2 5.6
-1 2 13 46.6 5
1 2 -13 54.09 5.7
0 -2 -13 47.7 5.5
0 -2 -13 55.39 6.1
0 -2 13 51.89 6
0 -2 -13 39.7 5.5
0 -2 13 53.59 13.9
0 -2 13 50.69 5.5
0 2 13 48.9 5.7
0 2 -13 47.9 7.2
0 2 13 42.8 5.8
0 2 13 40.1 16.2
0 2 13 49 5.9
0 2 13 38 14.3
0 2 -13 46.2 3.8
0 2 -13 55.79 17
0 2 -13 42.9 5.3
1 -2 13 13.2 4.4
-1 -2 -13 15.2 4.7
1 -2 13 22.9 4.9
-1 -2 -13 19.2 4.1
-1 -2 -13 16 3.6
1 -2 13 39.4 13.8
1 2 13 15.2 3.1
1 2 13 24.9 4.8
1 2 13 35 17.6
-1 2 -13 19.1 3
1 2 13 11.7 4.2
-1 2 -13 -9.3 16.7
-1 2 -13 21.3 4.3
1 2 13 18.4 15.1
2 -2 13 -3.3 3.4
2 -2 13 5 3.6
-2 -2 -13 1.5 3.3
-2 -2 -13 2 3.6
2 2 13 0.8 2.5
2 2 13 -0.4 5.3
-2 2 -13 4 3.7
2 2 13 14.2 15.1
-2 2 -13 -11.6 17.4
2 2 13 21.7 16.5
-2 2 -13 1.1 2.7
3 -2 13 154.68 22.4
-3 -2 -13 180.38 10.3
-3 -2 -13 184.08 9.6
3 -2 13 177.98 10.4
-3 2 -13 174.68 24.5
-3 2 -13 174.28 10.1
3 2 13 167.98 7.1
3 2 13 164.78 22.3
3 2 13 188.58 25.2
-3 2 -13 171.18 9
-4 -2 -13 64.69 8
4 -2 13 65.49 5.8
4 -2 13 72.39 20.4
-4 -2 -13 77.89 7.6
4 -2 13 67.29 7.4
-4 2 -13 104.39 24
4 2 13 62.29 19
-4 2 -13 82.79 7.5
-4 2 -13 81.09 8.6
4 2 13 96.09 21.7
4 2 13 75.19 4.6
-5 -2 -13 105.39 9
5 -2 13 111.99 7.7
-5 -2 -13 136.69 10.9
-5 2 -13 109.99 10.1
-5 2 -13 128.59 25.7
5 2 13 94.59 23.6
-5 2 -13 103.69 9.6
-6 -2 -13 2.6 4.5
-6 -2 -13 5.4 5.8
-6 2 -13 17.5 7.1
-6 2 -13 8.8 5.9
-7 -2 -13 43.7 8
-7 -2 -13 36.2 6.3
-7 2 -13 43 8
-7 2 -13 40 7.3
-8 -2 -13 1.6 7.2
-8 -2 -13 10.2 5.4
-8 2 -13 13.1 8.6
-8 2 -13 2.5 6.8
-9 -3 13 30.1 7.8
-9 -3 13 31.1 9.4
-9 3 13 17.6 7.8
-9 3 13 13 4.7
-8 -3 13 65.39 10.2
-8 -3 13 61.59 9.1
-8 -3 13 62.79 13.2
8 -3 -13 59.59 6.3
-8 3 13 65.19 7.5
-8 3 13 42.7 7.8
7 -3 -13 70.09 7.1
-7 -3 13 60.59 5.3
-7 -3 13 63.29 8.2
-7 3 13 64.09 7.5
-7 3 13 71.69 8.6
-7 3 13 63.39 7.8
7 3 -13 66.29 8
6 -3 -13 78.99 7.3
-6 -3 13 73.29 5.9
-6 -3 13 93.79 9.6
-6 3 13 90.49 10
-6 3 13 69.99 7.5
6 3 -13 77.49 7.1
-6 3 13 98.69 10.4
5 -3 -13 86.49 5.7
-5 -3 13 93.99 6.5
5 -3 -13 83.39 7.5
-5 -3 13 90.99 9.2
5 3 -13 88.29 8
-5 3 13 108.59 9.6
-5 3 13 95.09 20.4
-5 3 13 90.19 8
-5 3 13 74.29 10.6
-4 -3 13 168.08 20.7
-4 -3 13 164.58 8.2
-4 -3 13 158.48 10.6
4 -3 -13 166.38 8
4 -3 -13 177.68 9.1
-4 3 13 180.28 22.7
-4 3 13 164.48 8.8
4 3 -13 166.08 9.5
-4 3 13 186.08 10.4
-4 3 13 170.78 11.2
4 3 -13 168.18 23.3
3 -3 -13 294.77 12.9
3 -3 -13 277.87 11.5
-3 -3 13 266.17 11.2
-3 -3 13 288.17 13
-3 3 13 290.37 12.6
3 3 -13 267.97 29
-3 3 13 293.97 13.4
-3 3 13 295.57 26.5
3 3 -13 277.07 12
-2 -3 13 27.6 4.7
2 -3 -13 25.3 4.1
-2 -3 13 25.4 14
-2 -3 13 24.8 4.9
2 -3 -13 32.7 5.2
2 -3 -13 30 5.7
-2 3 13 38.9 6.1
-2 3 13 54.39 19.9
-2 3 13 18.1 13.3
2 3 -13 12.7 17
-2 3 13 27.6 4.5
2 3 -13 28 4.8
1 -3 -13 108.39 7.3
-1 -3 13 109.49 19.1
-1 -3 13 99.69 8.4
1 -3 -13 101.09 8.5
-1 -3 13 77.79 7.2
1 -3 -13 86.19 8.4
1 -3 -13 86.89 8.4
1 3 -13 101.79 8.7
1 3 -13 90.19 3.9
-1 3 13 110.19 7.4
1 3 -13 123.69 22.6
-1 3 13 130.29 18.6
1 3 -13 101.79 3.8
-1 3 13 69.89 21
0 -3 13 156.88 9.1
0 -3 13 159.38 10.4
0 -3 13 157.28 22.4
0 -3 -13 165.48 10.8
0 -3 -13 151.08 9.7
0 -3 -13 154.28 10
0 -3 -13 150.68 8.7
0 3 -13 169.38 9.9
0 3 13 166.98 8.4
0 3 -13 176.58 25.6
0 3 -13 158.88 6.3
1 -3 13 167.28 22.8
1 -3 13 154.68 9.1
-1 -3 -13 162.78 10.3
-1 -3 -13 142.79 9.5
1 -3 13 157.68 10.7
-1 -3 -13 152.18 8.9
-1 3 -13 192.38 27.1
-1 3 -13 184.68 10.3
1 3 13 166.88 8.4
-1 3 -13 166.88 7.3
1 3 13 168.18 23.6
1 3 13 161.88 24.5
2 -3 13 7.1 4.6
2 -3 13 36.3 17.6
-2 -3 -13 3.8 3.8
-2 -3 -13 5.9 4.7
-2 -3 -13 -4.7 4.1
2 3 13 -16.8 16.3
2 3 13 2 3.3
2 3 13 -1.4 18.5
-2 3 -13 4.7 3.2
-2 3 -13 0.4 4.2
-2 3 -13 -17.8 21.2
3 -3 13 158.38 24.1
-3 -3 -13 145.89 12.6
3 -3 13 147.29 11.4
3 -3 13 157.68 8.8
-3 3 -13 145.29 10.9
3 3 13 156.28 7.2
-3 3 -13 153.88 9.1
3 3 13 145.09 25.5
-3 3 -13 156.58 26.2
3 3 13 149.39 24.2
-4 -3 -13 -1.6 5.2
4 -3 13 7.4 4.1
4 -3 13 9.1 6.2
-4 -3 -13 5 4.1
-4 3 -13 7.2 4.8
-4 3 -13 14.5 25.2
4 3 13 4 2.5
-4 3 -13 5.9 5.8
4 3 13 -38.6 18.7
-5 -3 -13 115.99 11.7
5 -3 13 109.19 11.9
-5 -3 -13 122.69 9.4
5 -3 13 109.09 8.5
-5 3 -13 121.49 10.5
5 3 13 113.89 5.3
-5 3 -13 117.09 11.3
-6 -3 -13 18.7 5.8
6 -3 13 22.8 7.2
-6 -3 -13 13.9 7.1
-6 3 -13 22.7 7
-6 3 -13 32.3 7.2
-7 -3 -13 29.2 6.5
-7 -3 -13 19.7 8
-7 3 -13 31.4 8.3
-7 3 -13 13.2 7.4
8 -4 -13 56.39 7.1
-8 -4 13 62.99 10.2
-8 4 13 77.69 9.2
-8 4 13 63.69 8.8
7 -4 -13 7.8 5
-7 -4 13 12.1 8
-7 4 13 16.1 7.3
-7 4 13 15.7 5.4
-6 -4 13 16.1 6.8
6 -4 -13 17.8 4.9
-6 4 13 24.1 5.1
-6 4 13 21.5 8.3
-6 4 13 20.1 6.5
-5 -4 13 10.9 4.1
5 -4 -13 4.4 4.9
-5 -4 13 12.4 6.8
5 4 -13 4.5 5.1
-5 4 13 7.1 4.8
-5 4 13 12.7 5.9
-4 -4 13 138.79 12.2
4 -4 -13 103.79 8.7
-4 -4 13 115.89 8.4
4 -4 -13 105.19 8.2
-4 4 13 124.19 10.3
4 4 -13 113.99 9.7
-4 4 13 115.79 9
-3 -4 13 1.6 4.2
3 -4 -13 -1.3 4.8
3 -4 -13 1.5 4.2
-3 -4 13 7.3 6.2
-3 4 13 6.3 4.6
3 4 -13 4.5 5.1
-3 4 13 8.1 6.3
-3 4 13 -17.3 18.4
-2 -4 13 117.99 10.9
2 -4 -13 117.79 12.9
-2 -4 13 100.29 8.2
-2 -4 13 98.69 19.9
2 -4 -13 96.99 8.4
2 -4 -13 114.79 27.4
2 -4 -13 106.29 9.8
-2 4 13 99.99 8.9
2 4 -13 90.79 9.2
-2 4 13 98.49 12.5
2 4 -13 67.39 25.6
-2 4 13 81.79 19.8
-1 -4 13 35.7 7.5
-1 -4 13 18.7 4.9
1 -4 -13 22.5 5.1
1 -4 -13 20.8 6
1 -4 -13 31.5 8.4
1 4 -13 20.7 21.9
-1 4 13 37.4 18.6
1 4 -13 29.4 6
-1 4 13 24.9 5.1
-1 4 13 31.2 5.7
0 -4 -13 135.09 14.9
0 -4 -13 196.08 10.6
0 -4 13 177.38 12.6
0 4 -13 184.08 7.7
0 4 13 206.38 10.8
0 4 -13 202.08 11.8
0 4 -13 201.48 31.5
0 4 13 179.08 9.9
0 4 13 277.97 30.6
0 4 13 151.18 27.7
0 4 -13 172.48 7.4
1 -4 13 7.9 5.9
-1 -4 -13 3.1 5.4
-1 -4 -13 -1.3 4.7
1 -4 13 -9.6 18.2
-1 4 -13 3.5 5.7
1 4 13 0.4 3.5
-1 4 -13 8.1 26.1
1 4 13 2.9 19.2
-1 4 -13 -3.2 3.2
1 4 13 46.2 25
2 -4 13 343.67 16.9
-2 -4 -13 325.27 16.2
-2 -4 -13 342.37 14.3
2 -4 13 306.67 36.2
-2 -4 -13 327.07 15
2 4 13 391.26 37.5
-2 4 -13 354.06 16.7
2 4 13 334.17 12.3
-2 4 -13 355.96 13.2
-2 4 -13 340.47 40.1
3 -4 13 24.5 7.6
-3 -4 -13 15.7 5.1
-3 -4 -13 13.6 6.8
3 -4 13 25.7 26
-3 -4 -13 16.1 6.2
3 4 13 23.4 23.6
3 4 13 23.9 4.2
-3 4 -13 27.1 28.4
-3 4 -13 24.4 4.8
-3 4 -13 21.6 7.5
-4 -4 -13 58.39 8.9
4 -4 13 85.19 10
-4 -4 -13 61.79 7.5
-4 4 -13 72.69 7.8
-4 4 -13 67.89 9.5
4 4 13 70.89 6.3
-5 -4 -13 0.7 5.3
-5 -4 -13 5.8 7.6
5 -4 13 -0.8 7.3
-5 4 -13 4 7.2
5 4 13 -4.2 2.9
-5 4 -13 -3.1 7
5 -5 -13 59.09 13.7
-5 -5 13 38.7 9.2
-5 5 13 39.9 7.1
-5 5 13 67.89 8.7
-4 -5 13 4.9 7.5
4 -5 -13 -1.8 6
4 -5 -13 -3.1 3.4
-4 5 13 12.3 6.3
-4 5 13 -3.6 5.2
4 5 -13 0.5 6.3
3 -5 -13 63.09 8.1
-3 -5 13 51.79 9.2
-3 5 13 61.99 7.8
3 5 -13 61.69 8.1
-3 5 13 53.39 7.3
2 -5 -13 -0.7 7.2
-2 -5 13 5 7.1
-2 -5 13 1.2 5.8
2 -5 -13 11.4 6.5
-2 5 13 -0.9 5.6
-2 5 13 7.4 5.8
2 5 -13 6.9 6.1
1 -5 -13 202.68 15.6
1 -5 -13 220.48 12.9
-1 -5 13 221.48 15.6
-1 5 13 237.48 12.7
-1 5 13 230.98 12.9
1 5 -13 243.48 14.4
0 -5 -13 15.5 7.1
0 -5 -13 22 6.3
0 -5 13 22.8 8.1
0 5 13 23.1 28.2
0 5 13 9.4 5.3
0 5 -13 23 3.8
0 5 13 14.8 6.2
0 5 -13 25.9 7.7
-1 -5 -13 157.68 14.4
1 -5 13 158.98 15.1
-1 -5 -13 149.39 11.9
1 -5 13 84.49 26.2
-1 5 -13 135.59 13.8
-1 5 -13 133.99 8.5
-1 5 -13 272.97 76.29
1 5 13 133.29 11.6
1 5 13 158.18 33
-2 -5 -13 5.2 7.7
2 -5 13 -0.3 26.4
-2 -5 -13 5.6 6.1
2 -5 13 5.7 8.1
-2 5 -13 -1.5 4.7
2 5 13 5.8 4.5
2 5 13 -14.4 5.7
-2 5 -13 27.1 38.9
-2 5 -13 -0.9 7.3
-3 -5 -13 81.49 10
-3 -5 -13 75.09 10.3
3 -5 13 81.29 11.6
3 5 13 79.79 8.6
3 5 13 77.49 7.9
-3 5 -13 68.09 11
-3 5 -13 68.29 7.5
-10 0 14 43.3 4.2
-10 0 14 36.2 8.4
-9 0 14 -7 6.4
-9 0 14 1.6 2.8
-9 0 14 3.4 4.2
-8 0 14 88.09 7
-8 0 14 72.79 14.5
-8 0 14 105.89 6.9
-8 0 14 92.89 6.8
-8 0 14 96.39 11.1
8 0 -14 85.19 5.8
-7 0 14 2.1 3.5
-7 0 14 24.7 11.1
-7 0 14 4.9 2.9
-7 0 14 -1.2 3.3
7 0 -14 3.2 3
6 0 -14 158.28 8
-6 0 14 172.38 19.1
-6 0 14 151.88 11
-6 0 14 179.98 8.6
-6 0 14 159.08 8.5
-6 0 14 164.38 7.2
6 0 -14 160.78 8.2
-5 0 14 -8.1 10.7
5 0 -14 -0.7 3.1
-5 0 14 0.9 3
5 0 -14 -3.1 2.7
-5 0 14 -1.8 3.7
4 0 -14 34.8 4.7
-4 0 14 30.6 5.4
4 0 -14 35.5 4.1
-4 0 14 41.5 4.9
-4 0 14 45.9 12.6
-4 0 14 43.7 5
-4 0 14 51.59 14.2
3 0 -14 0.4 2.9
-3 0 14 3.7 12.4
-3 0 14 -0.2 3.5
-3 0 14 2.7 9.8
-3 0 14 0.3 2.1
3 0 -14 -1.4 2
-3 0 14 2.8 3.1
-3 0 14 0.2 3.7
3 0 -14 0 3.2
-2 0 14 875.01 40.2
-2 0 14 911.71 25.8
2 0 -14 927.91 25.8
-2 0 14 881.21 39
-2 0 14 906.11 26.6
2 0 -14 872.41 24
-2 0 14 916.11 27.8
2 0 -14 879.41 25.5
-2 0 14 862.61 23.8
-1 0 14 5.5 13.1
1 0 -14 1.1 2.3
-1 0 14 4.8 3.2
-1 0 14 -1.4 3.1
-1 0 14 2.5 2.3
-1 0 14 15.8 11.9
1 0 -14 1.6 2.6
1 0 -14 6.2 3.5
-1 0 14 4.8 3.6
0 0 14 476.05 16.3
0 0 14 464.55 15.9
0 0 14 464.45 14.9
0 0 -14 460.95 16.1
0 0 -14 457.55 14.6
0 0 14 487.05 30.9
0 0 14 496.25 16.2
0 0 -14 459.85 15.8
1 0 14 1.9 3.8
1 0 14 -1.4 3
-1 0 -14 0.4 2.6
1 0 14 -3.3 2.8
-1 0 -14 2.9 3.7
1 0 14 4 2.9
-1 0 -14 0.5 3.2
1 0 14 -16.6 14.2
2 0 14 653.83 37.4
2 0 14 667.23 19.6
-2 0 -14 641.14 19.9
-2 0 -14 674.23 21
-2 0 -14 633.24 36.1
-3 0 -14 2.7 4
3 0 14 -2.1 2.8
3 0 14 -16.9 14.8
-3 0 -14 -1.6 3
-3 0 -14 -22.9 16.4
-4 0 -14 153.48 23.6
4 0 14 196.78 7.8
-4 0 -14 203.18 10.7
4 0 14 179.88 26.2
-4 0 -14 207.68 10.7
-5 0 -14 -6.5 4.5
5 0 14 6.5 2.4
-5 0 -14 4.6 5.1
-6 0 -14 151.88 12
-6 0 -14 175.18 11.5
-7 0 -14 -6.7 5
-7 0 -14 -2.9 6.5
-8 0 -14 19.6 8.1
-8 0 -14 25.2 6.8
-10 -1 14 7.1 8.4
-10 -1 14 9.1 5.5
-10 1 14 7.3 7.4
-9 -1 14 122.39 12.4
-9 -1 14 86.99 4.9
-9 -1 14 111.79 14.3
-9 -1 14 74.39 8.9
-9 1 14 75.59 8.9
-9 1 14 88.69 6.7
-8 -1 14 21.4 4.9
-8 -1 14 26.9 10.9
-8 -1 14 22 3.5
-8 -1 14 26.5 7.3
8 -1 -14 20.4 3.9
-8 1 14 13.5 5.4
-8 1 14 24.4 4
-8 1 14 28.9 7.2
-8 1 14 23.6 4.7
-7 -1 14 31.9 4
-7 -1 14 51.39 8
-7 -1 14 64.39 12.4
-7 -1 14 36.3 5.2
7 -1 -14 40 4.6
7 -1 -14 41.2 4.5
7 1 -14 37.4 5.1
7 1 -14 46.2 5.1
-7 1 14 37.8 16.3
-7 1 14 43.7 5.2
-7 1 14 42.1 7.5
-7 1 14 41.1 5.4
-7 1 14 37.8 4.2
-6 -1 14 119.39 7.1
6 -1 -14 124.19 7.3
-6 -1 14 114.39 10.7
6 -1 -14 108.99 6.1
-6 -1 14 94.99 13.6
-6 -1 14 124.39 8.6
6 1 -14 107.09 7.9
-6 1 14 118.99 8.3
-6 1 14 107.49 9.9
6 1 -14 110.59 7
-6 1 14 86.49 16.7
-6 1 14 105.09 7.1
-6 1 14 119.69 16
-5 -1 14 382.26 13.2
-5 -1 14 391.56 14.2
-5 -1 14 386.26 16
-5 -1 14 358.86 23.9
5 -1 -14 381.26 12.4
5 -1 -14 381.46 12.9
-5 1 14 385.36 14.2
5 1 -14 387.46 13
5 1 -14 371.16 13.4
-5 1 14 379.86 15.3
-5 1 14 368.76 26.6
-5 1 14 373.26 14.1
-4 -1 14 43.1 5.7
4 -1 -14 62.59 5.5
-4 -1 14 62.39 6.7
-4 -1 14 18 12.9
-4 -1 14 74.89 13.8
-4 -1 14 48.5 5.8
4 1 -14 59.59 5.6
-4 1 14 59.69 6.1
-4 1 14 33.3 14.4
-4 1 14 65.99 7.4
-4 1 14 48.7 8.1
-4 1 14 58.59 16.5
4 1 -14 57.89 6.6
-3 -1 14 179.38 9.1
3 -1 -14 180.48 8.7
-3 -1 14 192.08 22
3 -1 -14 204.78 9.2
-3 -1 14 194.98 9.7
-3 -1 14 177.08 10.2
3 -1 -14 187.88 8.4
-3 1 14 180.28 11.5
-3 1 14 193.78 10.1
-3 1 14 173.28 22.2
3 1 -14 205.78 9.8
3 1 -14 189.18 8.8
3 1 -14 184.38 22.6
-3 1 14 203.58 21.8
2 -1 -14 153.48 7.7
-2 -1 14 167.48 9.2
-2 -1 14 169.88 24.7
2 -1 -14 161.58 8.7
2 -1 -14 163.58 8.1
-2 -1 14 163.88 9
2 1 -14 177.08 8.7
2 1 -14 153.18 6.1
-2 1 14 158.58 9.3
-2 1 14 165.98 18.5
-2 1 14 169.68 9.1
-2 1 14 151.68 7.6
2 1 -14 165.58 21.3
-2 1 14 151.48 21.7
2 1 -14 153.78 8.6
-1 -1 14 124.19 7.9
-1 -1 14 111.89 7.7
-1 -1 14 110.29 7.7
1 -1 -14 121.09 7.5
1 -1 -14 111.19 8.2
1 -1 -14 102.39 6.8
-1 -1 14 84.59 17.8
-1 1 14 151.38 20.3
1 1 -14 103.19 7.2
-1 1 14 99.99 16.5
-1 1 14 120.09 7.7
1 1 -14 110.39 5.4
-1 1 14 109.89 8.3
1 1 -14 102.29 8.1
-1 1 14 113.19 6.8
1 1 -14 112.29 18.7
0 -1 -14 3.6 3.1
0 -1 14 4.7 3.7
0 -1 14 4.2 3.5
0 -1 14 -4.6 12.6
0 -1 14 2.6 3.5
0 -1 -14 0.2 2.9
0 -1 -14 1 4.2
0 1 14 0.1 12.2
0 1 14 2.2 4
0 1 -14 1.6 3.4
0 1 -14 -24.1 14.8
0 1 14 0.7 3
0 1 -14 2.6 3.9
0 1 -14 3.1 2.5
0 1 14 -1.4 2.9
0 1 14 16.7 14.6
-1 -1 -14 512.45 16.5
1 -1 14 499.85 32.5
1 -1 14 507.55 16.5
1 -1 14 510.45 17.4
-1 -1 -14 498.65 16.6
-1 -1 -14 464.95 16.9
1 -1 14 483.65 16.8
-1 1 -14 493.65 17
-1 1 -14 463.85 14.9
1 1 14 455.85 16
1 1 14 454.05 16.9
1 1 14 508.95 15.9
1 1 14 495.45 31.3
-1 1 -14 481.95 34
1 1 14 536.05 34.9
2 -1 14 32.4 4.6
2 -1 14 43.9 15.7
-2 -1 -14 26.2 4.4
2 -1 14 29.5 5.4
-2 -1 -14 40.3 5.2
2 1 14 21.1 15.7
2 1 14 66.79 19.1
-2 1 -14 32.4 5.3
2 1 14 34.1 4.1
-2 1 -14 22.5 4
2 1 14 24.6 4.7
-3 -1 -14 124.29 8.6
3 -1 14 118.29 8.8
-3 -1 -14 117.49 8.3
3 -1 14 121.79 7.2
3 -1 14 125.19 22.8
3 1 14 98.69 21.6
-3 1 -14 117.99 7.7
-3 1 -14 92.59 21.5
-3 1 -14 117.29 8.9
3 1 14 95.29 21.7
3 1 14 104.59 6.2
4 -1 14 27.3 20.2
4 -1 14 38.5 4.3
-4 -1 -14 34.4 5.8
-4 -1 -14 44.3 6.2
4 1 14 35.2 4.1
4 1 14 28.4 20.1
-4 1 -14 57.79 20.9
-4 1 -14 38 5.4
-4 1 -14 46.1 6.6
4 1 14 29.4 19.7
5 -1 14 112.49 5.7
-5 -1 -14 117.79 9.7
-5 -1 -14 109.19 12.6
5 -1 14 124.89 6.9
5 1 14 119.39 5.8
5 1 14 117.59 25
-5 1 -14 112.89 10
-5 1 -14 120.99 9.8
-6 -1 -14 4.4 6.5
6 -1 14 10.4 2.7
-6 -1 -14 3 5
-6 1 -14 8.7 5.8
-6 1 -14 5.8 5.7
-7 -1 -14 64.69 8.8
-7 -1 -14 53.69 8
-7 1 -14 69.59 8.8
-7 1 -14 69.09 8.5
-9 -2 14 25.8 6.5
-9 -2 14 21.3 7.5
-9 2 14 11 4.4
-9 2 14 18.6 8
-8 -2 14 127.19 9.3
-8 -2 14 114.29 10.6
-8 -2 14 109.99 13.1
-8 -2 14 73.19 12.9
8 -2 -14 115.69 7.7
-8 2 14 93.99 11.3
-8 2 14 119.49 8.1
-7 -2 14 26.9 6.1
-7 -2 14 30 7
-7 -2 14 30.8 3.9
7 -2 -14 29.7 3
7 -2 -14 29 4.6
-7 2 14 28.8 5.7
-7 2 14 30.9 6.7
-7 2 14 27.1 4.7
7 2 -14 28 3.8
-6 -2 14 85.69 14.9
-6 -2 14 118.29 9.4
-6 -2 14 84.79 10.7
6 -2 -14 101.59 5.6
6 -2 -14 123.69 7.5
-6 -2 14 108.19 6.7
-6 2 14 103.99 8.8
6 2 -14 117.19 7.5
-6 2 14 106.29 7.6
-6 2 14 111.19 10.5
-6 2 14 129.29 9.5
-5 -2 14 147.29 8.2
-5 -2 14 170.38 11.9
-5 -2 14 180.48 10.5
5 -2 -14 168.08 8.4
5 -2 -14 178.88 7.6
-5 2 14 163.28 26.4
5 2 -14 127.79 19.5
-5 2 14 171.38 11
-5 2 14 149.39 9.2
-5 2 14 164.18 11.2
5 2 -14 172.38 8.7
-4 -2 14 300.27 13.1
-4 -2 14 321.77 11.7
4 -2 -14 325.57 12.3
4 -2 -14 324.77 11.6
-4 2 14 327.77 13.8
4 2 -14 307.97 11.9
-4 2 14 329.47 28
4 2 -14 273.97 28.1
-4 2 14 312.87 12.3
-4 2 14 302.47 13.3
3 -2 -14 119.19 8
-3 -2 14 126.99 7.9
3 -2 -14 122.09 8
-3 -2 14 119.49 8.9
3 -2 -14 127.59 7.9
-3 2 14 98.39 8.6
-3 2 14 113.89 8.9
-3 2 14 115.39 7.7
-3 2 14 135.39 18
3 2 -14 131.89 19.5
3 2 -14 121.39 7.9
-3 2 14 99.99 21
2 -2 -14 261.67 10.8
-2 -2 14 250.47 10.9
2 -2 -14 273.27 11.3
-2 -2 14 236.68 25.9
2 -2 -14 268.87 11.3
-2 -2 14 263.47 12.2
-2 2 14 287.07 30.1
-2 2 14 232.48 26
-2 2 14 273.57 11.7
-2 2 14 232.78 10.8
-2 2 14 266.17 12.1
2 2 -14 254.97 11.3
2 2 -14 222.28 25
-1 -2 14 204.08 25.2
1 -2 -14 222.98 9.9
1 -2 -14 217.58 10.8
-1 -2 14 236.18 11.7
-1 -2 14 212.68 10.2
1 -2 -14 226.28 10.4
-1 2 14 225.18 23
-1 2 14 227.68 10.2
1 2 -14 209.48 26
-1 2 14 236.98 27.8
1 2 -14 226.98 11
-1 2 14 206.08 11.4
1 2 -14 210.58 7.3
-1 2 14 219.48 10.1
0 -2 -14 50.99 6.2
0 -2 -14 65.39 6.8
0 -2 14 64.69 7
0 -2 -14 65.69 6.3
0 -2 14 64.69 7.5
0 -2 14 73.69 17.3
0 2 -14 57.79 6.3
0 2 -14 67.79 4.2
0 2 14 60.49 6.2
0 2 14 89.79 17.3
0 2 14 45.9 6.2
0 2 14 71.99 19.5
0 2 -14 81.89 22.4
0 2 14 74.19 7.3
-1 -2 -14 135.39 8.9
1 -2 14 127.29 9.1
1 -2 14 126.09 21
-1 -2 -14 121.79 8.1
1 -2 14 112.29 8.3
-1 2 -14 124.39 8.8
-1 2 -14 127.89 24.5
1 2 14 124.69 11.5
-1 2 -14 115.49 6.4
1 2 14 131.19 7.6
1 2 14 133.09 21.1
1 2 14 166.18 25.2
2 -2 14 72.09 19.3
2 -2 14 75.99 8.8
-2 -2 -14 81.29 7.3
-2 -2 -14 93.69 8.4
-2 2 -14 93.89 6.6
2 2 14 105.29 21.1
-2 2 -14 86.09 8.7
2 2 14 90.79 22.5
-2 2 -14 89.29 23
2 2 14 84.49 6.1
3 -2 14 13.2 5.1
-3 -2 -14 22.9 5.6
-3 -2 -14 23.5 4.9
-3 2 -14 23 4.4
3 2 14 8 20.7
-3 2 -14 34 21.6
3 2 14 31.8 3.4
-3 2 -14 17.3 5.7
3 2 14 38.5 20.1
4 -2 14 114.79 10.7
4 -2 14 91.29 22.9
-4 -2 -14 101.29 8.7
4 -2 14 101.99 7
-4 2 -14 88.29 8.5
4 2 14 111.99 23.2
-4 2 -14 113.19 10.7
-4 2 -14 124.39 26.5
4 2 14 101.39 5.5
5 -2 14 73.09 6.4
-5 -2 -14 83.19 10.7
-5 -2 -14 67.89 8.1
-5 2 -14 87.99 10.4
-5 2 -14 90.09 9.7
5 2 14 73.59 4.3
-6 -2 -14 77.49 9.3
-6 -2 -14 75.39 7.8
-6 2 -14 98.19 10
-6 2 -14 78.59 9.1
-7 -2 -14 17.6 7.6
-7 -2 -14 31.2 6.3
-7 2 -14 23 8.3
-7 2 -14 30.4 7.6
-8 -3 14 36 8.4
-8 -3 14 44.1 9.3
8 -3 -14 30.5 5.6
-8 3 14 47.2 8.4
-8 3 14 33.9 5.6
-7 -3 14 39.9 7.7
7 -3 -14 41.9 5.6
-7 3 14 61.99 8.4
-7 3 14 40.7 5.8
6 -3 -14 61.09 6.4
6 -3 -14 73.89 7.6
-6 -3 14 55.29 10.5
-6 -3 14 50.09 6.1
-6 3 14 52.59 6
6 3 -14 57.09 6
-6 3 14 58.59 7.6
-6 3 14 63.59 8.3
5 -3 -14 127.59 8.9
5 -3 -14 126.49 7.1
-5 -3 14 129.79 11
-5 3 14 145.99 11.1
-5 3 14 130.79 11.4
-5 3 14 109.29 8.3
5 3 -14 108.29 8.6
-5 3 14 71.09 25.2
4 -3 -14 167.98 8.9
4 -3 -14 167.38 9.7
-4 -3 14 176.48 11.6
-4 -3 14 176.48 9.2
-4 3 14 150.88 12
-4 3 14 153.78 12.8
-4 3 14 165.78 14.3
4 3 -14 168.78 9.8
-4 3 14 157.48 25
3 -3 -14 95.79 9
-3 -3 14 75.09 17.2
3 -3 -14 91.09 7.7
-3 -3 14 98.99 9.9
3 -3 -14 93.39 8.2
-3 3 14 81.89 20.5
-3 3 14 78.79 23.5
-3 3 14 112.79 9.1
-3 3 14 96.79 10
3 3 -14 93.29 8
3 3 -14 60.19 20
-2 -3 14 53.69 5.9
2 -3 -14 46.5 6
2 -3 -14 56.39 6.8
2 -3 -14 64.29 7.5
-2 -3 14 42.8 6.7
-2 3 14 46.4 5.7
2 3 -14 47.8 6.2
-2 3 14 65.09 18.4
-2 3 14 97.09 23.7
2 3 -14 65.49 21.6
-1 -3 14 185.88 11.5
1 -3 -14 159.68 10.8
-1 -3 14 159.68 10
-1 -3 14 101.59 20.4
1 -3 -14 177.18 10.6
1 -3 -14 193.58 10
-1 3 14 184.48 26.6
1 3 -14 178.68 10.7
-1 3 14 112.29 20.5
1 3 -14 166.58 5.4
-1 3 14 163.68 9.5
1 3 -14 176.08 25.3
0 -3 14 126.89 22.7
0 -3 -14 129.19 9.7
0 -3 -14 119.69 8.6
0 -3 14 123.59 10.3
0 -3 -14 123.19 9.3
0 -3 14 121.09 9
0 3 -14 139.89 9.5
0 3 -14 139.59 24.5
0 3 14 125.29 21.9
0 3 14 130.39 8.1
0 3 14 166.98 26.1
0 3 -14 114.39 5.7
-1 -3 -14 55.99 7.1
1 -3 14 56.79 7.4
-1 -3 -14 62.19 7.5
1 -3 14 60.79 20.7
-1 -3 -14 71.89 7.9
-1 3 -14 62.59 24.8
1 3 14 91.09 20.6
1 3 14 62.09 6.1
1 3 14 34.3 22.4
-1 3 -14 70.89 8.6
-1 3 -14 63.49 5.4
2 -3 14 94.89 22.7
-2 -3 -14 82.29 10
2 -3 14 74.79 9.7
-2 3 -14 81.39 9.9
2 3 14 63.59 6.6
2 3 14 35.3 24
-2 3 -14 67.69 6.7
2 3 14 50.79 21.5
-2 3 -14 61.39 26.8
3 -3 14 29.1 7.2
3 -3 14 101.89 23.9
-3 -3 -14 24.5 6.7
-3 -3 -14 19 5.4
3 3 14 23.7 21.1
-3 3 -14 7.4 23.9
3 3 14 29.4 4
-3 3 -14 31.4 5
4 -3 14 121.59 12
-4 -3 -14 88.79 11.5
-4 -3 -14 92.49 9.1
4 -3 14 113.19 9.4
4 3 14 106.99 5.8
4 3 14 46.2 26.6
-4 3 -14 96.79 11.2
-4 3 -14 108.49 9.5
5 -3 14 30.5 7.7
-5 -3 -14 47.3 8.1
-5 -3 -14 45 6.7
5 3 14 39.8 4
-5 3 -14 42.5 8
-5 3 -14 40.5 7.3
6 -3 14 36.9 8.4
-6 -3 -14 26.1 6.3
-6 -3 -14 47.2 9.1
-6 3 -14 39.5 8
-6 3 -14 35.4 8.3
7 -4 -14 49.99 6.6
-7 -4 14 53.19 9
-7 4 14 36.7 6.8
-7 4 14 46.7 7.8
-6 -4 14 9.3 7.2
6 -4 -14 25.9 5.4
-6 4 14 13.4 5.8
-6 4 14 15.2 6.6
-5 -4 14 35.5 8
5 -4 -14 39.1 6
-5 4 14 38.5 7.3
5 4 -14 39.4 6.3
-5 4 14 29.5 6.1
-4 -4 14 1 6.8
4 -4 -14 10.3 4.8
-4 4 14 0.6 5.3
-4 4 14 6.1 4.9
4 4 -14 -9.2 4.7
3 -4 -14 60.39 7.1
3 -4 -14 81.19 9.4
-3 -4 14 60.09 8.5
3 -4 -14 77.79 9
-3 -4 14 73.79 7.4
-3 4 14 73.89 8.5
-3 4 14 83.89 10.2
3 4 -14 80.59 9.3
-2 -4 14 41.9 6.3
2 -4 -14 51.09 6.4
2 -4 -14 44.7 7.1
-2 -4 14 49.3 7.7
2 -4 -14 56.49 8.3
-2 4 14 37.9 6.9
2 4 -14 42.6 7
-2 4 14 45.5 6.2
-1 -4 14 101.99 21.3
1 -4 -14 110.09 13
-1 -4 14 95.29 9.9
1 -4 -14 120.39 12.2
-1 -4 14 99.79 9.2
-1 4 14 58.39 22.7
1 4 -14 89.79 10
-1 4 14 97.49 9.4
-1 4 14 87.99 9.5
-1 4 14 64.29 30.1
1 4 -14 87.69 30.4
0 -4 14 12.5 7
0 -4 -14 -0.6 5.3
0 -4 14 28.1 20.9
0 -4 -14 -5.4 5.9
0 4 -14 3.3 2.7
0 4 14 7.2 5.2
0 4 14 71.99 27.5
0 4 14 9.8 4.7
0 4 -14 -3.7 5.5
0 4 -14 23.8 27.8
0 4 -14 3.9 3
0 4 14 -1.4 20.8
1 -4 14 109.99 12.3
-1 -4 -14 124.29 10.5
-1 -4 -14 114.59 12.3
-1 4 -14 136.79 31.4
1 4 14 120.89 24.8
-1 4 -14 127.29 7.2
-1 4 -14 130.59 12.6
1 4 14 118.79 8.5
2 -4 14 -1.4 22.9
-2 -4 -14 3.2 5.4
2 -4 14 -2.7 6.7
-2 -4 -14 2.2 6.9
-2 4 -14 2.3 4.4
2 4 14 3 3.9
-2 4 -14 8.3 7.1
-2 4 -14 -23.4 29.8
2 4 14 -7.8 24.3
-3 -4 -14 124.49 10.1
-3 -4 -14 121.59 13.9
3 -4 14 124.99 13.6
-3 4 -14 94.69 44.7
-3 4 -14 103.49 9.2
3 4 14 114.09 7.4
-3 4 -14 107.59 12.9
-4 -4 -14 -0.3 5.5
-4 -4 -14 -12.8 6.5
4 -4 14 5 7.8
-4 4 -14 4.9 7.6
4 4 14 -0.8 3.5
-4 4 -14 3.9 5.7
-5 -4 -14 31.4 9
-5 -4 -14 14.3 6.2
5 -4 14 34.7 9.7
-5 4 -14 31.6 8.8
-5 4 -14 32 7.7
4 -5 -14 30.5 7.3
-4 -5 14 29.3 9.1
-4 5 14 30.1 7.9
4 5 -14 27.7 7.5
-4 5 14 30.2 6.7
-3 -5 14 -3.1 8
3 -5 -14 -1.9 6.3
-3 5 14 5.3 6.7
3 5 -14 2.1 6.9
-3 5 14 7.4 5.9
-2 -5 14 52.59 9.6
2 -5 -14 58.69 8.2
2 -5 -14 47 9.3
2 5 -14 59.79 8.7
-2 5 14 43.5 7.3
-2 5 14 51.69 7.9
-1 -5 14 6 7.4
1 -5 -14 -7.6 7.8
1 -5 -14 6.3 6.5
-1 5 14 7.4 6.8
-1 5 14 4.4 6.1
1 5 -14 0.7 7
0 -5 14 140.99 14.2
0 -5 -14 174.68 15.6
0 -5 -14 146.89 12.3
0 5 14 173.78 13
0 5 14 168.48 11.5
-1 -5 -14 -6.2 5.8
-1 -5 -14 5.9 7.1
1 -5 14 0.1 8.6
1 5 14 4 6.2
1 5 14 -2.9 5
-1 5 -14 -5.4 4.4
-1 5 -14 -2.6 7.6
-2 -5 -14 80.79 8.9
-2 -5 -14 85.79 10.7
2 -5 14 89.29 11.7
-2 5 -14 71.79 11.3
2 5 14 101.99 12.6
-2 5 -14 77.29 9.9
-9 0 15 47.3 5.4
-9 0 15 37.5 9.3
-9 0 15 42.6 4.4
-8 0 15 6.6 6.7
-8 0 15 7.3 4.1
8 0 -15 6.6 5.1
-7 0 15 133.09 8.4
7 0 -15 123.59 11.6
-7 0 15 134.69 8.4
-7 0 15 123.59 6.7
7 0 -15 125.29 7.9
-7 0 15 150.58 12
6 0 -15 1.9 3.2
-6 0 15 3.7 7.2
-6 0 15 2.6 3.7
6 0 -15 6.4 3.8
-6 0 15 3.4 2.7
-6 0 15 1.9 3.8
-6 0 15 -5.9 11.3
-5 0 15 98.39 5.7
5 0 -15 100.19 6.7
5 0 -15 90.99 7.5
-5 0 15 91.59 7.9
-5 0 15 99.09 9.7
-5 0 15 106.09 18.6
-5 0 15 108.49 7.8
-5 0 15 74.99 15.9
4 0 -15 -3.1 3
-4 0 15 -1.6 2.3
-4 0 15 -6.9 3.6
-4 0 15 -0.1 3.6
-4 0 15 -2.9 4.3
4 0 -15 -8.4 3.8
-4 0 15 -7.1 12.1
-3 0 15 54.89 4.4
-3 0 15 49.4 6.4
-3 0 15 41.1 5.2
3 0 -15 48.1 5.3
3 0 -15 41 4.5
3 0 -15 53.69 6
-3 0 15 52.99 16.7
-3 0 15 57.69 6.8
-3 0 15 42.7 15.2
-2 0 15 2.1 4.1
-2 0 15 -11.5 14.7
2 0 -15 0.7 3.2
-2 0 15 0.7 4
-2 0 15 1.7 3.6
-2 0 15 22.2 14
2 0 -15 8.9 4.5
2 0 -15 2.1 2.7
-2 0 15 2.9 2.5
1 0 -15 590.04 17.5
1 0 -15 554.94 19
1 0 -15 597.74 19
-1 0 15 597.34 19.2
-1 0 15 613.74 34.7
-1 0 15 616.84 19.5
-1 0 15 568.84 19.4
-1 0 15 608.04 35.3
-1 0 15 567.74 17.2
0 0 15 15.6 15.4
0 0 15 6.5 3.4
0 0 15 3.6 2.9
0 0 -15 1.1 2.7
0 0 15 0.9 4
0 0 15 6.9 14.2
0 0 15 2.2 3.4
0 0 -15 4.5 3.3
-1 0 -15 121.89 8.3
1 0 15 109.19 21.7
-1 0 -15 115.09 7.4
1 0 15 116.49 8
1 0 15 108.29 7.2
-2 0 -15 1.9 4
2 0 15 27.2 19.2
-2 0 -15 1.5 3.3
2 0 15 0.8 3.3
-3 0 -15 107.29 8.8
3 0 15 79.79 21.9
3 0 15 100.99 6.7
-3 0 -15 90.89 8.1
4 0 15 7.8 26.7
4 0 15 -2.1 2.8
-4 0 -15 0.1 4.6
-4 0 -15 0.7 4.2
5 0 15 247.68 8.9
-5 0 -15 259.87 14.2
-5 0 -15 252.37 13.2
-6 0 -15 -7.8 5.5
-6 0 -15 -2.4 6.5
-7 0 -15 43.1 7.5
-7 0 -15 53.49 9.4
-9 -1 15 9.5 7.8
-9 -1 15 2.7 2.8
-9 -1 15 11.2 5.1
-9 1 15 -2.1 7
-9 1 15 4.3 3.7
-8 -1 15 127.49 9.8
-8 -1 15 142.89 13.4
-8 1 15 134.69 12.3
-8 1 15 122.99 13.2
-8 1 15 120.09 7.8
-7 -1 15 16.9 4
-7 -1 15 17.5 7.5
7 -1 -15 16.2 3.9
7 -1 -15 22.5 3.5
-7 -1 15 15 4.6
-7 1 15 11.1 4.8
-7 1 15 13.6 6.5
7 1 -15 17.7 3.8
7 1 -15 15.2 4.8
-6 -1 15 33.1 4.6
6 -1 -15 34.8 4.2
-6 -1 15 40.7 7.8
6 -1 -15 36.8 4.3
-6 -1 15 29 5.1
-6 -1 15 32.3 13.4
-6 1 15 34.3 5.6
-6 1 15 34.9 7
6 1 -15 50.99 6
-6 1 15 37.7 4.8
6 1 -15 35.4 4.8
-5 -1 15 79.89 9.8
-5 -1 15 45.7 14
-5 -1 15 67.89 7.6
5 -1 -15 76.99 6.2
5 -1 -15 79.29 6.8
-5 -1 15 75.79 7.2
-5 -1 15 57.89 14.1
5 1 -15 56.29 6
-5 1 15 67.49 8.2
-5 1 15 64.29 6.3
-5 1 15 58.59 16.9
5 1 -15 90.09 7
-5 1 15 71.29 18.2
-5 1 15 61.09 7.3
4 -1 -15 296.97 11.6
-4 -1 15 280.57 13.6
4 -1 -15 291.57 11.4
-4 -1 15 274.57 26.2
-4 -1 15 294.37 11.8
-4 -1 15 291.47 12.6
-4 1 15 291.17 26.2
4 1 -15 296.97 12.3
-4 1 15 286.77 11
4 1 -15 284.57 11.4
-4 1 15 301.87 13.6
-4 1 15 281.47 13.1
-3 -1 15 199.78 11.5
3 -1 -15 199.18 9.3
3 -1 -15 217.88 9.9
3 -1 -15 205.68 10.4
-3 -1 15 201.78 10.6
-3 -1 15 216.48 11.4
-3 1 15 225.48 24.7
3 1 -15 206.58 9.9
-3 1 15 190.68 11
-3 1 15 214.38 11.2
-3 1 15 200.08 9
3 1 -15 206.38 10.4
-3 1 15 221.98 27.8
-2 -1 15 255.77 11.9
2 -1 -15 243.98 11.3
2 -1 -15 250.47 10.9
2 -1 -15 237.38 10.2
-2 -1 15 237.58 26.2
-2 -1 15 235.98 11.9
-2 -1 15 241.48 11
2 1 -15 300.67 28.1
-2 1 15 231.08 22.7
-2 1 15 250.77 11.9
-2 1 15 252.77 11.6
-2 1 15 248.38 10.1
2 1 -15 253.17 8.3
-2 1 15 236.08 28
2 1 -15 266.17 11.2
1 -1 -15 217.08 11.2
1 -1 -15 226.28 10.3
-1 -1 15 218.68 11
-1 -1 15 247.08 27.6
-1 -1 15 238.28 11.7
-1 -1 15 218.58 10.7
1 -1 -15 238.28 10.4
-1 1 15 208.18 24.9
1 1 -15 209.48 27.6
-1 1 15 220.38 9.8
1 1 -15 232.98 8.2
-1 1 15 304.07 30.7
1 1 -15 228.88 11
-1 1 15 232.48 10.6
-1 1 15 235.48 11.7
0 -1 15 63.69 7.4
0 -1 15 49.3 5.8
0 -1 -15 55.59 6.5
0 -1 15 95.39 19.6
0 -1 -15 58.49 7.8
0 -1 15 66.49 6.9
0 -1 -15 56.89 6.4
0 1 15 64.19 16.6
0 1 15 61.69 6.2
0 1 -15 62.39 7
0 1 -15 66.29 19.7
0 1 15 59.99 6.5
0 1 15 41.9 5.6
0 1 15 71.99 19.5
0 1 -15 63.89 5.1
1 -1 15 29.9 4.5
-1 -1 -15 33.9 5.1
-1 -1 -15 29.3 4.8
1 -1 15 29.5 17.3
1 -1 15 25.5 5
1 1 15 36.3 4.9
-1 1 -15 25.1 20.2
1 1 15 47.9 19.5
1 1 15 -9.7 18.5
-1 1 -15 41.5 5.8
-1 1 -15 38.4 4.5
1 1 15 29.5 4.9
-2 -1 -15 389.06 14.9
2 -1 15 340.97 32.5
2 -1 15 392.26 14.3
-2 -1 -15 398.66 15.3
2 -1 15 396.06 15.7
2 1 15 380.86 13.3
2 1 15 374.56 34.9
-2 1 -15 419.86 35.9
-2 1 -15 382.16 15.4
2 1 15 378.36 34.3
-2 1 -15 385.76 13.8
-3 -1 -15 -3.7 4.3
3 -1 15 6.2 3.8
-3 -1 -15 1.3 4.2
3 -1 15 2.5 7.3
3 -1 15 -9.5 19.9
-3 1 -15 14.4 27.2
3 1 15 6.8 21.1
3 1 15 24.6 21.1
-3 1 -15 0.3 4.9
-3 1 -15 3.4 3.5
3 1 15 0.6 2.7
-4 -1 -15 103.89 9.5
4 -1 15 30.8 36.1
-4 -1 -15 94.39 10
4 -1 15 94.89 7.4
4 1 15 105.79 5.8
-4 1 -15 93.19 24.4
-4 1 -15 92.19 8.8
4 1 15 97.29 24.8
-4 1 -15 103.19 10.1
5 -1 15 -4.1 3.4
-5 -1 -15 3.7 5.9
-5 -1 -15 -1.9 5
5 1 15 -3.7 26.4
-5 1 -15 -1.2 5.6
-5 1 -15 5.1 9.4
5 1 15 -1.7 2.3
-6 -1 -15 58.49 7.7
6 -1 15 44 5.4
-6 -1 -15 41.8 7.8
-6 1 -15 46.6 8.1
-6 1 -15 56.69 8.7
-7 -1 -15 9.1 7.6
-7 -1 -15 6.2 6
-7 1 -15 3.8 8.1
-7 1 -15 5 6.5
-9 -2 15 14.6 8.6
-9 -2 15 21.9 6.8
-9 2 15 17.8 8
-9 2 15 17.5 4.7
-8 -2 15 34.1 8.6
8 -2 -15 26.8 4.9
-8 -2 15 26.5 6.7
-8 2 15 29.8 8.1
-8 2 15 25.1 4.9
-7 -2 15 90.09 10.4
7 -2 -15 88.59 7.6
-7 -2 15 88.29 10
-7 2 15 97.09 11.3
7 2 -15 91.29 6.9
-7 2 15 76.99 7.9
6 -2 -15 60.79 5.7
-6 -2 15 74.69 7.6
6 -2 -15 63.59 7
-6 -2 15 75.99 9
-6 -2 15 72.19 6.7
-6 2 15 88.99 10.5
6 2 -15 83.59 8.7
-6 2 15 84.99 7.5
-6 2 15 55.69 6.8
-6 2 15 62.19 7.4
-5 -2 15 287.27 13.5
-5 -2 15 246.88 14.4
5 -2 -15 273.47 10.4
5 -2 -15 290.27 11.7
-5 -2 15 249.88 11.2
5 2 -15 267.67 11.7
-5 2 15 266.97 13.4
-5 2 15 313.17 31.4
-5 2 15 285.57 14.3
-5 2 15 234.98 11.8
-4 -2 15 60.09 6.9
-4 -2 15 59.29 15.2
4 -2 -15 64.49 7.3
4 -2 -15 67.49 7.5
-4 -2 15 78.09 8
4 2 -15 60.79 7.4
4 2 -15 34.1 20.8
-4 2 15 81.69 7.8
-4 2 15 58.89 7.1
-4 2 15 59.39 18.4
-4 2 15 65.69 7.3
3 -2 -15 184.78 9.9
-3 -2 15 202.48 11.4
3 -2 -15 200.48 10
3 -2 -15 191.08 10
3 2 -15 226.48 27.6
3 2 -15 206.98 10.1
-3 2 15 189.28 9.8
-3 2 15 201.18 25.6
-3 2 15 190.28 11.3
-3 2 15 155.38 11.4
-3 2 15 173.88 25.7
-2 -2 15 172.98 10.6
-2 -2 15 159.08 9.5
2 -2 -15 166.58 9.2
2 -2 -15 164.78 10.1
2 -2 -15 167.68 8.9
-2 2 15 156.88 9.5
2 2 -15 143.39 23.4
-2 2 15 158.78 9.9
-2 2 15 171.18 11.3
-2 2 15 182.88 23.9
2 2 -15 162.58 10.1
-2 2 15 185.28 26.7
1 -2 -15 290.57 12
-1 -2 15 280.57 13.4
-1 -2 15 267.37 28.4
1 -2 -15 285.47 12.4
-1 -2 15 278.07 12.3
1 -2 -15 285.77 13.3
-1 2 15 305.57 15.9
-1 2 15 324.07 34.4
-1 2 15 271.67 28.1
1 2 -15 305.07 13.2
1 2 -15 284.07 9
-1 2 15 278.07 11.9
1 2 -15 288.17 30
-1 2 15 303.27 12.5
0 -2 -15 79.39 7.3
0 -2 15 72.19 19.3
0 -2 15 77.29 8.1
0 -2 15 82.19 8.7
0 -2 -15 78.89 8.2
0 2 15 76.89 6.9
0 2 15 95.29 20.1
0 2 -15 77.09 8.3
0 2 15 87.49 23.9
0 2 -15 69.69 21.6
0 2 -15 78.49 4.8
-1 -2 -15 118.29 9.1
1 -2 15 115.49 22.8
-1 -2 -15 108.89 8.4
1 -2 15 111.19 10.3
-1 2 -15 100.59 6.1
1 2 15 118.09 7.6
1 2 15 107.79 24.9
1 2 15 139.79 23.6
-1 2 -15 144.79 27.8
-1 2 -15 111.69 9.5
-2 -2 -15 67.89 7.9
-2 -2 -15 56.79 6.9
2 -2 15 55.79 21.3
2 2 15 30.2 22.5
2 2 15 36.2 22.8
-2 2 -15 63.59 7.3
-2 2 -15 59.19 6.6
-2 2 -15 69.69 23.5
2 2 15 55.89 6.2
3 -2 15 111.29 24.2
3 -2 15 115.29 11.4
-3 -2 -15 116.59 9.4
-3 -2 -15 125.99 12.8
-3 2 -15 125.79 8.4
-3 2 -15 147.79 27.7
3 2 15 99.59 24.5
3 2 15 124.09 6.8
-4 -2 -15 42.1 7.2
-4 -2 -15 42.3 6.7
4 -2 15 31.9 7.6
4 -2 15 42.5 5
4 2 15 12 22.8
4 2 15 37.5 3.9
-4 2 -15 37 6.3
-4 2 -15 52.49 7.6
-5 -2 -15 52.09 7.2
-5 -2 -15 65.29 9
-5 2 -15 37 7.9
5 2 15 51.19 3.8
-5 2 -15 49.6 12.6
-6 -2 -15 63.69 8
-6 -2 -15 81.99 10.5
6 -2 15 66.49 7.7
-6 2 -15 82.59 9.9
-6 2 -15 76.39 9
-8 -3 15 15.8 7.8
-8 -3 15 14.8 8.2
-8 3 15 16 7.8
-8 3 15 28.4 5.7
-7 -3 15 36.2 8.9
-7 -3 15 39.6 7.9
7 -3 -15 44.7 6.4
-7 3 15 46.5 6.1
-7 3 15 32.4 8.4
6 -3 -15 26.9 5.4
-6 -3 15 17.9 6.9
-6 3 15 19.8 8.2
-6 3 15 19.8 5.2
6 3 -15 17 5
-6 3 15 26 6.8
-5 -3 15 97.79 8.1
5 -3 -15 105.49 8.2
5 -3 -15 100.99 11.8
-5 -3 15 107.19 11.6
5 3 -15 90.89 8.9
-5 3 15 76.39 9.6
-5 3 15 104.49 10.8
-5 3 15 98.79 8.3
-4 -3 15 120.19 13.8
4 -3 -15 131.29 8.9
4 -3 -15 136.99 8.8
-4 -3 15 141.29 9.5
4 3 -15 134.59 9.6
-4 3 15 166.98 29.1
-4 3 15 138.79 9.4
-4 3 15 129.19 11.7
-4 3 15 146.59 11.2
3 -3 -15 94.09 9.7
-3 -3 15 88.89 8.7
3 -3 -15 86.19 9
3 -3 -15 83.19 7.8
3 3 -15 82.09 9
2 -3 -15 70.49 7.5
2 -3 -15 82.09 9.7
-2 -3 15 84.59 8.7
-2 -3 15 74.79 20.4
2 -3 -15 66.19 7.3
-2 3 15 59.99 7.1
2 3 -15 74.89 8.7
-2 3 15 113.79 25.8
2 3 -15 93.39 25.7
-2 3 15 69.49 20.6
1 -3 -15 67.99 8.1
-1 -3 15 50.29 7.9
1 -3 -15 82.09 9.5
-1 -3 15 83.39 8.8
-1 3 15 83.79 27
-1 3 15 57.09 21
-1 3 15 75.79 8
1 3 -15 73.39 9
1 3 -15 82.99 26.1
0 -3 -15 132.99 10.9
0 -3 15 136.69 12
0 -3 -15 127.19 9.4
0 3 15 124.69 27.5
0 3 -15 134.69 6.2
0 3 -15 138.79 10.5
0 3 15 130.89 23.6
0 3 15 110.79 8.7
0 3 -15 111.59 28.3
1 -3 15 111.39 25.2
1 -3 15 72.49 9
-1 -3 -15 60.49 8.2
1 3 15 59.49 23.8
1 3 15 73.09 25.6
-1 3 -15 21.9 26.3
1 3 15 66.29 7
-1 3 -15 76.09 8.7
-1 3 -15 67.59 5.7
-2 -3 -15 26.3 7
-2 -3 -15 17.6 5.4
2 -3 15 18.5 22.4
2 -3 15 23.6 6.9
2 3 15 22 4.2
-2 3 -15 24.2 25.4
-2 3 -15 24.4 4.8
-2 3 -15 8.7 7.3
2 3 15 3.7 20.8
3 -3 15 60.49 8.4
-3 -3 -15 104.99 11.7
-3 -3 -15 56.39 7.1
-3 3 -15 53.89 30.5
-3 3 -15 63.89 7.6
3 3 15 21.9 25.5
-3 3 -15 57.99 8.8
3 3 15 81.39 6.6
-4 -3 -15 70.39 9.6
4 -3 15 62.99 9.1
-4 -3 -15 58.59 7.6
4 3 15 71.89 5.7
-4 3 -15 59.59 9.2
-4 3 -15 61.29 7.3
-5 -3 -15 65.09 7.9
-5 -3 -15 85.69 10.8
5 -3 15 72.49 9.5
-5 3 -15 75.99 9.7
-5 3 -15 73.39 9.3
6 -4 -15 19.9 6.2
-6 -4 15 23.4 9
-6 4 15 16 5.3
-6 4 15 21.2 7
5 -4 -15 9.9 5.5
-5 -4 15 24.2 7.4
-5 4 15 22.7 5.9
5 4 -15 20.7 6.4
-5 4 15 16.2 6.9
4 -4 -15 51.79 6.9
-4 -4 15 64.09 9.4
4 4 -15 41.9 6.8
-4 4 15 47.7 7.4
-4 4 15 50.79 7.3
-3 -4 15 2.2 6.2
3 -4 -15 6 5.6
-3 -4 15 16.8 7.7
3 -4 -15 23.2 7.7
-3 4 15 9.6 5.9
-3 4 15 -78.09 29.7
3 4 -15 4.5 5.9
-3 4 15 21.1 5.7
2 -4 -15 20.3 6.9
2 -4 -15 33.7 8
-2 -4 15 33.6 7.6
-2 -4 15 17.7 6
2 4 -15 29 6.6
-2 4 15 23.9 5.7
-2 4 15 24.9 6.4
-1 -4 15 42.5 7.8
1 -4 -15 46.6 8.8
1 -4 -15 41.8 6.6
-1 4 15 39.9 6.9
-1 4 15 55.69 7.2
1 4 -15 56.49 8
-1 4 15 66.99 31.4
0 -4 -15 109.19 10
0 -4 15 94.89 10.6
0 -4 -15 108.79 13.1
0 -4 15 53.99 24.7
0 4 -15 93.49 5.3
0 4 -15 109.39 11.4
0 4 15 115.69 26.4
0 4 15 103.29 9.8
-1 -4 -15 4.3 7.2
-1 -4 -15 10.1 5.9
1 -4 15 2.2 23.8
1 -4 15 8 7.6
1 4 15 -6.8 25.3
-1 4 -15 12.9 3.7
1 4 15 14.9 4.7
-1 4 -15 60.79 36
-2 -4 -15 44.9 7.3
2 -4 15 63.89 10.2
-2 -4 -15 38.4 8.3
-2 4 -15 33.2 8.4
-2 4 -15 70.69 37.1
-2 4 -15 53.09 6.4
2 4 15 20 30.7
2 4 15 47.9 5.9
-3 -4 -15 2.3 7.5
-3 -4 -15 10.2 5.4
3 -4 15 15.3 8.3
-3 4 -15 -1.3 5.1
-3 4 -15 12.4 8.4
3 4 15 6.6 4
-4 -4 -15 87.29 11.6
4 -4 15 69.69 10.9
-4 -4 -15 48.1 7.6
4 4 15 61.19 6.9
-4 4 -15 56.89 10.5
-4 4 -15 63.69 8.5
3 -5 -15 39.1 8.1
-3 -5 15 41.3 9.6
-3 5 15 40.4 8.4
-3 5 15 30 7
3 5 -15 22.5 8
2 -5 -15 0.7 7.2
-2 -5 15 2.3 8.7
2 -5 -15 13.2 8.8
-2 5 15 -3.9 7.2
2 5 -15 -9.4 7.4
-2 5 15 7.5 6.6
1 -5 -15 43.8 10.4
-1 -5 15 45.9 9.8
1 -5 -15 46.5 8.4
1 5 -15 39.8 9.6
-1 5 15 40.9 7.4
-1 5 15 36.4 8.4
0 -5 -15 28.4 7.7
0 -5 -15 21.5 9.6
0 -5 15 23.1 8.4
0 5 15 40.2 7.3
0 5 -15 27.1 9.4
0 5 15 25.2 8.5
-9 0 16 4.1 3.8
-9 0 16 1.1 4.5
-9 0 16 -1 7.8
-8 0 16 86.69 8.7
-8 0 16 76.69 9.8
7 0 -16 0.4 4.7
-7 0 16 0.8 6.4
7 0 -16 0.3 3.9
-7 0 16 -1.8 4
6 0 -16 180.98 9.9
6 0 -16 188.78 9.5
-6 0 16 220.18 13.9
-6 0 16 181.68 7.8
-6 0 16 189.88 10.2
-6 0 16 199.08 10.3
5 0 -16 -1.5 3.4
-5 0 16 2.7 2.8
5 0 -16 2.4 4.4
-5 0 16 -5.3 4.5
-5 0 16 4.3 3.8
-5 0 16 3.6 5.9
4 0 -16 91.59 9
-4 0 16 118.49 20.5
-4 0 16 95.39 8.4
-4 0 16 93.39 5.6
4 0 -16 97.79 7.4
-4 0 16 110.49 8.7
-4 0 16 118.99 10.3
3 0 -16 4.2 4.3
3 0 -16 0.4 2.5
-3 0 16 -16.9 16.2
-3 0 16 -4.8 4.7
3 0 -16 -0.2 3.4
-3 0 16 0.2 3.6
-3 0 16 -1.4 4.5
-3 0 16 3.3 2.6
-2 0 16 35.6 6.1
-2 0 16 45.4 16.8
2 0 -16 30.6 3.8
-2 0 16 14.9 17.7
-2 0 16 29.2 5.5
2 0 -16 27.3 5.2
-2 0 16 32.3 5.1
-2 0 16 26.9 3.8
-1 0 16 -28 16.7
-1 0 16 -1.5 3.9
-1 0 16 3.2 16.9
-1 0 16 -2.7 3
-1 0 16 -7.7 4.8
1 0 -16 -0.4 2.9
-1 0 16 -1.1 4.1
1 0 -16 -2.8 3.5
0 0 16 165.08 9.6
0 0 -16 147.09 9.4
0 0 -16 156.88 8.5
0 0 16 157.18 8.3
0 0 16 189.18 24.2
0 0 16 159.18 9.9
0 0 16 147.09 25.7
-1 0 -16 1.8 4.2
-1 0 -16 -3.3 3.2
1 0 16 -12.6 19.3
1 0 16 -4.1 3.8
1 0 16 3.1 3.7
1 0 16 -13.4 17.1
-2 0 -16 78.09 8.7
-2 0 -16 84.79 7.5
2 0 16 99.79 23.2
2 0 16 80.69 7.5
-3 0 -16 -0.9 4
-3 0 -16 -4.4 5.1
3 0 16 3.2 3.3
-4 0 -16 28.3 6.7
4 0 16 38.2 4.2
-4 0 -16 47.9 7
5 0 16 -1.2 2.9
-5 0 -16 2.6 5.7
-5 0 -16 4.4 6
-6 0 -16 113.29 11.9
-6 0 -16 115.99 13.5
-9 -1 16 46.6 6.9
-9 -1 16 60.09 9.7
-9 1 16 56.29 8.8
-9 1 16 67.99 7.7
-8 -1 16 12.3 7.6
-8 -1 16 2.2 5.3
-8 1 16 -1.4 4.1
-8 1 16 8.3 7.4
-7 -1 16 126.19 12.4
7 -1 -16 112.79 8.2
-7 -1 16 115.79 9.7
7 1 -16 136.89 8.3
-7 1 16 114.99 12.3
-7 1 16 99.89 9
6 -1 -16 10 4
-6 -1 16 7.9 4.7
-6 -1 16 0 6.1
6 -1 -16 -3.8 3.8
-6 -1 16 3.5 5.5
-6 1 16 3.3 4.5
-6 1 16 6.8 5.5
-6 1 16 -0.1 6
6 1 -16 -5.7 3.6
-5 -1 16 42.8 7.3
-5 -1 16 42.7 6.4
5 -1 -16 44.5 5.5
-5 -1 16 48.4 5.9
5 -1 -16 40 5.1
-5 1 16 33.8 7.1
-5 1 16 45.5 5.4
-5 1 16 54.59 7.1
5 1 -16 51.49 5.4
-4 -1 16 66.39 7.1
-4 -1 16 96.29 19.4
4 -1 -16 80.19 6.7
-4 -1 16 73.29 8
4 -1 -16 59.49 6.4
-4 -1 16 67.99 8.9
-4 -1 16 62.39 17.2
-4 1 16 61.99 17.4
-4 1 16 70.49 7.6
4 1 -16 63.89 6.9
-4 1 16 52.09 20.1
-4 1 16 61.19 6.8
-4 1 16 81.79 9.5
-3 -1 16 286.67 13
3 -1 -16 293.87 13.2
-3 -1 16 287.67 13.2
-3 -1 16 298.87 14.5
3 -1 -16 309.47 12
3 -1 -16 296.57 12.4
-3 1 16 279.67 13.6
-3 1 16 291.67 27.8
-3 1 16 286.87 11.3
3 1 -16 312.97 12.7
-3 1 16 307.97 14
2 -1 -16 175.38 10.6
-2 -1 16 194.68 11.3
-2 -1 16 212.08 11.5
-2 -1 16 195.78 10.8
2 -1 -16 209.28 9.8
2 -1 -16 190.28 9.8
-2 1 16 173.68 11.3
2 1 -16 194.68 10.4
-2 1 16 183.68 11.2
-2 1 16 208.18 26.3
-2 1 16 169.68 9.2
-2 1 16 188.88 26.8
2 1 -16 218.38 26.2
2 1 -16 192.28 7.5
-1 -1 16 113.79 9.3
-1 -1 16 132.59 22.8
-1 -1 16 119.99 9.3
-1 -1 16 122.39 9.5
1 -1 -16 112.99 8.4
1 -1 -16 118.19 8.1
-1 1 16 123.69 9.1
-1 1 16 110.19 23.5
1 1 -16 117.89 8.8
1 1 -16 116.49 22
-1 1 16 112.49 9.7
-1 1 16 121.69 7.9
1 1 -16 110.09 6.1
-1 1 16 91.59 18.8
0 -1 -16 80.39 7.3
0 -1 16 59.59 6.8
0 -1 -16 73.99 8.1
0 -1 16 63.09 21.6
0 -1 16 71.89 8
0 1 16 79.29 7.7
0 1 -16 78.19 5.6
0 1 -16 67.19 20.3
0 1 -16 65.69 8
0 1 16 29.1 17.6
0 1 16 85.29 7.4
0 1 16 46.3 21.3
1 -1 16 119.89 24.9
-1 -1 -16 150.18 9.8
-1 -1 -16 155.48 9.6
1 -1 16 148.09 9.5
1 -1 16 146.79 10.5
-1 1 -16 160.28 10.3
1 1 16 151.08 8.9
-1 1 -16 167.88 27.2
1 1 16 122.59 24.1
-1 1 -16 144.99 8
1 1 16 142.99 10.7
1 1 16 195.38 28.1
-2 -1 -16 85.49 9
2 -1 16 80.89 23.7
-2 -1 -16 84.59 8.9
2 -1 16 84.69 8.8
2 -1 16 88.79 8.3
-2 1 -16 85.49 7.3
2 1 16 92.79 7.3
-2 1 -16 129.69 25.1
2 1 16 107.99 23.4
2 1 16 112.49 24.6
-2 1 -16 86.59 9.3
-3 -1 -16 190.18 11.8
3 -1 16 212.28 29.4
-3 -1 -16 178.98 11.9
3 -1 16 171.88 9.8
3 1 16 173.88 8.6
-3 1 -16 189.18 12.4
-3 1 -16 143.79 29.1
3 1 16 166.28 27.7
-3 1 -16 179.78 10.4
-4 -1 -16 4.8 5.9
4 -1 16 0.6 4.1
-4 -1 -16 -4 5.1
-4 1 -16 6.2 5.3
-4 1 -16 -2.3 5.3
4 1 16 -25.7 25.2
4 1 16 -1.6 2.9
-5 -1 -16 117.59 12.5
-5 -1 -16 79.99 8.9
5 -1 16 86.69 6.8
-5 1 -16 77.89 9.4
-5 1 -16 106.19 11.2
5 1 16 87.79 5.1
-6 -1 -16 8.9 7.3
-6 -1 -16 11.5 6.4
-6 1 -16 12.8 7.2
-6 1 -16 15.3 6.7
-8 -2 16 33.4 9
-8 2 16 -4.2 6.4
-8 2 16 18.2 4.9
7 -2 -16 44.1 5.5
-7 -2 16 45.7 9.2
-7 -2 16 54.29 7.8
-7 2 16 45.3 8.6
-7 2 16 44.2 6
-6 -2 16 97.69 11
-6 -2 16 112.99 13.1
6 -2 -16 86.89 8.5
-6 2 16 94.89 8.3
6 2 -16 97.29 8.1
-6 2 16 120.69 12.3
-6 2 16 86.99 9.2
5 -2 -16 55.39 6.4
-5 -2 16 50.39 7.7
-5 -2 16 68.29 9.2
5 -2 -16 48 5.3
-5 -2 16 58.59 6.1
-5 2 16 48.5 7.6
5 2 -16 62.99 6.3
-5 2 16 52.29 8.1
4 -2 -16 137.59 9.3
-4 -2 16 140.79 11.1
-4 -2 16 134.89 11.3
4 -2 -16 125.49 10
-4 -2 16 145.19 12.5
-4 2 16 123.89 24.3
4 2 -16 145.09 9.2
-4 2 16 137.69 9.4
-4 2 16 140.69 11.8
-4 2 16 154.78 11.7
-3 -2 16 95.19 8.5
-3 -2 16 77.49 8.1
3 -2 -16 92.49 8.4
3 -2 -16 79.99 7.3
3 -2 -16 82.19 7.3
-3 -2 16 49.4 17.7
-3 2 16 70.19 8.5
3 2 -16 67.49 25.5
-3 2 16 65.89 29.4
-3 2 16 82.09 9.5
-3 2 16 59.89 6.5
3 2 -16 69.59 7.3
2 -2 -16 119.49 10.3
2 -2 -16 142.99 9
2 -2 -16 155.98 9.7
-2 -2 16 121.89 9.6
-2 -2 16 146.79 10.8
-2 2 16 139.29 22.5
2 2 -16 138.29 26.6
-2 2 16 155.88 28.4
2 2 -16 139.49 10.2
-2 2 16 140.09 10.2
1 -2 -16 120.39 9
-1 -2 16 130.69 10.1
1 -2 -16 119.49 9.5
-1 -2 16 118.69 10.6
1 2 -16 123.69 9.2
-1 2 16 93.99 21.1
-1 2 16 121.19 9.4
1 2 -16 122.09 5.5
-1 2 16 100.79 25.5
1 2 -16 132.59 26.1
0 -2 -16 168.88 10.2
0 -2 -16 168.38 11
0 -2 16 252.57 32.6
0 2 -16 190.08 11.8
0 2 16 122.49 27.6
0 2 16 187.18 10.3
0 2 16 163.48 33.7
0 2 -16 151.78 27.3
0 2 -16 175.38 7.3
-1 -2 -16 25.5 5.5
1 -2 16 31.7 7
1 -2 16 29.4 22
-1 -2 -16 33.3 6.1
-1 2 -16 28.9 4
-1 2 -16 25.1 24.3
1 2 16 13.7 23.1
-1 2 -16 33.3 6.6
1 2 16 18.9 19.6
1 2 16 37.6 4.9
2 -2 16 195.28 13.1
2 -2 16 169.48 43.2
-2 -2 -16 198.88 11.8
-2 -2 -16 198.08 13.5
2 2 16 161.98 25.7
2 2 16 191.08 9.3
2 2 16 213.58 32.4
-2 2 -16 195.08 9.6
-2 2 -16 187.18 30.9
-2 2 -16 193.68 13.1
-3 -2 -16 30.4 7.2
3 -2 16 27.5 7.2
3 -2 16 56.19 30.6
-3 -2 -16 25.3 5.8
-3 2 -16 28.2 5.3
3 2 16 40.9 25
-3 2 -16 60.39 27.8
-3 2 -16 26.2 7.3
3 2 16 28.4 4.2
4 -2 16 97.09 10.5
-4 -2 -16 107.19 12.7
-4 -2 -16 97.79 10.1
4 2 16 40.2 40.4
-4 2 -16 91.49 9.7
4 2 16 88.79 6
-4 2 -16 109.19 12.4
-5 -2 -16 23.1 6.5
-5 -2 -16 17.8 7.9
5 -2 16 13.7 5
-5 2 -16 11.1 7.6
-5 2 -16 15.7 7.2
-7 -3 16 12.9 8.1
-7 -3 16 18.1 8.6
7 -3 -16 15.3 6
-7 3 16 14.9 7.4
-7 3 16 10.8 5.4
-6 -3 16 45.7 9.9
6 -3 -16 55.99 6.4
-6 -3 16 56.19 9.2
-6 3 16 43.6 6.5
-6 3 16 55.59 9.5
-5 -3 16 60.29 8.7
5 -3 -16 59.69 6.6
5 3 -16 55.69 7.3
-5 3 16 49.1 7.8
-5 3 16 47.2 6.1
4 -3 -16 75.89 8.9
4 -3 -16 89.39 9
-4 -3 16 80.29 9.5
-4 -3 16 74.39 9.3
-4 3 16 77.79 8.6
-4 3 16 72.29 8.9
4 3 -16 78.59 7.5
-3 -3 16 105.89 10.3
3 -3 -16 82.29 7.7
3 -3 -16 77.69 9.1
-3 -3 16 103.89 11.8
3 -3 -16 93.49 11.2
-3 3 16 67.99 28.6
-3 3 16 101.29 10.5
3 3 -16 83.99 9.8
-2 -3 16 44.2 6.8
-2 -3 16 37.1 7.1
2 -3 -16 52.49 8.2
2 -3 -16 49.9 6.5
2 3 -16 31.7 6.3
-2 3 16 33 10.3
-1 -3 16 87.29 9.6
1 -3 -16 109.79 9.6
1 -3 -16 109.79 14.2
-1 -3 16 72.89 21.7
1 3 -16 88.39 10
-1 3 16 108.19 30.5
-1 3 16 100.29 27.2
-1 3 16 103.99 9.6
1 3 -16 46.1 30
0 -3 -16 52.39 6.9
0 -3 16 66.59 8
0 -3 -16 64.29 8.3
0 -3 16 80.99 26.3
0 3 16 56.99 24.3
0 3 16 56.49 38.3
0 3 -16 58.89 5
0 3 16 54.59 6.3
0 3 -16 88.59 30.9
0 3 -16 57.59 8.4
-1 -3 -16 37.5 6.9
-1 -3 -16 48.5 8.1
1 -3 16 59.39 8.9
1 3 16 108.29 26.5
1 3 16 59.99 6.4
-1 3 -16 48.2 5.5
-1 3 -16 56.99 8.7
-1 3 -16 75.59 30.3
-2 -3 -16 90.99 9
-2 -3 -16 100.39 10.9
2 -3 16 88.69 9.7
2 -3 16 44.3 25.5
-2 3 -16 110.09 12.3
2 3 16 53.09 26.7
-2 3 -16 76.99 31.8
-2 3 -16 81.19 7.8
2 3 16 84.79 7.4
-3 -3 -16 6.6 5.8
-3 -3 -16 9.1 7.6
3 -3 16 -1.8 7.2
3 3 16 4.1 3.8
3 3 16 6.5 31.4
-3 3 -16 -5.1 7.1
-3 3 -16 -3.9 4.6
-4 -3 -16 64.79 10.6
4 -3 16 47.2 8.5
-4 -3 -16 55.19 7.8
-4 3 -16 67.79 10
-4 3 -16 48.2 7.2
4 3 16 56.49 6.2
5 -4 -16 46.9 7.7
-5 -4 16 47.8 10.1
-5 4 16 36.7 8.5
-5 4 16 36.5 6.7
-4 -4 16 7.6 8.1
-4 4 16 -2 7.4
4 4 -16 8.1 7
-4 4 16 3.6 5.6
-3 -4 16 29.6 8.9
3 -4 -16 40.2 9
3 -4 -16 39.3 7.6
3 4 -16 33.4 7.5
-3 4 16 36.7 6.8
-3 4 16 37.9 7.8
2 -4 -16 18.9 6.5
2 -4 -16 20.2 8.7
-2 -4 16 34.7 9.6
2 4 -16 22.7 6.6
-2 4 16 29.2 6.5
-2 4 16 26.3 7.1
-2 4 16 -16.5 33.6
1 -4 -16 32.1 9.1
1 -4 -16 41.7 7.2
-1 -4 16 38 9.4
-1 4 16 33.2 7
-1 4 16 45.5 7.9
1 4 -16 36.5 8.2
0 -4 -16 14.2 6.3
0 -4 -16 16.7 8.2
0 -4 16 23.3 8.4
0 4 -16 19.7 9.1
0 4 16 21.6 6.6
1 -4 16 69.09 10.5
-1 -4 -16 61.89 10.8
-1 -4 -16 54.39 7.8
-1 4 -16 60.39 6.5
-1 4 -16 52.79 9.6
1 4 16 53.79 7.1
2 -4 16 7 8.4
-2 -4 -16 6.4 6.4
-2 -4 -16 5.7 8.7
2 4 16 7.9 4.9
-2 4 -16 9.2 8.5
-2 4 -16 6 5.2
-8 0 17 -1.4 7.8
-8 0 17 -5.4 4.8
7 0 -17 125.49 8.4
-7 0 17 131.39 13.3
-7 0 17 109.19 9.2
-6 0 17 2.5 7
-6 0 17 -5.5 4.3
6 0 -17 0.7 4.5
6 0 -17 -12.4 4.7
5 0 -17 235.68 11.8
5 0 -17 242.38 11.1
-5 0 17 227.58 8.9
-5 0 17 256.27 15.1
-5 0 17 233.78 14.6
-5 0 17 232.88 11.7
-4 0 17 4.1 2.9
4 0 -17 -3.5 3.8
-4 0 17 7.4 6.3
-4 0 17 3.8 5.6
-4 0 17 0.9 4.6
3 0 -17 323.17 13.5
-3 0 17 328.77 14.8
-3 0 17 284.67 11
3 0 -17 329.17 11.4
-3 0 17 316.57 13.6
-3 0 17 321.67 16
-3 0 17 326.17 34
-2 0 17 -4.6 17.2
-2 0 17 2.7 4.5
2 0 -17 -5.5 4.1
-2 0 17 2 5.7
2 0 -17 -0.3 2.9
-2 0 17 -1.2 4.8
-1 0 17 54.59 6.3
-1 0 17 79.79 20.5
1 0 -17 57.99 6.5
1 0 -17 63.99 7
-1 0 17 71.89 8.6
-1 0 17 51.59 6.1
-1 0 17 67.59 22.8
0 0 17 2.6 3.9
0 0 -17 0.8 4.7
0 0 17 -8.7 18.9
0 0 -17 0.1 3.8
0 0 17 2.6 4.4
0 0 17 -6.8 21.5
1 0 17 236.58 29.2
1 0 17 250.17 11.6
-1 0 -17 242.78 12.7
-1 0 -17 234.88 11
2 0 17 27.3 20.9
-2 0 -17 -4.5 5.1
2 0 17 37.1 25.9
2 0 17 8.2 4.3
-2 0 -17 -6.2 4.3
3 0 17 14.9 4.4
-3 0 -17 10.1 5.6
-3 0 -17 19.4 5.5
3 0 17 8.5 24.6
4 0 17 11 28.7
-4 0 -17 9.7 5.9
4 0 17 1.2 3.8
-4 0 -17 -0.8 5.6
-5 0 -17 89.89 9.8
-5 0 -17 116.49 13.1
-8 -1 17 72.39 10.7
-8 -1 17 85.19 8.3
-8 1 17 71.69 9.5
-8 1 17 65.39 8
7 -1 -17 2.2 4.8
-7 -1 17 3.2 5.7
-7 -1 17 4.8 7.5
-7 1 17 -1.3 7
-6 -1 17 134.79 13.6
-6 -1 17 135.29 11.2
6 -1 -17 123.09 8.3
-6 1 17 124.49 10.5
6 1 -17 123.19 9
-6 1 17 127.19 13.1
5 -1 -17 16.8 5.4
5 -1 -17 19.9 4.6
-5 -1 17 23.8 7.1
-5 -1 17 17.5 5.9
-5 -1 17 16.8 5.6
-5 1 17 18.4 7
-5 1 17 24.7 7
-5 1 17 21.9 5.1
5 1 -17 20.8 5
4 -1 -17 33.2 6.2
4 -1 -17 50.29 6.2
-4 -1 17 42.9 8
-4 -1 17 53.19 7.3
-4 -1 17 46.9 6.6
4 1 -17 42.3 5.7
-4 1 17 45.8 7.6
-4 1 17 43.7 5.5
-4 1 17 49.5 7.4
3 -1 -17 100.99 12
3 -1 -17 81.09 7.7
-3 -1 17 81.59 21
3 -1 -17 92.89 8.4
-3 -1 17 104.49 10.1
-3 -1 17 88.79 9.7
-3 1 17 79.59 7.7
3 1 -17 92.79 8.9
-3 1 17 100.79 24.9
-3 1 17 100.69 12.3
-3 1 17 73.69 8.3
-2 -1 17 179.38 11.9
-2 -1 17 180.48 12.3
2 -1 -17 179.08 10.1
-2 -1 17 169.48 11.5
2 -1 -17 188.28 10
-2 1 17 192.18 17.2
-2 1 17 178.08 9.7
2 1 -17 183.58 7.8
2 1 -17 177.78 10.5
-2 1 17 175.78 27.8
-2 1 17 177.78 11.8
1 -1 -17 6.2 3.9
1 -1 -17 3.9 4.4
-1 -1 17 7 5.5
-1 -1 17 5.5 4.9
1 1 -17 -0.2 4.6
-1 1 17 39.1 22.7
1 1 -17 -4.1 20.3
-1 1 17 14.3 4.5
-1 1 17 6.1 18.2
1 1 -17 5.6 3
-1 1 17 5.9 5.1
0 -1 17 130.19 10.2
0 -1 -17 112.39 9.1
0 -1 17 101.99 14.6
0 -1 -17 112.49 8.9
0 -1 17 144.69 25.5
0 1 -17 118.89 9.4
0 1 17 97.99 27.2
0 1 -17 129.89 26.8
0 1 17 119.89 9.5
0 1 -17 113.39 7.1
0 1 17 118.49 9.7
0 1 17 123.29 24.6
1 -1 17 30.2 5.6
-1 -1 -17 37.2 6.4
-1 -1 -17 37.2 6
1 -1 17 21 6
1 -1 17 8.8 22.4
-1 1 -17 33.1 6.1
1 1 17 11.2 21.2
-1 1 -17 22.7 23.9
1 1 17 6 25
1 1 17 32.5 5.2
-1 1 -17 28 4.7
2 -1 17 115.79 9.2
-2 -1 -17 126.59 10.9
2 -1 17 130.99 11.3
-2 -1 -17 128.69 10.9
2 1 17 167.08 30.8
2 1 17 126.79 8.3
-2 1 -17 114.69 8.5
-2 1 -17 121.69 26.9
-2 1 -17 131.59 11.3
2 1 17 110.29 25.6
3 -1 17 7.5 4.5
-3 -1 -17 2 5.5
-3 -1 -17 11 6.6
-3 1 -17 7 4.7
-3 1 -17 10 6.6
3 1 17 15.6 25.1
3 1 17 5.5 4.1
-4 -1 -17 97.49 11
-4 -1 -17 92.79 10
4 -1 17 101.69 9
-4 1 -17 82.29 9.7
4 1 17 91.19 6.4
4 1 17 125.09 36.1
-5 -1 -17 2.4 7.3
5 -1 17 -2.9 4.1
-5 -1 -17 -6.2 5.9
-5 1 -17 7.7 7.1
-5 1 -17 6.3 7.2
-7 -2 17 13.5 7.9
7 -2 -17 3.2 5
-7 -2 17 -2.5 7.7
-7 2 17 8.8 7.5
-7 2 17 4.7 4.7
-6 -2 17 26.5 7.5
-6 -2 17 29.8 8.2
6 -2 -17 27.8 5.9
-6 2 17 46.8 9.3
6 2 -17 33.9 6
-5 -2 17 137.79 13.6
-5 -2 17 128.39 13.6
5 -2 -17 129.99 9.5
-5 2 17 130.09 13.5
-5 2 17 123.19 12.3
5 2 -17 103.99 9.5
-4 -2 17 59.19 8.7
-4 -2 17 59.89 7
-4 -2 17 40.8 7.9
4 -2 -17 69.09 6.8
4 -2 -17 52.19 7.1
4 2 -17 70.09 8.7
-4 2 17 52.69 8.2
-4 2 17 50.69 8.5
3 -2 -17 37.8 6.3
3 -2 -17 38.8 6.4
-3 -2 17 31.9 7.5
3 -2 -17 27.4 5.8
-3 -2 17 31.1 6.4
-3 -2 17 44.1 8
-3 2 17 42.3 7.5
-3 2 17 24.6 26.4
3 2 -17 41.4 6.4
-2 -2 17 47.3 7.9
-2 -2 17 42.9 8.4
2 -2 -17 41 6.3
2 -2 -17 34 6.1
-2 -2 17 59.69 22.8
-2 -2 17 42.5 7
2 2 -17 33.2 6.3
-2 2 17 29.8 7.8
-1 -2 17 97.79 14.6
-1 -2 17 111.79 24.5
1 -2 -17 101.79 9.1
1 -2 -17 106.09 9.4
-1 -2 17 102.39 11.3
-1 2 17 102.99 9.7
1 2 -17 102.59 10.6
1 2 -17 89.09 5.4
-1 2 17 89.79 29
1 2 -17 81.59 27.2
0 -2 -17 139.19 11.3
0 -2 17 146.99 12.5
0 -2 -17 151.48 12.7
0 2 -17 147.89 7.3
0 2 17 168.58 10.6
0 2 17 130.79 24.4
0 2 -17 150.68 29.8
0 2 -17 168.58 11.2
0 2 17 89.89 29.2
1 -2 17 51.69 24.1
-1 -2 -17 73.99 8
1 -2 17 75.39 9.1
-1 -2 -17 91.19 10.8
1 2 17 72.39 25
1 2 17 81.29 30.1
1 2 17 99.49 8.6
-1 2 -17 73.19 29.9
-1 2 -17 77.49 6.6
-1 2 -17 74.59 8.8
2 -2 17 7.4 6.8
2 -2 17 6.8 5.3
-2 -2 -17 11 6.4
-2 -2 -17 3.7 6.1
2 -2 17 1.6 24.3
2 2 17 4.9 4
-2 2 -17 -0.1 6.4
-2 2 -17 36.3 28.4
-2 2 -17 2.7 4
2 2 17 -0.1 24.4
-3 -2 -17 115.09 13.1
3 -2 17 112.49 10.3
-3 -2 -17 135.09 11.6
3 -2 17 126.19 13
-3 2 -17 128.79 10
3 2 17 136.99 31.4
3 2 17 122.79 8
-3 2 -17 160.98 13.5
-4 -2 -17 -1.2 6.1
-4 -2 -17 4.5 7.7
4 -2 17 10.6 5.2
4 -2 17 5.4 7
-4 2 -17 3.6 7.9
4 2 17 -1.2 3.5
-4 2 -17 7.4 7.2
-6 -3 17 11.5 8.9
-6 -3 17 15.3 7.8
6 -3 -17 13.9 5.7
-6 3 17 17.3 5.7
-6 3 17 27.6 7.9
-5 -3 17 52.89 9.1
5 -3 -17 61.79 7.2
-5 3 17 77.19 8.7
-5 3 17 73.79 9.1
5 3 -17 61.79 7.5
-4 -3 17 4.1 7
4 -3 -17 8.9 5.2
-4 3 17 5.8 6.9
4 3 -17 18.5 6.4
-3 -3 17 38.3 8.9
-3 -3 17 34.2 10.4
3 -3 -17 14.9 6.9
3 -3 -17 20 5.9
-3 3 17 40.3 7.5
3 3 -17 28.8 7.1
-2 -3 17 137.79 13.3
2 -3 -17 136.19 15.9
2 -3 -17 147.59 13.4
2 3 -17 131.29 11.2
-2 3 17 129.19 11.7
-2 3 17 169.18 35.1
1 -3 -17 61.49 7.8
-1 -3 17 68.09 9.5
1 -3 -17 64.19 9
-1 3 17 69.69 8.5
1 3 -17 59.79 8.3
0 -3 17 69.49 40
0 -3 17 55.49 8.5
0 -3 -17 53.29 8.5
0 -3 -17 81.09 10
0 3 -17 67.89 5.4
0 3 -17 63.49 9.2
0 3 17 76.89 7.7
-1 -3 -17 71.49 9.6
1 -3 17 55.59 27.8
1 -3 17 70.79 9.5
-1 -3 -17 62.79 8.1
-1 3 -17 62.69 6.1
-1 3 -17 71.39 10
-1 3 -17 55.49 37.6
1 3 17 61.79 6.9
2 -3 17 26 7.9
-2 -3 -17 16.9 8.3
-2 -3 -17 14 6.8
2 3 17 -13.5 31.1
-2 3 -17 2.1 41.1
-2 3 -17 35.4 8.7
-2 3 -17 15 4.8
2 3 17 20.4 4.8
-3 -3 -17 57.09 8.4
3 -3 17 62.19 9.8
-3 -3 -17 59.09 10.6
-3 3 -17 50.89 10.1
3 3 17 56.49 7.2
-3 3 -17 61.89 7.1
-4 -4 17 45.5 9.5
-4 4 17 43.6 8.3
3 -4 -17 6.1 7
3 -4 -17 6.9 8.2
-3 -4 17 -3.2 8.3
3 4 -17 2.3 7.5
-3 4 17 11.2 7.5
-3 4 17 5.7 6.1
2 -4 -17 27.1 9.1
-2 -4 17 48.5 9.4
2 -4 -17 19.3 6.8
2 4 -17 40.3 8.3
-2 4 17 44.3 7.7
-2 4 17 32.4 8
1 -4 -17 -1.4 8.2
1 -4 -17 0.8 6.6
-1 -4 17 0.5 7.4
1 4 -17 -0.8 8.1
-1 4 17 -2.2 6.6
-1 4 17 10.6 6.4
0 -4 -17 24.4 10
0 -4 -17 17.1 7.5
0 -4 17 16.4 8.6
0 4 -17 8.2 9
0 4 17 23.5 7.1
-1 -4 -17 6.4 8.6
-1 -4 -17 5.8 7.2
1 -4 17 6.5 8.3
1 4 17 5.9 5.5
-1 4 -17 -1.2 9.1
-7 0 18 2.1 8.2
-7 0 18 6.8 5.1
-6 0 18 100.69 9.9
6 0 -18 108.59 9.1
-6 0 18 160.68 14.8
-5 0 18 4.3 4.7
-5 0 18 6.1 7.6
5 0 -18 2.9 5
-4 0 18 214.48 9.3
-4 0 18 207.68 14.1
-4 0 18 238.08 12.7
-4 0 18 274.77 15.7
4 0 -18 246.88 12.1
-3 0 18 1.2 6.4
-3 0 18 4.1 4.5
3 0 -18 -1.4 4.3
-3 0 18 18.8 7
3 0 -18 8 3.5
-3 0 18 7.7 5.1
-2 0 18 205.98 31.1
-2 0 18 262.97 13.3
2 0 -18 244.18 10.4
2 0 -18 259.37 13
-2 0 18 226.08 10.2
1 0 -18 0.6 4
-1 0 18 -4.8 5.6
-1 0 18 -0.1 4.1
1 0 -18 3.1 5.2
0 0 -18 209.78 12.6
0 0 18 213.68 12.2
0 0 -18 232.78 10.6
0 0 18 123.69 30.7
-1 0 -18 -1.8 5.8
1 0 18 2.7 26.4
1 0 18 2.4 4.9
-1 0 -18 2.9 4.6
-2 0 -18 51.79 7
2 0 18 74.69 36.1
2 0 18 66.19 6.8
-2 0 -18 41.8 7.3
-3 0 -18 -2.6 6.1
3 0 18 -27 32.5
3 0 18 -3.6 4.5
4 0 18 191.68 10.3
4 0 18 94.79 69.39
-4 0 -18 182.48 13.6
-4 0 -18 182.38 14.3
-7 -1 18 94.49 11.6
-7 -1 18 132.99 12.2
-7 1 18 109.09 13.6
-6 -1 18 -5.8 6.7
-6 -1 18 18.1 8.2
6 -1 -18 -0.1 4.7
6 1 -18 2.8 5
-6 1 18 9.2 7.6
-5 -1 18 114.69 12
5 -1 -18 130.99 9.9
-5 -1 18 132.39 13.4
5 1 -18 128.49 9.2
-5 1 18 123.89 13.8
-4 -1 18 6.1 6.4
-4 -1 18 -4.9 5.9
-4 -1 18 -0.9 6.5
4 -1 -18 2 4.4
-4 1 18 -4.3 6.5
4 1 -18 -12.7 5.3
-4 1 18 -2.6 7.6
-4 1 18 -7.7 5
-3 -1 18 94.99 9.1
-3 -1 18 108.59 12.4
3 -1 -18 96.09 8.8
3 -1 -18 96.19 8.5
-3 1 18 89.79 9
3 1 -18 104.49 9.7
-3 1 18 94.59 11.8
-2 -1 18 23.4 7.6
2 -1 -18 28.3 6
-2 -1 18 23.4 6.3
-2 -1 18 35.2 34.9
2 -1 -18 26 4.9
-2 1 18 42.1 26.8
2 1 -18 20 5.4
-2 1 18 17.3 9.2
2 1 -18 30.6 3.9
-2 1 18 24 5.6
-1 -1 18 57.39 10.2
1 -1 -18 68.99 8.1
1 -1 -18 65.09 7.7
-1 -1 18 84.29 26.9
-1 -1 18 49.2 7.1
1 1 -18 69.89 6.1
-1 1 18 50.09 7.5
1 1 -18 55.49 7.7
-1 1 18 75.69 8.8
0 -1 -18 -1.1 4.9
0 -1 -18 1.3 9.3
0 -1 18 3.2 6.3
0 -1 18 1.1 5.6
0 1 -18 -3.9 26.4
0 1 18 22.9 27.3
0 1 -18 -9.9 5
0 1 -18 1.4 3.5
0 1 18 0.4 5
1 -1 18 110.89 11.2
1 -1 18 76.09 28.4
-1 -1 -18 114.99 10.8
-1 -1 -18 101.89 10.4
1 -1 18 79.69 9.9
-1 1 -18 132.49 30.7
1 1 18 93.49 9.1
1 1 18 135.09 32.4
-1 1 -18 118.19 8.5
-1 1 -18 100.09 10.3
2 -1 18 -1.2 5.1
-2 -1 -18 -2.3 6.2
2 1 18 4.5 4.3
-2 1 -18 4.1 28.5
-2 1 -18 6.5 6.6
-2 1 -18 4.4 4.5
2 1 18 -17.2 27.2
-3 -1 -18 54.29 8.2
3 -1 18 53.69 6.6
-3 -1 -18 56.89 8.6
3 1 18 42.6 32.8
-3 1 -18 64.69 7.5
-3 1 -18 40.7 8.3
3 1 18 57.29 6.1
-4 -1 -18 7.9 8.3
4 -1 18 12.1 5.4
-4 -1 -18 16.9 7.3
-4 1 -18 15.5 7.4
-4 1 -18 5 6.8
4 1 18 5.3 3.8
-6 -2 18 11.3 8.9
-6 -2 18 -3.7 7.1
6 -2 -18 -1.5 5.8
-6 2 18 2.8 6.9
-5 -2 18 1.7 8.5
5 -2 -18 9.7 5.3
-5 -2 18 12.9 7.6
-5 2 18 4.3 7.3
5 2 -18 11.6 5.8
-4 -2 18 32.5 8.1
4 -2 -18 38.2 6.2
-4 -2 18 46.1 8.9
4 2 -18 50.19 7.4
-4 2 18 40.2 8.5
3 -2 -18 33.6 5.8
3 -2 -18 30.9 6.2
-3 -2 18 30.3 7.8
-3 -2 18 30.4 7.8
-3 -2 18 31.6 7.2
3 2 -18 29.2 6.5
-3 2 18 23.9 7.7
-2 -2 18 48.7 8.3
-2 -2 18 48.7 8.3
2 -2 -18 60.99 7.5
2 -2 -18 50.39 6.7
-2 2 18 57.09 8.1
2 2 -18 59.39 7.6
-2 2 18 31.5 28.9
-1 -2 18 57.09 8.5
-1 -2 18 44.8 8.4
1 -2 -18 49.99 7.8
1 2 -18 40 7.4
1 2 -18 45.7 5.1
0 -2 18 40.2 7.5
0 -2 -18 35.4 6.6
0 -2 18 40.5 7.8
0 -2 18 38.4 26.2
0 2 -18 44.3 5.6
0 2 18 47 7.2
0 2 -18 13.5 33.7
0 2 -18 41.4 8.6
0 2 18 43.8 29.5
1 -2 18 107.69 16.8
-1 -2 -18 120.99 11.3
-1 -2 -18 120.29 13.1
1 -2 18 107.99 11
1 -2 18 161.18 35.6
-1 2 -18 135.69 13.1
1 2 18 128.59 9.9
-1 2 -18 121.29 8.7
-1 2 -18 63.69 33.8
-2 -2 -18 44 7.4
2 -2 18 29.3 8
-2 -2 -18 31.2 8.4
2 -2 18 47.6 7.1
2 2 18 43.3 5.9
-2 2 -18 27 8.5
-2 2 -18 41.9 5.5
-3 -2 -18 2.1 6.7
3 -2 18 13.6 6.2
-3 -2 -18 0.1 7.8
3 -2 18 1.2 6.9
-3 2 -18 3.5 5.7
-3 2 -18 4.2 8.1
3 2 18 0.8 4.4
-5 -3 18 2.8 8
-5 -3 18 -1.1 9
5 -3 -18 11.4 6.1
-5 3 18 2.3 5.3
-5 3 18 15.6 8.3
-4 -3 18 26.7 8.4
4 -3 -18 20.8 6.7
4 3 -18 30.7 7.9
-4 3 18 24.9 7.9
-3 -3 18 14.1 8.5
3 -3 -18 2.7 7.1
3 -3 -18 12.1 6.5
3 3 -18 0 6.2
-3 3 18 7.3 6.6
2 -3 -18 26.9 6.8
-2 -3 18 38.2 9.1
2 -3 -18 30.4 8.3
-2 3 18 35.7 7.9
2 3 -18 43.8 7.6
1 -3 -18 87.19 10.3
-1 -3 18 76.19 10.7
1 -3 -18 87.59 10.9
1 3 -18 78.59 10.3
-1 3 18 73.79 8.4
0 -3 -18 51.49 8.4
0 -3 18 67.49 10.3
0 -3 -18 54.89 9.9
0 3 18 35.3 6.9
0 3 -18 57.29 9.6
-1 -3 -18 65.19 10.2
-1 -3 -18 54.99 8.7
1 -3 18 45.7 8.5
1 3 18 55.29 7.6
-1 3 -18 39.9 9.8
-1 3 -18 44 5.2
-2 -3 -18 68.39 11.2
-2 -3 -18 54.69 8.4
2 -3 18 45.1 9.2
2 3 18 49.5 6.2
-2 3 -18 50.79 6.1
-2 3 -18 42.6 10.1
-6 0 19 -3.8 7.8
-6 0 19 -4.9 5.4
6 0 -19 -0.5 5.7
-5 0 19 124.99 11.4
5 0 -19 121.69 10.8
-5 0 19 113.59 14.1
4 0 -19 3.8 5.1
-4 0 19 3.6 5.7
-4 0 19 7.2 7.8
3 0 -19 103.99 9.9
3 0 -19 117.39 7.8
-3 0 19 106.99 12.7
-2 0 19 -7.5 6.7
2 0 -19 -3.7 4.5
2 0 -19 -8.3 5.2
1 0 -19 88.09 10.6
-1 0 19 69.29 9.1
1 0 -19 74.99 8
-1 0 19 59.49 28.8
-1 0 19 92.49 11.8
0 0 19 2.9 6.7
0 0 19 -36.5 28.2
0 0 -19 -4.9 4.5
0 0 -19 -3.1 6.2
-1 0 -19 127.29 12.7
-1 0 -19 101.79 10.2
1 0 19 111.99 11.1
-2 0 -19 4.8 5.7
-2 0 -19 -2 6.3
2 0 19 3.2 6.2
-3 0 -19 29.6 7.9
-3 0 -19 41.3 8.1
3 0 19 35.2 6.1
-6 -1 19 82.49 9.7
6 -1 -19 85.39 10.3
-6 -1 19 81.59 10.9
-6 1 19 112.89 14.3
5 -1 -19 1.6 5.1
-5 -1 19 6.7 7.4
-5 -1 19 4.4 8.1
5 1 -19 -1.3 6.2
-5 1 19 4.6 8.5
4 -1 -19 110.49 10
-4 -1 19 121.39 12.7
-4 -1 19 117.59 14.2
4 1 -19 117.09 10.8
-4 1 19 121.99 13.9
3 -1 -19 7.1 5.4
-3 -1 19 -0.7 6.2
3 -1 -19 13 4.9
-3 -1 19 6.7 8.1
-3 1 19 7.7 8.1
3 1 -19 -1.2 5.2
2 -1 -19 137.09 9.9
-2 -1 19 99.29 11.8
-2 -1 19 136.19 13.7
2 -1 -19 102.89 11.1
2 1 -19 112.99 10.5
2 1 -19 121.99 7.4
-2 1 19 128.09 13
1 -1 -19 25.8 5.8
-1 -1 19 13.4 6.6
-1 -1 19 22.6 7.5
-1 1 19 -8.7 28.5
1 1 -19 10.3 6.2
-1 1 19 18 6.9
0 -1 19 51.49 8.4
0 -1 -19 44.6 8.2
0 -1 19 38.3 7.9
0 -1 -19 48.9 6.9
0 -1 19 -20.6 27.1
0 1 19 43.5 7.3
0 1 -19 42.5 8
0 1 -19 45.5 5.5
1 -1 19 29.2 39.9
1 -1 19 3.3 6.6
1 -1 19 1.7 6.1
-1 -1 -19 4.3 6.4
-1 -1 -19 -0.2 10.5
1 1 19 0.7 5.6
-1 1 -19 -64.39 31.3
-1 1 -19 -2.9 4.7
-1 1 -19 -5.6 7.2
2 -1 19 96.19 10.8
-2 -1 -19 69.89 9.3
-2 -1 -19 79.79 9.4
-2 1 -19 78.09 8.2
-2 1 -19 77.99 10.1
2 1 19 71.69 9.2
-3 -1 -19 0.4 8.1
3 -1 19 -4 6
-3 -1 -19 -1.4 6.7
-3 1 -19 -0.2 7.4
3 1 19 -0.1 4.8
-3 1 -19 -1.2 8.5
-5 -2 19 6.9 8.5
-5 -2 19 -0.9 9
5 -2 -19 -1.2 5.9
5 2 -19 -7.3 7.2
-5 2 19 -9.8 7.5
4 -2 -19 9.6 6.2
-4 -2 19 -1.8 7.7
-4 -2 19 0.2 8.9
-4 2 19 -5.4 7.8
4 2 -19 8.3 6.5
3 -2 -19 48.6 7.3
-3 -2 19 62.79 9.8
-3 -2 19 58.69 10.5
3 -2 -19 59.49 8.3
3 2 -19 53.79 8
-3 2 19 59.59 9.8
2 -2 -19 7.5 6.6
-2 -2 19 13.5 7.1
-2 -2 19 17 8.2
2 -2 -19 5.8 6.6
2 2 -19 10.8 6.4
-2 2 19 1 7.1
-1 -2 19 54.69 8.9
1 -2 -19 53.79 7.8
-1 -2 19 65.99 9.9
1 -2 -19 63.49 9.1
-1 2 19 53.79 8.4
-1 2 19 61.79 33.6
1 2 -19 45.7 8.1
0 -2 19 39.3 8.6
0 -2 -19 27.9 7.9
0 -2 19 30.3 8
0 -2 -19 48.5 8.3
0 2 -19 32 4.7
0 2 19 25.6 7.3
0 2 -19 30.9 8.6
-1 -2 -19 30.3 8
1 -2 19 38.6 8.6
1 -2 19 38.7 8.1
-1 -2 -19 51.39 9.6
-1 2 -19 37.7 5.5
-1 2 -19 36.9 8.5
1 2 19 41 6.8
-2 -2 -19 76.99 10.9
2 -2 19 58.39 8.5
-2 -2 -19 73.69 9.8
2 -2 19 67.79 10.7
-2 2 -19 68.09 7.3
-2 2 -19 53.09 9.7
2 2 19 58.19 6.6
2 -3 -19 9.5 8.4
-2 -3 19 10.3 8.5
2 -3 -19 0.5 7.2
-2 3 19 7.7 7.6
2 3 -19 1.2 7.7
1 -3 -19 27.2 9
-1 -3 19 46 10.4
1 -3 -19 37.7 8.7
1 3 -19 22.6 9.1
-1 3 19 39.2 8.3
5 0 -20 -6.4 5.9
-5 0 20 -1.7 7.9
-5 0 20 -12.1 6.2
4 0 -20 148.99 11.7
-4 0 20 167.38 13.6
-4 0 20 168.88 15.9
3 0 -20 2.9 4.4
3 0 -20 -6.6 5.8
-3 0 20 11.2 8.8
2 0 -20 9.2 5.1
2 0 -20 24.4 7
-2 0 20 15 8.1
1 0 -20 3.2 4.8
-1 0 20 -0.4 7.3
1 0 -20 0.1 6.9
0 0 -20 60.59 9.5
0 0 20 93.49 10.1
0 0 -20 90.19 10.2
-1 0 -20 11.3 8.3
-1 0 -20 6.3 6.1
1 0 20 9 7.8
-4 -1 20 9.7 9.4
-4 -1 20 10.8 7.7
4 -1 -20 7.5 5.9
4 1 -20 10.3 6.6
-4 1 20 28.2 9.1
3 -1 -20 97.89 11.1
3 -1 -20 100.59 10.4
-3 -1 20 93.59 10.4
-3 -1 20 87.79 11.2
-3 1 20 86.89 11.3
3 1 -20 89.19 10.7
-2 -1 20 7.3 8.3
-2 -1 20 12.2 7
2 -1 -20 10.9 5.7
2 -1 -20 3.4 7
-2 1 20 8.5 8.5
2 1 -20 11.1 7
1 -1 -20 83.59 9.4
-1 -1 20 112.29 13.7
-1 -1 20 89.29 9.8
1 -1 -20 98.59 10.9
1 1 -20 83.79 9.7
-1 1 20 94.99 10.5
1 1 -20 76.79 7.9
0 -1 -20 57.39 14.1
0 -1 -20 28.4 8.2
0 -1 20 37.7 8.4
0 -1 20 28.6 7.6
0 1 -20 35.7 6.4
0 1 -20 39.6 8.6
0 1 20 26.2 7.9
-1 -1 -20 12.1 7.9
1 -1 20 14.8 7.6
-1 -1 -20 26.3 7.8
-1 1 -20 13.8 5.6
-1 1 -20 14.7 8
-2 -2 20 72.19 11
2 -2 -20 58.59 9
-2 -2 20 49.2 10.4
2 -2 -20 67.59 9.4
-2 2 20 63.49 9.7
2 2 -20 74.29 9.9
-1 -2 20 10.3 7.9
-1 -2 20 11.9 9.3
1 -2 -20 19.4 7.9
1 -2 -20 17.6 7.2
-1 2 20 13.9 8.3
1 2 -20 12.9 7.8
