#------------------------------------------------------------------------------
#$Date: 2020-01-25 00:42:11 +0200 (Sat, 25 Jan 2020) $
#$Revision: 247213 $
#$URL: file:///home/coder/svn-repositories/cod/cif/4/51/73/4517346.cif $
#------------------------------------------------------------------------------
#
# This file is available in the Crystallography Open Database (COD),
# http://www.crystallography.net/
#
# All data on this site have been placed in the public domain by the
# contributors.
#
data_4517346
loop_
_publ_author_name
'Kordestani, Nazanin'
'Rudbari, Hadi Amiri'
'Fernandes, Alexandra R.'
'Raposo, Lu\'is R'
'Baptista, Pedro V.'
'Ferreira, Daniela'
'Bruno, Giuseppe'
'Bella, Giovanni'
'Scopelliti, Rosario'
'Braun, Jason D.'
'Herbert, David E.'
'Blacque, Olivier'
_publ_section_title
;
 Antiproliferative Activities of Diimine-Based Mixed Ligand Copper(II)
 Complexes.
;
_journal_name_full               'ACS combinatorial science'
_journal_paper_doi               10.1021/acscombsci.9b00202
_journal_year                    2020
_chemical_formula_sum            'C17 H13 Cu N3 O5'
_chemical_formula_weight         402.84
_space_group_crystal_system      triclinic
_space_group_IT_number           2
_space_group_name_Hall           '-P 1'
_space_group_name_H-M_alt        'P -1'
_atom_sites_solution_hydrogens   geom
_audit_creation_method           SHELXL-2017/1
_cell_angle_alpha                97.603(2)
_cell_angle_beta                 112.314(2)
_cell_angle_gamma                96.478(2)
_cell_formula_units_Z            2
_cell_length_a                   8.3749(4)
_cell_length_b                   9.8223(5)
_cell_length_c                   10.5020(5)
_cell_measurement_reflns_used    9865
_cell_measurement_temperature    150(2)
_cell_measurement_theta_max      33.07
_cell_measurement_theta_min      2.71
_cell_volume                     779.56(7)
_computing_cell_refinement       'Bruker SAINT'
_computing_data_collection       'Bruker APEX3'
_computing_data_reduction        'Bruker SAINT'
_computing_molecular_graphics    'Bruker SHELXTL'
_computing_publication_material  'Bruker SHELXTL'
_computing_structure_refinement  'SHELXL-2017/1 (Sheldrick, 2017)'
_computing_structure_solution    'SHELXS-97 (Sheldrick 2008)'
_diffrn_ambient_temperature      150(2)
_diffrn_measured_fraction_theta_full 0.997
_diffrn_measured_fraction_theta_max 0.994
_diffrn_measurement_device_type  'Bruker D8 QUEST ECO CMOS'
_diffrn_measurement_method       '\w scans'
_diffrn_radiation.monochromator  'TRIUMPH curved--crystal'
_diffrn_radiation_type           MoK\a
_diffrn_radiation_wavelength     0.71073
_diffrn_reflns_av_R_equivalents  0.0355
_diffrn_reflns_av_unetI/netI     0.0271
_diffrn_reflns_Laue_measured_fraction_full 0.997
_diffrn_reflns_Laue_measured_fraction_max 0.994
_diffrn_reflns_limit_h_max       12
_diffrn_reflns_limit_h_min       -12
_diffrn_reflns_limit_k_max       15
_diffrn_reflns_limit_k_min       -15
_diffrn_reflns_limit_l_max       16
_diffrn_reflns_limit_l_min       -16
_diffrn_reflns_number            28231
_diffrn_reflns_point_group_measured_fraction_full 0.997
_diffrn_reflns_point_group_measured_fraction_max 0.994
_diffrn_reflns.reduction_process narrow--frame
_diffrn_reflns_theta_full        25.242
_diffrn_reflns_theta_max         33.178
_diffrn_reflns_theta_min         2.711
_diffrn_source                   'fine-focus tube'
_exptl_absorpt_coefficient_mu    1.438
_exptl_absorpt_correction_T_max  0.7465
_exptl_absorpt_correction_T_min  0.6735
_exptl_absorpt_correction_type   multi-scan
_exptl_absorpt_process_details   'SADABS V2014/5 (Bruker AXS Inc.)'
_exptl_crystal_colour            green
_exptl_crystal_density_diffrn    1.716
_exptl_crystal_description       block
_exptl_crystal_F_000             410
_exptl_crystal_size_max          0.240
_exptl_crystal_size_mid          0.190
_exptl_crystal_size_min          0.100
_refine_diff_density_max         0.720
_refine_diff_density_min         -0.657
_refine_diff_density_rms         0.072
_refine_ls_extinction_method     none
_refine_ls_goodness_of_fit_ref   1.046
_refine_ls_hydrogen_treatment    constr
_refine_ls_matrix_type           full
_refine_ls_number_parameters     235
_refine_ls_number_reflns         5926
_refine_ls_number_restraints     0
_refine_ls_restrained_S_all      1.046
_refine_ls_R_factor_all          0.0428
_refine_ls_R_factor_gt           0.0319
_refine_ls_shift/su_max          0.001
_refine_ls_shift/su_mean         0.000
_refine_ls_structure_factor_coef Fsqd
_refine_ls_weighting_details
'w=1/[\s^2^(Fo^2^)+(0.0232P)^2^+0.6083P] where P=(Fo^2^+2Fc^2^)/3'
_refine_ls_weighting_scheme      calc
_refine_ls_wR_factor_gt          0.0685
_refine_ls_wR_factor_ref         0.0735
_reflns_Friedel_coverage         0.000
_reflns_number_gt                5075
_reflns_number_total             5926
_reflns_threshold_expression     'I > 2\s(I)'
_cod_data_source_file            co9b00202_si_007.cif
_cod_data_source_block           har001
_cod_database_code               4517346
_shelx_shelxl_version_number     2017/1
_shelx_space_group_comment
; 
The symmetry employed for this shelxl refinement is uniquely defined 
by the following loop, which should always be used as a source of 
symmetry information in preference to the above space-group names. 
They are only intended as comments. 
;
_shelx_estimated_absorpt_t_min   0.724
_shelx_estimated_absorpt_t_max   0.870
_shelx_res_file
; 
TITL har001.res in P-1 
    har001.res 
    created by SHELXL-2017/1 at 13:10:04 on 07-Aug-2018 
CELL  0.71073   8.3749   9.8223  10.5020   97.603  112.314   96.478 
ZERR    2.000   0.0004   0.0005   0.0005    0.002    0.002    0.002 
LATT 1 
SFAC C  H  Cu N  O 
UNIT 34 26  2  6  10 
L.S. 50 
ACTA 
BOND $H 
FMAP 2 
PLAN 20 
SIZE 0.10 0.19 0.24 
TEMP -123.150 
WGHT    0.023200    0.608300 
FVAR       0.32144 
C1    1    0.480145    0.332640    0.218528    11.00000    0.02230    0.02125 = 
         0.02225    0.00448    0.00848    0.00447 
AFIX  43 
H1    2    0.599610    0.372004    0.274645    11.00000   -1.20000 
AFIX   0 
C2    1    0.440554    0.205586    0.129020    11.00000    0.03636    0.02249 = 
         0.02709    0.00309    0.01087    0.00975 
AFIX  43 
H2    2    0.531212    0.158569    0.122851    11.00000   -1.20000 
AFIX   0 
C3    1    0.265828    0.148135    0.048408    11.00000    0.04158    0.01972 = 
         0.02415    0.00034    0.00645    0.00316 
AFIX  43 
H3    2    0.235350    0.060239   -0.012796    11.00000   -1.20000 
AFIX   0 
C4    1    0.136059    0.219544    0.057598    11.00000    0.02869    0.02112 = 
         0.02075    0.00270    0.00180   -0.00249 
AFIX  43 
H4    2    0.015758    0.181776    0.002888    11.00000   -1.20000 
AFIX   0 
C5    1    0.185388    0.347399    0.148369    11.00000    0.01971    0.01961 = 
         0.01629    0.00616    0.00354   -0.00135 
C6    1    0.060421    0.436459    0.164384    11.00000    0.01598    0.02399 = 
         0.01664    0.00826    0.00392   -0.00076 
C7    1   -0.119174    0.403933    0.085812    11.00000    0.01788    0.03481 = 
         0.02102    0.00873    0.00236   -0.00248 
AFIX  43 
H7    2   -0.169754    0.320113    0.017894    11.00000   -1.20000 
AFIX   0 
C8    1   -0.223382    0.496652    0.108661    11.00000    0.01471    0.04680 = 
         0.02723    0.01621    0.00491    0.00306 
AFIX  43 
H8    2   -0.346658    0.476783    0.055912    11.00000   -1.20000 
AFIX   0 
C9    1   -0.147700    0.617499    0.207951    11.00000    0.01870    0.04401 = 
         0.02895    0.01534    0.01079    0.01054 
AFIX  43 
H9    2   -0.217524    0.680988    0.226077    11.00000   -1.20000 
AFIX   0 
C10   1    0.033089    0.644032    0.280745    11.00000    0.01836    0.03143 = 
         0.02385    0.00868    0.00857    0.00663 
AFIX  43 
H10   2    0.086392    0.728011    0.348071    11.00000   -1.20000 
AFIX   0 
C11   1    0.752886    0.697309    0.526909    11.00000    0.01625    0.01780 = 
         0.01500    0.00429    0.00528    0.00154 
C12   1    0.932443    0.696207    0.558939    11.00000    0.01708    0.02441 = 
         0.02190    0.00456    0.00757    0.00367 
AFIX  43 
H12   2    0.968326    0.611583    0.535066    11.00000   -1.20000 
AFIX   0 
C13   1    1.056629    0.815925    0.624305    11.00000    0.01696    0.03305 = 
         0.02721    0.00462    0.00786   -0.00158 
AFIX  43 
H13   2    1.175802    0.812719    0.641249    11.00000   -1.20000 
AFIX   0 
C14   1    1.011309    0.942108    0.666309    11.00000    0.02384    0.02765 = 
         0.03103   -0.00019    0.00810   -0.00761 
AFIX  43 
H14   2    1.098208    1.023821    0.710582    11.00000   -1.20000 
AFIX   0 
C15   1    0.839768    0.945388    0.642380    11.00000    0.02587    0.01889 = 
         0.02875    0.00027    0.01000   -0.00184 
AFIX  43 
H15   2    0.808403    1.029350    0.674066    11.00000   -1.20000 
AFIX   0 
C16   1    0.707858    0.825838    0.571174    11.00000    0.01878    0.01656 = 
         0.01892    0.00214    0.00658    0.00098 
C17   1    0.533579    0.839209    0.551660    11.00000    0.02213    0.01685 = 
         0.02106    0.00281    0.00758    0.00439 
AFIX  43 
H17   2    0.518927    0.923346    0.598650    11.00000   -1.20000 
AFIX   0 
CU1   3    0.394438    0.580902    0.359607    11.00000    0.01274    0.01715 = 
         0.01819    0.00107    0.00372    0.00160 
N1    4    0.355258    0.401998    0.228598    11.00000    0.01814    0.01704 = 
         0.01679    0.00451    0.00581    0.00109 
N2    4    0.135197    0.555985    0.259810    11.00000    0.01511    0.02220 = 
         0.01849    0.00667    0.00622    0.00289 
N3    4    0.462230    0.825128    0.196521    11.00000    0.01691    0.01936 = 
         0.02032    0.00197    0.00548    0.00073 
O1    5    0.638783    0.581920    0.463416    11.00000    0.01450    0.01626 = 
         0.02052    0.00167    0.00320    0.00216 
O2    5    0.397395    0.752156    0.479295    11.00000    0.01783    0.02127 = 
         0.02398   -0.00008    0.00562    0.00476 
O3    5    0.477976    0.700048    0.202697    11.00000    0.02867    0.02149 = 
         0.03523    0.00941    0.01691    0.00927 
O4    5    0.318519    0.861765    0.175943    11.00000    0.02528    0.02856 = 
         0.06527    0.00182    0.01554    0.01157 
O5    5    0.589003    0.911221    0.212634    11.00000    0.03387    0.03400 = 
         0.13175    0.01991    0.03670   -0.00391 
HKLF 4 
  
  
  
  
REM  har001.res in P-1 
REM R1 =  0.0319 for    5075 Fo > 4sig(Fo)  and  0.0428 for all    5926 data 
REM    235 parameters refined using      0 restraints 
  
END 
  
WGHT      0.0232      0.6083 
  
REM Highest difference peak  0.720,  deepest hole -0.657,  1-sigma level  0.072 
Q1    1   0.3444  0.8663  0.1092  11.00000  0.05    0.72 
Q2    1   0.6196  0.8184  0.5660  11.00000  0.05    0.51 
Q3    1   0.5343  0.8800  0.1485  11.00000  0.05    0.50 
Q4    1   0.1543  0.2762  0.1185  11.00000  0.05    0.49 
Q5    1   0.8415  0.6952  0.5341  11.00000  0.05    0.45 
Q6    1   0.5660  0.9061  0.2612  11.00000  0.05    0.41 
Q7    1   0.7811  0.8770  0.6108  11.00000  0.05    0.39 
Q8    1   0.7209  0.7578  0.5474  11.00000  0.05    0.39 
Q9    1   0.9795  0.7637  0.5864  11.00000  0.05    0.38 
Q10   1   0.4572  0.2751  0.1590  11.00000  0.05    0.38 
Q11   1   0.4408  0.6169  0.4404  11.00000  0.05    0.36 
Q12   1   0.9264  0.9405  0.6602  11.00000  0.05    0.35 
Q13   1  -0.0655  0.6285  0.2168  11.00000  0.05    0.34 
Q14   1   0.1232  0.3982  0.1729  11.00000  0.05    0.34 
Q15   1   0.1993  0.1767  0.0581  11.00000  0.05    0.33 
Q16   1   1.0232  0.8813  0.6247  11.00000  0.05    0.33 
Q17   1  -0.1794  0.5522  0.1605  11.00000  0.05    0.32 
Q18   1   0.4877  0.7618  0.2202  11.00000  0.05    0.31 
Q19   1   0.3761  0.4809  0.2450  11.00000  0.05    0.31 
Q20   1  -0.0297  0.4185  0.1270  11.00000  0.05    0.30 
;
_shelx_res_checksum              21597
_shelx_hkl_file
; 
  -2   0   0  199.34    3.63 
   2   0   0  197.33    3.77 
   2   0   0  194.47    3.64 
  -3   0   0    1.78    0.21 
   3   0   0    2.18    0.33 
   3   0   0    1.83    0.21 
  -4   0   0  208.17    3.80 
   4   0   0  197.26    3.77 
   4   0   0  190.74    4.09 
   4   0   0  195.73    4.40 
  -5   0   0  109.31    2.54 
  -5   0   0  111.73    2.59 
   5   0   0  108.08    2.69 
   5   0   0  107.57    2.56 
   5   0   0  109.03    2.22 
   5   0   0  111.40    2.61 
  -6   0   0   16.75    0.85 
  -6   0   0   18.79    1.02 
   6   0   0   18.21    1.09 
   6   0   0   16.94    1.01 
   6   0   0   17.01    0.59 
   6   0   0   17.94    1.06 
  -7   0   0    0.00    0.50 
  -7   0   0    0.11    0.45 
   7   0   0    0.11    0.45 
   7   0   0    0.22    0.58 
   7   0   0    0.62    0.21 
   7   0   0   -0.10    0.43 
  -8   0   0   22.59    1.38 
  -8   0   0   22.94    1.38 
   8   0   0   22.20    1.16 
   8   0   0   22.70    1.43 
   8   0   0   24.45    0.69 
   8   0   0   20.95    1.24 
  -9   0   0   47.34    1.99 
   9   0   0   43.68    2.04 
   9   0   0   45.19    2.21 
 -10   0   0    2.06    0.85 
 -10   0   0    0.78    1.01 
  10   0   0    1.29    1.08 
  10   0   0    0.21    0.82 
 -11   0   0   10.39    1.56 
 -11   0   0    9.82    1.37 
  11   0   0    8.58    1.59 
  11   0   0   12.10    1.83 
  11  -1   0    0.68    1.12 
 -11   1   0    1.51    1.04 
 -11   1   0    0.87    1.00 
  10  -1   0    7.14    1.18 
  10  -1   0   10.65    1.34 
 -10   1   0   10.08    1.46 
 -10   1   0    9.29    1.37 
   9  -1   0   32.64    1.72 
   9  -1   0   33.48    1.92 
  -9   1   0   33.32    1.70 
  -9   1   0   33.57    1.77 
   8  -1   0   73.01    2.55 
   8  -1   0   75.86    2.46 
   8  -1   0   78.31    1.68 
   8  -1   0   73.16    2.40 
  -8   1   0   77.65    2.41 
  -8   1   0   78.13    2.37 
   7  -1   0   51.49    1.93 
   7  -1   0   53.73    1.86 
   7  -1   0   52.86    1.25 
   7  -1   0   47.86    1.66 
  -7   1   0   48.80    1.74 
  -7   1   0   52.88    1.79 
   6  -1   0    1.05    0.47 
   6  -1   0    0.09    0.38 
   6  -1   0    0.10    0.34 
   6  -1   0    0.53    0.19 
  -6   1   0    1.05    0.44 
  -6   1   0    0.37    0.41 
   5  -1   0   76.80    2.00 
   5  -1   0   83.04    1.74 
   5  -1   0   81.30    2.09 
   5  -1   0   79.29    2.14 
  -5   1   0   80.24    2.01 
  -5   1   0   84.14    2.02 
   4  -1   0  311.34    5.73 
   4  -1   0  302.17    6.00 
   3  -1   0  208.84    4.20 
   3  -1   0  212.69    4.01 
  -3   1   0  218.36    4.03 
   2  -1   0   95.81    1.86 
   2  -1   0   93.57    1.97 
  -2   1   0   96.16    1.87 
   1  -1   0  134.71    2.62 
  -1   1   0  137.18    2.67 
  -1   1   0  142.00    2.58 
  -1  -1   0   19.13    0.52 
   1   1   0   18.63    0.49 
   1   1   0   18.37    0.50 
   2   1   0  107.08    2.20 
   2   1   0  110.01    2.10 
  -3  -1   0   77.82    1.52 
   3   1   0   72.06    1.51 
   3   1   0   69.76    1.67 
  -4  -1   0  222.78    4.47 
   4   1   0  226.53    4.59 
   4   1   0  215.57    4.15 
   4   1   0  210.32    4.46 
  -5  -1   0   85.06    2.11 
  -5  -1   0   90.00    2.24 
   5   1   0   87.97    2.20 
   5   1   0   88.30    2.17 
   5   1   0   88.12    1.86 
   5   1   0   85.20    2.31 
  -6  -1   0   74.83    2.05 
  -6  -1   0   75.42    2.15 
   6   1   0   72.84    1.63 
   6   1   0   74.47    2.09 
   6   1   0   71.48    2.19 
   6   1   0   73.26    2.05 
  -7  -1   0    1.45    0.55 
  -7  -1   0    0.86    0.51 
   7   1   0    0.54    0.51 
   7   1   0    0.79    0.47 
   7   1   0    1.41    0.25 
   7   1   0    0.86    0.60 
  -8  -1   0    8.62    1.05 
  -8  -1   0    6.98    1.16 
   8   1   0    8.50    0.54 
   8   1   0    7.84    1.30 
   8   1   0    7.25    1.02 
   8   1   0    6.26    1.14 
  -9  -1   0    8.17    1.38 
  -9  -1   0   10.08    1.26 
   9   1   0    8.43    1.37 
   9   1   0    9.51    1.37 
 -10  -1   0    0.38    0.95 
 -10  -1   0   -0.36    0.83 
  10   1   0    1.64    0.75 
  10   1   0   -0.04    0.96 
 -11  -1   0   33.74    2.46 
 -11  -1   0   36.21    2.10 
  11   1   0   34.14    2.26 
  11   1   0   38.92    1.96 
  11  -2   0   13.25    1.81 
  11  -2   0   15.96    1.52 
 -11   2   0   12.28    1.52 
 -11   2   0   14.94    1.81 
  10  -2   0    4.84    1.06 
  10  -2   0    6.40    1.22 
 -10   2   0    7.96    1.39 
 -10   2   0    6.52    1.09 
   9  -2   0    8.04    1.41 
   9  -2   0    5.77    1.67 
  -9   2   0    5.58    0.93 
  -9   2   0    7.26    1.01 
   8  -2   0  119.16    3.37 
   8  -2   0  128.13    2.88 
   8  -2   0  123.64    3.31 
   8  -2   0  118.93    3.30 
  -8   2   0  125.20    3.11 
  -8   2   0  119.53    3.20 
   7  -2   0  101.86    2.80 
   7  -2   0  104.19    2.21 
   7  -2   0   99.01    2.82 
   7  -2   0   98.43    2.68 
  -7   2   0   99.10    2.54 
  -7   2   0   99.33    2.65 
   6  -2   0    0.85    0.23 
   6  -2   0    1.30    0.51 
   6  -2   0    0.72    0.49 
  -6   2   0    0.36    0.41 
  -6   2   0    0.89    0.34 
   5  -2   0  117.97    2.78 
   5  -2   0  117.98    2.77 
   5  -2   0  121.87    2.48 
   5  -2   0  119.30    2.86 
  -5   2   0  116.65    2.69 
   4  -2   0  522.47    9.52 
   4  -2   0  515.15    9.77 
   4  -2   0  520.72    9.90 
   4  -2   0  510.81   10.03 
  -4   2   0  508.50    9.91 
   3  -2   0  340.53    6.57 
   3  -2   0  347.68    6.42 
   2  -2   0  263.11    5.02 
   2  -2   0  263.01    4.93 
   1  -2   0  105.66    2.09 
  -1   2   0  105.07    2.12 
   0  -2   0    5.78    0.32 
   0   2   0    5.87    0.34 
   0   2   0    6.73    0.34 
  -1  -2   0    0.60    0.14 
   1   2   0    0.67    0.17 
   1   2   0    0.41    0.16 
   2   2   0   17.46    0.54 
   2   2   0   17.40    0.58 
   3   2   0   18.95    0.71 
   3   2   0   19.09    0.59 
  -4  -2   0    0.51    0.35 
   4   2   0    0.37    0.19 
   4   2   0    0.61    0.31 
  -5  -2   0   55.85    1.72 
  -5  -2   0   59.51    1.61 
   5   2   0   56.11    1.64 
   5   2   0   57.31    1.37 
   5   2   0   57.30    1.85 
   5   2   0   56.07    1.60 
  -6  -2   0    2.32    0.45 
   6   2   0    2.45    0.42 
   6   2   0    4.66    0.88 
   6   2   0    2.16    0.46 
   6   2   0    2.70    0.47 
  -7  -2   0   84.36    2.39 
  -7  -2   0   79.78    2.48 
  -7  -2   0   88.71    2.06 
   7   2   0   83.61    2.70 
   7   2   0   84.78    2.30 
   7   2   0   83.96    1.87 
   7   2   0   85.06    2.46 
  -8  -2   0   15.19    1.21 
  -8  -2   0   15.74    0.91 
  -8  -2   0   15.13    1.31 
   8   2   0   17.24    1.07 
   8   2   0   15.55    1.48 
   8   2   0   14.16    1.36 
  -9  -2   0    1.82    0.95 
  -9  -2   0    0.36    0.72 
   9   2   0    0.62    0.64 
   9   2   0   -0.19    0.85 
 -10  -2   0    0.21    0.95 
 -10  -2   0    0.26    0.83 
  10   2   0    1.34    0.98 
  10   2   0    2.09    0.72 
 -11  -2   0   31.86    2.22 
 -11  -2   0   33.76    2.14 
  11   2   0   32.50    2.43 
  11   2   0   32.99    1.94 
  11  -3   0   13.42    2.03 
  11  -3   0    8.71    1.40 
 -11   3   0   13.55    1.70 
 -11   3   0   11.72    1.64 
  10  -3   0    2.53    0.98 
  10  -3   0    2.58    0.77 
 -10   3   0    3.13    0.98 
 -10   3   0    2.64    0.89 
   9  -3   0    1.47    0.97 
   9  -3   0    0.85    0.88 
  -9   3   0   -0.03    0.76 
  -9   3   0    0.63    0.79 
   8  -3   0   12.90    1.26 
   8  -3   0   13.81    0.69 
   8  -3   0   11.75    1.12 
  -8   3   0   12.61    1.13 
  -8   3   0   14.49    1.19 
   7  -3   0   36.82    1.61 
   7  -3   0   35.83    1.61 
   7  -3   0   37.48    1.11 
   7  -3   0   37.89    1.61 
  -7   3   0   34.90    1.39 
  -7   3   0   31.47    1.37 
   6  -3   0    0.86    0.27 
   6  -3   0    1.28    0.55 
   6  -3   0    0.63    0.48 
  -6   3   0    1.39    0.49 
  -6   3   0    0.70    0.44 
   5  -3   0   10.29    0.78 
   5  -3   0   10.43    0.84 
   5  -3   0   11.34    0.80 
  -5   3   0    8.33    0.68 
   4  -3   0   10.55    0.74 
   4  -3   0    9.32    0.52 
   4  -3   0   10.50    0.66 
  -4   3   0    9.92    0.63 
   3  -3   0  112.53    2.37 
   2  -3   0   36.91    0.97 
  -2   3   0   38.28    1.05 
   1  -3   0   26.56    0.77 
  -1   3   0   26.59    0.79 
   0  -3   0   26.91    0.78 
   0   3   0   28.15    0.77 
  -1  -3   0  127.33    2.61 
   1   3   0  131.40    2.61 
   2   3   0    4.83    0.39 
  -3  -3   0    1.72    0.41 
   3   3   0    1.77    0.26 
   3   3   0    2.67    0.49 
   3   3   0    2.72    0.44 
  -4  -3   0    3.84    0.53 
   4   3   0    3.43    0.50 
   4   3   0    5.36    0.73 
   4   3   0    3.27    0.41 
  -5  -3   0    3.52    0.50 
  -5  -3   0    3.55    0.58 
  -5  -3   0    3.76    0.67 
   5   3   0    4.01    0.66 
   5   3   0    3.63    0.56 
   5   3   0    3.56    0.45 
   5   3   0    2.68    0.54 
  -6  -3   0   15.99    0.87 
  -6  -3   0   15.01    1.05 
  -6  -3   0   15.31    0.92 
   6   3   0   15.85    0.91 
   6   3   0   16.76    1.23 
   6   3   0   15.92    0.89 
  -7  -3   0   73.28    2.17 
  -7  -3   0   70.42    2.36 
  -7  -3   0   73.31    1.92 
   7   3   0   70.33    2.58 
   7   3   0   74.95    2.18 
   7   3   0   71.92    2.24 
  -8  -3   0   38.44    1.97 
  -8  -3   0   38.92    1.67 
  -8  -3   0   39.80    1.40 
   8   3   0   36.25    1.84 
   8   3   0   40.34    2.08 
   8   3   0   37.88    1.77 
  -9  -3   0    5.92    1.01 
  -9  -3   0    4.14    1.02 
   9   3   0    3.70    1.03 
   9   3   0    4.17    1.02 
 -10  -3   0    4.90    1.18 
 -10  -3   0    3.86    0.91 
  10   3   0    1.86    1.10 
  10   3   0    2.32    1.00 
 -11  -3   0   21.97    2.41 
 -11  -3   0   18.97    1.70 
  11   3   0   20.09    1.98 
  11   3   0   18.11    1.80 
  11  -4   0    1.10    0.72 
  11  -4   0    1.59    1.06 
 -11   4   0    3.57    1.11 
 -11   4   0    3.02    1.10 
  10  -4   0    4.93    1.22 
  10  -4   0    2.53    0.93 
 -10   4   0    1.96    0.83 
 -10   4   0    2.74    0.99 
   9  -4   0    1.63    0.87 
  -9   4   0    0.37    0.65 
  -9   4   0    0.16    0.77 
   8  -4   0   17.07    1.39 
   8  -4   0   19.84    0.86 
   8  -4   0   19.78    0.88 
   8  -4   0   18.87    1.47 
   8  -4   0   21.11    1.53 
  -8   4   0   20.44    1.21 
  -8   4   0   18.78    1.21 
   7  -4   0   72.60    1.84 
   7  -4   0   73.31    1.82 
   7  -4   0   74.57    2.37 
   7  -4   0   69.59    2.36 
   7  -4   0   72.09    2.28 
  -7   4   0   74.58    2.00 
  -7   4   0   68.76    2.12 
   6  -4   0    9.03    0.87 
   6  -4   0    8.21    0.76 
   6  -4   0   11.55    0.96 
   6  -4   0   10.85    0.65 
   6  -4   0   11.13    0.71 
  -6   4   0   10.12    0.84 
  -6   4   0   11.68    0.74 
   5  -4   0    6.59    0.55 
   5  -4   0    7.86    0.75 
   5  -4   0    6.70    0.67 
  -5   4   0    6.70    0.68 
   4  -4   0   14.93    0.66 
   4  -4   0   14.95    0.84 
   4  -4   0   13.07    0.68 
  -4   4   0   15.45    0.84 
  -4   4   0   13.76    0.72 
   3  -4   0   17.30    0.71 
  -3   4   0   17.35    0.80 
   2  -4   0   10.80    0.69 
  -2   4   0   11.92    0.59 
  -1   4   0  303.91    5.84 
   0  -4   0  262.86    5.52 
   0   4   0  293.65    5.37 
   1   4   0    9.08    0.51 
  -2  -4   0    4.61    0.53 
   2   4   0    4.11    0.57 
   2   4   0    4.88    0.46 
  -3  -4   0  247.21    5.06 
  -3  -4   0  249.59    4.95 
   3   4   0  246.64    5.18 
   3   4   0  245.95    4.88 
  -4  -4   0  151.13    3.50 
  -4  -4   0  153.43    3.31 
   4   4   0  154.48    3.22 
   4   4   0  151.91    3.60 
   4   4   0  153.46    3.35 
  -5  -4   0    1.15    0.41 
  -5  -4   0    1.08    0.53 
  -5  -4   0    1.24    0.38 
   5   4   0    0.63    0.39 
   5   4   0    0.96    0.29 
   5   4   0    0.42    0.40 
  -6  -4   0   22.36    0.99 
  -6  -4   0   21.13    1.32 
  -6  -4   0   21.09    1.02 
   6   4   0   21.81    1.15 
   6   4   0   23.66    1.44 
   6   4   0   20.48    1.06 
   6   4   0   21.47    0.91 
  -7  -4   0   42.14    1.38 
  -7  -4   0   37.74    1.71 
  -7  -4   0   41.67    1.56 
   7   4   0   40.53    1.52 
   7   4   0   38.76    1.68 
   7   4   0   36.26    1.77 
   7   4   0   40.58    1.25 
  -8  -4   0   25.83    1.26 
  -8  -4   0   24.70    1.71 
  -8  -4   0   25.86    1.38 
   8   4   0   26.50    1.47 
   8   4   0   22.34    1.62 
   8   4   0   26.04    1.52 
  -9  -4   0   19.25    1.69 
  -9  -4   0   18.73    1.46 
   9   4   0   17.16    1.73 
 -10  -4   0    0.40    0.84 
 -10  -4   0   -1.87    1.10 
  10   4   0   -1.34    0.92 
  10   4   0   -0.26    1.12 
  11  -5   0   10.23    1.45 
 -11   5   0   11.88    1.66 
 -11   5   0   13.89    1.74 
  10  -5   0    7.03    1.28 
  10  -5   0    7.35    1.08 
 -10   5   0   10.61    1.39 
   9  -5   0   10.23    1.35 
   9  -5   0    9.11    1.41 
   9  -5   0   10.89    0.88 
  -9   5   0   10.41    1.25 
  -9   5   0   10.91    1.15 
   8  -5   0   -0.14    0.54 
   8  -5   0    1.83    0.88 
   8  -5   0    0.07    0.43 
   8  -5   0    0.59    0.36 
  -8   5   0   -0.01    0.51 
  -8   5   0    0.58    0.69 
   7  -5   0   79.27    2.06 
   7  -5   0   81.38    2.56 
   7  -5   0   81.01    2.03 
   7  -5   0   77.19    2.47 
  -7   5   0   78.41    2.52 
  -7   5   0   80.20    2.11 
  -7   5   0   78.57    2.31 
   6  -5   0   16.90    1.14 
   6  -5   0   14.59    1.07 
   6  -5   0   15.43    0.81 
   6  -5   0   15.09    0.84 
  -6   5   0   14.11    0.84 
  -6   5   0   13.63    0.96 
  -6   5   0   14.93    0.92 
   5  -5   0   56.91    1.77 
   5  -5   0   57.59    1.86 
   5  -5   0   61.18    1.63 
   5  -5   0   59.49    1.62 
  -5   5   0   57.45    1.82 
  -5   5   0   55.84    1.62 
   4  -5   0   66.69    1.70 
   4  -5   0   65.68    1.69 
   4  -5   0   64.19    1.85 
   4  -5   0   60.48    1.78 
  -4   5   0   59.22    1.77 
  -4   5   0   62.39    1.64 
   3  -5   0   11.14    0.66 
   3  -5   0   10.32    0.70 
   3  -5   0   10.69    0.64 
   3  -5   0   10.88    0.73 
  -3   5   0   12.32    0.79 
   2  -5   0   85.63    2.24 
   2  -5   0   85.39    2.05 
   2  -5   0   83.01    2.10 
  -2   5   0   86.61    2.09 
   1  -5   0  139.18    3.00 
  -1   5   0  138.39    2.99 
   0  -5   0  213.84    4.40 
   0   5   0  221.89    4.38 
  -1  -5   0   -0.02    0.22 
  -1  -5   0    0.09    0.25 
   1   5   0    0.32    0.28 
   1   5   0    0.52    0.43 
  -2  -5   0    7.71    0.73 
  -2  -5   0    7.42    0.56 
  -2  -5   0    7.78    0.59 
  -2  -5   0    6.97    0.54 
   2   5   0    8.07    0.72 
   2   5   0    6.40    0.92 
  -3  -5   0   70.70    1.79 
  -3  -5   0   69.96    1.93 
  -3  -5   0   70.95    1.84 
   3   5   0   70.32    1.81 
   3   5   0   69.32    2.03 
   3   5   0   72.39    1.83 
  -4  -5   0  336.31    6.57 
  -4  -5   0  335.48    6.71 
  -4  -5   0  335.96    6.90 
   4   5   0  346.56    6.64 
   4   5   0  339.89    6.72 
   4   5   0  329.40    7.02 
  -5  -5   0   21.57    0.89 
  -5  -5   0   19.29    1.20 
  -5  -5   0   20.56    0.94 
  -5  -5   0   20.85    1.00 
   5   5   0   19.24    1.06 
   5   5   0   19.07    1.24 
   5   5   0   20.35    0.95 
   5   5   0   20.45    1.00 
  -6  -5   0    0.03    0.51 
  -6  -5   0    1.14    0.42 
  -6  -5   0    0.29    0.66 
   6   5   0    0.50    0.39 
   6   5   0    0.45    0.36 
   6   5   0   -0.24    0.47 
   6   5   0    0.11    0.52 
   6   5   0    0.13    0.59 
  -7  -5   0   10.42    1.96 
  -7  -5   0   11.92    1.07 
  -7  -5   0   13.59    0.99 
   7   5   0   13.52    0.84 
   7   5   0   11.58    1.07 
   7   5   0   13.64    1.09 
   7   5   0    9.64    1.10 
  -8  -5   0   27.45    1.43 
  -8  -5   0   22.44    1.48 
  -8  -5   0   29.51    1.52 
   8   5   0   27.84    1.86 
   8   5   0   27.63    1.54 
  -9  -5   0   15.29    1.95 
  -9  -5   0   13.97    1.31 
   9   5   0    9.81    1.59 
   9   5   0   13.99    1.79 
 -10  -5   0   -0.39    0.94 
  10   5   0    2.17    1.29 
  11  -6   0    4.27    1.05 
  11  -6   0    2.69    0.94 
 -11   6   0    6.67    1.34 
  10  -6   0    9.65    1.72 
  10  -6   0    7.09    1.25 
 -10   6   0   11.19    1.56 
 -10   6   0   11.34    1.30 
   9  -6   0   25.14    1.13 
   9  -6   0   24.06    1.20 
   9  -6   0   21.70    1.56 
   9  -6   0   25.58    1.81 
  -9   6   0   22.42    1.50 
  -9   6   0   22.74    1.34 
   8  -6   0   36.86    1.37 
   8  -6   0   38.31    1.35 
  -8   6   0   35.78    1.42 
  -8   6   0   36.90    1.75 
   7  -6   0   -0.18    0.43 
   7  -6   0   -0.04    0.61 
   7  -6   0   -0.13    0.57 
   7  -6   0    0.13    0.38 
  -7   6   0    0.94    0.66 
  -7   6   0    0.45    0.59 
   6  -6   0    3.84    0.63 
   6  -6   0    2.93    0.75 
   6  -6   0    3.16    0.61 
   6  -6   0    2.44    0.51 
  -6   6   0    1.35    0.59 
  -6   6   0    2.93    0.61 
   5  -6   0  389.60    8.03 
   5  -6   0  409.32    7.86 
   5  -6   0  381.69    8.07 
   5  -6   0  405.91    7.82 
  -5   6   0  393.38    7.75 
  -5   6   0  404.66    8.12 
   4  -6   0  250.80    5.44 
   4  -6   0  253.16    5.24 
   4  -6   0  266.36    5.31 
   4  -6   0  252.41    5.36 
  -4   6   0  253.39    5.09 
  -4   6   0  261.94    5.47 
   3  -6   0   49.86    1.42 
   3  -6   0   49.59    1.48 
   3  -6   0   50.97    1.51 
   3  -6   0   48.31    1.48 
  -3   6   0   47.94    1.51 
   2  -6   0   18.95    0.84 
   2  -6   0   20.40    0.84 
   2  -6   0   20.71    0.88 
   2  -6   0   21.00    0.92 
  -2   6   0   18.87    0.89 
  -2   6   0   21.57    0.97 
   1  -6   0  149.76    3.25 
   1  -6   0  147.66    3.26 
   1  -6   0  149.99    3.18 
  -1   6   0  144.66    3.25 
   0  -6   0  100.58    2.38 
   0  -6   0  105.79    2.39 
   0  -6   0   99.04    2.41 
   0   6   0  102.06    2.53 
   0   6   0  104.96    2.40 
  -1  -6   0    9.43    1.02 
  -1  -6   0   10.32    0.70 
  -1  -6   0   10.22    0.73 
  -1  -6   0   10.29    0.75 
   1   6   0    9.74    0.68 
   1   6   0   11.56    0.88 
  -2  -6   0    3.00    0.48 
  -2  -6   0    3.74    0.57 
  -2  -6   0    3.93    0.65 
  -2  -6   0    4.31    0.55 
   2   6   0    3.43    0.52 
   2   6   0    4.20    0.54 
  -3  -6   0   69.96    2.05 
  -3  -6   0   71.63    1.99 
  -3  -6   0   71.57    1.86 
   3   6   0   72.35    2.23 
   3   6   0   74.75    1.96 
   3   6   0   71.59    1.93 
  -4  -6   0  406.83    7.92 
  -4  -6   0  407.10    8.27 
  -4  -6   0  405.89    8.09 
   4   6   0  414.87    8.04 
   4   6   0  395.89    8.40 
   4   6   0  414.58    8.02 
   4   6   0  413.12    7.87 
  -5  -6   0   21.04    0.90 
  -5  -6   0   17.56    1.12 
  -5  -6   0   20.34    1.01 
  -5  -6   0   20.28    1.03 
   5   6   0   19.71    0.99 
   5   6   0   20.25    1.03 
   5   6   0   20.27    1.51 
   5   6   0   19.37    1.03 
  -6  -6   0   51.29    1.57 
  -6  -6   0   52.01    2.02 
  -6  -6   0   51.40    1.82 
   6   6   0   52.87    1.67 
   6   6   0   53.01    1.56 
   6   6   0   53.02    1.62 
   6   6   0   52.21    1.79 
   6   6   0   49.52    2.08 
  -7  -6   0    4.41    0.66 
  -7  -6   0    3.70    1.10 
  -7  -6   0    3.29    0.78 
   7   6   0    4.36    0.81 
   7   6   0    7.70    1.45 
   7   6   0    3.97    0.79 
   7   6   0    4.42    0.58 
  -8  -6   0   32.81    1.72 
  -8  -6   0   36.93    2.20 
  -8  -6   0   35.87    1.69 
   8   6   0   36.30    1.68 
   8   6   0   31.53    1.94 
  -9  -6   0    7.25    1.19 
  -9  -6   0   10.76    1.37 
  -9  -6   0   10.98    1.35 
   9   6   0    7.57    1.42 
  11  -7   0    1.81    1.30 
  11  -7   0    0.16    0.91 
 -11   7   0    1.70    1.14 
  10  -7   0    0.47    0.90 
  10  -7   0    1.33    1.21 
 -10   7   0    1.05    0.81 
   9  -7   0   48.76    1.75 
   9  -7   0   49.62    1.75 
   9  -7   0   46.65    2.24 
   9  -7   0   49.36    2.37 
  -9   7   0   46.98    2.15 
   8  -7   0   39.33    1.45 
   8  -7   0   38.07    1.98 
   8  -7   0   38.05    1.98 
   8  -7   0   39.89    1.54 
  -8   7   0   37.72    1.62 
  -8   7   0   37.86    1.82 
   7  -7   0   33.94    1.73 
   7  -7   0   34.79    1.43 
   7  -7   0   37.64    1.43 
   7  -7   0   33.34    1.67 
  -7   7   0   36.77    2.90 
  -7   7   0   36.13    1.58 
  -7   7   0   35.52    1.32 
   6  -7   0    8.53    0.71 
   6  -7   0    7.68    0.81 
   6  -7   0    7.31    1.06 
   6  -7   0    7.36    1.05 
  -6   7   0    7.70    0.78 
   5  -7   0    8.77    0.96 
   5  -7   0    8.61    0.81 
   5  -7   0    7.61    0.86 
   5  -7   0    7.34    0.68 
  -5   7   0    9.31    1.06 
  -5   7   0    8.16    0.76 
   4  -7   0   67.56    1.96 
   4  -7   0   65.51    2.03 
   4  -7   0   69.65    1.74 
   4  -7   0   69.40    1.97 
   4  -7   0   67.58    1.99 
  -4   7   0   68.76    2.10 
  -4   7   0   67.51    1.74 
   3  -7   0   64.19    1.66 
   3  -7   0   65.43    1.86 
   3  -7   0   62.99    1.82 
   3  -7   0   62.24    1.91 
  -3   7   0   63.44    1.89 
  -3   7   0   62.08    1.89 
   2  -7   0    7.42    0.61 
   2  -7   0    8.28    0.72 
   2  -7   0    8.38    0.75 
   2  -7   0    7.91    0.75 
  -2   7   0    6.74    0.71 
  -2   7   0    6.85    0.74 
   1  -7   0   47.18    1.53 
   1  -7   0   47.27    1.37 
   1  -7   0   45.90    1.47 
  -1   7   0   45.09    1.47 
  -1   7   0   46.12    1.47 
  -1   7   0   43.93    1.51 
   0  -7   0  131.87    3.06 
   0  -7   0  127.23    3.00 
   0  -7   0  128.76    2.98 
   0   7   0  131.80    3.00 
   0   7   0  126.78    3.16 
  -1  -7   0  173.68    3.71 
  -1  -7   0  170.03    3.80 
  -1  -7   0  169.45    3.78 
  -1  -7   0  171.74    3.82 
   1   7   0  173.68    3.75 
   1   7   0  172.08    4.00 
  -2  -7   0   10.08    0.73 
  -2  -7   0   10.79    0.81 
  -2  -7   0   10.83    0.87 
  -2  -7   0   10.88    0.72 
   2   7   0   10.58    0.82 
   2   7   0    7.88    0.76 
  -3  -7   0   19.53    0.93 
  -3  -7   0   19.22    1.14 
  -3  -7   0   18.01    0.97 
   3   7   0   14.90    0.98 
   3   7   0   20.80    1.00 
   3   7   0   18.45    1.00 
  -4  -7   0   23.09    1.34 
  -4  -7   0   25.03    1.26 
  -4  -7   0   23.55    1.13 
   4   7   0   25.98    1.49 
   4   7   0   23.84    1.21 
   4   7   0   25.34    1.17 
   4   7   0   22.65    1.07 
  -5  -7   0   -0.12    0.52 
  -5  -7   0    0.50    0.61 
  -5  -7   0    0.70    0.49 
  -5  -7   0    0.39    0.42 
   5   7   0    0.71    0.47 
   5   7   0    0.47    0.45 
   5   7   0    0.23    0.54 
   5   7   0    0.51    0.70 
  -6  -7   0   24.75    1.10 
  -6  -7   0   24.94    1.41 
  -6  -7   0   22.65    1.51 
   6   7   0   25.17    1.19 
   6   7   0   25.94    1.80 
   6   7   0   25.95    1.26 
   6   7   0   23.74    1.43 
  -7  -7   0    0.03    0.66 
  -7  -7   0    1.32    0.59 
   7   7   0   -0.32    0.82 
   7   7   0    0.41    0.91 
  -8  -7   0    0.03    0.76 
  -8  -7   0   -0.19    1.04 
   8   7   0    3.53    1.27 
  -9  -7   0    2.27    1.35 
  -9  -7   0    1.55    0.83 
   9   7   0    4.50    1.58 
  11  -8   0    5.94    1.20 
  11  -8   0   11.44    2.11 
 -11   8   0    8.46    1.40 
  10  -8   0   -0.64    0.90 
 -10   8   0    1.11    1.02 
   9  -8   0   35.63    2.08 
   9  -8   0   35.60    1.89 
   9  -8   0   40.53    1.57 
  -9   8   0   36.19    1.95 
   8  -8   0   13.14    1.14 
   8  -8   0   13.39    1.22 
   8  -8   0   12.39    1.38 
   8  -8   0   14.52    1.30 
   7  -8   0   16.05    1.25 
   7  -8   0   15.71    0.95 
   7  -8   0   13.74    1.50 
  -7   8   0   14.42    1.05 
   6  -8   0    0.68    0.35 
   6  -8   0    1.59    0.64 
   6  -8   0    1.03    0.51 
   6  -8   0    1.99    0.75 
  -6   8   0    0.33    0.53 
  -6   8   0   -0.23    0.64 
   5  -8   0    1.84    0.33 
   5  -8   0    1.21    0.50 
   5  -8   0    1.35    0.51 
   5  -8   0    1.69    0.38 
  -5   8   0    1.04    0.50 
  -5   8   0    0.70    0.51 
   4  -8   0   61.12    2.04 
   4  -8   0   62.28    2.01 
   4  -8   0   59.07    1.85 
   4  -8   0   64.95    1.68 
  -4   8   0   64.72    1.69 
  -4   8   0   62.23    1.99 
  -4   8   0   62.86    2.08 
   3  -8   0   50.63    1.53 
   3  -8   0   51.30    1.71 
   3  -8   0   50.25    1.69 
   3  -8   0   48.74    1.73 
  -3   8   0   47.99    1.75 
  -3   8   0   52.02    1.82 
   2  -8   0    0.87    0.43 
   2  -8   0   -0.07    0.37 
   2  -8   0   -0.22    0.36 
   2  -8   0    1.25    0.56 
  -2   8   0    0.48    0.44 
  -2   8   0    0.36    0.43 
   1  -8   0   -0.16    0.42 
   1  -8   0    0.15    0.41 
  -1   8   0    0.37    0.45 
  -1   8   0    0.63    0.48 
  -1   8   0    0.30    0.48 
   0  -8   0  125.57    3.05 
   0  -8   0  126.62    3.10 
   0  -8   0  126.93    3.02 
   0  -8   0  127.60    2.85 
   0   8   0  122.07    3.20 
   0   8   0  127.52    2.90 
   0   8   0  125.51    3.01 
  -1  -8   0   32.30    1.27 
  -1  -8   0   34.23    1.28 
  -1  -8   0   33.05    1.34 
  -1  -8   0   33.77    1.37 
   1   8   0   36.25    1.29 
   1   8   0   33.33    1.30 
   1   8   0   31.36    1.43 
  -2  -8   0   85.79    2.38 
  -2  -8   0   87.87    2.36 
  -2  -8   0   86.12    2.40 
  -2  -8   0   87.86    2.45 
   2   8   0   87.98    2.34 
   2   8   0   79.07    2.48 
   2   8   0   91.85    2.16 
  -3  -8   0   47.63    1.75 
  -3  -8   0   45.30    1.56 
  -3  -8   0   45.00    1.65 
   3   8   0   46.14    1.43 
   3   8   0   45.48    1.66 
   3   8   0   45.68    1.56 
   3   8   0   41.60    1.72 
  -4  -8   0   13.56    1.08 
  -4  -8   0   16.12    1.11 
  -4  -8   0   16.09    1.24 
   4   8   0   15.09    0.99 
   4   8   0   16.84    1.56 
   4   8   0   15.83    1.05 
   4   8   0   16.32    1.05 
  -5  -8   0    3.37    0.76 
  -5  -8   0    3.06    0.74 
  -5  -8   0    3.94    0.77 
   5   8   0    1.98    0.81 
   5   8   0    3.74    0.48 
   5   8   0    3.44    0.80 
   5   8   0    3.98    0.63 
  -6  -8   0    7.24    1.03 
  -6  -8   0    9.06    1.18 
   6   8   0   11.44    1.69 
   6   8   0    6.91    0.94 
   6   8   0    8.57    1.35 
  -7  -8   0    8.38    1.37 
  -7  -8   0    6.99    1.08 
   7   8   0    6.13    1.17 
  -8  -8   0    2.21    1.04 
  -8  -8   0    3.77    0.88 
   8   8   0    0.74    0.92 
  10  -9   0    0.64    0.92 
  10  -9   0   -1.16    0.86 
 -10   9   0    2.53    1.06 
   9  -9   0    1.96    1.04 
   9  -9   0    3.23    0.93 
  -9   9   0    2.03    1.00 
   8  -9   0    7.34    1.27 
   8  -9   0    8.15    0.99 
   8  -9   0    7.51    1.18 
  -8   9   0    7.62    1.24 
   7  -9   0   15.71    1.24 
   7  -9   0   14.86    1.61 
  -7   9   0   16.80    1.28 
   6  -9   0   -0.77    0.43 
   6  -9   0    0.88    0.56 
   6  -9   0    0.51    0.56 
   6  -9   0    0.17    0.33 
  -6   9   0    0.59    0.82 
  -6   9   0    0.32    0.52 
   5  -9   0    1.39    0.45 
   5  -9   0    1.31    0.67 
   5  -9   0    0.96    0.60 
   5  -9   0    0.68    0.44 
  -5   9   0    1.47    0.48 
  -5   9   0    0.06    0.65 
  -5   9   0    0.28    0.65 
   4  -9   0   66.69    1.83 
   4  -9   0   64.32    2.15 
   4  -9   0   65.56    2.06 
   4  -9   0   63.94    2.21 
  -4   9   0   65.61    1.73 
  -4   9   0   63.99    2.23 
  -4   9   0   67.14    2.23 
   3  -9   0   13.27    1.16 
   3  -9   0   12.25    0.80 
   3  -9   0   11.82    0.93 
   3  -9   0   12.15    0.92 
  -3   9   0   11.93    1.10 
  -3   9   0   12.78    1.17 
   2  -9   0    1.63    0.52 
   2  -9   0    2.21    0.58 
   2  -9   0    1.24    0.47 
  -2   9   0    2.47    0.66 
  -2   9   0    2.91    0.65 
  -2   9   0    2.68    0.59 
   1  -9   0    1.67    0.58 
   1  -9   0    1.06    0.38 
   1  -9   0    1.98    0.39 
   1  -9   0    0.84    0.51 
  -1   9   0    1.86    0.51 
  -1   9   0    1.35    0.61 
  -1   9   0    2.27    0.69 
   0  -9   0    2.53    0.67 
   0  -9   0    4.63    0.60 
   0  -9   0    3.35    0.63 
   0  -9   0    3.54    0.69 
   0   9   0    3.19    0.52 
   0   9   0    2.86    0.68 
   0   9   0    2.84    0.57 
  -1  -9   0    1.98    0.66 
  -1  -9   0    0.79    0.48 
  -1  -9   0    2.34    0.68 
  -1  -9   0    1.01    0.46 
   1   9   0    1.46    0.44 
   1   9   0    1.06    0.49 
   1   9   0   -0.03    0.53 
  -2  -9   0    8.35    0.83 
  -2  -9   0    5.71    0.73 
  -2  -9   0    8.35    0.99 
   2   9   0    8.33    0.89 
   2   9   0    9.38    0.79 
   2   9   0    6.56    0.93 
  -3  -9   0   14.71    1.05 
  -3  -9   0   17.99    1.24 
  -3  -9   0   18.44    1.16 
   3   9   0   15.97    1.38 
   3   9   0   19.13    1.13 
   3   9   0   17.42    1.33 
   3   9   0   17.14    1.04 
  -4  -9   0    1.68    0.66 
  -4  -9   0    2.73    0.77 
  -4  -9   0    1.44    1.32 
   4   9   0    1.93    0.63 
   4   9   0    3.18    0.61 
   4   9   0    4.11    1.05 
  -5  -9   0    0.85    0.79 
  -5  -9   0    0.70    0.67 
  -5  -9   0    0.61    0.76 
   5   9   0    2.59    0.73 
   5   9   0   -0.22    0.67 
   5   9   0    1.79    0.82 
  -6  -9   0    4.34    0.96 
  -6  -9   0    3.03    0.88 
   6   9   0    2.46    1.17 
   6   9   0    1.59    0.98 
  -7  -9   0    4.63    1.08 
  -7  -9   0    4.17    0.95 
   7   9   0    6.67    1.42 
  -8  -9   0    4.04    1.24 
  -8  -9   0    4.04    1.10 
   8   9   0    2.12    1.09 
  10 -10   0   -1.63    0.90 
 -10  10   0   -0.88    1.01 
 -10  10   0    2.44    1.40 
   9 -10   0    5.44    0.89 
   9 -10   0    6.10    1.37 
  -9  10   0    5.45    1.30 
  -9  10   0    5.69    1.09 
   8 -10   0    8.36    1.29 
   8 -10   0    6.67    1.15 
  -8  10   0    9.73    1.29 
  -8  10   0    9.56    1.75 
   7 -10   0    6.03    1.03 
   7 -10   0    7.39    1.40 
  -7  10   0    5.37    0.99 
  -7  10   0    6.57    0.92 
   6 -10   0   20.61    1.03 
   6 -10   0   19.82    1.49 
   6 -10   0   21.72    1.35 
  -6  10   0   20.74    1.78 
  -6  10   0   21.03    1.25 
   5 -10   0   13.48    1.28 
   5 -10   0   13.00    1.00 
  -5  10   0   12.23    1.38 
  -5  10   0   14.12    0.96 
   4 -10   0   -0.32    0.65 
   4 -10   0    0.85    0.71 
   4 -10   0    0.37    0.37 
  -4  10   0    0.28    0.63 
  -4  10   0    0.10    0.47 
  -4  10   0   -0.20    0.63 
   3 -10   0    4.58    0.71 
   3 -10   0    4.51    0.77 
   3 -10   0    5.60    0.73 
  -3  10   0    5.88    0.92 
  -3  10   0    6.25    0.93 
   2 -10   0   46.48    1.64 
   2 -10   0   47.69    1.87 
  -2  10   0   45.49    1.91 
  -2  10   0   47.52    1.74 
  -2  10   0   47.39    2.03 
   1 -10   0   49.23    1.90 
   1 -10   0   50.39    1.47 
   1 -10   0   47.91    1.79 
  -1  10   0   47.75    1.91 
  -1  10   0   50.05    1.66 
  -1  10   0   47.30    1.98 
   0 -10   0    2.43    0.54 
   0 -10   0    2.09    0.59 
   0  10   0    2.47    0.71 
   0  10   0    1.99    0.70 
   0  10   0    2.65    0.65 
  -1 -10   0   -0.28    0.43 
  -1 -10   0   -0.70    0.54 
  -1 -10   0   -0.49    0.50 
   1  10   0    0.00    0.57 
   1  10   0    1.59    0.82 
   1  10   0    0.01    0.52 
  -2 -10   0   21.40    1.19 
  -2 -10   0   23.94    1.16 
   2  10   0   23.26    1.29 
   2  10   0   21.27    1.18 
   2  10   0   23.06    1.63 
  -3 -10   0   12.39    1.30 
  -3 -10   0   13.29    1.15 
  -3 -10   0   11.98    1.17 
   3  10   0   13.75    1.22 
  -4 -10   0   17.50    1.46 
  -4 -10   0   22.42    1.31 
  -4 -10   0   18.54    1.52 
   4  10   0   21.75    1.48 
   4  10   0   21.63    1.85 
  -5 -10   0    0.29    1.05 
  -5 -10   0    2.25    0.94 
  -5 -10   0    0.83    0.82 
   5  10   0    0.58    0.96 
   5  10   0    1.17    1.04 
  -6 -10   0    2.67    0.95 
  -6 -10   0    2.58    1.01 
  -7 -10   0   29.94    2.28 
  -7 -10   0   27.73    1.77 
   7  10   0   31.47    2.68 
   9 -11   0    1.18    1.16 
   9 -11   0    0.59    0.82 
  -9  11   0    3.01    1.42 
  -9  11   0   -0.83    1.06 
   8 -11   0   -0.27    0.75 
   8 -11   0   -0.31    0.86 
  -8  11   0    0.71    1.11 
  -8  11   0   -0.50    1.00 
   7 -11   0    9.34    1.39 
   7 -11   0    9.15    1.07 
  -7  11   0    8.54    1.14 
  -7  11   0    7.80    1.23 
   6 -11   0   14.59    1.06 
   6 -11   0   14.48    1.02 
   6 -11   0   12.58    1.36 
  -6  11   0   14.02    1.63 
  -6  11   0   13.86    1.24 
   5 -11   0   16.19    1.16 
   5 -11   0   17.83    1.74 
   5 -11   0   16.02    1.22 
   4 -11   0   10.24    1.44 
   4 -11   0    6.67    0.98 
   4 -11   0    8.87    0.94 
  -4  11   0    7.53    1.29 
   3 -11   0    2.95    0.87 
   3 -11   0    2.14    0.64 
  -3  11   0    2.37    0.81 
  -3  11   0    2.96    0.84 
  -3  11   0    0.98    0.82 
   2 -11   0    5.88    0.94 
  -2  11   0    7.76    0.95 
  -2  11   0    5.39    0.93 
   1 -11   0   32.97    1.54 
   1 -11   0   34.20    1.26 
  -1  11   0   34.92    1.48 
  -1  11   0   34.67    1.67 
   0 -11   0   34.04    2.74 
   0 -11   0   36.34    1.34 
   0 -11   0   30.70    2.51 
   0  11   0   34.52    2.15 
   0  11   0   37.14    1.70 
   0  11   0   37.80    1.55 
  -1 -11   0    1.70    0.74 
  -1 -11   0    2.62    0.88 
  -1 -11   0    3.91    0.68 
   1  11   0    2.45    0.64 
   1  11   0    2.91    0.62 
  -2 -11   0   11.92    1.46 
  -2 -11   0   13.11    1.02 
  -2 -11   0   14.80    1.33 
   2  11   0   13.23    1.34 
   2  11   0   15.15    1.60 
  -3 -11   0   28.81    1.57 
  -3 -11   0   26.40    1.65 
   3  11   0   23.48    1.63 
   3  11   0   27.99    1.75 
  -4 -11   0   23.95    1.41 
  -4 -11   0   20.33    1.60 
  -4 -11   0   22.45    1.69 
   4  11   0   23.91    2.20 
  -5 -11   0    2.96    0.98 
  -5 -11   0    1.91    0.98 
  -5 -11   0    3.31    0.87 
   5  11   0    2.67    1.12 
  -6 -11   0    0.46    0.92 
  -6 -11   0    1.01    0.95 
   8 -12   0    2.00    1.18 
   8 -12   0    2.03    0.75 
  -8  12   0    2.37    1.39 
   7 -12   0   -0.58    0.80 
   7 -12   0    0.21    0.88 
  -7  12   0   -1.21    0.86 
   6 -12   0   10.37    1.56 
   6 -12   0   10.46    1.08 
   6 -12   0    9.05    1.39 
  -6  12   0    8.52    1.33 
   5 -12   0   20.28    1.86 
   5 -12   0   19.22    1.58 
   5 -12   0   17.26    1.36 
  -5  12   0   22.17    1.80 
   4 -12   0   12.11    1.33 
   4 -12   0   12.15    1.12 
  -4  12   0   12.72    1.56 
   3 -12   0    2.30    0.90 
   3 -12   0    2.05    0.83 
  -3  12   0    2.80    0.99 
  -3  12   0    1.07    0.94 
   2 -12   0    0.75    0.73 
   2 -12   0    0.67    0.54 
  -2  12   0    1.42    0.63 
  -2  12   0    0.27    0.72 
   1 -12   0   58.99    2.31 
   1 -12   0   61.85    2.41 
  -1  12   0   58.99    2.07 
  -1  12   0   63.73    2.69 
   0 -12   0   31.71    1.60 
   0 -12   0   34.72    1.67 
   0 -12   0   37.08    1.36 
   0  12   0   35.21    2.04 
   0  12   0   34.30    1.63 
   0  12   0   31.32    1.86 
  -1 -12   0   16.29    1.24 
  -1 -12   0   18.37    1.15 
  -1 -12   0   19.98    1.42 
   1  12   0   20.42    1.80 
   1  12   0   19.15    1.80 
  -2 -12   0    2.50    0.76 
  -2 -12   0    4.05    0.83 
  -2 -12   0    3.06    0.91 
  -3 -12   0   11.70    1.25 
  -3 -12   0   10.44    1.31 
  -3 -12   0   11.67    1.27 
   3  12   0   13.85    1.83 
  -4 -12   0   10.80    1.62 
  -4 -12   0   10.35    1.49 
  -4 -12   0    8.68    1.43 
  -5 -12   0   10.76    1.56 
  -5 -12   0    9.34    1.45 
  -5 -12   0   11.60    1.36 
   7 -13   0    5.27    1.06 
   7 -13   0    6.57    1.21 
  -7  13   0    6.32    1.32 
   6 -13   0    0.17    0.68 
   6 -13   0   -0.04    0.91 
   6 -13   0    1.17    1.16 
  -6  13   0   -1.62    1.07 
   5 -13   0   31.04    1.98 
   5 -13   0   30.94    1.60 
  -5  13   0   28.30    2.11 
   4 -13   0   35.53    1.66 
   4 -13   0   35.50    2.10 
  -4  13   0   30.50    2.04 
  -4  13   0   35.41    2.27 
   3 -13   0   14.94    1.23 
   3 -13   0   15.78    1.56 
  -3  13   0   15.82    1.71 
  -3  13   0   12.48    1.66 
   2 -13   0    1.06    0.84 
   2 -13   0    2.06    0.79 
  -2  13   0    1.22    0.94 
   1 -13   0    2.37    0.87 
   1 -13   0    1.86    0.67 
  -1  13   0    3.19    0.76 
  -1  13   0   -0.24    0.88 
   0 -13   0    6.92    1.13 
   0  13   0   10.19    1.83 
  -1 -13   0    8.63    1.12 
  -1 -13   0    9.93    1.67 
  -1 -13   0    6.43    1.16 
   1  13   0    5.64    1.00 
  -2 -13   0    0.80    1.02 
  -2 -13   0   -0.54    0.80 
  -2 -13   0    0.70    0.72 
   2  13   0    0.49    1.01 
  -3 -13   0   -0.13    1.17 
  -3 -13   0    0.93    1.03 
  -3 -13   0    0.50    0.71 
   3  13   0    3.02    1.34 
   6 -14   0   -0.04    0.91 
  -6  14   0    1.45    1.23 
  -6  14   0   -0.90    1.21 
   5 -14   0   11.16    1.37 
   5 -14   0   13.61    1.32 
  -5  14   0   10.71    1.82 
  -5  14   0   13.52    2.14 
   4 -14   0   -0.14    0.73 
   4 -14   0    1.49    0.72 
  -4  14   0    0.88    1.01 
  -4  14   0    1.97    1.10 
   3 -14   0    5.20    1.28 
   3 -14   0    4.46    1.02 
  -3  14   0    5.07    1.28 
  -3  14   0    5.12    1.24 
   2 -14   0    2.23    0.77 
  -2  14   0    3.07    1.15 
  -2  14   0    3.56    0.91 
   1 -14   0    2.15    1.17 
   1 -14   0    1.30    0.93 
  -1  14   0    1.89    1.21 
   0 -14   0    5.04    0.97 
   0 -14   0    5.20    0.93 
   0  14   0    4.02    0.94 
  -1 -14   0    3.67    0.96 
  -1 -14   0    3.30    0.90 
   1  14   0    5.27    1.33 
  -2 -14   0    1.14    0.97 
  -2 -14   0    0.85    0.90 
   2  14   0    3.84    1.48 
  -1  15  -1    0.44    0.80 
  -2  15  -1    1.96    1.15 
   2 -15   1    0.32    0.75 
   2  14  -1    8.87    1.64 
  -2 -14   1   11.99    1.66 
  -2 -14   1    8.00    1.10 
  -2 -14   1    7.29    1.39 
   1  14  -1    5.78    1.19 
  -1 -14   1    5.52    1.18 
  -1 -14   1    7.93    1.39 
   0  14  -1    0.41    1.18 
   0 -14   1   -0.01    0.74 
   0 -14   1    2.14    1.11 
  -1  14  -1    2.95    1.11 
   1 -14   1    3.49    0.93 
  -2  14  -1   -0.87    0.80 
   2 -14   1    1.73    1.10 
   2 -14   1    0.56    0.76 
  -3  14  -1   -0.13    1.01 
  -3  14  -1   -0.18    0.80 
   3 -14   1    1.55    0.81 
   3 -14   1   -0.82    0.63 
  -4  14  -1    1.56    1.08 
  -4  14  -1    0.56    1.12 
   4 -14   1    2.19    0.74 
   4 -14   1    2.98    1.09 
  -5  14  -1    0.83    1.19 
  -5  14  -1   -0.36    0.82 
   5 -14   1    1.84    0.79 
   5 -14   1    1.70    1.16 
   4  13  -1    1.70    1.32 
  -4 -13   1   -1.21    0.97 
  -4 -13   1    1.02    0.75 
  -4 -13   1    1.45    0.81 
   3  13  -1    0.84    1.20 
  -3 -13   1    1.55    0.80 
  -3 -13   1    0.68    0.85 
  -3 -13   1    0.82    0.88 
   2  13  -1    2.37    0.86 
  -2 -13   1    3.25    0.98 
  -2 -13   1    3.73    0.98 
   1  13  -1   12.25    1.73 
  -1 -13   1    7.51    1.14 
  -1 -13   1    7.44    1.14 
  -1 -13   1    9.96    1.08 
   0  13  -1    0.69    0.66 
   0 -13   1    3.45    0.99 
   0 -13   1    2.79    0.62 
  -1  13  -1   -0.95    0.77 
   1 -13   1    2.75    1.02 
   1 -13   1   -0.11    0.67 
  -2  13  -1   16.47    1.50 
  -2  13  -1   15.35    1.66 
   2 -13   1   13.97    1.30 
   2 -13   1   13.96    1.52 
  -3  13  -1   24.61    3.25 
  -3  13  -1   24.64    1.82 
   3 -13   1   30.05    1.56 
   3 -13   1   30.31    2.00 
  -4  13  -1   24.03    1.98 
   4 -13   1   24.14    1.73 
   4 -13   1   24.90    1.36 
  -5  13  -1    2.08    1.11 
   5 -13   1    3.71    0.73 
   5 -13   1    1.99    0.83 
  -6  13  -1   26.25    2.09 
   6 -13   1   25.21    2.16 
   6 -13   1   26.89    1.71 
  -7  13  -1    7.20    1.33 
   7 -13   1    6.69    0.99 
   7 -13   1   12.28    2.09 
   5  12  -1   12.75    1.77 
  -5 -12   1    9.09    1.34 
  -5 -12   1    8.98    1.29 
   4  12  -1   12.92    1.86 
  -4 -12   1    8.26    1.31 
  -4 -12   1   12.03    1.24 
  -4 -12   1   11.72    1.42 
  -3 -12   1    1.90    0.83 
  -3 -12   1    0.67    1.02 
  -3 -12   1    1.94    0.97 
   2  12  -1   30.89    1.77 
   2  12  -1   32.32    2.06 
  -2 -12   1   32.45    1.92 
  -2 -12   1   33.95    1.91 
  -2 -12   1   31.72    1.65 
   1  12  -1   23.67    1.55 
   1  12  -1   19.26    1.46 
  -1 -12   1   28.03    1.87 
  -1 -12   1   22.52    1.28 
  -1 -12   1   25.13    1.57 
   0  12  -1   34.60    2.03 
   0  12  -1   37.49    1.87 
   0 -12   1   35.58    1.44 
   0 -12   1   42.55    2.14 
   0 -12   1   36.45    1.78 
  -1  12  -1   15.67    1.14 
  -1  12  -1   12.50    1.42 
  -1  12  -1   12.75    1.52 
   1 -12   1   13.51    1.39 
   1 -12   1   14.89    0.98 
   1 -12   1   12.18    1.37 
  -2  12  -1    4.20    1.01 
  -2  12  -1    5.12    0.95 
   2 -12   1    4.34    0.74 
   2 -12   1    3.41    0.88 
  -3  12  -1   10.83    1.39 
  -3  12  -1   11.94    1.66 
   3 -12   1   12.67    1.23 
   3 -12   1    9.62    1.59 
   4 -12   1   36.90    1.72 
   4 -12   1   38.98    1.91 
  -5  12  -1    4.95    1.09 
   5 -12   1    4.31    0.90 
   5 -12   1    4.41    1.02 
  -6  12  -1   -0.80    1.00 
   6 -12   1   -0.47    0.57 
   6 -12   1    0.54    0.86 
   6 -12   1   -0.38    0.83 
  -7  12  -1    1.07    0.86 
   7 -12   1    0.34    0.88 
   7 -12   1    1.23    0.94 
  -8  12  -1   20.71    2.12 
  -8  12  -1   22.36    1.86 
   8 -12   1   23.20    2.03 
   8 -12   1   21.53    1.64 
   6  11  -1    3.83    1.06 
  -6 -11   1    5.93    1.09 
  -6 -11   1    5.95    1.32 
   5  11  -1   56.22    2.83 
  -5 -11   1   54.82    2.37 
  -5 -11   1   58.51    2.42 
  -5 -11   1   55.82    2.28 
   4  11  -1   17.79    1.61 
  -4 -11   1   20.83    1.53 
  -4 -11   1   22.87    1.70 
  -4 -11   1   21.85    1.54 
   3  11  -1    2.10    0.69 
   3  11  -1    1.09    0.86 
  -3 -11   1    2.13    0.67 
  -3 -11   1    2.02    0.74 
  -3 -11   1    1.41    0.69 
   2  11  -1   17.10    1.24 
   2  11  -1   15.75    1.38 
  -2 -11   1   15.73    1.22 
  -2 -11   1   16.56    1.16 
  -2 -11   1   18.59    1.11 
   1  11  -1   24.30    1.39 
  -1 -11   1   25.37    1.47 
  -1 -11   1   22.00    1.43 
  -1 -11   1   26.37    1.21 
   0  11  -1   12.34    1.31 
   0  11  -1   15.17    1.10 
   0  11  -1   13.07    1.28 
   0 -11   1   14.36    0.95 
   0 -11   1   12.59    1.82 
  -1  11  -1   16.89    1.08 
  -1  11  -1   15.37    1.40 
  -1  11  -1   16.53    1.51 
   1 -11   1   14.56    0.96 
   1 -11   1   14.88    1.18 
  -2  11  -1    3.49    0.69 
  -2  11  -1    3.44    0.82 
  -2  11  -1    2.53    0.88 
   2 -11   1    2.27    0.60 
   2 -11   1    3.01    0.54 
  -3  11  -1   27.97    1.61 
  -3  11  -1   28.85    1.78 
   3 -11   1   26.17    2.61 
   3 -11   1   30.47    1.43 
  -4  11  -1   48.56    2.07 
   4 -11   1   48.65    1.93 
   4 -11   1   50.80    2.26 
   4 -11   1   50.82    1.86 
  -5  11  -1   20.85    1.21 
   5 -11   1   17.38    1.58 
   5 -11   1   21.50    1.06 
   5 -11   1   20.94    1.34 
  -6  11  -1   22.53    1.93 
  -6  11  -1   23.87    1.42 
   6 -11   1   25.74    1.45 
   6 -11   1   24.02    1.24 
   6 -11   1   21.89    1.74 
  -7  11  -1   -0.19    0.93 
  -7  11  -1    0.64    1.32 
   7 -11   1    0.30    0.76 
   7 -11   1    0.13    0.72 
  -8  11  -1    3.21    1.04 
  -8  11  -1    2.13    0.99 
   8 -11   1    3.51    1.20 
   8 -11   1    1.30    0.97 
  -9  11  -1    4.59    1.08 
  -9  11  -1    5.04    1.45 
   9 -11   1    3.54    0.84 
   7  10  -1    1.44    0.95 
   7  10  -1    0.33    1.10 
  -7 -10   1    1.45    1.11 
  -7 -10   1    1.82    0.81 
  -6 -10   1   16.04    1.68 
  -6 -10   1   16.91    1.62 
   5  10  -1   12.04    1.81 
  -5 -10   1    9.85    1.28 
  -5 -10   1   11.51    1.30 
  -5 -10   1    9.62    1.14 
   4  10  -1   24.22    1.74 
   4  10  -1   28.76    1.46 
  -4 -10   1   26.64    1.46 
  -4 -10   1   24.44    1.48 
   3  10  -1   47.97    1.68 
  -3 -10   1   45.41    1.73 
  -3 -10   1   46.49    1.71 
  -3 -10   1   45.92    1.91 
   2  10  -1    1.25    0.58 
   2  10  -1    1.45    0.57 
  -2 -10   1    2.30    0.52 
  -2 -10   1    2.81    0.78 
  -2 -10   1    1.29    0.65 
   1  10  -1    1.60    0.55 
  -1 -10   1    2.33    0.55 
  -1 -10   1    2.22    0.62 
  -1 -10   1    3.96    0.87 
   0  10  -1   16.25    1.30 
   0  10  -1   16.17    1.04 
   0  10  -1   15.53    1.18 
   0 -10   1   16.81    1.28 
   0 -10   1   16.28    0.97 
   0 -10   1   14.89    1.12 
  -1  10  -1   36.43    1.74 
  -1  10  -1   39.06    1.61 
  -1  10  -1   37.20    1.40 
   1 -10   1   39.53    1.27 
   1 -10   1   34.85    1.54 
   1 -10   1   36.31    1.50 
  -2  10  -1   13.93    1.08 
  -2  10  -1   15.46    1.22 
  -2  10  -1   17.59    1.05 
   2 -10   1   16.67    0.83 
   2 -10   1   14.80    1.18 
   2 -10   1   15.80    1.12 
  -3  10  -1   18.39    1.36 
  -3  10  -1   19.19    1.27 
   3 -10   1   19.47    0.94 
   3 -10   1   17.59    1.08 
   3 -10   1   20.07    1.44 
   3 -10   1   18.66    1.13 
  -4  10  -1    2.94    0.68 
  -4  10  -1    2.35    0.79 
  -4  10  -1    3.18    0.57 
   4 -10   1    3.35    0.68 
   4 -10   1    2.81    0.79 
   4 -10   1    3.33    0.80 
  -5  10  -1   14.04    1.00 
  -5  10  -1   12.00    1.37 
   5 -10   1   14.50    0.91 
   5 -10   1   13.27    1.20 
  -6  10  -1    7.13    1.06 
  -6  10  -1    6.09    1.16 
   6 -10   1    6.35    1.07 
   6 -10   1    6.73    0.84 
   6 -10   1    7.19    1.20 
  -7  10  -1    0.80    0.74 
   7 -10   1   -0.13    0.53 
  -8  10  -1    2.05    0.90 
   8 -10   1    4.19    1.27 
   8 -10   1    3.64    0.63 
  -9  10  -1    7.38    1.17 
   9 -10   1    6.49    1.08 
   9 -10   1    8.43    1.37 
   9 -10   1    6.19    1.11 
   8   9  -1   12.80    1.83 
  -8  -9   1   11.25    1.69 
  -8  -9   1   10.97    1.51 
   7   9  -1    1.63    1.23 
   7   9  -1   -0.22    0.74 
  -7  -9   1    0.73    0.86 
  -7  -9   1    0.77    0.87 
   6   9  -1    1.45    1.16 
  -6  -9   1    0.67    0.78 
  -6  -9   1    0.54    0.63 
   5   9  -1   11.19    1.39 
   5   9  -1   12.58    1.21 
  -5  -9   1   12.18    1.16 
  -5  -9   1   10.77    1.17 
  -5  -9   1   12.30    1.26 
   4   9  -1   17.26    1.38 
   4   9  -1   18.54    1.16 
   4   9  -1   14.46    1.39 
  -4  -9   1   18.04    1.32 
  -4  -9   1   19.69    1.32 
  -4  -9   1   18.92    1.13 
   3   9  -1   13.38    1.37 
   3   9  -1   10.12    1.04 
   3   9  -1   12.43    0.88 
  -3  -9   1   12.16    0.98 
  -3  -9   1   12.23    1.08 
  -3  -9   1   12.03    1.09 
   2   9  -1    2.83    0.69 
   2   9  -1    3.63    0.58 
  -2  -9   1    3.18    0.60 
  -2  -9   1    3.06    0.65 
  -2  -9   1    3.36    0.71 
   1   9  -1   25.11    1.18 
   1   9  -1   25.89    1.49 
   1   9  -1   26.69    1.30 
  -1  -9   1   26.09    1.38 
  -1  -9   1   23.69    1.19 
  -1  -9   1   24.75    1.28 
  -1  -9   1   24.44    1.12 
   0   9  -1   42.53    1.47 
   0   9  -1   38.91    1.39 
   0   9  -1   38.46    1.68 
   0  -9   1   39.31    1.57 
   0  -9   1   40.05    1.37 
   0  -9   1   41.63    1.68 
   0  -9   1   39.20    1.48 
  -1   9  -1   48.90    1.54 
  -1   9  -1   45.91    1.78 
  -1   9  -1   47.27    1.66 
   1  -9   1   50.41    1.78 
   1  -9   1   48.23    1.65 
   1  -9   1   49.93    1.47 
   1  -9   1   48.90    1.79 
  -2   9  -1   12.06    0.90 
  -2   9  -1   12.26    0.96 
   2  -9   1   10.49    0.83 
   2  -9   1   12.12    0.81 
   2  -9   1   13.32    0.92 
   2  -9   1   10.19    0.85 
   2  -9   1   12.04    0.83 
  -3   9  -1   54.13    1.96 
  -3   9  -1   54.34    1.80 
   3  -9   1   54.86    1.89 
   3  -9   1   54.19    1.68 
   3  -9   1   54.33    1.97 
   3  -9   1   54.96    2.01 
  -4   9  -1    0.17    0.52 
  -4   9  -1    0.32    0.58 
  -4   9  -1   -0.13    0.41 
   4  -9   1   -0.05    0.58 
   4  -9   1    0.27    0.33 
   4  -9   1   -0.14    0.43 
   4  -9   1    0.09    0.52 
  -5   9  -1   21.74    1.14 
  -5   9  -1   19.29    1.43 
   5  -9   1   22.36    1.21 
   5  -9   1   22.24    1.01 
   5  -9   1   22.78    1.22 
   5  -9   1   20.09    1.42 
  -6   9  -1   15.83    1.15 
   6  -9   1   12.18    2.27 
   6  -9   1   13.49    0.79 
   6  -9   1   16.30    1.46 
   6  -9   1   13.84    1.04 
   6  -9   1   13.96    1.04 
  -7   9  -1    4.37    0.92 
   7  -9   1    5.76    1.00 
   7  -9   1    5.73    0.78 
   7  -9   1    6.60    1.17 
  -8   9  -1    2.08    0.89 
   8  -9   1    2.82    0.75 
   8  -9   1    2.45    0.83 
   8  -9   1    1.66    0.91 
  -9   9  -1    2.76    1.04 
   9  -9   1    4.54    0.83 
   9  -9   1    3.32    0.95 
   9  -9   1    2.82    0.96 
 -10   9  -1    1.62    1.02 
  10  -9   1    1.09    0.98 
  10  -9   1    1.72    1.07 
   9   8  -1    0.83    1.18 
  -9  -8   1    1.21    0.94 
  -9  -8   1    2.20    0.98 
  -8  -8   1    5.11    1.16 
  -8  -8   1    5.44    0.87 
   7   8  -1   22.40    1.24 
   7   8  -1   20.73    1.37 
   7   8  -1   20.81    1.69 
   7   8  -1   24.05    2.04 
  -7  -8   1   21.76    1.54 
  -7  -8   1   22.68    1.94 
   6   8  -1    5.09    0.64 
   6   8  -1    6.18    1.01 
   6   8  -1    4.45    1.01 
  -6  -8   1    5.50    1.11 
   5   8  -1    1.64    0.64 
   5   8  -1    0.45    0.75 
   5   8  -1    0.97    0.52 
  -5  -8   1    1.63    0.51 
  -5  -8   1    1.46    0.74 
  -5  -8   1    1.72    0.68 
   4   8  -1   20.10    1.35 
   4   8  -1   21.84    1.32 
   4   8  -1   25.08    1.17 
  -4  -8   1   22.33    1.18 
  -4  -8   1   23.95    1.16 
  -4  -8   1   24.84    1.36 
   3   8  -1    3.63    0.62 
   3   8  -1    3.40    0.80 
  -3  -8   1    2.84    0.65 
  -3  -8   1    3.46    0.64 
  -3  -8   1    1.84    0.51 
   2   8  -1    1.39    0.36 
   2   8  -1    1.65    0.63 
  -2  -8   1    1.41    0.54 
  -2  -8   1    1.01    0.51 
  -2  -8   1    0.52    0.40 
   1   8  -1    9.13    0.91 
   1   8  -1    8.90    0.73 
  -1  -8   1    8.44    0.64 
  -1  -8   1    7.61    0.81 
  -1  -8   1    6.76    0.77 
  -1  -8   1    6.34    0.63 
   0   8  -1    1.66    0.56 
   0   8  -1    1.70    0.41 
   0  -8   1    1.71    0.50 
   0  -8   1    1.46    0.46 
   0  -8   1    0.71    0.35 
   0  -8   1    2.53    0.39 
  -1   8  -1   87.88    2.46 
  -1   8  -1   90.01    2.31 
  -1   8  -1   88.56    2.24 
   1  -8   1   86.22    2.36 
   1  -8   1   87.26    2.33 
   1  -8   1   91.01    2.31 
  -2   8  -1   85.12    2.26 
  -2   8  -1   84.99    2.30 
   2  -8   1   85.55    2.36 
   2  -8   1   82.88    2.29 
   2  -8   1   80.68    2.31 
   2  -8   1   82.45    2.16 
  -3   8  -1   90.54    2.49 
  -3   8  -1   87.31    2.40 
   3  -8   1   91.46    2.43 
   3  -8   1   90.32    2.25 
   3  -8   1   90.10    2.41 
   3  -8   1   91.06    2.58 
  -4   8  -1   18.65    1.20 
  -4   8  -1   19.11    0.97 
   4  -8   1   20.68    0.83 
   4  -8   1   21.33    1.16 
   4  -8   1   21.55    1.18 
   4  -8   1   21.45    1.14 
   4  -8   1   20.07    1.23 
  -5   8  -1    1.42    0.61 
  -5   8  -1    2.03    0.51 
   5  -8   1    3.12    0.50 
   5  -8   1    1.97    0.50 
   5  -8   1    2.48    0.60 
   5  -8   1    1.18    0.56 
   5  -8   1    1.68    0.64 
  -6   8  -1    9.08    0.90 
  -6   8  -1    7.12    0.83 
   6  -8   1    7.57    1.21 
   6  -8   1    8.99    0.68 
   6  -8   1    6.77    1.05 
   6  -8   1    7.64    1.06 
   6  -8   1    8.06    0.92 
  -7   8  -1   33.88    1.62 
  -7   8  -1   34.48    1.35 
   7  -8   1   34.97    1.41 
   7  -8   1   27.66    2.61 
   7  -8   1   33.91    1.47 
   7  -8   1   31.06    1.84 
  -8   8  -1   18.36    1.47 
   8  -8   1   15.84    1.32 
   8  -8   1   17.19    1.54 
   8  -8   1   18.92    1.34 
   8  -8   1   19.67    1.13 
  -9   8  -1    0.43    0.89 
   9  -8   1   -1.06    0.62 
   9  -8   1   -0.87    0.93 
 -10   8  -1   14.82    1.57 
  10  -8   1   15.16    1.64 
  10  -8   1   20.70    2.17 
   9   7  -1    5.52    1.46 
  -9  -7   1    4.88    1.26 
  -9  -7   1    4.91    1.08 
   8   7  -1    2.73    1.23 
   8   7  -1    1.67    1.03 
  -8  -7   1    1.56    0.75 
  -8  -7   1    0.08    0.72 
  -8  -7   1    2.29    0.85 
   7   7  -1   15.51    1.21 
   7   7  -1   18.36    1.23 
   7   7  -1   12.87    1.29 
   7   7  -1   16.61    1.22 
  -7  -7   1   14.84    1.45 
  -7  -7   1   14.94    1.09 
  -7  -7   1   17.34    1.24 
   6   7  -1   13.29    1.49 
   6   7  -1   15.08    1.12 
   6   7  -1   13.93    1.10 
  -6  -7   1   13.00    0.87 
  -6  -7   1   14.63    1.23 
  -6  -7   1   13.85    1.42 
   5   7  -1    0.74    0.43 
   5   7  -1    0.35    0.56 
  -5  -7   1   -0.18    0.44 
  -5  -7   1    0.78    0.47 
  -5  -7   1    0.04    0.49 
  -5  -7   1   -0.20    0.45 
   4   7  -1    1.67    0.69 
   4   7  -1    0.13    0.37 
   4   7  -1    0.32    0.40 
  -4  -7   1   -0.01    0.50 
  -4  -7   1    0.21    0.62 
  -4  -7   1    0.63    0.53 
   3   7  -1   94.97    2.44 
   3   7  -1   92.54    2.26 
   3   7  -1   92.04    2.63 
  -3  -7   1   90.88    2.35 
  -3  -7   1   93.19    2.47 
  -3  -7   1   96.25    2.50 
   2   7  -1  132.97    2.94 
   2   7  -1  131.43    3.28 
  -2  -7   1  134.49    3.13 
  -2  -7   1  131.73    3.09 
  -2  -7   1  128.67    3.05 
   1   7  -1  236.73    4.83 
   1   7  -1  239.45    5.13 
  -1  -7   1  235.26    4.96 
  -1  -7   1  240.60    5.03 
  -1  -7   1  241.87    4.90 
  -1  -7   1  232.39    4.96 
   0   7  -1   11.06    0.83 
   0   7  -1   10.85    0.74 
   0  -7   1   11.95    0.82 
   0  -7   1   10.73    0.71 
   0  -7   1   11.32    0.78 
  -1   7  -1   32.83    1.18 
   1  -7   1   30.37    1.16 
   1  -7   1   32.15    1.09 
   1  -7   1   31.62    1.19 
  -2   7  -1  165.09    3.60 
  -2   7  -1  162.78    3.66 
   2  -7   1  168.98    3.52 
   2  -7   1  162.42    3.72 
   2  -7   1  163.06    3.65 
   2  -7   1  158.55    3.61 
  -3   7  -1   61.12    1.87 
   3  -7   1   63.21    1.86 
   3  -7   1   61.87    1.76 
   3  -7   1   61.88    1.63 
   3  -7   1   60.07    1.92 
   3  -7   1   60.05    1.79 
  -4   7  -1   54.01    1.54 
  -4   7  -1   58.14    1.92 
   4  -7   1   54.48    1.48 
   4  -7   1   53.82    1.63 
   4  -7   1   55.46    1.79 
   4  -7   1   54.05    1.81 
   4  -7   1   53.53    1.66 
  -5   7  -1    9.50    1.12 
  -5   7  -1    6.96    0.75 
   5  -7   1    6.31    0.63 
   5  -7   1    7.13    0.77 
   5  -7   1    7.13    0.84 
   5  -7   1    7.68    0.94 
  -6   7  -1    1.15    0.55 
  -6   7  -1    1.97    0.49 
  -6   7  -1    1.87    0.63 
   6  -7   1    2.31    0.50 
   6  -7   1    1.90    0.70 
   6  -7   1    1.52    0.55 
   6  -7   1    2.15    0.42 
  -7   7  -1   63.41    2.08 
  -7   7  -1   63.30    1.82 
   7  -7   1   58.29    2.32 
   7  -7   1   64.83    1.98 
   7  -7   1   57.59    2.18 
   7  -7   1   63.99    1.81 
  -8   7  -1   39.25    1.68 
  -8   7  -1   41.41    1.81 
   8  -7   1   43.54    1.50 
   8  -7   1   38.56    1.89 
   8  -7   1   41.69    2.09 
   8  -7   1   41.78    1.51 
  -9   7  -1    0.66    0.92 
  -9   7  -1    0.38    0.69 
   9  -7   1    0.45    0.86 
   9  -7   1    0.80    0.98 
 -10   7  -1    3.32    1.03 
  10  -7   1    6.32    1.29 
  10  -7   1    5.05    1.19 
 -11   7  -1    8.67    1.43 
  11  -7   1    7.20    1.35 
  10   6  -1    7.93    1.20 
 -10  -6   1    4.85    1.06 
   9   6  -1    1.27    0.91 
  -9  -6   1    1.07    0.85 
  -9  -6   1    4.66    1.24 
   8   6  -1    1.66    0.75 
   8   6  -1    1.61    0.96 
  -8  -6   1    3.01    0.74 
  -8  -6   1    3.07    1.05 
  -8  -6   1    1.59    0.79 
   7   6  -1   31.84    1.91 
   7   6  -1   31.25    1.31 
   7   6  -1   30.85    1.27 
   7   6  -1   30.78    1.52 
   7   6  -1   31.76    1.35 
  -7  -6   1   26.98    1.56 
  -7  -6   1   29.16    1.42 
  -7  -6   1   29.49    1.30 
   6   6  -1   31.74    1.34 
   6   6  -1   31.98    1.28 
   6   6  -1   32.90    1.25 
   6   6  -1   32.38    1.19 
   6   6  -1   28.85    1.53 
  -6  -6   1   34.33    1.40 
  -6  -6   1   32.34    1.23 
  -6  -6   1   30.81    1.49 
   5   6  -1  107.15    2.63 
   5   6  -1  106.87    2.61 
   5   6  -1  108.65    3.09 
  -5  -6   1  105.59    2.95 
  -5  -6   1  106.32    2.63 
  -5  -6   1  106.84    2.46 
  -5  -6   1  107.23    2.73 
   4   6  -1   46.87    1.69 
   4   6  -1   49.71    1.54 
   4   6  -1   49.75    1.48 
  -4  -6   1   48.33    1.74 
  -4  -6   1   47.75    1.57 
  -4  -6   1   47.84    1.49 
   3   6  -1   10.52    0.75 
   3   6  -1    9.89    0.68 
  -3  -6   1    9.53    0.80 
  -3  -6   1   10.18    0.66 
  -3  -6   1    8.72    0.61 
   2   6  -1   15.81    0.97 
   2   6  -1   15.58    0.71 
  -2  -6   1   14.93    0.80 
  -2  -6   1   14.71    0.72 
  -2  -6   1   13.57    0.70 
   1   6  -1  382.82    7.47 
   1   6  -1  369.00    7.18 
  -1  -6   1  379.66    7.33 
  -1  -6   1  366.52    7.30 
  -1  -6   1  384.47    7.54 
  -1  -6   1  367.44    7.34 
   0   6  -1  328.96    6.52 
   0   6  -1  319.76    6.31 
   0  -6   1  316.77    6.42 
   0  -6   1  330.71    6.38 
   0  -6   1  327.93    6.42 
  -1   6  -1   56.61    1.58 
   1  -6   1   56.06    1.54 
   1  -6   1   58.50    1.51 
   1  -6   1   58.00    1.62 
   1  -6   1   56.92    1.61 
  -2   6  -1   11.98    0.72 
   2  -6   1   12.32    0.72 
   2  -6   1   11.89    0.68 
   2  -6   1   12.01    0.75 
   2  -6   1   10.42    0.89 
   2  -6   1   13.25    0.73 
  -3   6  -1   99.66    2.47 
   3  -6   1   97.60    2.36 
   3  -6   1   96.10    2.45 
   3  -6   1   96.28    2.33 
   3  -6   1   99.42    2.40 
  -4   6  -1   93.18    2.48 
   4  -6   1   95.96    2.33 
   4  -6   1   95.70    2.28 
   4  -6   1   91.78    2.50 
   4  -6   1   90.36    2.35 
  -5   6  -1   40.18    1.38 
  -5   6  -1   43.78    1.69 
   5  -6   1   41.84    1.61 
   5  -6   1   43.76    1.31 
   5  -6   1   40.13    1.61 
   5  -6   1   43.85    1.42 
  -6   6  -1   45.56    1.44 
  -6   6  -1   41.12    1.71 
  -6   6  -1   46.93    1.62 
   6  -6   1   45.77    1.85 
   6  -6   1   47.43    1.41 
   6  -6   1   45.31    1.48 
   6  -6   1   43.93    1.74 
  -7   6  -1   38.77    1.37 
  -7   6  -1   39.02    1.63 
  -7   6  -1   37.18    1.85 
   7  -6   1   36.10    1.30 
   7  -6   1   35.37    1.72 
   7  -6   1   35.04    1.64 
   7  -6   1   36.48    1.29 
  -8   6  -1   37.40    1.68 
   8  -6   1   40.46    2.00 
   8  -6   1   44.32    2.17 
   8  -6   1   40.51    1.39 
   8  -6   1   41.00    1.42 
  -9   6  -1    7.44    0.95 
  -9   6  -1    8.60    1.35 
   9  -6   1    6.88    1.24 
   9  -6   1   11.72    1.66 
 -10   6  -1   14.73    1.65 
  10  -6   1   16.40    1.90 
 -11   6  -1    1.59    1.18 
  11  -6   1    2.56    1.32 
  11  -6   1    1.28    1.07 
  10   5  -1   27.78    2.30 
 -10  -5   1   30.67    2.43 
 -10  -5   1   25.18    1.71 
   9   5  -1   21.10    1.64 
   9   5  -1   24.46    1.99 
  -9  -5   1   24.41    1.56 
  -9  -5   1   23.09    1.45 
   8   5  -1    3.34    0.83 
   8   5  -1    3.54    0.79 
   8   5  -1    1.71    0.88 
  -8  -5   1    2.32    0.76 
  -8  -5   1    4.10    1.04 
  -8  -5   1    2.98    0.68 
   7   5  -1    0.04    0.47 
   7   5  -1    0.59    0.40 
   7   5  -1   -0.01    0.49 
   7   5  -1    0.70    0.46 
   7   5  -1   -0.75    0.66 
  -7  -5   1    0.07    0.49 
  -7  -5   1    1.60    0.86 
  -7  -5   1   -0.06    0.54 
   6   5  -1   73.44    1.97 
   6   5  -1   70.31    1.92 
   6   5  -1   70.30    2.04 
   6   5  -1   72.81    2.46 
   6   5  -1   72.37    1.91 
  -6  -5   1   69.49    2.37 
  -6  -5   1   73.83    2.02 
  -6  -5   1   70.60    1.95 
   5   5  -1   95.08    2.36 
   5   5  -1   92.67    2.69 
   5   5  -1   97.03    2.38 
  -5  -5   1   97.01    2.70 
  -5  -5   1  100.64    2.32 
  -5  -5   1   97.41    2.41 
   4   5  -1   35.64    1.46 
   4   5  -1   36.43    1.16 
   4   5  -1   34.91    1.14 
  -4  -5   1   34.17    1.17 
  -4  -5   1   35.95    1.40 
  -4  -5   1   34.98    1.21 
   3   5  -1    6.96    0.53 
   3   5  -1    7.66    0.56 
   3   5  -1    8.15    0.78 
  -3  -5   1    6.87    0.63 
  -3  -5   1    7.52    0.67 
  -3  -5   1    6.99    0.77 
   2   5  -1   15.33    0.78 
   2   5  -1   16.56    0.69 
  -2  -5   1   16.52    0.73 
  -2  -5   1   17.15    0.88 
  -2  -5   1   16.53    0.79 
   1   5  -1  438.86    8.24 
  -1  -5   1  439.89    8.39 
  -1  -5   1  440.30    8.35 
   0   5  -1  115.93    2.48 
   0  -5   1  115.88    2.58 
  -1   5  -1  224.50    4.55 
   1  -5   1  233.10    4.61 
  -2   5  -1   30.65    1.06 
   2  -5   1   32.11    1.34 
   2  -5   1   32.60    1.02 
  -3   5  -1    9.26    0.71 
   3  -5   1    9.07    0.68 
   3  -5   1    8.19    0.59 
   3  -5   1    7.86    0.63 
  -4   5  -1  140.44    3.31 
   4  -5   1  145.08    3.12 
   4  -5   1  147.81    3.11 
   4  -5   1  145.09    3.10 
   4  -5   1  139.00    3.31 
   4  -5   1  140.57    3.28 
  -5   5  -1   68.67    1.97 
   5  -5   1   66.78    2.03 
   5  -5   1   66.71    2.07 
   5  -5   1   67.22    1.74 
   5  -5   1   67.38    1.74 
  -6   5  -1    0.21    0.35 
  -6   5  -1   -0.19    0.41 
   6  -5   1   -0.35    0.42 
   6  -5   1    0.15    0.26 
   6  -5   1    0.25    0.35 
   6  -5   1   -0.69    0.40 
  -7   5  -1   18.01    1.20 
  -7   5  -1   18.58    1.12 
   7  -5   1   18.38    1.33 
   7  -5   1   17.71    0.88 
   7  -5   1   19.96    0.87 
   7  -5   1   18.35    1.29 
   7  -5   1   16.15    1.28 
  -8   5  -1   24.56    1.38 
  -8   5  -1   21.26    1.33 
   8  -5   1   24.81    1.02 
   8  -5   1   23.31    2.55 
   8  -5   1   24.73    0.95 
  -9   5  -1   30.46    1.79 
  -9   5  -1   31.80    1.49 
   9  -5   1   26.99    1.75 
   9  -5   1   30.73    1.95 
 -10   5  -1   33.26    1.81 
 -10   5  -1   34.29    2.04 
  10  -5   1   31.74    2.09 
  10  -5   1   32.96    2.08 
 -11   5  -1    1.95    1.06 
 -11   5  -1    3.00    1.00 
  11  -5   1   -0.86    1.06 
  11  -5   1    0.67    0.94 
  11   4  -1    9.40    1.71 
 -11  -4   1   12.30    1.58 
 -11  -4   1   16.07    2.38 
  10   4  -1    5.59    1.30 
  10   4  -1    4.15    1.24 
 -10  -4   1    4.75    1.02 
 -10  -4   1    2.39    0.92 
   9   4  -1    6.71    1.12 
   9   4  -1    8.29    1.43 
  -9  -4   1   11.39    1.68 
  -9  -4   1   10.84    1.30 
   8   4  -1   62.33    1.74 
   8   4  -1   64.24    2.09 
   8   4  -1   62.09    2.09 
   8   4  -1   56.00    2.40 
  -8  -4   1   56.34    2.27 
  -8  -4   1   62.93    2.11 
  -8  -4   1   62.65    1.86 
   7   4  -1    9.17    1.02 
   7   4  -1   12.35    1.00 
   7   4  -1   14.28    0.79 
   7   4  -1   12.09    0.82 
   7   4  -1   12.62    1.01 
  -7  -4   1   11.98    1.00 
  -7  -4   1   11.34    0.89 
  -7  -4   1   11.65    1.17 
   6   4  -1    1.06    0.63 
   6   4  -1   -0.32    0.30 
   6   4  -1    0.13    0.34 
   6   4  -1    0.24    0.36 
   6   4  -1   -0.17    0.40 
  -6  -4   1    0.00    0.40 
  -6  -4   1   -0.51    0.37 
  -6  -4   1    1.08    0.65 
   5   4  -1   95.65    2.28 
   5   4  -1   94.84    2.33 
   5   4  -1   91.86    2.58 
   5   4  -1   98.91    2.28 
  -5  -4   1   96.39    2.29 
  -5  -4   1   96.89    2.28 
  -5  -4   1   99.25    2.63 
   4   4  -1  121.55    2.94 
   4   4  -1  122.06    2.67 
  -4  -4   1  117.97    2.82 
  -4  -4   1  117.24    2.66 
   3   4  -1   48.36    1.49 
   3   4  -1   50.43    1.28 
   3   4  -1   51.01    1.37 
  -3  -4   1   49.67    1.51 
  -3  -4   1   49.09    1.40 
   2   4  -1   86.11    1.86 
   2   4  -1   85.06    1.99 
   1   4  -1   44.92    1.05 
  -1  -4   1   37.62    1.26 
   0   4  -1   55.95    1.24 
   0  -4   1   44.17    1.62 
  -1   4  -1   47.82    1.18 
   1  -4   1   41.93    1.25 
  -2   4  -1   40.61    1.17 
   2  -4   1   41.42    1.26 
   3  -4   1   55.55    1.62 
   3  -4   1   59.58    1.58 
   3  -4   1   57.89    1.75 
   4  -4   1   10.66    0.66 
   4  -4   1   10.24    0.70 
   4  -4   1   10.45    0.62 
   4  -4   1   10.12    0.67 
   4  -4   1   10.41    0.58 
  -5   4  -1   55.94    1.51 
   5  -4   1   50.44    1.54 
   5  -4   1   53.36    1.72 
   5  -4   1   54.95    1.40 
   5  -4   1   47.38    1.55 
   5  -4   1   52.88    1.72 
  -6   4  -1    1.59    0.51 
  -6   4  -1    2.02    0.55 
   6  -4   1    2.48    0.59 
   6  -4   1    0.80    0.49 
   6  -4   1    2.75    0.46 
   6  -4   1    1.55    0.59 
  -7   4  -1   38.68    1.42 
  -7   4  -1   35.71    1.49 
   7  -4   1   36.93    1.72 
   7  -4   1   38.38    1.13 
   7  -4   1   38.53    1.74 
   7  -4   1   34.63    1.71 
  -8   4  -1   -0.46    0.61 
  -8   4  -1    0.83    0.47 
   8  -4   1   -0.32    0.72 
   8  -4   1    0.32    0.34 
   8  -4   1    0.15    0.66 
  -9   4  -1    4.38    0.88 
  -9   4  -1    4.77    0.93 
   9  -4   1    4.89    1.08 
   9  -4   1    3.66    0.90 
 -10   4  -1   10.52    1.52 
 -10   4  -1   14.37    1.62 
  10  -4   1   13.64    1.76 
  10  -4   1   14.62    1.82 
 -11   4  -1    1.55    1.08 
 -11   4  -1    2.89    1.04 
  11  -4   1    0.35    0.95 
  11  -4   1    2.14    1.17 
  11   3  -1    4.08    1.22 
  11   3  -1    4.34    1.34 
 -11  -3   1    4.21    1.13 
 -11  -3   1    2.17    0.96 
  10   3  -1    0.42    0.92 
  10   3  -1   -0.25    1.08 
 -10  -3   1   -0.09    0.75 
 -10  -3   1    2.89    1.18 
   9   3  -1   15.82    1.44 
   9   3  -1   15.88    1.41 
   9   3  -1   15.54    2.54 
  -9  -3   1   17.69    1.59 
   8   3  -1   44.77    1.76 
   8   3  -1   42.01    2.11 
   8   3  -1   44.11    1.35 
   8   3  -1   45.05    1.85 
  -8  -3   1   44.08    1.42 
  -8  -3   1   45.90    1.76 
  -8  -3   1   47.90    2.10 
   7   3  -1    2.17    0.38 
   7   3  -1    3.28    0.59 
   7   3  -1    2.78    0.62 
   7   3  -1    2.31    0.76 
  -7  -3   1    1.51    0.57 
  -7  -3   1    2.09    0.52 
  -7  -3   1    2.09    0.48 
   6   3  -1   71.46    1.78 
   6   3  -1   69.35    1.94 
   6   3  -1   69.19    1.89 
   6   3  -1   69.07    2.23 
  -6  -3   1   69.14    2.12 
  -6  -3   1   71.41    1.95 
  -6  -3   1   69.33    1.79 
   5   3  -1  112.50    2.86 
   5   3  -1  113.94    2.61 
   5   3  -1  115.78    2.52 
  -5  -3   1  108.08    2.75 
  -5  -3   1  113.70    2.60 
  -5  -3   1  116.18    2.55 
   4   3  -1  105.88    2.36 
   4   3  -1  110.74    2.67 
  -4  -3   1  105.56    2.53 
   3   3  -1   43.46    1.15 
   3   3  -1   44.45    1.13 
   2   3  -1  136.64    2.84 
   2   3  -1  140.62    2.73 
   1   3  -1   17.03    0.51 
  -1  -3   1   16.40    0.58 
   0   3  -1  334.58    6.12 
   0  -3   1  325.29    6.19 
  -1   3  -1   69.36    1.54 
   1  -3   1   69.43    1.54 
   2  -3   1   28.58    0.79 
   2  -3   1   27.89    0.86 
   3  -3   1   12.28    0.64 
   3  -3   1   11.99    0.50 
   4  -3   1   86.61    2.05 
   4  -3   1   88.60    2.24 
   4  -3   1   87.55    1.89 
   4  -3   1   83.46    2.14 
   4  -3   1   86.93    2.17 
  -5   3  -1   52.47    1.50 
   5  -3   1   50.21    1.59 
   5  -3   1   52.68    1.28 
   5  -3   1   50.89    1.61 
   5  -3   1   52.29    1.61 
   5  -3   1   49.83    1.48 
  -6   3  -1   55.69    1.59 
  -6   3  -1   55.53    1.76 
   6  -3   1   53.69    1.78 
   6  -3   1   54.48    1.84 
   6  -3   1   57.81    1.37 
   6  -3   1   55.70    1.85 
  -7   3  -1   57.45    1.84 
  -7   3  -1   53.54    1.84 
   7  -3   1   55.12    1.35 
   7  -3   1   55.50    2.01 
   7  -3   1   53.73    1.98 
   7  -3   1   58.24    2.08 
  -8   3  -1    1.56    0.72 
  -8   3  -1    0.79    0.65 
   8  -3   1    1.36    0.30 
  -9   3  -1   -0.17    0.71 
  -9   3  -1    0.11    0.84 
   9  -3   1   -0.17    0.82 
 -10   3  -1    3.03    1.00 
 -10   3  -1    3.65    1.05 
  10  -3   1    3.33    0.89 
  10  -3   1    6.35    1.37 
 -11   3  -1   20.91    1.84 
 -11   3  -1   20.50    1.73 
  11  -3   1   19.07    1.63 
  11   2  -1   -0.93    1.03 
  11   2  -1    0.28    1.11 
 -11  -2   1    0.49    1.32 
 -11  -2   1   -0.52    0.83 
  10   2  -1    1.49    0.99 
  10   2  -1    1.23    0.83 
 -10  -2   1    0.99    0.94 
 -10  -2   1    1.25    0.86 
   9   2  -1   45.20    2.31 
   9   2  -1   46.52    2.06 
   9   2  -1   50.20    1.79 
  -9  -2   1   48.51    2.31 
   8   2  -1   74.78    2.37 
   8   2  -1   72.11    2.54 
   8   2  -1   79.01    2.26 
   8   2  -1   75.70    1.86 
  -8  -2   1   74.40    2.31 
  -8  -2   1   79.88    2.15 
  -8  -2   1   75.46    2.47 
   7   2  -1   11.18    1.17 
   7   2  -1   12.38    1.01 
   7   2  -1   12.12    0.70 
   7   2  -1   14.21    0.90 
  -7  -2   1   12.40    0.88 
  -7  -2   1   13.95    1.20 
   6   2  -1    0.49    0.28 
   6   2  -1    0.24    0.37 
   6   2  -1   -0.11    0.50 
   6   2  -1    0.04    0.42 
  -6  -2   1    0.27    0.40 
  -6  -2   1    0.09    0.45 
   5   2  -1    6.66    0.58 
   5   2  -1    6.87    0.50 
   5   2  -1    7.43    0.74 
  -5  -2   1    6.50    0.60 
  -5  -2   1    5.36    0.64 
   4   2  -1    9.22    0.53 
   4   2  -1    9.23    0.50 
   4   2  -1    8.84    0.69 
  -4  -2   1    9.19    0.67 
   3   2  -1   98.97    2.06 
   3   2  -1   94.58    2.03 
   2   2  -1   45.99    1.01 
   2   2  -1   45.14    1.08 
   1   2  -1  130.44    2.46 
   1   2  -1  127.43    2.58 
  -1  -2   1  136.20    2.47 
   0   2  -1   72.92    1.45 
   0  -2   1   73.30    1.52 
  -1   2  -1   70.92    1.41 
   1  -2   1   64.73    1.43 
   1  -2   1   66.65    1.40 
  -2   2  -1  104.00    2.02 
   2  -2   1   97.17    1.99 
   2  -2   1  100.02    2.14 
   3  -2   1   33.69    1.08 
   3  -2   1   34.83    0.83 
   4  -2   1   15.46    0.82 
   4  -2   1   13.95    0.73 
   4  -2   1   15.89    0.50 
   4  -2   1   14.67    0.70 
  -5   2  -1  133.31    2.92 
   5  -2   1  129.46    2.54 
   5  -2   1  121.86    3.05 
   5  -2   1  127.28    3.03 
  -6   2  -1  136.14    3.15 
  -6   2  -1  137.11    3.21 
   6  -2   1  136.59    2.67 
   6  -2   1  134.01    3.27 
   6  -2   1  129.80    3.22 
   6  -2   1  134.96    3.41 
  -7   2  -1   37.43    1.50 
  -7   2  -1   38.64    1.51 
   7  -2   1   36.95    1.58 
   7  -2   1   38.11    0.92 
   7  -2   1   39.71    1.74 
   7  -2   1   39.13    1.81 
  -8   2  -1   15.43    1.11 
  -8   2  -1   19.16    1.28 
   8  -2   1   15.65    1.34 
   8  -2   1   18.55    1.35 
   8  -2   1   18.31    1.48 
  -9   2  -1    0.09    0.69 
  -9   2  -1   -0.10    0.74 
   9  -2   1   -0.02    0.72 
 -10   2  -1    8.58    1.40 
 -10   2  -1    7.62    1.25 
  10  -2   1   11.44    1.70 
  10  -2   1   10.64    1.73 
 -11   2  -1   26.92    2.00 
 -11   2  -1   26.10    1.96 
  11  -2   1   25.30    2.19 
  11   1  -1    5.38    1.09 
  11   1  -1    2.16    1.09 
 -11  -1   1    3.30    1.18 
 -11  -1   1    3.44    0.92 
  10   1  -1    1.77    1.00 
  10   1  -1    2.32    0.67 
 -10  -1   1    0.61    0.83 
 -10  -1   1    0.90    1.03 
   9   1  -1    0.46    0.58 
   9   1  -1    0.02    0.67 
   9   1  -1    0.24    0.62 
   8   1  -1   77.57    2.29 
   8   1  -1   72.10    2.52 
   8   1  -1   75.49    2.36 
   8   1  -1   76.22    1.81 
  -8  -1   1   75.79    2.42 
  -8  -1   1   72.94    2.28 
   7   1  -1   54.73    1.78 
   7   1  -1   49.79    1.48 
   7   1  -1   51.59    1.88 
   7   1  -1   53.39    1.70 
  -7  -1   1   54.10    1.82 
  -7  -1   1   53.98    1.75 
   6   1  -1  242.23    4.83 
   6   1  -1  248.31    5.07 
   6   1  -1  244.32    5.33 
   6   1  -1  248.69    5.13 
  -6  -1   1  245.17    5.11 
  -6  -1   1  248.36    5.20 
   5   1  -1   11.40    0.68 
   5   1  -1   12.10    0.58 
   5   1  -1   13.35    0.83 
  -5  -1   1   12.35    0.69 
  -5  -1   1   12.83    0.79 
   4   1  -1   20.12    0.67 
   4   1  -1   19.31    0.73 
   3   1  -1  322.62    6.05 
   3   1  -1  321.49    6.02 
   2   1  -1  109.18    2.19 
   2   1  -1  112.97    2.24 
  -2  -1   1  118.37    2.25 
   1   1  -1  165.24    3.09 
  -1  -1   1  162.74    3.09 
   0   1  -1    1.51    0.13 
   0   1  -1    1.78    0.12 
  -1   1  -1   26.03    0.55 
   1  -1   1   23.33    0.63 
   1  -1   1   24.52    0.54 
  -2   1  -1  275.87    4.91 
   2  -1   1  264.68    4.90 
   2  -1   1  266.97    5.14 
   3  -1   1 1000.00   18.32 
  -4   1  -1  124.36    2.31 
   4  -1   1  123.33    2.30 
   4  -1   1  120.70    2.65 
   4  -1   1  120.71    2.72 
   4  -1   1  116.49    2.72 
   4  -1   1  116.41    2.78 
  -5   1  -1    5.22    0.67 
  -5   1  -1    3.87    0.29 
   5  -1   1    3.69    0.24 
   5  -1   1    3.53    0.54 
   5  -1   1    4.44    0.63 
   5  -1   1    3.05    0.44 
   5  -1   1    3.65    0.68 
  -6   1  -1   74.13    2.12 
  -6   1  -1   69.70    2.00 
  -6   1  -1   75.94    1.45 
   6  -1   1   66.74    2.02 
   6  -1   1   72.27    1.44 
   6  -1   1   67.43    2.14 
   6  -1   1   72.07    2.14 
  -7   1  -1  100.02    2.72 
  -7   1  -1  102.00    2.77 
   7  -1   1  104.89    2.89 
   7  -1   1  102.67    3.01 
   7  -1   1   98.65    2.75 
  -8   1  -1   85.61    2.58 
  -8   1  -1   82.70    2.55 
   8  -1   1   83.75    2.71 
   8  -1   1   86.45    2.84 
   8  -1   1   78.06    2.59 
  -9   1  -1   12.31    1.21 
  -9   1  -1   14.19    1.36 
   9  -1   1   14.60    1.54 
   9  -1   1   10.61    1.29 
 -10   1  -1    0.57    0.84 
 -10   1  -1    0.41    0.74 
  10  -1   1    1.92    0.83 
  10  -1   1    1.84    0.92 
 -11   1  -1   17.17    1.71 
 -11   1  -1   18.53    1.62 
  11  -1   1   19.04    2.32 
  11  -1   1   19.89    1.62 
  12   0  -1    6.71    1.25 
 -12   0   1    8.36    1.48 
 -12   0   1    5.49    1.64 
  11   0  -1   15.16    1.49 
  11   0  -1   11.29    1.58 
 -11   0   1   13.87    1.49 
 -11   0   1   14.63    1.61 
  10   0  -1   33.82    1.98 
  10   0  -1   30.80    1.91 
 -10   0   1   35.41    1.88 
 -10   0   1   35.21    1.80 
   9   0  -1   47.79    1.92 
   9   0  -1   44.31    2.49 
   9   0  -1   48.82    2.14 
  -9   0   1   50.51    2.13 
   8   0  -1    0.40    0.28 
   8   0  -1   -0.02    0.58 
   8   0  -1    0.47    0.41 
   8   0  -1    1.34    0.47 
  -8   0   1    0.09    0.54 
  -8   0   1    0.53    0.57 
   7   0  -1    1.63    0.56 
   7   0  -1    1.22    0.55 
   7   0  -1    0.75    0.45 
   7   0  -1    1.15    0.61 
  -7   0   1    1.05    0.47 
  -7   0   1    1.77    0.58 
   6   0  -1   47.42    1.48 
   6   0  -1   46.06    1.65 
   6   0  -1   46.91    1.25 
   6   0  -1   47.18    1.46 
  -6   0   1   48.39    1.52 
  -6   0   1   46.48    1.49 
   5   0  -1  105.87    2.25 
   5   0  -1  106.47    2.59 
   5   0  -1  106.53    2.43 
   5   0  -1  102.00    2.43 
  -5   0   1  102.35    2.42 
  -5   0   1  105.72    2.44 
   4   0  -1   22.21    0.70 
   4   0  -1   22.31    0.81 
   3   0  -1    1.18    0.19 
   3   0  -1    0.28    0.18 
   2   0  -1  498.32    9.09 
   1   0   1  133.16    2.59 
   2   0   1   50.49    1.21 
   3   0   1  672.25   12.46 
  -4   0  -1  132.98    2.96 
   4   0   1  133.01    2.96 
   4   0   1  131.20    2.97 
   4   0   1  134.50    3.08 
   4   0   1  135.44    2.92 
   4   0   1  136.47    2.50 
  -5   0  -1   83.10    2.15 
   5   0   1   81.52    2.16 
   5   0   1   79.72    2.11 
   5   0   1   79.05    2.26 
  -6   0  -1   14.18    0.83 
  -6   0  -1   14.93    0.94 
   6   0   1   15.75    1.05 
   6   0   1   13.82    0.88 
   6   0   1   13.08    1.05 
  -7   0  -1    3.59    0.66 
  -7   0  -1    2.93    0.60 
   7   0   1    2.67    0.67 
   7   0   1    2.16    0.65 
   7   0   1    2.10    0.57 
  -8   0  -1   20.83    1.38 
  -8   0  -1   22.83    1.42 
   8   0   1   21.37    1.16 
   8   0   1   19.46    1.45 
   8   0   1   21.30    1.46 
  -9   0  -1   24.37    1.50 
  -9   0  -1   23.35    1.54 
   9   0   1   23.32    1.38 
   9   0   1   23.99    1.81 
 -10   0  -1    1.35    0.87 
 -10   0  -1    1.95    0.79 
  10   0   1    1.23    0.96 
 -11   0  -1    4.59    1.17 
 -11   0  -1    5.09    1.41 
  11   0   1    3.75    1.41 
  11   0   1    6.77    1.50 
  12  -1  -1    1.25    0.86 
 -12   1   1    0.00    1.22 
 -12   1   1    1.63    1.31 
  11  -1  -1   14.60    1.94 
 -11   1   1   10.82    1.82 
 -11   1   1   15.52    1.61 
  10  -1  -1   30.18    1.85 
  10  -1  -1   22.36    1.51 
 -10   1   1   27.25    1.70 
 -10   1   1   27.71    1.70 
   9  -1  -1   29.16    1.48 
   9  -1  -1   25.60    1.97 
   9  -1  -1   31.13    1.04 
  -9   1   1   29.48    1.60 
   8  -1  -1   20.74    1.17 
   8  -1  -1   22.83    0.85 
   8  -1  -1   22.36    1.26 
   8  -1  -1   22.21    1.33 
  -8   1   1   20.93    1.21 
  -8   1   1   21.95    1.25 
   7  -1  -1   11.02    1.00 
   7  -1  -1    9.62    0.59 
   7  -1  -1   10.03    0.86 
   7  -1  -1    8.84    0.98 
  -7   1   1    9.24    0.86 
  -7   1   1    9.37    0.84 
   6  -1  -1   82.26    2.30 
   6  -1  -1   83.47    2.19 
   6  -1  -1   79.89    1.98 
   6  -1  -1   80.19    2.09 
  -6   1   1   82.67    2.09 
  -6   1   1   80.18    2.12 
   5  -1  -1   50.16    1.42 
   5  -1  -1   49.37    1.43 
   5  -1  -1   52.11    1.58 
   5  -1  -1   51.42    1.29 
  -5   1   1   50.19    1.43 
   4  -1  -1  297.20    5.74 
   4  -1  -1  290.87    5.59 
   3  -1  -1    8.31    0.46 
   3  -1  -1    8.32    0.40 
   2  -1  -1  150.01    2.94 
  -2   1   1  147.34    2.96 
  -2   1   1  157.16    3.06 
   0  -1  -1  107.48    2.20 
   0  -1  -1  127.23    2.42 
   0   1   1  114.26    2.26 
   1   1   1  463.92    8.54 
   2   1   1    6.17    0.36 
   2   1   1    7.06    0.24 
   2   1   1    6.61    0.23 
   3   1   1  326.96    5.95 
   3   1   1  331.20    6.32 
   3   1   1  322.38    5.96 
  -4  -1  -1   68.33    1.83 
   4   1   1   68.35    1.34 
   4   1   1   67.71    1.89 
   4   1   1   67.65    1.77 
   4   1   1   67.93    1.70 
   4   1   1   66.96    1.76 
   4   1   1   65.58    1.36 
  -5  -1  -1  118.24    2.77 
  -5  -1  -1  123.08    2.93 
   5   1   1  118.38    2.82 
   5   1   1  122.40    2.90 
   5   1   1  121.51    3.04 
   5   1   1  120.00    2.31 
   5   1   1  120.98    2.29 
  -6  -1  -1    6.53    0.68 
  -6  -1  -1    5.34    0.70 
   6   1   1    7.10    0.95 
   6   1   1    4.73    0.75 
   6   1   1    5.05    0.83 
  -7  -1  -1   -0.16    0.46 
   7   1   1    0.74    0.63 
   7   1   1    0.55    0.55 
   7   1   1    0.48    0.58 
  -8  -1  -1   20.51    1.36 
  -8  -1  -1   21.08    1.49 
   8   1   1   19.84    1.52 
   8   1   1   17.15    1.54 
  -9  -1  -1    8.52    1.17 
  -9  -1  -1    9.84    1.48 
   9   1   1   10.51    1.42 
   9   1   1    8.55    1.42 
 -10  -1  -1    2.54    1.02 
 -10  -1  -1    2.45    0.93 
  10   1   1    2.90    1.12 
  10   1   1    1.77    1.14 
 -11  -1  -1    0.29    0.92 
 -11  -1  -1   -0.98    0.90 
  11   1   1   -1.55    0.95 
  11   1   1    0.99    1.33 
  12  -2  -1    3.15    1.31 
 -12   2   1    3.40    1.31 
  11  -2  -1    5.45    1.40 
  11  -2  -1    3.31    0.99 
 -11   2   1    1.26    1.08 
 -11   2   1    2.49    0.94 
  10  -2  -1    4.81    1.04 
 -10   2   1    3.62    0.93 
   9  -2  -1   41.27    1.93 
   9  -2  -1   40.12    1.24 
  -9   2   1   41.90    1.77 
   8  -2  -1   35.40    1.64 
   8  -2  -1   33.44    1.11 
   8  -2  -1   33.13    1.60 
   8  -2  -1   34.73    1.74 
   8  -2  -1   31.14    1.50 
  -8   2   1   32.45    1.39 
  -8   2   1   31.87    1.52 
   7  -2  -1   91.01    2.52 
   7  -2  -1   91.21    2.10 
   7  -2  -1   87.92    2.56 
   7  -2  -1   89.03    2.43 
  -7   2   1   88.10    2.33 
  -7   2   1   87.76    2.42 
   6  -2  -1   11.11    0.62 
   6  -2  -1   13.46    0.89 
   6  -2  -1   11.04    0.83 
  -6   2   1   11.07    0.79 
  -6   2   1   13.23    0.78 
   5  -2  -1  219.24    4.39 
   5  -2  -1  216.63    4.52 
   5  -2  -1  214.12    4.53 
   5  -2  -1  223.02    4.66 
  -5   2   1  219.51    4.48 
   4  -2  -1  290.85    5.62 
   4  -2  -1  294.95    5.77 
   3  -2  -1    1.26    0.22 
  -3   2   1    1.59    0.29 
   2  -2  -1    6.74    0.36 
  -2   2   1    6.17    0.38 
  -1   2   1    0.68    0.19 
   0  -2  -1   92.54    1.93 
   0   2   1   99.40    2.00 
  -1  -2  -1    9.73    0.37 
   1   2   1    9.74    0.45 
  -2  -2  -1  247.63    4.64 
   2   2   1  250.46    4.74 
   2   2   1  247.71    4.85 
  -3  -2  -1    3.43    0.61 
   3   2   1    4.01    0.69 
   3   2   1    4.14    0.30 
   3   2   1    3.43    0.51 
  -4  -2  -1    8.06    0.69 
   4   2   1    7.20    0.37 
   4   2   1    6.93    0.60 
   4   2   1    6.16    0.56 
   4   2   1    7.95    0.68 
  -5  -2  -1   35.18    1.38 
  -5  -2  -1   36.78    1.21 
  -5  -2  -1   37.12    1.19 
   5   2   1   36.68    1.51 
   5   2   1   34.57    1.27 
   5   2   1   35.24    1.24 
   5   2   1   36.61    0.89 
  -6  -2  -1    4.92    0.70 
  -6  -2  -1    6.11    0.70 
  -6  -2  -1    6.10    0.75 
   6   2   1    6.19    0.35 
   6   2   1    5.21    0.84 
   6   2   1    7.01    0.98 
   6   2   1    5.92    0.73 
  -7  -2  -1    3.15    0.76 
  -7  -2  -1    2.40    0.62 
  -7  -2  -1    3.78    0.61 
   7   2   1    2.06    0.56 
   7   2   1    2.69    0.67 
   7   2   1    3.52    0.85 
  -8  -2  -1   27.82    1.60 
  -8  -2  -1   32.23    1.62 
  -8  -2  -1   31.02    1.24 
   8   2   1   30.64    1.87 
   8   2   1   30.65    1.51 
  -9  -2  -1    9.80    1.16 
  -9  -2  -1    9.51    1.35 
   9   2   1   11.94    1.26 
   9   2   1   12.02    1.54 
 -10  -2  -1   12.26    1.44 
 -10  -2  -1   13.31    1.71 
  10   2   1    9.22    1.57 
  10   2   1   10.93    1.55 
  12  -3  -1   12.17    2.03 
  12  -3  -1   11.81    1.76 
 -12   3   1   15.08    1.48 
 -12   3   1   15.96    2.01 
  11  -3  -1   -0.05    0.80 
  11  -3  -1    3.51    1.20 
 -11   3   1    1.80    0.90 
 -11   3   1    2.03    1.03 
  10  -3  -1    3.45    0.99 
  10  -3  -1    1.46    0.84 
 -10   3   1    2.95    0.90 
 -10   3   1    3.13    0.94 
   9  -3  -1   45.42    1.34 
   9  -3  -1   44.85    1.34 
   9  -3  -1   35.86    2.87 
   9  -3  -1   43.75    1.97 
  -9   3   1   35.39    2.63 
  -9   3   1   45.43    1.75 
   8  -3  -1   21.86    1.44 
   8  -3  -1   19.00    1.32 
   8  -3  -1   23.81    0.95 
   8  -3  -1   20.88    0.90 
   8  -3  -1   19.00    1.14 
  -8   3   1   21.64    1.22 
  -8   3   1   22.54    1.13 
   7  -3  -1    0.58    0.41 
   7  -3  -1    0.61    0.55 
   7  -3  -1    1.24    0.33 
   7  -3  -1   -0.13    0.44 
   7  -3  -1    0.27    0.41 
  -7   3   1    1.52    0.52 
  -7   3   1    1.57    0.41 
   6  -3  -1   25.41    1.13 
   6  -3  -1   23.17    1.07 
   6  -3  -1   23.85    1.05 
   6  -3  -1   27.03    0.97 
  -6   3   1   25.05    1.07 
  -6   3   1   27.02    1.06 
   5  -3  -1  228.92    4.90 
   5  -3  -1  236.02    4.64 
   5  -3  -1  234.68    4.86 
  -5   3   1  226.23    4.71 
   4  -3  -1  300.40    5.95 
   4  -3  -1  305.08    5.90 
   4  -3  -1  285.44    5.80 
  -4   3   1  299.12    5.92 
   3  -3  -1    1.54    0.30 
  -3   3   1    1.19    0.31 
   2  -3  -1    7.99    0.45 
  -2   3   1    7.98    0.47 
   1  -3  -1  216.09    4.23 
  -1   3   1  220.05    4.27 
   0  -3  -1   50.29    1.22 
   0   3   1   51.81    1.26 
  -1  -3  -1  138.76    2.82 
   1   3   1  142.73    2.92 
  -2  -3  -1   16.01    0.58 
   2   3   1   16.23    0.70 
  -3  -3  -1    0.72    0.35 
   3   3   1   -0.16    0.22 
   3   3   1    0.30    0.19 
   3   3   1    0.03    0.31 
  -4  -3  -1   74.16    2.04 
  -4  -3  -1   76.79    1.90 
  -4  -3  -1   78.44    1.88 
   4   3   1   75.86    2.19 
   4   3   1   74.93    1.99 
   4   3   1   78.86    1.95 
   4   3   1   79.99    1.73 
  -5  -3  -1    1.96    0.56 
  -5  -3  -1    2.30    0.37 
  -5  -3  -1    2.22    0.45 
   5   3   1    1.65    0.35 
   5   3   1    2.31    0.55 
   5   3   1    2.42    0.49 
   5   3   1    2.22    0.29 
  -6  -3  -1  124.47    2.97 
  -6  -3  -1  116.96    3.16 
  -6  -3  -1  126.27    2.83 
   6   3   1  121.57    3.13 
   6   3   1  123.39    3.42 
   6   3   1  123.98    2.53 
   6   3   1  124.53    3.04 
  -7  -3  -1   23.87    1.11 
  -7  -3  -1   21.57    1.15 
  -7  -3  -1   21.24    1.36 
   7   3   1   21.79    1.42 
   7   3   1   21.49    1.36 
   7   3   1   23.07    1.57 
   7   3   1   22.75    0.82 
  -8  -3  -1    0.75    0.61 
  -8  -3  -1    0.83    0.79 
  -8  -3  -1    1.27    0.70 
   8   3   1    0.79    0.73 
   8   3   1    1.13    0.87 
  -9  -3  -1    8.09    1.22 
  -9  -3  -1   11.36    1.74 
   9   3   1   11.29    1.18 
 -10  -3  -1   28.41    2.17 
 -10  -3  -1   32.44    1.84 
  10   3   1   32.43    2.19 
  10   3   1   34.72    1.83 
  12  -4  -1    6.21    1.39 
  12  -4  -1    4.90    1.31 
 -12   4   1    5.81    1.27 
 -12   4   1    9.16    1.60 
  11  -4  -1    1.05    1.10 
  11  -4  -1    1.10    1.12 
 -11   4   1    0.73    0.97 
 -11   4   1    1.93    0.96 
  10  -4  -1    0.11    0.89 
  10  -4  -1    2.44    1.07 
 -10   4   1    0.61    0.87 
 -10   4   1    1.29    0.84 
   9  -4  -1   19.84    0.95 
   9  -4  -1   15.90    1.34 
   9  -4  -1   19.65    0.94 
  -9   4   1   18.64    1.45 
  -9   4   1   20.99    1.27 
   8  -4  -1   50.34    1.95 
   8  -4  -1   53.09    1.54 
   8  -4  -1   51.74    1.52 
   8  -4  -1   46.55    1.94 
  -8   4   1   51.00    1.66 
  -8   4   1   50.18    2.09 
  -8   4   1   51.21    1.93 
   7  -4  -1    4.66    0.57 
   7  -4  -1    3.01    0.64 
   7  -4  -1    2.77    0.64 
   7  -4  -1    3.93    0.56 
  -7   4   1    2.80    0.66 
  -7   4   1    4.17    0.72 
  -7   4   1    2.78    0.61 
   6  -4  -1   81.11    1.98 
   6  -4  -1   77.88    1.97 
   6  -4  -1   78.01    2.27 
   6  -4  -1   74.08    2.12 
  -6   4   1   78.12    2.22 
  -6   4   1   76.60    2.12 
   5  -4  -1   56.87    1.54 
   5  -4  -1   56.62    1.55 
   5  -4  -1   53.58    1.71 
   5  -4  -1   57.15    1.71 
  -5   4   1   55.13    1.57 
  -5   4   1   53.74    1.70 
   4  -4  -1   52.67    1.42 
   4  -4  -1   48.06    1.46 
   4  -4  -1   52.40    1.56 
  -4   4   1   52.73    1.57 
   3  -4  -1   39.45    1.16 
  -3   4   1   39.16    1.20 
   2  -4  -1  130.29    2.78 
  -2   4   1  129.74    2.83 
   1  -4  -1   94.97    2.17 
  -1   4   1  101.25    2.23 
   0   4   1   52.77    1.38 
   1   4   1  138.10    2.95 
  -2  -4  -1   17.31    1.00 
  -2  -4  -1   21.68    0.86 
  -2  -4  -1   22.79    1.04 
   2   4   1   22.56    0.90 
   2   4   1   22.40    1.02 
  -3  -4  -1   46.96    1.42 
  -3  -4  -1   46.72    1.39 
   3   4   1   45.08    1.49 
   3   4   1   46.25    1.40 
   3   4   1   44.11    1.38 
  -4  -4  -1   15.17    0.72 
  -4  -4  -1   14.48    0.87 
   4   4   1   14.62    0.85 
   4   4   1   15.46    0.79 
   4   4   1   15.33    0.72 
   4   4   1   16.31    1.12 
  -5  -4  -1    4.42    0.74 
  -5  -4  -1    3.50    0.59 
  -5  -4  -1    4.57    0.62 
   5   4   1    3.85    0.51 
   5   4   1    4.84    0.68 
   5   4   1    3.29    0.62 
   5   4   1    3.55    0.64 
  -6  -4  -1   48.82    1.59 
  -6  -4  -1   46.45    1.84 
  -6  -4  -1   49.17    1.59 
   6   4   1   45.71    1.77 
   6   4   1   48.70    2.00 
   6   4   1   47.87    1.61 
  -7  -4  -1   44.71    1.64 
  -7  -4  -1   44.42    1.65 
   7   4   1   45.97    1.65 
   7   4   1   44.57    1.83 
  -8  -4  -1    1.94    0.96 
  -8  -4  -1    0.57    0.66 
  -8  -4  -1    1.08    0.59 
   8   4   1    0.61    0.78 
  -9  -4  -1   -0.87    0.72 
   9   4   1   -0.73    0.87 
 -10  -4  -1   12.67    1.52 
 -10  -4  -1   15.23    1.89 
  10   4   1   13.97    1.74 
  10   4   1   12.57    2.12 
  12  -5  -1   12.80    2.06 
  12  -5  -1    7.56    1.66 
 -12   5   1   12.26    2.01 
  11  -5  -1   17.40    1.93 
  11  -5  -1   18.44    1.78 
 -11   5   1   18.55    1.64 
  10  -5  -1   -0.70    0.65 
  10  -5  -1   -0.47    0.67 
 -10   5   1   -1.22    0.81 
 -10   5   1    1.94    1.00 
   9  -5  -1    4.65    0.81 
   9  -5  -1    4.09    0.87 
  -9   5   1    5.23    0.92 
   8  -5  -1   46.66    2.00 
   8  -5  -1   47.62    2.00 
   8  -5  -1   45.31    1.49 
   8  -5  -1   45.74    1.48 
  -8   5   1   45.39    1.85 
  -8   5   1   47.05    1.56 
   7  -5  -1   49.69    1.57 
   7  -5  -1   48.36    1.94 
   7  -5  -1   50.15    1.51 
   7  -5  -1   49.17    1.89 
  -7   5   1   49.65    1.52 
  -7   5   1   49.05    1.69 
  -7   5   1   50.58    1.87 
   6  -5  -1    9.05    0.68 
   6  -5  -1    9.05    0.67 
   6  -5  -1    8.72    0.83 
   6  -5  -1    7.44    0.75 
  -6   5   1    9.12    0.77 
  -6   5   1    7.17    0.82 
   5  -5  -1    2.07    0.38 
   5  -5  -1    2.11    0.48 
   5  -5  -1    2.32    0.57 
   5  -5  -1    2.13    0.37 
  -5   5   1    2.56    0.52 
  -5   5   1    2.48    0.49 
   4  -5  -1   73.68    1.98 
   4  -5  -1   70.76    1.87 
   4  -5  -1   73.30    2.00 
   4  -5  -1   72.66    1.83 
  -4   5   1   68.18    1.96 
  -4   5   1   70.07    1.96 
   3  -5  -1   41.24    1.28 
   3  -5  -1   41.37    1.28 
   3  -5  -1   41.76    1.37 
  -3   5   1   42.54    1.39 
  -3   5   1   41.25    1.37 
   2  -5  -1  429.60    8.46 
   2  -5  -1  450.14    8.55 
   2  -5  -1  445.26    8.46 
  -2   5   1  446.76    8.54 
   1  -5  -1  153.24    3.30 
   1  -5  -1  151.79    3.26 
  -1   5   1  150.95    3.27 
   0  -5  -1    6.03    0.54 
   0  -5  -1    5.92    0.57 
   0   5   1    4.99    0.50 
   0   5   1    6.91    0.64 
  -1  -5  -1   51.03    1.42 
  -1  -5  -1   50.16    1.37 
   1   5   1   51.31    1.46 
   1   5   1   49.60    1.54 
  -2  -5  -1  261.96    5.32 
  -2  -5  -1  264.89    5.23 
  -2  -5  -1  265.67    5.32 
  -2  -5  -1  263.29    5.47 
   2   5   1  254.34    5.47 
   2   5   1  268.36    5.35 
  -3  -5  -1  350.76    6.99 
  -3  -5  -1  358.66    6.88 
  -3  -5  -1  343.44    7.05 
   3   5   1  360.60    6.94 
   3   5   1  349.92    7.01 
   3   5   1  354.04    7.28 
  -4  -5  -1   21.07    1.14 
  -4  -5  -1   22.87    0.92 
  -4  -5  -1   20.41    1.02 
   4   5   1   19.28    1.11 
   4   5   1   20.99    1.04 
   4   5   1   22.45    1.14 
   4   5   1   21.41    0.92 
  -5  -5  -1    6.58    0.66 
  -5  -5  -1    6.67    1.04 
  -5  -5  -1    7.46    0.81 
  -5  -5  -1    6.00    0.87 
   5   5   1    6.13    0.91 
   5   5   1    5.40    0.72 
   5   5   1    8.61    1.16 
   5   5   1    6.93    0.62 
  -6  -5  -1   40.03    1.51 
  -6  -5  -1   42.09    1.42 
  -6  -5  -1   39.21    1.94 
   6   5   1   38.69    1.50 
   6   5   1   35.97    1.86 
   6   5   1   42.58    1.32 
   6   5   1   40.91    1.28 
   6   5   1   39.17    1.61 
  -7  -5  -1   39.85    1.91 
  -7  -5  -1   44.57    1.70 
  -7  -5  -1   46.48    1.68 
   7   5   1   44.13    1.69 
   7   5   1   41.98    2.09 
   7   5   1   43.69    1.98 
  -8  -5  -1    9.60    1.46 
  -8  -5  -1    8.26    1.13 
  -8  -5  -1   10.27    1.25 
   8   5   1   11.82    1.79 
   8   5   1   11.29    1.35 
  -9  -5  -1    3.60    1.07 
  -9  -5  -1    3.54    0.97 
   9   5   1    3.17    1.16 
   9   5   1    4.60    1.42 
  11  -6  -1    4.70    1.35 
  11  -6  -1    3.50    1.09 
 -11   6   1    4.24    1.19 
  10  -6  -1    9.29    1.42 
  10  -6  -1   13.00    1.73 
 -10   6   1    8.89    1.50 
   9  -6  -1    2.33    0.98 
   9  -6  -1    1.71    0.55 
   9  -6  -1    3.06    0.55 
   9  -6  -1    3.35    1.01 
  -9   6   1    2.71    0.66 
  -9   6   1    3.30    0.92 
   8  -6  -1    2.95    0.87 
   8  -6  -1    3.68    0.85 
   8  -6  -1    3.35    0.52 
   8  -6  -1    3.36    0.63 
  -8   6   1    3.69    0.57 
  -8   6   1    3.41    0.83 
   7  -6  -1   50.49    1.68 
   7  -6  -1   49.16    1.92 
   7  -6  -1   52.51    2.03 
   7  -6  -1   50.57    1.62 
  -7   6   1   50.56    1.79 
  -7   6   1   53.03    2.10 
   6  -6  -1  135.08    3.43 
   6  -6  -1  137.34    3.21 
   6  -6  -1  136.23    3.47 
   6  -6  -1  135.90    3.16 
  -6   6   1  136.19    3.19 
  -6   6   1  130.83    3.38 
   5  -6  -1  230.57    5.08 
   5  -6  -1  237.21    4.95 
   5  -6  -1  239.93    4.92 
   5  -6  -1  232.31    5.15 
  -5   6   1  233.38    5.14 
  -5   6   1  227.13    4.79 
   4  -6  -1   13.92    0.82 
   4  -6  -1   14.44    0.86 
   4  -6  -1   13.09    0.84 
  -4   6   1   14.79    0.93 
  -4   6   1   14.68    0.78 
  -4   6   1   13.62    0.94 
   3  -6  -1    0.04    0.30 
   3  -6  -1    0.12    0.32 
   3  -6  -1    0.38    0.36 
  -3   6   1    0.38    0.36 
  -3   6   1   -0.09    0.34 
   2  -6  -1   22.97    1.01 
   2  -6  -1   22.33    0.90 
   2  -6  -1   21.42    0.91 
   2  -6  -1   22.26    0.94 
  -2   6   1   22.72    1.01 
  -2   6   1   23.05    0.97 
   1  -6  -1   47.75    1.39 
   1  -6  -1   48.24    1.44 
   1  -6  -1   47.96    1.44 
  -1   6   1   48.06    1.50 
  -1   6   1   47.04    1.50 
   0  -6  -1    4.50    0.44 
   0  -6  -1    3.93    0.57 
   0   6   1    5.53    0.69 
   0   6   1    5.30    0.58 
  -1  -6  -1   20.24    0.84 
  -1  -6  -1   19.80    0.93 
  -1  -6  -1   18.89    0.86 
  -1  -6  -1   19.38    0.88 
   1   6   1   17.90    0.96 
   1   6   1   19.29    0.97 
  -2  -6  -1   27.50    0.98 
  -2  -6  -1   27.88    1.07 
  -2  -6  -1   26.09    1.09 
  -2  -6  -1   27.11    1.07 
   2   6   1   27.41    1.28 
   2   6   1   28.68    1.30 
   2   6   1   26.63    1.14 
  -3  -6  -1   68.46    2.05 
  -3  -6  -1   65.00    1.91 
  -3  -6  -1   68.13    1.80 
   3   6   1   67.17    1.84 
   3   6   1   67.46    1.96 
   3   6   1   67.90    2.21 
  -4  -6  -1   14.40    0.92 
  -4  -6  -1   15.44    1.13 
  -4  -6  -1   16.17    1.11 
   4   6   1   16.80    0.83 
   4   6   1   15.59    0.92 
   4   6   1   18.92    1.38 
   4   6   1   15.59    1.01 
  -5  -6  -1   11.54    0.72 
  -5  -6  -1   11.92    0.80 
  -5  -6  -1    9.31    1.14 
  -5  -6  -1   11.13    0.79 
   5   6   1   10.28    0.97 
   5   6   1   11.16    0.86 
   5   6   1   11.44    0.90 
  -6  -6  -1    3.13    0.67 
  -6  -6  -1    3.24    0.53 
   6   6   1    3.20    1.14 
   6   6   1    2.29    0.46 
   6   6   1    2.60    0.69 
   6   6   1    3.27    0.47 
   6   6   1    3.44    0.65 
  -7  -6  -1   60.05    2.62 
  -7  -6  -1   57.50    2.16 
  -7  -6  -1   60.57    1.94 
   7   6   1   58.47    2.58 
   7   6   1   57.45    2.07 
  -8  -6  -1   24.38    1.62 
  -8  -6  -1   23.23    1.54 
  -8  -6  -1   25.17    1.50 
   8   6   1   28.96    1.68 
  -9  -6  -1   19.18    2.14 
  -9  -6  -1   17.57    1.41 
  -9  -6  -1   15.63    1.76 
  11  -7  -1    4.18    1.29 
  11  -7  -1    7.10    1.43 
 -11   7   1    4.86    1.25 
  10  -7  -1    4.54    1.11 
  10  -7  -1    4.11    1.13 
  10  -7  -1    6.27    1.04 
 -10   7   1    5.19    1.11 
   9  -7  -1   19.16    1.66 
   9  -7  -1   21.04    1.13 
   9  -7  -1   22.49    1.41 
   9  -7  -1   23.48    1.79 
  -9   7   1   21.30    1.50 
   8  -7  -1    1.43    0.75 
   8  -7  -1    1.88    0.53 
   8  -7  -1    2.65    0.60 
   8  -7  -1    1.72    0.74 
  -8   7   1    2.43    0.79 
   7  -7  -1    4.57    0.90 
   7  -7  -1    5.87    0.71 
   7  -7  -1    5.05    0.90 
   7  -7  -1    4.07    0.85 
  -7   7   1    4.53    0.75 
  -7   7   1    5.39    1.03 
   6  -7  -1   59.01    2.11 
   6  -7  -1   63.37    1.92 
   6  -7  -1   60.76    1.94 
   6  -7  -1   62.36    2.08 
  -6   7   1   63.20    1.86 
  -6   7   1   59.58    2.13 
   5  -7  -1  113.41    2.85 
   5  -7  -1  111.56    2.78 
   5  -7  -1  107.18    2.94 
  -5   7   1  107.33    2.95 
  -5   7   1  112.18    2.62 
  -5   7   1  114.01    3.03 
   4  -7  -1   82.82    2.29 
   4  -7  -1   88.83    2.03 
   4  -7  -1   84.06    2.25 
   4  -7  -1   81.38    2.39 
  -4   7   1   85.43    2.05 
  -4   7   1   83.53    2.39 
  -4   7   1   84.72    2.40 
   3  -7  -1    1.84    0.45 
   3  -7  -1    2.23    0.39 
   3  -7  -1    2.42    0.49 
   3  -7  -1    2.16    0.53 
  -3   7   1    2.13    0.47 
  -3   7   1    1.40    0.43 
   2  -7  -1   23.19    1.02 
   2  -7  -1   25.58    1.10 
   2  -7  -1   24.78    0.95 
   2  -7  -1   24.75    1.21 
  -2   7   1   24.16    1.16 
  -2   7   1   24.86    1.11 
   1  -7  -1   92.05    2.36 
   1  -7  -1   96.62    2.44 
   1  -7  -1   92.90    2.29 
  -1   7   1   92.07    2.50 
  -1   7   1   92.41    2.40 
  -1   7   1   92.93    2.32 
   0  -7  -1  164.70    3.67 
   0  -7  -1  168.74    3.74 
   0  -7  -1  162.91    3.68 
   0   7   1  162.63    3.87 
   0   7   1  169.20    3.64 
   0   7   1  168.83    3.71 
  -1  -7  -1   11.64    0.75 
  -1  -7  -1   10.35    0.73 
  -1  -7  -1    9.78    0.66 
  -1  -7  -1   12.09    0.83 
   1   7   1   11.81    0.87 
   1   7   1   12.66    0.77 
   1   7   1   11.18    0.91 
  -2  -7  -1    3.71    0.59 
  -2  -7  -1    4.04    0.50 
  -2  -7  -1    3.25    0.58 
  -2  -7  -1    4.19    0.72 
   2   7   1    4.96    0.67 
   2   7   1    4.63    0.71 
   2   7   1    5.72    0.99 
  -3  -7  -1   28.95    1.26 
  -3  -7  -1   29.79    1.44 
  -3  -7  -1   29.78    1.21 
   3   7   1   32.47    1.60 
   3   7   1   29.67    1.28 
   3   7   1   30.58    1.16 
  -4  -7  -1   17.44    1.07 
  -4  -7  -1   17.75    1.13 
  -4  -7  -1   17.66    1.01 
   4   7   1   15.08    1.12 
   4   7   1   17.74    0.99 
   4   7   1   18.37    1.21 
   4   7   1   16.71    1.04 
  -5  -7  -1   41.72    1.68 
  -5  -7  -1   42.39    1.82 
  -5  -7  -1   41.10    1.29 
  -5  -7  -1   42.52    1.53 
   5   7   1   43.02    1.52 
   5   7   1   43.25    1.41 
   5   7   1   45.48    2.24 
   5   7   1   39.03    1.79 
  -6  -7  -1    1.57    0.77 
  -6  -7  -1    2.26    0.61 
  -6  -7  -1    2.09    0.78 
   6   7   1    2.23    0.64 
   6   7   1    1.43    0.80 
   6   7   1    2.73    0.60 
  -7  -7  -1    7.12    1.10 
  -7  -7  -1    4.46    1.20 
   7   7   1    5.09    1.16 
   7   7   1    4.95    0.87 
  -8  -7  -1    3.14    0.85 
  -8  -7  -1    3.28    1.18 
   8   7   1    2.50    1.23 
  11  -8  -1    1.72    1.28 
 -11   8   1    2.26    1.27 
  10  -8  -1   16.16    1.56 
  10  -8  -1   20.49    2.37 
  10  -8  -1   17.42    1.79 
 -10   8   1   19.01    1.70 
   9  -8  -1   40.06    2.16 
   9  -8  -1   40.68    1.78 
   9  -8  -1   40.75    2.08 
  -9   8   1   40.95    1.98 
   8  -8  -1   13.24    1.33 
   8  -8  -1   15.41    1.00 
  -8   8   1   15.09    1.35 
   7  -8  -1    7.67    1.08 
   7  -8  -1    8.28    1.42 
   7  -8  -1    6.70    0.86 
  -7   8   1    7.28    1.02 
   6  -8  -1    7.84    1.14 
   6  -8  -1    5.79    0.64 
   6  -8  -1    5.04    0.79 
   6  -8  -1    5.17    0.92 
  -6   8   1    5.10    0.96 
  -6   8   1    6.46    0.85 
  -6   8   1    4.74    0.90 
   5  -8  -1   10.93    0.89 
   5  -8  -1   10.26    1.07 
   5  -8  -1    9.55    0.94 
   5  -8  -1   10.33    0.63 
  -5   8   1   10.40    1.12 
  -5   8   1    9.81    1.13 
  -5   8   1   10.14    0.82 
   4  -8  -1    0.32    0.29 
   4  -8  -1    0.34    0.49 
   4  -8  -1    0.40    0.55 
   4  -8  -1    0.86    0.31 
  -4   8   1    0.18    0.48 
  -4   8   1    1.14    0.57 
  -4   8   1    1.23    0.61 
   3  -8  -1   13.62    1.04 
   3  -8  -1   13.21    0.98 
   3  -8  -1   11.39    0.90 
   3  -8  -1   11.85    0.80 
  -3   8   1   12.54    0.99 
  -3   8   1   12.03    1.01 
   2  -8  -1    6.29    0.65 
   2  -8  -1    6.90    0.72 
  -2   8   1    6.50    0.90 
  -2   8   1    7.83    0.76 
  -2   8   1    6.16    0.72 
   1  -8  -1  115.56    2.91 
   1  -8  -1  119.42    3.00 
   1  -8  -1  121.18    2.88 
  -1   8   1  120.48    2.97 
  -1   8   1  120.18    2.90 
  -1   8   1  117.91    3.14 
   0  -8  -1  127.14    2.80 
   0  -8  -1  123.46    3.08 
   0  -8  -1  120.31    3.00 
   0  -8  -1  117.62    2.96 
   0   8   1  123.94    2.90 
   0   8   1  123.74    3.06 
   0   8   1  123.02    3.26 
  -1  -8  -1    1.90    0.63 
  -1  -8  -1    1.33    0.42 
  -1  -8  -1    1.39    0.50 
  -1  -8  -1    1.83    0.56 
   1   8   1    1.40    0.47 
   1   8   1    2.23    0.70 
   1   8   1    2.05    0.49 
  -2  -8  -1    1.87    0.48 
  -2  -8  -1    2.13    0.54 
  -2  -8  -1    2.04    0.53 
  -2  -8  -1    2.23    0.59 
   2   8   1    3.45    0.82 
   2   8   1    2.65    0.53 
   2   8   1    2.24    0.56 
  -3  -8  -1   18.26    1.22 
  -3  -8  -1   15.22    1.19 
  -3  -8  -1   15.30    1.13 
   3   8   1   15.95    1.11 
   3   8   1   18.21    0.96 
   3   8   1   16.29    1.43 
  -4  -8  -1   36.05    1.69 
  -4  -8  -1   36.13    1.65 
  -4  -8  -1   34.63    1.43 
   4   8   1   32.36    1.71 
   4   8   1   34.39    1.43 
   4   8   1   36.24    1.56 
   4   8   1   33.10    1.45 
  -5  -8  -1    9.65    1.52 
  -5  -8  -1   12.40    1.13 
  -5  -8  -1   10.55    1.06 
   5   8   1   12.06    1.50 
   5   8   1   10.75    1.03 
   5   8   1   12.02    1.01 
   5   8   1   12.45    1.35 
  -6  -8  -1   29.33    1.62 
  -6  -8  -1   26.31    1.55 
   6   8   1   31.50    2.13 
   6   8   1   28.10    1.44 
  -7  -8  -1   -0.08    0.88 
  -7  -8  -1   -1.22    0.97 
  -8  -8  -1    0.05    0.96 
  -8  -8  -1    1.61    1.31 
   8   8   1   -0.69    1.33 
  10  -9  -1   11.70    1.82 
  10  -9  -1   11.29    1.11 
 -10   9   1   14.20    2.03 
 -10   9   1    9.88    1.69 
   9  -9  -1   22.32    1.79 
   9  -9  -1   23.83    1.45 
  -9   9   1   23.75    1.93 
  -9   9   1   22.24    1.70 
   8  -9  -1   18.52    1.55 
   8  -9  -1   20.00    1.51 
  -8   9   1   20.35    2.14 
  -8   9   1   22.54    1.86 
   7  -9  -1    0.11    0.68 
   7  -9  -1    1.36    0.79 
  -7   9   1    0.54    0.72 
  -7   9   1    1.71    0.68 
   6  -9  -1   10.24    1.23 
   6  -9  -1   10.12    1.17 
   6  -9  -1   11.58    0.70 
  -6   9   1   10.29    0.99 
  -6   9   1    9.94    1.26 
   5  -9  -1   33.42    1.17 
   5  -9  -1   31.99    1.53 
   5  -9  -1   30.93    1.57 
   5  -9  -1   31.44    1.74 
  -5   9   1   33.58    1.75 
  -5   9   1   29.81    1.70 
  -5   9   1   32.20    1.24 
   4  -9  -1   34.64    1.63 
   4  -9  -1   32.69    1.56 
   4  -9  -1   34.27    1.41 
   4  -9  -1   35.52    1.31 
  -4   9   1   36.00    1.68 
  -4   9   1   36.32    1.74 
  -4   9   1   38.58    1.83 
   3  -9  -1    7.09    1.07 
   3  -9  -1    4.83    0.69 
   3  -9  -1    5.35    0.85 
   3  -9  -1    4.84    0.84 
  -3   9   1    3.47    0.71 
  -3   9   1    5.09    0.77 
   2  -9  -1   26.39    1.18 
   2  -9  -1   24.87    1.37 
   2  -9  -1   24.81    1.23 
  -2   9   1   25.58    1.43 
  -2   9   1   26.90    1.53 
  -2   9   1   26.05    1.35 
   1  -9  -1   81.17    2.45 
   1  -9  -1   85.48    2.41 
   1  -9  -1   97.80    2.85 
   1  -9  -1   85.09    2.46 
  -1   9   1   84.30    2.50 
  -1   9   1   87.60    2.68 
  -1   9   1   87.14    2.41 
   0  -9  -1    4.37    0.64 
   0  -9  -1    4.94    0.74 
   0  -9  -1    4.19    0.66 
   0  -9  -1    3.89    0.63 
   0   9   1    4.72    0.81 
   0   9   1    4.49    0.80 
   0   9   1    3.21    0.70 
  -1  -9  -1   39.60    1.40 
  -1  -9  -1   37.73    1.54 
  -1  -9  -1   38.19    1.56 
  -1  -9  -1   35.78    1.49 
   1   9   1   38.05    1.47 
   1   9   1   38.80    1.76 
   1   9   1   37.48    1.52 
  -2  -9  -1   34.39    1.44 
  -2  -9  -1   35.90    1.57 
  -2  -9  -1   37.00    1.48 
  -2  -9  -1   30.90    1.47 
   2   9   1   36.84    1.84 
   2   9   1   35.45    1.45 
   2   9   1   35.47    1.57 
  -3  -9  -1    3.11    0.77 
  -3  -9  -1    2.15    0.64 
  -3  -9  -1    2.89    0.73 
   3   9   1    4.83    0.88 
   3   9   1    3.80    0.72 
   3   9   1    3.66    0.61 
   3   9   1    2.53    1.22 
  -4  -9  -1    2.53    0.83 
  -4  -9  -1    4.51    0.96 
  -4  -9  -1    1.79    0.79 
   4   9   1    3.06    0.62 
   4   9   1    3.67    0.75 
   4   9   1    2.07    1.04 
   4   9   1    3.00    0.62 
  -5  -9  -1   32.50    1.65 
  -5  -9  -1   31.47    1.53 
  -5  -9  -1   29.23    1.55 
   5   9   1   31.67    1.67 
   5   9   1   24.37    1.69 
  -6  -9  -1   12.62    1.19 
  -6  -9  -1   13.94    1.60 
   6   9   1   18.54    2.03 
  -7  -9  -1   -0.11    0.98 
  -7  -9  -1    0.69    0.90 
   7   9   1   -1.09    0.99 
  10 -10  -1    4.20    1.51 
  10 -10  -1    0.64    0.95 
 -10  10   1    1.38    0.96 
 -10  10   1    1.48    1.21 
   9 -10  -1    3.50    0.71 
   9 -10  -1    1.19    0.93 
  -9  10   1    2.15    0.87 
  -9  10   1    3.41    1.29 
   8 -10  -1    7.31    1.37 
   8 -10  -1    9.48    1.38 
  -8  10   1   12.95    1.86 
  -8  10   1    8.33    1.29 
   7 -10  -1    3.19    0.85 
   7 -10  -1    4.02    0.95 
  -7  10   1    5.62    0.96 
  -7  10   1    2.66    1.01 
   6 -10  -1   -0.11    0.45 
   6 -10  -1    0.17    0.78 
  -6  10   1    1.27    0.61 
  -6  10   1    1.49    0.94 
   5 -10  -1   20.53    1.41 
   5 -10  -1   22.71    1.00 
  -5  10   1   19.85    1.08 
  -5  10   1   20.79    1.48 
   4 -10  -1   57.86    2.17 
   4 -10  -1   59.75    1.87 
   4 -10  -1   60.84    2.34 
  -4  10   1   57.07    2.33 
  -4  10   1   56.06    2.14 
   3 -10  -1   30.65    1.43 
   3 -10  -1   33.41    1.45 
  -3  10   1   34.11    1.78 
  -3  10   1   31.73    1.58 
  -3  10   1   33.14    1.55 
   2 -10  -1   31.93    1.37 
   2 -10  -1   32.29    1.54 
  -2  10   1   33.74    1.71 
  -2  10   1   32.13    1.66 
  -2  10   1   33.41    1.55 
   1 -10  -1    1.69    0.58 
   1 -10  -1    3.79    0.79 
   1 -10  -1    2.70    0.43 
  -1  10   1    3.25    0.76 
  -1  10   1    2.62    0.72 
  -1  10   1    2.75    0.61 
   0 -10  -1    6.21    0.71 
   0 -10  -1    5.47    0.94 
   0 -10  -1    6.98    0.88 
   0  10   1    5.72    0.86 
   0  10   1    4.87    0.92 
   0  10   1    6.70    1.01 
  -1 -10  -1   16.39    1.28 
  -1 -10  -1   14.88    1.14 
  -1 -10  -1   16.99    0.97 
   1  10   1   12.16    1.28 
   1  10   1   18.57    1.11 
   1  10   1   15.57    1.26 
  -2 -10  -1   49.14    1.74 
  -2 -10  -1   49.15    2.03 
  -2 -10  -1   49.42    2.03 
   2  10   1   48.96    1.96 
   2  10   1   50.73    1.74 
   2  10   1   45.33    2.04 
  -3 -10  -1    4.78    0.88 
  -3 -10  -1    4.28    0.83 
  -3 -10  -1    3.62    0.69 
   3  10   1    3.56    0.84 
   3  10   1    2.57    0.80 
   3  10   1    4.48    1.07 
  -4 -10  -1    1.36    0.77 
  -4 -10  -1   -0.24    0.59 
  -4 -10  -1    1.03    0.93 
   4  10   1    0.62    0.99 
  -5 -10  -1    5.35    0.92 
  -5 -10  -1    5.25    1.69 
  -5 -10  -1    5.20    1.09 
  -6 -10  -1    1.34    0.79 
  -6 -10  -1    0.63    0.81 
   6  10   1    4.19    1.40 
   9 -11  -1    0.93    1.14 
   9 -11  -1   -1.13    0.92 
  -9  11   1   -0.68    1.07 
  -9  11   1   -0.46    0.89 
   8 -11  -1    8.34    1.18 
   8 -11  -1    8.37    1.37 
  -8  11   1   12.50    1.93 
  -8  11   1    8.89    1.26 
   7 -11  -1   13.96    1.28 
   7 -11  -1   14.31    1.61 
  -7  11   1   12.53    1.65 
  -7  11   1   11.13    1.38 
   6 -11  -1   10.21    1.00 
   6 -11  -1   12.68    1.52 
   6 -11  -1   13.14    1.10 
  -6  11   1   12.48    1.65 
   5 -11  -1    3.09    0.85 
   5 -11  -1    1.07    0.66 
   5 -11  -1    2.73    0.57 
  -5  11   1    2.75    1.00 
   4 -11  -1    3.84    0.93 
   4 -11  -1    5.22    0.77 
  -4  11   1    4.54    1.06 
   3 -11  -1   31.46    1.68 
   3 -11  -1   34.25    1.48 
  -3  11   1   33.96    1.94 
  -3  11   1   30.54    1.62 
   2 -11  -1   47.50    2.03 
   2 -11  -1   48.57    1.93 
  -2  11   1   44.78    2.14 
  -2  11   1   50.82    1.86 
  -2  11   1   43.36    2.14 
   1 -11  -1   20.34    1.31 
   1 -11  -1   23.25    1.00 
   1 -11  -1   21.73    2.01 
  -1  11   1   24.77    1.36 
  -1  11   1   23.88    1.47 
  -1  11   1   22.81    1.62 
   0 -11  -1    0.92    0.47 
   0 -11  -1   -0.54    0.59 
   0 -11  -1   -0.25    0.71 
   0  11   1    0.66    0.65 
   0  11   1   -0.09    0.67 
   0  11   1    0.69    0.65 
  -1 -11  -1   19.05    1.07 
  -1 -11  -1   14.55    1.30 
  -1 -11  -1   17.68    1.38 
   1  11   1   18.36    1.69 
   1  11   1   16.66    1.24 
   1  11   1   16.62    1.37 
  -2 -11  -1   15.80    1.03 
  -2 -11  -1   13.46    1.32 
  -2 -11  -1   13.82    1.20 
   2  11   1   15.01    1.27 
   2  11   1   13.94    2.11 
  -3 -11  -1    8.72    1.54 
  -3 -11  -1    8.58    1.26 
  -3 -11  -1   12.47    1.47 
   3  11   1   13.08    1.92 
  -4 -11  -1   -1.12    0.74 
  -4 -11  -1    0.23    0.81 
  -4 -11  -1    0.93    0.67 
   4  11   1   -1.23    0.76 
  -5 -11  -1    0.09    0.92 
  -5 -11  -1    0.95    1.02 
  -5 -11  -1   -0.36    0.98 
   8 -12  -1    2.13    1.04 
   8 -12  -1    3.31    0.66 
  -8  12   1    2.66    1.25 
   7 -12  -1    1.70    0.83 
   7 -12  -1    2.54    1.18 
  -7  12   1    3.48    1.14 
   6 -12  -1   15.19    1.16 
   6 -12  -1   11.80    1.35 
   6 -12  -1   13.58    1.42 
  -6  12   1   15.00    1.76 
   5 -12  -1    1.14    0.64 
   5 -12  -1    0.80    0.68 
  -5  12   1    0.72    0.89 
   4 -12  -1   -0.58    0.59 
  -4  12   1    0.17    0.79 
   3 -12  -1    5.41    0.90 
  -3  12   1    5.08    1.05 
  -3  12   1    4.91    1.11 
   2 -12  -1   12.21    1.09 
  -2  12   1   13.21    1.57 
   1 -12  -1   43.23    2.01 
   1 -12  -1   39.87    1.91 
  -1  12   1   42.07    1.86 
  -1  12   1   39.27    2.05 
   0 -12  -1    6.87    0.87 
   0 -12  -1    4.17    0.89 
   0 -12  -1    5.49    1.12 
   0  12   1    3.81    1.04 
   0  12   1    7.25    1.20 
  -1 -12  -1    1.86    0.68 
  -1 -12  -1    2.95    0.96 
  -1 -12  -1    3.01    0.58 
   1  12   1    3.06    1.31 
  -2 -12  -1    2.40    0.76 
  -2 -12  -1    2.93    0.97 
   2  12   1    3.06    1.09 
  -3 -12  -1   18.54    1.72 
  -3 -12  -1   22.36    1.49 
  -3 -12  -1   20.97    1.52 
   3  12   1   24.72    2.28 
  -4 -12  -1   14.40    1.83 
  -4 -12  -1   16.69    1.41 
  -4 -12  -1   13.53    1.45 
   7 -13  -1    2.77    1.26 
   7 -13  -1    3.23    1.24 
  -7  13   1    2.97    1.35 
   6 -13  -1    9.07    1.08 
   6 -13  -1    9.76    1.68 
  -6  13   1    5.57    1.35 
   5 -13  -1   20.17    1.75 
   5 -13  -1   17.87    1.28 
  -5  13   1   18.96    1.77 
   4 -13  -1    5.30    0.83 
   4 -13  -1    4.64    0.82 
  -4  13   1    3.05    0.95 
  -4  13   1    5.09    0.98 
   3 -13  -1    0.22    0.93 
   3 -13  -1   -0.41    0.61 
  -3  13   1   -0.74    0.91 
   2 -13  -1    3.48    0.92 
   2 -13  -1    3.58    0.96 
  -2  13   1    3.80    1.12 
   1 -13  -1   14.12    1.45 
   1 -13  -1   14.56    1.32 
  -1  13   1   15.14    1.63 
  -1  13   1   15.38    1.90 
   0 -13  -1    3.37    0.90 
   0  13   1    3.10    1.07 
  -1 -13  -1    0.20    0.71 
  -1 -13  -1    1.61    0.85 
   1  13   1    0.66    1.09 
  -2 -13  -1    0.83    0.70 
  -2 -13  -1    0.27    0.77 
  -2 -13  -1    0.60    0.83 
   2  13   1    2.05    1.29 
  -3 -13  -1    8.43    1.37 
  -3 -13  -1    9.66    1.65 
  -3 -13  -1   11.64    1.41 
   3  13   1    6.04    1.39 
   6 -14  -1    7.63    1.35 
   6 -14  -1    8.15    1.47 
  -6  14   1   10.54    1.87 
   5 -14  -1   24.19    1.49 
   5 -14  -1   22.86    1.98 
  -5  14   1   21.91    2.18 
  -5  14   1   22.77    1.87 
   4 -14  -1    8.83    1.31 
   4 -14  -1   11.49    1.87 
  -4  14   1   12.10    1.44 
  -4  14   1   11.18    1.65 
   3 -14  -1    2.55    0.94 
   3 -14  -1    3.97    0.92 
  -3  14   1    3.09    1.07 
   2 -14  -1   -0.23    0.82 
   2 -14  -1   -0.10    0.66 
  -2  14   1   -0.54    0.85 
  -2  14   1    1.28    0.99 
   1 -14  -1    2.36    0.78 
   1 -14  -1    5.47    1.16 
  -1  14   1    1.17    0.97 
   0 -14  -1    0.26    0.96 
   0 -14  -1   -0.38    1.05 
   0  14   1    1.97    1.23 
  -1 -14  -1    1.18    1.00 
  -1 -14  -1    1.26    1.19 
   1  14   1    2.09    1.29 
  -1  15  -2    3.39    1.35 
   1 -15   2    0.43    1.04 
  -2  15  -2    1.31    1.24 
   2 -15   2    1.51    0.76 
   2 -15   2    3.18    1.30 
   3  14  -2    5.08    1.53 
  -3 -14   2    4.27    1.42 
  -3 -14   2    5.21    1.04 
   2  14  -2   -0.63    0.90 
  -2 -14   2    1.15    0.82 
  -2 -14   2   -1.01    0.94 
  -2 -14   2    0.97    1.16 
   1  14  -2    3.41    1.08 
  -1 -14   2    3.94    1.12 
  -1 -14   2    4.56    0.86 
  -1 -14   2    3.19    1.03 
   0  14  -2   13.89    1.93 
   0 -14   2   13.95    1.60 
   0 -14   2   10.93    1.58 
  -1  14  -2   15.58    1.73 
   1 -14   2   15.64    1.42 
   1 -14   2   20.12    1.86 
  -2  14  -2    3.62    1.01 
   2 -14   2    3.02    0.77 
   2 -14   2    4.57    1.08 
  -3  14  -2    0.31    0.99 
  -3  14  -2    2.31    0.85 
   3 -14   2    0.92    0.95 
   3 -14   2   -0.04    0.78 
  -4  14  -2    1.80    0.94 
  -4  14  -2    0.34    0.95 
   4 -14   2    1.19    1.15 
   4 -14   2   -0.19    0.72 
  -5  14  -2    1.10    1.13 
  -5  14  -2   -0.90    1.10 
   5 -14   2    2.22    1.16 
   5 -14   2    2.38    0.83 
   4  13  -2    3.30    1.35 
  -4 -13   2    3.77    1.05 
  -4 -13   2    1.92    1.00 
  -4 -13   2    2.86    1.15 
   3  13  -2    8.44    1.39 
  -3 -13   2    8.44    1.32 
  -3 -13   2    6.68    1.09 
  -3 -13   2    6.16    1.08 
   2  13  -2   11.52    1.74 
  -2 -13   2   12.97    1.44 
  -2 -13   2   11.52    1.40 
  -2 -13   2   10.44    1.59 
   1  13  -2    5.11    1.00 
  -1 -13   2   10.30    1.57 
  -1 -13   2    7.19    1.11 
  -1 -13   2    7.76    1.24 
   0  13  -2    5.70    1.15 
   0  13  -2    7.10    1.30 
   0 -13   2    7.32    1.08 
   0 -13   2    5.01    0.97 
   0 -13   2    7.44    1.24 
  -1  13  -2   10.41    1.50 
   1 -13   2   13.20    1.47 
   1 -13   2   12.21    1.20 
  -2  13  -2    8.83    1.28 
  -2  13  -2   10.82    1.41 
   2 -13   2   12.49    1.67 
   2 -13   2   10.41    1.15 
  -3  13  -2    4.43    0.99 
  -3  13  -2    4.80    1.10 
   3 -13   2    5.79    0.97 
   3 -13   2    4.05    0.89 
  -4  13  -2   -1.44    0.98 
  -4  13  -2   -0.01    0.91 
   4 -13   2   -1.08    0.52 
   4 -13   2    0.94    0.61 
  -5  13  -2   10.42    1.72 
   5 -13   2    8.65    1.37 
   5 -13   2   11.15    1.39 
   5 -13   2   10.96    1.24 
  -6  13  -2    5.97    1.18 
   6 -13   2    8.59    1.38 
   6 -13   2    4.50    0.95 
  -7  13  -2   11.57    2.05 
   7 -13   2   12.15    1.34 
   7 -13   2   11.82    1.71 
   6  12  -2    0.62    1.02 
  -6 -12   2   -0.22    0.69 
  -6 -12   2    0.12    0.77 
   5  12  -2    3.62    1.35 
  -5 -12   2    5.39    1.03 
  -5 -12   2    6.06    1.19 
  -5 -12   2    4.93    1.08 
   4  12  -2    0.00    0.81 
  -4 -12   2    4.09    1.10 
  -4 -12   2    1.41    0.69 
  -4 -12   2    2.44    0.77 
   3  12  -2   13.97    1.60 
  -3 -12   2   15.12    1.34 
  -3 -12   2   14.25    1.43 
  -3 -12   2   19.37    1.67 
   2  12  -2   27.77    1.96 
  -2 -12   2   25.53    1.65 
  -2 -12   2   25.40    1.49 
  -2 -12   2   30.23    1.84 
   1  12  -2    4.67    1.19 
   1  12  -2    5.84    1.04 
  -1 -12   2    6.08    0.80 
  -1 -12   2    3.28    0.76 
  -1 -12   2    5.42    1.01 
   0  12  -2    3.86    0.96 
   0  12  -2    5.13    0.96 
   0 -12   2    4.37    1.03 
   0 -12   2    6.30    0.76 
   0 -12   2    5.04    0.81 
  -1  12  -2    8.72    1.16 
  -1  12  -2    8.10    1.22 
   1 -12   2    8.85    1.26 
   1 -12   2    9.29    0.93 
  -2  12  -2   26.07    1.44 
  -2  12  -2   23.64    1.78 
  -2  12  -2   22.34    1.80 
   2 -12   2   25.63    1.42 
   2 -12   2   25.40    1.17 
   2 -12   2   23.21    1.52 
  -3  12  -2   25.91    1.68 
  -3  12  -2   24.99    1.73 
   3 -12   2   27.57    1.67 
  -4  12  -2    9.12    1.63 
   4 -12   2    9.64    1.10 
   4 -12   2    7.57    1.20 
   4 -12   2    9.92    1.45 
  -5  12  -2    0.23    1.30 
   5 -12   2    0.34    0.60 
   5 -12   2    0.42    0.83 
   5 -12   2    1.79    0.93 
  -6  12  -2   11.34    1.60 
   6 -12   2    9.69    1.49 
   6 -12   2    9.51    1.36 
   6 -12   2    8.32    1.15 
  -7  12  -2    9.30    1.52 
  -7  12  -2    9.27    1.49 
   7 -12   2    9.31    1.48 
   7 -12   2    8.66    1.46 
  -8  12  -2    4.88    1.16 
  -8  12  -2    5.05    1.16 
   8 -12   2    4.53    1.11 
   8 -12   2    7.06    1.12 
   7  11  -2    0.71    1.02 
   7  11  -2    0.78    0.87 
  -7 -11   2    0.36    0.84 
  -7 -11   2    0.46    0.86 
   6  11  -2   26.24    1.97 
  -6 -11   2   27.46    1.94 
  -6 -11   2   25.79    1.83 
   5  11  -2   11.68    1.76 
  -5 -11   2    9.84    1.45 
  -5 -11   2   11.08    1.49 
  -5 -11   2   10.97    1.29 
   4  11  -2   -1.09    0.57 
  -4 -11   2    1.18    0.83 
  -4 -11   2   -0.15    0.66 
  -4 -11   2   -0.67    0.60 
   3  11  -2   15.50    1.33 
   3  11  -2   14.69    1.65 
  -3 -11   2   13.10    1.35 
  -3 -11   2   13.34    1.29 
  -3 -11   2   14.92    1.46 
   2  11  -2    6.16    1.13 
   2  11  -2    9.57    1.01 
  -2 -11   2    5.70    0.86 
  -2 -11   2    8.30    0.96 
  -2 -11   2    8.38    1.29 
   1  11  -2    9.94    1.06 
   1  11  -2    6.31    1.14 
  -1 -11   2    9.24    1.30 
  -1 -11   2    7.87    0.97 
  -1 -11   2    8.20    1.09 
   0  11  -2   27.64    1.46 
   0  11  -2   28.14    1.30 
   0  11  -2   28.13    1.69 
   0 -11   2   29.86    1.32 
   0 -11   2   26.44    1.46 
  -1  11  -2    7.28    1.20 
  -1  11  -2    6.84    1.13 
  -1  11  -2    6.83    0.93 
   1 -11   2    6.91    1.04 
   1 -11   2    7.58    0.82 
  -2  11  -2    3.17    0.81 
  -2  11  -2    3.78    0.99 
  -2  11  -2    3.21    0.63 
   2 -11   2    2.98    0.60 
   2 -11   2    3.23    0.53 
  -3  11  -2   18.02    1.35 
  -3  11  -2   18.08    1.52 
   3 -11   2   18.22    1.22 
   3 -11   2   18.87    1.28 
   3 -11   2   20.37    0.95 
  -4  11  -2   29.79    1.69 
   4 -11   2   25.96    1.53 
   4 -11   2   28.55    1.27 
   4 -11   2   26.36    1.70 
  -5  11  -2    3.27    0.74 
  -5  11  -2    2.41    1.15 
   5 -11   2    2.51    0.83 
   5 -11   2    2.61    0.68 
   5 -11   2    3.66    0.63 
  -6  11  -2   -0.74    0.74 
  -6  11  -2    0.07    0.98 
   6 -11   2    0.09    0.81 
   6 -11   2    0.97    0.62 
   6 -11   2   -0.24    0.61 
  -7  11  -2   13.56    1.39 
   7 -11   2   14.44    1.27 
   7 -11   2   14.53    1.74 
  -8  11  -2   12.76    1.54 
   8 -11   2   12.35    1.63 
   8 -11   2   13.74    1.48 
   7  10  -2   19.94    1.97 
   7  10  -2   21.95    1.71 
  -7 -10   2   22.25    1.76 
  -7 -10   2   20.22    1.94 
   6  10  -2   22.46    1.75 
  -6 -10   2   19.77    1.74 
  -6 -10   2   22.67    1.69 
   5  10  -2   20.45    1.93 
  -5 -10   2   21.35    1.39 
  -5 -10   2   20.69    1.54 
  -5 -10   2   22.01    1.36 
   4  10  -2    8.40    1.04 
  -4 -10   2    8.55    1.50 
  -4 -10   2    9.45    1.14 
   3  10  -2    0.97    0.48 
   3  10  -2    0.05    0.81 
  -3 -10   2   -0.11    0.49 
  -3 -10   2   -0.31    0.78 
   2  10  -2    9.49    1.31 
   2  10  -2   11.10    0.93 
  -2 -10   2    8.61    1.00 
  -2 -10   2    9.45    0.88 
  -2 -10   2   12.79    1.23 
   1  10  -2   16.66    1.38 
   1  10  -2   16.09    1.05 
  -1 -10   2   14.63    1.12 
  -1 -10   2   14.41    1.07 
  -1 -10   2   17.58    1.26 
   0  10  -2   96.65    2.57 
   0  10  -2   97.87    2.43 
   0  10  -2   95.99    2.86 
   0 -10   2   97.05    2.50 
   0 -10   2   97.89    2.76 
   0 -10   2   99.58    2.86 
  -1  10  -2   20.12    1.13 
  -1  10  -2   20.21    1.28 
  -1  10  -2   21.12    1.21 
   1 -10   2   21.55    1.27 
   1 -10   2   19.76    1.15 
   1 -10   2   21.97    1.00 
   1 -10   2   23.16    1.86 
  -2  10  -2    0.19    0.45 
  -2  10  -2    0.20    0.56 
   2 -10   2    0.97    0.38 
   2 -10   2    0.74    0.47 
   2 -10   2    0.92    0.59 
  -3  10  -2    6.23    0.68 
  -3  10  -2    5.48    0.89 
  -3  10  -2    4.41    0.84 
   3 -10   2    3.66    0.67 
   3 -10   2    4.21    0.66 
   3 -10   2    5.95    0.64 
   3 -10   2    4.56    0.84 
  -4  10  -2   14.00    0.86 
  -4  10  -2   12.06    1.37 
  -4  10  -2   13.89    1.19 
   4 -10   2   12.05    1.20 
   4 -10   2   14.21    0.97 
   4 -10   2   13.18    0.79 
   4 -10   2   13.04    1.24 
  -5  10  -2    0.67    0.50 
   5 -10   2    0.58    0.47 
   5 -10   2    0.50    0.71 
   5 -10   2    0.07    0.38 
  -6  10  -2    0.47    0.69 
   6 -10   2    1.08    0.90 
   6 -10   2    1.36    0.72 
   6 -10   2    1.20    0.52 
   6 -10   2    1.10    0.74 
  -7  10  -2   11.90    1.30 
   7 -10   2   13.42    1.67 
   7 -10   2   12.09    1.59 
  -8  10  -2   10.54    1.46 
   8 -10   2   12.33    1.50 
   8 -10   2   13.40    1.33 
   8 -10   2   10.09    1.38 
  -9  10  -2   14.26    1.64 
   9 -10   2   17.38    1.78 
   9 -10   2   13.72    1.66 
   8   9  -2    5.38    1.29 
   8   9  -2    3.39    1.61 
  -8  -9   2    5.20    1.20 
  -8  -9   2    7.67    1.27 
   7   9  -2    0.84    1.00 
  -7  -9   2    0.62    0.90 
  -7  -9   2    1.36    0.91 
   6   9  -2    5.00    0.85 
  -6  -9   2    5.58    0.98 
  -6  -9   2    7.37    1.02 
   5   9  -2   14.60    1.86 
   5   9  -2   16.97    1.07 
  -5  -9   2   11.81    1.50 
  -5  -9   2   15.68    1.18 
  -5  -9   2   13.92    1.57 
   4   9  -2   11.03    1.03 
   4   9  -2   13.89    0.98 
   4   9  -2   10.07    1.10 
  -4  -9   2   12.09    1.23 
  -4  -9   2   13.85    1.25 
  -4  -9   2   10.67    1.21 
   3   9  -2    4.59    0.69 
   3   9  -2    2.51    0.58 
   3   9  -2    3.37    0.75 
  -3  -9   2    3.71    0.75 
  -3  -9   2    3.75    0.75 
  -3  -9   2    2.97    0.72 
   2   9  -2   -0.18    0.60 
   2   9  -2    0.64    0.63 
   2   9  -2    0.18    0.34 
  -2  -9   2    0.37    0.50 
  -2  -9   2    0.17    0.52 
  -2  -9   2   -0.22    0.52 
   1   9  -2  102.18    2.51 
   1   9  -2  104.09    2.91 
  -1  -9   2  100.47    2.71 
  -1  -9   2  101.73    2.57 
  -1  -9   2   99.07    2.70 
   0   9  -2   49.73    1.63 
   0   9  -2   52.47    1.69 
   0   9  -2   49.26    1.87 
   0  -9   2   49.21    1.55 
   0  -9   2   47.79    1.69 
   0  -9   2   47.96    1.81 
   0  -9   2   48.95    1.71 
  -1   9  -2    4.49    0.63 
  -1   9  -2    4.91    0.81 
  -1   9  -2    4.84    0.79 
   1  -9   2    5.49    0.88 
   1  -9   2    5.10    0.61 
   1  -9   2    5.83    0.96 
   1  -9   2    4.10    0.58 
  -2   9  -2    6.00    0.89 
  -2   9  -2    6.06    0.82 
   2  -9   2    5.57    0.71 
   2  -9   2    5.13    0.79 
   2  -9   2    6.04    0.61 
   2  -9   2    5.85    0.72 
   2  -9   2    5.96    0.95 
  -3   9  -2   16.65    0.90 
  -3   9  -2   18.22    1.20 
  -3   9  -2   18.00    1.18 
   3  -9   2   18.29    0.84 
   3  -9   2   18.90    1.25 
   3  -9   2   18.39    0.90 
   3  -9   2   16.28    1.11 
   3  -9   2   18.21    1.16 
  -4   9  -2   76.60    2.02 
  -4   9  -2   77.43    2.43 
   4  -9   2   78.69    2.38 
   4  -9   2   76.53    2.10 
   4  -9   2   80.74    2.34 
   4  -9   2   74.36    2.44 
   4  -9   2   76.80    1.96 
   4  -9   2   78.17    2.36 
  -5   9  -2   10.35    1.20 
  -5   9  -2   12.90    1.04 
   5  -9   2   13.17    1.09 
   5  -9   2   13.45    0.87 
   5  -9   2   13.36    1.05 
   5  -9   2   14.00    0.98 
  -6   9  -2   10.77    0.99 
  -6   9  -2   11.70    1.10 
   6  -9   2   12.58    1.39 
   6  -9   2   11.91    0.82 
   6  -9   2   12.18    1.12 
   6  -9   2   11.28    1.22 
   7  -9   2   -0.95    0.58 
   7  -9   2    0.87    0.87 
   7  -9   2   -0.49    0.81 
   7  -9   2    0.37    0.71 
  -8   9  -2    3.99    0.99 
   8  -9   2    3.45    0.90 
   8  -9   2    3.91    1.07 
  -9   9  -2    4.52    1.13 
   9  -9   2    2.90    1.01 
   9  -9   2    2.32    1.12 
 -10   9  -2    1.35    1.08 
  10  -9   2    3.04    1.45 
  10  -9   2    1.43    1.11 
   9   8  -2   10.46    1.79 
  -9  -8   2   12.84    1.68 
  -9  -8   2   13.53    1.97 
   8   8  -2   49.64    1.82 
   8   8  -2   44.76    2.19 
  -8  -8   2   47.85    1.98 
  -8  -8   2   45.00    2.35 
   7   8  -2    6.46    0.85 
   7   8  -2    6.40    1.23 
  -7  -8   2    5.81    1.11 
  -7  -8   2    5.14    0.88 
   6   8  -2   13.58    1.03 
   6   8  -2   12.41    1.34 
   6   8  -2   12.49    1.22 
  -6  -8   2   13.09    1.48 
  -6  -8   2   11.66    1.10 
   5   8  -2    0.62    0.69 
   5   8  -2    0.22    0.51 
   5   8  -2    0.19    0.55 
  -5  -8   2   -0.54    0.62 
  -5  -8   2    0.68    0.53 
  -5  -8   2   -0.41    0.53 
   4   8  -2   40.44    1.33 
   4   8  -2   38.05    1.60 
   4   8  -2   38.43    1.61 
  -4  -8   2   38.29    1.50 
  -4  -8   2   37.31    1.51 
  -4  -8   2   37.98    1.63 
   3   8  -2    5.65    0.91 
   3   8  -2    6.66    0.64 
   3   8  -2    6.94    0.77 
  -3  -8   2    5.54    0.81 
  -3  -8   2    6.30    0.86 
  -3  -8   2    5.74    0.70 
   2   8  -2   18.75    0.87 
   2   8  -2   18.30    1.11 
   2   8  -2   18.77    1.15 
  -2  -8   2   19.13    1.02 
  -2  -8   2   18.36    0.89 
  -2  -8   2   17.16    0.93 
   1   8  -2   42.76    1.31 
   1   8  -2   40.06    1.51 
  -1  -8   2   40.05    1.45 
  -1  -8   2   40.29    1.42 
  -1  -8   2   42.95    1.44 
   0   8  -2   25.15    1.08 
   0   8  -2   24.39    1.23 
   0  -8   2   23.22    1.12 
   0  -8   2   21.09    1.00 
   0  -8   2   24.06    0.93 
   0  -8   2   22.65    1.02 
  -1   8  -2   64.88    1.87 
  -1   8  -2   67.36    1.83 
   1  -8   2   64.44    1.89 
   1  -8   2   62.97    1.80 
   1  -8   2   63.59    1.94 
   1  -8   2   66.11    1.73 
  -2   8  -2   12.19    0.93 
  -2   8  -2   12.23    0.91 
   2  -8   2   12.82    0.98 
   2  -8   2   13.33    0.97 
   2  -8   2   12.75    0.91 
   2  -8   2   12.50    0.76 
   2  -8   2   13.52    0.75 
  -3   8  -2    2.67    0.55 
   3  -8   2    2.41    0.45 
   3  -8   2    2.53    0.46 
   3  -8   2    2.33    0.49 
   3  -8   2    2.66    0.46 
   3  -8   2    2.05    0.43 
   3  -8   2    2.35    0.53 
   3  -8   2    3.04    0.53 
  -4   8  -2   70.35    2.31 
   4  -8   2   68.85    1.98 
   4  -8   2   72.40    2.18 
   4  -8   2   72.75    2.09 
   4  -8   2   69.13    1.85 
   4  -8   2   68.56    2.16 
   4  -8   2   71.05    1.86 
   4  -8   2   69.15    1.79 
  -5   8  -2  154.25    3.95 
  -5   8  -2  154.50    3.58 
   5  -8   2  160.29    3.92 
   5  -8   2  158.03    3.64 
   5  -8   2  150.45    3.92 
   5  -8   2  157.17    3.67 
   5  -8   2  154.07    3.38 
  -6   8  -2   45.00    1.59 
  -6   8  -2   44.12    1.52 
   6  -8   2   43.78    1.54 
   6  -8   2   42.69    1.89 
   6  -8   2   42.11    1.32 
   6  -8   2   43.35    1.93 
   6  -8   2   46.04    1.52 
  -7   8  -2   12.18    1.19 
  -7   8  -2   13.17    1.08 
   7  -8   2   13.77    1.48 
   7  -8   2   13.37    1.07 
   7  -8   2   14.25    1.11 
   7  -8   2   14.19    1.50 
  -8   8  -2   -0.97    0.74 
  -8   8  -2    0.95    0.78 
   8  -8   2    1.55    0.98 
   8  -8   2    0.10    0.58 
   8  -8   2   -0.42    0.49 
   8  -8   2    0.38    0.49 
  -9   8  -2    2.62    0.86 
   9  -8   2    1.74    1.23 
   9  -8   2    2.14    0.91 
 -10   8  -2    6.51    1.19 
  10  -8   2    6.16    1.45 
  10  -8   2    5.85    1.24 
 -10  -7   2   -1.40    0.97 
   9   7  -2    3.48    1.28 
  -9  -7   2    1.51    1.00 
  -9  -7   2    2.70    0.97 
   8   7  -2   27.28    2.09 
   8   7  -2   23.83    1.87 
   8   7  -2   23.35    1.44 
  -8  -7   2   24.71    1.81 
  -8  -7   2   27.16    1.33 
   7   7  -2   21.70    1.22 
   7   7  -2   17.12    1.34 
   7   7  -2   18.11    1.28 
   7   7  -2   19.46    1.32 
  -7  -7   2   19.66    1.09 
  -7  -7   2   19.82    1.26 
  -7  -7   2   20.60    1.58 
   6   7  -2    0.04    0.45 
   6   7  -2    1.06    0.90 
   6   7  -2    0.06    0.53 
   6   7  -2   -0.27    0.45 
  -6  -7   2   -0.43    0.55 
  -6  -7   2   -0.36    0.39 
  -6  -7   2   -0.02    0.67 
   5   7  -2    0.13    0.52 
   5   7  -2    0.07    0.37 
   5   7  -2    0.75    0.37 
  -5  -7   2    0.28    0.42 
  -5  -7   2    0.29    0.42 
  -5  -7   2   -0.15    0.53 
  -5  -7   2    0.41    0.53 
   4   7  -2  122.97    2.71 
   4   7  -2  120.55    3.23 
   4   7  -2  118.69    3.02 
  -4  -7   2  118.99    2.96 
  -4  -7   2  121.14    3.14 
  -4  -7   2  117.36    2.90 
   3   7  -2  106.61    2.87 
   3   7  -2  107.79    2.72 
  -3  -7   2  109.07    2.78 
  -3  -7   2  106.99    2.69 
  -3  -7   2  111.35    2.74 
   2   7  -2   19.14    1.03 
   2   7  -2   20.45    0.82 
   2   7  -2   19.01    1.01 
  -2  -7   2   17.67    0.89 
  -2  -7   2   17.58    0.87 
  -2  -7   2   19.22    0.95 
   1   7  -2   20.45    1.04 
   1   7  -2   20.75    0.88 
  -1  -7   2   20.06    0.96 
  -1  -7   2   21.05    0.91 
  -1  -7   2   18.72    0.90 
   0   7  -2   53.78    1.50 
   0   7  -2   53.12    1.65 
   0  -7   2   52.30    1.60 
   0  -7   2   54.56    1.63 
   0  -7   2   55.65    1.53 
   0  -7   2   53.94    1.55 
  -1   7  -2  141.67    3.14 
   1  -7   2  142.95    3.29 
   1  -7   2  140.65    3.12 
   1  -7   2  139.54    3.20 
   1  -7   2  136.37    3.22 
  -2   7  -2   94.11    2.36 
   2  -7   2   91.09    2.34 
   2  -7   2   93.44    2.24 
   2  -7   2   94.14    2.38 
   2  -7   2   93.89    2.27 
   2  -7   2   90.07    2.40 
  -3   7  -2   99.43    2.62 
   3  -7   2  101.96    2.64 
   3  -7   2  104.00    2.40 
   3  -7   2  104.04    2.56 
   3  -7   2  103.99    2.54 
   3  -7   2  106.00    2.61 
   3  -7   2  104.17    2.37 
  -4   7  -2    0.40    0.44 
   4  -7   2    0.30    0.38 
   4  -7   2    0.77    0.39 
   4  -7   2    0.86    0.31 
   4  -7   2    0.40    0.52 
   4  -7   2    0.95    0.33 
   4  -7   2    0.70    0.48 
   4  -7   2    1.08    0.36 
  -5   7  -2    0.04    0.45 
  -5   7  -2    1.63    0.66 
   5  -7   2    1.02    0.38 
   5  -7   2    0.80    0.56 
   5  -7   2    0.04    0.39 
   5  -7   2    0.36    0.42 
   5  -7   2    0.66    0.47 
   5  -7   2    1.01    0.64 
  -6   7  -2    5.94    0.87 
  -6   7  -2    7.06    0.85 
  -6   7  -2    6.71    1.04 
   6  -7   2    5.96    0.79 
   6  -7   2    6.52    1.05 
   6  -7   2    8.06    0.77 
   6  -7   2    6.86    1.00 
  -7   7  -2   33.89    1.37 
  -7   7  -2   32.18    1.60 
   7  -7   2   30.52    1.95 
   7  -7   2   33.78    1.26 
   7  -7   2   34.32    1.31 
  -8   7  -2    5.94    0.95 
  -8   7  -2    6.35    1.07 
   8  -7   2    6.36    1.20 
   8  -7   2    5.98    0.73 
   8  -7   2    6.88    1.21 
   8  -7   2    8.82    1.23 
  -9   7  -2    2.62    0.77 
  -9   7  -2    2.60    1.00 
   9  -7   2    3.40    1.08 
   9  -7   2    3.65    1.04 
 -10   7  -2   10.41    1.64 
  10  -7   2    7.77    1.27 
  10   6  -2    1.05    0.79 
 -10  -6   2    3.51    1.35 
 -10  -6   2    1.72    1.00 
   9   6  -2   -1.06    0.71 
  -9  -6   2   -1.20    0.78 
  -9  -6   2    1.13    1.16 
   8   6  -2   10.61    1.11 
   8   6  -2   10.64    1.55 
   8   6  -2   12.69    1.05 
   8   6  -2   12.56    1.23 
  -8  -6   2   10.23    1.03 
  -8  -6   2    8.97    1.51 
  -8  -6   2   10.42    1.16 
   7   6  -2   26.31    1.30 
   7   6  -2   25.93    1.72 
   7   6  -2   25.80    1.26 
   7   6  -2   26.83    1.28 
  -7  -6   2   25.46    1.27 
  -7  -6   2   25.88    1.27 
   6   6  -2   -0.65    0.42 
   6   6  -2    0.00    0.50 
   6   6  -2    0.06    0.45 
   6   6  -2    0.33    0.39 
  -6  -6   2   -0.07    0.51 
  -6  -6   2   -0.30    0.45 
  -6  -6   2   -0.18    0.63 
   5   6  -2   11.54    0.93 
   5   6  -2   12.70    1.19 
   5   6  -2   11.60    0.75 
  -5  -6   2   11.27    0.71 
  -5  -6   2   11.55    0.84 
  -5  -6   2   11.20    0.87 
  -5  -6   2   10.67    1.08 
   4   6  -2   52.32    1.85 
   4   6  -2   55.52    1.87 
   4   6  -2   55.94    1.63 
  -4  -6   2   53.22    1.66 
  -4  -6   2   55.17    1.77 
  -4  -6   2   53.03    1.66 
   3   6  -2  110.28    2.36 
   3   6  -2  108.92    2.65 
   3   6  -2  106.34    2.71 
  -3  -6   2  109.92    2.71 
  -3  -6   2  104.12    2.54 
  -3  -6   2  108.07    2.60 
   2   6  -2  118.47    2.80 
   2   6  -2  118.27    2.49 
   2   6  -2  116.03    2.80 
  -2  -6   2  121.19    2.77 
  -2  -6   2  115.71    2.72 
  -2  -6   2  116.86    2.72 
   1   6  -2  101.81    2.50 
   1   6  -2  103.56    2.25 
  -1  -6   2  101.88    2.42 
  -1  -6   2  105.16    2.40 
  -1  -6   2  102.60    2.43 
   0   6  -2    8.06    0.54 
   0   6  -2    7.23    0.68 
   0  -6   2    8.16    0.61 
   0  -6   2    7.66    0.62 
   0  -6   2    6.63    0.60 
  -1   6  -2  185.46    4.32 
   1  -6   2  206.28    4.25 
   1  -6   2  208.02    4.22 
   1  -6   2  203.53    4.25 
   1  -6   2  204.37    4.14 
  -2   6  -2   37.67    1.23 
   2  -6   2   38.08    1.28 
   2  -6   2   38.89    1.24 
   2  -6   2   39.73    1.19 
   2  -6   2   38.66    1.18 
   2  -6   2   38.06    1.23 
  -3   6  -2  102.16    2.58 
   3  -6   2  107.76    2.56 
   3  -6   2  103.81    2.48 
   3  -6   2  102.52    2.60 
   3  -6   2  106.14    2.47 
   3  -6   2  104.79    2.38 
   3  -6   2  103.64    2.50 
  -4   6  -2   42.38    1.56 
   4  -6   2   42.54    1.37 
   4  -6   2   44.67    1.59 
   4  -6   2   43.63    1.33 
   4  -6   2   43.34    1.27 
   4  -6   2   45.05    1.40 
   4  -6   2   42.83    1.51 
  -5   6  -2    6.20    0.65 
   5  -6   2    5.45    0.83 
   5  -6   2    4.99    0.59 
   5  -6   2    5.28    0.65 
   5  -6   2    3.69    0.68 
   5  -6   2    4.25    0.65 
  -6   6  -2   12.00    0.90 
   6  -6   2   10.63    0.96 
   6  -6   2   12.88    0.83 
   6  -6   2   12.32    1.08 
   6  -6   2   12.74    0.81 
  -7   6  -2   42.07    1.70 
  -7   6  -2   45.56    1.64 
   7  -6   2   46.57    1.41 
   7  -6   2   42.68    1.98 
   7  -6   2   45.79    2.07 
   7  -6   2   46.58    1.38 
  -8   6  -2   19.94    1.41 
  -8   6  -2   23.79    1.65 
   8  -6   2   22.54    1.74 
   8  -6   2   25.44    1.76 
  -9   6  -2    2.16    0.89 
  -9   6  -2    2.49    0.78 
   9  -6   2    2.61    1.06 
 -10   6  -2    2.68    1.06 
 -10   6  -2    3.03    1.10 
  10  -6   2    5.17    1.41 
  10  -6   2    3.58    1.15 
  10   5  -2   11.07    1.80 
 -10  -5   2    5.52    1.28 
 -10  -5   2    7.94    1.33 
   9   5  -2    1.90    0.95 
   9   5  -2    2.19    1.15 
  -9  -5   2    2.57    0.94 
  -9  -5   2    2.06    0.72 
   8   5  -2   10.30    0.98 
   8   5  -2   11.91    1.03 
   8   5  -2   12.48    0.94 
   8   5  -2   12.62    1.57 
   8   5  -2   10.87    1.22 
  -8  -5   2   13.80    1.56 
  -8  -5   2    9.94    0.99 
  -8  -5   2    9.39    1.03 
   7   5  -2   37.17    1.75 
   7   5  -2   40.18    1.47 
   7   5  -2   38.89    1.43 
   7   5  -2   38.28    1.39 
   7   5  -2   38.37    1.42 
  -7  -5   2   43.13    2.00 
  -7  -5   2   39.86    1.46 
  -7  -5   2   38.76    1.49 
   6   5  -2   14.68    0.94 
   6   5  -2   15.24    0.94 
   6   5  -2   13.20    1.07 
   6   5  -2   14.60    0.91 
  -6  -5   2   13.37    0.86 
  -6  -5   2   13.37    0.91 
  -6  -5   2   16.25    1.26 
   5   5  -2   59.77    1.60 
   5   5  -2   59.63    1.94 
   5   5  -2   60.08    1.76 
  -5  -5   2   58.80    1.69 
  -5  -5   2   59.70    1.90 
  -5  -5   2   60.02    1.62 
   4   5  -2    1.35    0.32 
   4   5  -2    1.93    0.58 
   4   5  -2    0.72    0.39 
  -4  -5   2    1.51    0.38 
  -4  -5   2    0.81    0.36 
  -4  -5   2    1.28    0.50 
   3   5  -2    1.96    0.35 
   3   5  -2    1.26    0.26 
   3   5  -2    0.89    0.46 
  -3  -5   2    1.96    0.44 
  -3  -5   2    2.09    0.46 
  -3  -5   2    1.38    0.37 
   2   5  -2   81.94    1.78 
   2   5  -2   84.85    2.06 
  -2  -5   2   81.54    1.98 
  -2  -5   2   85.43    2.09 
  -2  -5   2   81.76    2.00 
   1   5  -2  183.45    3.56 
  -1  -5   2  181.67    3.76 
  -1  -5   2  179.84    3.74 
   0   5  -2  117.47    2.47 
   0  -5   2  117.41    2.62 
  -1   5  -2  115.34    2.54 
   1  -5   2  117.71    2.60 
  -2   5  -2    2.84    0.47 
   2  -5   2    3.69    0.60 
   2  -5   2    2.90    0.39 
   3  -5   2   69.42    1.70 
   3  -5   2   71.22    1.75 
   3  -5   2   68.68    1.91 
   3  -5   2   67.68    1.87 
   4  -5   2  110.18    2.78 
   4  -5   2  116.37    2.62 
   4  -5   2  111.95    2.72 
   4  -5   2  109.71    2.77 
   4  -5   2  117.70    2.57 
   4  -5   2  116.65    2.56 
  -5   5  -2   80.54    2.05 
   5  -5   2   75.53    2.26 
   5  -5   2   80.25    2.16 
   5  -5   2   77.86    2.20 
   5  -5   2   82.35    2.30 
   5  -5   2   85.08    2.17 
   5  -5   2   81.83    1.95 
  -6   5  -2    0.61    0.43 
   6  -5   2   -0.55    0.29 
   6  -5   2   -0.11    0.55 
   6  -5   2    0.14    0.41 
   6  -5   2    0.12    0.31 
   6  -5   2    0.67    0.51 
   6  -5   2   -0.16    0.42 
  -7   5  -2   37.69    1.57 
  -7   5  -2   37.27    1.60 
   7  -5   2   38.79    1.89 
   7  -5   2   38.83    1.17 
   7  -5   2   33.34    1.69 
   7  -5   2   34.13    1.73 
  -8   5  -2   25.41    1.39 
  -8   5  -2   26.00    1.64 
   8  -5   2   25.69    1.69 
   8  -5   2   23.37    1.56 
  -9   5  -2    3.04    0.82 
  -9   5  -2    0.47    0.74 
   9  -5   2    0.62    0.84 
   9  -5   2    3.03    1.12 
 -10   5  -2    2.36    0.92 
 -10   5  -2    2.55    1.09 
  10  -5   2    3.69    1.13 
  10  -5   2    4.59    1.32 
 -11   5  -2    3.06    1.29 
 -11   5  -2    2.88    1.18 
  11  -5   2    2.51    1.27 
  11  -5   2    4.90    1.41 
  11   4  -2   14.60    1.93 
 -11  -4   2    8.82    1.40 
 -11  -4   2   12.94    1.59 
  10   4  -2    8.79    1.39 
  10   4  -2    8.53    1.60 
 -10  -4   2   12.24    1.83 
 -10  -4   2   10.98    1.41 
   9   4  -2    9.44    1.35 
   9   4  -2    5.84    1.00 
  -9  -4   2    6.67    1.12 
  -9  -4   2    6.74    1.19 
   8   4  -2    0.37    0.42 
   8   4  -2    0.67    0.45 
   8   4  -2    0.83    0.46 
   8   4  -2    0.20    0.46 
  -8  -4   2   -1.19    0.59 
  -8  -4   2    0.44    0.42 
   7   4  -2   23.87    1.05 
   7   4  -2   21.58    1.35 
   7   4  -2   24.55    1.13 
   7   4  -2   23.11    1.11 
   7   4  -2   22.98    1.04 
  -7  -4   2   18.57    1.20 
  -7  -4   2   23.57    1.23 
  -7  -4   2   25.74    1.06 
   6   4  -2    5.71    0.88 
   6   4  -2    4.18    0.68 
   6   4  -2    5.21    0.67 
   6   4  -2    5.74    0.67 
  -6  -4   2    5.38    0.64 
  -6  -4   2    5.44    0.74 
  -6  -4   2    4.15    0.63 
   5   4  -2   76.56    1.96 
   5   4  -2   71.89    2.03 
   5   4  -2   74.87    2.15 
   5   4  -2   80.16    1.98 
  -5  -4   2   79.64    1.96 
  -5  -4   2   76.71    1.90 
  -5  -4   2   74.09    2.11 
   4   4  -2    2.14    0.49 
   4   4  -2    1.98    0.28 
   4   4  -2    1.95    0.38 
  -4  -4   2    2.22    0.44 
  -4  -4   2    2.75    0.53 
  -4  -4   2    1.75    0.33 
   3   4  -2  133.05    2.92 
   3   4  -2  138.49    2.71 
  -3  -4   2  134.29    3.02 
   2   4  -2  153.96    3.23 
   2   4  -2  153.76    2.97 
   1   4  -2   90.82    2.10 
   1   4  -2   93.01    1.87 
   0   4  -2   93.50    1.96 
  -1   4  -2   -0.11    0.16 
   2  -4   2   10.85    0.53 
   2  -4   2   10.75    0.57 
   3  -4   2  188.87    3.93 
   3  -4   2  196.39    3.86 
   3  -4   2  170.58    3.86 
   3  -4   2  189.34    3.97 
   3  -4   2  188.57    3.93 
  -4   4  -2  198.95    3.94 
   4  -4   2  168.71    4.21 
   4  -4   2  189.89    4.11 
   4  -4   2  193.92    4.13 
   4  -4   2  187.66    4.12 
   4  -4   2  191.33    3.97 
  -5   4  -2    5.57    0.62 
   5  -4   2    4.64    0.75 
   5  -4   2    5.53    0.81 
   5  -4   2    5.41    0.55 
   5  -4   2    5.19    0.70 
  -6   4  -2   58.22    1.81 
   6  -4   2   59.04    1.99 
   6  -4   2   55.83    1.77 
   6  -4   2   64.32    2.10 
   6  -4   2   56.40    1.91 
  -7   4  -2   13.01    0.95 
  -7   4  -2   14.88    1.16 
   7  -4   2    9.87    1.19 
   7  -4   2   11.77    0.60 
   7  -4   2   10.43    0.95 
   7  -4   2   15.34    1.38 
  -8   4  -2   68.07    2.20 
  -8   4  -2   61.73    2.27 
   8  -4   2   56.54    3.34 
   8  -4   2   60.41    2.27 
  -9   4  -2    2.22    0.75 
   9  -4   2    4.84    1.18 
   9  -4   2    1.96    0.81 
 -10   4  -2    0.66    0.91 
 -10   4  -2    0.78    0.88 
  10  -4   2    2.06    1.24 
  10  -4   2   -1.04    0.76 
 -11   4  -2    7.47    1.39 
 -11   4  -2    6.42    1.22 
  11  -4   2    7.14    1.37 
  11  -4   2    7.75    1.62 
  11   3  -2    1.87    1.04 
  11   3  -2   -0.66    1.15 
 -11  -3   2    1.93    0.96 
 -11  -3   2    3.35    1.37 
  10   3  -2    3.29    1.07 
  10   3  -2    4.65    0.99 
 -10  -3   2    2.09    0.90 
 -10  -3   2    4.16    1.07 
   9   3  -2   20.26    1.67 
   9   3  -2   22.27    1.59 
   9   3  -2   23.61    1.32 
  -9  -3   2   22.53    1.79 
  -9  -3   2   21.86    1.30 
   8   3  -2   -0.02    0.61 
   8   3  -2   -0.16    0.37 
   8   3  -2   -0.47    0.53 
   8   3  -2    0.08    0.57 
  -8  -3   2    1.70    0.84 
  -8  -3   2    0.10    0.44 
  -8  -3   2   -0.48    0.50 
   7   3  -2    6.10    0.63 
   7   3  -2    5.48    0.80 
   7   3  -2    4.77    0.81 
   7   3  -2    5.14    0.82 
   7   3  -2    5.60    0.67 
  -7  -3   2    6.15    0.75 
  -7  -3   2    5.84    0.69 
  -7  -3   2    6.34    0.91 
   6   3  -2  156.18    3.56 
   6   3  -2  151.25    3.68 
   6   3  -2  156.18    3.38 
   6   3  -2  153.71    3.33 
   6   3  -2  156.01    3.37 
  -6  -3   2  150.71    3.44 
  -6  -3   2  154.57    3.25 
  -6  -3   2  150.93    3.62 
   5   3  -2   58.06    2.02 
   5   3  -2   67.90    1.73 
   5   3  -2   68.95    1.97 
  -5  -3   2   68.50    1.75 
  -5  -3   2   67.01    1.94 
   4   3  -2  309.91    6.00 
   4   3  -2  316.30    6.16 
   4   3  -2  326.79    6.34 
  -4  -3   2  314.05    6.29 
   3   3  -2    7.29    0.36 
   3   3  -2    6.78    0.62 
   2   3  -2    8.76    0.30 
   2   3  -2    8.60    0.53 
  -2  -3   2    8.95    0.34 
   1   3  -2   81.52    1.58 
   1   3  -2   79.81    1.81 
  -1  -3   2   81.44    1.58 
   0   3  -2   44.71    1.01 
   1  -3   2    7.92    0.42 
   1  -3   2    8.08    0.41 
   2  -3   2   13.60    0.52 
   2  -3   2   12.85    0.59 
   3  -3   2  192.57    4.07 
   3  -3   2  199.03    3.81 
   3  -3   2  199.13    4.13 
  -4   3  -2   68.03    1.74 
   4  -3   2   67.85    1.84 
   4  -3   2   65.90    1.46 
   4  -3   2   63.10    1.78 
   4  -3   2   61.85    1.76 
   4  -3   2   65.42    1.75 
  -5   3  -2   41.33    1.35 
   5  -3   2   41.97    1.02 
   5  -3   2   40.47    1.48 
   5  -3   2   41.26    1.55 
   5  -3   2   41.01    1.44 
   5  -3   2   40.02    1.39 
  -6   3  -2   51.58    1.61 
   6  -3   2   47.66    1.69 
   6  -3   2   52.03    1.17 
   6  -3   2   53.78    1.86 
   6  -3   2   49.66    1.89 
   6  -3   2   49.30    1.64 
  -7   3  -2   17.11    1.21 
  -7   3  -2   19.61    1.25 
   7  -3   2   21.44    1.42 
   7  -3   2   16.92    1.27 
   7  -3   2   17.57    1.39 
  -8   3  -2   27.83    1.63 
   8  -3   2   21.10    2.26 
  -9   3  -2   13.36    1.21 
  -9   3  -2   16.29    1.49 
   9  -3   2   14.13    1.25 
   9  -3   2   11.31    1.27 
 -10   3  -2    9.74    1.33 
 -10   3  -2    6.88    1.09 
  10  -3   2   11.46    1.89 
 -11   3  -2    3.75    1.07 
 -11   3  -2    3.10    1.17 
  11  -3   2    2.70    1.33 
  11  -3   2    1.56    0.80 
  11   2  -2   -2.04    1.13 
  11   2  -2    1.62    1.14 
 -11  -2   2    0.76    1.06 
 -11  -2   2   -0.54    1.05 
  10   2  -2   12.80    1.19 
  10   2  -2    9.89    1.37 
 -10  -2   2   11.85    1.65 
 -10  -2   2   10.98    1.28 
   9   2  -2   31.46    1.98 
   9   2  -2   34.23    1.25 
   9   2  -2   38.33    1.64 
   9   2  -2   35.11    1.73 
  -9  -2   2   35.60    1.78 
   8   2  -2    4.86    0.60 
   8   2  -2    3.72    0.76 
   8   2  -2    4.70    0.66 
   8   2  -2    4.67    0.79 
   8   2  -2    5.02    0.78 
  -8  -2   2    5.01    0.77 
   7   2  -2   15.43    0.84 
   7   2  -2   15.90    0.82 
   7   2  -2   16.24    0.98 
   7   2  -2   13.26    0.94 
   7   2  -2   17.19    0.82 
  -7  -2   2   15.51    0.97 
  -7  -2   2   15.54    1.09 
   6   2  -2  102.97    2.70 
   6   2  -2  103.36    2.46 
   6   2  -2  107.02    2.48 
   6   2  -2  104.04    2.42 
  -6  -2   2  102.39    2.65 
  -6  -2   2  104.84    2.56 
   5   2  -2  102.77    2.60 
   5   2  -2  110.86    2.46 
   5   2  -2  110.67    2.65 
  -5  -2   2  112.91    2.54 
  -5  -2   2  107.04    2.58 
   4   2  -2  633.61   12.26 
   4   2  -2  643.69   11.97 
  -4  -2   2  676.30   12.23 
   3   2  -2  137.89    2.72 
   3   2  -2  142.82    2.90 
   2   2  -2    0.84    0.13 
   2   2  -2    0.81    0.19 
   1   2  -2  159.40    3.13 
   1  -2   2  292.31    5.51 
  -2   2  -2   17.52    0.51 
   2  -2   2   16.30    0.67 
   2  -2   2   16.93    0.49 
  -3   2  -2   76.56    1.53 
   3  -2   2   74.32    1.87 
   3  -2   2   72.09    1.51 
  -4   2  -2   53.19    1.11 
  -4   2  -2   51.94    1.48 
   4  -2   2   50.08    1.51 
   4  -2   2   49.47    1.07 
   4  -2   2   48.49    1.48 
   4  -2   2   48.61    1.52 
   4  -2   2   49.86    1.46 
  -5   2  -2  146.12    2.69 
  -5   2  -2  142.04    3.21 
   5  -2   2  139.25    3.32 
   5  -2   2  141.85    2.68 
   5  -2   2  138.30    3.19 
   5  -2   2  146.01    3.39 
   5  -2   2  135.58    3.37 
  -6   2  -2    5.03    0.67 
   6  -2   2    3.55    0.59 
   6  -2   2    2.89    0.52 
   6  -2   2    3.68    0.66 
   6  -2   2    3.95    0.65 
  -7   2  -2    2.04    0.53 
  -7   2  -2    1.35    0.69 
   7  -2   2    2.92    0.80 
   7  -2   2    0.80    0.51 
   7  -2   2    1.44    0.66 
  -8   2  -2    8.45    1.11 
   8  -2   2   11.11    1.37 
  -9   2  -2   30.68    1.80 
  -9   2  -2   32.65    1.65 
   9  -2   2   33.98    2.08 
   9  -2   2   32.21    1.90 
 -10   2  -2   16.83    1.69 
 -10   2  -2   17.26    1.46 
  10  -2   2   21.13    2.02 
  10  -2   2   11.87    1.16 
 -11   2  -2   13.07    1.49 
 -11   2  -2   16.39    1.79 
  11  -2   2   17.32    1.89 
  11  -2   2   10.86    1.64 
  12   1  -2   13.78    2.08 
  12   1  -2    9.53    1.81 
 -12  -1   2   17.97    2.30 
 -12  -1   2   13.59    1.80 
  11   1  -2    2.34    0.93 
  11   1  -2    0.74    0.88 
 -11  -1   2    1.67    0.72 
 -11  -1   2    3.08    0.92 
  10   1  -2   18.62    1.40 
  10   1  -2   17.55    1.70 
 -10  -1   2   15.06    1.57 
 -10  -1   2   15.66    1.70 
   9   1  -2   44.81    1.76 
   9   1  -2   41.95    2.28 
   9   1  -2   47.03    1.83 
   9   1  -2   45.89    1.41 
   9   1  -2   45.65    1.94 
  -9  -1   2   46.86    1.96 
  -9  -1   2   47.00    2.00 
   8   1  -2   98.24    2.36 
   8   1  -2   95.45    2.30 
   8   1  -2   99.05    2.68 
   8   1  -2   97.04    2.52 
   8   1  -2   99.17    2.95 
  -8  -1   2   92.67    2.66 
  -8  -1   2  101.32    2.85 
   7   1  -2   79.02    2.12 
   7   1  -2   73.64    2.10 
   7   1  -2   76.34    2.09 
   7   1  -2   74.94    1.91 
   7   1  -2   74.52    2.34 
  -7  -1   2   76.77    2.22 
  -7  -1   2   77.47    2.19 
   6   1  -2   25.30    1.22 
   6   1  -2   26.38    1.05 
   6   1  -2   25.60    0.99 
   6   1  -2   26.23    0.98 
  -6  -1   2   25.71    1.14 
  -6  -1   2   24.94    1.05 
   5   1  -2    5.28    0.54 
   5   1  -2    6.33    0.56 
  -5  -1   2    5.69    0.52 
  -5  -1   2    5.92    0.62 
   4   1  -2  323.83    6.21 
   4   1  -2  324.71    6.15 
   3   1  -2   49.55    1.13 
   3   1  -2   51.74    1.24 
   2   1  -2  124.04    2.45 
  -2  -1   2  118.00    2.27 
   1   1  -2    0.34    0.16 
  -1  -1   2    0.41    0.08 
   0   1  -2  106.89    2.08 
   0   1  -2  105.01    2.09 
   0  -1   2  106.03    2.07 
   0  -1   2  109.86    2.09 
  -1   1  -2   51.94    1.07 
   1  -1   2   52.73    1.21 
  -2   1  -2  118.19    2.19 
  -2   1  -2  115.65    2.19 
   2  -1   2  119.37    2.51 
   3  -1   2  180.54    3.77 
  -4   1  -2   14.01    0.73 
   4  -1   2   15.02    0.87 
   4  -1   2   14.61    0.80 
   4  -1   2   15.05    0.83 
   4  -1   2   13.66    0.79 
  -5   1  -2  115.42    2.75 
   5  -1   2  112.13    2.68 
   5  -1   2  115.32    2.84 
   5  -1   2  113.77    2.80 
   5  -1   2  110.92    2.87 
  -6   1  -2   96.84    2.56 
   6  -1   2   93.75    2.60 
   6  -1   2   92.49    2.68 
   6  -1   2   87.01    2.38 
   6  -1   2   89.11    2.50 
  -7   1  -2   98.80    2.77 
  -7   1  -2   96.40    2.66 
   7  -1   2   93.12    2.87 
   7  -1   2   91.40    2.81 
   7  -1   2   90.28    2.70 
  -8   1  -2    1.51    0.76 
  -8   1  -2    1.54    1.29 
  -9   1  -2   -0.43    0.72 
  -9   1  -2    0.89    0.86 
   9  -1   2    0.58    0.76 
   9  -1   2    1.94    0.90 
 -10   1  -2    0.72    1.01 
 -10   1  -2    0.30    0.79 
  10  -1   2   -1.05    0.82 
  10  -1   2   -0.44    1.06 
 -11   1  -2   20.08    1.73 
 -11   1  -2   16.94    1.96 
  11  -1   2   18.71    2.30 
  11  -1   2   18.15    2.34 
  12   0  -2   15.67    1.94 
  12   0  -2   23.14    2.34 
 -12   0   2   17.09    1.91 
 -12   0   2   20.73    2.04 
  11   0  -2    6.22    1.11 
 -11   0   2    5.52    1.11 
 -11   0   2    4.76    1.21 
  10   0  -2    1.08    0.89 
  10   0  -2   -0.41    1.05 
 -10   0   2   -0.38    0.63 
 -10   0   2    0.34    0.81 
   9   0  -2    7.03    1.25 
   9   0  -2    6.65    0.67 
   9   0  -2    8.47    0.94 
   9   0  -2    7.50    0.64 
  -9   0   2    7.13    1.02 
  -9   0   2    6.57    1.06 
   8   0  -2   51.14    1.76 
   8   0  -2   47.95    1.44 
   8   0  -2   50.28    1.85 
   8   0  -2   48.33    1.46 
   8   0  -2   48.86    1.95 
  -8   0   2   48.12    1.79 
  -8   0   2   49.45    1.79 
   7   0  -2  138.98    3.48 
   7   0  -2  140.24    3.06 
   7   0  -2  140.99    3.28 
   7   0  -2  138.84    3.24 
  -7   0   2  139.06    3.33 
  -7   0   2  141.64    3.29 
   6   0  -2  134.18    3.25 
   6   0  -2  137.54    3.10 
   6   0  -2  135.62    3.06 
   6   0  -2  137.72    2.98 
  -6   0   2  140.94    3.14 
  -6   0   2  137.41    3.15 
   5   0  -2    7.90    0.66 
   5   0  -2    7.40    0.56 
  -5   0   2    8.41    0.62 
   4   0  -2  129.37    2.75 
   4   0  -2  135.94    2.79 
   3   0  -2   15.38    0.58 
   2   0  -2   35.48    0.92 
  -2   0   2   36.72    0.85 
   1   0  -2   44.02    1.04 
   1   0  -2   49.29    1.01 
  -1   0   2   45.67    1.06 
  -1   0   2   47.25    1.00 
   0   0  -2  129.03    2.47 
   0   0   2  132.34    2.47 
   0   0   2  126.65    2.52 
  -1   0  -2  182.52    3.40 
   1   0   2  183.75    3.40 
   1   0   2  190.60    3.64 
   2   0   2  364.60    6.94 
   3   0   2  155.21    3.32 
  -4   0  -2   40.04    1.25 
   4   0   2   35.44    1.11 
   4   0   2   37.88    1.31 
   4   0   2   36.60    1.33 
   4   0   2   38.54    1.25 
  -5   0  -2   13.40    0.96 
   5   0   2   11.30    0.90 
   5   0   2   13.13    0.84 
   5   0   2   13.78    0.94 
   5   0   2   12.02    0.81 
  -6   0  -2    3.70    0.69 
   6   0   2    2.04    0.53 
   6   0   2    2.77    0.58 
   6   0   2    2.86    0.60 
  -7   0  -2  115.39    3.02 
  -7   0  -2  119.33    3.21 
   7   0   2  119.68    3.20 
   7   0   2  116.87    3.35 
   7   0   2  112.28    3.21 
  -8   0  -2   34.43    2.41 
   8   0   2   39.68    1.93 
   8   0   2   39.71    2.05 
  -9   0  -2    1.00    0.87 
  -9   0  -2    0.34    0.82 
   9   0   2    0.99    0.79 
   9   0   2    1.35    0.86 
 -10   0  -2   -0.37    0.89 
 -10   0  -2    0.22    0.87 
  10   0   2   -0.24    0.77 
  10   0   2   -1.07    0.78 
  12  -1  -2   20.96    2.52 
  12  -1  -2   20.05    1.72 
 -12   1   2   18.93    1.87 
  11  -1  -2   12.68    1.62 
  11  -1  -2    9.33    1.46 
 -11   1   2   12.02    1.77 
  10  -1  -2    6.92    1.26 
  10  -1  -2    4.80    1.08 
 -10   1   2    5.37    0.95 
 -10   1   2    4.58    0.96 
   9  -1  -2    1.64    0.40 
   9  -1  -2    0.89    0.77 
   9  -1  -2    1.47    0.42 
   9  -1  -2    0.91    0.78 
  -9   1   2    1.61    0.67 
  -9   1   2    1.13    0.68 
   8  -1  -2    2.08    0.53 
   8  -1  -2    2.39    0.53 
   8  -1  -2    3.25    0.54 
   8  -1  -2    1.73    0.47 
   8  -1  -2    2.55    0.75 
  -8   1   2    2.03    0.50 
  -8   1   2    1.52    0.60 
   7  -1  -2   35.37    1.50 
   7  -1  -2   36.25    1.36 
   7  -1  -2   36.51    1.32 
   7  -1  -2   36.06    1.19 
   7  -1  -2   35.44    1.20 
  -7   1   2   36.97    1.40 
  -7   1   2   35.89    1.39 
   6  -1  -2   58.95    1.69 
   6  -1  -2   58.51    1.66 
   6  -1  -2   61.57    1.85 
   6  -1  -2   59.10    1.57 
  -6   1   2   58.95    1.73 
  -6   1   2   60.17    1.68 
   5  -1  -2   30.70    1.08 
   5  -1  -2   30.33    1.09 
   5  -1  -2   29.27    0.99 
   5  -1  -2   30.61    1.13 
  -5   1   2   29.68    1.05 
   4  -1  -2  160.06    3.29 
   3  -1  -2    7.13    0.45 
  -3   1   2    6.79    0.40 
   2  -1  -2   34.84    0.94 
  -2   1   2   38.20    0.94 
  -1   1   2  561.28   10.27 
   0  -1  -2    4.59    0.29 
   0   1   2    5.56    0.31 
   0   1   2    4.85    0.35 
  -1  -1  -2  103.67    2.07 
   1   1   2  108.45    2.30 
   1   1   2  114.03    2.10 
  -2  -1  -2   90.60    1.70 
   2   1   2   90.66    1.71 
   2   1   2   87.99    2.06 
  -3  -1  -2  102.43    2.41 
   3   1   2  105.70    2.52 
  -4  -1  -2   56.33    1.66 
   4   1   2   55.64    1.62 
   4   1   2   56.01    1.73 
   4   1   2   56.64    1.55 
   4   1   2   54.15    1.63 
  -5  -1  -2  126.12    3.09 
   5   1   2  123.17    3.00 
   5   1   2  126.76    3.10 
   5   1   2  126.33    3.21 
   5   1   2  126.23    2.94 
  -6  -1  -2    1.22    0.40 
  -6  -1  -2    0.24    0.48 
   6   1   2    2.05    0.62 
   6   1   2    1.33    0.61 
   6   1   2    0.56    0.55 
  -7  -1  -2   27.72    1.07 
  -7  -1  -2   27.56    1.31 
  -7  -1  -2   26.78    1.46 
   7   1   2   29.70    1.67 
   7   1   2   27.53    1.51 
   7   1   2   27.09    1.50 
  -8  -1  -2   21.45    1.53 
   8   1   2   25.21    1.73 
   8   1   2   23.92    1.55 
  -9  -1  -2    1.56    0.84 
  -9  -1  -2    1.33    0.72 
   9   1   2    2.12    0.98 
   9   1   2    2.30    0.73 
 -10  -1  -2    9.79    1.22 
 -10  -1  -2   11.64    1.71 
  10   1   2   11.02    1.84 
  10   1   2    8.14    1.51 
  12  -2  -2    1.34    1.06 
 -12   2   2    2.13    0.82 
 -12   2   2   -0.22    1.01 
  11  -2  -2    4.21    1.14 
  11  -2  -2    4.67    1.22 
 -11   2   2    5.67    1.17 
 -11   2   2    4.14    1.11 
  10  -2  -2    9.34    1.12 
  10  -2  -2   11.80    1.74 
 -10   2   2    9.10    1.21 
 -10   2   2    8.61    1.17 
   9  -2  -2    4.85    0.70 
   9  -2  -2    3.89    0.58 
   9  -2  -2    4.46    0.81 
  -9   2   2    3.99    0.80 
  -9   2   2    6.06    0.92 
   8  -2  -2   18.63    0.91 
   8  -2  -2   18.58    1.31 
   8  -2  -2   16.21    1.11 
   8  -2  -2   18.52    0.82 
  -8   2   2   17.45    1.23 
  -8   2   2   18.52    1.17 
   7  -2  -2   16.51    1.09 
   7  -2  -2   15.27    0.73 
   7  -2  -2   12.37    0.90 
   7  -2  -2   14.57    0.79 
  -7   2   2   14.43    0.94 
  -7   2   2   14.91    1.01 
   6  -2  -2   27.63    1.12 
   6  -2  -2   28.90    1.00 
   6  -2  -2   25.34    1.07 
  -6   2   2   25.83    1.06 
   5  -2  -2   33.57    1.06 
   5  -2  -2   30.78    1.09 
   5  -2  -2   34.24    1.24 
  -5   2   2   33.86    1.17 
  -5   2   2   32.82    1.14 
  -4   2   2   57.95    2.04 
   3  -2  -2   68.24    1.62 
  -3   2   2   68.69    1.65 
   2  -2  -2  213.33    4.18 
  -2   2   2  214.51    4.19 
   1  -2  -2  433.39    8.07 
  -1   2   2  436.45    8.11 
   0  -2  -2  345.49    6.53 
   0   2   2  357.57    6.65 
  -1  -2  -2   37.07    0.88 
  -2  -2  -2    0.53    0.15 
   2   2   2    0.65    0.22 
  -3  -2  -2  209.63    4.37 
   3   2   2  209.37    3.97 
   3   2   2  213.45    3.97 
   3   2   2  213.04    4.41 
   3   2   2  208.79    4.49 
   3   2   2  213.44    4.40 
  -4  -2  -2  163.03    3.33 
  -4  -2  -2  155.62    3.55 
   4   2   2  151.09    3.42 
   4   2   2  159.74    2.95 
   4   2   2  156.25    3.32 
   4   2   2  156.14    3.53 
   4   2   2  153.36    3.61 
   4   2   2  154.34    2.96 
  -5  -2  -2   15.77    1.07 
  -5  -2  -2   14.01    0.79 
   5   2   2   14.95    1.08 
   5   2   2   14.09    1.09 
   5   2   2   13.36    0.87 
  -6  -2  -2   39.11    1.23 
  -6  -2  -2   39.29    1.45 
  -6  -2  -2   34.48    1.50 
   6   2   2   38.40    1.60 
   6   2   2   37.97    1.76 
   6   2   2   37.45    1.52 
  -7  -2  -2   58.08    1.68 
  -7  -2  -2   54.52    1.89 
  -7  -2  -2   51.55    2.00 
   7   2   2   52.07    2.04 
   7   2   2   54.29    2.29 
   7   2   2   56.33    1.99 
  -8  -2  -2   16.86    1.53 
  -8  -2  -2   17.28    1.00 
   8   2   2   14.62    1.43 
   8   2   2   14.87    1.60 
  -9  -2  -2    9.11    1.33 
  -9  -2  -2   10.13    1.55 
   9   2   2    7.71    1.33 
   9   2   2    8.99    1.65 
 -10  -2  -2   12.89    1.69 
 -10  -2  -2   13.44    1.51 
  10   2   2    9.99    1.54 
  10   2   2   12.17    1.87 
  12  -3  -2    4.32    1.39 
 -12   3   2    5.25    0.96 
 -12   3   2    2.98    1.17 
  11  -3  -2   37.67    2.41 
  11  -3  -2   35.25    1.86 
 -11   3   2   37.33    2.00 
 -11   3   2   36.51    2.07 
  10  -3  -2   23.12    1.76 
  10  -3  -2   23.46    1.80 
 -10   3   2   20.17    1.55 
 -10   3   2   18.69    1.44 
   9  -3  -2   45.94    1.99 
   9  -3  -2   43.70    2.10 
   9  -3  -2   45.44    1.47 
   9  -3  -2   44.99    1.47 
  -9   3   2   42.66    1.89 
  -9   3   2   46.94    1.70 
  -9   3   2   45.45    2.28 
   8  -3  -2   18.87    1.36 
   8  -3  -2   18.03    0.91 
   8  -3  -2   19.98    1.33 
   8  -3  -2   19.00    0.95 
  -8   3   2   18.88    1.11 
  -8   3   2   18.83    1.27 
  -8   3   2   21.82    1.33 
   7  -3  -2    0.84    0.57 
   7  -3  -2    0.72    0.53 
   7  -3  -2    0.52    0.32 
   7  -3  -2   -0.01    0.32 
  -7   3   2   -0.01    0.36 
  -7   3   2    0.13    0.48 
  -7   3   2    0.77    0.45 
   6  -3  -2   81.16    2.01 
   6  -3  -2   78.51    1.96 
   6  -3  -2   80.30    2.19 
   6  -3  -2   78.81    2.21 
  -6   3   2   77.18    2.07 
  -6   3   2   76.64    2.16 
   5  -3  -2  119.57    2.80 
   5  -3  -2  124.46    2.92 
   5  -3  -2  117.17    2.81 
   5  -3  -2  117.90    2.68 
  -5   3   2  114.62    2.77 
  -5   3   2  115.14    2.67 
   4  -3  -2    1.02    0.30 
   4  -3  -2    0.48    0.37 
   4  -3  -2    0.55    0.37 
  -4   3   2    0.13    0.20 
   3  -3  -2   64.23    1.62 
  -3   3   2   69.11    1.84 
   2  -3  -2  285.34    5.61 
  -2   3   2  290.61    5.61 
   1  -3  -2  106.21    2.27 
  -1   3   2  104.86    2.31 
   0  -3  -2  433.15    8.08 
   0   3   2  433.18    8.19 
  -1  -3  -2  130.34    2.70 
   1   3   2  136.14    2.90 
  -2  -3  -2   10.54    0.48 
   2   3   2   10.08    0.67 
   2   3   2   10.05    0.64 
  -3  -3  -2    5.87    0.58 
  -3  -3  -2    5.43    0.58 
   3   3   2    5.50    0.55 
   3   3   2    6.71    0.68 
   3   3   2    5.83    0.57 
  -4  -3  -2   90.87    2.18 
  -4  -3  -2   86.48    2.33 
   4   3   2   85.90    2.32 
   4   3   2   84.20    2.19 
   4   3   2   87.82    1.86 
   4   3   2   87.53    2.08 
   4   3   2   86.14    2.41 
  -5  -3  -2   14.85    0.90 
  -5  -3  -2   14.13    0.89 
  -5  -3  -2   16.16    1.09 
   5   3   2   15.42    1.09 
   5   3   2   14.06    1.07 
   5   3   2   15.68    0.54 
   5   3   2   14.46    0.91 
  -6  -3  -2    0.28    0.47 
  -6  -3  -2    1.42    0.57 
  -6  -3  -2    0.16    0.54 
   6   3   2    1.23    0.53 
   6   3   2    1.75    0.71 
  -7  -3  -2   16.30    1.07 
  -7  -3  -2   19.09    0.99 
   7   3   2   16.82    1.24 
   7   3   2   15.11    1.44 
  -8  -3  -2   16.66    1.43 
  -8  -3  -2   16.83    1.20 
   8   3   2   13.64    1.42 
  -9  -3  -2   32.77    2.15 
  -9  -3  -2   32.32    1.74 
   9   3   2   32.03    2.12 
   9   3   2   33.51    1.96 
 -10  -3  -2    9.95    1.43 
 -10  -3  -2   10.30    1.59 
  10   3   2    8.05    1.52 
  10   3   2    9.96    1.52 
  12  -4  -2    0.55    0.96 
 -12   4   2   -1.35    1.08 
 -12   4   2    1.21    1.24 
  11  -4  -2   16.14    1.69 
  11  -4  -2   15.23    1.82 
 -11   4   2   17.28    1.76 
 -11   4   2   17.59    1.71 
  10  -4  -2   12.45    0.95 
  10  -4  -2   11.29    0.87 
  10  -4  -2   10.59    1.52 
  10  -4  -2   12.94    1.53 
 -10   4   2   11.59    1.27 
 -10   4   2   10.45    1.29 
   9  -4  -2   27.86    1.20 
   9  -4  -2   25.77    1.47 
   9  -4  -2   26.44    2.73 
   9  -4  -2   27.83    1.18 
  -9   4   2   26.46    2.34 
  -9   4   2   32.12    1.34 
   8  -4  -2   60.29    2.14 
   8  -4  -2   60.59    2.28 
   8  -4  -2   62.18    1.82 
   8  -4  -2   61.65    1.77 
  -8   4   2   62.63    2.25 
  -8   4   2   63.16    1.81 
  -8   4   2   59.86    2.05 
   7  -4  -2    2.01    0.54 
   7  -4  -2    1.63    0.50 
   7  -4  -2    2.96    0.47 
   7  -4  -2    3.16    0.47 
  -7   4   2    3.11    0.64 
  -7   4   2    2.83    0.59 
  -7   4   2    2.73    0.57 
   6  -4  -2   16.58    0.81 
   6  -4  -2   16.70    1.03 
   6  -4  -2   16.01    0.88 
   6  -4  -2   16.58    1.05 
  -6   4   2   15.00    0.92 
  -6   4   2   15.21    0.90 
   5  -4  -2  335.22    6.57 
   5  -4  -2  327.34    6.71 
   5  -4  -2  340.06    6.54 
   5  -4  -2  330.71    6.67 
  -5   4   2  322.30    6.49 
  -5   4   2  330.72    6.71 
   4  -4  -2  239.31    4.84 
   4  -4  -2  238.93    4.94 
   4  -4  -2  238.96    4.87 
  -4   4   2  240.04    4.98 
   3  -4  -2  143.87    3.11 
  -3   4   2  145.68    3.18 
  -3   4   2  140.42    3.40 
   2  -4  -2   90.22    2.09 
  -2   4   2   88.08    2.13 
   1  -4  -2  276.64    5.41 
   0  -4  -2  688.63   12.16 
   0   4   2  621.69   12.49 
  -1  -4  -2   11.63    0.58 
  -1  -4  -2   12.09    0.67 
   1   4   2   12.94    0.71 
   1   4   2   14.50    0.86 
  -2  -4  -2   13.09    0.97 
  -2  -4  -2   15.69    0.77 
  -2  -4  -2   15.14    0.83 
   2   4   2   14.95    0.79 
   2   4   2   13.99    0.80 
  -3  -4  -2    1.29    0.38 
  -3  -4  -2    1.50    0.45 
   3   4   2    1.55    0.31 
   3   4   2    1.98    0.52 
   3   4   2    1.34    0.43 
  -4  -4  -2  167.41    3.83 
  -4  -4  -2  165.77    3.64 
   4   4   2  164.77    3.69 
   4   4   2  162.45    3.92 
   4   4   2  170.63    3.80 
   4   4   2  154.71    3.50 
  -5  -4  -2   68.82    2.23 
  -5  -4  -2   71.51    2.04 
  -5  -4  -2   71.04    1.92 
   5   4   2   73.38    2.47 
   5   4   2   71.78    2.21 
   5   4   2   73.13    1.68 
   5   4   2   69.72    2.06 
  -6  -4  -2   42.38    1.47 
  -6  -4  -2   40.12    1.54 
  -6  -4  -2   38.90    1.81 
   6   4   2   39.24    1.92 
   6   4   2   40.67    1.60 
   6   4   2   40.41    1.80 
   6   4   2   41.50    1.06 
  -7  -4  -2   11.78    1.32 
  -7  -4  -2    9.73    0.98 
  -7  -4  -2    9.85    1.10 
   7   4   2    7.27    1.10 
   7   4   2    8.33    1.18 
  -8  -4  -2    4.93    0.78 
  -8  -4  -2    4.82    1.13 
   8   4   2    4.49    1.07 
   8   4   2    3.34    0.89 
  -9  -4  -2   13.76    1.30 
  -9  -4  -2   17.17    1.83 
   9   4   2   16.85    1.47 
  12  -5  -2   11.03    1.89 
  12  -5  -2    6.18    1.44 
 -12   5   2    7.50    1.44 
  11  -5  -2    7.20    1.37 
  11  -5  -2    4.30    1.07 
 -11   5   2    8.21    1.41 
  10  -5  -2    0.56    0.81 
  10  -5  -2    2.16    0.98 
  10  -5  -2    1.57    0.49 
  10  -5  -2    1.80    0.57 
 -10   5   2    2.51    0.96 
 -10   5   2    3.03    0.64 
   9  -5  -2   31.73    1.32 
   9  -5  -2   30.62    1.88 
   9  -5  -2   29.42    1.70 
   9  -5  -2   31.72    1.29 
  -9   5   2   28.20    1.81 
  -9   5   2   31.20    1.40 
   8  -5  -2   39.55    1.83 
   8  -5  -2   40.39    1.44 
   8  -5  -2   41.41    1.52 
   8  -5  -2   40.73    1.77 
  -8   5   2   38.36    1.85 
  -8   5   2   40.70    1.66 
  -8   5   2   41.74    1.37 
   7  -5  -2   26.66    1.16 
   7  -5  -2   25.92    1.39 
   7  -5  -2   25.16    1.13 
   7  -5  -2   23.43    1.21 
  -7   5   2   25.23    1.22 
  -7   5   2   26.55    1.46 
   6  -5  -2   25.70    1.25 
   6  -5  -2   24.12    1.19 
   6  -5  -2   24.16    1.10 
   6  -5  -2   24.28    1.06 
  -6   5   2   24.25    1.14 
  -6   5   2   23.25    1.22 
   5  -5  -2   24.30    1.05 
   5  -5  -2   21.70    1.08 
   5  -5  -2   21.60    0.96 
  -5   5   2   23.53    1.19 
  -5   5   2   21.73    0.91 
   4  -5  -2   94.96    2.39 
   4  -5  -2   90.16    2.28 
   4  -5  -2   94.50    2.30 
  -4   5   2   94.88    2.42 
  -4   5   2   92.53    2.40 
   3  -5  -2  146.95    3.31 
   3  -5  -2  149.89    3.25 
   3  -5  -2  148.31    3.28 
  -3   5   2  148.27    3.32 
  -3   5   2  145.89    3.34 
   2  -5  -2  218.68    4.44 
   2  -5  -2  202.64    4.28 
   2  -5  -2  203.96    4.33 
  -2   5   2  206.82    4.39 
  -2   5   2  212.48    4.36 
   1  -5  -2    0.25    0.30 
   1  -5  -2    0.46    0.29 
   1  -5  -2   -0.17    0.31 
  -1   5   2    0.38    0.38 
  -1   5   2    0.41    0.38 
   0  -5  -2   89.65    2.14 
   0  -5  -2   90.61    2.14 
   0  -5  -2   88.40    2.13 
   0   5   2   90.91    2.25 
   0   5   2   89.83    2.31 
  -1  -5  -2   77.09    1.89 
  -1  -5  -2   75.58    1.90 
  -1  -5  -2   77.40    1.97 
   1   5   2   77.90    2.12 
   1   5   2   82.40    2.27 
   1   5   2   77.39    2.05 
  -2  -5  -2  132.53    2.89 
  -2  -5  -2  130.75    3.03 
  -2  -5  -2  130.04    2.85 
  -2  -5  -2  129.88    2.97 
   2   5   2  132.41    2.97 
   2   5   2  132.63    3.09 
   2   5   2  131.14    3.25 
  -3  -5  -2    0.44    0.32 
  -3  -5  -2    0.28    0.53 
  -3  -5  -2    0.21    0.42 
  -3  -5  -2   -0.70    0.36 
   3   5   2   -0.15    0.35 
   3   5   2    0.66    0.53 
   3   5   2   -0.50    0.47 
  -4  -5  -2   19.21    1.14 
  -4  -5  -2   18.74    1.07 
  -4  -5  -2   19.54    0.88 
   4   5   2   19.25    0.82 
   4   5   2   19.19    0.98 
   4   5   2   17.70    1.09 
   4   5   2   17.92    1.27 
  -5  -5  -2    3.91    0.65 
  -5  -5  -2    4.60    0.82 
  -5  -5  -2    4.90    0.75 
   5   5   2    5.11    0.88 
   5   5   2    4.65    0.58 
   5   5   2    4.21    0.84 
   5   5   2    5.25    0.74 
  -6  -5  -2   47.09    1.74 
  -6  -5  -2   44.19    1.53 
  -6  -5  -2   44.81    2.37 
   6   5   2   44.39    1.84 
   6   5   2   46.95    1.38 
   6   5   2   45.15    1.73 
  -7  -5  -2    3.44    0.70 
  -7  -5  -2    3.03    0.66 
  -7  -5  -2    2.77    1.03 
   7   5   2    3.31    1.12 
   7   5   2    2.51    0.80 
  -8  -5  -2    8.49    1.32 
  -8  -5  -2   12.26    2.09 
  -8  -5  -2    9.35    1.63 
   8   5   2    7.64    1.21 
  -9  -5  -2    0.08    0.79 
  -9  -5  -2    0.25    1.09 
   9   5   2    0.55    1.24 
   9   5   2   -0.88    0.77 
  12  -6  -2    0.95    1.07 
  12  -6  -2    1.86    1.25 
 -12   6   2    0.11    1.08 
  11  -6  -2   14.75    1.72 
  11  -6  -2   16.59    1.74 
 -11   6   2   16.83    1.71 
  10  -6  -2    2.25    0.61 
  10  -6  -2    1.74    0.90 
  10  -6  -2    2.62    1.04 
  10  -6  -2    0.83    0.67 
 -10   6   2    2.48    1.04 
   9  -6  -2   36.49    1.90 
   9  -6  -2   33.86    1.45 
   9  -6  -2   35.17    1.47 
   9  -6  -2   39.44    2.03 
  -9   6   2   34.96    1.71 
   8  -6  -2   53.84    1.85 
   8  -6  -2   52.36    2.21 
   8  -6  -2   53.36    1.74 
   8  -6  -2   54.14    2.19 
  -8   6   2   50.81    1.87 
   7  -6  -2   11.19    0.89 
   7  -6  -2   11.20    1.13 
   7  -6  -2   12.11    1.05 
   7  -6  -2   11.58    0.88 
  -7   6   2   10.85    1.08 
  -7   6   2   12.59    0.94 
   6  -6  -2   11.81    0.97 
   6  -6  -2   11.38    0.84 
   6  -6  -2   10.52    0.88 
  -6   6   2   13.59    1.14 
  -6   6   2   11.56    0.91 
   5  -6  -2    8.55    0.80 
   5  -6  -2    8.72    0.72 
   5  -6  -2    8.57    0.75 
  -5   6   2    8.28    0.81 
  -5   6   2    8.20    0.77 
  -5   6   2   10.30    0.97 
   4  -6  -2   60.85    1.74 
   4  -6  -2   62.54    1.80 
   4  -6  -2   61.69    1.87 
  -4   6   2   60.68    1.89 
  -4   6   2   59.94    1.84 
   3  -6  -2  179.58    3.92 
   3  -6  -2  178.27    3.89 
   3  -6  -2  178.23    3.69 
   3  -6  -2  174.82    3.95 
  -3   6   2  178.68    3.96 
  -3   6   2  179.30    4.00 
   2  -6  -2  129.51    2.85 
   2  -6  -2  130.61    3.06 
   2  -6  -2  127.83    2.96 
   2  -6  -2  125.60    2.96 
  -2   6   2  131.40    3.06 
  -2   6   2  128.59    2.99 
   1  -6  -2   53.73    1.51 
   1  -6  -2   51.53    1.54 
   1  -6  -2   50.37    1.51 
  -1   6   2   52.11    1.64 
  -1   6   2   51.77    1.51 
  -1   6   2   50.36    1.58 
   0  -6  -2   -0.25    0.25 
   0  -6  -2    0.21    0.33 
   0  -6  -2   -0.02    0.34 
   0   6   2   -0.26    0.32 
   0   6   2   -0.02    0.41 
  -1  -6  -2    1.16    0.43 
  -1  -6  -2    1.84    0.43 
  -1  -6  -2    0.97    0.27 
  -1  -6  -2    1.46    0.43 
   1   6   2    0.59    0.43 
   1   6   2    0.66    0.32 
   1   6   2    0.98    0.38 
  -2  -6  -2   32.71    1.18 
  -2  -6  -2   34.26    1.32 
  -2  -6  -2   32.10    1.28 
  -2  -6  -2   33.21    1.19 
   2   6   2   32.20    1.29 
   2   6   2   31.36    1.41 
   2   6   2   32.34    1.26 
  -3  -6  -2   36.08    1.26 
  -3  -6  -2   35.17    1.39 
  -3  -6  -2   37.03    1.25 
  -3  -6  -2   35.21    1.41 
   3   6   2   37.24    1.46 
   3   6   2   37.77    1.32 
   3   6   2   34.54    1.57 
  -4  -6  -2   22.21    0.96 
  -4  -6  -2   20.68    0.93 
  -4  -6  -2   21.36    1.23 
  -4  -6  -2   20.27    1.19 
   4   6   2   20.27    0.95 
   4   6   2   17.49    1.15 
   4   6   2   20.34    1.22 
   4   6   2   19.68    1.33 
  -5  -6  -2    8.31    1.15 
  -5  -6  -2   10.16    0.76 
  -5  -6  -2    9.06    0.84 
  -5  -6  -2    8.74    0.95 
   5   6   2    6.70    1.13 
   5   6   2    9.24    0.93 
   5   6   2    8.50    1.20 
   5   6   2    9.44    0.79 
  -6  -6  -2   31.94    1.27 
  -6  -6  -2   31.56    1.48 
  -6  -6  -2   29.49    1.84 
   6   6   2   31.28    1.98 
   6   6   2   26.77    1.46 
  -7  -6  -2   18.83    1.41 
  -7  -6  -2   21.94    1.28 
  -7  -6  -2   20.50    1.44 
   7   6   2   16.68    1.48 
   7   6   2   22.65    1.58 
  -8  -6  -2   11.75    1.47 
  -8  -6  -2   17.87    1.57 
  -8  -6  -2   15.94    1.96 
   8   6   2   12.84    1.74 
   8   6   2   12.28    1.73 
   9   6   2   -0.70    1.25 
   9   6   2    1.37    0.85 
  11  -7  -2    3.84    1.24 
 -11   7   2    3.37    1.10 
  10  -7  -2    0.85    0.85 
  10  -7  -2    2.13    0.68 
 -10   7   2    1.56    1.01 
   9  -7  -2    0.33    0.61 
  -9   7   2   -0.14    0.83 
   8  -7  -2    4.08    0.73 
   8  -7  -2    3.27    1.05 
   8  -7  -2    5.75    0.85 
  -8   7   2    4.95    0.82 
   7  -7  -2   25.55    1.47 
   7  -7  -2   28.80    1.36 
   7  -7  -2   28.77    1.30 
  -7   7   2   26.54    1.28 
  -7   7   2   26.19    1.60 
  -7   7   2   29.80    1.72 
   6  -7  -2   63.62    1.96 
   6  -7  -2   64.18    1.98 
   6  -7  -2   56.90    2.02 
  -6   7   2   61.72    1.87 
  -6   7   2   57.93    2.08 
  -6   7   2   63.15    2.25 
   5  -7  -2   14.67    0.93 
   5  -7  -2   18.09    0.96 
   5  -7  -2   20.11    0.91 
   5  -7  -2   17.72    1.03 
  -5   7   2   15.53    1.09 
  -5   7   2   18.93    0.95 
  -5   7   2   19.16    1.30 
   4  -7  -2   21.28    0.89 
   4  -7  -2   21.51    1.13 
   4  -7  -2   19.24    0.98 
   4  -7  -2   19.32    1.12 
  -4   7   2   19.75    1.20 
  -4   7   2   18.30    1.08 
   3  -7  -2    8.87    0.61 
   3  -7  -2    9.17    0.84 
   3  -7  -2    8.96    0.85 
   3  -7  -2    8.17    0.78 
  -3   7   2    8.23    0.83 
  -3   7   2    9.27    0.95 
   2  -7  -2   44.04    1.49 
   2  -7  -2   44.18    1.38 
   2  -7  -2   46.49    1.53 
  -2   7   2   46.07    1.58 
  -2   7   2   44.49    1.64 
  -2   7   2   48.32    1.65 
   1  -7  -2    0.68    0.36 
   1  -7  -2    1.02    0.48 
   1  -7  -2    0.78    0.41 
  -1   7   2    1.53    0.56 
  -1   7   2    0.86    0.51 
  -1   7   2    1.79    0.47 
   0  -7  -2   70.36    2.01 
   0  -7  -2   68.05    1.93 
   0  -7  -2   67.82    1.95 
   0   7   2   69.33    2.01 
   0   7   2   72.15    1.95 
   0   7   2   69.23    2.13 
  -1  -7  -2    1.56    0.47 
  -1  -7  -2    0.97    0.36 
  -1  -7  -2    1.37    0.48 
  -1  -7  -2    1.61    0.50 
   1   7   2    1.41    0.47 
   1   7   2    1.47    0.46 
  -2  -7  -2    5.64    0.69 
  -2  -7  -2    5.84    0.72 
  -2  -7  -2    6.05    0.70 
  -2  -7  -2    6.99    0.86 
   2   7   2    5.05    0.70 
   2   7   2    6.65    0.80 
  -3  -7  -2   56.76    1.99 
  -3  -7  -2   55.77    1.87 
  -3  -7  -2   58.15    1.76 
   3   7   2   58.58    1.98 
   3   7   2   59.03    1.75 
   3   7   2   54.88    2.10 
  -4  -7  -2   12.15    0.82 
  -4  -7  -2    9.88    1.10 
  -4  -7  -2   11.42    1.14 
   4   7   2   13.91    1.42 
   4   7   2   10.69    0.84 
   4   7   2    9.50    1.07 
   4   7   2    9.72    1.19 
  -5  -7  -2   -0.46    0.55 
  -5  -7  -2   -0.17    0.51 
   5   7   2    0.13    0.41 
   5   7   2   -1.07    0.72 
   5   7   2   -0.25    0.59 
  -6  -7  -2    3.00    0.89 
  -6  -7  -2    5.02    1.19 
   6   7   2    3.80    0.82 
   6   7   2    2.98    1.10 
  -7  -7  -2   11.07    1.38 
  -7  -7  -2   11.39    1.55 
   7   7   2   11.45    1.73 
   7   7   2   13.33    1.92 
  -8  -7  -2   15.33    1.59 
  -8  -7  -2   11.73    1.66 
   8   7   2   10.29    1.57 
   8   7   2   13.53    2.51 
  11  -8  -2    6.73    1.35 
 -11   8   2    9.77    1.81 
 -11   8   2    9.29    1.34 
  10  -8  -2   18.02    1.72 
  10  -8  -2   17.95    1.25 
 -10   8   2   21.61    1.92 
 -10   8   2   20.61    1.68 
   9  -8  -2   -0.26    0.73 
   9  -8  -2   -0.05    0.70 
  -9   8   2   -1.37    0.80 
  -9   8   2    1.34    1.02 
   8  -8  -2   -0.32    0.49 
   8  -8  -2    0.92    0.88 
  -8   8   2   -0.24    0.74 
  -8   8   2   -0.35    0.80 
   7  -8  -2    6.47    0.86 
   7  -8  -2    5.90    1.08 
   7  -8  -2    5.43    0.92 
  -7   8   2    6.21    0.96 
  -7   8   2    6.70    1.17 
   6  -8  -2   24.16    1.47 
   6  -8  -2   26.24    1.41 
   6  -8  -2   26.23    0.95 
   6  -8  -2   26.85    1.31 
  -6   8   2   28.91    1.20 
  -6   8   2   25.82    1.48 
  -6   8   2   28.52    1.65 
   5  -8  -2   25.13    1.38 
   5  -8  -2   24.51    1.28 
   5  -8  -2   22.38    1.30 
   5  -8  -2   24.86    0.95 
  -5   8   2   25.92    1.52 
  -5   8   2   24.82    1.37 
  -5   8   2   24.06    1.11 
   4  -8  -2   12.40    1.06 
   4  -8  -2   11.33    0.83 
   4  -8  -2   10.65    0.65 
   4  -8  -2    9.93    0.89 
  -4   8   2   12.05    1.08 
  -4   8   2   11.61    1.14 
   3  -8  -2   23.46    1.23 
   3  -8  -2   22.96    1.01 
   3  -8  -2   24.64    1.33 
   3  -8  -2   21.77    1.14 
  -3   8   2   22.19    1.27 
  -3   8   2   23.31    1.32 
   2  -8  -2   37.59    1.43 
   2  -8  -2   38.08    1.29 
   2  -8  -2   38.99    1.53 
  -2   8   2   38.09    1.43 
  -2   8   2   38.77    1.53 
  -2   8   2   40.09    1.68 
   1  -8  -2   66.97    2.07 
   1  -8  -2   62.82    1.95 
   1  -8  -2   63.72    1.95 
  -1   8   2   65.52    2.14 
  -1   8   2   64.96    2.03 
  -1   8   2   62.38    1.87 
   0  -8  -2    0.73    0.53 
   0  -8  -2    0.55    0.51 
   0  -8  -2    0.24    0.34 
   0  -8  -2    1.22    0.57 
   0   8   2    0.36    0.46 
   0   8   2   -0.42    0.49 
   0   8   2   -0.08    0.45 
  -1  -8  -2   12.82    0.75 
  -1  -8  -2   12.61    0.92 
  -1  -8  -2   14.02    0.92 
  -1  -8  -2   13.98    0.99 
   1   8   2   14.67    0.89 
   1   8   2   10.22    0.97 
   1   8   2   11.89    1.07 
  -2  -8  -2  104.11    2.83 
  -2  -8  -2  100.09    2.63 
  -2  -8  -2  105.18    2.71 
  -2  -8  -2  103.59    2.65 
   2   8   2  104.23    2.71 
   2   8   2  101.57    2.80 
   2   8   2   97.11    2.92 
  -3  -8  -2   54.63    2.00 
  -3  -8  -2   56.94    1.75 
  -3  -8  -2   53.08    2.04 
   3   8   2   54.98    2.34 
   3   8   2   54.14    2.06 
   3   8   2   56.17    1.79 
  -4  -8  -2   53.20    2.17 
  -4  -8  -2   49.64    2.65 
  -4  -8  -2   56.54    1.75 
   4   8   2   52.91    1.82 
   4   8   2   51.66    1.89 
   4   8   2   51.00    2.08 
   4   8   2   52.76    2.32 
  -5  -8  -2    8.66    1.27 
  -5  -8  -2    7.17    1.20 
  -5  -8  -2    5.99    1.06 
   5   8   2   11.30    1.69 
   5   8   2    7.56    1.09 
   5   8   2    6.26    0.90 
  -6  -8  -2    6.23    1.35 
  -6  -8  -2    7.57    1.03 
   6   8   2    2.89    0.98 
   6   8   2    4.82    0.94 
  -7  -8  -2   15.23    1.86 
  -7  -8  -2   16.97    1.44 
   7   8   2   13.44    1.75 
  11  -9  -2    2.76    1.28 
 -11   9   2    2.20    1.32 
 -11   9   2    2.43    1.20 
  10  -9  -2   12.55    1.68 
  10  -9  -2   18.12    1.58 
 -10   9   2   17.66    1.87 
 -10   9   2   16.30    1.72 
   9  -9  -2    4.87    0.73 
   9  -9  -2    3.00    1.01 
  -9   9   2    3.80    1.18 
  -9   9   2    4.18    0.98 
   8  -9  -2    4.51    1.17 
   8  -9  -2    4.57    0.81 
  -8   9   2    4.59    1.10 
  -8   9   2    4.98    0.94 
   7  -9  -2   17.75    1.39 
   7  -9  -2   17.27    1.53 
  -7   9   2   14.14    1.36 
  -7   9   2   14.59    1.23 
   6  -9  -2   16.59    1.35 
   6  -9  -2   19.75    0.85 
   6  -9  -2   18.71    1.37 
  -6   9   2   17.16    1.42 
  -6   9   2   18.93    1.15 
   5  -9  -2   36.87    1.26 
   5  -9  -2   35.96    1.69 
   5  -9  -2   33.39    1.62 
  -5   9   2   33.30    1.85 
  -5   9   2   34.17    1.27 
  -5   9   2   36.75    1.73 
   4  -9  -2   61.40    1.79 
   4  -9  -2   54.63    2.06 
   4  -9  -2   56.97    1.93 
   4  -9  -2   55.91    2.04 
  -4   9   2   60.60    2.15 
  -4   9   2   58.96    2.20 
   3  -9  -2    1.26    0.59 
   3  -9  -2    2.29    0.59 
   3  -9  -2    3.08    0.71 
  -3   9   2    1.54    0.63 
  -3   9   2    2.35    0.65 
   2  -9  -2   33.55    1.61 
   2  -9  -2   30.45    1.31 
   2  -9  -2   28.13    1.30 
  -2   9   2   28.98    1.48 
  -2   9   2   30.57    1.49 
  -2   9   2   28.89    1.45 
   1  -9  -2   29.61    1.30 
   1  -9  -2   31.67    1.49 
   1  -9  -2   30.76    1.35 
  -1   9   2   31.76    1.53 
  -1   9   2   32.07    1.44 
  -1   9   2   33.59    1.56 
   0  -9  -2   16.37    1.24 
   0  -9  -2   17.11    0.90 
   0  -9  -2   15.99    1.03 
   0  -9  -2   16.26    0.98 
   0   9   2   17.19    1.19 
   0   9   2   18.12    1.09 
   0   9   2   19.19    1.38 
  -1  -9  -2   30.48    1.52 
  -1  -9  -2   29.52    1.42 
  -1  -9  -2   28.81    1.35 
  -1  -9  -2   32.23    1.28 
   1   9   2   32.35    1.42 
   1   9   2   31.61    1.72 
   1   9   2   31.16    1.53 
  -2  -9  -2    5.17    0.76 
  -2  -9  -2    6.46    1.02 
  -2  -9  -2    5.80    0.98 
  -2  -9  -2    6.31    0.89 
   2   9   2    6.65    0.99 
   2   9   2    5.42    0.76 
  -3  -9  -2   26.11    1.54 
  -3  -9  -2   26.30    1.38 
   3   9   2   28.39    1.43 
   3   9   2   28.77    1.94 
   3   9   2   23.49    1.56 
  -4  -9  -2   53.30    1.91 
  -4  -9  -2   54.76    2.15 
  -4  -9  -2   51.35    2.33 
   4   9   2   50.68    1.99 
   4   9   2   51.85    1.99 
  -5  -9  -2   28.07    1.89 
  -5  -9  -2   26.94    1.55 
  -5  -9  -2   28.09    1.49 
   5   9   2   33.30    2.29 
   5   9   2   28.80    1.54 
   5   9   2   25.67    2.56 
  -6  -9  -2    0.28    1.14 
  -6  -9  -2    0.94    0.95 
   6   9   2   -1.66    0.85 
  -7  -9  -2    2.06    1.11 
  -7  -9  -2    1.20    1.32 
  10 -10  -2    9.05    1.49 
 -10  10   2    5.31    1.22 
 -10  10   2    2.57    1.30 
   9 -10  -2   33.72    1.69 
   9 -10  -2   33.77    2.12 
  -9  10   2   33.79    1.90 
  -9  10   2   31.64    2.03 
   8 -10  -2    4.12    1.06 
   8 -10  -2    4.33    1.16 
  -8  10   2    5.83    1.32 
  -8  10   2    5.36    1.18 
   7 -10  -2   -0.76    0.80 
   7 -10  -2    0.14    0.77 
  -7  10   2   -1.07    0.72 
  -7  10   2   -0.01    0.68 
   6 -10  -2    7.41    0.73 
   6 -10  -2    7.33    1.22 
   6 -10  -2    6.37    1.20 
  -6  10   2    8.71    1.31 
  -6  10   2    6.83    0.97 
   5 -10  -2   55.11    2.63 
   5 -10  -2   64.24    1.90 
  -5  10   2   61.61    2.37 
  -5  10   2   65.58    2.17 
   4 -10  -2   17.08    1.22 
   4 -10  -2   18.81    1.16 
   4 -10  -2   19.55    1.09 
  -4  10   2   20.00    1.54 
  -4  10   2   21.22    2.39 
   3 -10  -2    0.64    0.48 
   3 -10  -2    1.16    0.69 
  -3  10   2    0.23    0.50 
  -3  10   2    0.24    0.66 
  -3  10   2    0.65    0.72 
   2 -10  -2    8.66    1.08 
  -2  10   2    9.81    1.09 
  -2  10   2   11.00    1.40 
  -2  10   2    8.87    1.09 
   1 -10  -2   65.93    1.70 
   1 -10  -2   62.79    2.11 
   1 -10  -2   63.27    2.19 
  -1  10   2   61.96    2.39 
  -1  10   2   61.35    2.30 
  -1  10   2   62.83    2.07 
   0 -10  -2   70.25    2.24 
   0 -10  -2   72.84    1.98 
   0 -10  -2   73.10    2.38 
   0  10   2   62.14    2.44 
   0  10   2   74.75    2.31 
   0  10   2   69.35    2.39 
  -1 -10  -2   63.64    2.37 
  -1 -10  -2   67.69    2.21 
  -1 -10  -2   68.73    2.03 
   1  10   2   65.64    2.53 
   1  10   2   69.31    2.29 
   1  10   2   71.78    2.19 
  -2 -10  -2   10.26    1.05 
  -2 -10  -2    8.80    1.03 
  -2 -10  -2    7.45    1.22 
   2  10   2    8.87    1.36 
   2  10   2    7.05    1.27 
  -3 -10  -2    5.01    0.84 
  -3 -10  -2    3.77    0.86 
  -3 -10  -2    4.69    0.93 
   3  10   2    4.91    1.09 
   3  10   2    3.24    0.95 
  -4 -10  -2   20.59    2.36 
  -4 -10  -2   22.93    1.77 
  -4 -10  -2   21.32    1.63 
   4  10   2   19.90    1.78 
  -5 -10  -2    0.17    1.57 
  -5 -10  -2    1.96    1.14 
  -5 -10  -2    2.44    0.85 
   5  10   2    4.37    1.42 
  -6 -10  -2    7.01    1.52 
  -6 -10  -2    6.76    1.36 
   6  10   2    5.93    1.58 
   9 -11  -2   26.99    1.87 
   9 -11  -2   24.12    2.12 
  -9  11   2   28.12    1.97 
  -9  11   2   24.79    1.98 
   8 -11  -2    4.77    1.20 
   8 -11  -2    4.59    0.99 
  -8  11   2    3.85    1.28 
  -8  11   2    4.94    1.41 
   7 -11  -2   27.55    1.77 
   7 -11  -2   29.34    1.76 
  -7  11   2   29.72    1.93 
  -7  11   2   30.59    2.26 
   6 -11  -2    7.45    1.37 
   6 -11  -2    6.27    0.86 
   6 -11  -2    5.91    1.06 
  -6  11   2    8.11    1.47 
   5 -11  -2   17.69    1.49 
   5 -11  -2   18.48    1.08 
   5 -11  -2   18.24    1.52 
  -5  11   2   18.61    1.75 
   4 -11  -2   30.63    1.42 
   4 -11  -2   31.59    1.79 
  -4  11   2   30.68    1.88 
  -4  11   2   28.08    1.71 
   3 -11  -2   38.75    1.79 
   3 -11  -2   37.83    1.61 
  -3  11   2   36.66    1.85 
  -3  11   2   37.70    1.92 
   2 -11  -2   -0.32    0.66 
   2 -11  -2   -0.68    0.65 
  -2  11   2    1.17    0.77 
  -2  11   2    0.92    0.62 
   1 -11  -2    4.83    0.96 
   1 -11  -2    2.80    0.68 
  -1  11   2    2.20    0.76 
   0 -11  -2    4.50    0.94 
   0 -11  -2    4.48    0.63 
   0 -11  -2    5.06    0.98 
   0  11   2    4.53    1.13 
   0  11   2    7.52    1.11 
  -1 -11  -2   19.34    1.10 
  -1 -11  -2   17.44    1.56 
  -1 -11  -2   18.06    1.55 
   1  11   2   17.73    1.47 
  -2 -11  -2    1.23    0.86 
  -2 -11  -2    1.01    0.82 
  -2 -11  -2    1.07    0.60 
   2  11   2   -0.63    0.78 
   2  11   2    2.93    1.15 
  -3 -11  -2    1.12    0.74 
  -3 -11  -2    1.61    0.97 
  -3 -11  -2    0.36    0.76 
  -4 -11  -2   -0.34    0.80 
  -4 -11  -2   -1.52    0.89 
   4  11   2   -1.38    0.99 
  -5 -11  -2    2.04    0.97 
  -5 -11  -2    1.86    1.12 
   5  11   2    4.78    1.61 
   8 -12  -2    1.17    0.83 
   8 -12  -2    1.23    1.11 
  -8  12   2    0.66    1.03 
   7 -12  -2   10.18    1.41 
   7 -12  -2   15.46    1.24 
  -7  12   2   14.60    1.87 
   6 -12  -2   -0.86    0.57 
   6 -12  -2    0.05    0.65 
   6 -12  -2    1.00    1.10 
  -6  12   2    1.01    1.03 
   5 -12  -2   11.25    1.34 
  -5  12   2   12.91    1.61 
  -5  12   2   13.28    1.61 
   4 -12  -2    2.83    0.70 
   4 -12  -2    4.44    1.06 
  -4  12   2    3.49    0.99 
  -4  12   2    4.17    0.93 
   3 -12  -2    3.57    0.74 
   3 -12  -2    6.02    0.93 
  -3  12   2    4.08    1.24 
   2 -12  -2   11.70    1.16 
   2 -12  -2   14.36    1.49 
  -2  12   2    9.67    1.32 
  -2  12   2   10.02    1.33 
   1 -12  -2    8.80    1.27 
   1 -12  -2   10.20    1.40 
  -1  12   2    9.34    1.43 
  -1  12   2    9.01    1.43 
   0 -12  -2    2.00    0.74 
   0 -12  -2    2.27    0.80 
   0  12   2    2.00    0.98 
   0  12   2    2.48    0.93 
  -1 -12  -2    5.70    1.02 
  -1 -12  -2    6.08    0.85 
  -1 -12  -2    8.43    1.15 
   1  12   2    9.69    1.62 
  -2 -12  -2   25.74    1.74 
  -2 -12  -2   20.74    1.58 
  -2 -12  -2   22.14    1.49 
   2  12   2   19.46    1.84 
  -3 -12  -2    7.82    1.15 
  -3 -12  -2    5.86    1.15 
  -3 -12  -2   10.79    1.70 
  -4 -12  -2    2.27    0.85 
  -4 -12  -2    0.66    0.93 
   4  12   2    3.84    1.39 
   7 -13  -2    3.22    1.10 
   7 -13  -2    3.83    1.05 
  -7  13   2    3.42    1.38 
   6 -13  -2   -0.13    0.66 
   6 -13  -2    0.06    0.86 
  -6  13   2   -0.21    0.98 
  -6  13   2    1.17    1.06 
   5 -13  -2    0.60    0.74 
   5 -13  -2    0.70    0.71 
  -5  13   2    3.44    1.18 
  -5  13   2    1.22    0.88 
   4 -13  -2    1.63    0.70 
   4 -13  -2    1.17    0.98 
  -4  13   2    1.86    1.11 
  -4  13   2    1.14    0.77 
   3 -13  -2    0.93    0.93 
   3 -13  -2   -0.37    0.55 
  -3  13   2    0.79    0.83 
  -3  13   2   -0.39    0.79 
   2 -13  -2   12.02    1.57 
   2 -13  -2    9.64    1.38 
  -2  13   2    7.75    1.17 
  -2  13   2    6.70    1.21 
   1 -13  -2    0.77    0.77 
   1 -13  -2   -0.43    0.72 
  -1  13   2    1.23    0.97 
   0 -13  -2   -0.63    0.57 
   0 -13  -2    0.78    0.97 
   0  13   2   -0.32    1.02 
   0  13   2    1.62    1.10 
  -1 -13  -2   -0.91    0.91 
  -1 -13  -2   -1.52    0.73 
   1  13   2   -0.10    1.13 
  -2 -13  -2   12.28    1.40 
  -2 -13  -2    7.60    1.24 
  -2 -13  -2   10.55    1.52 
   5 -14  -2    4.54    1.22 
   5 -14  -2    4.63    0.84 
  -5  14   2    2.72    1.17 
  -5  14   2    4.87    1.29 
   4 -14  -2   -0.43    0.80 
  -4  14   2    0.64    0.86 
  -4  14   2    0.54    1.10 
   3 -14  -2    9.65    1.22 
  -3  14   2   11.42    1.37 
  -3  14   2    8.09    1.47 
   2 -14  -2    8.81    1.31 
   2 -14  -2   10.70    1.38 
  -2  14   2   13.03    1.82 
  -2  14   2   13.15    1.74 
   1 -14  -2    8.32    1.48 
   1 -14  -2    5.39    0.97 
   0 -14  -2    9.95    1.46 
   0 -14  -2    7.09    1.46 
  -1  15  -3   -0.60    1.27 
   1 -15   3   -0.92    0.93 
   1 -15   3    1.24    1.09 
  -2  15  -3    5.19    1.44 
   2 -15   3    5.80    1.35 
   2 -15   3    6.13    1.06 
   3  14  -3    0.59    1.20 
  -3 -14   3   -0.09    0.70 
  -3 -14   3   -0.01    0.75 
   2  14  -3   12.10    1.52 
  -2 -14   3   14.36    1.46 
  -2 -14   3   13.22    1.54 
   1  14  -3   15.05    1.98 
  -1 -14   3   16.48    1.56 
  -1 -14   3   14.50    1.56 
  -1 -14   3   21.27    1.94 
   0  14  -3   29.45    1.96 
   0 -14   3   31.75    2.01 
   0 -14   3   32.76    1.65 
   0 -14   3   30.63    1.92 
  -1  14  -3   11.61    1.67 
   1 -14   3   13.53    1.30 
   1 -14   3   11.68    1.57 
  -2  14  -3    0.80    0.96 
   2 -14   3    0.73    0.79 
   2 -14   3    0.13    0.88 
  -3  14  -3    2.28    1.17 
   3 -14   3    1.77    0.85 
   3 -14   3    2.40    1.23 
  -4  14  -3    5.04    1.43 
  -4  14  -3    9.14    1.38 
   4 -14   3    5.83    0.93 
   4 -14   3    5.61    1.26 
  -5  14  -3    2.36    1.09 
   5 -14   3    0.80    0.79 
   5 -14   3    0.92    1.06 
  -5 -13   3   12.36    1.63 
   4  13  -3   11.94    1.96 
  -4 -13   3   13.87    1.64 
  -4 -13   3   16.28    1.85 
  -4 -13   3   13.00    1.61 
   3  13  -3    1.47    0.67 
  -3 -13   3    4.52    1.27 
  -3 -13   3    3.41    1.01 
  -3 -13   3    2.53    0.79 
   2  13  -3    1.36    1.14 
  -2 -13   3    0.88    0.81 
  -2 -13   3    1.50    0.90 
  -2 -13   3    1.53    1.04 
   1  13  -3   15.53    1.29 
  -1 -13   3   15.93    2.11 
  -1 -13   3   19.23    1.42 
  -1 -13   3   13.95    1.26 
   0  13  -3   29.85    2.12 
   0 -13   3   32.93    1.63 
   0 -13   3   31.04    1.80 
   0 -13   3   31.01    1.97 
  -1  13  -3    2.11    0.88 
  -1  13  -3    3.06    0.94 
   1 -13   3    2.68    0.87 
   1 -13   3    1.54    0.78 
   1 -13   3    1.79    0.76 
  -2  13  -3    7.85    1.28 
   2 -13   3    5.01    1.14 
   2 -13   3    5.02    1.03 
  -3  13  -3   -0.48    1.02 
  -3  13  -3    0.81    0.85 
   3 -13   3   -0.60    0.69 
   3 -13   3   -0.02    0.67 
  -4  13  -3    3.48    1.07 
   4 -13   3    4.41    0.80 
   4 -13   3    3.24    0.77 
  -5  13  -3    4.76    1.10 
   5 -13   3    4.88    1.24 
   5 -13   3    5.05    0.89 
   5 -13   3    5.56    1.04 
  -6  13  -3    3.56    1.07 
   6 -13   3    4.82    0.75 
   6 -13   3    3.00    1.14 
   6  12  -3    1.02    1.07 
  -6 -12   3    2.59    1.12 
  -6 -12   3    0.10    0.99 
   5  12  -3    2.15    1.29 
  -5 -12   3    3.42    1.14 
  -5 -12   3    3.77    0.75 
  -5 -12   3    4.07    1.12 
   4  12  -3    6.16    1.04 
  -4 -12   3    8.26    1.41 
  -4 -12   3    7.49    1.21 
  -4 -12   3   10.00    1.40 
   3  12  -3   22.37    1.98 
  -3 -12   3   21.71    1.67 
  -3 -12   3   24.40    1.72 
  -3 -12   3   24.11    1.84 
   2  12  -3    2.75    0.84 
  -2 -12   3    2.76    0.86 
  -2 -12   3    2.51    1.09 
   1  12  -3   -0.27    0.92 
   1  12  -3    0.41    1.04 
  -1 -12   3    0.15    0.59 
  -1 -12   3   -0.29    0.69 
  -1 -12   3    0.17    0.78 
   0  12  -3    2.47    0.89 
   0  12  -3    2.82    0.67 
   0 -12   3    2.99    0.57 
   0 -12   3    2.16    0.70 
  -1  12  -3   24.81    2.10 
  -1  12  -3   16.85    1.63 
  -1  12  -3   18.58    1.56 
   1 -12   3   21.08    1.11 
   1 -12   3   19.66    1.57 
   1 -12   3   19.24    1.45 
  -2  12  -3   11.17    1.43 
  -2  12  -3    9.49    1.20 
  -2  12  -3   10.85    1.20 
   2 -12   3    7.68    0.95 
   2 -12   3    9.11    0.95 
   2 -12   3   10.60    1.19 
  -3  12  -3   -0.85    0.78 
  -3  12  -3    0.34    0.83 
   3 -12   3    0.62    0.83 
   3 -12   3    0.37    0.54 
   3 -12   3   -0.30    0.48 
   4 -12   3    2.06    0.95 
   4 -12   3    2.81    1.10 
  -5  12  -3    6.99    1.27 
   5 -12   3    6.61    0.86 
   5 -12   3    5.46    1.17 
   5 -12   3    5.40    1.10 
  -6  12  -3    6.89    1.17 
   6 -12   3    8.07    1.27 
   6 -12   3    9.15    1.41 
  -7  12  -3    0.35    1.15 
  -7  12  -3    0.45    0.96 
   7 -12   3    1.25    1.18 
   7 -12   3    1.94    0.82 
   7  11  -3    0.96    0.85 
   7  11  -3    1.76    1.10 
  -7 -11   3    2.66    1.26 
  -7 -11   3    2.08    1.05 
   6  11  -3    3.92    1.12 
  -6 -11   3    4.08    1.06 
  -6 -11   3    6.29    1.05 
   5  11  -3    4.93    1.23 
  -5 -11   3    4.77    0.89 
  -5 -11   3    6.52    1.11 
  -5 -11   3    5.20    1.04 
   4  11  -3    5.16    1.01 
  -4 -11   3    3.01    0.77 
  -4 -11   3    5.07    1.05 
  -4 -11   3    5.58    0.91 
   3  11  -3   15.22    1.67 
  -3 -11   3   15.49    1.24 
  -3 -11   3   13.99    1.31 
  -3 -11   3   13.86    1.54 
   2  11  -3    1.28    0.77 
   2  11  -3    1.84    0.59 
  -2 -11   3    0.75    0.61 
  -2 -11   3    0.38    0.78 
  -2 -11   3    1.46    0.55 
   1  11  -3    1.25    0.67 
   1  11  -3    1.43    0.57 
  -1 -11   3    1.99    0.86 
  -1 -11   3    0.96    0.65 
  -1 -11   3    0.66    0.71 
   0  11  -3    0.81    0.52 
   0  11  -3    1.21    0.78 
   0 -11   3    1.12    0.61 
   0 -11   3    0.98    1.17 
   0 -11   3    1.40    0.62 
  -1  11  -3    4.19    0.78 
  -1  11  -3    3.81    0.86 
  -1  11  -3    4.85    0.69 
   1 -11   3    3.96    0.72 
   1 -11   3    4.83    0.70 
  -2  11  -3    1.60    0.70 
  -2  11  -3    1.27    0.55 
  -2  11  -3    0.70    0.61 
   2 -11   3    0.68    0.47 
   2 -11   3    1.27    0.44 
  -3  11  -3   26.40    1.67 
  -3  11  -3   28.45    1.54 
   3 -11   3   28.23    1.80 
   3 -11   3   28.88    1.31 
   3 -11   3   27.01    1.26 
  -4  11  -3   -1.12    0.57 
  -4  11  -3    0.40    0.72 
   4 -11   3   -0.33    0.45 
   4 -11   3    0.04    0.57 
   4 -11   3    0.39    0.52 
   4 -11   3   -0.38    0.76 
  -5  11  -3    3.29    0.69 
  -5  11  -3    2.16    0.93 
   5 -11   3    2.59    0.85 
   5 -11   3    2.93    0.60 
   5 -11   3    2.42    0.67 
  -6  11  -3   11.30    1.34 
   6 -11   3    9.45    1.40 
   6 -11   3    9.63    1.17 
   6 -11   3   11.99    1.08 
   6 -11   3    9.64    1.25 
  -7  11  -3   11.88    1.53 
   7 -11   3   14.36    1.71 
   7 -11   3   13.49    1.81 
   7 -11   3   11.95    1.51 
  -8  11  -3    6.10    1.16 
   8 -11   3    3.63    1.01 
   8 -11   3    5.88    0.92 
   8 -11   3    5.33    1.28 
   8  10  -3    3.68    1.34 
   8  10  -3    2.30    1.02 
  -8 -10   3    0.86    0.89 
  -8 -10   3    1.64    0.84 
   7  10  -3   14.89    1.78 
   7  10  -3   13.74    1.48 
  -7 -10   3   14.65    1.64 
  -7 -10   3   12.33    1.49 
   6  10  -3    7.67    1.36 
  -6 -10   3    7.36    1.19 
  -6 -10   3    6.92    1.10 
   5  10  -3    0.54    0.99 
  -5 -10   3   -0.52    0.69 
  -5 -10   3   -0.16    0.79 
  -5 -10   3    0.41    0.86 
   4  10  -3   16.88    1.39 
  -4 -10   3   18.06    1.29 
  -4 -10   3   16.01    2.01 
   3  10  -3   23.40    1.51 
   3  10  -3   24.29    1.08 
  -3 -10   3   23.87    1.34 
   2  10  -3   35.19    1.24 
   2  10  -3   31.21    1.68 
  -2 -10   3   30.12    1.43 
  -2 -10   3   29.41    1.51 
  -2 -10   3   33.37    1.44 
   1  10  -3   26.43    1.20 
   1  10  -3   25.96    1.48 
  -1 -10   3   27.44    1.20 
  -1 -10   3   25.89    1.31 
  -1 -10   3   26.53    1.46 
   0  10  -3   28.43    1.21 
   0  10  -3   28.32    1.55 
   0  10  -3   28.76    1.32 
   0 -10   3   31.18    1.47 
   0 -10   3   29.77    1.53 
   0 -10   3   31.29    1.24 
  -1  10  -3   -0.15    0.60 
  -1  10  -3    0.19    0.49 
  -1  10  -3   -0.02    0.44 
   1 -10   3   -0.48    0.44 
   1 -10   3   -0.21    0.47 
   1 -10   3   -0.01    0.56 
  -2  10  -3   10.55    1.05 
  -2  10  -3   12.22    1.04 
   2 -10   3   11.74    0.78 
   2 -10   3   10.54    0.76 
   2 -10   3   11.68    0.98 
   2 -10   3    9.75    0.97 
  -3  10  -3   44.87    1.80 
  -3  10  -3   48.55    1.98 
   3 -10   3   48.08    1.57 
   3 -10   3   48.65    2.03 
   3 -10   3   47.05    1.72 
   3 -10   3   48.51    1.70 
  -4  10  -3    1.01    0.79 
   4 -10   3    0.49    0.58 
   4 -10   3    1.05    0.47 
   4 -10   3    0.58    0.71 
   4 -10   3    1.08    0.43 
   4 -10   3    0.35    0.57 
  -5  10  -3    1.35    0.53 
   5 -10   3    0.75    0.43 
   5 -10   3    0.18    0.57 
   5 -10   3    0.29    0.58 
   5 -10   3    0.47    0.80 
   5 -10   3    0.81    0.66 
  -6  10  -3   12.98    1.31 
   6 -10   3   13.36    0.89 
   6 -10   3   12.43    1.30 
   6 -10   3   15.00    1.11 
   6 -10   3   11.94    1.05 
  -7  10  -3   14.67    1.31 
   7 -10   3   14.08    1.30 
   7 -10   3   16.72    1.72 
   7 -10   3   12.42    1.81 
  -8  10  -3   21.55    1.73 
   8 -10   3   17.95    1.36 
   8 -10   3   22.89    1.99 
  -9  10  -3    0.59    1.00 
   9 -10   3    1.77    1.29 
   9 -10   3   -0.31    0.91 
  -9  -9   3    0.49    1.32 
   8   9  -3    2.07    1.00 
   8   9  -3    1.54    0.99 
  -8  -9   3    0.23    0.94 
  -8  -9   3    1.96    0.87 
   7   9  -3   14.52    1.14 
   7   9  -3   13.60    1.62 
  -7  -9   3   14.55    1.73 
  -7  -9   3   14.37    1.46 
   6   9  -3    6.61    1.22 
  -6  -9   3    7.34    1.12 
  -6  -9   3    6.42    1.07 
   5   9  -3    7.71    1.43 
  -5  -9   3    6.35    1.08 
   4   9  -3   12.96    0.85 
   4   9  -3   11.15    1.09 
  -4  -9   3   12.29    1.15 
  -4  -9   3   10.68    1.10 
  -4  -9   3   11.20    1.21 
   3   9  -3    7.02    0.77 
   3   9  -3    8.47    0.71 
   3   9  -3    8.19    1.22 
  -3  -9   3    6.85    0.93 
  -3  -9   3    7.31    0.96 
   2   9  -3   35.20    1.53 
   2   9  -3   37.46    1.21 
   2   9  -3   35.74    1.69 
  -2  -9   3   35.43    1.46 
  -2  -9   3   35.20    1.45 
  -2  -9   3   33.54    1.40 
   1   9  -3  138.42    3.04 
   1   9  -3  137.47    3.43 
   1   9  -3  135.43    3.50 
  -1  -9   3  135.26    3.26 
  -1  -9   3  130.69    3.29 
  -1  -9   3  130.15    3.32 
   0   9  -3    2.91    0.54 
   0   9  -3    3.09    0.66 
   0  -9   3    3.58    0.55 
   0  -9   3    2.14    0.55 
   0  -9   3    3.23    0.63 
  -1   9  -3    4.40    0.79 
  -1   9  -3    4.91    0.80 
  -1   9  -3    5.07    0.79 
   1  -9   3    6.16    0.90 
   1  -9   3    5.43    0.69 
   1  -9   3    4.72    0.67 
   1  -9   3    5.20    0.86 
  -2   9  -3   81.20    2.35 
  -2   9  -3   79.73    2.26 
   2  -9   3   82.58    2.44 
   2  -9   3   83.90    2.43 
   2  -9   3   86.16    1.96 
   2  -9   3   80.61    2.32 
   2  -9   3   83.68    2.13 
   2  -9   3   83.87    2.30 
  -3   9  -3   53.40    1.87 
   3  -9   3   54.93    1.74 
   3  -9   3   53.44    1.63 
   3  -9   3   55.16    1.91 
   3  -9   3   54.08    1.91 
   3  -9   3   54.53    1.55 
   3  -9   3   54.80    1.83 
   3  -9   3   52.63    1.92 
  -4   9  -3   12.86    1.12 
   4  -9   3   14.04    1.11 
   4  -9   3   13.59    0.95 
   4  -9   3   13.69    0.92 
   4  -9   3   13.31    1.19 
   4  -9   3   11.70    1.09 
   4  -9   3   15.60    1.23 
   4  -9   3   12.66    0.87 
  -5   9  -3    3.23    0.68 
   5  -9   3    4.31    0.75 
   5  -9   3    5.42    0.95 
   5  -9   3    6.12    0.81 
   5  -9   3    4.56    0.79 
   5  -9   3    5.75    0.70 
   5  -9   3    4.89    0.77 
  -6   9  -3    6.79    1.07 
  -6   9  -3    6.34    1.02 
   6  -9   3    5.93    1.05 
   6  -9   3    6.96    0.65 
   6  -9   3    6.14    0.98 
   6  -9   3    6.64    0.98 
   6  -9   3    6.40    1.09 
  -7   9  -3   20.30    1.28 
  -7   9  -3   16.80    1.51 
   7  -9   3   19.77    1.37 
   7  -9   3   19.12    1.59 
   7  -9   3   19.86    1.81 
   7  -9   3   21.88    1.26 
  -8   9  -3   47.52    2.06 
   8  -9   3   47.22    2.56 
   8  -9   3   47.40    2.30 
  -9   9  -3    1.46    1.04 
   9  -9   3    1.54    1.14 
   9  -9   3    1.33    0.93 
   9   8  -3   19.91    1.90 
  -9  -8   3   20.25    1.73 
  -9  -8   3   19.54    1.99 
   8   8  -3    4.06    0.72 
   8   8  -3    2.95    0.79 
  -8  -8   3    2.26    0.90 
  -8  -8   3    2.07    1.13 
   7   8  -3   25.46    1.48 
   7   8  -3   23.43    1.87 
  -7  -8   3   25.10    1.68 
  -7  -8   3   25.94    1.49 
   6   8  -3    7.60    1.07 
   6   8  -3    6.11    0.90 
   6   8  -3    5.96    1.06 
   6   8  -3    6.50    1.02 
  -6  -8   3    7.23    0.96 
  -6  -8   3    6.01    0.66 
  -6  -8   3    5.95    1.02 
   5   8  -3  184.03    4.38 
   5   8  -3  180.93    4.53 
   5   8  -3  191.76    3.86 
  -5  -8   3  188.98    3.93 
  -5  -8   3  187.69    4.58 
  -5  -8   3  186.90    4.38 
  -5  -8   3  179.98    4.28 
   4   8  -3  105.31    2.88 
   4   8  -3  101.65    2.77 
  -4  -8   3  101.55    2.77 
  -4  -8   3  103.39    2.83 
  -4  -8   3  106.64    2.80 
   3   8  -3    1.28    0.42 
   3   8  -3    1.79    0.56 
   3   8  -3    1.46    0.36 
  -3  -8   3    0.57    0.45 
  -3  -8   3    2.23    0.61 
  -3  -8   3    1.23    0.46 
   2   8  -3    4.11    0.54 
   2   8  -3    2.88    0.63 
   2   8  -3    3.35    0.61 
  -2  -8   3    3.99    0.64 
  -2  -8   3    2.68    0.60 
  -2  -8   3    2.49    0.48 
   1   8  -3   13.74    1.01 
   1   8  -3   13.61    0.97 
  -1  -8   3   11.95    0.79 
  -1  -8   3   12.08    0.84 
  -1  -8   3   13.50    0.82 
   0   8  -3   47.09    1.40 
   0   8  -3   44.28    1.55 
   0  -8   3   45.53    1.47 
   0  -8   3   44.33    1.49 
   0  -8   3   43.66    1.49 
  -1   8  -3    3.28    0.48 
  -1   8  -3    3.52    0.63 
   1  -8   3    2.70    0.61 
   1  -8   3    4.25    0.63 
   1  -8   3    2.44    0.52 
   1  -8   3    3.50    0.60 
   1  -8   3    3.30    0.59 
  -2   8  -3   15.35    0.90 
   2  -8   3   15.51    0.82 
   2  -8   3   15.52    0.94 
   2  -8   3   16.27    0.91 
   2  -8   3   15.31    0.93 
   2  -8   3   15.84    0.91 
   2  -8   3   15.83    0.78 
   2  -8   3   14.78    0.77 
  -3   8  -3  117.12    3.03 
   3  -8   3  116.80    2.70 
   3  -8   3  114.39    3.04 
   3  -8   3  117.28    2.94 
   3  -8   3  118.90    2.99 
   3  -8   3  115.62    2.76 
   3  -8   3  117.78    2.93 
   3  -8   3  116.06    2.68 
  -4   8  -3  151.70    3.80 
   4  -8   3  152.35    3.83 
   4  -8   3  156.54    3.58 
   4  -8   3  154.63    3.64 
   4  -8   3  154.17    3.48 
   4  -8   3  154.53    3.41 
   4  -8   3  150.79    3.40 
   4  -8   3  152.32    3.67 
  -5   8  -3   45.66    1.89 
   5  -8   3   48.47    1.50 
   5  -8   3   49.86    1.73 
   5  -8   3   47.28    1.64 
   5  -8   3   48.15    1.70 
   5  -8   3   48.07    1.95 
   5  -8   3   47.32    1.54 
   5  -8   3   47.76    1.90 
  -6   8  -3   -0.08    0.52 
   6  -8   3    0.26    0.82 
   6  -8   3   -0.07    0.67 
   6  -8   3    0.37    0.50 
   6  -8   3   -0.20    0.37 
   6  -8   3   -0.18    0.51 
  -7   8  -3    3.51    0.78 
  -7   8  -3    4.82    0.77 
   7  -8   3    6.60    0.83 
   7  -8   3    5.43    0.94 
   7  -8   3    4.50    1.14 
   7  -8   3    4.33    0.69 
  -8   8  -3   12.35    1.56 
  -8   8  -3   10.38    1.44 
   8  -8   3   13.22    1.38 
   8  -8   3   15.44    1.77 
  -9   8  -3    0.16    0.83 
  -9   8  -3    0.86    0.87 
   9  -8   3    0.12    0.67 
   9  -8   3    0.92    1.00 
 -10   8  -3    4.16    1.20 
  10  -8   3    4.71    1.45 
  10  -8   3    3.60    1.29 
  10   7  -3    6.60    1.46 
 -10  -7   3    5.57    1.03 
 -10  -7   3   10.35    1.80 
   9   7  -3   28.34    2.30 
  -9  -7   3   31.30    2.02 
  -9  -7   3   33.78    1.85 
   8   7  -3    1.16    1.03 
   8   7  -3    1.43    0.79 
   8   7  -3    1.92    0.85 
  -8  -7   3    1.56    0.68 
  -8  -7   3    3.43    0.99 
  -8  -7   3    0.51    0.79 
   7   7  -3   -0.15    0.57 
   7   7  -3   -0.56    0.52 
   7   7  -3    0.42    0.59 
   7   7  -3    0.32    0.95 
  -7  -7   3   -0.60    0.71 
  -7  -7   3   -0.32    0.47 
  -7  -7   3    0.79    0.53 
   6   7  -3    4.11    0.96 
   6   7  -3    4.00    0.58 
   6   7  -3    6.11    0.93 
   6   7  -3    4.99    0.77 
  -6  -7   3    4.95    0.91 
  -6  -7   3    4.30    0.60 
  -6  -7   3    4.75    0.74 
   5   7  -3  191.93    4.40 
   5   7  -3  189.67    4.49 
  -5  -7   3  185.68    3.92 
  -5  -7   3  190.06    4.52 
  -5  -7   3  190.98    4.31 
  -5  -7   3  192.94    4.30 
   4   7  -3   10.73    0.63 
   4   7  -3    9.15    0.80 
   4   7  -3    9.44    1.03 
  -4  -7   3   10.71    0.92 
  -4  -7   3    8.88    0.85 
  -4  -7   3    8.54    1.01 
   3   7  -3    0.91    0.29 
   3   7  -3    0.68    0.32 
   3   7  -3    1.02    0.46 
  -3  -7   3    1.39    0.53 
  -3  -7   3    0.39    0.48 
  -3  -7   3    1.02    0.45 
   2   7  -3    0.11    0.41 
   2   7  -3    0.31    0.39 
   2   7  -3    0.29    0.22 
  -2  -7   3   -0.55    0.32 
  -2  -7   3    0.07    0.32 
  -2  -7   3   -0.10    0.40 
   1   7  -3  114.30    2.43 
   1   7  -3  110.95    2.70 
   1   7  -3  113.29    2.80 
  -1  -7   3  107.90    2.64 
  -1  -7   3  106.42    2.65 
  -1  -7   3  111.31    2.64 
   0   7  -3  105.64    2.61 
   0   7  -3  103.06    2.58 
   0  -7   3  101.89    2.53 
   0  -7   3  104.00    2.49 
   0  -7   3  103.87    2.48 
  -1   7  -3   90.89    2.25 
   1  -7   3   91.71    2.26 
   1  -7   3   89.83    2.34 
   1  -7   3   92.85    2.39 
   1  -7   3   92.30    2.34 
   1  -7   3   91.08    2.23 
   2  -7   3   -0.26    0.34 
   2  -7   3   -0.14    0.30 
   2  -7   3    0.17    0.26 
   2  -7   3    0.08    0.35 
   2  -7   3   -0.23    0.35 
   2  -7   3   -0.02    0.30 
   2  -7   3    0.44    0.27 
  -3   7  -3   20.82    1.03 
   3  -7   3   18.62    0.86 
   3  -7   3   19.24    0.90 
   3  -7   3   19.12    1.01 
   3  -7   3   21.40    0.90 
   3  -7   3   18.28    0.96 
   3  -7   3   19.12    0.93 
   3  -7   3   19.68    1.11 
  -4   7  -3   89.10    2.52 
   4  -7   3   92.50    2.31 
   4  -7   3   90.05    2.54 
   4  -7   3   89.08    2.22 
   4  -7   3   91.88    2.35 
   4  -7   3   91.73    2.29 
   4  -7   3   92.35    2.17 
   4  -7   3   89.83    2.52 
  -5   7  -3    3.21    0.73 
   5  -7   3    3.21    0.43 
   5  -7   3    2.96    0.73 
   5  -7   3    3.39    0.64 
   5  -7   3    3.31    0.50 
   5  -7   3    3.13    0.51 
   5  -7   3    2.48    0.51 
  -6   7  -3   76.45    2.19 
   6  -7   3   77.66    2.61 
   6  -7   3   78.37    2.09 
   6  -7   3   79.99    2.12 
   6  -7   3   76.97    2.61 
   6  -7   3   78.19    2.33 
  -7   7  -3    0.88    1.43 
  -7   7  -3    1.07    0.63 
   7  -7   3    1.60    0.83 
   7  -7   3    2.58    0.56 
   7  -7   3    2.52    1.05 
  -8   7  -3    0.82    0.80 
  -8   7  -3    0.25    0.78 
   8  -7   3    1.42    0.92 
   8  -7   3    0.76    0.93 
  -9   7  -3    7.96    1.40 
  -9   7  -3    4.94    1.04 
   9  -7   3    2.34    0.85 
   9  -7   3    4.19    1.14 
 -10   7  -3    9.35    1.43 
 -10   7  -3   11.82    1.58 
  10  -7   3   10.36    1.80 
  10   6  -3    5.86    1.24 
 -10  -6   3    5.75    1.24 
 -10  -6   3    6.42    0.99 
   9   6  -3   10.68    1.43 
   9   6  -3    8.51    1.00 
  -9  -6   3    7.35    1.14 
  -9  -6   3    7.29    1.12 
  -9  -6   3    7.95    1.06 
   8   6  -3   32.87    1.60 
   8   6  -3   35.27    1.55 
   8   6  -3   32.29    1.82 
   8   6  -3   35.35    1.47 
  -8  -6   3   32.12    1.55 
  -8  -6   3   28.28    1.82 
  -8  -6   3   34.31    1.43 
   7   6  -3   22.62    1.62 
   7   6  -3   23.67    1.11 
   7   6  -3   21.15    1.25 
   7   6  -3   21.10    1.29 
  -7  -6   3   22.67    1.13 
  -7  -6   3   18.41    1.59 
  -7  -6   3   22.57    1.14 
   6   6  -3    4.23    0.78 
   6   6  -3    5.12    0.70 
   6   6  -3    5.36    0.83 
   6   6  -3    5.42    0.68 
  -6  -6   3    4.86    0.82 
  -6  -6   3    5.29    0.83 
  -6  -6   3    4.24    0.62 
   5   6  -3   34.23    1.05 
   5   6  -3   32.69    1.33 
   5   6  -3   33.81    1.54 
  -5  -6   3   31.75    1.45 
  -5  -6   3   31.42    1.32 
  -5  -6   3   31.09    1.10 
   4   6  -3   38.74    1.02 
   4   6  -3   37.13    1.45 
   4   6  -3   37.73    1.39 
  -4  -6   3   36.40    1.32 
  -4  -6   3   35.46    1.38 
  -4  -6   3   35.97    1.31 
   3   6  -3   23.14    1.06 
   3   6  -3   22.74    1.12 
   3   6  -3   24.69    0.72 
  -3  -6   3   22.60    1.01 
  -3  -6   3   22.34    0.99 
  -3  -6   3   21.94    0.98 
   2   6  -3    2.53    0.45 
   2   6  -3    2.41    0.32 
   2   6  -3    1.51    0.34 
  -2  -6   3    2.04    0.43 
  -2  -6   3    1.67    0.37 
  -2  -6   3    2.92    0.52 
   1   6  -3   95.65    2.42 
   1   6  -3  101.41    2.11 
   1   6  -3  100.44    2.40 
  -1  -6   3   97.39    2.37 
  -1  -6   3   97.39    2.34 
  -1  -6   3   97.94    2.34 
   0   6  -3  100.94    2.22 
   0  -6   3  100.40    2.34 
   0  -6   3   98.29    2.33 
   0  -6   3   99.21    2.40 
  -1   6  -3   93.78    2.50 
   1  -6   3  102.11    2.36 
   1  -6   3  102.24    2.41 
   1  -6   3   99.14    2.41 
   1  -6   3  100.04    2.34 
   1  -6   3  102.03    2.40 
  -2   6  -3    9.29    0.72 
   2  -6   3    8.59    0.60 
   2  -6   3    8.89    0.54 
   2  -6   3    7.96    0.65 
   2  -6   3    8.53    0.57 
   2  -6   3    9.09    0.73 
   2  -6   3    8.39    0.62 
   2  -6   3    9.03    0.62 
   3  -6   3   59.80    1.57 
   3  -6   3   56.93    1.64 
   3  -6   3   57.87    1.60 
   3  -6   3   58.26    1.75 
   3  -6   3   56.98    1.61 
   3  -6   3   58.50    1.53 
   3  -6   3   57.75    1.74 
   4  -6   3   20.36    1.11 
   4  -6   3   18.75    1.02 
   4  -6   3   18.20    1.03 
   4  -6   3   19.70    1.05 
   4  -6   3   19.89    0.91 
   4  -6   3   20.17    0.85 
   4  -6   3   19.79    0.87 
   4  -6   3   19.96    0.86 
  -5   6  -3    1.32    0.53 
   5  -6   3    0.77    0.46 
   5  -6   3    1.49    0.65 
   5  -6   3    1.41    0.60 
   5  -6   3    0.90    0.57 
   5  -6   3    0.64    0.38 
   5  -6   3    0.99    0.41 
   5  -6   3    1.29    0.37 
  -6   6  -3   41.66    1.55 
   6  -6   3   43.51    1.31 
   6  -6   3   38.63    1.77 
   6  -6   3   43.03    1.32 
   6  -6   3   40.54    1.76 
   6  -6   3   40.30    1.76 
   6  -6   3   42.20    1.69 
  -7   6  -3   12.29    1.15 
   7  -6   3   13.73    2.53 
   7  -6   3   11.92    1.39 
  -8   6  -3    0.01    0.72 
  -8   6  -3    1.03    0.60 
   8  -6   3    0.47    0.77 
   8  -6   3   -0.85    0.47 
  -9   6  -3    1.19    0.99 
  -9   6  -3    0.62    0.96 
   9  -6   3    0.76    0.85 
   9  -6   3    1.95    1.13 
 -10   6  -3   10.24    1.81 
 -10   6  -3   12.87    1.63 
  10  -6   3   14.68    1.97 
  11   5  -3   -0.12    1.14 
 -11  -5   3   -1.82    0.97 
 -11  -5   3   -0.32    0.98 
  10   5  -3    4.80    1.10 
 -10  -5   3    5.39    1.09 
 -10  -5   3    4.58    1.17 
   9   5  -3    9.87    1.57 
   9   5  -3    9.74    1.05 
   9   5  -3    6.04    1.04 
   9   5  -3   12.33    1.28 
  -9  -5   3    9.91    1.71 
  -9  -5   3    8.09    1.21 
  -9  -5   3    8.61    1.09 
   8   5  -3   32.79    1.38 
   8   5  -3   30.07    1.40 
   8   5  -3   32.17    1.38 
   8   5  -3   30.45    1.83 
  -8  -5   3   31.97    1.89 
  -8  -5   3   30.74    1.55 
  -8  -5   3   31.43    1.32 
   7   5  -3   13.73    0.93 
   7   5  -3   12.57    1.26 
   7   5  -3   14.15    0.99 
   7   5  -3   12.90    0.95 
  -7  -5   3   12.72    0.92 
  -7  -5   3   15.21    1.35 
  -7  -5   3   12.99    1.01 
   6   5  -3    5.02    0.73 
   6   5  -3    3.59    0.59 
   6   5  -3    3.68    0.62 
   6   5  -3    4.16    0.65 
  -6  -5   3    4.74    0.65 
  -6  -5   3    4.15    0.70 
  -6  -5   3    3.43    0.67 
   5   5  -3   14.06    0.79 
   5   5  -3   13.51    0.80 
   5   5  -3   13.55    0.66 
   5   5  -3   13.81    1.07 
  -5  -5   3   13.80    0.81 
  -5  -5   3   13.64    0.93 
  -5  -5   3   12.23    0.84 
   4   5  -3   37.54    1.34 
   4   5  -3   37.80    1.39 
   4   5  -3   37.69    0.97 
  -4  -5   3   37.73    1.24 
  -4  -5   3   38.19    1.39 
  -4  -5   3   37.23    1.22 
   3   5  -3    1.62    0.27 
   3   5  -3    0.70    0.45 
   3   5  -3    0.43    0.24 
  -3  -5   3    1.75    0.44 
  -3  -5   3    0.86    0.30 
  -3  -5   3    1.14    0.37 
   2   5  -3  112.04    2.63 
   2   5  -3  115.17    2.22 
  -2  -5   3  110.71    2.54 
  -2  -5   3  114.00    2.62 
  -2  -5   3  112.86    2.54 
   1   5  -3    5.23    0.56 
   1   5  -3    5.04    0.37 
  -1  -5   3    4.15    0.44 
  -1  -5   3    4.37    0.50 
   0   5  -3    9.05    0.49 
   0   5  -3    7.34    0.57 
   0  -5   3    8.29    0.52 
   0  -5   3    9.71    0.66 
  -1   5  -3   24.85    0.87 
   1  -5   3   26.68    1.12 
   2  -5   3  160.38    3.45 
   2  -5   3  154.23    3.28 
   2  -5   3  148.51    3.51 
   2  -5   3  155.59    3.34 
   3  -5   3   57.10    1.66 
   3  -5   3   57.88    1.52 
   3  -5   3   58.35    1.70 
   3  -5   3   57.20    1.55 
   3  -5   3   59.46    1.60 
   3  -5   3   58.67    1.69 
   4  -5   3    0.79    0.39 
   4  -5   3    0.15    0.29 
   4  -5   3   -0.32    0.26 
   4  -5   3    0.16    0.28 
   4  -5   3    0.25    0.43 
   4  -5   3    0.30    0.32 
  -5   5  -3    2.41    0.50 
   5  -5   3    2.64    0.56 
   5  -5   3    1.47    0.41 
   5  -5   3    1.71    0.43 
   5  -5   3    1.22    0.40 
  -6   5  -3   15.50    1.03 
   6  -5   3   14.93    1.09 
   6  -5   3   13.70    1.07 
   6  -5   3   14.83    1.15 
   6  -5   3   13.90    1.05 
  -7   5  -3   15.31    1.12 
   7  -5   3   17.97    1.46 
   7  -5   3   13.62    1.34 
   7  -5   3   13.19    1.18 
  -8   5  -3   -0.06    0.77 
  -8   5  -3    0.49    0.77 
   8  -5   3   -0.75    0.54 
  -9   5  -3    1.39    0.98 
  -9   5  -3    0.68    0.99 
   9  -5   3    2.09    1.18 
   9  -5   3   -1.14    0.79 
 -10   5  -3    6.55    1.13 
 -10   5  -3    6.86    1.31 
  10  -5   3    4.85    1.27 
  11   4  -3    0.99    1.05 
 -11  -4   3   -0.84    1.01 
 -11  -4   3   -0.49    0.85 
  10   4  -3    5.99    1.32 
  10   4  -3    5.07    1.31 
 -10  -4   3    6.57    1.11 
 -10  -4   3    6.03    1.37 
   9   4  -3    2.70    0.83 
   9   4  -3    3.82    0.63 
   9   4  -3    3.41    1.03 
   9   4  -3    5.12    0.92 
   9   4  -3    3.43    0.63 
  -9  -4   3    3.87    0.90 
  -9  -4   3    3.21    1.00 
   8   4  -3   36.00    1.46 
   8   4  -3   35.16    1.36 
   8   4  -3   34.39    1.83 
   8   4  -3   33.45    1.42 
   8   4  -3   34.48    1.35 
  -8  -4   3   35.88    1.33 
  -8  -4   3   31.61    1.53 
  -8  -4   3   29.26    1.52 
   7   4  -3    9.76    0.89 
   7   4  -3    9.85    0.89 
   7   4  -3    8.43    1.03 
   7   4  -3    9.61    0.83 
   7   4  -3    9.56    0.85 
  -7  -4   3    9.01    0.81 
  -7  -4   3   10.28    0.95 
   6   4  -3    5.31    0.66 
   6   4  -3    6.69    0.66 
   6   4  -3    5.91    0.63 
   6   4  -3    5.41    0.77 
  -6  -4   3    7.16    0.70 
  -6  -4   3    6.24    0.64 
  -6  -4   3    6.93    0.90 
   5   4  -3   23.25    1.01 
   5   4  -3   22.93    0.92 
   5   4  -3   22.59    0.78 
   5   4  -3   22.20    1.15 
  -5  -4   3   22.28    0.88 
  -5  -4   3   21.90    1.09 
  -5  -4   3   22.40    0.99 
   4   4  -3    4.05    0.33 
   4   4  -3    5.51    0.73 
   4   4  -3    3.92    0.56 
  -4  -4   3    3.67    0.47 
  -4  -4   3    3.76    0.59 
   3   4  -3   32.13    0.73 
   3   4  -3   31.80    1.06 
  -3  -4   3   33.49    1.17 
  -3  -4   3   33.25    0.79 
  -3  -4   3   32.93    1.09 
  -3  -4   3   31.43    1.06 
   2   4  -3   92.40    1.74 
   2   4  -3   92.30    2.18 
   1   4  -3  104.21    2.38 
   1   4  -3  108.75    2.09 
   1   4  -3  105.75    2.11 
   0   4  -3    4.08    0.34 
   0   4  -3    2.67    0.34 
  -1   4  -3   37.49    1.13 
   1  -4   3   37.77    1.03 
   2  -4   3  165.98    3.49 
   3  -4   3  159.28    3.48 
   3  -4   3  152.36    3.24 
   3  -4   3  159.15    3.36 
   3  -4   3  155.63    3.34 
   3  -4   3  158.32    3.45 
   3  -4   3  159.40    3.48 
   4  -4   3   79.46    2.19 
   4  -4   3   82.77    1.82 
   4  -4   3   76.42    2.16 
   4  -4   3   80.62    2.21 
   4  -4   3   79.72    2.08 
  -5   4  -3    0.18    0.43 
   5  -4   3    0.13    0.47 
   5  -4   3   -0.10    0.36 
   5  -4   3    0.77    0.51 
   5  -4   3   -0.28    0.24 
  -6   4  -3   70.19    2.08 
  -6   4  -3   74.52    1.63 
   6  -4   3   70.99    2.28 
   6  -4   3   69.21    2.09 
   6  -4   3   73.11    2.37 
   6  -4   3   70.84    2.29 
  -7   4  -3   68.90    2.23 
   7  -4   3   69.66    2.29 
   7  -4   3   67.04    2.48 
   7  -4   3   70.21    2.43 
  -8   4  -3    8.95    1.38 
  -8   4  -3   11.08    1.22 
   8  -4   3    9.64    1.09 
   8  -4   3   12.68    1.51 
  -9   4  -3    5.55    0.93 
  -9   4  -3    7.15    1.19 
   9  -4   3    2.24    0.86 
   9  -4   3    4.02    0.88 
 -10   4  -3   11.04    1.44 
 -10   4  -3    6.90    1.30 
  10  -4   3   10.92    2.00 
  11   3  -3   -0.07    0.88 
 -11  -3   3    1.29    1.00 
 -11  -3   3    1.58    1.27 
  10   3  -3    2.04    0.99 
  10   3  -3    1.79    1.06 
 -10  -3   3    0.28    0.66 
 -10  -3   3    2.43    0.94 
   9   3  -3   10.38    0.91 
   9   3  -3   10.79    1.12 
   9   3  -3    8.51    1.22 
   9   3  -3   10.23    0.92 
  -9  -3   3    9.84    1.27 
  -9  -3   3    9.94    1.24 
   8   3  -3    6.09    0.78 
   8   3  -3    4.82    0.70 
   8   3  -3    5.27    0.81 
   8   3  -3    4.68    0.64 
   8   3  -3    4.52    0.87 
  -8  -3   3    6.24    0.74 
  -8  -3   3    5.16    0.95 
  -8  -3   3    5.87    0.87 
   7   3  -3    8.03    0.80 
   7   3  -3    7.95    0.81 
   7   3  -3    7.65    0.74 
   7   3  -3    7.02    1.01 
   7   3  -3    8.82    0.66 
  -7  -3   3    9.36    1.10 
  -7  -3   3    7.18    0.79 
  -7  -3   3    7.42    0.72 
   6   3  -3  209.67    4.37 
   6   3  -3  210.59    4.23 
   6   3  -3  205.47    4.60 
   6   3  -3  210.06    4.41 
  -6  -3   3  209.30    4.45 
  -6  -3   3  207.32    4.20 
  -6  -3   3  198.67    4.55 
   5   3  -3   63.12    1.75 
   5   3  -3   60.30    1.48 
   5   3  -3   61.99    1.71 
   5   3  -3   63.23    1.71 
  -5  -3   3   60.46    1.81 
  -5  -3   3   63.05    1.70 
   4   3  -3   14.17    0.72 
   4   3  -3   13.70    0.50 
  -4  -3   3   12.63    0.75 
   3   3  -3  215.31    4.10 
   3   3  -3  231.81    4.51 
  -3  -3   3  223.29    4.12 
   2   3  -3   69.91    1.69 
   1   3  -3  389.33    7.36 
   0   3  -3   27.72    0.86 
   0  -3   3   27.71    0.73 
  -1   3  -3   21.92    0.73 
   1  -3   3   23.04    0.75 
  -2   3  -3   84.63    1.83 
  -3   3  -3  354.04    6.67 
   3  -3   3  358.38    7.03 
   3  -3   3  358.82    6.93 
   3  -3   3  354.22    7.03 
   3  -3   3  358.36    7.03 
   3  -3   3  359.34    6.93 
  -4   3  -3   70.12    1.49 
  -4   3  -3   69.71    1.85 
   4  -3   3   69.15    2.00 
   4  -3   3   65.30    1.93 
   4  -3   3   65.41    1.82 
   4  -3   3   69.02    1.90 
  -5   3  -3    0.49    0.18 
  -5   3  -3   -0.13    0.40 
   5  -3   3   -0.04    0.35 
   5  -3   3   -0.14    0.41 
   5  -3   3    0.57    0.47 
  -6   3  -3   52.04    1.76 
   6  -3   3   50.01    1.81 
   6  -3   3   46.66    1.68 
   6  -3   3   51.57    1.98 
   6  -3   3   53.08    1.98 
  -7   3  -3  110.28    2.92 
   7  -3   3   99.21    3.59 
   7  -3   3  104.52    3.04 
   7  -3   3  108.64    2.99 
   7  -3   3  108.93    3.26 
  -8   3  -3   36.53    1.76 
  -8   3  -3   33.91    1.69 
   8  -3   3   36.78    2.08 
   8  -3   3   41.58    2.13 
  -9   3  -3   20.50    1.49 
  -9   3  -3   23.74    1.79 
   9  -3   3   22.37    1.95 
   9  -3   3   17.33    1.37 
 -10   3  -3    1.47    1.05 
 -10   3  -3    0.82    1.04 
  10  -3   3    2.31    1.25 
  12   2  -3    4.65    1.51 
  12   2  -3    3.49    1.41 
 -12  -2   3    4.11    1.48 
 -12  -2   3    4.63    1.16 
  11   2  -3   -0.32    0.88 
  11   2  -3    0.48    0.96 
 -11  -2   3    1.05    0.89 
 -11  -2   3    1.13    0.88 
  10   2  -3   30.61    1.59 
  10   2  -3   28.98    1.77 
  10   2  -3   26.27    1.88 
 -10  -2   3   26.78    1.74 
 -10  -2   3   28.15    1.98 
   9   2  -3   38.56    1.97 
   9   2  -3   38.57    1.76 
   9   2  -3   41.17    1.45 
   9   2  -3   37.79    1.69 
   9   2  -3   40.94    1.50 
  -9  -2   3   40.22    1.82 
  -9  -2   3   40.86    1.95 
   8   2  -3    1.30    0.44 
   8   2  -3    1.46    0.77 
   8   2  -3    1.29    0.43 
   8   2  -3    2.35    0.59 
   8   2  -3    1.44    0.36 
  -8  -2   3   -0.01    0.63 
  -8  -2   3    1.12    0.70 
   7   2  -3   37.04    1.32 
   7   2  -3   36.57    1.25 
   7   2  -3   36.37    1.33 
   7   2  -3   38.61    1.28 
   7   2  -3   38.26    1.59 
  -7  -2   3   36.62    1.48 
  -7  -2   3   35.17    1.42 
   6   2  -3   76.97    1.95 
   6   2  -3   77.03    2.18 
   6   2  -3   76.76    1.90 
   6   2  -3   78.20    2.00 
  -6  -2   3   76.89    2.09 
  -6  -2   3   74.49    2.14 
   5   2  -3  283.01    6.04 
   5   2  -3  296.79    5.86 
   5   2  -3  283.67    5.64 
   5   2  -3  305.91    5.96 
  -5  -2   3  301.12    5.95 
  -5  -2   3  295.12    5.86 
   4   2  -3   34.66    0.89 
   4   2  -3   37.00    1.12 
  -4  -2   3   34.31    1.18 
  -3  -2   3    0.23    0.13 
   2   2  -3  109.45    2.34 
  -1   2  -3   31.63    0.82 
   1  -2   3   32.80    0.91 
  -2   2  -3    6.82    0.34 
   2  -2   3    6.22    0.60 
  -3   2  -3   92.06    1.79 
  -3   2  -3   92.44    1.78 
   3  -2   3   87.35    2.19 
   3  -2   3   89.19    2.19 
   3  -2   3   88.48    2.13 
  -4   2  -3   27.14    1.08 
   4  -2   3   26.06    1.03 
   4  -2   3   25.70    1.12 
   4  -2   3   26.10    1.08 
   4  -2   3   26.23    1.10 
  -5   2  -3   10.41    0.81 
   5  -2   3   12.36    1.00 
   5  -2   3   12.83    1.00 
   5  -2   3   10.66    0.77 
   5  -2   3   11.25    0.96 
   6  -2   3   -0.55    0.34 
   6  -2   3   -0.76    0.50 
   6  -2   3   -0.59    0.42 
   6  -2   3   -0.18    0.53 
  -7   2  -3    8.69    1.15 
   7  -2   3    5.79    0.85 
   7  -2   3    7.54    0.99 
   7  -2   3    7.77    0.96 
   7  -2   3    7.34    0.99 
  -8   2  -3   17.79    2.65 
  -8   2  -3   21.95    1.50 
   8  -2   3   20.76    1.68 
   8  -2   3   15.93    1.36 
  -9   2  -3   10.85    1.37 
  -9   2  -3    9.44    1.44 
   9  -2   3    8.27    1.16 
   9  -2   3   11.96    1.49 
 -10   2  -3    8.51    1.40 
 -10   2  -3    7.64    1.25 
  10  -2   3   12.24    1.87 
  10  -2   3   12.71    2.06 
  12   1  -3   -1.06    1.21 
 -12  -1   3    0.78    1.27 
 -12  -1   3    0.68    0.97 
  11   1  -3    3.13    0.95 
  11   1  -3    2.77    1.22 
 -11  -1   3    3.39    0.90 
 -11  -1   3    2.53    0.91 
  10   1  -3   43.46    2.46 
  10   1  -3   44.34    2.26 
  10   1  -3   46.86    1.96 
 -10  -1   3   43.59    2.16 
 -10  -1   3   42.67    2.23 
   9   1  -3   37.94    1.37 
   9   1  -3   38.29    1.98 
   9   1  -3   41.51    1.60 
   9   1  -3   42.16    1.71 
   9   1  -3   37.26    1.37 
  -9  -1   3   39.71    1.72 
  -9  -1   3   43.00    1.78 
   8   1  -3   15.39    0.91 
   8   1  -3   17.55    1.10 
   8   1  -3   15.59    0.99 
   8   1  -3   15.83    1.14 
   8   1  -3   16.72    1.16 
  -8  -1   3   16.19    1.05 
  -8  -1   3   15.35    1.00 
   7   1  -3    0.38    0.45 
   7   1  -3   -0.04    0.50 
   7   1  -3    0.97    0.43 
   7   1  -3   -0.05    0.41 
   7   1  -3    0.26    0.33 
  -7  -1   3    0.46    0.42 
  -7  -1   3    0.37    0.41 
   6   1  -3  106.43    2.48 
   6   1  -3  103.91    2.47 
   6   1  -3  107.32    2.47 
   6   1  -3  109.38    2.52 
   6   1  -3  104.81    2.66 
  -6  -1   3  107.04    2.59 
  -6  -1   3  105.32    2.58 
   5   1  -3  176.04    3.72 
   5   1  -3  168.10    3.48 
   5   1  -3  168.54    3.60 
  -5  -1   3  170.63    3.67 
  -5  -1   3  174.45    3.68 
   4   1  -3  240.67    4.79 
   3   1  -3   57.18    1.43 
  -3  -1   3   55.66    1.22 
   2   1  -3    2.86    0.20 
   2   1  -3    2.77    0.34 
  -2  -1   3    3.70    0.22 
   0   1  -3  346.97    6.39 
   0  -1   3  341.97    6.41 
  -1   1  -3  122.42    2.44 
   1  -1   3  124.45    2.64 
   1  -1   3  133.08    2.46 
  -2   1  -3   27.86    0.61 
  -2   1  -3   26.75    0.62 
  -3   1  -3  196.78    4.15 
   3  -1   3  207.81    4.24 
   3  -1   3  196.93    4.46 
   3  -1   3  202.59    4.24 
   3  -1   3  200.76    4.11 
  -4   1  -3  132.50    3.02 
   4  -1   3  131.81    3.13 
   4  -1   3  127.06    3.06 
   4  -1   3  127.07    3.03 
   4  -1   3  132.48    2.97 
  -5   1  -3  101.18    2.56 
   5  -1   3   97.39    2.60 
   5  -1   3   98.75    2.67 
   5  -1   3   94.13    2.42 
   5  -1   3   98.46    2.62 
  -6   1  -3   12.32    1.24 
  -6   1  -3    9.19    0.77 
   6  -1   3   10.78    0.97 
   6  -1   3   11.77    1.03 
   6  -1   3   11.90    1.01 
   6  -1   3   10.95    0.96 
  -7   1  -3    0.14    0.46 
   7  -1   3    0.67    0.71 
   7  -1   3   -0.48    0.54 
  -8   1  -3    3.79    0.85 
  -8   1  -3    5.65    0.97 
   8  -1   3    5.89    1.10 
   8  -1   3    5.70    1.08 
  -9   1  -3    0.82    0.86 
  -9   1  -3   -0.79    0.66 
   9  -1   3   -0.90    0.78 
   9  -1   3   -0.71    0.72 
 -10   1  -3   34.95    2.18 
 -10   1  -3   35.82    1.98 
  10  -1   3   38.19    2.22 
  10  -1   3   36.72    2.10 
  12   0  -3    4.11    1.09 
  12   0  -3    4.09    1.32 
 -12   0   3    6.45    1.18 
 -12   0   3    5.92    1.28 
  11   0  -3    2.91    1.15 
  11   0  -3    4.45    0.87 
 -11   0   3    1.35    1.11 
 -11   0   3    4.43    1.18 
  10   0  -3    4.69    1.04 
  10   0  -3    4.04    0.96 
  10   0  -3    8.08    1.13 
  10   0  -3    5.70    0.72 
 -10   0   3    4.30    0.88 
 -10   0   3    5.65    1.05 
   9   0  -3   89.93    2.30 
   9   0  -3   89.42    2.34 
   9   0  -3   91.40    2.96 
   9   0  -3   92.63    2.65 
  -9   0   3   92.17    2.81 
  -9   0   3   90.53    2.70 
   8   0  -3  149.01    3.37 
   8   0  -3  147.40    3.35 
   8   0  -3  149.20    3.50 
   8   0  -3  156.90    3.62 
   8   0  -3  147.48    3.78 
  -8   0   3  145.36    3.64 
  -8   0   3  150.34    3.65 
   7   0  -3    4.32    0.63 
   7   0  -3    4.43    0.58 
   7   0  -3    4.60    0.58 
   7   0  -3    4.84    0.80 
   7   0  -3    3.97    0.61 
  -7   0   3    4.03    0.70 
  -7   0   3    4.90    0.72 
   6   0  -3   15.21    0.90 
   6   0  -3   14.43    0.81 
   6   0  -3   14.33    0.76 
   6   0  -3   15.06    0.79 
   6   0  -3   15.51    0.76 
  -6   0   3   12.62    0.80 
  -6   0   3   13.64    0.83 
   5   0  -3  191.28    3.95 
   5   0  -3  183.95    4.25 
  -5   0   3  193.99    4.00 
   4   0  -3  218.17    4.51 
  -4   0   3  225.28    4.35 
   3   0  -3  127.96    2.71 
  -3   0   3  128.56    2.59 
   2   0  -3   53.30    1.32 
  -2   0   3   57.56    1.24 
   1   0  -3  354.87    6.68 
  -1   0   3  360.12    6.63 
   0   0  -3   88.85    1.83 
   0   0   3   88.65    1.93 
   0   0   3   90.29    1.91 
  -1   0  -3   15.45    0.45 
   1   0   3   15.35    0.64 
   1   0   3   15.09    0.44 
   2   0   3   47.95    1.37 
  -3   0  -3    9.15    0.65 
   3   0   3    8.79    0.73 
   3   0   3    7.44    0.50 
   3   0   3    7.99    0.57 
   3   0   3    9.39    0.67 
  -4   0  -3    8.05    0.72 
   4   0   3    7.30    0.67 
   4   0   3    5.36    0.63 
   4   0   3    6.46    0.70 
   4   0   3    6.98    0.57 
  -5   0  -3   53.51    1.75 
  -5   0  -3   55.02    1.48 
   5   0   3   51.19    1.79 
   5   0   3   49.27    1.69 
   5   0   3   50.81    1.72 
   5   0   3   50.86    1.58 
  -6   0  -3   21.57    1.24 
  -6   0  -3   21.91    0.98 
   6   0   3   19.73    1.21 
   6   0   3   20.56    1.27 
   6   0   3   23.22    1.24 
   6   0   3   19.86    1.20 
  -7   0  -3   48.41    1.48 
  -7   0  -3   47.45    1.90 
   7   0   3   49.04    2.05 
   7   0   3   47.28    2.92 
   7   0   3   47.29    2.11 
  -8   0  -3    3.57    0.93 
  -8   0  -3    4.68    0.86 
   8   0   3    2.82    0.85 
   8   0   3    2.67    0.87 
  -9   0  -3   -0.15    0.61 
  -9   0  -3   -1.20    0.88 
   9   0   3    0.55    0.90 
   9   0   3   -0.49    0.89 
 -10   0  -3   29.38    1.94 
 -10   0  -3   31.19    2.22 
  10   0   3   28.27    2.16 
  10   0   3   28.02    2.02 
  12  -1  -3   22.80    2.38 
  12  -1  -3   17.19    1.73 
 -12   1   3   21.18    1.72 
 -12   1   3   18.06    1.98 
  11  -1  -3    4.94    1.14 
  11  -1  -3    7.65    1.36 
 -11   1   3    6.00    1.17 
 -11   1   3    5.82    1.28 
  10  -1  -3   -0.74    0.92 
  10  -1  -3    0.28    0.65 
  10  -1  -3   -0.55    0.48 
  10  -1  -3   -0.44    0.43 
 -10   1   3    1.62    0.65 
 -10   1   3   -1.05    0.64 
   9  -1  -3   31.67    1.22 
   9  -1  -3   31.31    1.58 
   9  -1  -3   32.40    1.24 
   9  -1  -3   32.62    1.83 
  -9   1   3   33.91    1.73 
  -9   1   3   32.54    1.56 
   8  -1  -3   31.48    1.20 
   8  -1  -3   34.02    1.53 
   8  -1  -3   30.96    1.16 
   8  -1  -3   30.48    1.46 
  -8   1   3   31.73    1.45 
  -8   1   3   33.09    1.49 
   7  -1  -3    0.72    0.48 
   7  -1  -3   -0.59    0.39 
   7  -1  -3    0.59    0.37 
   7  -1  -3    0.24    0.31 
  -7   1   3    0.21    0.50 
  -7   1   3    1.24    0.58 
   6  -1  -3   19.16    0.94 
   6  -1  -3   19.49    0.90 
   6  -1  -3   20.07    0.88 
   6  -1  -3   18.72    0.91 
  -6   1   3   19.43    0.96 
  -6   1   3   19.64    0.94 
  -6   1   3   21.23    0.96 
   5  -1  -3    8.18    0.73 
   5  -1  -3    8.05    0.71 
   5  -1  -3    6.18    0.61 
  -5   1   3    6.80    0.61 
  -5   1   3    7.34    0.61 
   4  -1  -3   30.28    1.00 
  -4   1   3   29.64    0.93 
   3  -1  -3   34.36    1.03 
  -3   1   3   33.96    0.97 
  -2   1   3   18.93    0.64 
   1  -1  -3  127.38    2.65 
  -1   1   3  134.31    2.68 
   0  -1  -3  279.32    5.32 
   0   1   3  288.09    5.47 
  -1  -1  -3   73.56    1.54 
   1   1   3   73.93    1.80 
   1   1   3   78.68    1.57 
  -2  -1  -3   69.43    1.36 
   2   1   3   69.67    1.38 
   2   1   3   67.26    1.74 
  -3  -1  -3   67.68    1.83 
   3   1   3   68.78    1.90 
   3   1   3   68.12    1.86 
   3   1   3   68.68    1.85 
   3   1   3   69.23    1.73 
  -4  -1  -3    0.11    0.32 
  -4  -1  -3    0.61    0.44 
   4   1   3    0.07    0.35 
   4   1   3    0.22    0.40 
   4   1   3   -0.26    0.34 
   4   1   3    0.17    0.33 
  -5  -1  -3    3.96    0.67 
  -5  -1  -3    4.88    0.56 
   5   1   3    3.86    0.69 
   5   1   3    3.31    0.56 
   5   1   3    3.56    0.59 
  -6  -1  -3  140.84    3.62 
  -6  -1  -3  144.67    3.14 
   6   1   3  139.10    3.35 
   6   1   3  139.56    3.70 
   6   1   3  139.40    3.55 
   6   1   3  140.97    3.63 
  -7  -1  -3   52.59    1.61 
  -7  -1  -3   54.63    2.16 
  -7  -1  -3   50.79    1.96 
   7   1   3   49.34    2.10 
   7   1   3   48.83    1.88 
  -8  -1  -3   19.30    1.60 
  -8  -1  -3   20.03    1.52 
   8   1   3   17.90    1.38 
   8   1   3   16.70    1.52 
  -9  -1  -3    1.50    0.97 
  -9  -1  -3   -0.28    0.86 
   9   1   3    0.25    0.93 
   9   1   3    0.68    1.00 
 -10  -1  -3   10.98    1.59 
 -10  -1  -3   15.46    1.57 
  10   1   3   16.99    2.08 
  10   1   3   16.82    1.98 
  12  -2  -3    6.02    1.11 
  12  -2  -3    7.43    1.57 
 -12   2   3    7.70    1.42 
  11  -2  -3   -0.57    0.71 
  11  -2  -3    1.69    1.10 
 -11   2   3    2.41    1.13 
 -11   2   3    0.70    0.79 
  10  -2  -3    6.66    0.78 
  10  -2  -3    6.25    0.87 
  10  -2  -3    4.36    1.10 
 -10   2   3    7.46    0.97 
 -10   2   3    5.29    0.96 
   9  -2  -3    2.46    0.96 
   9  -2  -3    1.38    0.41 
   9  -2  -3    0.61    0.49 
   9  -2  -3    0.78    0.46 
  -9   2   3    0.50    0.71 
  -9   2   3    1.12    0.55 
  -9   2   3    1.45    0.75 
   8  -2  -3   54.25    1.83 
   8  -2  -3   55.53    1.65 
   8  -2  -3   58.44    2.13 
   8  -2  -3   54.13    1.68 
  -8   2   3   56.28    1.87 
  -8   2   3   53.75    1.90 
  -8   2   3   54.14    1.78 
   7  -2  -3    0.19    0.46 
   7  -2  -3    0.98    0.54 
   7  -2  -3    0.55    0.34 
   7  -2  -3    0.56    0.30 
  -7   2   3    0.46    0.50 
  -7   2   3    0.27    0.46 
  -7   2   3    1.12    0.56 
   6  -2  -3   75.00    1.96 
   6  -2  -3   72.95    2.04 
   6  -2  -3   72.36    2.00 
   6  -2  -3   75.71    1.93 
  -6   2   3   73.35    2.01 
  -6   2   3   75.04    2.02 
   5  -2  -3    4.94    0.64 
   5  -2  -3    5.59    0.57 
   5  -2  -3    4.72    0.54 
   5  -2  -3    4.13    0.51 
  -5   2   3    5.75    0.60 
  -5   2   3    3.46    0.48 
   4  -2  -3    3.10    0.50 
   3  -2  -3    4.90    0.47 
  -3   2   3    5.27    0.48 
   2  -2  -3   95.55    2.14 
  -2   2   3   95.91    2.14 
   1  -2  -3  318.88    6.11 
  -1   2   3  324.48    6.18 
   0  -2  -3    7.57    0.41 
   0   2   3    7.98    0.52 
  -1  -2  -3   22.56    0.66 
  -2  -2  -3  215.75    4.13 
  -2  -2  -3  224.70    4.49 
   2   2   3  221.70    4.52 
   2   2   3  216.38    4.55 
   2   2   3  216.99    4.59 
  -3  -2  -3  235.32    4.98 
  -3  -2  -3  242.18    4.87 
   3   2   3  243.84    4.51 
   3   2   3  240.88    5.02 
   3   2   3  242.34    5.07 
   3   2   3  248.45    4.83 
   3   2   3  240.55    5.10 
  -4  -2  -3   17.68    0.84 
  -4  -2  -3   18.56    1.02 
   4   2   3   18.40    1.10 
   4   2   3   16.67    1.01 
   4   2   3   17.91    0.83 
   4   2   3   16.88    1.02 
  -5  -2  -3   13.89    1.11 
  -5  -2  -3   11.99    0.81 
   5   2   3   10.95    0.95 
   5   2   3   11.89    0.87 
   5   2   3    9.47    0.92 
   5   2   3   11.38    1.05 
  -6  -2  -3   33.67    1.65 
  -6  -2  -3   35.54    1.30 
   6   2   3   35.28    1.76 
   6   2   3   34.97    1.68 
   6   2   3   33.34    1.49 
  -7  -2  -3   29.73    1.30 
  -7  -2  -3   26.61    1.73 
  -7  -2  -3   28.21    1.39 
   7   2   3   28.03    1.71 
   7   2   3   27.51    1.54 
  -8  -2  -3    8.94    0.97 
  -8  -2  -3    5.42    0.96 
  -8  -2  -3    7.39    1.07 
   8   2   3    6.65    1.18 
   8   2   3    7.71    1.25 
  -9  -2  -3    0.40    0.90 
  -9  -2  -3    0.81    0.81 
   9   2   3    0.68    0.83 
   9   2   3    1.86    0.80 
 -10  -2  -3   14.12    2.04 
 -10  -2  -3   15.57    1.58 
  10   2   3   15.58    1.69 
  10   2   3   14.56    1.78 
  12  -3  -3    2.89    1.36 
  12  -3  -3    0.82    1.18 
 -12   3   3    2.13    1.28 
 -12   3   3    2.66    1.07 
  11  -3  -3   28.65    1.84 
  11  -3  -3   33.38    1.74 
 -11   3   3   30.31    1.98 
 -11   3   3   30.70    1.88 
  10  -3  -3   15.74    1.13 
  10  -3  -3   13.11    1.54 
  10  -3  -3   15.69    1.38 
  10  -3  -3   16.82    0.97 
 -10   3   3   18.68    1.29 
 -10   3   3   15.41    1.39 
   9  -3  -3    0.59    0.51 
   9  -3  -3    0.60    0.79 
   9  -3  -3   -0.11    0.62 
   9  -3  -3    1.15    0.42 
  -9   3   3    0.78    0.58 
  -9   3   3   -0.09    0.54 
  -9   3   3    1.62    0.80 
   8  -3  -3   49.59    1.95 
   8  -3  -3   53.09    1.97 
   8  -3  -3   52.40    1.58 
   8  -3  -3   52.03    1.66 
  -8   3   3   50.92    1.85 
  -8   3   3   51.04    1.86 
  -8   3   3   51.94    1.65 
   7  -3  -3   21.17    0.98 
   7  -3  -3   20.29    1.00 
   7  -3  -3   19.45    1.03 
   7  -3  -3   22.01    1.19 
  -7   3   3   20.74    1.11 
  -7   3   3   21.27    1.14 
  -7   3   3   22.32    1.04 
   6  -3  -3   52.26    1.51 
   6  -3  -3   48.38    1.62 
   6  -3  -3   51.72    1.55 
   6  -3  -3   49.30    1.62 
  -6   3   3   48.72    1.56 
  -6   3   3   50.73    1.64 
   5  -3  -3   30.55    1.13 
   5  -3  -3   32.02    1.14 
   5  -3  -3   32.45    1.11 
  -5   3   3   31.83    1.10 
  -5   3   3   31.47    1.18 
   4  -3  -3   11.14    0.64 
   4  -3  -3   10.91    0.67 
  -4   3   3   10.94    0.80 
  -4   3   3   11.59    0.75 
   3  -3  -3   72.22    1.84 
  -3   3   3   78.11    1.92 
   2  -3  -3  681.49   12.40 
  -2   3   3  650.88   12.47 
  -1   3   3  470.45    8.97 
   0  -3  -3   32.66    0.95 
   0   3   3   32.64    1.12 
  -1  -3  -3    1.80    0.36 
  -1  -3  -3    1.86    0.27 
   1   3   3    2.25    0.41 
  -2  -3  -3  215.18    4.48 
  -2  -3  -3  216.07    4.18 
  -2  -3  -3  217.79    4.44 
   2   3   3  218.50    4.62 
   2   3   3  212.82    4.56 
   2   3   3  218.06    4.51 
  -3  -3  -3  425.34    8.36 
  -3  -3  -3  426.67    8.22 
   3   3   3  423.01    8.33 
   3   3   3  413.69    8.47 
   3   3   3  426.70    8.41 
   3   3   3  434.21    8.08 
  -4  -3  -3   40.05    1.36 
  -4  -3  -3   37.80    1.47 
   4   3   3   37.81    1.44 
   4   3   3   38.91    1.51 
   4   3   3   38.20    1.28 
   4   3   3   40.80    1.59 
   4   3   3   40.80    0.96 
  -5  -3  -3    3.25    0.77 
  -5  -3  -3    2.51    0.54 
   5   3   3    2.79    0.67 
   5   3   3    2.88    0.58 
   5   3   3    2.47    0.75 
  -6  -3  -3    9.46    0.92 
  -6  -3  -3   10.10    1.00 
  -6  -3  -3   11.46    1.21 
   6   3   3   10.87    1.10 
   6   3   3    9.93    1.02 
   6   3   3    9.94    1.13 
  -7  -3  -3   33.35    1.62 
  -7  -3  -3   30.95    1.66 
  -7  -3  -3   37.31    1.46 
   7   3   3   32.34    1.80 
   7   3   3   30.88    1.65 
  -8  -3  -3   14.12    1.48 
  -8  -3  -3   15.69    1.38 
  -8  -3  -3   15.95    1.31 
   8   3   3   15.76    1.36 
   8   3   3   16.31    1.69 
  -9  -3  -3    1.80    1.08 
  -9  -3  -3   -0.69    0.82 
   9   3   3   -0.88    0.82 
   9   3   3   -0.81    0.86 
  12  -4  -3    6.78    1.35 
  12  -4  -3    7.41    1.36 
 -12   4   3    8.56    1.57 
  11  -4  -3    5.73    1.08 
  11  -4  -3    9.78    1.59 
 -11   4   3    7.14    1.22 
  10  -4  -3   34.36    1.99 
  10  -4  -3   38.99    1.43 
  10  -4  -3   37.79    1.56 
  10  -4  -3   38.30    1.94 
 -10   4   3   36.72    1.88 
 -10   4   3   39.96    1.71 
   9  -4  -3   43.75    1.62 
   9  -4  -3   42.82    1.91 
   9  -4  -3   41.28    1.89 
   9  -4  -3   44.07    1.55 
  -9   4   3   45.70    1.52 
  -9   4   3   44.55    1.90 
   8  -4  -3    3.49    0.48 
   8  -4  -3    2.64    0.71 
   8  -4  -3    2.44    0.80 
   8  -4  -3    3.45    0.62 
  -8   4   3    2.98    0.74 
  -8   4   3    3.02    0.76 
  -8   4   3    3.77    0.52 
   7  -4  -3    0.04    0.33 
   7  -4  -3    0.02    0.47 
   7  -4  -3    0.09    0.45 
   7  -4  -3    0.50    0.47 
  -7   4   3   -0.50    0.40 
  -7   4   3    1.31    0.56 
   6  -4  -3  243.22    5.24 
   6  -4  -3  241.56    5.04 
   6  -4  -3  245.20    5.09 
  -6   4   3  236.45    5.04 
  -6   4   3  240.87    5.22 
   5  -4  -3  421.27    8.24 
   5  -4  -3  408.28    8.15 
   5  -4  -3  418.29    8.13 
  -5   4   3  407.71    8.25 
  -5   4   3  416.22    8.06 
  -5   4   3  428.82    8.29 
   4  -4  -3   51.44    1.56 
   4  -4  -3   56.68    1.61 
   4  -4  -3   54.39    1.54 
  -4   4   3   54.42    1.64 
  -4   4   3   54.42    1.63 
   3  -4  -3   34.60    1.19 
   3  -4  -3   34.04    1.14 
   3  -4  -3   33.90    1.13 
  -3   4   3   34.34    1.22 
  -3   4   3   33.51    1.18 
   2  -4  -3  140.59    3.13 
   2  -4  -3  149.43    3.20 
  -2   4   3  147.04    3.47 
  -2   4   3  145.23    3.21 
   1  -4  -3  192.62    3.98 
  -1   4   3  195.60    4.08 
   0  -4  -3   12.93    0.66 
   0  -4  -3   12.02    0.66 
   0   4   3   12.64    0.73 
   0   4   3   12.93    0.88 
   0   4   3   13.80    0.84 
  -1  -4  -3   17.63    0.72 
  -1  -4  -3   18.84    0.89 
   1   4   3   17.33    0.91 
   1   4   3   18.44    0.95 
   1   4   3   17.32    0.86 
  -2  -4  -3   13.02    0.65 
  -2  -4  -3   12.71    0.75 
  -2  -4  -3   14.31    0.79 
   2   4   3   15.09    0.85 
   2   4   3   13.23    0.85 
   2   4   3   13.24    0.85 
  -3  -4  -3  317.48    6.54 
  -3  -4  -3  316.61    6.41 
   3   4   3  313.25    6.57 
   3   4   3  337.44    6.41 
   3   4   3  318.04    6.48 
   3   4   3  312.65    6.69 
  -4  -4  -3   20.41    1.09 
  -4  -4  -3   21.38    1.16 
   4   4   3   21.05    0.97 
   4   4   3   19.28    1.21 
   4   4   3   20.30    1.07 
   4   4   3   19.87    1.10 
   4   4   3   21.62    0.76 
  -5  -4  -3   40.27    1.56 
  -5  -4  -3   42.58    1.77 
   5   4   3   41.53    1.81 
   5   4   3   40.96    1.79 
   5   4   3   40.34    1.54 
   5   4   3   42.38    1.06 
  -6  -4  -3    6.10    0.83 
  -6  -4  -3    5.15    1.50 
  -6  -4  -3    7.31    0.89 
   6   4   3    7.06    0.96 
   6   4   3    3.61    1.31 
   6   4   3    6.19    0.98 
  -7  -4  -3   22.10    1.68 
  -7  -4  -3   22.83    1.33 
  -7  -4  -3   23.63    1.26 
   7   4   3   20.68    1.72 
   7   4   3   22.10    1.69 
  -8  -4  -3   18.01    1.80 
  -8  -4  -3   20.30    1.43 
  -8  -4  -3   19.00    1.41 
   8   4   3   16.91    1.82 
   8   4   3   18.23    1.55 
  -9  -4  -3   12.00    1.37 
  -9  -4  -3   13.31    1.98 
   9   4   3   14.16    2.15 
   9   4   3   12.37    1.83 
  12  -5  -3    0.27    1.06 
 -12   5   3    2.29    1.23 
  11  -5  -3    0.10    0.94 
  11  -5  -3    1.16    0.61 
 -11   5   3    0.87    0.97 
  10  -5  -3   19.20    1.35 
  10  -5  -3   21.63    1.72 
  10  -5  -3   22.09    1.14 
  10  -5  -3   20.49    1.73 
 -10   5   3   19.75    1.45 
   9  -5  -3   44.36    1.61 
   9  -5  -3   42.54    1.62 
   9  -5  -3   33.48    2.88 
  -9   5   3   36.60    2.66 
   8  -5  -3   16.42    1.25 
   8  -5  -3   17.27    1.05 
   8  -5  -3   15.46    1.02 
  -8   5   3   15.97    1.26 
  -8   5   3   16.00    1.48 
   7  -5  -3   -0.28    0.46 
   7  -5  -3    0.44    0.55 
   7  -5  -3    0.60    0.42 
  -7   5   3    0.12    0.49 
  -7   5   3    0.21    0.48 
   6  -5  -3  111.43    2.81 
   6  -5  -3  119.43    3.03 
   6  -5  -3  117.89    2.90 
  -6   5   3  116.06    2.80 
  -6   5   3  116.72    2.99 
  -6   5   3  111.36    3.00 
   5  -5  -3   80.05    2.18 
   5  -5  -3   80.40    2.24 
   5  -5  -3   80.02    2.14 
  -5   5   3   81.77    2.05 
  -5   5   3   79.15    2.27 
  -5   5   3   84.21    2.29 
   4  -5  -3  110.18    2.67 
   4  -5  -3  109.34    2.67 
   4  -5  -3  112.11    2.70 
  -4   5   3  111.64    2.79 
  -4   5   3  110.86    2.77 
   3  -5  -3   14.03    0.77 
   3  -5  -3   14.58    0.81 
   3  -5  -3   13.53    0.71 
  -3   5   3   14.71    0.89 
  -3   5   3   13.09    0.82 
   2  -5  -3   44.25    1.38 
   2  -5  -3   44.05    1.27 
  -2   5   3   43.49    1.44 
  -2   5   3   42.83    1.39 
   1  -5  -3  125.26    2.81 
   1  -5  -3  126.14    2.82 
   1  -5  -3  123.02    2.84 
  -1   5   3  127.73    2.97 
  -1   5   3  128.88    2.92 
  -1   5   3  126.87    2.97 
   0  -5  -3  203.62    4.31 
   0  -5  -3  209.95    4.37 
   0  -5  -3  208.69    4.29 
   0   5   3  216.99    4.58 
   0   5   3  208.79    4.49 
   0   5   3  212.23    4.45 
  -1  -5  -3   48.53    1.49 
  -1  -5  -3   49.14    1.43 
  -1  -5  -3   48.65    1.38 
  -1  -5  -3   48.13    1.40 
   1   5   3   47.76    1.59 
   1   5   3   49.75    1.63 
   1   5   3   49.87    1.55 
  -2  -5  -3    5.93    0.55 
  -2  -5  -3    5.68    0.59 
  -2  -5  -3    4.40    0.69 
  -2  -5  -3    5.01    0.74 
   2   5   3    4.97    0.59 
   2   5   3    3.72    0.66 
   2   5   3    5.07    0.85 
  -3  -5  -3   64.30    1.92 
  -3  -5  -3   65.48    1.66 
  -3  -5  -3   64.10    1.90 
  -3  -5  -3   65.26    1.89 
   3   5   3   62.86    2.05 
   3   5   3   67.31    2.08 
   3   5   3   61.86    1.97 
  -4  -5  -3    6.18    0.91 
  -4  -5  -3    5.35    0.83 
   4   5   3    5.77    0.57 
   4   5   3    4.99    0.80 
   4   5   3    6.22    1.15 
   4   5   3    5.10    0.78 
  -5  -5  -3   42.31    1.88 
  -5  -5  -3   40.55    1.67 
  -5  -5  -3   40.72    1.42 
   5   5   3   42.82    1.24 
   5   5   3   40.27    1.83 
   5   5   3   38.90    1.67 
   5   5   3   39.71    1.63 
  -6  -5  -3   11.09    0.95 
  -6  -5  -3   10.37    1.19 
  -6  -5  -3    9.80    1.19 
   6   5   3   10.26    1.16 
   6   5   3   11.85    1.51 
  -7  -5  -3    3.76    0.98 
  -7  -5  -3    3.85    1.08 
  -7  -5  -3    4.80    0.81 
   7   5   3    5.71    1.17 
   7   5   3    4.96    0.89 
  -8  -5  -3   -0.14    0.75 
  -8  -5  -3   -1.79    0.84 
  -8  -5  -3   -0.39    1.02 
   8   5   3    0.81    0.77 
   8   5   3    0.36    1.00 
  -9  -5  -3    6.53    1.26 
   9   5   3    8.66    1.45 
   9   5   3    6.74    1.39 
  12  -6  -3    8.40    1.54 
 -12   6   3   10.42    1.63 
 -12   6   3   11.06    2.00 
  11  -6  -3    1.62    0.89 
  11  -6  -3    2.07    0.76 
 -11   6   3    1.88    1.05 
  10  -6  -3   29.69    2.00 
  10  -6  -3   27.32    1.34 
 -10   6   3   24.89    1.59 
   9  -6  -3   14.87    1.10 
   9  -6  -3   15.28    1.19 
   9  -6  -3   15.82    1.63 
  -9   6   3   11.30    1.33 
   8  -6  -3   15.42    1.11 
   8  -6  -3   15.37    1.01 
   8  -6  -3   12.27    1.27 
  -8   6   3   14.05    1.04 
  -8   6   3   16.06    1.38 
   7  -6  -3   15.15    1.05 
   7  -6  -3   14.67    1.00 
   7  -6  -3   15.97    1.30 
  -7   6   3   13.18    1.20 
  -7   6   3   14.50    1.22 
  -7   6   3   15.51    0.98 
   6  -6  -3    1.49    0.44 
   6  -6  -3    2.49    0.65 
   6  -6  -3    1.46    0.54 
  -6   6   3    1.68    0.61 
  -6   6   3    1.21    0.52 
  -6   6   3    1.25    0.53 
   5  -6  -3   63.26    1.91 
   5  -6  -3   62.94    1.90 
   5  -6  -3   59.66    1.91 
  -5   6   3   64.47    1.75 
  -5   6   3   62.39    2.05 
  -5   6   3   59.40    1.95 
   4  -6  -3   57.46    1.81 
   4  -6  -3   59.22    1.57 
   4  -6  -3   57.09    1.73 
   4  -6  -3   61.28    1.85 
  -4   6   3   57.56    1.85 
  -4   6   3   60.45    1.91 
   3  -6  -3    6.29    0.66 
   3  -6  -3    5.37    0.63 
   3  -6  -3    6.67    0.73 
   3  -6  -3    6.34    0.57 
  -3   6   3    7.18    0.86 
   2  -6  -3    9.12    0.72 
   2  -6  -3    9.62    0.73 
   2  -6  -3    8.83    0.69 
  -2   6   3    9.76    0.70 
  -2   6   3    8.49    0.71 
  -2   6   3    7.64    0.76 
   1  -6  -3   22.33    0.99 
   1  -6  -3   21.25    0.92 
   1  -6  -3   21.89    0.97 
  -1   6   3   21.87    1.08 
  -1   6   3   23.13    1.16 
  -1   6   3   22.23    1.04 
   0  -6  -3   69.99    1.93 
   0  -6  -3   68.73    1.86 
   0  -6  -3   69.11    1.90 
   0   6   3   68.84    2.11 
   0   6   3   72.19    2.06 
   0   6   3   72.79    2.00 
  -1  -6  -3   28.61    1.16 
  -1  -6  -3   28.79    1.11 
  -1  -6  -3   28.39    1.08 
  -1  -6  -3   28.00    1.09 
   1   6   3   29.40    1.28 
   1   6   3   28.05    1.20 
   1   6   3   27.63    1.22 
  -2  -6  -3   49.25    1.49 
  -2  -6  -3   48.90    1.59 
  -2  -6  -3   49.29    1.67 
  -2  -6  -3   48.81    1.49 
   2   6   3   46.27    1.70 
   2   6   3   51.15    1.59 
   2   6   3   49.67    1.77 
  -3  -6  -3   29.23    1.11 
  -3  -6  -3   29.05    1.29 
  -3  -6  -3   27.09    1.29 
  -3  -6  -3   29.00    1.09 
   3   6   3   31.84    1.61 
   3   6   3   29.16    1.36 
   3   6   3   29.15    1.37 
  -4  -6  -3    0.62    0.63 
  -4  -6  -3   -0.13    0.56 
  -4  -6  -3    0.09    0.36 
  -4  -6  -3    0.38    0.41 
   4   6   3   -0.57    0.46 
   4   6   3    0.54    0.35 
   4   6   3   -0.12    0.45 
   4   6   3   -0.66    0.62 
  -5  -6  -3    7.69    1.15 
  -5  -6  -3    9.37    0.80 
  -5  -6  -3    9.23    1.16 
   5   6   3    7.64    1.10 
   5   6   3    8.68    0.77 
   5   6   3    8.27    1.37 
   5   6   3    8.48    1.49 
  -6  -6  -3    8.17    1.30 
  -6  -6  -3    7.86    0.92 
   6   6   3    7.53    1.20 
   6   6   3    7.53    1.10 
  -7  -6  -3    5.42    0.82 
  -7  -6  -3    4.96    0.80 
  -7  -6  -3    5.32    1.15 
   7   6   3    6.86    1.20 
   7   6   3    5.87    1.37 
  -8  -6  -3    0.03    0.83 
  -8  -6  -3    1.09    0.88 
   8   6   3   -0.22    0.87 
   8   6   3    2.20    1.22 
  11  -7  -3    1.07    0.75 
  11  -7  -3   -1.37    0.94 
 -11   7   3   -0.39    0.82 
 -11   7   3    0.78    1.10 
  10  -7  -3    7.65    1.37 
 -10   7   3    8.82    1.37 
 -10   7   3    7.26    1.28 
   9  -7  -3    5.48    0.87 
   9  -7  -3    4.39    1.03 
  -9   7   3    4.99    1.05 
  -9   7   3    4.54    0.96 
   8  -7  -3   22.03    1.26 
   8  -7  -3   21.48    1.60 
  -8   7   3   24.91    1.49 
  -8   7   3   22.71    1.88 
   7  -7  -3   -0.18    0.60 
   7  -7  -3    1.22    0.55 
   7  -7  -3    0.86    0.50 
  -7   7   3    0.54    0.69 
  -7   7   3   -0.20    0.63 
  -7   7   3    0.33    0.64 
   6  -7  -3    0.92    0.46 
   6  -7  -3    0.58    0.49 
   6  -7  -3    1.61    0.52 
  -6   7   3    0.42    0.62 
  -6   7   3    0.91    0.66 
  -6   7   3    0.50    0.52 
   5  -7  -3   76.11    1.83 
   5  -7  -3   71.12    2.12 
   5  -7  -3   74.55    2.32 
   5  -7  -3   73.72    2.22 
  -5   7   3   74.56    1.94 
  -5   7   3   71.05    2.29 
  -5   7   3   71.86    2.34 
   4  -7  -3   45.90    1.69 
   4  -7  -3   46.44    1.61 
   4  -7  -3   49.45    1.73 
   4  -7  -3   47.13    1.41 
  -4   7   3   48.63    1.80 
  -4   7   3   43.28    1.64 
   3  -7  -3    0.25    0.39 
   3  -7  -3    0.03    0.40 
   3  -7  -3    0.08    0.33 
   3  -7  -3    0.37    0.45 
  -3   7   3   -0.49    0.40 
  -3   7   3    0.28    0.40 
   2  -7  -3   47.01    1.61 
   2  -7  -3   45.81    1.60 
   2  -7  -3   47.14    1.51 
  -2   7   3   46.59    1.64 
  -2   7   3   47.32    1.67 
  -2   7   3   48.13    1.71 
   1  -7  -3    1.22    0.41 
   1  -7  -3    2.09    0.48 
   1  -7  -3    2.37    0.57 
  -1   7   3    1.80    0.58 
  -1   7   3    1.07    0.44 
  -1   7   3    1.53    0.52 
   0  -7  -3   22.34    0.84 
   0  -7  -3   18.78    0.99 
   0  -7  -3   19.72    1.01 
   0  -7  -3   19.60    0.96 
   0   7   3   21.23    1.27 
   0   7   3   18.75    1.14 
   0   7   3   20.50    1.11 
  -1  -7  -3   26.57    1.18 
  -1  -7  -3   25.84    1.07 
  -1  -7  -3   27.26    1.25 
  -1  -7  -3   26.72    1.20 
   1   7   3   26.00    1.36 
   1   7   3   26.54    1.31 
   1   7   3   25.28    1.23 
  -2  -7  -3   29.09    1.30 
  -2  -7  -3   28.26    1.25 
  -2  -7  -3   30.63    1.22 
  -2  -7  -3   31.42    1.43 
   2   7   3   31.17    1.51 
   2   7   3   29.97    1.29 
   2   7   3   31.67    1.56 
  -3  -7  -3   13.02    1.08 
  -3  -7  -3   14.58    1.23 
  -3  -7  -3   15.68    1.00 
  -3  -7  -3   15.22    0.97 
   3   7   3   16.33    1.07 
   3   7   3   16.40    1.42 
   3   7   3   15.28    1.12 
  -4  -7  -3    3.79    0.91 
  -4  -7  -3    4.70    0.78 
  -4  -7  -3    4.52    0.85 
   4   7   3    3.61    0.49 
   4   7   3    3.65    0.83 
   4   7   3    2.97    0.83 
  -5  -7  -3    6.68    0.95 
  -5  -7  -3    8.25    1.34 
   5   7   3    9.32    1.33 
   5   7   3    8.41    1.22 
   5   7   3    6.86    1.13 
  -6  -7  -3   27.58    1.56 
  -6  -7  -3   29.57    1.61 
   6   7   3   29.50    2.66 
   6   7   3   31.42    2.21 
  -7  -7  -3   12.03    1.41 
  -7  -7  -3   17.18    2.07 
   7   7   3   14.79    1.42 
   7   7   3   10.62    1.41 
  -8  -7  -3   -0.21    0.97 
  11  -8  -3    0.60    0.93 
  11  -8  -3   -0.61    0.89 
 -11   8   3    0.67    1.23 
 -11   8   3   -0.58    0.93 
  10  -8  -3    2.96    1.09 
  10  -8  -3    2.00    0.74 
 -10   8   3    3.12    1.06 
 -10   8   3    2.57    1.15 
   9  -8  -3    9.99    1.36 
   9  -8  -3    9.84    1.23 
  -9   8   3    9.90    1.44 
  -9   8   3    8.84    1.38 
   8  -8  -3   15.16    1.16 
   8  -8  -3   14.90    1.64 
  -8   8   3   16.24    1.33 
  -8   8   3   12.17    1.35 
   7  -8  -3   23.13    1.34 
   7  -8  -3   29.11    1.37 
  -7   8   3   27.78    2.03 
  -7   8   3   28.44    1.38 
   6  -8  -3   54.90    2.10 
   6  -8  -3   51.63    1.95 
   6  -8  -3   57.67    1.54 
   6  -8  -3   53.45    1.89 
  -6   8   3   53.47    1.73 
  -6   8   3   54.07    2.11 
  -6   8   3   53.38    2.22 
   5  -8  -3    2.30    0.56 
   5  -8  -3    2.53    0.46 
   5  -8  -3    2.46    0.71 
   5  -8  -3    2.54    0.63 
  -5   8   3    3.01    0.74 
  -5   8   3    3.07    0.55 
  -5   8   3    2.41    0.66 
   4  -8  -3    0.59    0.54 
   4  -8  -3    1.03    0.37 
   4  -8  -3    0.60    0.51 
  -4   8   3    0.85    0.61 
  -4   8   3    0.05    0.52 
   3  -8  -3   21.04    1.26 
   3  -8  -3   18.38    1.05 
   3  -8  -3   19.33    1.02 
  -3   8   3   19.70    1.21 
  -3   8   3   24.07    1.43 
   2  -8  -3   64.48    1.90 
   2  -8  -3   63.74    2.07 
   2  -8  -3   65.67    2.07 
  -2   8   3   63.67    2.01 
  -2   8   3   64.37    2.17 
  -2   8   3   69.31    2.24 
   1  -8  -3   18.74    1.13 
   1  -8  -3   21.78    1.12 
   1  -8  -3   23.41    1.24 
  -1   8   3   21.61    1.13 
  -1   8   3   21.75    1.24 
  -1   8   3   23.95    1.38 
   0  -8  -3    1.56    0.49 
   0  -8  -3    1.79    0.44 
   0  -8  -3    1.75    0.58 
   0  -8  -3    1.85    0.41 
   0   8   3    1.77    0.49 
   0   8   3    2.21    0.64 
   0   8   3    1.17    0.56 
  -1  -8  -3    9.82    0.96 
  -1  -8  -3   12.12    1.09 
  -1  -8  -3   12.84    0.83 
  -1  -8  -3   12.57    1.03 
   1   8   3   12.68    1.07 
   1   8   3   12.43    1.16 
   1   8   3   11.40    0.97 
  -2  -8  -3   32.61    1.41 
  -2  -8  -3   35.32    1.39 
  -2  -8  -3   35.25    1.41 
  -2  -8  -3   35.94    1.66 
   2   8   3   35.57    1.72 
   2   8   3   36.62    1.47 
   2   8   3   33.77    1.76 
  -3  -8  -3   21.76    1.46 
  -3  -8  -3   19.53    1.23 
  -3  -8  -3   19.06    1.52 
   3   8   3   19.06    1.42 
   3   8   3   22.45    1.25 
  -4  -8  -3    0.10    0.73 
  -4  -8  -3    0.80    0.56 
   4   8   3    0.23    0.85 
   4   8   3   -0.16    0.51 
   4   8   3   -0.35    0.74 
  -5  -8  -3    1.70    0.84 
  -5  -8  -3    0.15    0.60 
   5   8   3    1.38    0.84 
  -6  -8  -3   13.29    1.15 
  -6  -8  -3   13.38    1.60 
   6   8   3   14.27    1.82 
   6   8   3   14.52    1.58 
  -7  -8  -3   42.26    2.60 
  -7  -8  -3   39.48    2.11 
   7   8   3   40.14    2.57 
   7   8   3   40.35    2.13 
  11  -9  -3   -0.75    0.84 
 -11   9   3   -0.99    0.97 
  10  -9  -3    3.02    1.26 
  10  -9  -3   -0.54    0.87 
 -10   9   3    1.17    0.99 
 -10   9   3   -0.20    0.85 
   9  -9  -3   -0.04    0.67 
   9  -9  -3   -0.56    0.83 
  -9   9   3    1.63    1.00 
  -9   9   3    0.57    0.89 
   8  -9  -3    2.50    1.02 
   8  -9  -3    2.56    0.64 
  -8   9   3    4.86    1.17 
  -8   9   3    5.09    0.94 
   7  -9  -3   43.50    2.05 
   7  -9  -3   34.41    2.53 
  -7   9   3   45.48    1.74 
  -7   9   3   43.77    2.08 
   6  -9  -3   38.25    2.19 
   6  -9  -3   39.61    1.81 
   6  -9  -3   43.19    1.34 
  -6   9   3   37.96    1.98 
  -6   9   3   40.49    1.55 
   5  -9  -3   27.97    1.43 
   5  -9  -3   31.74    1.72 
   5  -9  -3   27.93    1.19 
  -5   9   3   30.22    2.09 
  -5   9   3   26.70    1.51 
  -5   9   3   28.79    1.17 
   4  -9  -3    0.86    0.37 
   4  -9  -3    0.53    0.60 
   4  -9  -3   -0.25    0.53 
  -4   9   3    1.00    0.63 
   3  -9  -3   12.68    0.91 
   3  -9  -3   11.91    1.29 
   3  -9  -3   12.91    1.04 
  -3   9   3    9.69    1.18 
  -3   9   3   12.00    1.18 
  -3   9   3   11.30    1.01 
   2  -9  -3   66.10    2.20 
   2  -9  -3   60.50    2.13 
   2  -9  -3   64.31    2.01 
  -2   9   3   63.51    2.07 
  -2   9   3   61.74    2.11 
  -2   9   3   64.47    2.30 
   1  -9  -3   37.51    1.69 
   1  -9  -3   38.80    1.67 
   1  -9  -3   41.81    1.53 
   1  -9  -3   36.81    1.62 
  -1   9   3   38.90    1.81 
  -1   9   3   37.09    1.61 
  -1   9   3   38.41    1.70 
   0  -9  -3    3.73    0.78 
   0  -9  -3    3.85    0.63 
   0  -9  -3    3.59    0.52 
   0  -9  -3    2.96    0.64 
   0   9   3    4.10    0.71 
   0   9   3    4.62    0.85 
   0   9   3    2.55    0.73 
  -1  -9  -3   34.54    1.39 
  -1  -9  -3   33.11    1.34 
  -1  -9  -3   34.13    1.59 
  -1  -9  -3   33.96    1.55 
   1   9   3   34.22    1.81 
   1   9   3   33.94    1.77 
   1   9   3   36.52    1.49 
  -2  -9  -3   62.00    2.30 
  -2  -9  -3   59.95    1.99 
  -2  -9  -3   59.76    2.04 
  -2  -9  -3   57.83    2.13 
   2   9   3   58.92    2.35 
   2   9   3   59.99    2.43 
   2   9   3   60.64    2.02 
  -3  -9  -3   70.69    2.51 
  -3  -9  -3   73.70    2.14 
  -3  -9  -3   71.64    2.30 
   3   9   3   68.17    2.36 
   3   9   3   65.49    2.65 
  -4  -9  -3    3.55    0.75 
  -4  -9  -3    2.31    0.95 
   4   9   3    3.96    0.84 
   4   9   3    2.07    0.99 
  -5  -9  -3    7.42    1.22 
  -5  -9  -3    6.11    1.18 
   5   9   3    4.78    1.15 
  -6  -9  -3   30.68    1.89 
  -6  -9  -3   32.53    1.98 
   6   9   3   28.16    2.37 
  10 -10  -3   42.73    2.69 
  10 -10  -3   40.43    2.16 
 -10  10   3   38.83    2.43 
 -10  10   3   40.32    2.16 
   9 -10  -3   24.80    2.07 
   9 -10  -3   19.33    1.40 
  -9  10   3   20.12    1.74 
  -9  10   3   16.81    1.87 
   8 -10  -3   -0.98    0.72 
   8 -10  -3    0.33    0.80 
  -8  10   3    0.73    0.85 
  -8  10   3    0.94    0.96 
   7 -10  -3    3.23    1.02 
   7 -10  -3    3.96    1.01 
  -7  10   3    3.40    1.05 
  -7  10   3    3.21    0.81 
   6 -10  -3   22.98    1.77 
   6 -10  -3   24.69    1.70 
   6 -10  -3   22.56    1.15 
  -6  10   3   23.73    1.28 
  -6  10   3   25.80    1.82 
   5 -10  -3   15.67    1.32 
   5 -10  -3   19.03    1.62 
   5 -10  -3   15.23    0.92 
  -5  10   3   16.52    1.82 
   4 -10  -3    1.62    0.55 
  -4  10   3    1.53    0.77 
   3 -10  -3    0.69    0.40 
   3 -10  -3    0.55    0.68 
  -3  10   3   -0.23    0.60 
  -3  10   3   -0.65    0.57 
   2 -10  -3   48.72    1.89 
   2 -10  -3   53.01    2.07 
  -2  10   3   46.95    2.17 
  -2  10   3   47.69    1.90 
  -2  10   3   48.76    2.23 
   1 -10  -3   69.83    2.35 
   1 -10  -3   78.28    1.91 
   1 -10  -3   74.12    2.29 
  -1  10   3   65.34    3.53 
  -1  10   3   72.18    2.57 
  -1  10   3   73.77    2.38 
   0 -10  -3   19.26    1.40 
   0 -10  -3   21.53    1.03 
   0 -10  -3   16.50    1.41 
   0  10   3   18.57    1.35 
   0  10   3   20.33    1.69 
  -1 -10  -3    4.63    0.93 
  -1 -10  -3    3.66    0.78 
  -1 -10  -3    4.94    0.88 
   1  10   3    4.54    0.93 
   1  10   3    4.37    1.06 
  -2 -10  -3    5.99    0.92 
  -2 -10  -3    8.91    1.18 
  -2 -10  -3    8.43    1.10 
   2  10   3    7.99    1.32 
   2  10   3    5.62    1.13 
  -3 -10  -3   18.53    1.76 
  -3 -10  -3   21.08    1.73 
  -3 -10  -3   20.32    1.39 
   3  10   3   17.84    1.62 
   3  10   3   18.58    1.66 
  -4 -10  -3   20.30    1.72 
  -4 -10  -3   25.38    1.55 
   4  10   3   22.00    2.19 
  -5 -10  -3    1.98    0.99 
  -5 -10  -3    3.29    0.88 
   5  10   3    1.36    1.07 
   9 -11  -3   14.55    1.92 
   9 -11  -3   11.24    1.47 
  -9  11   3   14.14    2.04 
  -9  11   3   10.85    1.43 
   8 -11  -3    9.54    1.39 
   8 -11  -3   16.13    1.70 
  -8  11   3   13.98    1.71 
  -8  11   3   11.50    1.75 
   7 -11  -3    1.75    1.07 
   7 -11  -3    0.14    0.95 
  -7  11   3    0.04    1.03 
   6 -11  -3   19.30    1.13 
   6 -11  -3   20.55    1.74 
   6 -11  -3   21.01    1.81 
  -6  11   3   20.39    1.82 
   5 -11  -3   35.28    1.55 
   5 -11  -3   35.26    1.90 
  -5  11   3   35.26    1.96 
   4 -11  -3   15.29    1.21 
   4 -11  -3   13.48    1.19 
  -4  11   3   12.57    1.75 
  -4  11   3   16.71    1.63 
   3 -11  -3    1.11    1.09 
   3 -11  -3    2.42    0.86 
  -3  11   3    0.96    0.80 
  -3  11   3    0.65    0.82 
   2 -11  -3   22.14    1.47 
   2 -11  -3   21.93    1.26 
  -2  11   3   23.56    1.41 
  -2  11   3   19.70    1.56 
   1 -11  -3   11.67    1.13 
   1 -11  -3   12.54    1.10 
  -1  11   3   13.91    1.32 
  -1  11   3   14.22    1.59 
   0 -11  -3   23.34    1.17 
   0 -11  -3   20.79    1.46 
   0 -11  -3   19.24    1.27 
   0  11   3   18.28    1.40 
   0  11   3   21.80    1.43 
  -1 -11  -3    6.72    1.14 
  -1 -11  -3    7.94    1.00 
   1  11   3    9.78    1.56 
   1  11   3    8.74    1.06 
  -2 -11  -3   -0.25    0.75 
  -2 -11  -3   -0.39    0.88 
   2  11   3    1.75    0.82 
  -3 -11  -3    0.70    0.73 
  -3 -11  -3   -0.35    0.67 
  -3 -11  -3    0.99    0.69 
   3  11   3    0.68    1.14 
  -4 -11  -3   11.93    1.84 
  -4 -11  -3    9.19    1.33 
   4  11   3   12.52    2.16 
   8 -12  -3    5.02    1.33 
   8 -12  -3    5.90    1.26 
  -8  12   3    3.22    1.12 
   7 -12  -3    0.94    0.93 
   7 -12  -3    4.79    1.38 
  -7  12   3    2.98    1.24 
   6 -12  -3   12.81    1.64 
   6 -12  -3   10.29    1.30 
  -6  12   3   10.44    1.65 
   5 -12  -3    4.10    0.69 
   5 -12  -3    5.99    1.12 
  -5  12   3    3.10    1.04 
  -5  12   3    5.20    0.99 
   4 -12  -3    5.01    0.81 
   4 -12  -3    3.42    0.83 
  -4  12   3    7.94    1.28 
  -4  12   3    4.77    1.13 
   3 -12  -3    0.44    0.76 
   3 -12  -3    2.01    0.96 
  -3  12   3    0.20    0.81 
  -3  12   3   -0.10    0.84 
   2 -12  -3    4.50    0.79 
   2 -12  -3    4.22    0.82 
  -2  12   3    4.31    1.04 
  -2  12   3    5.28    1.05 
   1 -12  -3    9.58    1.10 
   1 -12  -3   10.41    1.42 
  -1  12   3   10.04    1.69 
   0 -12  -3    3.66    0.96 
   0 -12  -3    3.71    1.03 
   0  12   3    3.31    1.29 
   0  12   3    4.72    1.22 
  -1 -12  -3    0.34    0.79 
  -1 -12  -3   -0.19    0.95 
   1  12   3   -0.79    1.09 
  -2 -12  -3    4.23    0.98 
  -2 -12  -3    7.55    1.13 
  -2 -12  -3    5.79    1.16 
   2  12   3    3.71    1.27 
   2  12   3    5.21    1.54 
  -3 -12  -3    1.21    0.82 
  -3 -12  -3   -0.65    0.83 
  -3 -12  -3   -0.33    1.02 
   3  12   3    3.37    1.51 
   7 -13  -3   -0.26    0.92 
  -7  13   3    0.64    1.15 
   6 -13  -3    1.85    0.93 
   6 -13  -3    3.60    0.69 
  -6  13   3    3.49    1.08 
  -6  13   3    0.73    0.80 
   5 -13  -3    1.91    0.76 
   5 -13  -3    1.89    1.07 
  -5  13   3    1.17    1.07 
  -5  13   3    1.32    0.98 
   4 -13  -3    1.25    0.60 
   4 -13  -3    2.29    0.93 
  -4  13   3    0.19    0.86 
  -4  13   3    1.93    0.87 
   3 -13  -3    3.96    0.85 
   3 -13  -3    4.21    1.12 
  -3  13   3    2.68    1.18 
  -3  13   3    6.80    1.21 
   2 -13  -3    0.98    0.79 
   2 -13  -3    2.14    0.74 
  -2  13   3    3.61    1.06 
  -2  13   3    3.04    1.09 
   1 -13  -3    1.17    0.96 
   1 -13  -3    0.72    1.02 
  -1  13   3    3.02    1.29 
  -1  13   3    0.94    1.08 
   0 -13  -3    0.65    0.87 
   0 -13  -3    0.79    1.04 
  -1 -13  -3    5.36    1.30 
  -1 -13  -3    4.62    1.13 
   1  13   3    6.12    1.38 
   5 -14  -3    1.94    0.80 
   5 -14  -3    2.44    1.22 
  -5  14   3    2.36    1.08 
  -5  14   3    1.61    1.35 
   4 -14  -3    7.79    1.33 
  -4  14   3    5.22    1.35 
  -4  14   3    6.07    1.40 
   3 -14  -3   12.55    1.38 
   3 -14  -3    8.13    1.36 
  -3  14   3   11.63    1.91 
  -3  14   3   14.12    1.56 
   2 -14  -3   10.77    1.63 
   2 -14  -3   13.25    1.94 
  -2  14   3   11.71    1.95 
   1 -14  -3    2.16    1.00 
   1 -14  -3    2.66    0.97 
  -1  14   3    0.50    1.02 
   3  14  -4    5.57    1.26 
  -3 -14   4   10.12    1.62 
  -3 -14   4    7.60    1.40 
  -3 -14   4    9.28    1.27 
   2  14  -4   11.82    1.33 
  -2 -14   4   19.77    2.12 
  -2 -14   4   15.59    1.80 
  -2 -14   4   14.12    1.28 
   1  14  -4    9.79    1.78 
  -1 -14   4    7.91    1.09 
  -1 -14   4    5.48    1.11 
   0  14  -4    5.15    1.01 
   0 -14   4    7.93    1.16 
   0 -14   4    7.05    1.32 
   0 -14   4    6.16    1.31 
  -1  14  -4    2.95    1.15 
   1 -14   4    4.65    1.22 
   1 -14   4    4.24    0.81 
   1 -14   4    2.81    0.80 
  -2  14  -4   12.24    1.63 
   2 -14   4   16.33    1.62 
   2 -14   4   17.91    1.86 
  -3  14  -4   23.56    2.06 
   3 -14   4   25.37    1.99 
   3 -14   4   26.17    1.70 
  -4  14  -4    2.24    1.13 
  -4  14  -4    2.11    1.08 
   4 -14   4    3.12    1.01 
   4 -14   4    1.60    0.91 
   5  13  -4   12.72    2.10 
  -5 -13   4   15.08    1.68 
  -5 -13   4   13.58    1.90 
  -5 -13   4   17.99    2.01 
   4  13  -4    2.79    1.08 
  -4 -13   4    1.90    0.97 
  -4 -13   4    3.21    0.86 
  -4 -13   4    2.09    0.79 
   3  13  -4   15.48    1.61 
  -3 -13   4   13.12    1.34 
  -3 -13   4   18.12    1.76 
  -3 -13   4   16.10    1.29 
   2  13  -4    9.89    1.56 
  -2 -13   4   10.81    1.35 
  -2 -13   4    9.09    1.38 
  -2 -13   4   12.79    1.54 
   1  13  -4   13.02    1.56 
  -1 -13   4   14.72    1.35 
  -1 -13   4   18.40    1.78 
  -1 -13   4   15.50    1.56 
   0  13  -4   16.69    1.72 
   0 -13   4   15.02    1.50 
   0 -13   4   12.77    1.39 
   0 -13   4   16.55    1.65 
  -1  13  -4    1.00    0.78 
   1 -13   4    1.47    0.98 
   1 -13   4   -0.05    0.66 
   1 -13   4    1.44    0.64 
  -2  13  -4    2.13    0.96 
   2 -13   4    1.61    0.83 
   2 -13   4    3.04    0.91 
  -3  13  -4   18.69    1.59 
  -3  13  -4   16.69    1.87 
   3 -13   4   18.37    1.38 
   3 -13   4   17.39    1.41 
  -4  13  -4    8.61    1.47 
   4 -13   4   10.57    1.30 
   4 -13   4   11.96    1.29 
  -5  13  -4   14.58    1.61 
   5 -13   4   13.80    1.31 
   5 -13   4   13.00    1.71 
   5 -13   4   15.85    1.35 
  -6  13  -4    1.41    1.21 
   6 -13   4    3.56    0.89 
   6 -13   4    2.75    1.29 
   6  12  -4   10.22    1.57 
  -6 -12   4   12.55    1.78 
  -6 -12   4   10.74    1.67 
   5  12  -4    3.54    1.33 
  -5 -12   4    4.78    0.98 
  -5 -12   4    4.62    1.04 
  -5 -12   4    2.84    0.98 
   4  12  -4    9.54    1.09 
  -4 -12   4    8.44    1.28 
  -4 -12   4    8.68    1.19 
  -4 -12   4    6.90    1.03 
   3  12  -4   -0.29    1.01 
  -3 -12   4   -0.02    0.79 
  -3 -12   4   -0.63    0.59 
  -3 -12   4   -1.11    0.63 
   2  12  -4    1.06    0.59 
  -2 -12   4    0.18    0.71 
  -2 -12   4   -0.31    0.65 
   1  12  -4    1.78    0.76 
  -1 -12   4    0.66    0.90 
  -1 -12   4    2.10    0.96 
  -1 -12   4    0.90    0.63 
   0  12  -4   26.73    1.83 
   0  12  -4   29.64    1.50 
   0 -12   4   28.77    1.59 
   0 -12   4   29.00    1.45 
   0 -12   4   28.61    1.65 
  -1  12  -4    5.37    1.04 
  -1  12  -4    4.23    0.89 
   1 -12   4    4.47    0.96 
   1 -12   4    6.50    0.97 
   1 -12   4    3.81    0.93 
  -2  12  -4    2.97    0.93 
  -2  12  -4    3.60    0.94 
  -2  12  -4    4.11    0.79 
   2 -12   4    2.85    0.79 
   2 -12   4    4.13    0.90 
   2 -12   4    5.02    0.86 
  -3  12  -4    0.72    0.92 
   3 -12   4    1.78    0.91 
   3 -12   4    1.48    0.61 
   3 -12   4    2.86    0.54 
  -4  12  -4    0.75    0.97 
   4 -12   4    1.56    0.89 
   4 -12   4    1.54    0.89 
   4 -12   4    1.70    0.73 
   4 -12   4    1.36    0.68 
  -5  12  -4    4.88    0.92 
  -5  12  -4    3.77    1.12 
   5 -12   4    3.47    0.96 
   5 -12   4    4.14    1.13 
   5 -12   4    5.03    0.98 
  -6  12  -4    0.59    0.84 
   6 -12   4    0.62    0.88 
   6 -12   4    1.16    0.67 
  -7  12  -4    0.87    1.00 
   7 -12   4   -0.46    0.95 
   7 -12   4    1.18    0.85 
   7  11  -4    1.72    0.86 
   7  11  -4    1.28    0.96 
  -7 -11   4   -0.02    0.99 
  -7 -11   4    1.00    1.13 
   6  11  -4   -0.41    0.81 
  -6 -11   4   -0.90    0.65 
  -6 -11   4    0.46    0.92 
   5  11  -4   11.41    1.76 
  -5 -11   4   13.21    1.42 
  -5 -11   4   13.23    1.35 
  -5 -11   4   10.16    1.25 
   4  11  -4   14.39    1.40 
  -4 -11   4   12.36    1.14 
  -4 -11   4   13.24    1.46 
  -4 -11   4   11.45    1.18 
  -3 -11   4   -1.11    0.58 
  -3 -11   4   -0.13    0.81 
   2  11  -4   -1.25    0.76 
  -2 -11   4   -0.03    0.52 
  -2 -11   4   -0.42    0.52 
   1  11  -4   16.84    1.01 
   1  11  -4   14.62    1.44 
  -1 -11   4   14.49    1.40 
  -1 -11   4   14.48    1.15 
  -1 -11   4   12.03    1.12 
   0  11  -4   28.62    1.63 
   0  11  -4   29.77    1.39 
   0 -11   4   29.83    1.45 
   0 -11   4   28.83    1.61 
  -1  11  -4    1.72    0.67 
  -1  11  -4    2.65    0.80 
  -1  11  -4    2.49    0.70 
   1 -11   4    1.86    0.66 
   1 -11   4    1.81    0.73 
   1 -11   4    2.42    0.73 
  -2  11  -4   29.92    1.54 
  -2  11  -4   30.49    1.74 
  -2  11  -4   30.14    1.63 
   2 -11   4   33.17    1.63 
   2 -11   4   30.69    1.30 
   2 -11   4   25.55    1.88 
  -3  11  -4   16.51    1.28 
  -3  11  -4   11.45    1.35 
   3 -11   4   14.93    1.37 
   3 -11   4   16.08    0.99 
   3 -11   4   15.50    1.38 
   3 -11   4   14.15    0.94 
   3 -11   4   14.03    1.18 
   4 -11   4    8.44    0.83 
   4 -11   4    7.45    0.94 
   4 -11   4    6.60    1.21 
   4 -11   4    6.72    1.20 
  -5  11  -4    1.80    0.76 
   5 -11   4    2.83    0.72 
   5 -11   4    3.41    0.96 
   5 -11   4    2.31    0.89 
   5 -11   4    2.77    0.71 
   5 -11   4    2.92    0.94 
  -6  11  -4    1.06    0.89 
   6 -11   4    1.39    0.82 
   6 -11   4    1.42    0.88 
   6 -11   4    1.69    0.80 
  -7  11  -4    4.95    0.99 
   7 -11   4    5.40    1.21 
   7 -11   4    4.85    0.98 
   7 -11   4    5.59    0.84 
  -8  11  -4    3.77    1.15 
   8 -11   4    1.94    0.83 
   8 -11   4    3.05    1.02 
   8  10  -4    1.80    1.25 
   8  10  -4    3.23    1.10 
  -8 -10   4    3.98    1.35 
  -8 -10   4    0.60    1.04 
   7  10  -4    8.07    1.31 
   7  10  -4    9.06    1.10 
  -7 -10   4    6.08    1.06 
  -7 -10   4    6.83    1.06 
   6  10  -4    5.34    1.00 
  -6 -10   4    4.62    0.84 
  -6 -10   4    4.73    0.95 
   5  10  -4    5.23    1.20 
  -5 -10   4    5.32    0.91 
  -5 -10   4    5.63    1.02 
  -5 -10   4    5.71    0.92 
   4  10  -4    5.43    0.90 
  -4 -10   4    7.44    1.04 
  -4 -10   4    6.40    1.01 
   3  10  -4    1.39    0.49 
  -3 -10   4    1.03    0.58 
  -3 -10   4    2.71    0.81 
   2  10  -4    1.04    0.58 
   2  10  -4    1.24    0.38 
  -2 -10   4    0.92    0.59 
  -2 -10   4    0.86    0.64 
  -2 -10   4    0.16    0.50 
   1  10  -4    0.70    0.50 
   1  10  -4    1.01    0.42 
  -1 -10   4   -0.07    0.52 
  -1 -10   4    0.87    0.55 
   0  10  -4   10.92    1.15 
   0  10  -4   11.57    1.00 
   0 -10   4   14.38    0.96 
   0 -10   4   11.15    0.91 
   0 -10   4   14.29    1.24 
  -1  10  -4   37.25    1.72 
  -1  10  -4   39.59    1.47 
  -1  10  -4   36.96    1.43 
   1 -10   4   38.66    1.21 
   1 -10   4   40.82    1.52 
   1 -10   4   36.33    1.57 
   1 -10   4   37.78    1.63 
  -2  10  -4   66.47    2.13 
  -2  10  -4   66.53    2.02 
   2 -10   4   64.61    2.18 
   2 -10   4   68.13    1.76 
   2 -10   4   65.98    2.10 
   2 -10   4   67.80    2.01 
   2 -10   4   65.27    2.28 
  -3  10  -4    7.77    1.20 
   3 -10   4    9.34    1.05 
   3 -10   4    7.34    0.83 
   3 -10   4    7.52    0.97 
   3 -10   4    6.29    0.99 
   3 -10   4    8.30    0.92 
  -4  10  -4    2.66    0.95 
   4 -10   4    2.58    0.53 
   4 -10   4    2.01    0.66 
   4 -10   4    1.97    0.58 
   4 -10   4    3.03    0.89 
   4 -10   4    1.85    0.69 
   4 -10   4    2.05    0.60 
   5 -10   4   12.63    1.06 
   5 -10   4   10.52    1.06 
   5 -10   4   12.39    1.15 
   5 -10   4   11.73    1.40 
   5 -10   4   13.43    1.02 
  -6  10  -4   30.91    1.59 
  -6  10  -4   30.22    1.75 
   6 -10   4   30.03    1.32 
   6 -10   4   29.61    1.74 
   6 -10   4   28.56    1.61 
   6 -10   4   31.35    1.64 
  -7  10  -4   17.55    1.48 
   7 -10   4   17.38    1.44 
   7 -10   4   19.17    1.27 
   7 -10   4   18.29    1.86 
  -8  10  -4    0.99    0.75 
   8 -10   4    0.25    0.82 
   8 -10   4   -0.88    0.78 
   9   9  -4    0.71    0.85 
   9   9  -4    1.56    0.83 
  -9  -9   4    2.03    0.92 
  -9  -9   4   -0.69    0.93 
   8   9  -4   13.31    1.68 
   8   9  -4   11.86    1.58 
  -8  -9   4   14.22    1.66 
  -8  -9   4   13.46    1.52 
   7   9  -4   15.79    1.20 
   7   9  -4   12.69    1.78 
  -7  -9   4   10.85    1.48 
  -7  -9   4   14.82    1.21 
   6   9  -4    5.84    0.97 
  -6  -9   4    4.73    1.04 
  -6  -9   4    5.79    0.92 
   5   9  -4    0.55    0.80 
  -5  -9   4    0.17    1.01 
  -5  -9   4    1.55    0.65 
   4   9  -4   12.02    1.12 
  -4  -9   4   13.34    1.22 
  -4  -9   4   11.94    1.04 
  -4  -9   4   11.11    1.01 
   3   9  -4   84.19    2.96 
   3   9  -4   91.03    1.98 
   3   9  -4   87.43    2.52 
  -3  -9   4   88.12    2.54 
  -3  -9   4   89.01    2.60 
  -3  -9   4   86.29    2.58 
   2   9  -4  104.12    2.83 
   2   9  -4  101.22    2.97 
   2   9  -4  104.29    2.31 
  -2  -9   4  100.34    2.79 
  -2  -9   4  104.56    2.79 
  -2  -9   4  105.41    2.79 
   1   9  -4   89.75    2.59 
   1   9  -4   92.28    2.18 
  -1  -9   4   91.63    2.53 
  -1  -9   4   90.63    2.53 
  -1  -9   4   89.00    2.42 
   0   9  -4    6.65    0.75 
   0   9  -4    7.56    0.96 
   0   9  -4    6.05    0.86 
   0  -9   4    7.45    0.85 
   0  -9   4    8.51    0.74 
  -1   9  -4   25.95    1.40 
  -1   9  -4   30.90    1.27 
  -1   9  -4   31.25    1.22 
   1  -9   4   31.64    1.27 
   1  -9   4   30.63    1.43 
   1  -9   4   30.04    1.30 
   1  -9   4   31.43    1.02 
  -2   9  -4   25.23    1.32 
   2  -9   4   29.35    1.16 
   2  -9   4   27.60    1.35 
   2  -9   4   27.79    1.16 
   2  -9   4   27.51    1.03 
   2  -9   4   27.51    1.41 
   2  -9   4   26.43    1.22 
  -3   9  -4   29.96    1.41 
   3  -9   4   32.29    1.20 
   3  -9   4   31.34    1.25 
   3  -9   4   30.23    1.31 
   3  -9   4   30.90    1.31 
   3  -9   4   31.45    1.54 
   3  -9   4   31.98    1.36 
  -4   9  -4    0.20    0.49 
   4  -9   4    1.53    0.37 
   4  -9   4    0.09    0.51 
   4  -9   4    0.69    0.70 
   4  -9   4    0.88    0.56 
   4  -9   4    0.62    0.42 
   4  -9   4    1.54    0.67 
   5  -9   4    2.05    0.84 
   5  -9   4    0.63    0.45 
   5  -9   4    2.01    0.63 
   5  -9   4    1.65    0.50 
   5  -9   4    1.46    0.48 
   5  -9   4    2.10    0.53 
  -6   9  -4   38.16    1.73 
  -6   9  -4   38.92    1.67 
   6  -9   4   40.58    1.38 
   6  -9   4   38.78    1.92 
   6  -9   4   37.67    2.03 
   6  -9   4   38.98    1.63 
  -7   9  -4   30.45    1.69 
  -7   9  -4   28.82    1.65 
   7  -9   4   29.70    1.76 
   7  -9   4   30.11    1.83 
   7  -9   4   33.02    1.40 
  -8   9  -4    3.26    0.87 
  -8   9  -4    2.87    1.12 
   8  -9   4    2.10    0.96 
   8  -9   4    2.42    0.67 
  -9   9  -4    3.13    1.04 
   9  -9   4    2.66    1.19 
   9   8  -4    2.06    0.87 
   9   8  -4    1.06    1.17 
  -9  -8   4    4.03    0.90 
  -9  -8   4    3.41    1.23 
   8   8  -4   10.10    1.22 
   8   8  -4   11.92    1.34 
  -8  -8   4    8.57    1.44 
  -8  -8   4   11.59    1.44 
  -8  -8   4   10.62    1.60 
   7   8  -4   34.87    1.80 
   7   8  -4   31.29    1.80 
  -7  -8   4   34.74    1.91 
  -7  -8   4   33.86    1.31 
   6   8  -4   28.25    1.38 
   6   8  -4   28.82    1.76 
  -6  -8   4   27.77    1.47 
  -6  -8   4   28.02    1.09 
  -6  -8   4   24.88    1.58 
   5   8  -4   66.25    2.30 
   5   8  -4   63.24    2.21 
   5   8  -4   68.73    1.63 
  -5  -8   4   65.42    2.35 
  -5  -8   4   69.09    2.21 
  -5  -8   4   64.70    1.71 
  -5  -8   4   65.92    2.20 
   4   8  -4    3.87    0.64 
   4   8  -4    3.29    0.43 
   4   8  -4    3.62    0.81 
  -4  -8   4    2.96    0.66 
  -4  -8   4    2.96    0.55 
  -4  -8   4    1.98    0.68 
   3   8  -4   14.41    0.93 
   3   8  -4   13.97    0.60 
   3   8  -4   16.59    1.23 
  -3  -8   4   12.33    0.85 
  -3  -8   4   13.42    0.93 
  -3  -8   4   13.64    1.05 
   2   8  -4  141.73    3.53 
   2   8  -4  142.77    2.88 
   2   8  -4  140.78    3.40 
  -2  -8   4  138.78    3.36 
  -2  -8   4  137.91    3.38 
  -2  -8   4  140.80    3.39 
   1   8  -4   53.41    1.77 
   1   8  -4   55.53    1.46 
   1   8  -4   55.40    1.89 
  -1  -8   4   53.19    1.75 
  -1  -8   4   54.85    1.77 
  -1  -8   4   55.17    1.72 
   0   8  -4   20.22    0.92 
   0   8  -4   20.22    1.09 
   0   8  -4   19.03    1.14 
   0  -8   4   19.50    1.05 
   0  -8   4   18.75    0.94 
   0  -8   4   20.09    0.90 
  -1   8  -4   40.69    1.39 
  -1   8  -4   38.93    1.51 
   1  -8   4   40.87    1.20 
   1  -8   4   38.78    1.38 
   1  -8   4   41.60    1.27 
   1  -8   4   41.28    1.51 
   1  -8   4   37.65    1.34 
   1  -8   4   38.49    1.49 
  -2   8  -4   34.21    1.41 
   2  -8   4   33.29    1.37 
   2  -8   4   33.02    1.35 
   2  -8   4   34.95    1.29 
   2  -8   4   35.22    1.23 
   2  -8   4   33.99    1.26 
   2  -8   4   36.39    1.12 
  -3   8  -4   67.31    2.11 
   3  -8   4   67.34    1.95 
   3  -8   4   66.95    2.13 
   3  -8   4   66.98    2.08 
   3  -8   4   67.76    1.89 
   3  -8   4   67.54    1.95 
   3  -8   4   66.00    1.86 
  -4   8  -4   21.28    1.39 
   4  -8   4   21.29    1.18 
   4  -8   4   20.57    1.05 
   4  -8   4   20.82    1.14 
   4  -8   4   21.45    0.98 
   4  -8   4   21.82    1.09 
   4  -8   4   22.88    1.21 
  -5   8  -4    6.25    0.89 
   5  -8   4    8.77    1.07 
   5  -8   4    8.65    0.82 
   5  -8   4    9.01    0.87 
   5  -8   4    8.45    0.92 
   5  -8   4    7.84    1.15 
   5  -8   4    8.55    0.73 
  -6   8  -4   32.30    1.54 
  -6   8  -4   35.28    1.51 
   6  -8   4   28.54    2.03 
   6  -8   4   33.65    1.66 
   6  -8   4   35.59    1.40 
   6  -8   4   32.40    2.08 
  -7   8  -4   24.71    1.47 
   7  -8   4   24.38    1.56 
   7  -8   4   25.57    1.68 
  -8   8  -4    4.69    0.98 
  -8   8  -4    8.08    1.38 
   8  -8   4    3.92    0.81 
   8  -8   4    4.82    1.12 
  -9   8  -4   11.99    1.68 
  -9   8  -4    8.77    1.32 
   9  -8   4    9.54    1.55 
   9  -8   4   12.24    2.09 
  10   7  -4   17.30    1.75 
 -10  -7   4   11.22    1.86 
 -10  -7   4   16.52    1.50 
   9   7  -4   12.72    1.74 
  -9  -7   4   16.42    1.52 
  -9  -7   4   12.19    1.40 
   8   7  -4    1.11    0.94 
   8   7  -4    2.37    0.87 
  -8  -7   4    1.33    0.88 
  -8  -7   4    1.22    0.76 
  -8  -7   4    2.66    0.77 
   7   7  -4   29.60    1.28 
   7   7  -4   28.79    1.50 
   7   7  -4   28.30    1.63 
  -7  -7   4   30.77    1.43 
  -7  -7   4   29.40    1.22 
  -7  -7   4   27.74    1.76 
   6   7  -4   73.80    2.40 
   6   7  -4   76.41    2.50 
   6   7  -4   77.06    1.76 
   6   7  -4   72.68    2.32 
  -6  -7   4   76.23    2.25 
  -6  -7   4   74.81    2.55 
  -6  -7   4   71.55    1.98 
   5   7  -4   69.05    2.16 
   5   7  -4   66.02    2.08 
   5   7  -4   69.83    1.52 
  -5  -7   4   65.48    2.16 
  -5  -7   4   67.14    2.08 
  -5  -7   4   67.64    1.73 
   4   7  -4    6.92    0.74 
   4   7  -4    6.93    0.93 
   4   7  -4    7.75    0.41 
  -4  -7   4    7.06    1.03 
  -4  -7   4    6.69    0.86 
  -4  -7   4    7.77    0.91 
  -4  -7   4    7.16    0.86 
   3   7  -4    3.20    0.33 
   3   7  -4    1.92    0.43 
   3   7  -4    3.18    0.54 
  -3  -7   4    3.03    0.59 
  -3  -7   4    2.91    0.54 
  -3  -7   4    1.99    0.47 
   2   7  -4   84.94    2.24 
   2   7  -4   84.85    1.78 
   2   7  -4   86.09    2.34 
  -2  -7   4   79.94    2.18 
  -2  -7   4   84.38    2.30 
  -2  -7   4   81.80    2.23 
   1   7  -4   52.80    1.61 
   1   7  -4   54.01    1.34 
   1   7  -4   51.05    1.67 
  -1  -7   4   51.82    1.61 
  -1  -7   4   50.77    1.59 
  -1  -7   4   54.24    1.69 
   0   7  -4   33.73    1.28 
   0   7  -4   37.63    1.29 
   0   7  -4   37.79    1.16 
   0  -7   4   36.41    1.29 
   0  -7   4   36.96    1.26 
   0  -7   4   35.57    1.32 
  -1   7  -4    1.30    0.43 
  -1   7  -4    1.60    0.45 
   1  -7   4    1.14    0.32 
   1  -7   4    1.58    0.54 
   1  -7   4    1.51    0.38 
   1  -7   4    1.41    0.34 
   1  -7   4    1.07    0.42 
   1  -7   4    1.32    0.40 
  -2   7  -4   16.44    0.94 
  -2   7  -4   15.59    0.90 
   2  -7   4   14.96    0.94 
   2  -7   4   14.63    0.87 
   2  -7   4   15.74    0.95 
   2  -7   4   14.44    0.87 
   2  -7   4   16.67    0.75 
   2  -7   4   15.07    0.79 
  -3   7  -4   48.75    1.66 
   3  -7   4   47.60    1.44 
   3  -7   4   46.73    1.58 
   3  -7   4   48.55    1.51 
   3  -7   4   48.04    1.54 
   3  -7   4   47.87    1.62 
   3  -7   4   48.45    1.49 
   4  -7   4   99.73    2.77 
   4  -7   4   97.55    2.74 
   4  -7   4  100.27    2.44 
   4  -7   4  100.82    2.53 
   4  -7   4   95.35    2.49 
   4  -7   4   96.38    2.38 
   5  -7   4    7.00    1.03 
   5  -7   4    5.79    0.84 
   5  -7   4    7.26    0.64 
   5  -7   4    7.18    0.76 
   5  -7   4    5.69    0.91 
   5  -7   4    5.98    0.74 
   5  -7   4    8.68    1.15 
  -6   7  -4    0.09    0.56 
  -6   7  -4    0.39    0.53 
  -6   7  -4    1.01    0.47 
   6  -7   4    1.19    0.90 
   6  -7   4    0.21    0.61 
   6  -7   4    0.67    0.38 
   6  -7   4    0.35    0.46 
  -7   7  -4    8.22    1.16 
   7  -7   4    8.26    1.28 
   7  -7   4    9.68    1.19 
   7  -7   4    7.58    1.38 
  -8   7  -4   10.91    1.37 
  -8   7  -4    9.10    1.31 
   8  -7   4    8.15    1.24 
   8  -7   4    9.65    1.47 
  -9   7  -4   22.06    1.84 
  -9   7  -4   16.54    1.57 
   9  -7   4   17.94    1.95 
   9  -7   4   24.55    2.12 
  10   6  -4   10.30    1.92 
 -10  -6   4   13.70    1.75 
 -10  -6   4   12.75    1.51 
   9   6  -4   16.12    1.74 
   9   6  -4   17.90    1.26 
  -9  -6   4   18.96    1.86 
  -9  -6   4   17.60    1.68 
  -9  -6   4   16.37    1.45 
   8   6  -4   17.51    1.24 
   8   6  -4   15.88    1.14 
   8   6  -4   15.92    2.09 
  -8  -6   4   16.65    1.16 
  -8  -6   4   16.35    1.15 
  -8  -6   4   18.25    1.57 
   7   6  -4    5.03    0.75 
   7   6  -4    5.72    1.06 
   7   6  -4    5.65    0.84 
   7   6  -4    4.73    0.72 
  -7  -6   4    4.92    0.79 
  -7  -6   4    5.31    1.00 
  -7  -6   4    4.93    0.71 
   6   6  -4    9.71    0.64 
   6   6  -4   10.06    0.84 
   6   6  -4    8.70    1.17 
   6   6  -4    7.00    0.98 
  -6  -6   4    8.39    0.82 
  -6  -6   4    7.65    0.81 
  -6  -6   4    9.42    0.95 
   5   6  -4   31.49    1.34 
   5   6  -4   32.83    0.86 
   5   6  -4   31.29    1.34 
   5   6  -4   32.06    1.35 
  -5  -6   4   31.32    1.26 
  -5  -6   4   31.78    1.14 
  -5  -6   4   31.77    1.43 
   4   6  -4    6.21    0.31 
   4   6  -4    6.96    0.66 
   4   6  -4    6.06    0.82 
  -4  -6   4    5.10    0.61 
  -4  -6   4    5.49    0.61 
  -4  -6   4    5.63    0.65 
  -4  -6   4    4.64    0.81 
   3   6  -4   41.97    1.42 
   3   6  -4   41.19    1.47 
  -3  -6   4   41.39    1.47 
  -3  -6   4   38.51    1.34 
  -3  -6   4   39.88    1.31 
   2   6  -4   97.84    2.47 
   2   6  -4   98.01    2.60 
   2   6  -4   96.53    1.90 
  -2  -6   4   95.69    2.40 
  -2  -6   4   95.02    2.35 
  -2  -6   4   91.73    2.36 
   1   6  -4   17.64    0.62 
   1   6  -4   17.10    0.93 
  -1  -6   4   17.30    0.83 
  -1  -6   4   18.55    0.93 
  -1  -6   4   16.13    0.84 
   0   6  -4   46.24    1.23 
   0   6  -4   45.51    1.47 
   0  -6   4   44.94    1.35 
   0  -6   4   45.07    1.39 
   0  -6   4   42.96    1.32 
  -1   6  -4   22.12    0.92 
  -1   6  -4   23.34    1.02 
   1  -6   4   22.11    0.93 
   1  -6   4   22.15    0.90 
   1  -6   4   21.81    0.91 
   1  -6   4   22.10    0.88 
   1  -6   4   22.42    0.96 
  -2   6  -4    9.28    0.71 
   2  -6   4    8.97    0.58 
   2  -6   4   10.07    0.65 
   2  -6   4    9.42    0.78 
   2  -6   4    9.82    0.58 
   2  -6   4    9.15    0.62 
   2  -6   4    9.95    0.68 
  -3   6  -4   13.88    0.81 
   3  -6   4   13.93    0.83 
   3  -6   4   14.10    0.81 
   3  -6   4   14.20    0.71 
   3  -6   4   14.29    0.83 
   3  -6   4   13.79    0.76 
   3  -6   4   14.28    0.80 
   3  -6   4   14.93    0.88 
  -4   6  -4   46.50    1.44 
   4  -6   4   43.41    1.45 
   4  -6   4   45.27    1.59 
   4  -6   4   45.78    1.39 
   4  -6   4   45.13    1.53 
   4  -6   4   47.24    1.71 
   4  -6   4   44.26    1.38 
   4  -6   4   44.61    1.59 
  -5   6  -4    4.71    0.71 
  -5   6  -4    5.35    0.75 
  -5   6  -4    6.15    0.70 
   5  -6   4    5.72    0.91 
   5  -6   4    5.77    0.56 
   5  -6   4    5.52    0.85 
   5  -6   4    5.94    1.08 
   5  -6   4    4.15    0.76 
  -6   6  -4   33.49    1.17 
  -6   6  -4   30.44    1.20 
  -6   6  -4   32.82    1.48 
   6  -6   4   31.42    1.65 
   6  -6   4   30.93    2.69 
   6  -6   4   34.54    1.59 
   6  -6   4   32.94    1.84 
   6  -6   4   33.30    1.10 
  -7   6  -4    4.74    0.77 
   7  -6   4    3.86    0.77 
   7  -6   4    4.29    0.89 
   7  -6   4    4.24    0.77 
  -8   6  -4    6.10    1.13 
  -8   6  -4    4.29    1.08 
   8  -6   4    4.58    1.02 
   8  -6   4    4.33    1.05 
  -9   6  -4    5.96    1.12 
  -9   6  -4    9.03    1.36 
   9  -6   4    5.33    1.18 
   9  -6   4    5.02    1.09 
 -10   6  -4    0.66    1.07 
  10  -6   4    0.41    1.19 
  10  -6   4    2.90    1.43 
  11   5  -4    1.02    1.21 
 -11  -5   4    0.46    0.89 
 -11  -5   4    0.54    1.26 
  10   5  -4    9.60    1.35 
 -10  -5   4   11.12    1.28 
 -10  -5   4   13.49    1.82 
   9   5  -4   53.66    1.97 
   9   5  -4   52.17    1.99 
   9   5  -4   55.83    2.32 
  -9  -5   4   55.33    2.05 
  -9  -5   4   53.58    2.35 
  -9  -5   4   56.82    1.78 
   8   5  -4    2.43    0.81 
   8   5  -4    3.18    0.59 
   8   5  -4    3.13    0.49 
   8   5  -4    3.02    0.57 
  -8  -5   4    2.13    0.82 
  -8  -5   4    2.53    0.63 
  -8  -5   4    3.12    0.60 
   7   5  -4    0.18    0.39 
   7   5  -4   -0.12    0.59 
   7   5  -4    0.33    0.46 
   7   5  -4   -0.76    0.60 
  -7  -5   4   -0.13    0.69 
  -7  -5   4    0.01    0.51 
  -7  -5   4   -0.83    0.49 
   6   5  -4   53.49    1.65 
   6   5  -4   52.95    1.88 
   6   5  -4   53.30    1.35 
   6   5  -4   53.39    1.77 
  -6  -5   4   52.90    1.91 
  -6  -5   4   51.25    1.63 
  -6  -5   4   51.25    1.63 
   5   5  -4   21.30    1.06 
   5   5  -4   21.28    0.65 
   5   5  -4   20.84    1.12 
   5   5  -4   20.33    1.08 
  -5  -5   4   18.93    0.94 
  -5  -5   4   19.94    0.93 
  -5  -5   4   20.66    1.12 
   4   5  -4   39.52    1.32 
   4   5  -4   39.10    1.38 
  -4  -5   4   36.63    1.23 
  -4  -5   4   37.24    1.41 
  -4  -5   4   38.60    1.21 
  -4  -5   4   41.15    0.87 
   3   5  -4    3.35    0.43 
  -3  -5   4    5.09    0.60 
  -3  -5   4    5.35    0.59 
  -3  -5   4    4.58    0.61 
  -2  -5   4    8.12    0.65 
  -2  -5   4    7.69    0.53 
  -2  -5   4    9.48    0.66 
   1   5  -4  133.80    2.97 
   1   5  -4  132.89    2.58 
  -1  -5   4  131.88    2.91 
  -1  -5   4  126.26    2.88 
  -1  -5   4  128.46    2.86 
   0   5  -4   66.29    1.54 
   0   5  -4   66.84    1.74 
   0  -5   4   67.36    1.70 
   0  -5   4   62.87    1.68 
   0  -5   4   67.06    1.74 
  -1   5  -4   25.77    0.98 
   1  -5   4   26.11    0.92 
   1  -5   4   23.41    0.89 
   1  -5   4   25.61    0.95 
   1  -5   4   23.75    1.03 
   1  -5   4   24.96    0.93 
  -2   5  -4   58.00    1.55 
   2  -5   4   56.20    1.55 
   2  -5   4   58.01    1.57 
   2  -5   4   56.52    1.55 
   2  -5   4   56.08    1.60 
   2  -5   4   57.93    1.61 
   2  -5   4   56.94    1.60 
   2  -5   4   57.12    1.63 
  -3   5  -4    4.45    0.53 
   3  -5   4    4.82    0.48 
   3  -5   4    5.18    0.73 
   3  -5   4    5.33    0.61 
   3  -5   4    4.81    0.55 
   3  -5   4    4.50    0.59 
   3  -5   4    5.46    0.59 
  -4   5  -4   19.30    0.90 
   4  -5   4   20.48    0.99 
   4  -5   4   20.51    1.00 
   4  -5   4   20.78    1.13 
   4  -5   4   19.86    0.96 
   4  -5   4   20.78    0.90 
   4  -5   4   20.23    1.03 
  -5   5  -4    9.73    0.77 
  -5   5  -4   10.59    0.66 
  -5   5  -4    9.47    0.90 
   5  -5   4    7.87    0.87 
   5  -5   4    8.35    0.73 
   5  -5   4    8.66    0.87 
   5  -5   4    8.96    0.96 
  -6   5  -4   79.63    2.42 
  -6   5  -4   81.58    2.04 
   6  -5   4   80.60    2.65 
   6  -5   4   83.54    2.65 
   6  -5   4   82.59    2.53 
   6  -5   4   81.06    2.69 
  -7   5  -4    2.67    0.83 
   7  -5   4    2.84    0.87 
   7  -5   4    2.84    0.79 
  -8   5  -4    0.06    0.66 
   8  -5   4    0.17    0.59 
  -9   5  -4    4.71    0.93 
  -9   5  -4    3.66    1.06 
   9  -5   4    4.29    1.06 
 -10   5  -4    1.15    1.00 
 -10   5  -4    3.49    1.27 
  10  -5   4    4.13    1.23 
  10  -5   4    4.53    1.31 
  11   4  -4    0.41    0.87 
 -11  -4   4   -0.78    1.02 
 -11  -4   4    1.15    1.01 
  10   4  -4   13.02    1.49 
  10   4  -4   12.54    1.17 
 -10  -4   4   13.44    1.69 
 -10  -4   4   12.56    1.56 
   9   4  -4   37.60    1.55 
   9   4  -4   38.17    1.55 
   9   4  -4   34.89    1.65 
  -9  -4   4   35.42    1.84 
  -9  -4   4   36.35    1.39 
  -9  -4   4   35.05    1.85 
   8   4  -4    4.61    0.68 
   8   4  -4    4.70    0.66 
   8   4  -4    5.12    0.93 
   8   4  -4    6.36    0.85 
  -8  -4   4    4.01    0.82 
  -8  -4   4    4.91    0.71 
  -8  -4   4    4.64    0.87 
   7   4  -4    5.79    0.90 
   7   4  -4    6.95    0.80 
   7   4  -4    5.93    0.67 
   7   4  -4    5.39    0.86 
  -7  -4   4    5.28    0.93 
  -7  -4   4    6.06    0.76 
  -7  -4   4    6.26    0.89 
   6   4  -4    0.52    0.39 
   6   4  -4    0.32    0.27 
   6   4  -4    0.54    0.38 
   6   4  -4    0.24    0.56 
  -6  -4   4   -0.07    0.41 
  -6  -4   4    0.61    0.57 
  -6  -4   4    0.82    0.33 
   5   4  -4    0.91    0.38 
   5   4  -4    0.40    0.19 
   5   4  -4    0.75    0.29 
   5   4  -4    0.34    0.34 
  -5  -4   4   -0.11    0.37 
  -5  -4   4    0.53    0.34 
  -5  -4   4    0.53    0.37 
   4   4  -4   48.09    1.48 
   4   4  -4   48.52    1.49 
  -4  -4   4   48.97    1.38 
  -4  -4   4   46.56    0.97 
  -4  -4   4   45.45    1.47 
  -4  -4   4   45.19    1.32 
   3   4  -4   92.71    2.26 
  -3  -4   4   94.65    2.31 
  -3  -4   4   92.97    2.17 
  -2  -4   4    0.18    0.27 
  -2  -4   4    0.80    0.40 
  -2  -4   4    0.91    0.35 
   1   4  -4    4.34    0.28 
  -1  -4   4    3.45    0.58 
   0   4  -4   19.89    0.82 
   0  -4   4   19.72    0.65 
  -1   4  -4  191.27    3.85 
   1  -4   4  187.39    3.82 
   1  -4   4  186.39    3.92 
  -2   4  -4  101.95    2.27 
   2  -4   4  102.33    2.40 
   2  -4   4  102.04    2.34 
   2  -4   4  102.32    2.43 
   2  -4   4  103.56    2.41 
   3  -4   4    8.04    0.62 
   3  -4   4    8.84    0.65 
   3  -4   4    8.54    0.70 
   3  -4   4    8.78    0.59 
   3  -4   4    7.85    0.54 
   3  -4   4    8.15    0.61 
  -4   4  -4   23.24    0.98 
  -4   4  -4   21.89    0.78 
   4  -4   4   21.72    1.14 
   4  -4   4   20.14    1.04 
   4  -4   4   20.23    1.02 
   4  -4   4   20.36    1.04 
   4  -4   4   21.64    1.00 
  -5   4  -4  105.26    2.73 
  -5   4  -4  112.07    2.46 
  -5   4  -4  108.75    2.24 
   5  -4   4  102.91    2.70 
   5  -4   4  110.42    2.96 
   5  -4   4  106.74    2.91 
   5  -4   4  103.21    2.83 
  -6   4  -4   38.99    1.61 
  -6   4  -4   39.24    1.30 
   6  -4   4   36.93    1.70 
   6  -4   4   38.89    1.65 
   6  -4   4   38.23    1.84 
   6  -4   4   39.73    1.85 
  -7   4  -4   10.64    0.98 
   7  -4   4    8.67    1.27 
   7  -4   4   11.94    1.25 
  -8   4  -4   -0.19    0.67 
   8  -4   4    0.42    0.82 
   8  -4   4   -0.75    0.54 
  -9   4  -4    7.23    1.37 
  -9   4  -4    5.23    0.95 
   9  -4   4    7.98    1.17 
 -10   4  -4   34.89    2.19 
 -10   4  -4   33.45    2.06 
  10  -4   4   37.91    2.64 
  10  -4   4   30.78    2.35 
  12   3  -4    5.85    1.32 
 -12  -3   4    5.59    1.32 
 -12  -3   4    4.57    1.44 
  11   3  -4   11.44    1.71 
 -11  -3   4   12.34    1.69 
 -11  -3   4   15.16    1.61 
  10   3  -4   -0.84    0.60 
  10   3  -4   -0.50    0.71 
  10   3  -4   -0.15    0.62 
  10   3  -4    0.09    0.89 
 -10  -3   4   -0.10    0.81 
 -10  -3   4    0.26    0.73 
   9   3  -4   11.59    1.41 
   9   3  -4   13.82    1.16 
   9   3  -4   13.54    1.04 
   9   3  -4   12.67    1.19 
   9   3  -4   10.69    1.12 
  -9  -3   4   12.99    1.29 
   8   3  -4   26.02    1.18 
   8   3  -4   25.66    1.16 
   8   3  -4   24.66    1.13 
   8   3  -4   24.54    1.31 
   8   3  -4   23.44    1.32 
  -8  -3   4   24.96    1.36 
  -8  -3   4   25.36    1.00 
  -8  -3   4   22.87    1.47 
   7   3  -4  110.34    2.52 
   7   3  -4  108.03    2.68 
   7   3  -4  107.34    2.85 
   7   3  -4  108.95    2.75 
  -7  -3   4  107.11    2.88 
  -7  -3   4  109.58    2.81 
  -7  -3   4  106.23    2.47 
   6   3  -4   84.76    1.92 
   6   3  -4   85.27    2.25 
   6   3  -4   81.33    2.16 
   6   3  -4   86.75    2.30 
  -6  -3   4   80.61    2.30 
  -6  -3   4   81.04    1.99 
  -6  -3   4   78.66    2.18 
   5   3  -4    0.26    0.39 
   5   3  -4    0.79    0.31 
   5   3  -4    0.00    0.28 
  -5  -3   4    0.54    0.43 
  -5  -3   4    0.82    0.35 
  -5  -3   4    0.73    0.38 
   4   3  -4  169.40    3.57 
   4   3  -4  167.10    3.60 
  -4  -3   4  166.26    3.56 
  -4  -3   4  169.83    3.24 
  -4  -3   4  165.58    3.15 
  -4  -3   4  165.39    3.62 
   3   3  -4  127.51    2.82 
   3   3  -4  122.13    2.77 
  -3  -3   4  125.16    2.80 
   2   3  -4  303.14    5.92 
  -1  -3   4   51.87    1.10 
   0   3  -4   30.41    1.08 
   0  -3   4   33.16    0.87 
  -1   3  -4  153.73    3.09 
   1  -3   4  149.26    3.15 
  -2   3  -4  334.58    6.50 
   2  -3   4  356.44    6.78 
   2  -3   4  340.23    6.68 
   2  -3   4  347.49    6.74 
   2  -3   4  348.16    6.77 
  -3   3  -4  211.48    4.07 
   3  -3   4  208.42    4.48 
   3  -3   4  212.20    4.43 
   3  -3   4  203.69    4.36 
   3  -3   4  217.18    4.52 
   3  -3   4  213.66    4.46 
  -4   3  -4    0.49    0.19 
  -4   3  -4    0.76    0.47 
  -4   3  -4    0.02    0.46 
   4  -3   4    0.27    0.34 
   4  -3   4    0.27    0.39 
   4  -3   4    1.21    0.51 
   4  -3   4   -0.07    0.33 
  -5   3  -4   29.87    1.35 
  -5   3  -4   31.72    1.12 
   5  -3   4   32.31    1.46 
   5  -3   4   26.74    1.15 
   5  -3   4   31.79    1.37 
   5  -3   4   30.77    1.34 
  -6   3  -4   50.37    1.77 
  -6   3  -4   49.12    1.44 
   6  -3   4   48.84    1.87 
   6  -3   4   50.17    1.95 
   6  -3   4   51.78    1.86 
   6  -3   4   45.16    1.86 
  -7   3  -4   87.12    2.76 
   7  -3   4   87.81    3.87 
   7  -3   4   88.47    2.98 
  -8   3  -4    4.22    0.95 
   8  -3   4    5.58    1.17 
  -9   3  -4    0.64    0.90 
  -9   3  -4    1.98    0.84 
   9  -3   4   -0.88    0.85 
   9  -3   4    0.17    0.93 
 -10   3  -4   12.68    1.60 
 -10   3  -4   10.28    1.52 
  10  -3   4   16.83    2.33 
  12   2  -4    8.20    1.58 
 -12  -2   4    8.24    1.34 
 -12  -2   4    6.61    1.28 
  11   2  -4   10.56    1.56 
  11   2  -4   14.82    1.42 
 -11  -2   4   12.98    1.59 
 -11  -2   4   10.80    1.49 
  10   2  -4   42.92    1.66 
  10   2  -4   44.11    1.75 
  10   2  -4   43.75    2.31 
  10   2  -4   44.35    1.89 
 -10  -2   4   45.27    2.14 
 -10  -2   4   44.50    2.07 
   9   2  -4    1.64    0.67 
   9   2  -4    1.10    0.48 
   9   2  -4    1.06    0.65 
   9   2  -4    1.50    0.49 
  -9  -2   4    0.85    0.87 
  -9  -2   4    0.45    0.67 
   8   2  -4    3.26    0.61 
   8   2  -4    2.66    0.60 
   8   2  -4    3.38    0.57 
   8   2  -4    2.03    0.63 
  -8  -2   4    2.40    0.82 
  -8  -2   4    2.81    0.70 
   7   2  -4   56.73    1.66 
   7   2  -4   55.25    1.87 
   7   2  -4   56.11    1.69 
   7   2  -4   56.80    1.80 
  -7  -2   4   58.24    1.88 
  -7  -2   4   55.52    1.81 
   6   2  -4   18.47    1.00 
   6   2  -4   20.01    0.96 
   6   2  -4   20.62    0.93 
  -6  -2   4   19.33    0.96 
  -6  -2   4   17.90    0.96 
   5   2  -4   23.95    0.94 
  -5  -2   4   25.75    1.00 
  -5  -2   4   24.64    1.04 
  -5  -2   4   26.48    0.79 
   4   2  -4  103.15    2.43 
   4   2  -4  103.44    2.40 
  -4  -2   4  101.65    2.40 
  -4  -2   4  106.51    2.09 
  -4  -2   4  103.02    2.58 
   3   2  -4  352.02    6.69 
  -3  -2   4  348.43    6.27 
  -3  -2   4  332.97    6.25 
   2   2  -4  504.91    9.52 
   1   2  -4  348.59    6.62 
  -1  -2   4  347.81    6.42 
   0   2  -4    3.21    0.35 
   0  -2   4    3.19    0.33 
  -1   2  -4   46.71    1.14 
   1  -2   4   47.59    1.28 
  -2   2  -4  430.35    7.97 
   2  -2   4  432.08    8.32 
   2  -2   4  432.43    8.28 
   2  -2   4  433.45    8.24 
   2  -2   4  434.37    8.32 
  -3   2  -4   61.48    1.24 
  -3   2  -4   59.32    1.24 
   3  -2   4   60.23    1.75 
   3  -2   4   56.93    1.58 
   3  -2   4   60.72    1.72 
   3  -2   4   58.89    1.69 
   3  -2   4   57.25    1.66 
  -4   2  -4   68.75    1.95 
  -4   2  -4   72.63    1.80 
   4  -2   4   70.19    1.97 
   4  -2   4   70.94    2.05 
   4  -2   4   69.48    2.03 
   4  -2   4   65.49    1.97 
  -5   2  -4    0.33    0.36 
  -5   2  -4   -0.34    0.41 
   5  -2   4   -0.22    0.35 
   5  -2   4   -0.14    0.40 
   5  -2   4    0.09    0.45 
  -6   2  -4    3.31    0.69 
  -6   2  -4    4.54    0.65 
   6  -2   4    4.05    0.79 
   6  -2   4    3.30    0.80 
  -7   2  -4   33.10    1.50 
  -7   2  -4   34.90    1.63 
   7  -2   4   34.38    1.87 
  -8   2  -4   19.66    1.64 
   8  -2   4   21.64    1.81 
   8  -2   4   25.81    1.81 
  -9   2  -4    0.03    0.99 
  -9   2  -4    0.48    0.80 
   9  -2   4    0.23    0.89 
   9  -2   4   -0.39    0.78 
 -10   2  -4    2.89    1.28 
 -10   2  -4    0.82    0.97 
  10  -2   4    0.78    1.02 
  10  -2   4    2.58    1.34 
  12   1  -4    5.21    1.46 
  12   1  -4    2.22    1.17 
 -12  -1   4    4.42    1.10 
 -12  -1   4    5.26    1.30 
  11   1  -4   21.71    1.85 
  11   1  -4   23.24    1.70 
 -11  -1   4   25.05    1.81 
 -11  -1   4   23.61    1.71 
  10   1  -4   36.67    1.52 
  10   1  -4   38.62    1.84 
  10   1  -4   39.91    1.47 
  10   1  -4   38.75    2.10 
 -10  -1   4   40.62    2.02 
 -10  -1   4   35.58    2.33 
 -10  -1   4   41.10    1.85 
   9   1  -4    9.19    1.10 
   9   1  -4    8.50    1.14 
   9   1  -4    9.33    0.93 
   9   1  -4    7.26    0.88 
  -9  -1   4    8.63    1.09 
  -9  -1   4    9.05    1.31 
   8   1  -4    0.28    0.57 
   8   1  -4    0.27    0.39 
   8   1  -4    0.13    0.55 
   8   1  -4    0.64    0.39 
  -8  -1   4   -0.18    0.67 
  -8  -1   4   -0.09    0.53 
   7   1  -4   48.55    1.53 
   7   1  -4   49.61    1.54 
   7   1  -4   47.95    1.63 
   7   1  -4   48.02    1.60 
  -7  -1   4   46.61    1.63 
  -7  -1   4   48.39    1.71 
   6   1  -4  131.29    3.03 
   6   1  -4  136.50    3.10 
   6   1  -4  134.63    3.11 
  -6  -1   4  135.84    2.92 
  -6  -1   4  134.26    3.08 
  -6  -1   4  129.13    3.09 
   5   1  -4  152.10    3.35 
   5   1  -4  149.87    3.31 
  -5  -1   4  155.08    3.33 
  -5  -1   4  153.81    3.37 
  -5  -1   4  153.06    3.14 
   4   1  -4  116.25    2.71 
  -4  -1   4  123.21    2.94 
  -4  -1   4  127.92    2.52 
   3   1  -4   61.67    1.60 
  -3  -1   4   62.94    1.36 
   2   1  -4  179.91    3.71 
  -2  -1   4  186.82    3.49 
   1   1  -4  396.20    7.40 
  -1  -1   4  389.87    7.28 
   0   1  -4   43.27    1.09 
   0  -1   4   43.85    1.13 
  -1   1  -4   25.85    0.72 
   1  -1   4   25.92    0.89 
  -2   1  -4  133.88    2.58 
  -2   1  -4  140.20    2.57 
   2  -1   4  135.25    2.99 
   2  -1   4  131.22    2.89 
   2  -1   4  130.12    2.92 
   2  -1   4  134.08    3.00 
  -3   1  -4   21.12    0.92 
   3  -1   4   21.97    0.96 
   3  -1   4   22.89    0.99 
   3  -1   4   23.36    0.96 
   3  -1   4   20.00    0.83 
  -4   1  -4   27.14    1.20 
  -4   1  -4   27.43    0.99 
   4  -1   4   25.92    1.16 
   4  -1   4   27.20    1.23 
   4  -1   4   27.81    1.25 
   4  -1   4   26.63    1.12 
  -5   1  -4   12.63    0.95 
  -5   1  -4   12.45    0.82 
   5  -1   4   13.40    0.98 
   5  -1   4   12.47    0.94 
   5  -1   4   11.44    0.89 
   5  -1   4   12.63    0.90 
  -6   1  -4    1.54    0.45 
  -6   1  -4    1.97    0.69 
   6  -1   4    0.41    0.58 
   6  -1   4   -0.28    0.49 
   6  -1   4    0.79    0.60 
   6  -1   4    1.75    0.68 
  -7   1  -4    6.12    0.80 
  -7   1  -4    5.49    1.08 
   7  -1   4    4.24    1.43 
   7  -1   4    4.56    0.89 
  -8   1  -4   19.50    1.53 
  -8   1  -4   20.74    1.58 
   8  -1   4   20.26    1.62 
   8  -1   4   19.99    1.67 
  -9   1  -4    0.24    0.93 
  -9   1  -4   -0.27    0.92 
   9  -1   4   -0.11    0.85 
 -10   1  -4    5.31    1.24 
 -10   1  -4    4.29    1.08 
  10  -1   4    5.61    1.13 
  12   0  -4   -0.80    1.03 
  12   0  -4    0.53    1.06 
 -12   0   4    0.93    0.89 
 -12   0   4   -0.31    0.97 
  11   0  -4    2.09    1.06 
  11   0  -4    1.65    0.91 
 -11   0   4    2.87    1.03 
 -11   0   4    1.62    1.09 
  10   0  -4   13.85    0.98 
  10   0  -4   11.86    1.33 
  10   0  -4   15.02    1.23 
  10   0  -4   14.48    0.98 
 -10   0   4   14.21    1.55 
 -10   0   4   12.56    1.33 
 -10   0   4   14.05    1.29 
   9   0  -4   19.13    1.32 
   9   0  -4   18.83    1.01 
   9   0  -4   18.67    1.07 
   9   0  -4   16.24    1.24 
  -9   0   4   18.51    1.26 
  -9   0   4   19.56    1.45 
  -9   0   4   18.78    1.14 
   8   0  -4   73.87    2.14 
   8   0  -4   73.95    2.13 
   8   0  -4   74.86    2.37 
   8   0  -4   73.40    2.06 
  -8   0   4   72.36    2.32 
  -8   0   4   74.07    2.09 
  -8   0   4   75.44    2.19 
   7   0  -4   67.14    2.02 
   7   0  -4   64.75    1.86 
   7   0  -4   68.55    1.89 
   7   0  -4   68.32    1.97 
  -7   0   4   67.27    1.88 
  -7   0   4   66.95    1.96 
  -7   0   4   65.60    2.00 
   6   0  -4  147.48    3.38 
   6   0  -4  152.50    3.28 
   6   0  -4  150.79    3.32 
   6   0  -4  147.73    3.35 
  -6   0   4  144.85    3.38 
  -6   0   4  149.31    3.27 
  -6   0   4  149.16    3.25 
   5   0  -4  369.36    7.22 
   5   0  -4  364.76    7.16 
  -5   0   4  372.28    7.06 
  -5   0   4  363.59    7.19 
   4   0  -4    2.43    0.41 
  -4   0   4    2.12    0.31 
  -4   0   4    1.58    0.49 
   3   0  -4    1.13    0.30 
  -3   0   4    1.35    0.24 
   2   0  -4    1.44    0.27 
   1   0  -4    3.59    0.38 
  -1   0   4    3.95    0.32 
   0   0  -4   42.41    1.07 
   0   0   4   42.49    1.16 
  -1   0  -4    7.66    0.38 
  -2   0  -4    0.25    0.12 
  -2   0  -4    0.07    0.34 
   2   0   4    0.89    0.41 
   2   0   4    0.37    0.14 
   2   0   4    0.23    0.27 
   2   0   4    0.59    0.35 
  -3   0  -4   11.42    0.71 
  -3   0  -4   11.60    0.71 
   3   0   4   11.64    0.79 
   3   0   4   10.21    0.61 
   3   0   4   11.72    0.80 
   3   0   4   11.57    0.85 
  -4   0  -4   57.20    1.58 
  -4   0  -4   58.11    1.79 
   4   0   4   54.88    1.79 
   4   0   4   52.82    1.59 
   4   0   4   56.93    1.85 
   4   0   4   57.53    1.87 
  -5   0  -4    2.70    0.46 
  -5   0  -4    1.54    0.47 
   5   0   4    2.40    0.62 
   5   0   4    3.13    0.64 
   5   0   4    2.77    0.66 
   5   0   4    2.39    0.55 
  -6   0  -4    0.76    0.44 
  -6   0  -4    1.13    0.63 
   6   0   4    0.17    0.46 
   6   0   4    1.56    0.69 
   6   0   4    1.38    0.66 
   6   0   4    0.51    0.61 
  -7   0  -4   15.92    1.46 
  -7   0  -4   19.03    1.03 
   7   0   4   12.98    1.79 
  -8   0  -4   10.62    1.58 
  -8   0  -4   10.33    1.29 
   8   0   4    8.20    1.22 
   8   0   4   10.15    1.41 
  -9   0  -4    9.27    1.32 
  -9   0  -4    6.72    1.23 
   9   0   4    7.22    1.30 
   9   0   4    9.18    1.60 
 -10   0  -4   22.98    2.23 
 -10   0  -4   18.68    1.87 
  10   0   4   17.40    1.81 
  10   0   4   20.91    2.28 
  12  -1  -4    2.54    1.05 
 -12   1   4    2.88    0.96 
 -12   1   4    1.71    1.01 
  11  -1  -4   10.98    1.58 
  11  -1  -4   13.05    1.91 
 -11   1   4   11.89    1.57 
 -11   1   4   10.50    1.63 
  10  -1  -4   29.70    1.82 
  10  -1  -4   31.62    1.42 
  10  -1  -4   30.58    1.61 
  10  -1  -4   31.09    1.34 
 -10   1   4   30.77    1.66 
 -10   1   4   30.16    1.84 
 -10   1   4   30.80    1.71 
   9  -1  -4   41.94    1.71 
   9  -1  -4   41.15    1.54 
   9  -1  -4   41.09    1.69 
   9  -1  -4   42.41    1.49 
  -9   1   4   41.53    1.90 
  -9   1   4   42.98    1.73 
  -9   1   4   42.19    1.79 
   8  -1  -4    1.84    0.53 
   8  -1  -4    1.34    0.52 
   8  -1  -4    1.01    0.43 
   8  -1  -4    0.56    0.47 
  -8   1   4    1.86    0.52 
  -8   1   4    1.37    0.59 
  -8   1   4    1.18    0.69 
   7  -1  -4   50.09    1.62 
   7  -1  -4   48.60    1.60 
   7  -1  -4   49.92    1.67 
   7  -1  -4   49.95    1.61 
  -7   1   4   51.68    1.61 
  -7   1   4   51.30    1.59 
  -7   1   4   48.22    1.72 
   6  -1  -4  117.48    2.81 
   6  -1  -4  119.18    2.85 
   6  -1  -4  115.45    2.74 
  -6   1   4  114.44    2.82 
  -6   1   4  119.42    2.92 
  -6   1   4  119.07    2.76 
   5  -1  -4  201.79    4.23 
   5  -1  -4  199.45    4.19 
  -5   1   4  197.93    4.24 
  -5   1   4  196.77    4.18 
  -5   1   4  201.01    4.13 
   4  -1  -4    0.61    0.32 
  -4   1   4    0.85    0.29 
  -4   1   4    0.59    0.43 
   3  -1  -4   37.96    1.19 
  -3   1   4   38.35    1.10 
   2  -1  -4   17.72    0.82 
  -2   1   4   22.41    0.78 
   1  -1  -4    1.23    0.26 
  -1   1   4    1.46    0.29 
   0  -1  -4    1.63    0.26 
   0   1   4    1.26    0.31 
  -1  -1  -4   78.34    1.66 
   1   1   4   78.96    1.97 
  -2  -1  -4    0.84    0.34 
  -2  -1  -4    1.15    0.38 
  -2  -1  -4    1.09    0.16 
   2   1   4    1.47    0.41 
   2   1   4    0.83    0.31 
   2   1   4    1.06    0.50 
   2   1   4    1.45    0.24 
  -3  -1  -4   23.52    0.91 
  -3  -1  -4   23.86    1.03 
   3   1   4   23.74    1.10 
   3   1   4   23.45    1.05 
   3   1   4   24.02    0.97 
   3   1   4   22.91    1.05 
  -4  -1  -4   20.61    1.07 
  -4  -1  -4   22.35    0.95 
   4   1   4   20.49    1.08 
   4   1   4   21.01    1.04 
   4   1   4   21.98    1.01 
  -5  -1  -4   45.66    1.50 
  -5  -1  -4   45.00    1.67 
   5   1   4   46.87    1.76 
   5   1   4   44.17    1.45 
   5   1   4   44.28    1.69 
   5   1   4   42.77    1.71 
  -6  -1  -4   95.16    2.37 
  -6  -1  -4   86.61    2.65 
   6   1   4   90.85    2.82 
   6   1   4   88.38    2.68 
   6   1   4   92.40    2.58 
   6   1   4   90.93    2.77 
  -7  -1  -4    0.41    0.53 
   7   1   4    0.36    0.59 
   7   1   4    0.16    0.83 
  -8  -1  -4    0.85    0.60 
   8   1   4    0.73    0.88 
   8   1   4    0.59    0.75 
  -9  -1  -4   16.18    1.69 
  -9  -1  -4   18.75    1.47 
   9   1   4   20.13    1.62 
   9   1   4   19.82    1.79 
  12  -2  -4    0.55    0.96 
 -12   2   4    2.62    0.97 
 -12   2   4   -0.33    1.06 
  11  -2  -4    4.76    0.68 
  11  -2  -4    4.97    1.17 
  11  -2  -4    3.29    1.03 
 -11   2   4    3.56    1.00 
 -11   2   4    2.82    0.89 
  10  -2  -4   24.85    1.27 
  10  -2  -4   24.03    1.27 
  10  -2  -4   25.21    1.76 
  10  -2  -4   23.50    1.70 
 -10   2   4   22.98    1.57 
 -10   2   4   21.14    1.52 
   9  -2  -4   26.82    1.28 
   9  -2  -4   25.42    1.29 
   9  -2  -4   24.93    1.60 
   9  -2  -4   26.23    1.55 
  -9   2   4   26.41    1.37 
  -9   2   4   26.68    1.53 
  -9   2   4   25.11    1.44 
   8  -2  -4   20.54    1.14 
   8  -2  -4   22.76    1.34 
   8  -2  -4   21.48    1.20 
   8  -2  -4   22.81    1.05 
  -8   2   4   22.65    1.17 
  -8   2   4   22.59    1.30 
  -8   2   4   21.72    1.28 
   7  -2  -4   73.65    2.03 
   7  -2  -4   75.72    2.12 
   7  -2  -4   77.97    2.27 
  -7   2   4   75.83    2.19 
  -7   2   4   82.14    2.00 
  -7   2   4   76.79    2.14 
   6  -2  -4    4.44    0.65 
   6  -2  -4    4.08    0.63 
   6  -2  -4    3.98    0.58 
  -6   2   4    3.60    0.66 
  -6   2   4    3.40    0.54 
  -6   2   4    3.66    0.56 
   5  -2  -4   27.48    1.08 
   5  -2  -4   29.08    1.12 
   5  -2  -4   27.71    1.09 
  -5   2   4   28.68    1.07 
  -5   2   4   28.66    1.11 
  -5   2   4   28.15    1.10 
   4  -2  -4    3.15    0.48 
   4  -2  -4    3.70    0.52 
  -4   2   4    4.21    0.70 
  -4   2   4    4.25    0.51 
  -4   2   4    3.89    0.52 
   3  -2  -4  106.67    2.48 
  -3   2   4  109.65    2.47 
   2  -2  -4    4.68    0.49 
  -2   2   4    4.54    0.43 
   1  -2  -4   15.67    0.68 
  -1   2   4   15.90    0.75 
   0  -2  -4  410.43    7.68 
   0   2   4  407.81    7.89 
  -1  -2  -4   63.26    1.66 
  -1  -2  -4   61.81    1.44 
   1   2   4   63.91    1.75 
   1   2   4   65.20    1.75 
  -2  -2  -4   64.22    1.71 
  -2  -2  -4   63.68    1.39 
  -2  -2  -4   65.26    1.74 
   2   2   4   64.52    1.81 
   2   2   4   64.71    1.65 
   2   2   4   61.96    1.82 
   2   2   4   64.12    1.84 
  -3  -2  -4    0.21    0.33 
  -3  -2  -4    0.73    0.41 
   3   2   4    0.36    0.43 
   3   2   4    0.50    0.30 
   3   2   4    0.96    0.45 
   3   2   4    0.52    0.39 
   3   2   4    0.87    0.18 
  -4  -2  -4   -0.19    0.42 
  -4  -2  -4    0.06    0.40 
   4   2   4    0.04    0.45 
   4   2   4   -0.10    0.33 
   4   2   4    0.53    0.48 
   4   2   4   -0.20    0.37 
  -5  -2  -4  137.80    3.17 
  -5  -2  -4  128.27    3.37 
   5   2   4  135.02    3.47 
   5   2   4  137.67    3.26 
   5   2   4  134.78    3.53 
   5   2   4  131.25    3.39 
  -6  -2  -4   45.08    1.83 
  -6  -2  -4   50.83    1.67 
   6   2   4   48.99    1.96 
   6   2   4   48.52    2.01 
   6   2   4   50.05    1.76 
  -7  -2  -4   16.12    1.55 
  -7  -2  -4   18.05    1.19 
  -7  -2  -4   17.97    2.13 
   7   2   4   16.89    1.29 
   7   2   4   17.84    1.42 
  -8  -2  -4    0.71    0.85 
  -8  -2  -4   -0.62    0.90 
   8   2   4   -1.15    0.93 
   8   2   4   -1.15    0.65 
  -9  -2  -4   13.66    1.50 
  -9  -2  -4   16.97    1.97 
   9   2   4   13.83    1.64 
   9   2   4   16.08    1.71 
  12  -3  -4   15.43    1.86 
 -12   3   4   15.25    1.67 
 -12   3   4   18.26    1.73 
  11  -3  -4    4.86    0.73 
  11  -3  -4    5.51    1.25 
 -11   3   4    5.51    1.09 
 -11   3   4    8.64    1.24 
  10  -3  -4    0.37    0.83 
  10  -3  -4   -0.56    0.53 
  10  -3  -4    0.03    0.50 
 -10   3   4    0.80    0.93 
 -10   3   4    0.74    0.58 
   9  -3  -4   29.55    1.24 
   9  -3  -4   29.13    1.38 
   9  -3  -4   30.06    1.66 
  -9   3   4   27.61    1.42 
  -9   3   4   29.15    1.61 
  -9   3   4   28.38    1.32 
   8  -3  -4   27.89    1.42 
   8  -3  -4   28.37    1.18 
   8  -3  -4   30.07    1.32 
  -8   3   4   29.47    1.44 
  -8   3   4   28.60    1.14 
  -8   3   4   30.70    1.46 
   7  -3  -4   87.70    2.46 
   7  -3  -4   87.01    2.35 
   7  -3  -4   87.18    2.33 
  -7   3   4   86.36    2.41 
  -7   3   4   85.33    2.37 
  -7   3   4   82.62    2.43 
   6  -3  -4    2.83    0.51 
   6  -3  -4    3.81    0.61 
   6  -3  -4    3.29    0.56 
  -6   3   4    3.81    0.67 
  -6   3   4    3.38    0.61 
  -6   3   4    2.85    0.56 
   5  -3  -4    0.10    0.38 
   5  -3  -4    0.33    0.29 
   5  -3  -4   -0.05    0.32 
  -5   3   4   -0.12    0.35 
  -5   3   4    0.78    0.40 
  -5   3   4    0.39    0.28 
   4  -3  -4   13.12    0.74 
   4  -3  -4   13.00    0.79 
  -4   3   4   13.33    0.78 
  -4   3   4   11.70    0.77 
  -4   3   4   13.11    0.75 
   3  -3  -4  220.19    4.51 
   3  -3  -4  221.63    4.54 
  -3   3   4  214.82    4.52 
  -3   3   4  219.79    4.57 
   2  -3  -4  336.67    6.70 
  -2   3   4  344.71    7.06 
  -2   3   4  352.04    6.78 
   1  -3  -4   10.23    0.59 
  -1   3   4   11.14    0.77 
  -1   3   4   10.48    0.63 
   0  -3  -4   59.45    1.51 
   0  -3  -4   59.96    1.61 
   0   3   4   61.89    1.73 
   0   3   4   62.46    1.73 
  -1  -3  -4  207.33    4.22 
  -1  -3  -4  211.04    4.42 
  -1  -3  -4  219.30    4.41 
   1   3   4  213.98    4.53 
   1   3   4  219.69    4.55 
   1   3   4  217.89    4.59 
  -2  -3  -4  540.76   10.20 
  -2  -3  -4  525.00    9.85 
  -2  -3  -4  523.72   10.21 
   2   3   4  534.26   10.31 
   2   3   4  546.45   10.39 
   2   3   4  529.04   10.35 
  -3  -3  -4   87.02    1.83 
  -3  -3  -4   84.24    2.34 
  -3  -3  -4   86.53    2.25 
   3   3   4   85.44    2.38 
   3   3   4   85.46    2.40 
   3   3   4   87.30    2.07 
   3   3   4   85.05    2.38 
  -4  -3  -4   12.23    0.89 
  -4  -3  -4   11.59    1.05 
   4   3   4   13.14    0.78 
   4   3   4   12.10    0.57 
   4   3   4   12.51    1.10 
   4   3   4   14.49    1.21 
   4   3   4   13.70    0.46 
   4   3   4   12.65    1.11 
  -5  -3  -4   13.07    0.97 
  -5  -3  -4   14.89    1.01 
   5   3   4   12.77    1.23 
   5   3   4   15.27    1.01 
   5   3   4   12.56    1.02 
   5   3   4   14.75    1.15 
  -6  -3  -4   49.64    1.70 
  -6  -3  -4   43.99    1.93 
   6   3   4   46.51    1.97 
  -7  -3  -4    2.66    0.93 
  -7  -3  -4    2.90    0.77 
   7   3   4    1.09    0.72 
   7   3   4    2.31    0.89 
  -8  -3  -4    6.59    1.29 
  -8  -3  -4    7.09    1.07 
   8   3   4    5.37    1.21 
   8   3   4    4.86    0.98 
  -9  -3  -4    1.35    0.85 
  -9  -3  -4    0.21    0.93 
   9   3   4    2.32    1.33 
   9   3   4    2.01    1.15 
  12  -4  -4   13.19    1.68 
 -12   4   4    7.43    1.32 
 -12   4   4   11.44    1.85 
  11  -4  -4    9.71    1.54 
  11  -4  -4    9.52    1.07 
 -11   4   4    7.13    1.14 
  10  -4  -4   15.40    1.00 
  10  -4  -4   13.80    1.30 
  10  -4  -4   16.55    1.56 
 -10   4   4   13.72    1.40 
 -10   4   4   16.58    1.15 
   9  -4  -4    0.26    0.45 
   9  -4  -4   -0.45    0.57 
   9  -4  -4    0.67    0.69 
  -9   4   4    0.64    0.80 
  -9   4   4    1.03    0.74 
  -9   4   4    0.58    0.52 
   8  -4  -4   45.69    1.64 
   8  -4  -4   46.64    1.86 
   8  -4  -4   44.81    1.58 
  -8   4   4   44.29    1.74 
  -8   4   4   42.20    1.76 
  -8   4   4   44.59    1.85 
   7  -4  -4   54.98    1.74 
   7  -4  -4   54.28    1.81 
   7  -4  -4   55.79    1.93 
  -7   4   4   56.40    1.92 
  -7   4   4   53.73    1.87 
  -7   4   4   55.07    1.81 
   6  -4  -4  212.11    4.60 
   6  -4  -4  212.90    4.68 
   6  -4  -4  216.37    4.67 
  -6   4   4  206.73    4.73 
  -6   4   4  214.42    4.73 
  -6   4   4  214.52    4.58 
   5  -4  -4    6.19    0.72 
   5  -4  -4    7.01    0.75 
   5  -4  -4    6.46    0.59 
  -5   4   4    6.06    0.64 
  -5   4   4    5.78    0.72 
  -5   4   4    6.75    0.72 
   4  -4  -4    0.19    0.28 
   4  -4  -4    0.50    0.37 
   4  -4  -4   -0.39    0.30 
  -4   4   4   -0.32    0.31 
  -4   4   4   -0.33    0.39 
  -4   4   4    0.01    0.42 
   3  -4  -4  151.93    3.24 
   3  -4  -4  146.58    3.26 
   3  -4  -4  145.08    3.27 
  -3   4   4  143.55    3.31 
  -3   4   4  145.88    3.33 
   2  -4  -4   62.82    1.63 
   2  -4  -4   60.48    1.68 
   2  -4  -4   62.07    1.70 
  -2   4   4   65.50    1.79 
  -2   4   4   60.67    1.75 
  -2   4   4   63.06    1.78 
   1  -4  -4   52.55    1.47 
   1  -4  -4   51.88    1.47 
   1  -4  -4   53.97    1.49 
  -1   4   4   54.18    1.60 
  -1   4   4   52.87    1.60 
  -1   4   4   53.00    1.59 
   0  -4  -4    0.77    0.29 
   0  -4  -4    0.19    0.31 
   0   4   4   -0.01    0.28 
   0   4   4   -0.09    0.30 
   0   4   4    0.94    0.37 
  -1  -4  -4   48.91    1.48 
  -1  -4  -4   47.86    1.49 
  -1  -4  -4   47.83    1.32 
   1   4   4   47.13    1.57 
   1   4   4   49.34    1.63 
   1   4   4   48.57    1.53 
  -2  -4  -4  134.75    3.14 
  -2  -4  -4  132.77    3.11 
  -2  -4  -4  133.88    2.84 
   2   4   4  134.38    3.29 
   2   4   4  133.01    3.18 
   2   4   4  135.33    3.35 
  -3  -4  -4   38.01    1.39 
  -3  -4  -4   39.36    1.49 
   3   4   4   41.37    1.26 
   3   4   4   40.97    1.59 
   3   4   4   39.13    1.63 
   3   4   4   37.69    1.39 
  -4  -4  -4   30.13    1.50 
  -4  -4  -4   28.83    1.25 
   4   4   4   27.98    1.15 
   4   4   4   30.72    0.89 
   4   4   4   31.65    1.60 
   4   4   4   29.88    1.36 
   4   4   4   25.97    1.28 
  -5  -4  -4    3.97    0.71 
  -5  -4  -4    4.18    0.72 
   5   4   4    6.27    0.80 
   5   4   4    4.69    0.75 
   5   4   4    6.98    1.27 
   5   4   4    4.17    0.84 
  -6  -4  -4   40.28    1.99 
  -6  -4  -4   42.06    1.60 
  -6  -4  -4   40.16    1.56 
   6   4   4   39.54    2.15 
   6   4   4   38.75    1.80 
  -7  -4  -4   26.05    1.45 
  -7  -4  -4   25.26    1.82 
   7   4   4   25.71    1.65 
   7   4   4   26.99    2.13 
  -8  -4  -4   19.69    1.43 
  -8  -4  -4   20.81    1.70 
  -8  -4  -4   16.80    1.60 
   8   4   4   21.77    2.03 
   8   4   4   22.79    1.54 
  12  -5  -4    1.83    1.07 
 -12   5   4    2.85    1.09 
 -12   5   4    1.57    1.21 
  11  -5  -4   10.59    1.16 
  11  -5  -4   12.10    1.54 
 -11   5   4   11.71    1.66 
 -11   5   4    9.54    1.62 
  10  -5  -4   26.18    1.78 
  10  -5  -4   25.62    1.26 
 -10   5   4   26.63    1.91 
 -10   5   4   24.47    1.78 
   9  -5  -4   16.91    1.27 
   9  -5  -4   17.28    1.18 
   9  -5  -4   15.84    1.70 
  -9   5   4   16.77    1.62 
   8  -5  -4    0.24    0.73 
   8  -5  -4    0.67    0.57 
   8  -5  -4   -0.23    0.42 
  -8   5   4    0.02    0.64 
  -8   5   4   -0.43    0.51 
  -8   5   4   -0.27    0.57 
   7  -5  -4   36.54    1.58 
   7  -5  -4   38.23    1.44 
   7  -5  -4   36.37    1.51 
  -7   5   4   39.05    1.55 
  -7   5   4   35.62    1.62 
  -7   5   4   35.96    1.67 
   6  -5  -4  159.50    3.77 
   6  -5  -4  167.74    3.91 
   6  -5  -4  164.01    3.81 
  -6   5   4  163.58    3.93 
  -6   5   4  166.20    3.70 
  -6   5   4  158.17    3.92 
   5  -5  -4   63.50    1.91 
   5  -5  -4   62.63    1.92 
   5  -5  -4   63.58    1.89 
  -5   5   4   63.42    1.78 
  -5   5   4   59.03    1.95 
  -5   5   4   58.59    1.96 
   4  -5  -4   -0.08    0.33 
   4  -5  -4    0.04    0.34 
   4  -5  -4    0.12    0.38 
  -4   5   4   -0.23    0.35 
  -4   5   4   -0.26    0.40 
   3  -5  -4   23.42    1.05 
   3  -5  -4   23.48    1.01 
   3  -5  -4   22.40    0.96 
   3  -5  -4   23.24    0.88 
  -3   5   4   23.58    1.12 
  -3   5   4   21.42    1.06 
   2  -5  -4  185.73    3.99 
   2  -5  -4  180.23    3.93 
   2  -5  -4  186.01    3.89 
  -2   5   4  183.20    4.07 
  -2   5   4  183.68    4.05 
  -2   5   4  184.79    4.10 
   1  -5  -4   91.25    2.28 
   1  -5  -4   92.67    2.27 
   1  -5  -4   93.96    2.30 
  -1   5   4   95.42    2.44 
  -1   5   4   92.95    2.41 
  -1   5   4   91.87    2.40 
   0  -5  -4   76.40    1.93 
   0  -5  -4   74.91    1.94 
   0  -5  -4   76.58    2.05 
   0   5   4   77.05    2.12 
   0   5   4   74.51    2.14 
   0   5   4   79.09    2.21 
  -1  -5  -4   -0.28    0.30 
  -1  -5  -4   -0.21    0.29 
  -1  -5  -4   -0.38    0.38 
  -1  -5  -4    0.37    0.42 
   1   5   4    0.10    0.50 
   1   5   4   -0.27    0.27 
   1   5   4   -0.16    0.41 
  -2  -5  -4    1.02    0.41 
  -2  -5  -4    0.82    0.45 
  -2  -5  -4    0.80    0.51 
  -2  -5  -4    1.50    0.41 
   2   5   4    1.49    0.50 
   2   5   4    1.16    0.38 
   2   5   4    1.31    0.54 
  -3  -5  -4   14.98    0.95 
  -3  -5  -4   14.94    0.89 
  -3  -5  -4   14.84    1.09 
  -3  -5  -4   15.14    0.78 
   3   5   4   16.39    1.30 
   3   5   4   14.54    1.07 
   3   5   4   13.35    1.08 
   3   5   4   14.02    0.86 
  -4  -5  -4   14.54    1.09 
  -4  -5  -4   14.75    1.19 
   4   5   4   12.58    1.18 
   4   5   4   16.40    1.41 
   4   5   4   15.52    0.89 
   4   5   4   15.80    0.76 
   4   5   4   14.53    1.25 
  -5  -5  -4    5.28    0.84 
  -5  -5  -4    6.67    0.89 
   5   5   4    6.34    0.98 
  -6  -5  -4    6.86    1.04 
  -6  -5  -4    7.77    1.22 
   6   5   4    9.56    1.44 
  -7  -5  -4    3.87    0.80 
  -7  -5  -4    2.36    1.03 
   7   5   4    3.58    0.92 
   7   5   4    2.17    0.86 
  -8  -5  -4    8.42    1.19 
  -8  -5  -4    8.38    1.38 
   8   5   4    7.91    1.17 
   8   5   4    7.45    1.23 
  12  -6  -4    2.30    1.31 
 -12   6   4    1.59    1.32 
 -12   6   4    1.44    1.23 
  11  -6  -4    9.59    1.19 
  11  -6  -4    7.21    1.36 
 -11   6   4    8.24    1.32 
 -11   6   4    6.84    1.26 
  10  -6  -4   52.31    2.35 
  10  -6  -4   51.10    1.94 
 -10   6   4   50.61    2.37 
 -10   6   4   48.70    2.16 
   9  -6  -4    6.69    1.19 
   9  -6  -4    8.19    1.09 
  -9   6   4    7.93    1.37 
   8  -6  -4    2.47    0.56 
   8  -6  -4    3.35    0.80 
   8  -6  -4    2.74    0.75 
  -8   6   4    2.14    0.79 
  -8   6   4    2.29    0.77 
   7  -6  -4    0.92    0.65 
   7  -6  -4   -0.27    0.52 
   7  -6  -4    0.20    0.50 
  -7   6   4    0.22    0.69 
  -7   6   4    0.45    0.62 
  -7   6   4    0.34    0.61 
   6  -6  -4    5.38    0.94 
   6  -6  -4    3.71    0.63 
   6  -6  -4    3.33    0.64 
  -6   6   4    2.90    0.63 
  -6   6   4    5.41    0.81 
  -6   6   4    2.61    0.72 
   5  -6  -4    2.56    0.56 
   5  -6  -4    3.32    0.55 
   5  -6  -4    2.80    0.59 
   5  -6  -4    2.42    0.51 
  -5   6   4    3.04    0.52 
  -5   6   4    2.78    0.60 
  -5   6   4    2.84    0.63 
   4  -6  -4   33.53    1.33 
   4  -6  -4   35.12    1.15 
   4  -6  -4   35.53    1.42 
   4  -6  -4   34.20    1.36 
  -4   6   4   34.30    1.45 
  -4   6   4   32.68    1.44 
  -4   6   4   36.55    1.24 
   3  -6  -4   -0.34    0.31 
   3  -6  -4   -0.14    0.33 
   3  -6  -4    0.66    0.37 
  -3   6   4   -0.14    0.39 
  -3   6   4    0.34    0.46 
   2  -6  -4  126.32    3.00 
   2  -6  -4  124.51    2.89 
   2  -6  -4  121.16    2.94 
  -2   6   4  124.76    3.09 
  -2   6   4  124.68    3.09 
  -2   6   4  126.03    3.08 
   1  -6  -4  241.70    4.94 
   1  -6  -4  226.83    4.85 
   1  -6  -4  229.61    4.89 
  -1   6   4  229.60    5.01 
  -1   6   4  235.91    5.08 
  -1   6   4  230.88    5.10 
   0  -6  -4   17.35    0.96 
   0  -6  -4   16.74    0.90 
   0  -6  -4   16.08    0.89 
   0  -6  -4   16.64    0.86 
   0   6   4   17.28    0.98 
   0   6   4   16.07    0.98 
   0   6   4   16.42    1.10 
  -1  -6  -4    5.47    0.70 
  -1  -6  -4    5.70    0.68 
  -1  -6  -4    6.05    0.76 
  -1  -6  -4    5.49    0.56 
   1   6   4    5.42    0.80 
   1   6   4    5.33    0.91 
   1   6   4    4.87    0.80 
  -2  -6  -4   15.66    1.03 
  -2  -6  -4   16.37    0.78 
  -2  -6  -4   15.23    1.03 
  -2  -6  -4   15.32    0.91 
   2   6   4   16.09    1.28 
   2   6   4   14.83    1.09 
   2   6   4   14.27    1.10 
  -3  -6  -4   19.17    1.15 
  -3  -6  -4   19.38    1.28 
  -3  -6  -4   18.53    0.96 
  -3  -6  -4   19.52    0.98 
   3   6   4   17.97    1.35 
   3   6   4   17.23    1.39 
   3   6   4   20.02    1.40 
  -4  -6  -4   27.83    1.47 
  -4  -6  -4   25.67    1.31 
  -4  -6  -4   27.38    1.09 
  -4  -6  -4   27.96    1.10 
   4   6   4   24.38    1.70 
   4   6   4   27.82    1.08 
   4   6   4   27.48    1.58 
   4   6   4   28.09    1.88 
  -5  -6  -4   13.35    0.95 
  -5  -6  -4   11.84    1.29 
   5   6   4   11.44    1.23 
   5   6   4   11.52    1.30 
  -6  -6  -4    3.07    0.96 
  -6  -6  -4    4.30    0.70 
  -6  -6  -4    3.25    0.92 
   6   6   4    3.29    1.22 
   6   6   4    4.37    0.94 
  -7  -6  -4   -1.64    0.87 
  -7  -6  -4    1.09    0.92 
   7   6   4    1.05    1.10 
   7   6   4    0.60    0.83 
  -8  -6  -4    1.82    1.17 
   8   6   4    1.83    1.31 
  11  -7  -4    4.35    0.79 
  11  -7  -4    5.38    1.21 
 -11   7   4    3.71    1.16 
 -11   7   4    4.16    1.22 
  10  -7  -4   26.13    1.84 
  10  -7  -4   27.66    1.50 
 -10   7   4   27.30    1.85 
 -10   7   4   26.82    1.98 
   9  -7  -4    7.39    1.34 
   9  -7  -4    6.69    1.19 
  -9   7   4    8.02    1.31 
  -9   7   4    6.77    1.14 
   8  -7  -4    3.70    0.77 
  -8   7   4    3.33    0.97 
  -8   7   4    4.87    0.91 
   7  -7  -4    9.85    1.22 
   7  -7  -4    7.44    0.79 
   7  -7  -4    8.46    1.14 
  -7   7   4    7.09    1.24 
  -7   7   4    6.90    1.04 
  -7   7   4    9.43    0.99 
   6  -7  -4   46.85    1.33 
   6  -7  -4   44.08    1.82 
   6  -7  -4   45.34    1.83 
   6  -7  -4   45.07    1.66 
  -6   7   4   43.59    1.89 
  -6   7   4   44.75    1.88 
  -6   7   4   46.84    1.60 
   5  -7  -4   23.42    1.30 
   5  -7  -4   23.23    1.35 
   5  -7  -4   24.50    1.26 
   5  -7  -4   24.29    0.93 
  -5   7   4   22.46    1.08 
  -5   7   4   26.07    1.43 
  -5   7   4   21.38    1.34 
   4  -7  -4   15.83    0.87 
   4  -7  -4   13.80    1.00 
   4  -7  -4   17.27    1.05 
   4  -7  -4   15.29    1.04 
  -4   7   4   17.02    1.22 
  -4   7   4   14.58    1.02 
  -4   7   4   19.03    0.92 
   3  -7  -4   69.89    1.90 
   3  -7  -4   70.31    2.08 
   3  -7  -4   71.51    2.16 
  -3   7   4   69.50    2.22 
  -3   7   4   71.27    2.23 
  -3   7   4   71.93    2.24 
   2  -7  -4   39.09    1.46 
   2  -7  -4   38.85    1.40 
   2  -7  -4   39.65    1.53 
  -2   7   4   37.66    1.54 
  -2   7   4   39.20    1.61 
  -2   7   4   38.90    1.47 
   1  -7  -4   10.19    0.80 
   1  -7  -4    9.29    0.73 
   1  -7  -4    9.58    0.90 
  -1   7   4    9.95    1.04 
  -1   7   4    9.39    0.82 
  -1   7   4    7.16    0.90 
   0  -7  -4    1.07    0.47 
   0  -7  -4    2.13    0.47 
   0  -7  -4    1.83    0.49 
   0  -7  -4    2.04    0.46 
   0   7   4    2.72    0.72 
   0   7   4    1.08    0.45 
   0   7   4    1.21    0.52 
  -1  -7  -4   65.17    1.86 
  -1  -7  -4   64.42    1.88 
  -1  -7  -4   66.30    1.93 
  -1  -7  -4   63.20    2.07 
   1   7   4   64.28    2.17 
   1   7   4   65.04    2.27 
   1   7   4   64.89    2.09 
  -2  -7  -4    5.11    0.72 
  -2  -7  -4    4.44    0.68 
  -2  -7  -4    4.64    0.74 
  -2  -7  -4    4.32    0.78 
   2   7   4    4.70    0.94 
   2   7   4    3.84    0.73 
   2   7   4    5.48    1.02 
  -3  -7  -4    0.75    0.56 
  -3  -7  -4    1.16    0.69 
  -3  -7  -4    1.61    0.47 
  -3  -7  -4    1.66    0.47 
   3   7   4    0.13    0.76 
   3   7   4    0.36    0.66 
   3   7   4    0.52    0.54 
  -4  -7  -4   11.36    1.45 
  -4  -7  -4   16.05    1.04 
  -4  -7  -4   13.68    1.18 
   4   7   4   14.47    0.96 
   4   7   4   14.87    1.43 
   4   7   4   15.98    1.57 
  -5  -7  -4   37.95    1.93 
  -5  -7  -4   39.87    2.18 
   5   7   4   41.51    2.32 
  -6  -7  -4    0.05    0.86 
  -6  -7  -4    0.93    0.98 
   6   7   4   -0.55    0.67 
   6   7   4    0.10    0.82 
  -7  -7  -4    1.03    0.86 
  -7  -7  -4   -0.76    0.68 
   7   7   4    1.38    0.92 
   7   7   4    0.46    1.30 
  11  -8  -4    0.42    1.14 
  11  -8  -4   -0.21    0.90 
 -11   8   4   -1.49    1.01 
 -11   8   4    0.24    1.07 
  10  -8  -4    1.94    0.72 
 -10   8   4    1.26    1.04 
 -10   8   4    2.34    1.10 
   9  -8  -4   13.43    1.71 
   9  -8  -4   11.78    1.34 
  -9   8   4   13.45    1.76 
  -9   8   4   10.24    1.40 
   8  -8  -4    2.03    0.64 
  -8   8   4    2.64    0.89 
   7  -8  -4    0.49    0.84 
   7  -8  -4    0.42    0.62 
  -7   8   4    0.11    0.66 
   6  -8  -4   17.06    1.36 
   6  -8  -4   15.62    1.15 
   6  -8  -4   16.15    0.88 
  -6   8   4   18.17    2.23 
  -6   8   4   15.74    1.45 
  -6   8   4   15.85    1.05 
   5  -8  -4  105.54    3.11 
   5  -8  -4  105.37    3.06 
   5  -8  -4  105.47    2.53 
   5  -8  -4  101.05    2.91 
  -5   8   4  100.63    3.06 
  -5   8   4  102.02    3.04 
  -5   8   4  109.86    2.53 
   4  -8  -4   65.94    2.13 
   4  -8  -4   65.67    2.20 
   4  -8  -4   63.68    1.83 
   4  -8  -4   61.43    2.13 
  -4   8   4   62.50    2.26 
  -4   8   4   64.94    2.24 
   3  -8  -4   78.10    2.13 
   3  -8  -4   77.75    2.37 
   3  -8  -4   78.63    2.36 
  -3   8   4   79.64    2.53 
  -3   8   4   78.61    2.40 
   2  -8  -4   -0.54    0.43 
   2  -8  -4    0.78    0.56 
   2  -8  -4    0.75    0.60 
  -2   8   4    0.43    0.54 
  -2   8   4    1.49    0.75 
  -2   8   4    0.54    0.56 
   1  -8  -4    2.92    0.61 
   1  -8  -4    1.60    0.41 
   1  -8  -4    2.44    0.62 
  -1   8   4    3.13    0.73 
  -1   8   4    2.39    0.62 
  -1   8   4    3.34    0.71 
   0  -8  -4   26.62    1.39 
   0  -8  -4   26.17    1.36 
   0  -8  -4   26.46    1.28 
   0  -8  -4   26.34    1.10 
   0   8   4   25.03    1.39 
   0   8   4   26.43    1.50 
   0   8   4   26.92    1.41 
  -1  -8  -4   52.72    1.80 
  -1  -8  -4   52.62    1.80 
  -1  -8  -4   52.44    1.76 
  -1  -8  -4   56.97    2.08 
   1   8   4   54.08    2.02 
   1   8   4   51.21    2.16 
   1   8   4   52.40    2.03 
  -2  -8  -4   21.08    1.26 
  -2  -8  -4   22.45    1.34 
  -2  -8  -4   21.60    1.19 
  -2  -8  -4   21.17    1.46 
   2   8   4   20.96    1.66 
   2   8   4   20.65    1.37 
   2   8   4   20.75    1.47 
  -3  -8  -4    0.15    0.63 
  -3  -8  -4   -0.61    0.66 
  -3  -8  -4   -0.47    0.53 
  -3  -8  -4    0.12    0.64 
   3   8   4    0.02    0.80 
   3   8   4    0.28    0.83 
  -4  -8  -4   22.46    1.47 
  -4  -8  -4   24.86    1.65 
  -4  -8  -4   20.33    1.27 
   4   8   4   20.47    1.53 
   4   8   4   23.00    1.53 
   4   8   4   21.36    1.70 
  -5  -8  -4    4.38    1.01 
  -5  -8  -4    4.38    1.10 
   5   8   4    4.87    1.05 
   5   8   4    4.80    1.36 
  -6  -8  -4   18.90    2.09 
  -6  -8  -4   17.27    1.28 
   6   8   4   16.76    1.81 
   6   8   4   19.37    1.64 
  11  -9  -4    0.94    0.83 
  11  -9  -4    2.32    1.40 
 -11   9   4   -1.40    1.09 
 -11   9   4    0.89    1.11 
  10  -9  -4    0.95    0.75 
 -10   9   4   -1.01    0.83 
 -10   9   4   -0.23    0.93 
   9  -9  -4   12.69    1.48 
   9  -9  -4   14.71    1.72 
  -9   9   4   12.72    1.56 
  -9   9   4   13.10    1.77 
   8  -9  -4   15.67    1.39 
   8  -9  -4   13.84    1.60 
  -8   9   4   13.09    1.37 
  -8   9   4   14.78    1.74 
   7  -9  -4   34.55    1.65 
   7  -9  -4   34.68    1.96 
  -7   9   4   37.59    1.61 
  -7   9   4   35.47    1.93 
   6  -9  -4   16.87    0.92 
  -6   9   4   17.38    1.10 
  -6   9   4   12.98    2.09 
   5  -9  -4    0.05    0.74 
   5  -9  -4    0.90    0.75 
   5  -9  -4    0.07    0.43 
  -5   9   4    0.45    0.52 
  -5   9   4   -0.98    0.65 
   4  -9  -4   14.49    1.15 
   4  -9  -4   14.39    0.99 
  -4   9   4   13.81    1.29 
  -4   9   4   13.99    1.14 
  -4   9   4   11.26    1.36 
   3  -9  -4   77.29    2.46 
   3  -9  -4   78.29    2.26 
  -3   9   4   80.70    2.74 
  -3   9   4   78.44    2.60 
  -3   9   4   77.66    2.56 
   2  -9  -4   38.74    1.63 
   2  -9  -4   34.10    1.47 
  -2   9   4   39.52    1.84 
  -2   9   4   38.39    1.72 
  -2   9   4   36.39    1.69 
   1  -9  -4    1.02    0.64 
   1  -9  -4    1.36    0.43 
   1  -9  -4    0.53    1.01 
  -1   9   4    0.76    0.69 
  -1   9   4    1.84    0.76 
  -1   9   4    0.84    0.70 
   0  -9  -4    4.16    0.81 
   0  -9  -4    3.32    0.97 
   0  -9  -4    4.31    0.70 
   0   9   4    4.39    0.90 
   0   9   4    4.80    0.92 
   0   9   4    3.81    0.70 
  -1  -9  -4   37.88    1.99 
  -1  -9  -4   38.59    1.90 
  -1  -9  -4   39.54    1.39 
  -1  -9  -4   38.25    1.71 
   1   9   4   39.59    2.20 
   1   9   4   37.94    1.79 
  -2  -9  -4    7.05    1.23 
  -2  -9  -4    5.29    0.94 
  -2  -9  -4    4.92    0.92 
  -2  -9  -4    8.35    0.92 
   2   9   4    6.12    1.03 
   2   9   4    5.84    1.17 
  -3  -9  -4    0.63    1.51 
  -3  -9  -4    0.41    0.62 
   3   9   4   -1.11    0.92 
   3   9   4    0.58    0.92 
  -4  -9  -4    0.59    0.67 
  -4  -9  -4    0.26    0.93 
   4   9   4   -1.16    0.72 
   4   9   4   -1.44    0.98 
  -5  -9  -4    7.54    1.04 
  -5  -9  -4   10.54    1.72 
   5   9   4    7.34    1.23 
   5   9   4    7.37    1.58 
  -6  -9  -4   64.89    3.17 
   6   9   4   66.96    3.43 
  10 -10  -4    4.12    1.28 
  10 -10  -4    4.00    1.13 
 -10  10   4    5.18    1.24 
 -10  10   4    5.96    1.40 
   9 -10  -4    2.76    1.02 
   9 -10  -4    3.89    0.97 
  -9  10   4    3.87    1.27 
  -9  10   4    4.71    1.00 
   8 -10  -4    5.85    0.97 
   8 -10  -4    8.44    1.46 
  -8  10   4    8.17    1.12 
  -8  10   4    4.97    1.21 
   7 -10  -4   21.45    1.70 
   7 -10  -4   21.00    1.53 
  -7  10   4   24.58    1.39 
  -7  10   4   21.20    1.74 
   6 -10  -4   17.77    1.43 
   6 -10  -4   19.14    0.98 
   6 -10  -4   18.86    1.36 
  -6  10   4   18.56    1.57 
   5 -10  -4    2.55    0.68 
   5 -10  -4    2.42    0.83 
  -5  10   4    4.13    1.06 
   4 -10  -4    2.72    0.72 
   4 -10  -4    3.59    0.85 
  -4  10   4    3.30    0.96 
  -4  10   4    3.73    1.02 
   3 -10  -4   12.10    1.00 
   3 -10  -4   10.85    1.30 
  -3  10   4   13.23    1.26 
  -3  10   4    9.82    1.39 
   2 -10  -4   46.40    1.93 
  -2  10   4   45.81    2.20 
  -2  10   4   45.99    2.00 
   1 -10  -4   11.96    1.28 
  -1  10   4   12.66    1.30 
  -1  10   4   12.51    1.20 
   0 -10  -4    0.83    0.89 
   0 -10  -4    0.35    0.67 
   0 -10  -4    0.16    0.46 
   0  10   4    0.39    0.60 
   0  10   4    0.63    0.87 
  -1 -10  -4    3.94    0.95 
  -1 -10  -4    3.71    0.79 
  -2 -10  -4   37.87    1.80 
  -2 -10  -4   43.37    2.17 
   2  10   4   44.49    2.10 
   2  10   4   39.96    2.34 
  -3 -10  -4   17.77    1.45 
  -3 -10  -4   16.16    1.88 
  -3 -10  -4   17.91    1.72 
   3  10   4   19.61    2.02 
   3  10   4   20.40    1.58 
  -4 -10  -4    9.79    1.43 
  -4 -10  -4    8.16    1.29 
   4  10   4    9.03    1.41 
   4  10   4    7.55    1.25 
  -5 -10  -4    7.46    1.26 
  -5 -10  -4    6.45    1.48 
   5  10   4    5.24    1.62 
   9 -11  -4    0.16    0.75 
   9 -11  -4   -1.42    0.92 
  -9  11   4    1.37    1.32 
  -9  11   4    0.88    1.03 
   8 -11  -4    1.09    1.18 
   8 -11  -4   -0.85    0.69 
  -8  11   4   -1.14    0.75 
   7 -11  -4   16.83    1.53 
   7 -11  -4   14.80    1.46 
  -7  11   4   16.60    1.72 
   6 -11  -4    5.83    1.09 
   6 -11  -4    8.08    1.00 
   6 -11  -4    6.78    0.96 
  -6  11   4   11.16    1.76 
   5 -11  -4    9.17    1.11 
   5 -11  -4    8.32    1.18 
  -5  11   4    8.42    1.13 
  -5  11   4    9.92    1.31 
   4 -11  -4    0.83    0.85 
  -4  11   4   -0.08    0.87 
  -4  11   4    0.30    0.86 
   3 -11  -4    0.34    0.58 
   3 -11  -4   -0.09    0.65 
  -3  11   4    0.65    0.79 
  -3  11   4    1.15    0.96 
   2 -11  -4   22.80    1.53 
   2 -11  -4   24.25    1.58 
  -2  11   4   20.74    2.29 
  -2  11   4   22.48    1.75 
   1 -11  -4    2.67    0.81 
   1 -11  -4    2.32    0.76 
  -1  11   4    2.39    0.87 
   0 -11  -4    0.78    0.60 
   0 -11  -4    2.42    0.86 
   0  11   4    2.20    0.92 
   0  11   4    0.35    1.56 
  -1 -11  -4   -0.70    0.70 
  -1 -11  -4    0.90    0.69 
  -1 -11  -4    1.10    0.68 
   1  11   4   -0.74    0.83 
   1  11   4   -0.96    1.00 
  -2 -11  -4   23.59    1.50 
  -2 -11  -4   24.72    1.74 
  -2 -11  -4   23.88    1.68 
   2  11   4   23.81    1.88 
   2  11   4   24.26    2.14 
  -3 -11  -4   15.16    1.68 
  -3 -11  -4   17.22    1.33 
  -3 -11  -4   18.46    1.91 
   3  11   4   17.63    1.72 
  -4 -11  -4    8.16    1.32 
  -4 -11  -4   12.07    1.76 
   4  11   4    7.82    1.31 
   8 -12  -4    0.74    1.18 
   8 -12  -4    0.34    0.94 
  -8  12   4   -0.85    1.06 
   7 -12  -4   -1.19    0.77 
   7 -12  -4    2.12    1.00 
  -7  12   4    0.66    1.20 
   6 -12  -4   37.93    1.56 
   6 -12  -4   33.98    1.75 
  -6  12   4   35.37    1.99 
  -6  12   4   32.52    1.97 
   5 -12  -4   11.56    1.10 
  -5  12   4   10.70    1.42 
  -5  12   4   10.16    1.48 
   4 -12  -4    5.27    1.12 
   4 -12  -4    4.28    0.78 
  -4  12   4    4.40    0.94 
  -4  12   4    3.07    0.88 
   3 -12  -4    0.10    0.61 
   3 -12  -4    1.27    0.79 
  -3  12   4    0.19    0.75 
  -3  12   4    0.88    0.74 
   2 -12  -4    6.39    1.08 
   2 -12  -4    6.01    0.97 
  -2  12   4    6.47    1.20 
  -2  12   4    6.74    1.16 
   1 -12  -4    0.38    0.62 
   1 -12  -4    1.46    1.00 
  -1  12   4    1.91    0.98 
  -1  12   4    0.67    1.02 
   0 -12  -4   -0.87    0.62 
   0 -12  -4   -0.48    0.92 
   0  12   4   -0.71    0.73 
   0  12   4    1.90    0.85 
  -1 -12  -4    5.43    1.22 
  -1 -12  -4    4.22    0.93 
   1  12   4    6.74    1.48 
  -2 -12  -4    3.97    0.82 
  -2 -12  -4    6.77    1.15 
   2  12   4    3.82    1.19 
   7 -13  -4    2.75    1.21 
  -7  13   4    2.38    0.99 
  -7  13   4    1.04    0.90 
   6 -13  -4    3.55    1.00 
   6 -13  -4    3.73    0.77 
  -6  13   4    3.99    1.40 
  -6  13   4    3.95    1.15 
   5 -13  -4    0.38    0.75 
   5 -13  -4    1.56    0.72 
  -5  13   4    0.36    1.10 
  -5  13   4    0.31    1.07 
   4 -13  -4    7.30    1.37 
   4 -13  -4    7.52    0.91 
  -4  13   4    4.01    1.31 
   3 -13  -4    0.18    0.89 
  -3  13   4    0.50    0.89 
  -3  13   4    1.12    0.83 
   2 -13  -4    3.37    1.11 
  -2  13   4    2.58    1.14 
   1 -13  -4    2.83    1.25 
   1 -13  -4    2.91    1.05 
  -1  13   4    0.79    1.02 
   0 -13  -4   27.42    2.12 
   0 -13  -4   30.22    1.93 
   0  13   4   30.24    2.37 
   0  13   4   31.00    2.03 
   1  13   4    5.98    1.40 
  -3  14   4    0.94    1.20 
   3  14  -5   16.09    1.93 
  -3 -14   5   18.00    1.84 
  -3 -14   5   17.03    1.60 
   2  14  -5    6.02    1.13 
  -2 -14   5    8.43    1.37 
  -2 -14   5    5.73    1.14 
  -2 -14   5    6.45    1.00 
   1  14  -5    0.26    1.07 
  -1 -14   5    0.15    0.82 
  -1 -14   5    3.86    1.34 
  -1 -14   5   -0.19    0.68 
   0  14  -5    1.25    0.88 
   0 -14   5    1.04    0.94 
   0 -14   5    1.01    0.88 
  -1  14  -5   10.02    1.79 
   1 -14   5   13.70    1.40 
   1 -14   5   15.82    1.88 
   1 -14   5   13.95    1.49 
  -2  14  -5   16.30    1.87 
   2 -14   5   19.77    1.90 
   2 -14   5   18.73    1.63 
  -3  14  -5    5.21    1.19 
   3 -14   5    6.53    1.08 
   3 -14   5    5.66    1.18 
  -4  14  -5    1.93    1.08 
   4 -14   5    0.78    0.99 
   4 -14   5   -0.58    0.76 
   5  13  -5   -1.73    1.14 
  -5 -13   5    0.28    0.97 
  -5 -13   5   -1.49    1.01 
   4  13  -5    3.33    1.18 
  -4 -13   5   -0.09    0.81 
  -4 -13   5    1.95    0.72 
  -4 -13   5    2.86    1.10 
   3  13  -5    5.61    1.00 
  -3 -13   5    7.17    1.29 
  -3 -13   5    5.38    0.88 
  -3 -13   5    5.99    1.17 
   2  13  -5    0.71    0.94 
  -2 -13   5    2.44    1.01 
  -2 -13   5    0.71    0.72 
   1  13  -5    5.08    1.15 
  -1 -13   5    6.50    1.11 
  -1 -13   5    7.85    1.30 
   0  13  -5    7.74    1.44 
   0 -13   5    5.59    1.01 
   0 -13   5    9.03    1.05 
   0 -13   5    7.51    1.21 
  -1  13  -5    9.00    1.40 
   1 -13   5   11.32    1.53 
   1 -13   5   11.41    1.25 
  -2  13  -5    9.78    1.59 
   2 -13   5   11.37    1.26 
   2 -13   5    9.60    1.13 
   2 -13   5    8.47    1.51 
  -3  13  -5   16.36    1.69 
   3 -13   5   19.04    1.52 
   3 -13   5   17.23    1.24 
   3 -13   5   13.81    1.39 
  -4  13  -5    3.23    0.95 
   4 -13   5    2.43    0.64 
   4 -13   5    3.30    0.74 
  -5  13  -5    1.74    1.15 
   5 -13   5    0.28    0.71 
   5 -13   5   -0.06    0.89 
   5 -13   5   -0.16    0.98 
   6  12  -5   12.57    1.33 
   6  12  -5   11.39    1.53 
  -6 -12   5    9.77    1.13 
  -6 -12   5    8.12    1.24 
   5  12  -5    3.54    1.22 
  -5 -12   5    5.55    1.15 
  -5 -12   5    5.38    1.27 
  -5 -12   5    3.15    0.89 
   4  12  -5    2.90    0.78 
  -4 -12   5    1.11    1.02 
  -4 -12   5    0.94    0.92 
   3  12  -5    1.60    1.05 
  -3 -12   5    4.66    1.12 
  -3 -12   5    2.38    0.88 
  -3 -12   5    0.18    0.70 
   2  12  -5   12.04    1.31 
  -2 -12   5   12.53    1.44 
  -2 -12   5   13.74    1.30 
  -2 -12   5   10.80    1.34 
  -1 -12   5   25.93    1.66 
  -1 -12   5   32.12    1.87 
   0 -12   5    1.33    0.70 
   0 -12   5    2.03    0.97 
   0 -12   5    0.53    0.63 
  -1  12  -5    0.00    0.82 
  -1  12  -5    0.91    0.61 
   1 -12   5   -0.04    0.68 
   1 -12   5   -0.20    0.64 
   1 -12   5    0.13    0.69 
  -2  12  -5    0.79    0.91 
  -2  12  -5    0.54    0.73 
  -2  12  -5    1.58    0.71 
   2 -12   5    1.12    0.74 
   2 -12   5    1.03    0.67 
   2 -12   5   -0.28    0.60 
  -3  12  -5    8.37    1.18 
   3 -12   5   11.09    1.23 
   3 -12   5    9.72    1.15 
   3 -12   5    8.49    1.23 
  -4  12  -5   -1.21    0.89 
   4 -12   5   -0.13    0.58 
   4 -12   5    0.38    0.75 
   4 -12   5   -0.28    0.64 
   4 -12   5    0.29    0.57 
  -5  12  -5    0.12    0.78 
   5 -12   5    1.80    0.68 
   5 -12   5    0.71    1.24 
   5 -12   5    0.25    0.80 
   5 -12   5    0.84    0.70 
  -6  12  -5    2.66    1.09 
   6 -12   5    3.82    0.90 
   6 -12   5    3.12    1.02 
   6 -12   5    2.64    1.14 
   7  11  -5    2.53    0.75 
   7  11  -5    2.50    1.10 
  -7 -11   5    1.09    1.02 
  -7 -11   5    1.48    0.98 
   6  11  -5    2.75    0.83 
   6  11  -5    2.20    0.78 
  -6 -11   5    0.88    0.97 
  -6 -11   5    1.26    0.73 
   5  11  -5    0.37    1.04 
  -5 -11   5    1.14    0.91 
  -5 -11   5    0.67    0.89 
  -5 -11   5    0.93    0.68 
   4  11  -5    0.84    0.84 
  -4 -11   5   -0.14    0.76 
  -4 -11   5   -0.82    0.68 
  -4 -11   5    0.42    0.81 
   3  11  -5    1.90    0.87 
  -3 -11   5    2.20    0.62 
  -3 -11   5    3.26    0.94 
   2  11  -5   17.94    1.50 
  -2 -11   5   20.88    1.52 
  -2 -11   5   15.97    1.21 
  -2 -11   5   19.34    1.40 
   1  11  -5   62.37    2.31 
  -1 -11   5   63.86    2.24 
  -1 -11   5   66.21    2.35 
  -1 -11   5   62.82    2.20 
   0  11  -5    0.02    0.61 
   0  11  -5    0.42    0.51 
   0 -11   5   -0.17    0.65 
   0 -11   5    0.25    0.56 
   0 -11   5   -0.17    0.75 
  -1  11  -5   13.10    1.13 
  -1  11  -5   12.16    1.19 
  -1  11  -5   12.75    1.07 
   1 -11   5   13.10    1.14 
   1 -11   5   10.86    1.15 
  -2  11  -5    1.47    0.78 
  -2  11  -5    1.70    0.76 
   2 -11   5    1.23    0.76 
   2 -11   5    1.57    0.53 
   2 -11   5    1.43    0.67 
   2 -11   5    1.60    0.63 
  -3  11  -5   18.29    1.52 
   3 -11   5   18.66    1.46 
   3 -11   5   19.46    1.47 
   3 -11   5   21.95    1.39 
   3 -11   5   17.35    1.16 
   4 -11   5    3.72    0.83 
   4 -11   5    3.96    0.76 
   4 -11   5    3.60    0.88 
   4 -11   5    3.86    0.73 
   4 -11   5    2.67    0.86 
   4 -11   5    3.04    0.81 
   5 -11   5    3.59    0.84 
   5 -11   5    4.03    0.82 
   5 -11   5    3.57    1.01 
   5 -11   5    2.46    0.76 
   5 -11   5    3.79    1.04 
   5 -11   5    4.66    0.80 
  -6  11  -5   -1.86    0.90 
   6 -11   5   -0.19    0.68 
   6 -11   5   -0.31    1.01 
   6 -11   5    0.14    0.75 
  -7  11  -5    1.45    0.95 
   7 -11   5    0.96    1.03 
   7 -11   5    0.62    1.09 
   8  10  -5    5.68    1.27 
   8  10  -5    8.94    1.60 
  -8 -10   5    5.24    1.15 
  -8 -10   5    4.81    1.28 
   7  10  -5    1.27    0.73 
   7  10  -5    1.60    1.11 
  -7 -10   5    2.22    0.66 
  -7 -10   5    2.10    1.02 
   6  10  -5    0.68    0.68 
   6  10  -5    1.70    0.64 
  -6 -10   5    0.28    0.72 
  -6 -10   5    0.87    0.80 
   5  10  -5   12.74    1.47 
  -5 -10   5   14.11    1.36 
  -5 -10   5   14.70    1.43 
  -5 -10   5   11.95    1.52 
   4  10  -5   11.72    1.17 
  -4 -10   5    9.60    1.34 
  -4 -10   5   11.13    1.37 
  -4 -10   5   13.59    1.30 
   3  10  -5    0.21    0.53 
  -3 -10   5    0.62    0.74 
  -3 -10   5   -1.17    0.54 
   2  10  -5   29.93    1.42 
  -2 -10   5   29.11    1.46 
  -2 -10   5   24.89    1.33 
  -2 -10   5   29.95    1.68 
   1  10  -5    3.44    0.49 
   1  10  -5    3.11    0.67 
  -1 -10   5    2.08    0.63 
  -1 -10   5    3.55    0.74 
  -1 -10   5    2.95    0.74 
   0  10  -5   39.99    1.42 
   0  10  -5   38.92    1.67 
   0 -10   5   38.56    1.17 
   0 -10   5   37.09    1.73 
   0 -10   5   39.58    1.64 
   0 -10   5   38.46    1.59 
  -1  10  -5   26.88    1.27 
  -1  10  -5   26.39    1.27 
  -1  10  -5   27.04    1.42 
   1 -10   5   27.12    1.03 
   1 -10   5   29.06    1.34 
   1 -10   5   24.52    1.26 
   1 -10   5   26.16    1.30 
  -2  10  -5    3.27    0.63 
   2 -10   5    4.13    0.81 
   2 -10   5    3.17    0.55 
   2 -10   5    2.89    0.64 
   2 -10   5    3.44    0.68 
   2 -10   5    3.02    0.65 
   2 -10   5    3.35    0.80 
  -3  10  -5   15.22    1.46 
   3 -10   5   17.72    1.25 
   3 -10   5   17.86    1.10 
   3 -10   5   17.43    1.26 
   3 -10   5   17.64    1.28 
   3 -10   5   17.96    1.29 
   3 -10   5   17.41    1.12 
   4 -10   5   38.15    1.49 
   4 -10   5   34.68    1.54 
   4 -10   5   38.20    1.84 
   4 -10   5   36.37    1.76 
   4 -10   5   36.91    1.69 
   4 -10   5   34.61    1.60 
   5 -10   5   39.20    1.98 
   5 -10   5   40.35    1.73 
   5 -10   5   42.41    1.52 
   5 -10   5   41.71    1.74 
   5 -10   5   40.22    1.75 
   5 -10   5   39.90    2.01 
  -6  10  -5   10.16    1.43 
   6 -10   5   10.83    1.11 
   6 -10   5    9.37    1.51 
   6 -10   5   10.80    1.16 
   6 -10   5    7.67    1.43 
   6 -10   5   12.06    1.19 
  -7  10  -5   -0.51    0.83 
   7 -10   5   -0.48    0.90 
   7 -10   5   -0.01    0.96 
  -8  10  -5    3.38    1.21 
   8 -10   5    2.07    0.97 
   8 -10   5    2.49    1.23 
   9   9  -5   11.62    1.36 
   9   9  -5   10.28    1.90 
  -9  -9   5    9.74    1.66 
  -9  -9   5   13.93    1.39 
   8   9  -5    2.79    0.86 
  -8  -9   5    2.15    1.02 
  -8  -9   5    1.85    0.98 
   7   9  -5    0.68    0.91 
   7   9  -5    0.24    1.10 
  -7  -9   5    0.19    0.77 
  -7  -9   5    1.52    0.67 
   6   9  -5    3.78    0.84 
   6   9  -5    2.80    0.74 
  -6  -9   5    3.51    0.87 
  -6  -9   5    2.86    1.05 
   5   9  -5   66.62    2.37 
  -5  -9   5   54.03    2.44 
   4   9  -5   38.50    1.62 
  -4  -9   5   39.25    1.20 
  -4  -9   5   40.28    1.79 
  -4  -9   5   38.01    1.70 
  -4  -9   5   38.78    1.67 
   3   9  -5   10.86    0.87 
  -3  -9   5    8.76    0.78 
  -3  -9   5    8.61    0.87 
  -3  -9   5   10.56    1.08 
   2   9  -5   20.58    1.16 
   2   9  -5   17.09    1.40 
   2   9  -5   22.47    0.75 
  -2  -9   5   20.77    1.25 
  -2  -9   5   20.77    1.26 
  -2  -9   5   22.10    1.29 
   1   9  -5    0.42    0.54 
   1   9  -5    0.41    0.50 
   1   9  -5    2.19    0.75 
  -1  -9   5    0.64    0.48 
  -1  -9   5    0.08    0.48 
  -1  -9   5    0.79    0.39 
   0   9  -5   56.63    1.89 
   0   9  -5   56.31    1.63 
   0   9  -5   48.00    1.81 
   0  -9   5   54.02    1.93 
   0  -9   5   56.41    1.87 
   0  -9   5   55.66    1.86 
   0  -9   5   58.49    1.49 
  -1   9  -5   42.27    1.47 
   1  -9   5   39.83    1.51 
   1  -9   5   42.26    1.59 
   1  -9   5   42.93    1.31 
   1  -9   5   41.24    1.58 
   1  -9   5   42.30    1.36 
  -2   9  -5   41.78    1.61 
  -2   9  -5   39.52    1.65 
   2  -9   5   40.45    1.59 
   2  -9   5   42.49    1.33 
   2  -9   5   40.00    1.62 
   2  -9   5   42.31    1.52 
   2  -9   5   40.10    1.65 
   2  -9   5   41.62    1.63 
  -3   9  -5    1.80    0.51 
  -3   9  -5    1.74    0.53 
   3  -9   5    2.44    0.62 
   3  -9   5    2.70    0.55 
   3  -9   5    1.56    0.44 
   3  -9   5    1.56    0.64 
   3  -9   5    2.36    0.56 
   3  -9   5    2.54    0.65 
  -4   9  -5   14.69    1.26 
  -4   9  -5   13.46    1.18 
   4  -9   5   15.61    1.20 
   4  -9   5   16.31    1.02 
   4  -9   5   15.36    1.12 
   4  -9   5   15.45    1.15 
   4  -9   5   14.74    1.34 
   4  -9   5   15.43    1.12 
  -5   9  -5    0.00    0.75 
   5  -9   5    0.95    0.46 
   5  -9   5    0.18    0.80 
   5  -9   5    0.68    0.76 
   5  -9   5    0.67    0.56 
   5  -9   5   -0.50    0.50 
  -6   9  -5   27.48    1.57 
  -6   9  -5   28.04    1.61 
   6  -9   5   26.24    1.48 
   6  -9   5   26.30    1.71 
   6  -9   5   27.90    1.81 
   6  -9   5   28.66    1.42 
  -7   9  -5    2.66    0.90 
   7  -9   5    2.93    0.90 
   7  -9   5    2.13    0.97 
  -8   9  -5    0.09    0.84 
  -8   9  -5    0.21    0.93 
   8  -9   5    0.00    0.86 
   8  -9   5    1.39    1.26 
  10   8  -5   -0.10    0.82 
   9   8  -5    1.34    1.24 
   9   8  -5    1.79    0.86 
  -9  -8   5    2.40    0.85 
  -9  -8   5    0.33    0.96 
   8   8  -5   12.88    1.74 
   8   8  -5   16.24    1.25 
  -8  -8   5   13.31    1.53 
  -8  -8   5   14.25    1.24 
  -8  -8   5   14.27    1.46 
   7   8  -5    3.10    0.80 
  -7  -8   5    2.16    0.57 
  -7  -8   5    2.39    1.04 
  -7  -8   5    1.48    1.06 
   6   8  -5    9.72    1.23 
   6   8  -5    8.93    1.43 
  -6  -8   5   10.72    1.13 
  -6  -8   5    9.49    1.21 
   5   8  -5   19.23    1.15 
  -5  -8   5   17.79    1.24 
  -5  -8   5   18.76    1.36 
  -5  -8   5   19.04    0.84 
   4   8  -5   61.08    2.19 
   4   8  -5   69.17    2.07 
  -4  -8   5   65.34    1.70 
  -4  -8   5   66.70    2.14 
  -4  -8   5   62.22    2.17 
  -4  -8   5   66.59    2.12 
   3   8  -5   89.42    2.38 
   3   8  -5   83.70    2.62 
  -3  -8   5   89.11    2.61 
  -3  -8   5   86.51    2.48 
  -3  -8   5   92.44    2.11 
  -3  -8   5   86.28    2.43 
   2   8  -5  144.06    2.78 
   2   8  -5  140.64    3.35 
   2   8  -5  145.31    3.62 
  -2  -8   5  140.39    3.43 
  -2  -8   5  138.00    3.17 
  -2  -8   5  138.98    3.41 
  -2  -8   5  141.77    3.42 
   1   8  -5    0.80    0.30 
   1   8  -5    0.03    0.48 
   1   8  -5    0.57    0.40 
  -1  -8   5   -0.10    0.33 
  -1  -8   5   -0.36    0.41 
  -1  -8   5    0.60    0.41 
  -1  -8   5    0.58    0.36 
   0   8  -5   22.78    0.98 
   0   8  -5   22.13    1.20 
   0   8  -5   20.81    1.14 
   0  -8   5   23.23    0.91 
   0  -8   5   24.81    1.23 
   0  -8   5   22.09    1.07 
   0  -8   5   22.62    1.15 
  -1   8  -5   31.42    1.41 
  -1   8  -5   31.42    1.20 
   1  -8   5   29.29    1.20 
   1  -8   5   30.71    1.30 
   1  -8   5   30.51    1.11 
   1  -8   5   32.16    1.11 
   1  -8   5   30.05    1.17 
   1  -8   5   30.50    1.31 
  -2   8  -5   36.06    1.51 
  -2   8  -5   35.78    1.43 
   2  -8   5   35.09    1.43 
   2  -8   5   36.39    1.38 
   2  -8   5   36.48    1.40 
   2  -8   5   36.07    1.34 
   2  -8   5   34.15    1.30 
   2  -8   5   36.36    1.23 
  -3   8  -5   11.79    1.02 
  -3   8  -5   11.84    1.11 
   3  -8   5   12.57    0.74 
   3  -8   5   11.95    0.97 
   3  -8   5   12.08    0.85 
   3  -8   5   10.59    0.90 
   3  -8   5   11.53    0.97 
   3  -8   5   10.21    0.90 
  -4   8  -5    0.22    0.60 
  -4   8  -5    0.13    0.55 
   4  -8   5    0.01    0.56 
   4  -8   5    0.20    0.39 
   4  -8   5    0.41    0.49 
   4  -8   5    0.62    0.40 
   4  -8   5   -0.60    0.32 
   4  -8   5    0.52    0.51 
  -5   8  -5    4.34    0.62 
   5  -8   5    4.91    0.67 
   5  -8   5    4.72    0.71 
   5  -8   5    3.91    0.76 
   5  -8   5    3.12    0.73 
   5  -8   5    5.90    0.80 
   5  -8   5    6.03    0.75 
  -6   8  -5   41.72    1.56 
  -6   8  -5   38.82    1.65 
  -6   8  -5   39.87    1.82 
   6  -8   5   40.72    1.42 
   6  -8   5   37.46    1.93 
   6  -8   5   40.19    1.71 
   6  -8   5   40.34    1.72 
  -7   8  -5   19.11    1.45 
   7  -8   5   19.17    1.49 
   7  -8   5   19.22    1.51 
   7  -8   5   20.12    1.39 
  -8   8  -5    0.58    0.82 
  -8   8  -5    1.16    1.07 
   8  -8   5    1.77    1.25 
   8  -8   5    0.91    0.91 
  -9   8  -5    3.32    1.28 
  -9   8  -5    1.31    1.16 
   9  -8   5   -0.36    1.15 
  10   7  -5    0.39    0.89 
  10   7  -5    1.05    1.05 
 -10  -7   5   -0.22    0.83 
 -10  -7   5    1.51    0.71 
   9   7  -5    3.25    0.74 
   9   7  -5    3.58    0.90 
  -9  -7   5    0.62    1.00 
  -9  -7   5    1.44    0.90 
   8   7  -5   22.38    1.54 
   8   7  -5   20.17    1.49 
  -8  -7   5   18.16    1.44 
  -8  -7   5   21.61    1.49 
  -8  -7   5   21.12    1.33 
   7   7  -5    7.34    1.30 
   7   7  -5    7.19    1.04 
  -7  -7   5    5.82    1.00 
  -7  -7   5    8.07    1.04 
  -7  -7   5    9.21    0.72 
   6   7  -5   45.76    1.62 
   6   7  -5   43.29    1.82 
   6   7  -5   47.59    1.73 
  -6  -7   5   46.99    1.48 
  -6  -7   5   46.76    2.03 
  -6  -7   5   46.56    1.67 
   5   7  -5    0.28    0.65 
   5   7  -5    0.27    0.50 
   5   7  -5    0.82    0.50 
  -5  -7   5    1.33    0.69 
  -5  -7   5    0.94    0.33 
  -5  -7   5   -0.37    0.38 
   4   7  -5    6.33    0.93 
   4   7  -5    9.34    0.99 
  -4  -7   5    8.58    0.64 
  -4  -7   5    6.87    0.76 
  -4  -7   5    5.86    0.74 
  -4  -7   5    7.70    0.82 
   3   7  -5   13.09    0.95 
   3   7  -5   13.29    1.05 
  -3  -7   5   13.27    0.91 
  -3  -7   5   10.51    0.90 
  -3  -7   5   13.56    0.73 
  -3  -7   5   11.21    1.06 
   2   7  -5   71.57    1.96 
   2   7  -5   69.39    2.07 
   2   7  -5   72.58    1.45 
  -2  -7   5   70.35    2.03 
  -2  -7   5   69.19    1.98 
  -2  -7   5   71.99    1.91 
  -2  -7   5   70.22    2.06 
   1   7  -5   20.02    0.71 
   1   7  -5   15.58    0.91 
   1   7  -5   19.18    0.95 
  -1  -7   5   17.86    0.95 
  -1  -7   5   17.23    0.97 
  -1  -7   5   19.08    1.05 
  -1  -7   5   19.38    0.80 
   0   7  -5    3.34    0.61 
   0   7  -5    2.68    0.47 
   0  -7   5    1.91    0.42 
   0  -7   5    2.68    0.41 
   0  -7   5    1.92    0.51 
   0  -7   5    2.16    0.41 
  -1   7  -5    4.34    0.62 
  -1   7  -5    2.76    0.47 
   1  -7   5    3.18    0.54 
   1  -7   5    3.58    0.53 
   1  -7   5    2.80    0.48 
   1  -7   5    3.24    0.58 
   1  -7   5    3.00    0.55 
   1  -7   5    3.23    0.50 
  -2   7  -5   32.81    1.33 
  -2   7  -5   32.10    1.30 
   2  -7   5   32.32    1.23 
   2  -7   5   34.50    1.16 
   2  -7   5   33.97    1.19 
   2  -7   5   36.17    1.23 
   2  -7   5   33.87    1.19 
   2  -7   5   33.34    1.23 
  -3   7  -5   35.53    1.37 
   3  -7   5   35.43    1.32 
   3  -7   5   36.28    1.44 
   3  -7   5   36.27    1.47 
   3  -7   5   36.84    1.33 
   3  -7   5   37.50    1.43 
   3  -7   5   38.29    1.26 
   3  -7   5   35.84    1.44 
  -4   7  -5   33.79    1.26 
   4  -7   5   31.61    1.42 
   4  -7   5   34.52    1.30 
   4  -7   5   35.19    1.54 
   4  -7   5   35.54    1.33 
   4  -7   5   33.39    1.22 
   4  -7   5   35.60    1.61 
   4  -7   5   33.94    1.62 
  -5   7  -5    9.71    0.95 
   5  -7   5    9.15    1.16 
   5  -7   5   10.02    1.16 
   5  -7   5   10.00    1.21 
   5  -7   5    7.77    1.09 
   5  -7   5    9.28    0.80 
   5  -7   5    9.07    1.03 
  -6   7  -5   22.80    1.45 
  -6   7  -5   23.97    1.19 
  -6   7  -5   27.21    1.32 
   6  -7   5   22.85    1.43 
   6  -7   5   24.25    1.47 
   6  -7   5   22.85    1.61 
  -7   7  -5   18.67    1.61 
   7  -7   5   22.95    1.63 
   7  -7   5   20.27    1.61 
   7  -7   5   20.33    1.76 
  -8   7  -5    4.17    0.83 
   8  -7   5    2.00    1.01 
   8  -7   5    4.54    1.13 
  -9   7  -5    1.81    0.90 
  -9   7  -5    1.14    1.17 
   9  -7   5    1.56    1.14 
   9  -7   5    0.79    0.92 
  11   6  -5    3.79    1.23 
 -11  -6   5    3.42    0.94 
 -11  -6   5    6.92    1.57 
  10   6  -5   11.73    1.39 
  10   6  -5   12.50    1.28 
 -10  -6   5   11.83    1.79 
 -10  -6   5    9.13    1.36 
   9   6  -5    0.69    0.64 
   9   6  -5    0.99    1.00 
  -9  -6   5    1.01    0.99 
  -9  -6   5   -1.20    0.70 
   8   6  -5   12.89    1.58 
   8   6  -5   14.87    1.24 
  -8  -6   5   15.26    1.06 
  -8  -6   5   15.05    1.19 
  -8  -6   5   16.35    1.68 
   7   6  -5   25.15    1.53 
   7   6  -5   23.27    1.24 
   7   6  -5   22.87    1.49 
  -7  -6   5   22.88    1.26 
  -7  -6   5   25.62    1.14 
  -7  -6   5   23.87    1.56 
   6   6  -5   56.13    1.96 
   6   6  -5   61.60    1.98 
   6   6  -5   58.40    2.00 
  -6  -6   5   57.31    1.74 
  -6  -6   5   58.33    2.08 
  -6  -6   5   60.03    1.90 
   5   6  -5   12.24    1.05 
   5   6  -5   11.39    1.05 
   5   6  -5   12.54    0.98 
  -5  -6   5   11.44    0.88 
  -5  -6   5   12.63    0.66 
  -5  -6   5   11.15    0.86 
   4   6  -5    5.30    0.80 
   4   6  -5    4.68    0.67 
  -4  -6   5    5.14    0.59 
  -4  -6   5    5.03    0.77 
  -4  -6   5    4.12    0.62 
   3   6  -5   38.70    1.31 
   3   6  -5   33.90    1.35 
  -3  -6   5   34.60    1.24 
  -3  -6   5   33.22    1.29 
  -3  -6   5   35.29    1.13 
  -3  -6   5   35.29    1.36 
   2   6  -5   36.63    1.37 
  -2  -6   5   34.51    1.27 
  -2  -6   5   37.58    1.29 
  -2  -6   5   33.86    1.24 
  -2  -6   5   35.60    1.27 
   1   6  -5   23.06    0.72 
   1   6  -5   23.06    1.10 
  -1  -6   5   22.36    0.99 
  -1  -6   5   21.41    0.94 
  -1  -6   5   23.80    0.88 
  -1  -6   5   21.85    0.94 
   0   6  -5   11.55    0.63 
   0   6  -5   10.41    0.72 
   0  -6   5   11.55    0.71 
   0  -6   5   10.79    0.77 
   0  -6   5   10.60    0.68 
   0  -6   5   11.62    0.64 
  -1   6  -5   21.32    1.03 
   1  -6   5   21.78    0.94 
   1  -6   5   20.77    0.97 
   1  -6   5   21.51    0.90 
   1  -6   5   21.14    0.99 
   1  -6   5   21.88    0.95 
   1  -6   5   21.42    0.87 
   1  -6   5   21.26    0.91 
  -2   6  -5   85.71    2.21 
   2  -6   5   84.74    2.16 
   2  -6   5   87.51    2.19 
   2  -6   5   85.69    2.19 
   2  -6   5   86.09    2.21 
   2  -6   5   86.41    2.23 
   2  -6   5   84.56    2.25 
   2  -6   5   85.59    2.15 
  -3   6  -5  114.98    2.70 
   3  -6   5  114.15    2.63 
   3  -6   5  112.07    2.67 
   3  -6   5  114.74    2.82 
   3  -6   5  114.01    2.82 
   3  -6   5  111.64    2.80 
   3  -6   5  115.32    2.78 
   3  -6   5  112.09    2.80 
  -4   6  -5    0.89    0.42 
   4  -6   5    0.28    0.48 
   4  -6   5    0.59    0.51 
   4  -6   5    0.90    0.46 
   4  -6   5    0.19    0.38 
   4  -6   5    0.79    0.50 
   4  -6   5    0.40    0.40 
   4  -6   5    0.79    0.29 
  -5   6  -5   68.38    1.85 
  -5   6  -5   70.78    1.95 
   5  -6   5   69.35    1.79 
   5  -6   5   71.48    2.31 
   5  -6   5   70.24    2.39 
   5  -6   5   67.43    2.08 
   5  -6   5   70.28    2.34 
  -6   6  -5    2.39    0.46 
  -6   6  -5    1.36    0.70 
   6  -6   5    2.49    0.85 
  -7   6  -5   20.39    1.70 
   7  -6   5   21.77    1.64 
   7  -6   5   22.79    1.55 
   7  -6   5   22.37    1.79 
  -8   6  -5    3.07    0.90 
   8  -6   5    1.90    0.90 
   8  -6   5    1.64    0.78 
  -9   6  -5    3.35    1.23 
  -9   6  -5    3.31    1.07 
   9  -6   5    4.27    1.10 
   9  -6   5    7.80    1.62 
  11   5  -5    2.47    1.17 
 -11  -5   5    4.19    1.19 
 -11  -5   5    2.55    1.01 
  10   5  -5    7.24    1.33 
  10   5  -5    7.47    1.01 
 -10  -5   5    7.63    1.30 
 -10  -5   5    6.00    1.20 
   9   5  -5    1.66    1.22 
   9   5  -5    1.67    0.72 
  -9  -5   5    2.15    0.80 
  -9  -5   5    2.95    0.67 
  -9  -5   5    1.87    0.79 
   8   5  -5   -0.16    0.56 
   8   5  -5    0.62    0.70 
   8   5  -5    0.72    0.51 
  -8  -5   5    0.61    0.62 
  -8  -5   5   -0.27    0.56 
   7   5  -5   10.66    1.03 
   7   5  -5   10.33    1.10 
   7   5  -5   12.56    1.08 
  -7  -5   5   10.81    0.92 
  -7  -5   5   10.30    0.90 
  -7  -5   5   11.58    1.20 
   6   5  -5   78.97    2.21 
   6   5  -5   75.79    2.26 
   6   5  -5   75.64    2.29 
  -6  -5   5   75.76    2.04 
  -6  -5   5   74.34    2.08 
  -6  -5   5   74.20    2.32 
   5   5  -5   51.21    1.63 
   5   5  -5   47.81    1.68 
   5   5  -5   51.45    1.72 
  -5  -5   5   48.71    1.70 
  -5  -5   5   47.83    1.45 
  -5  -5   5   48.93    1.51 
   4   5  -5   -0.04    0.40 
   4   5  -5    0.05    0.37 
  -4  -5   5    0.10    0.30 
  -4  -5   5    0.18    0.36 
  -4  -5   5    0.66    0.41 
   3   5  -5   16.42    0.84 
  -3  -5   5   18.20    0.93 
  -3  -5   5   16.61    0.83 
  -3  -5   5   18.89    0.81 
   2   5  -5   12.02    0.78 
  -2  -5   5   11.80    0.77 
  -2  -5   5   12.33    0.72 
  -2  -5   5   11.62    0.67 
   1   5  -5   36.22    0.91 
   1   5  -5   36.82    1.29 
  -1  -5   5   35.06    1.17 
  -1  -5   5   35.91    1.25 
  -1  -5   5   36.14    1.21 
  -1  -5   5   35.91    1.21 
   0   5  -5    1.86    0.34 
   0  -5   5    2.60    0.44 
   0  -5   5    2.79    0.47 
   0  -5   5    2.81    0.39 
   0  -5   5    2.73    0.44 
   0  -5   5    2.36    0.39 
  -1   5  -5   26.05    1.05 
   1  -5   5   26.91    0.97 
   1  -5   5   25.43    0.92 
   1  -5   5   26.16    0.98 
   1  -5   5   25.81    0.95 
   1  -5   5   26.41    0.94 
   1  -5   5   26.97    1.03 
  -2   5  -5   87.95    2.14 
   2  -5   5   87.04    2.22 
   2  -5   5   83.31    2.12 
   2  -5   5   86.62    2.16 
   2  -5   5   87.52    2.09 
   2  -5   5   88.10    2.19 
   2  -5   5   88.53    2.21 
   2  -5   5   85.58    2.24 
  -3   5  -5   90.28    2.16 
   3  -5   5   87.78    2.40 
   3  -5   5   89.68    2.33 
   3  -5   5   87.70    2.35 
   3  -5   5   90.44    2.38 
   3  -5   5   93.48    2.17 
   3  -5   5   87.67    2.27 
   3  -5   5   90.42    2.22 
  -4   5  -5   50.47    1.51 
  -4   5  -5   50.80    1.38 
   4  -5   5   50.09    1.70 
   4  -5   5   51.81    1.78 
   4  -5   5   50.28    1.71 
   4  -5   5   50.65    1.74 
   4  -5   5   50.25    1.77 
  -5   5  -5   83.40    2.13 
  -5   5  -5   79.60    2.40 
  -5   5  -5   82.89    2.01 
   5  -5   5   81.58    2.57 
   5  -5   5   81.62    2.62 
   5  -5   5   79.35    2.41 
   5  -5   5   85.64    2.58 
  -6   5  -5   -0.38    0.51 
  -6   5  -5    0.09    0.62 
   6  -5   5   -0.27    0.52 
   6  -5   5    0.47    0.51 
   6  -5   5   -0.49    0.37 
  -7   5  -5   21.83    1.73 
   7  -5   5   23.90    1.36 
   7  -5   5   25.02    1.50 
   7  -5   5   25.84    1.83 
  -8   5  -5    2.76    1.02 
   8  -5   5    2.62    0.88 
   8  -5   5    3.82    0.81 
   8  -5   5    1.82    0.86 
  -9   5  -5    9.41    1.32 
  -9   5  -5   10.92    1.41 
   9  -5   5   10.06    1.53 
   9  -5   5   11.00    2.03 
  11   4  -5    3.41    1.07 
 -11  -4   5    5.14    1.11 
 -11  -4   5    3.75    1.06 
  10   4  -5   30.37    1.58 
  10   4  -5   28.75    1.91 
 -10  -4   5   27.61    1.80 
 -10  -4   5   29.97    1.80 
   9   4  -5    8.15    1.28 
   9   4  -5    7.55    1.27 
   9   4  -5    9.38    0.95 
  -9  -4   5    7.10    0.98 
  -9  -4   5    6.69    1.18 
  -9  -4   5    7.82    1.10 
   8   4  -5    5.54    0.74 
   8   4  -5    6.01    1.02 
   8   4  -5    5.68    0.82 
  -8  -4   5    5.21    0.92 
  -8  -4   5    6.62    0.94 
  -8  -4   5    6.84    0.81 
   7   4  -5   76.02    2.30 
   7   4  -5   80.52    2.35 
   7   4  -5   78.20    2.25 
  -7  -4   5   73.96    2.39 
  -7  -4   5   76.72    2.23 
  -7  -4   5   77.26    2.03 
   6   4  -5    7.78    0.78 
   6   4  -5    7.30    0.84 
   6   4  -5    6.72    0.89 
  -6  -4   5    6.79    0.75 
  -6  -4   5    7.25    0.72 
  -6  -4   5    6.98    0.45 
  -6  -4   5    6.82    0.92 
   5   4  -5  285.36    5.89 
   5   4  -5  289.82    5.93 
   5   4  -5  295.46    5.76 
  -5  -4   5  279.61    5.94 
  -5  -4   5  279.34    5.67 
  -5  -4   5  275.85    5.71 
   4   4  -5   56.97    1.71 
   4   4  -5   57.77    1.72 
  -4  -4   5   58.60    1.57 
  -4  -4   5   55.57    1.68 
  -4  -4   5   55.67    1.57 
   3   4  -5   16.79    0.86 
   3   4  -5   16.81    0.84 
  -3  -4   5   18.10    0.92 
  -3  -4   5   17.42    0.78 
  -3  -4   5   15.92    0.76 
   2   4  -5   24.01    1.01 
  -2  -4   5   23.70    0.95 
  -2  -4   5   23.81    0.95 
   1   4  -5  349.45    6.94 
  -1  -4   5  365.78    6.96 
  -1  -4   5  358.88    6.92 
  -1  -4   5  347.37    6.58 
  -1  -4   5  356.24    6.90 
   0   4  -5  308.26    5.94 
   0  -4   5  293.94    5.96 
   0  -4   5  294.95    6.13 
   0  -4   5  301.11    5.88 
   0  -4   5  294.92    5.75 
   0  -4   5  309.65    5.95 
  -1   4  -5   74.17    1.81 
   1  -4   5   70.59    1.82 
   1  -4   5   75.15    1.82 
   1  -4   5   72.46    2.05 
   1  -4   5   74.51    1.89 
   1  -4   5   71.71    1.90 
  -2   4  -5    0.46    0.24 
   2  -4   5    0.28    0.35 
   2  -4   5    0.15    0.22 
   2  -4   5    0.11    0.34 
   2  -4   5    0.32    0.35 
   2  -4   5    0.49    0.35 
  -3   4  -5    5.02    0.69 
  -3   4  -5    5.81    0.83 
   3  -4   5    4.24    0.54 
   3  -4   5    4.12    0.67 
   3  -4   5    3.68    0.66 
   3  -4   5    3.58    0.62 
   3  -4   5    4.22    0.67 
  -4   4  -5   52.99    1.32 
  -4   4  -5   52.49    1.54 
   4  -4   5   51.32    1.67 
   4  -4   5   52.65    1.85 
   4  -4   5   53.11    1.85 
   4  -4   5   49.97    1.75 
   4  -4   5   52.69    1.71 
  -5   4  -5   19.95    1.02 
  -5   4  -5   20.93    1.21 
  -5   4  -5   19.07    0.66 
   5  -4   5   21.89    1.24 
   5  -4   5   19.35    1.19 
   5  -4   5   20.79    1.26 
  -6   4  -5    0.71    0.63 
  -6   4  -5    0.32    0.45 
   6  -4   5   -0.16    0.78 
   6  -4   5    0.28    0.52 
   6  -4   5    0.27    0.55 
  -7   4  -5   -0.50    0.77 
   7  -4   5   -0.29    0.77 
   7  -4   5    0.83    0.83 
   7  -4   5   -0.88    0.48 
  -8   4  -5   13.99    1.37 
   8  -4   5   12.52    1.16 
   8  -4   5   10.82    1.42 
   8  -4   5   17.62    1.80 
  -9   4  -5   14.29    1.71 
  -9   4  -5   13.07    1.64 
   9  -4   5   14.14    1.82 
  12   3  -5    0.98    1.33 
 -12  -3   5   -0.10    0.93 
 -12  -3   5    0.75    1.03 
  11   3  -5    2.41    0.96 
 -11  -3   5    1.00    0.90 
 -11  -3   5    0.72    1.03 
  10   3  -5   24.35    1.37 
  10   3  -5   25.93    1.75 
  10   3  -5   24.38    1.55 
 -10  -3   5   24.63    1.76 
 -10  -3   5   26.70    1.42 
 -10  -3   5   23.13    1.58 
   9   3  -5   32.83    1.63 
   9   3  -5   34.61    1.45 
   9   3  -5   33.51    1.83 
  -9  -3   5   28.32    1.94 
  -9  -3   5   35.96    1.36 
  -9  -3   5   33.72    1.70 
   8   3  -5   18.70    1.25 
   8   3  -5   19.62    1.10 
   8   3  -5   19.02    1.24 
  -8  -3   5   16.94    1.35 
  -8  -3   5   18.82    1.14 
  -8  -3   5   20.00    0.90 
  -8  -3   5   19.88    0.96 
   7   3  -5   23.99    1.14 
   7   3  -5   23.79    1.22 
   7   3  -5   25.75    1.29 
  -7  -3   5   23.47    1.00 
  -7  -3   5   24.28    1.20 
  -7  -3   5   22.09    1.20 
   6   3  -5    1.04    0.45 
   6   3  -5    1.20    0.41 
   6   3  -5    0.76    0.39 
  -6  -3   5    1.09    0.27 
  -6  -3   5    0.71    0.37 
  -6  -3   5    0.73    0.46 
  -6  -3   5    1.24    0.51 
   5   3  -5   87.12    2.31 
   5   3  -5   88.83    2.27 
  -5  -3   5   85.33    2.30 
  -5  -3   5   86.50    2.08 
  -5  -3   5   91.03    1.81 
  -5  -3   5   85.48    2.21 
   4   3  -5   14.69    0.81 
   4   3  -5   15.35    0.79 
  -4  -3   5   14.37    0.74 
  -4  -3   5   13.83    0.80 
  -4  -3   5   14.59    0.71 
   3   3  -5    2.24    0.39 
   3   3  -5    2.59    0.43 
  -3  -3   5    2.69    0.46 
  -3  -3   5    1.96    0.33 
  -3  -3   5    2.67    0.41 
   2   3  -5  103.36    2.40 
   2   3  -5  102.28    2.38 
   2   3  -5  108.49    1.98 
  -2  -3   5  102.82    2.33 
  -2  -3   5  101.00    2.38 
  -2  -3   5  101.66    1.97 
   1   3  -5  630.77   11.74 
  -1  -3   5  619.38   11.75 
  -1  -3   5  625.52   11.47 
  -1  -3   5  635.18   11.73 
   0   3  -5   19.59    0.79 
   0  -3   5   20.51    0.81 
   0  -3   5   19.18    0.82 
   0  -3   5   20.46    0.71 
   0  -3   5   20.12    0.79 
   1  -3   5  171.47    3.54 
   1  -3   5  165.79    3.58 
   1  -3   5  165.02    3.52 
   1  -3   5  170.72    3.82 
   1  -3   5  166.20    3.52 
  -2   3  -5  155.01    3.14 
  -2   3  -5  156.49    3.35 
   2  -3   5  156.69    3.43 
   2  -3   5  156.81    3.45 
   2  -3   5  152.50    3.42 
   2  -3   5  148.98    3.35 
  -3   3  -5    4.43    0.40 
  -3   3  -5    4.49    0.60 
   3  -3   5    4.13    0.61 
   3  -3   5    4.49    0.67 
   3  -3   5    4.96    0.58 
   3  -3   5    4.36    0.70 
   3  -3   5    4.09    0.56 
  -4   3  -5   73.95    2.15 
  -4   3  -5   73.46    1.52 
  -4   3  -5   72.42    1.89 
   4  -3   5   73.26    2.19 
   4  -3   5   69.33    2.00 
   4  -3   5   72.07    2.09 
   4  -3   5   72.95    2.22 
  -5   3  -5   40.01    1.63 
  -5   3  -5   39.65    1.34 
   5  -3   5   41.39    1.60 
   5  -3   5   40.35    1.63 
   5  -3   5   42.03    1.75 
   5  -3   5   36.90    1.55 
  -6   3  -5   72.27    1.94 
  -6   3  -5   72.85    2.34 
   6  -3   5   73.06    2.41 
   6  -3   5   69.27    2.27 
   6  -3   5   68.98    2.34 
  -7   3  -5    2.19    0.70 
   7  -3   5    1.64    0.70 
   7  -3   5    1.53    0.63 
   7  -3   5    2.61    1.08 
  -8   3  -5    4.84    1.10 
   8  -3   5    4.88    1.01 
   8  -3   5    4.22    1.16 
   8  -3   5    5.01    0.89 
  -9   3  -5    0.54    1.13 
  -9   3  -5   -0.89    0.88 
   9  -3   5    3.69    1.32 
   9  -3   5   -0.05    0.98 
 -12  -2   5    7.58    1.41 
 -12  -2   5    9.78    1.63 
  11   2  -5   -0.24    1.03 
  11   2  -5   -0.43    0.77 
 -11  -2   5    0.76    1.09 
 -11  -2   5    0.93    1.00 
  10   2  -5   -0.45    0.70 
  10   2  -5    0.84    0.54 
  10   2  -5    0.97    0.84 
 -10  -2   5    1.63    0.93 
 -10  -2   5    0.40    0.65 
 -10  -2   5    0.80    0.84 
   9   2  -5   23.93    1.26 
   9   2  -5   23.41    1.49 
   9   2  -5   23.33    1.35 
  -9  -2   5   20.91    1.46 
  -9  -2   5   22.15    1.51 
  -9  -2   5   24.15    1.25 
   8   2  -5   83.93    2.46 
   8   2  -5   85.50    2.36 
   8   2  -5   85.57    2.52 
  -8  -2   5   86.43    2.59 
  -8  -2   5   86.32    2.56 
  -8  -2   5   86.56    2.23 
   7   2  -5  126.68    3.16 
   7   2  -5  122.56    3.04 
   7   2  -5  124.36    3.11 
  -7  -2   5  128.68    2.82 
  -7  -2   5  123.15    3.14 
  -7  -2   5  134.98    2.93 
  -7  -2   5  123.59    3.15 
   6   2  -5   16.28    0.94 
   6   2  -5   18.24    0.93 
   6   2  -5   17.75    1.03 
  -6  -2   5   18.53    0.74 
  -6  -2   5   17.19    0.96 
  -6  -2   5   17.61    0.97 
   5   2  -5   39.17    1.36 
   5   2  -5   37.17    1.30 
  -5  -2   5   37.38    1.26 
  -5  -2   5   40.62    1.02 
  -5  -2   5   38.44    1.29 
   4   2  -5   34.75    1.22 
   4   2  -5   34.75    1.19 
  -4  -2   5   35.18    1.15 
  -4  -2   5   35.71    1.15 
  -4  -2   5   35.44    0.85 
   3   2  -5   48.89    1.43 
   3   2  -5   49.51    1.43 
  -3  -2   5   46.64    1.02 
  -2  -2   5   24.29    0.65 
   1   2  -5    8.83    0.58 
  -1  -2   5    8.67    0.43 
   0   2  -5   50.89    1.34 
   0  -2   5   51.94    1.34 
   0  -2   5   50.90    1.53 
   0  -2   5   51.87    1.63 
  -1   2  -5  146.52    3.12 
  -1   2  -5  144.19    2.95 
   1  -2   5  147.84    3.18 
   1  -2   5  142.93    3.15 
   1  -2   5  143.74    3.12 
   1  -2   5  142.13    3.10 
  -2   2  -5  285.89    5.56 
  -2   2  -5  279.53    5.29 
   2  -2   5  272.96    5.64 
   2  -2   5  278.29    5.68 
   2  -2   5  287.58    5.69 
   2  -2   5  271.30    5.58 
  -3   2  -5   19.21    0.85 
  -3   2  -5   19.50    0.57 
  -3   2  -5   20.17    0.60 
   3  -2   5   19.19    0.97 
   3  -2   5   17.17    0.85 
   3  -2   5   18.04    0.97 
   3  -2   5   19.88    1.02 
   3  -2   5   18.80    0.97 
  -4   2  -5    0.23    0.46 
  -4   2  -5    0.18    0.34 
   4  -2   5    0.01    0.47 
   4  -2   5    0.11    0.43 
   4  -2   5   -0.33    0.42 
  -5   2  -5   11.52    0.83 
  -5   2  -5   11.28    0.96 
   5  -2   5   11.94    1.09 
   5  -2   5   11.97    1.02 
   5  -2   5   12.25    1.13 
   5  -2   5   13.87    1.04 
  -6   2  -5   57.27    1.64 
  -6   2  -5   56.92    2.09 
   6  -2   5   54.90    2.17 
   6  -2   5   54.28    2.08 
   6  -2   5   51.00    1.81 
  -7   2  -5   20.34    1.14 
  -7   2  -5   17.54    1.34 
   7  -2   5   15.77    1.19 
   7  -2   5   18.38    1.47 
   7  -2   5   14.92    1.42 
  -8   2  -5   -0.10    0.56 
   8  -2   5    1.12    0.70 
   8  -2   5    0.15    0.80 
  -9   2  -5   -0.48    0.76 
  -9   2  -5    0.66    0.82 
   9  -2   5    1.11    1.15 
  12   1  -5   13.44    1.43 
 -12  -1   5   12.27    1.70 
 -12  -1   5   13.36    1.65 
 -12  -1   5   13.73    1.76 
  11   1  -5    3.34    0.90 
  11   1  -5    3.64    1.17 
 -11  -1   5    4.42    1.09 
 -11  -1   5    4.05    1.11 
  10   1  -5    5.80    1.57 
  10   1  -5    8.37    1.01 
  10   1  -5    6.35    1.04 
 -10  -1   5    7.84    1.24 
 -10  -1   5    7.57    0.95 
 -10  -1   5    7.87    1.22 
   9   1  -5   -0.69    0.69 
   9   1  -5    0.63    0.54 
   9   1  -5    0.05    0.58 
  -9  -1   5   -0.41    0.64 
  -9  -1   5   -0.40    0.69 
  -9  -1   5    0.77    0.43 
   8   1  -5   13.06    1.07 
   8   1  -5   11.56    1.04 
   8   1  -5   12.71    0.94 
  -8  -1   5   13.73    0.87 
  -8  -1   5   12.51    1.07 
  -8  -1   5   12.69    1.15 
   7   1  -5   17.91    1.04 
   7   1  -5   17.52    1.11 
   7   1  -5   17.76    1.02 
  -7  -1   5   18.52    1.05 
  -7  -1   5   20.17    0.98 
  -7  -1   5   18.19    1.22 
  -7  -1   5   19.68    0.94 
   6   1  -5    3.46    0.53 
   6   1  -5    3.68    0.59 
   6   1  -5    3.93    0.62 
  -6  -1   5    3.31    0.52 
  -6  -1   5    3.07    0.55 
  -6  -1   5    4.02    0.61 
   5   1  -5    0.23    0.37 
   5   1  -5    0.89    0.33 
  -5  -1   5    0.56    0.23 
  -5  -1   5    0.29    0.38 
  -5  -1   5    0.26    0.31 
   4   1  -5    9.67    0.69 
   4   1  -5    9.52    0.65 
  -4  -1   5    9.82    0.62 
  -4  -1   5    9.74    0.50 
   3   1  -5  118.52    2.68 
  -3  -1   5  118.33    2.40 
   2   1  -5  412.49    7.83 
  -2  -1   5  405.98    7.61 
  -1  -1   5    3.35    0.37 
   0   1  -5   79.25    1.79 
   0  -1   5   78.78    1.87 
  -1   1  -5   79.26    1.93 
  -1   1  -5   77.81    1.73 
   1  -1   5   79.33    1.99 
   1  -1   5   76.78    1.95 
   1  -1   5   77.44    1.90 
   1  -1   5   80.66    1.99 
  -2   1  -5   52.54    1.51 
  -2   1  -5   54.60    1.19 
   2  -1   5   54.28    1.61 
   2  -1   5   50.65    1.50 
   2  -1   5   51.83    1.54 
   2  -1   5   52.34    1.47 
  -3   1  -5   39.52    1.23 
  -3   1  -5   39.42    1.37 
   3  -1   5   39.42    1.34 
   3  -1   5   37.23    1.29 
   3  -1   5   39.31    1.48 
   3  -1   5   37.12    1.37 
  -4   1  -5   16.13    0.87 
  -4   1  -5   16.37    1.06 
   4  -1   5   16.58    1.03 
   4  -1   5   17.06    1.16 
   4  -1   5   14.19    0.91 
   4  -1   5   16.18    1.01 
  -5   1  -5   17.23    1.01 
  -5   1  -5   17.43    1.09 
   5  -1   5   18.63    1.17 
   5  -1   5   18.01    1.34 
   5  -1   5   17.42    1.16 
   5  -1   5   17.68    1.21 
  -6   1  -5   41.78    1.42 
  -6   1  -5   39.87    1.82 
   6  -1   5   40.67    1.78 
   6  -1   5   41.26    1.85 
   6  -1   5   38.47    1.63 
  -7   1  -5   17.94    1.00 
  -7   1  -5   18.32    1.66 
   7  -1   5   17.20    1.50 
   7  -1   5   17.21    1.40 
   7  -1   5   18.33    1.72 
  -8   1  -5    2.13    1.16 
   8  -1   5    2.00    1.01 
  -9   1  -5    3.37    0.93 
  -9   1  -5    5.44    1.36 
   9  -1   5    3.05    1.24 
   9  -1   5    4.08    1.35 
  12   0  -5    4.15    1.42 
 -12   0   5    4.28    1.15 
 -12   0   5    4.66    1.25 
 -12   0   5    4.86    1.09 
  11   0  -5    6.24    1.13 
  11   0  -5    5.13    1.05 
  11   0  -5    6.01    0.90 
 -11   0   5    7.12    1.21 
 -11   0   5    6.19    1.13 
  10   0  -5    5.71    0.86 
  10   0  -5    4.83    0.77 
  10   0  -5    4.42    1.37 
 -10   0   5    5.00    0.88 
 -10   0   5    5.74    1.00 
 -10   0   5    5.30    1.00 
   9   0  -5    1.57    0.51 
   9   0  -5    0.69    0.81 
   9   0  -5    1.94    0.59 
  -9   0   5    0.87    0.65 
  -9   0   5    0.66    0.70 
  -9   0   5    0.52    0.60 
   8   0  -5   45.67    1.59 
   8   0  -5   42.99    1.73 
   8   0  -5   44.13    1.57 
  -8   0   5   44.67    1.62 
  -8   0   5   40.50    1.73 
  -8   0   5   43.07    1.52 
  -8   0   5   43.65    1.57 
   7   0  -5   29.98    1.28 
   7   0  -5   29.29    1.27 
   7   0  -5   28.39    1.34 
  -7   0   5   30.60    1.22 
  -7   0   5   30.77    1.20 
  -7   0   5   29.16    1.19 
  -7   0   5   29.54    1.33 
   6   0  -5   38.54    1.42 
   6   0  -5   40.99    1.34 
   6   0  -5   39.89    1.37 
  -6   0   5   42.15    1.31 
  -6   0   5   41.58    1.33 
  -6   0   5   40.50    1.28 
  -6   0   5   38.08    1.42 
   5   0  -5   14.94    0.84 
   5   0  -5   14.25    0.77 
  -5   0   5   13.45    0.79 
  -5   0   5   13.56    0.71 
   4   0  -5   64.14    1.74 
   4   0  -5   65.55    1.80 
  -4   0   5   66.78    1.75 
  -4   0   5   68.45    1.62 
   3   0  -5  145.31    3.25 
  -3   0   5  154.52    3.08 
   2   0  -5  361.50    6.88 
  -2   0   5  348.62    6.73 
   1   0  -5  200.70    4.32 
  -1   0   5  210.33    4.14 
   0   0  -5   62.64    1.46 
   0   0   5   56.15    1.73 
  -1   0  -5   14.00    0.76 
  -1   0  -5   13.41    0.56 
   1   0   5   14.05    0.77 
   1   0   5   13.80    0.78 
   1   0   5   13.86    0.84 
   1   0   5   13.12    0.64 
  -2   0  -5   44.68    1.46 
  -2   0  -5   45.60    1.02 
  -2   0  -5   45.87    1.36 
   2   0   5   43.62    1.49 
   2   0   5   44.82    1.24 
   2   0   5   47.27    1.44 
   2   0   5   44.19    1.34 
   2   0   5   44.65    1.47 
  -3   0  -5   55.71    1.57 
  -3   0  -5   54.65    1.69 
   3   0   5   54.92    1.75 
   3   0   5   54.71    1.60 
   3   0   5   52.74    1.71 
   3   0   5   54.82    1.70 
  -4   0  -5   34.28    1.41 
  -4   0  -5   37.43    1.31 
   4   0   5   37.57    1.60 
   4   0   5   36.94    1.39 
   4   0   5   35.93    1.49 
   4   0   5   34.40    1.44 
  -5   0  -5   32.81    1.46 
  -5   0  -5   34.97    1.30 
   5   0   5   38.94    1.79 
   5   0   5   35.08    1.55 
   5   0   5   32.45    1.31 
   5   0   5   34.91    1.61 
  -6   0  -5   40.14    1.46 
  -6   0  -5   34.65    1.59 
   6   0   5   37.98    1.85 
   6   0   5   39.08    1.76 
   6   0   5   40.26    1.74 
  -7   0  -5   19.35    1.19 
   7   0   5   17.63    1.51 
   7   0   5   17.67    1.51 
   7   0   5   16.63    1.36 
  -8   0  -5   -0.59    0.77 
   8   0   5    1.81    0.89 
   8   0   5    0.30    0.60 
  -9   0  -5   30.35    2.03 
  -9   0  -5   23.73    1.78 
   9   0   5   30.88    2.07 
   9   0   5   27.68    1.98 
  12  -1  -5    4.02    1.35 
 -12   1   5    4.47    1.06 
 -12   1   5    4.16    1.10 
 -12   1   5    3.86    1.07 
  11  -1  -5   18.85    1.24 
  11  -1  -5   16.84    1.43 
 -11   1   5   17.46    1.58 
 -11   1   5   19.34    1.77 
  10  -1  -5   19.64    1.37 
  10  -1  -5   20.49    2.08 
  10  -1  -5   21.41    1.35 
 -10   1   5   20.47    1.24 
 -10   1   5   22.94    1.58 
 -10   1   5   22.41    1.45 
   9  -1  -5    3.69    0.75 
   9  -1  -5    4.68    0.73 
   9  -1  -5    5.61    0.89 
  -9   1   5    4.07    0.88 
  -9   1   5    4.75    0.62 
  -9   1   5    4.59    0.77 
  -9   1   5    3.62    0.73 
   8  -1  -5    9.25    0.98 
   8  -1  -5    8.60    0.89 
   8  -1  -5    8.53    0.89 
  -8   1   5    9.46    0.81 
  -8   1   5    9.17    0.96 
  -8   1   5    8.06    0.94 
  -8   1   5    7.35    0.94 
   7  -1  -5   63.19    1.94 
   7  -1  -5   62.68    1.83 
   7  -1  -5   63.51    1.86 
  -7   1   5   63.25    1.94 
  -7   1   5   64.00    1.85 
  -7   1   5   63.58    1.78 
  -7   1   5   61.98    2.00 
   6  -1  -5  142.49    3.21 
   6  -1  -5  137.76    3.26 
   6  -1  -5  145.26    3.34 
  -6   1   5  141.56    3.26 
  -6   1   5  134.97    3.26 
  -6   1   5  142.63    3.20 
   5  -1  -5    3.18    0.49 
   5  -1  -5    2.66    0.46 
  -5   1   5    2.67    0.39 
  -5   1   5    2.61    0.44 
  -5   1   5    3.58    0.58 
   4  -1  -5    9.30    0.74 
   4  -1  -5    9.96    0.74 
  -4   1   5    9.36    0.67 
  -4   1   5    8.65    0.63 
   3  -1  -5   52.29    1.52 
   3  -1  -5   50.96    1.50 
  -3   1   5   50.45    1.39 
   2  -1  -5   99.52    2.31 
  -2   1   5   99.91    2.26 
   1  -1  -5  204.20    4.23 
   0  -1  -5   33.85    0.99 
   0  -1  -5   33.19    1.08 
   0   1   5   32.57    1.13 
   0   1   5   33.03    1.10 
  -1  -1  -5    3.16    0.36 
  -1  -1  -5    3.74    0.50 
   1   1   5    2.79    0.40 
   1   1   5    3.70    0.56 
   1   1   5    2.44    0.42 
  -2  -1  -5   33.63    1.19 
  -2  -1  -5   33.67    0.84 
  -2  -1  -5   32.68    1.20 
   2   1   5   35.08    1.19 
   2   1   5   36.23    1.34 
   2   1   5   33.66    1.10 
   2   1   5   34.38    1.31 
  -3  -1  -5   94.57    2.47 
  -3  -1  -5   96.64    2.38 
   3   1   5   92.64    2.46 
   3   1   5   94.50    2.53 
   3   1   5   92.00    2.30 
   3   1   5   96.70    2.59 
  -4  -1  -5   13.91    1.00 
  -4  -1  -5   14.17    0.93 
   4   1   5   12.10    0.93 
   4   1   5   15.67    1.13 
   4   1   5   13.62    0.98 
   4   1   5   13.37    1.05 
  -5  -1  -5    0.25    0.41 
  -5  -1  -5    1.19    0.56 
   5   1   5    0.04    0.56 
   5   1   5    0.47    0.53 
   5   1   5    0.76    0.65 
   5   1   5    1.67    0.78 
  -6  -1  -5    3.23    1.25 
  -6  -1  -5    5.24    0.88 
   6   1   5    6.11    1.04 
   6   1   5    6.06    1.02 
   6   1   5    5.38    0.95 
  -7  -1  -5   11.01    1.33 
  -7  -1  -5   12.92    1.17 
   7   1   5   13.39    1.27 
   7   1   5   13.57    1.51 
   7   1   5   15.00    1.45 
  -8  -1  -5   39.87    1.94 
  -8  -1  -5   37.98    2.14 
   8   1   5   39.01    2.31 
   8   1   5   38.25    2.25 
  -9  -1  -5   16.65    1.67 
  -9  -1  -5   15.06    1.95 
   9   1   5   14.64    1.78 
   9   1   5   13.51    1.77 
  12  -2  -5   26.85    2.07 
 -12   2   5   31.06    1.94 
 -12   2   5   27.54    1.84 
 -12   2   5   29.54    1.96 
  11  -2  -5    5.82    0.97 
  11  -2  -5    6.42    1.20 
 -11   2   5    6.63    1.02 
 -11   2   5    4.97    1.12 
 -11   2   5    5.93    1.13 
  10  -2  -5   38.48    1.70 
  10  -2  -5   38.86    1.61 
 -10   2   5   38.46    2.20 
 -10   2   5   37.91    1.61 
 -10   2   5   40.01    2.04 
 -10   2   5   38.41    1.87 
   9  -2  -5   59.71    2.20 
   9  -2  -5   58.96    1.90 
   9  -2  -5   57.75    1.99 
  -9   2   5   58.04    2.13 
  -9   2   5   60.69    2.17 
  -9   2   5   61.58    1.87 
  -9   2   5   61.03    2.25 
   8  -2  -5    5.69    0.77 
   8  -2  -5    6.12    0.81 
   8  -2  -5    5.37    0.99 
  -8   2   5    5.87    0.76 
  -8   2   5    7.35    1.07 
  -8   2   5    5.05    0.75 
  -8   2   5    5.51    0.79 
   7  -2  -5    1.98    0.59 
   7  -2  -5    1.79    0.55 
   7  -2  -5    1.61    0.49 
  -7   2   5    1.58    0.42 
  -7   2   5    1.28    0.52 
  -7   2   5    2.13    0.50 
  -7   2   5    1.88    0.58 
   6  -2  -5  160.32    3.57 
   6  -2  -5  159.00    3.63 
   6  -2  -5  158.91    3.66 
  -6   2   5  156.77    3.66 
  -6   2   5  158.67    3.65 
  -6   2   5  162.56    3.61 
   5  -2  -5  247.44    5.17 
   5  -2  -5  246.75    5.06 
   5  -2  -5  251.64    5.14 
  -5   2   5  243.31    5.13 
  -5   2   5  246.12    5.09 
  -5   2   5  240.54    5.05 
   4  -2  -5  300.54    6.07 
   4  -2  -5  299.50    6.10 
  -4   2   5  306.14    6.00 
  -4   2   5  299.93    6.04 
  -4   2   5  305.79    6.10 
   3  -2  -5    7.17    0.64 
   3  -2  -5    6.58    0.66 
  -3   2   5    6.83    0.60 
  -3   2   5    7.18    0.71 
   2  -2  -5   21.35    0.90 
  -2   2   5   20.71    0.88 
  -2   2   5   21.67    0.97 
   1  -2  -5  340.50    6.64 
   1  -2  -5  348.83    6.69 
  -1   2   5  330.12    6.73 
  -1   2   5  352.02    6.82 
   0  -2  -5   18.08    0.82 
   0  -2  -5   15.22    0.79 
   0   2   5   15.53    0.79 
   0   2   5   18.62    0.93 
  -1  -2  -5    0.45    0.26 
  -1  -2  -5    0.21    0.29 
  -1  -2  -5    0.39    0.30 
   1   2   5    0.22    0.44 
   1   2   5    0.26    0.35 
   1   2   5    0.62    0.40 
   1   2   5    0.27    0.35 
  -2  -2  -5   13.70    0.82 
  -2  -2  -5   12.40    0.74 
  -2  -2  -5   13.12    0.53 
   2   2   5   12.56    0.79 
   2   2   5   13.79    0.79 
   2   2   5   13.69    0.74 
   2   2   5   16.07    1.03 
  -3  -2  -5  142.43    3.42 
  -3  -2  -5  148.03    2.74 
  -3  -2  -5  145.13    3.31 
   3   2   5  138.68    3.22 
   3   2   5  146.60    3.55 
   3   2   5  142.75    3.49 
   3   2   5  144.80    2.82 
   3   2   5  142.45    3.46 
  -4  -2  -5   55.84    1.89 
  -4  -2  -5   57.06    1.76 
   4   2   5   56.83    1.95 
   4   2   5   56.27    1.75 
   4   2   5   60.98    2.13 
   4   2   5   56.00    1.93 
  -5  -2  -5   86.61    2.68 
  -5  -2  -5   91.67    2.40 
   5   2   5   86.52    2.72 
   5   2   5   88.99    2.34 
   5   2   5   85.47    2.63 
   5   2   5   79.99    2.65 
  -6  -2  -5   25.97    1.73 
  -6  -2  -5   25.77    1.32 
   6   2   5   23.42    1.95 
   6   2   5   24.64    1.41 
   6   2   5   19.18    2.23 
  -7  -2  -5    0.91    1.00 
  -7  -2  -5   -0.29    0.64 
   7   2   5    0.10    0.77 
   7   2   5   -0.39    0.84 
  -8  -2  -5   17.45    1.42 
  -8  -2  -5   16.44    1.86 
   8   2   5   11.94    1.58 
   8   2   5   13.93    1.87 
  -9  -2  -5    7.14    1.13 
  -9  -2  -5    7.35    1.47 
   9   2   5    5.74    1.36 
   9   2   5    6.62    1.46 
  12  -3  -5    2.65    0.93 
  12  -3  -5    2.05    1.07 
 -12   3   5    1.43    1.06 
 -12   3   5    3.20    1.00 
  11  -3  -5    0.77    0.61 
  11  -3  -5    0.54    0.88 
 -11   3   5   -0.49    0.76 
 -11   3   5    1.56    0.94 
 -11   3   5    1.21    0.79 
  10  -3  -5   13.98    1.46 
  10  -3  -5   13.84    1.31 
  10  -3  -5   13.22    1.00 
 -10   3   5   15.40    1.57 
 -10   3   5   13.76    1.17 
   9  -3  -5   49.65    1.74 
   9  -3  -5   48.76    1.81 
   9  -3  -5   49.78    1.99 
  -9   3   5   49.19    2.01 
  -9   3   5   49.84    2.07 
  -9   3   5   49.78    1.64 
  -9   3   5   48.16    1.97 
   8  -3  -5   12.74    1.08 
   8  -3  -5   11.26    1.05 
   8  -3  -5   12.34    1.04 
  -8   3   5   11.54    1.13 
  -8   3   5   13.44    1.19 
  -8   3   5   11.96    1.01 
  -8   3   5   14.16    0.87 
   7  -3  -5    2.56    0.62 
   7  -3  -5    3.47    0.57 
   7  -3  -5    2.86    0.51 
  -7   3   5    3.08    0.68 
  -7   3   5    2.48    0.57 
  -7   3   5    2.58    0.56 
   6  -3  -5   43.60    1.58 
   6  -3  -5   42.32    1.50 
   6  -3  -5   41.99    1.48 
  -6   3   5   42.94    1.56 
  -6   3   5   42.54    1.53 
  -6   3   5   42.77    1.49 
   5  -3  -5   23.99    1.05 
   5  -3  -5   23.01    1.09 
   5  -3  -5   25.20    1.06 
  -5   3   5   25.06    1.09 
  -5   3   5   24.17    1.10 
  -5   3   5   25.43    1.09 
   4  -3  -5   95.25    2.41 
   4  -3  -5   90.74    2.31 
  -4   3   5   91.63    2.38 
  -4   3   5   98.04    2.27 
  -4   3   5   92.31    2.35 
   3  -3  -5  102.80    2.51 
   3  -3  -5  103.89    2.51 
  -3   3   5  102.82    2.56 
  -3   3   5  104.54    2.53 
   2  -3  -5    0.86    0.33 
   2  -3  -5    0.67    0.30 
   2  -3  -5    0.70    0.30 
  -2   3   5    1.26    0.32 
   1  -3  -5  101.26    2.38 
   1  -3  -5  101.56    2.41 
   1  -3  -5  102.59    2.40 
  -1   3   5  102.84    2.54 
  -1   3   5  103.00    2.53 
   0  -3  -5   40.85    1.44 
   0  -3  -5   40.31    1.28 
   0  -3  -5   39.36    1.19 
   0   3   5   41.19    1.34 
   0   3   5   42.23    1.47 
   0   3   5   41.28    1.42 
  -1  -3  -5  163.73    3.69 
  -1  -3  -5  168.59    3.65 
  -1  -3  -5  164.72    3.43 
   1   3   5  172.47    3.87 
   1   3   5  167.74    3.81 
   1   3   5  171.63    3.77 
   1   3   5  169.19    3.50 
  -2  -3  -5   19.98    1.01 
  -2  -3  -5   20.58    0.76 
  -2  -3  -5   22.00    1.07 
   2   3   5   23.18    1.21 
   2   3   5   21.63    1.03 
   2   3   5   21.95    0.88 
   2   3   5   20.13    1.04 
  -3  -3  -5   66.67    1.95 
  -3  -3  -5   64.63    1.96 
  -3  -3  -5   67.57    1.49 
   3   3   5   65.32    2.13 
   3   3   5   67.34    1.83 
   3   3   5   64.46    2.12 
   3   3   5   67.89    2.16 
  -4  -3  -5    3.82    0.64 
  -4  -3  -5    5.66    0.81 
   4   3   5    6.22    1.03 
   4   3   5    4.80    0.78 
   4   3   5    6.19    0.73 
   4   3   5    4.43    0.79 
  -5  -3  -5   52.70    2.19 
  -5  -3  -5   53.47    1.82 
   5   3   5   51.46    1.81 
   5   3   5   49.92    1.95 
   5   3   5   52.41    2.21 
  -6  -3  -5   32.14    1.91 
  -6  -3  -5   31.29    1.54 
   6   3   5   29.70    1.91 
   6   3   5   30.40    1.80 
   6   3   5   31.78    1.49 
  -7  -3  -5    4.07    1.06 
  -7  -3  -5    3.97    0.85 
  -7  -3  -5    3.24    0.95 
   7   3   5    4.41    1.20 
   7   3   5    3.66    0.93 
  -8  -3  -5    1.81    0.92 
  -8  -3  -5    1.79    0.86 
  -8  -3  -5   -1.22    0.96 
   8   3   5    0.86    0.76 
   8   3   5    0.29    1.07 
  12  -4  -5   17.20    1.36 
  12  -4  -5   15.04    1.91 
 -12   4   5   17.89    1.91 
 -12   4   5   15.95    1.70 
  11  -4  -5    7.41    1.31 
  11  -4  -5    9.13    1.61 
 -11   4   5    9.37    1.63 
 -11   4   5   10.11    1.60 
  10  -4  -5   23.51    1.77 
  10  -4  -5   24.32    1.29 
 -10   4   5   23.76    1.64 
 -10   4   5   24.43    1.83 
   9  -4  -5   34.22    1.54 
   9  -4  -5   35.42    1.75 
   9  -4  -5   35.33    1.54 
  -9   4   5   37.06    1.76 
  -9   4   5   33.49    1.88 
  -9   4   5   35.23    1.74 
   8  -4  -5   52.80    1.93 
   8  -4  -5   52.09    1.77 
   8  -4  -5   52.27    1.91 
  -8   4   5   52.59    1.97 
  -8   4   5   50.78    1.88 
  -8   4   5   51.95    2.04 
   7  -4  -5    1.83    0.56 
   7  -4  -5    2.31    0.64 
   7  -4  -5    1.72    0.54 
  -7   4   5    2.44    0.74 
  -7   4   5    3.17    0.74 
  -7   4   5    2.59    0.65 
   6  -4  -5   37.94    1.41 
   6  -4  -5   37.83    1.46 
   6  -4  -5   39.21    1.51 
  -6   4   5   38.24    1.56 
  -6   4   5   37.34    1.50 
  -6   4   5   38.66    1.38 
   5  -4  -5   13.89    0.90 
   5  -4  -5   11.93    0.88 
   5  -4  -5   12.52    0.89 
  -5   4   5   13.60    0.80 
  -5   4   5   13.04    0.99 
  -5   4   5   12.50    0.93 
   4  -4  -5   61.97    1.84 
   4  -4  -5   61.59    1.84 
   4  -4  -5   66.24    1.80 
   4  -4  -5   64.14    1.86 
  -4   4   5   62.41    1.89 
  -4   4   5   62.47    1.91 
  -4   4   5   68.71    1.72 
   3  -4  -5  184.63    3.85 
   3  -4  -5  174.37    3.72 
   3  -4  -5  180.67    3.95 
   3  -4  -5  173.81    3.86 
  -3   4   5  175.97    3.99 
  -3   4   5  182.62    4.02 
   2  -4  -5   39.11    1.23 
   2  -4  -5   39.99    1.35 
   2  -4  -5   39.48    1.28 
  -2   4   5   39.65    1.42 
  -2   4   5   40.71    1.33 
  -2   4   5   38.89    1.43 
   1  -4  -5    6.55    0.58 
   1  -4  -5    5.32    0.58 
   1  -4  -5    6.93    0.67 
  -1   4   5    5.96    0.64 
  -1   4   5    6.11    0.66 
  -1   4   5    6.28    0.65 
   0  -4  -5    6.13    0.65 
   0  -4  -5    5.67    0.57 
   0  -4  -5    5.67    0.60 
   0  -4  -5    7.28    0.59 
   0   4   5    4.49    0.58 
   0   4   5    6.31    0.59 
   0   4   5    5.51    0.63 
  -1  -4  -5   69.66    1.80 
  -1  -4  -5   67.32    1.73 
  -1  -4  -5   69.19    1.95 
  -1  -4  -5   70.64    1.87 
   1   4   5   68.57    1.92 
   1   4   5   66.42    2.05 
   1   4   5   69.03    2.09 
   1   4   5   72.84    2.16 
  -2  -4  -5   48.50    1.33 
  -2  -4  -5   47.96    1.69 
  -2  -4  -5   48.02    1.64 
   2   4   5   49.30    1.39 
   2   4   5   47.34    1.74 
   2   4   5   47.08    1.72 
   2   4   5   47.11    1.72 
  -3  -4  -5   34.73    1.47 
  -3  -4  -5   32.53    1.50 
   3   4   5   36.65    1.69 
   3   4   5   32.29    1.55 
   3   4   5   34.41    1.20 
   3   4   5   33.28    1.50 
  -4  -4  -5    0.14    0.39 
  -4  -4  -5    0.46    0.58 
   4   4   5   -0.43    0.52 
   4   4   5    0.09    0.63 
   4   4   5   -0.88    0.57 
   4   4   5    0.94    0.36 
  -5  -4  -5   29.07    1.44 
  -5  -4  -5   30.88    1.73 
   5   4   5   31.27    1.67 
   5   4   5   28.00    1.45 
  -6  -4  -5   10.62    1.45 
   6   4   5   11.17    1.25 
   6   4   5   11.14    1.41 
  -7  -4  -5   18.59    1.79 
  -7  -4  -5   18.90    1.55 
  -7  -4  -5   23.81    1.52 
   7   4   5   21.04    1.66 
   7   4   5   19.54    1.59 
  -8  -4  -5    1.59    0.81 
  -8  -4  -5   -1.07    0.93 
  -8  -4  -5    0.25    0.85 
   8   4   5   -0.97    0.72 
   8   4   5    0.17    0.90 
  12  -5  -5    4.81    0.88 
  12  -5  -5    4.41    1.31 
 -12   5   5    6.42    1.28 
 -12   5   5    5.36    1.28 
  11  -5  -5    3.10    1.06 
  11  -5  -5    2.84    0.76 
 -11   5   5    4.67    1.07 
 -11   5   5    3.11    1.00 
  10  -5  -5    0.93    0.58 
  10  -5  -5   -0.26    0.98 
 -10   5   5    0.78    0.99 
 -10   5   5    1.05    0.91 
   9  -5  -5    1.17    0.67 
   9  -5  -5    0.68    0.67 
  -9   5   5    0.23    0.78 
   8  -5  -5   14.00    1.24 
   8  -5  -5   14.27    0.97 
   8  -5  -5   13.62    1.26 
  -8   5   5   14.05    1.38 
  -8   5   5   14.71    1.42 
  -8   5   5   15.13    1.26 
   7  -5  -5   65.79    2.16 
   7  -5  -5   65.57    2.16 
   7  -5  -5   64.58    2.09 
  -7   5   5   63.86    2.19 
  -7   5   5   67.44    2.08 
  -7   5   5   63.82    2.19 
   6  -5  -5   21.76    1.19 
   6  -5  -5   20.85    1.21 
   6  -5  -5   21.19    1.21 
  -6   5   5   20.53    1.16 
  -6   5   5   20.70    1.21 
  -6   5   5   20.63    1.07 
   5  -5  -5   14.38    0.90 
   5  -5  -5   16.26    1.01 
   5  -5  -5   15.84    1.04 
   5  -5  -5   15.93    0.77 
  -5   5   5   16.26    0.90 
  -5   5   5   14.97    1.07 
  -5   5   5   12.65    0.92 
   4  -5  -5   48.44    1.57 
   4  -5  -5   46.71    1.56 
   4  -5  -5   48.24    1.36 
   4  -5  -5   50.91    1.69 
  -4   5   5   46.39    1.61 
  -4   5   5   50.05    1.45 
  -4   5   5   48.55    1.70 
   3  -5  -5   26.24    1.02 
   3  -5  -5   27.40    1.13 
   3  -5  -5   27.04    1.15 
  -3   5   5   24.70    1.16 
  -3   5   5   26.94    1.19 
   2  -5  -5   15.97    0.86 
   2  -5  -5   17.64    0.94 
   2  -5  -5   15.56    0.88 
  -2   5   5   16.94    0.93 
  -2   5   5   15.57    0.91 
  -2   5   5   18.42    1.07 
   1  -5  -5    3.41    0.52 
   1  -5  -5    3.26    0.48 
   1  -5  -5    3.87    0.54 
  -1   5   5    2.78    0.54 
  -1   5   5    2.99    0.54 
  -1   5   5    3.11    0.53 
   0  -5  -5   12.33    0.86 
   0  -5  -5   12.42    0.76 
   0  -5  -5   11.92    0.79 
   0  -5  -5   12.71    0.80 
   0   5   5    9.44    0.89 
   0   5   5   13.16    0.88 
   0   5   5   10.93    0.84 
  -1  -5  -5   27.56    1.19 
  -1  -5  -5   27.19    1.09 
  -1  -5  -5   27.01    1.05 
  -1  -5  -5   27.77    1.24 
   1   5   5   26.87    1.34 
   1   5   5   27.81    1.19 
   1   5   5   25.40    1.23 
  -2  -5  -5   67.32    1.78 
  -2  -5  -5   68.96    2.09 
  -2  -5  -5   70.29    1.80 
  -2  -5  -5   71.35    2.03 
   2   5   5   67.96    2.29 
   2   5   5   69.00    1.79 
   2   5   5   68.49    2.16 
   2   5   5   70.65    2.28 
  -3  -5  -5   37.60    1.54 
  -3  -5  -5   39.48    1.73 
  -3  -5  -5   40.31    1.23 
  -3  -5  -5   41.00    1.28 
   3   5   5   38.51    1.36 
   3   5   5   37.54    1.50 
   3   5   5   35.34    1.64 
   3   5   5   39.22    1.81 
  -4  -5  -5    0.75    0.59 
  -4  -5  -5    0.58    0.64 
   4   5   5    0.28    0.81 
   4   5   5    1.05    0.34 
   4   5   5    0.09    0.62 
   4   5   5    0.89    0.51 
  -5  -5  -5    2.26    0.83 
   5   5   5    0.85    0.65 
  -6  -5  -5   15.49    2.10 
  -6  -5  -5   18.01    1.15 
  -6  -5  -5   16.25    1.59 
   6   5   5   14.82    1.54 
   6   5   5   16.30    1.87 
  -7  -5  -5   15.48    1.58 
  -7  -5  -5   15.54    1.22 
  -7  -5  -5   10.11    1.33 
   7   5   5   13.66    1.57 
   7   5   5   15.15    1.94 
  12  -6  -5    9.87    1.68 
  12  -6  -5   12.25    1.38 
 -12   6   5   10.81    1.56 
 -12   6   5   15.30    1.95 
  11  -6  -5   23.07    1.56 
  11  -6  -5   24.14    2.04 
 -11   6   5   24.44    2.00 
 -11   6   5   22.49    1.70 
  10  -6  -5   10.30    1.10 
  10  -6  -5   11.22    1.64 
 -10   6   5   10.10    1.49 
 -10   6   5    9.79    1.29 
   9  -6  -5    1.23    0.86 
   9  -6  -5    1.65    0.77 
  -9   6   5    2.43    0.98 
  -9   6   5    1.84    1.38 
   8  -6  -5    3.05    0.77 
   8  -6  -5    4.55    0.95 
  -8   6   5    3.71    0.82 
  -8   6   5    3.46    0.84 
   7  -6  -5   17.77    1.19 
   7  -6  -5   19.86    1.47 
   7  -6  -5   17.81    1.39 
  -7   6   5   18.74    1.45 
  -7   6   5   19.48    1.18 
  -7   6   5   18.18    1.35 
   6  -6  -5   26.30    0.99 
   6  -6  -5   27.76    1.50 
   6  -6  -5   26.55    1.34 
   6  -6  -5   28.18    1.39 
  -6   6   5   28.53    1.26 
  -6   6   5   26.63    1.46 
  -6   6   5   29.04    1.51 
   5  -6  -5    3.43    0.64 
   5  -6  -5    3.86    0.66 
   5  -6  -5    3.90    0.68 
   5  -6  -5    3.30    0.49 
  -5   6   5    3.69    0.67 
  -5   6   5    3.47    0.60 
  -5   6   5    5.69    0.94 
   4  -6  -5    7.99    0.84 
   4  -6  -5    7.08    0.63 
   4  -6  -5    5.46    0.87 
   4  -6  -5    5.59    0.68 
  -4   6   5    8.23    0.95 
  -4   6   5    6.77    0.77 
  -4   6   5    7.60    0.91 
   3  -6  -5   41.96    1.54 
   3  -6  -5   44.49    1.60 
   3  -6  -5   39.59    1.38 
  -3   6   5   39.51    1.54 
  -3   6   5   41.73    1.64 
  -3   6   5   41.96    1.57 
   2  -6  -5   46.45    1.51 
   2  -6  -5   48.68    1.65 
   2  -6  -5   46.77    1.58 
  -2   6   5   44.41    1.61 
  -2   6   5   46.85    1.69 
  -2   6   5   47.54    1.71 
   1  -6  -5   59.57    1.82 
   1  -6  -5   60.06    1.83 
   1  -6  -5   59.83    1.81 
  -1   6   5   59.64    1.97 
  -1   6   5   59.39    1.94 
  -1   6   5   60.52    2.01 
   0  -6  -5   19.51    1.03 
   0  -6  -5   18.75    0.97 
   0  -6  -5   18.34    1.10 
   0  -6  -5   19.03    0.89 
   0   6   5   17.74    1.05 
   0   6   5   17.21    1.17 
   0   6   5   19.24    1.24 
  -1  -6  -5   57.44    1.76 
  -1  -6  -5   54.42    1.69 
  -1  -6  -5   56.44    1.67 
  -1  -6  -5   56.53    1.88 
   1   6   5   55.03    1.82 
   1   6   5   58.45    2.11 
   1   6   5   57.34    2.06 
  -2  -6  -5   74.10    1.99 
  -2  -6  -5   75.85    1.99 
  -2  -6  -5   74.62    2.29 
  -2  -6  -5   75.45    2.33 
   2   6   5   75.70    2.49 
   2   6   5   76.12    2.31 
   2   6   5   74.39    2.47 
   2   6   5   75.81    1.89 
  -3  -6  -5   32.39    1.64 
  -3  -6  -5   31.05    1.23 
  -3  -6  -5   31.28    1.43 
  -3  -6  -5   31.32    1.20 
   3   6   5   32.57    2.42 
   3   6   5   32.33    1.61 
   3   6   5   31.12    1.72 
   3   6   5   30.86    1.20 
  -4  -6  -5   13.12    2.00 
   4   6   5   12.37    1.50 
   4   6   5   12.68    1.31 
  -5  -6  -5    4.12    0.88 
  -5  -6  -5    4.09    0.91 
   5   6   5    4.72    1.01 
   5   6   5    4.46    1.15 
  -6  -6  -5    3.40    0.81 
  -6  -6  -5    4.73    0.68 
  -6  -6  -5    3.26    1.02 
   6   6   5    3.69    1.06 
   6   6   5    1.88    0.88 
  -7  -6  -5   17.21    1.65 
  -7  -6  -5   15.76    1.69 
   7   6   5   13.61    1.64 
   7   6   5   11.49    1.48 
  12  -7  -5    3.69    1.30 
 -12   7   5    2.85    1.29 
  11  -7  -5   20.85    1.90 
  11  -7  -5   20.06    1.43 
 -11   7   5   22.60    2.16 
 -11   7   5   23.14    1.95 
  10  -7  -5    3.35    0.79 
  10  -7  -5    5.23    1.22 
 -10   7   5    3.89    1.05 
 -10   7   5    4.31    1.18 
   9  -7  -5    0.30    0.74 
   9  -7  -5    1.46    0.77 
  -9   7   5    1.74    1.00 
  -9   7   5    1.55    0.91 
   8  -7  -5    6.04    1.01 
  -8   7   5    7.38    1.10 
  -8   7   5    4.97    1.06 
   7  -7  -5   23.20    0.90 
   7  -7  -5   23.08    1.46 
   7  -7  -5   21.41    1.34 
  -7   7   5   19.80    1.53 
  -7   7   5   23.81    1.33 
   6  -7  -5   30.17    1.61 
   6  -7  -5   32.00    1.58 
   6  -7  -5   30.61    1.51 
   6  -7  -5   31.09    1.10 
  -6   7   5   31.23    1.31 
  -6   7   5   30.23    1.66 
  -6   7   5   29.22    1.59 
   5  -7  -5   37.23    1.26 
   5  -7  -5   34.83    1.55 
   5  -7  -5   39.22    1.69 
   5  -7  -5   39.00    1.64 
  -5   7   5   40.29    1.35 
  -5   7   5   36.73    1.75 
  -5   7   5   34.32    1.65 
   4  -7  -5    4.23    0.67 
   4  -7  -5    5.12    0.69 
   4  -7  -5    5.52    0.90 
  -4   7   5    5.01    0.74 
  -4   7   5    3.37    0.72 
  -4   7   5    4.85    0.79 
   3  -7  -5   43.15    1.66 
   3  -7  -5   42.08    1.47 
   3  -7  -5   41.12    1.63 
  -3   7   5   41.13    1.69 
  -3   7   5   43.33    1.85 
  -3   7   5   43.57    1.79 
   2  -7  -5   97.34    2.65 
   2  -7  -5   98.19    2.60 
   2  -7  -5   96.99    2.63 
  -2   7   5   95.08    2.72 
  -2   7   5   97.92    2.84 
  -2   7   5   94.19    2.69 
   1  -7  -5   21.46    1.16 
   1  -7  -5   20.81    1.01 
   1  -7  -5   21.77    1.15 
   1  -7  -5   22.18    1.20 
  -1   7   5   21.67    1.34 
  -1   7   5   19.49    1.17 
  -1   7   5   20.92    1.34 
   0  -7  -5   33.98    1.22 
   0  -7  -5   34.39    1.41 
   0  -7  -5   33.69    1.34 
   0  -7  -5   32.66    1.46 
   0   7   5   33.07    1.44 
   0   7   5   32.04    1.57 
   0   7   5   33.12    1.65 
  -1  -7  -5    4.07    0.70 
  -1  -7  -5    4.80    0.66 
  -1  -7  -5    3.57    0.71 
  -1  -7  -5    4.16    0.71 
   1   7   5    3.75    0.82 
   1   7   5    3.99    0.61 
   1   7   5    3.94    0.96 
  -2  -7  -5   10.10    0.96 
  -2  -7  -5   11.20    0.98 
  -2  -7  -5   10.77    1.02 
  -2  -7  -5   10.48    1.07 
   2   7   5   11.69    1.19 
   2   7   5   10.40    1.58 
   2   7   5   10.01    1.01 
  -3  -7  -5   71.89    2.02 
  -3  -7  -5   73.16    2.41 
  -3  -7  -5   71.20    2.04 
  -3  -7  -5   70.80    2.45 
   3   7   5   69.95    2.77 
   3   7   5   69.60    2.44 
  -4  -7  -5   13.41    1.42 
  -4  -7  -5   11.01    1.31 
   4   7   5   12.30    1.48 
   4   7   5   10.83    1.53 
  -5  -7  -5    6.82    0.92 
  -5  -7  -5    5.19    1.09 
   5   7   5    6.23    1.23 
   5   7   5    7.08    1.13 
  -6  -7  -5    6.71    1.36 
  -6  -7  -5    7.45    1.25 
   6   7   5    8.04    1.45 
   6   7   5    6.56    1.47 
  11  -8  -5    2.23    1.31 
  11  -8  -5    0.42    0.82 
 -11   8   5    2.04    1.25 
 -11   8   5    1.48    1.04 
  10  -8  -5   22.67    2.03 
  10  -8  -5   18.88    1.44 
 -10   8   5   16.88    1.81 
 -10   8   5   16.51    1.72 
   9  -8  -5   10.18    1.43 
   9  -8  -5   11.90    1.29 
  -9   8   5   13.01    1.34 
  -9   8   5   12.80    1.57 
   8  -8  -5    2.16    0.83 
   8  -8  -5    2.73    1.03 
  -8   8   5    2.07    0.81 
  -8   8   5    1.76    0.85 
   7  -8  -5    6.50    0.70 
   7  -8  -5    8.27    1.70 
  -7   8   5    9.87    1.39 
  -7   8   5    8.05    1.03 
   6  -8  -5   64.54    2.38 
   6  -8  -5   62.65    1.78 
   6  -8  -5   63.10    2.27 
  -6   8   5   64.88    1.96 
  -6   8   5   63.36    2.45 
   5  -8  -5   55.54    1.74 
   5  -8  -5   55.64    2.08 
   5  -8  -5   59.18    2.28 
  -5   8   5   49.92    2.09 
  -5   8   5   59.37    1.68 
  -5   8   5   58.37    2.25 
   4  -8  -5    0.79    0.55 
   4  -8  -5    0.35    0.54 
  -4   8   5   -0.67    0.45 
  -4   8   5    0.96    0.72 
  -4   8   5    0.30    0.48 
  -4   8   5    1.47    0.76 
   3  -8  -5    0.02    0.55 
   3  -8  -5   -0.68    0.42 
   3  -8  -5   -0.14    0.34 
  -3   8   5    0.33    0.53 
  -3   8   5    0.28    0.64 
   2  -8  -5   30.55    1.50 
   2  -8  -5   32.09    1.42 
   2  -8  -5   29.37    1.50 
  -2   8   5   30.69    1.57 
  -2   8   5   28.21    1.47 
  -2   8   5   32.22    1.74 
   1  -8  -5   57.98    1.58 
   1  -8  -5   58.89    2.02 
   1  -8  -5   58.40    2.02 
   1  -8  -5   59.56    2.08 
  -1   8   5   58.79    2.26 
  -1   8   5   59.56    2.18 
  -1   8   5   58.08    2.14 
   0  -8  -5  109.74    3.06 
   0  -8  -5  110.01    2.86 
   0  -8  -5  110.50    2.96 
   0  -8  -5  112.41    2.67 
   0   8   5  111.58    3.06 
   0   8   5  107.73    3.21 
   0   8   5   99.88    3.03 
  -1  -8  -5   24.08    1.31 
  -1  -8  -5   24.21    1.34 
  -1  -8  -5   24.04    1.41 
   1   8   5   26.28    1.41 
   1   8   5   26.89    1.85 
  -2  -8  -5   -0.86    0.64 
  -2  -8  -5    0.28    0.59 
  -2  -8  -5    0.35    0.57 
   2   8   5   -0.11    0.52 
   2   8   5   -0.44    0.70 
  -3  -8  -5   12.96    1.44 
  -3  -8  -5   11.00    1.22 
  -3  -8  -5   11.75    1.12 
   3   8   5   15.20    1.63 
  -4  -8  -5    9.14    1.27 
  -4  -8  -5    8.58    1.41 
   4   8   5    7.49    1.29 
   4   8   5   12.27    1.86 
  -5  -8  -5   -0.17    0.74 
  -5  -8  -5    0.20    0.77 
   5   8   5   -0.14    0.82 
   5   8   5   -0.16    0.97 
  -6  -8  -5    2.76    1.12 
  -6  -8  -5    2.92    1.12 
   6   8   5    4.11    1.09 
   6   8   5    0.90    1.09 
  11  -9  -5    3.12    1.03 
  11  -9  -5    2.04    1.13 
 -11   9   5    2.35    1.04 
 -11   9   5    1.81    1.36 
  10  -9  -5   19.82    1.36 
  10  -9  -5   24.80    2.22 
 -10   9   5   21.16    2.04 
 -10   9   5   23.07    1.78 
   9  -9  -5    1.89    0.82 
   9  -9  -5    3.16    0.99 
  -9   9   5    2.66    1.00 
  -9   9   5    1.18    0.92 
   8  -9  -5   22.35    1.82 
   8  -9  -5   20.20    1.47 
  -8   9   5   22.72    1.51 
  -8   9   5   26.20    1.95 
   7  -9  -5    6.99    0.78 
   7  -9  -5    4.90    1.04 
   7  -9  -5    5.59    0.99 
  -7   9   5    6.70    1.11 
  -7   9   5    5.93    1.14 
   6  -9  -5   19.06    1.40 
   6  -9  -5   17.70    1.05 
   6  -9  -5   16.81    1.31 
  -6   9   5   21.01    1.25 
  -6   9   5   17.27    1.43 
   5  -9  -5   30.92    1.33 
   5  -9  -5   23.74    2.06 
  -5   9   5   23.44    1.73 
  -5   9   5   32.32    1.25 
   4  -9  -5   52.06    1.84 
   4  -9  -5   52.43    2.07 
  -4   9   5   51.94    2.12 
  -4   9   5   55.77    2.31 
   3  -9  -5   15.64    1.16 
   3  -9  -5   15.07    0.93 
  -3   9   5   16.49    1.34 
  -3   9   5   16.64    1.25 
   2  -9  -5    3.96    0.90 
   2  -9  -5    2.17    0.75 
  -2   9   5    2.34    0.84 
  -2   9   5    1.83    0.63 
   1  -9  -5    2.61    0.47 
   1  -9  -5    2.44    0.79 
   1  -9  -5    2.42    0.79 
  -1   9   5    2.45    0.78 
   0  -9  -5   15.37    1.39 
   0  -9  -5   14.42    0.97 
   0  -9  -5   14.77    1.07 
   0   9   5   13.79    1.48 
   0   9   5   14.17    1.23 
  -1  -9  -5    6.24    1.06 
  -1  -9  -5    3.92    0.82 
   1   9   5    6.32    1.08 
   1   9   5    5.77    1.20 
  -2  -9  -5    0.53    0.64 
  -2  -9  -5   -0.61    0.68 
   2   9   5    0.07    0.80 
   2   9   5   -0.84    0.72 
  -3  -9  -5    1.27    0.93 
  -3  -9  -5   -0.91    0.88 
  -3  -9  -5    0.46    0.67 
   3   9   5    2.01    0.65 
   3   9   5    0.64    0.92 
  -4  -9  -5   -0.80    0.77 
  -4  -9  -5    0.76    0.83 
   4   9   5   -0.22    0.97 
   4   9   5    1.73    1.25 
  -5  -9  -5   24.01    1.97 
  -5  -9  -5   26.81    1.76 
   5   9   5   23.64    2.01 
   5   9   5   25.76    1.97 
  10 -10  -5    7.57    1.17 
  10 -10  -5    6.64    1.37 
 -10  10   5    6.36    1.24 
 -10  10   5   12.03    1.88 
   9 -10  -5    1.19    0.89 
   9 -10  -5    0.97    1.12 
  -9  10   5   -1.33    0.91 
  -9  10   5    0.89    0.95 
   8 -10  -5   25.30    2.00 
   8 -10  -5   24.15    1.76 
  -8  10   5   26.76    2.04 
  -8  10   5   26.91    1.72 
   7 -10  -5    9.21    1.36 
   7 -10  -5    9.07    0.89 
   7 -10  -5    6.20    1.06 
  -7  10   5    5.69    1.07 
   6 -10  -5    3.16    0.99 
   6 -10  -5    3.32    0.70 
   6 -10  -5    1.36    0.75 
  -6  10   5    3.64    1.01 
   5 -10  -5    2.57    0.67 
   5 -10  -5    1.54    0.72 
  -5  10   5    2.86    1.12 
  -5  10   5    2.17    0.74 
   4 -10  -5   18.42    1.44 
   4 -10  -5   17.85    1.31 
  -4  10   5   18.69    1.54 
  -4  10   5   18.45    1.58 
   3 -10  -5    7.16    1.01 
   3 -10  -5    7.58    1.29 
  -3  10   5    9.83    1.23 
  -3  10   5    6.66    1.59 
   2 -10  -5   31.67    1.67 
   2 -10  -5   29.76    1.51 
  -2  10   5   30.71    1.83 
   1 -10  -5    0.11    0.71 
   1 -10  -5   -0.01    0.80 
  -1  10   5    0.93    0.94 
   0 -10  -5    8.42    1.39 
   0 -10  -5    8.40    1.10 
   0 -10  -5    9.26    1.01 
   0  10   5    7.24    1.24 
   0  10   5    7.25    1.17 
  -1 -10  -5    8.74    1.22 
  -1 -10  -5   11.20    1.32 
  -1 -10  -5    8.56    1.20 
   1  10   5    7.90    1.27 
   1  10   5   12.16    1.76 
  -2 -10  -5   12.19    1.51 
  -2 -10  -5   11.72    1.44 
  -2 -10  -5   15.54    1.69 
   2  10   5   12.97    1.29 
   2  10   5   11.55    1.66 
  -3 -10  -5    4.94    0.75 
  -3 -10  -5    4.05    1.07 
  -3 -10  -5    4.19    1.12 
   3  10   5    8.19    1.50 
   3  10   5    5.22    1.28 
  -4 -10  -5    0.22    0.77 
  -4 -10  -5   -0.43    0.84 
   4  10   5    1.13    0.86 
   4  10   5    2.52    1.44 
   9 -11  -5    5.50    1.51 
  -9  11   5    4.94    1.48 
   8 -11  -5    5.08    1.04 
  -8  11   5    6.21    1.16 
   7 -11  -5    2.16    1.10 
  -7  11   5    3.47    1.29 
   6 -11  -5    0.31    0.64 
   6 -11  -5    0.40    0.93 
  -6  11   5   -0.88    0.76 
  -6  11   5   -0.12    0.84 
   5 -11  -5    7.93    1.25 
   5 -11  -5    8.59    1.26 
  -5  11   5    7.44    1.35 
  -5  11   5   10.09    1.51 
   4 -11  -5    0.33    0.69 
   4 -11  -5   -0.86    0.65 
  -4  11   5   -0.24    0.65 
  -4  11   5   -0.24    0.67 
   3 -11  -5    7.33    1.08 
   3 -11  -5    7.83    1.01 
  -3  11   5    5.94    1.13 
  -3  11   5    8.43    1.38 
   2 -11  -5    7.56    1.31 
   2 -11  -5    5.62    0.98 
  -2  11   5    6.50    1.22 
  -2  11   5    7.23    1.16 
   1 -11  -5    2.03    0.95 
   1 -11  -5    2.81    0.98 
  -1  11   5    1.42    0.65 
  -1  11   5    1.98    1.05 
   0 -11  -5    0.80    0.96 
   0 -11  -5   -0.14    0.93 
   0  11   5    0.83    0.97 
   0  11   5    0.22    0.88 
  -1 -11  -5   28.47    1.54 
  -1 -11  -5   22.70    1.58 
  -1 -11  -5   24.47    1.81 
   1  11   5   20.28    1.87 
   1  11   5   23.37    1.64 
  -2 -11  -5   15.16    1.59 
  -2 -11  -5   11.82    1.38 
  -2 -11  -5   13.29    1.64 
   2  11   5    8.57    1.56 
   2  11   5   11.08    1.68 
  -3 -11  -5    4.44    1.16 
  -3 -11  -5    7.02    1.16 
   3  11   5    6.74    1.68 
   3  11   5    6.09    1.47 
   8 -12  -5    3.44    1.16 
  -8  12   5    6.19    1.63 
   7 -12  -5   13.81    1.81 
  -7  12   5   16.65    1.88 
   6 -12  -5   24.50    1.97 
   6 -12  -5   23.79    1.37 
  -6  12   5   25.92    2.19 
  -6  12   5   25.21    1.92 
   5 -12  -5    2.14    0.56 
   5 -12  -5    0.98    0.92 
  -5  12   5    1.43    0.93 
  -5  12   5    1.18    1.01 
   4 -12  -5    3.13    0.79 
   4 -12  -5    2.78    1.03 
  -4  12   5    3.35    1.06 
  -4  12   5    2.33    0.90 
   3 -12  -5   14.59    1.41 
   3 -12  -5   14.13    1.34 
  -3  12   5   13.11    1.65 
  -3  12   5   16.35    1.38 
   2 -12  -5    5.66    1.17 
   2 -12  -5    5.64    1.06 
  -2  12   5    3.84    0.87 
  -2  12   5    5.09    1.19 
   1 -12  -5    4.86    1.13 
   1 -12  -5    4.38    1.14 
  -1  12   5    5.49    1.31 
   0 -12  -5    8.86    1.38 
   0 -12  -5   11.29    1.69 
   0  12   5   14.46    1.43 
   0  12   5   11.83    1.46 
  -1 -12  -5    2.48    1.15 
  -1 -12  -5    4.68    1.24 
   1  12   5    1.57    0.93 
   1  12   5    3.56    1.25 
   6 -13  -5    3.37    0.80 
   6 -13  -5    4.45    1.24 
  -6  13   5    2.94    1.45 
  -6  13   5    1.70    1.11 
   5 -13  -5    3.02    0.72 
   5 -13  -5    3.87    1.29 
  -5  13   5    2.57    1.27 
  -5  13   5    2.74    1.26 
   4 -13  -5   -0.06    0.69 
   4 -13  -5   -1.27    0.85 
  -4  13   5    0.95    1.21 
  -4  13   5   -0.92    0.97 
   3 -13  -5    5.89    1.14 
   3 -13  -5    6.35    1.34 
  -3  13   5    5.10    1.11 
  -3  13   5    5.25    1.29 
   2 -13  -5   18.78    1.90 
   2 -13  -5   19.38    1.70 
  -2  13   5   22.69    2.28 
  -2  13   5   21.03    1.91 
   1 -13  -5   19.42    1.57 
   1 -13  -5   24.48    1.99 
  -1  13   5   23.41    1.76 
  -1  13   5   25.95    2.05 
   3  14  -6    3.13    1.26 
  -3 -14   6    3.42    1.10 
  -3 -14   6    4.45    1.18 
  -3 -14   6    4.08    1.39 
   2  14  -6    0.37    0.78 
  -2 -14   6    0.20    0.91 
  -2 -14   6    0.86    0.96 
  -2 -14   6    0.37    0.96 
   1  14  -6   -0.92    1.05 
  -1 -14   6    0.37    0.90 
  -1 -14   6   -0.96    1.04 
  -1 -14   6    0.80    0.72 
   0  14  -6    2.15    0.89 
   0 -14   6    2.53    1.06 
   0 -14   6    1.84    0.93 
   0 -14   6    1.12    0.89 
  -1  14  -6    3.02    1.15 
   1 -14   6    3.73    1.05 
   1 -14   6    4.21    0.69 
   1 -14   6    4.87    1.31 
  -2  14  -6    0.13    1.06 
   2 -14   6    0.27    0.72 
   2 -14   6   -0.74    0.83 
   2 -14   6    0.06    0.98 
  -3  14  -6    3.32    1.10 
   3 -14   6    3.74    0.88 
   3 -14   6    2.59    0.89 
   5  13  -6    0.98    1.00 
  -5 -13   6    1.85    0.87 
  -5 -13   6    0.03    0.98 
   4  13  -6   13.15    2.00 
  -4 -13   6    9.88    1.60 
  -4 -13   6    8.79    1.45 
  -4 -13   6   12.61    1.38 
   3  13  -6    3.10    0.75 
  -3 -13   6    1.82    0.71 
  -3 -13   6    1.43    0.99 
   2  13  -6    2.24    1.09 
  -2 -13   6    2.36    0.93 
  -2 -13   6    3.94    1.09 
  -2 -13   6    2.75    0.75 
   1  13  -6   -0.91    0.79 
  -1 -13   6    0.91    0.81 
  -1 -13   6    0.06    0.89 
   0  13  -6    9.50    1.46 
   0 -13   6    8.39    1.14 
   0 -13   6   11.68    1.74 
   0 -13   6    8.41    1.34 
  -1  13  -6    2.48    0.91 
   1 -13   6    0.33    0.83 
   1 -13   6    0.88    0.80 
   1 -13   6    0.62    0.78 
  -2  13  -6    4.59    1.15 
   2 -13   6    4.99    0.79 
   2 -13   6    4.50    0.80 
   2 -13   6    7.46    1.31 
  -3  13  -6    2.44    1.02 
   3 -13   6    1.48    0.83 
   3 -13   6    1.45    0.69 
   3 -13   6    1.62    0.69 
  -4  13  -6    1.80    1.13 
   4 -13   6    2.08    0.95 
   4 -13   6    1.17    0.81 
   4 -13   6    2.28    0.69 
  -5  13  -6    6.42    1.37 
   5 -13   6    5.13    1.21 
   5 -13   6    7.60    1.24 
   6  12  -6   -0.07    0.95 
  -6 -12   6   -0.62    0.86 
   5  12  -6    1.15    1.03 
  -5 -12   6    0.31    0.95 
  -5 -12   6    0.01    0.81 
   4  12  -6    8.89    1.54 
  -4 -12   6    5.24    0.99 
  -4 -12   6    6.99    1.09 
  -4 -12   6    6.89    1.17 
   3  12  -6    2.75    1.06 
  -3 -12   6    3.38    0.99 
  -3 -12   6    4.67    1.03 
  -3 -12   6    2.68    0.84 
  -2 -12   6    2.85    0.95 
  -2 -12   6    6.17    1.19 
  -2 -12   6    3.60    0.99 
   1  12  -6    4.53    0.88 
  -1 -12   6    3.65    0.77 
  -1 -12   6    4.85    1.03 
   0  12  -6    0.80    1.02 
   0 -12   6    1.65    0.95 
   0 -12   6   -0.12    0.61 
   0 -12   6   -0.46    0.88 
   1 -12   6    2.45    0.74 
   1 -12   6    2.72    0.85 
  -2  12  -6   40.01    2.17 
  -2  12  -6   34.51    2.07 
   2 -12   6   39.75    1.82 
   2 -12   6   37.30    1.72 
  -3  12  -6    1.86    0.94 
   3 -12   6    1.73    0.73 
   3 -12   6    1.67    0.66 
   3 -12   6    2.21    0.70 
   3 -12   6    0.81    0.60 
   4 -12   6    2.06    0.78 
   4 -12   6   -0.35    0.70 
   4 -12   6   -0.30    0.96 
   4 -12   6    1.02    0.67 
   4 -12   6   -0.70    0.86 
   4 -12   6    0.29    0.64 
   5 -12   6    2.32    0.96 
   5 -12   6    2.66    0.69 
   5 -12   6    2.10    1.01 
   5 -12   6    3.30    0.76 
   5 -12   6    3.28    0.81 
  -6  12  -6    7.38    1.19 
   6 -12   6    9.85    1.43 
   6 -12   6    7.69    1.29 
   6 -12   6    6.55    1.22 
   7  11  -6    3.75    1.28 
   7  11  -6    3.27    1.28 
  -7 -11   6    3.50    0.98 
  -7 -11   6    2.75    0.87 
   6  11  -6    9.15    1.33 
   6  11  -6    5.79    1.09 
  -6 -11   6    5.49    1.14 
  -6 -11   6    5.69    1.01 
   5  11  -6    0.25    0.98 
  -5 -11   6    0.43    0.55 
  -5 -11   6    1.45    0.74 
   4  11  -6    0.84    0.69 
  -4 -11   6   -0.71    0.61 
  -4 -11   6    0.62    0.70 
  -4 -11   6   -1.08    0.67 
   3  11  -6   17.80    1.59 
  -3 -11   6   17.99    1.31 
  -3 -11   6   19.15    1.39 
  -3 -11   6   16.82    1.48 
   2  11  -6   37.08    1.83 
  -2 -11   6   39.46    1.94 
  -2 -11   6   38.60    1.91 
   1  11  -6   22.31    1.58 
  -1 -11   6   24.78    1.49 
  -1 -11   6   25.51    1.63 
  -1 -11   6   24.74    1.49 
   0  11  -6    4.09    0.83 
   0 -11   6    4.49    0.87 
   0 -11   6    5.81    1.06 
   0 -11   6    4.53    0.86 
  -1  11  -6   24.72    1.48 
  -1  11  -6   24.92    1.40 
   1 -11   6   27.45    1.20 
   1 -11   6   24.95    1.38 
   1 -11   6   23.30    1.41 
   1 -11   6   22.62    1.23 
  -2  11  -6   31.80    1.74 
   2 -11   6   31.65    1.55 
   2 -11   6   32.60    1.40 
   2 -11   6   34.24    1.48 
   2 -11   6   32.62    1.62 
  -3  11  -6    7.76    1.36 
   3 -11   6    9.30    1.28 
   3 -11   6    9.76    1.22 
   3 -11   6    8.45    1.13 
   3 -11   6    9.37    1.09 
   3 -11   6   10.09    1.21 
   3 -11   6    8.81    1.24 
   4 -11   6    6.64    1.60 
   4 -11   6    7.95    0.97 
   4 -11   6   10.15    1.14 
   4 -11   6    8.76    1.46 
   4 -11   6    7.08    1.11 
   4 -11   6    9.51    0.95 
   5 -11   6    0.25    0.82 
   5 -11   6    0.88    0.68 
   5 -11   6    0.03    0.68 
   5 -11   6    0.30    0.86 
   5 -11   6    0.45    0.74 
   5 -11   6    0.84    0.66 
  -6  11  -6    5.14    1.06 
   6 -11   6    2.56    0.96 
   6 -11   6    3.52    0.86 
   6 -11   6    1.88    0.99 
   6 -11   6    3.25    1.02 
   8  10  -6    2.77    1.03 
   8  10  -6    3.23    0.95 
  -8 -10   6    1.61    0.97 
  -8 -10   6    1.39    1.03 
   7  10  -6    1.01    1.12 
   7  10  -6   -0.33    0.95 
  -7 -10   6    1.39    0.97 
  -7 -10   6    1.10    0.79 
   6  10  -6   27.67    1.93 
   6  10  -6   27.07    1.89 
  -6 -10   6   26.57    1.64 
  -6 -10   6   27.85    1.68 
   5  10  -6   44.63    1.95 
  -5 -10   6   45.87    2.24 
  -5 -10   6   45.80    1.97 
   4  10  -6    1.29    0.60 
  -4 -10   6   -1.28    0.66 
  -4 -10   6   -0.84    0.65 
  -4 -10   6    0.79    0.79 
   3  10  -6    0.06    0.69 
  -3 -10   6    0.82    0.77 
  -3 -10   6    0.58    0.68 
  -3 -10   6    0.25    0.55 
   2  10  -6   25.89    1.42 
  -2 -10   6   25.19    1.40 
  -2 -10   6   25.98    0.98 
   1  10  -6    1.79    0.57 
  -1 -10   6    1.08    0.60 
  -1 -10   6    0.92    0.69 
  -1 -10   6    0.98    0.38 
  -1 -10   6    0.70    0.56 
   0  10  -6    6.92    0.94 
   0  10  -6    5.85    0.86 
   0 -10   6    6.62    0.70 
   0 -10   6    5.74    0.97 
   0 -10   6    6.33    1.07 
   0 -10   6    7.45    0.83 
  -1  10  -6    6.47    0.97 
  -1  10  -6    9.61    1.02 
   1 -10   6    8.03    0.81 
   1 -10   6   11.18    0.99 
   1 -10   6    7.72    0.75 
   1 -10   6    8.29    0.71 
   1 -10   6    9.20    1.17 
  -2  10  -6   18.26    1.24 
   2 -10   6   20.74    1.23 
   2 -10   6   19.29    1.09 
   2 -10   6   18.16    1.34 
   2 -10   6   20.38    1.40 
   2 -10   6   21.03    1.13 
   2 -10   6   19.72    1.21 
  -3  10  -6   50.18    2.15 
   3 -10   6   53.58    1.95 
   3 -10   6   54.19    1.88 
   3 -10   6   54.46    1.90 
   3 -10   6   52.41    1.90 
   3 -10   6   50.43    1.93 
   3 -10   6   53.82    2.03 
   4 -10   6   28.44    1.51 
   4 -10   6   30.82    1.44 
   4 -10   6   27.28    1.57 
   4 -10   6   29.07    1.34 
   4 -10   6   29.85    1.51 
   4 -10   6   31.09    1.61 
   5 -10   6    1.64    0.67 
   5 -10   6    1.52    0.91 
   5 -10   6    1.62    0.90 
   5 -10   6    1.59    0.95 
   5 -10   6    1.16    0.77 
  -6  10  -6    1.20    0.89 
   6 -10   6    1.08    0.94 
   6 -10   6    0.38    0.63 
   6 -10   6    0.52    0.95 
   6 -10   6    1.28    1.07 
  -7  10  -6    6.83    1.21 
   7 -10   6    7.61    1.27 
   7 -10   6    8.85    1.64 
   9   9  -6    4.42    1.42 
   9   9  -6    5.16    1.12 
  -9  -9   6    6.73    1.02 
   8   9  -6    1.55    0.64 
   8   9  -6    0.04    1.06 
  -8  -9   6    0.86    0.98 
  -8  -9   6    0.55    0.92 
   7   9  -6    1.23    0.74 
   7   9  -6    1.04    0.78 
  -7  -9   6    0.02    0.66 
  -7  -9   6    0.19    0.65 
   6   9  -6   82.67    2.82 
   6   9  -6   82.67    2.82 
  -6  -9   6   77.42    2.10 
  -6  -9   6   78.32    2.83 
  -6  -9   6   86.03    2.67 
   5   9  -6   19.29    1.16 
   5   9  -6   16.95    1.42 
  -5  -9   6   17.48    0.94 
  -5  -9   6   15.16    1.31 
  -5  -9   6   15.79    1.17 
   4   9  -6    1.26    0.63 
  -4  -9   6   -0.52    0.48 
  -4  -9   6   -0.22    0.43 
  -4  -9   6    0.71    0.38 
  -4  -9   6    0.02    0.57 
   3   9  -6    0.84    0.58 
  -3  -9   6    0.61    0.66 
  -3  -9   6    0.41    0.61 
  -3  -9   6   -0.19    0.49 
  -3  -9   6    1.19    0.72 
   2   9  -6   16.43    1.11 
  -2  -9   6   16.60    1.18 
  -2  -9   6   17.87    1.24 
  -2  -9   6   16.69    0.78 
  -2  -9   6   15.63    1.19 
   1   9  -6   64.95    2.91 
   1   9  -6   61.12    1.98 
   1   9  -6   63.87    1.62 
  -1  -9   6   64.08    2.06 
  -1  -9   6   62.45    2.09 
  -1  -9   6   63.75    1.72 
  -1  -9   6   61.84    2.09 
   0   9  -6   58.06    2.16 
   0   9  -6   63.03    2.00 
   0   9  -6   65.75    1.81 
   0  -9   6   62.38    2.07 
   0  -9   6   65.06    2.20 
   0  -9   6   66.31    2.05 
   0  -9   6   67.08    1.79 
  -1   9  -6   13.01    1.01 
  -1   9  -6   14.89    1.17 
   1  -9   6   14.46    0.86 
   1  -9   6   13.82    0.98 
   1  -9   6   13.43    0.93 
   1  -9   6   14.82    1.05 
   1  -9   6   13.70    0.94 
  -2   9  -6    0.87    0.67 
  -2   9  -6    1.09    0.46 
   2  -9   6   -0.17    0.32 
   2  -9   6    0.35    0.45 
   2  -9   6    1.10    0.37 
   2  -9   6    0.51    0.61 
   2  -9   6    0.15    0.42 
   2  -9   6    0.94    0.51 
  -3   9  -6   18.33    1.22 
  -3   9  -6   15.87    1.35 
   3  -9   6   17.17    1.15 
   3  -9   6   16.74    1.14 
   3  -9   6   15.51    1.22 
   3  -9   6   15.39    1.15 
   3  -9   6   17.55    1.20 
   3  -9   6   16.66    0.95 
  -4   9  -6   10.58    1.16 
  -4   9  -6    9.34    1.68 
   4  -9   6    9.30    1.35 
   4  -9   6   11.14    0.93 
   4  -9   6   10.40    0.90 
   4  -9   6   11.28    0.88 
   4  -9   6    9.52    1.08 
   4  -9   6   11.06    0.97 
  -5   9  -6    9.79    1.44 
   5  -9   6   12.20    1.05 
   5  -9   6   12.49    1.07 
   5  -9   6   11.18    1.08 
   5  -9   6   10.52    1.53 
   5  -9   6    9.38    1.11 
  -6   9  -6    5.45    0.97 
   6  -9   6    5.75    1.25 
   6  -9   6    6.64    1.02 
   6  -9   6    5.23    1.12 
  -7   9  -6    0.12    0.90 
   7  -9   6   -0.50    0.72 
   7  -9   6   -0.29    0.74 
   7  -9   6    0.14    1.03 
  -8   9  -6    0.59    1.28 
  -8   9  -6   -0.80    1.08 
   8  -9   6    1.17    0.69 
   8  -9   6    1.05    0.99 
  10   8  -6    2.04    0.82 
  10   8  -6    3.21    1.11 
 -10  -8   6    1.81    1.02 
   9   8  -6    1.96    0.88 
   9   8  -6    1.88    0.81 
  -9  -8   6    1.93    0.80 
   8   8  -6   11.23    1.46 
   8   8  -6   10.42    1.45 
  -8  -8   6   10.97    1.40 
  -8  -8   6   12.48    1.25 
  -8  -8   6   10.19    1.60 
   7   8  -6    0.26    0.86 
   7   8  -6   -0.08    0.69 
  -7  -8   6    0.98    0.77 
  -7  -8   6    0.94    0.85 
  -7  -8   6    1.85    0.51 
   6   8  -6   11.47    1.13 
   6   8  -6   12.64    1.08 
  -6  -8   6   12.19    1.33 
  -6  -8   6   11.40    1.11 
  -6  -8   6   13.13    0.93 
   5   8  -6    0.64    0.54 
   5   8  -6    0.95    0.72 
  -5  -8   6    1.28    0.41 
  -5  -8   6    0.81    0.52 
  -5  -8   6    1.35    0.74 
   4   8  -6   10.91    1.11 
  -4  -8   6   11.50    1.07 
  -4  -8   6   10.51    0.71 
  -4  -8   6    9.30    0.88 
   3   8  -6    6.13    0.91 
   3   8  -6    5.96    0.85 
  -3  -8   6    6.17    0.87 
  -3  -8   6    6.71    0.89 
  -3  -8   6    7.24    0.86 
  -3  -8   6    8.40    0.62 
   2   8  -6   30.69    1.28 
   2   8  -6   36.16    1.69 
  -2  -8   6   29.89    1.39 
  -2  -8   6   32.72    1.09 
  -2  -8   6   32.10    1.44 
  -2  -8   6   31.42    1.36 
   1   8  -6   22.90    1.24 
   1   8  -6   28.34    1.20 
   1   8  -6   28.57    0.93 
  -1  -8   6   26.10    1.30 
  -1  -8   6   27.28    1.31 
  -1  -8   6   27.80    1.26 
  -1  -8   6   28.38    1.02 
   0   8  -6   62.91    1.91 
   0   8  -6   66.50    1.76 
   0   8  -6   65.72    2.18 
   0  -8   6   65.47    1.75 
   0  -8   6   64.12    2.02 
   0  -8   6   65.04    2.03 
   0  -8   6   65.51    2.05 
  -1   8  -6    2.05    0.53 
  -1   8  -6    2.95    0.55 
   1  -8   6    3.75    0.55 
   1  -8   6    2.66    0.45 
   1  -8   6    3.15    0.55 
   1  -8   6    2.95    0.63 
   1  -8   6    2.25    0.62 
   1  -8   6    2.79    0.66 
  -2   8  -6   28.46    1.26 
  -2   8  -6   27.39    1.35 
   2  -8   6   27.97    1.32 
   2  -8   6   29.76    1.35 
   2  -8   6   29.21    1.25 
   2  -8   6   28.94    1.34 
   2  -8   6   28.80    1.25 
   2  -8   6   29.28    1.39 
  -3   8  -6    5.07    0.85 
  -3   8  -6    5.25    0.83 
   3  -8   6    7.41    1.03 
   3  -8   6    6.85    0.87 
   3  -8   6    6.88    0.87 
   3  -8   6    5.44    0.86 
   3  -8   6    6.68    0.81 
   3  -8   6    6.83    0.71 
  -4   8  -6    3.08    0.72 
   4  -8   6    1.63    0.49 
   4  -8   6    2.82    0.65 
   4  -8   6    2.76    0.72 
   4  -8   6    2.94    0.64 
   4  -8   6    2.99    0.54 
   4  -8   6    2.40    0.70 
  -5   8  -6   33.30    1.44 
   5  -8   6   35.51    2.13 
   5  -8   6   34.55    1.30 
   5  -8   6   33.94    1.64 
   5  -8   6   34.12    1.73 
   5  -8   6   27.53    1.92 
  -6   8  -6    3.33    0.73 
  -6   8  -6    3.88    0.96 
   6  -8   6    3.99    1.21 
   6  -8   6    4.40    1.01 
   6  -8   6    2.81    0.79 
  -7   8  -6   -0.53    0.83 
   7  -8   6    0.85    0.77 
   7  -8   6    0.12    1.01 
   7  -8   6    0.44    0.87 
  -8   8  -6    0.94    1.04 
   8  -8   6    1.80    0.88 
   8  -8   6    2.13    1.11 
  10   7  -6    1.20    1.18 
  10   7  -6    1.48    0.93 
 -10  -7   6    2.61    1.31 
 -10  -7   6    2.03    0.89 
   9   7  -6   24.93    1.98 
   9   7  -6   25.97    1.68 
  -9  -7   6   24.27    1.32 
  -9  -7   6   27.08    1.68 
  -9  -7   6   22.81    1.77 
   8   7  -6    7.88    1.04 
   8   7  -6    7.68    1.21 
  -8  -7   6    7.59    1.13 
  -8  -7   6    6.30    1.02 
  -8  -7   6    7.23    1.02 
   7   7  -6    0.63    0.81 
   7   7  -6    1.35    0.64 
  -7  -7   6   -0.23    0.65 
  -7  -7   6    1.06    0.81 
  -7  -7   6    1.67    0.42 
   6   7  -6    7.73    1.09 
   6   7  -6    7.53    1.25 
  -6  -7   6    7.27    1.01 
  -6  -7   6    6.88    0.97 
  -6  -7   6    7.29    0.62 
   5   7  -6   32.48    1.35 
   5   7  -6   28.89    1.58 
   5   7  -6   30.98    1.54 
  -5  -7   6   28.87    1.39 
  -5  -7   6   28.87    1.18 
  -5  -7   6   31.71    1.62 
   4   7  -6   27.16    1.49 
   4   7  -6   29.00    1.20 
  -4  -7   6   26.51    1.45 
  -4  -7   6   27.27    1.08 
  -4  -7   6   27.28    1.25 
   3   7  -6   64.41    1.80 
   3   7  -6   63.76    2.11 
  -3  -7   6   61.81    1.90 
  -3  -7   6   62.25    1.70 
  -3  -7   6   62.02    1.93 
  -3  -7   6   59.31    1.93 
   2   7  -6   32.68    1.41 
   2   7  -6   36.73    1.31 
  -2  -7   6   38.29    1.17 
  -2  -7   6   35.48    1.45 
  -2  -7   6   33.57    1.31 
  -2  -7   6   34.78    1.43 
   1   7  -6    1.09    0.56 
   1   7  -6    0.26    0.47 
   1   7  -6    0.57    0.28 
  -1  -7   6    0.18    0.47 
  -1  -7   6    0.58    0.43 
  -1  -7   6    0.49    0.40 
  -1  -7   6    0.39    0.33 
   0   7  -6   10.33    0.77 
   0   7  -6    7.73    0.75 
   0  -7   6   10.72    0.64 
   0  -7   6   10.64    0.95 
   0  -7   6   10.17    0.68 
   0  -7   6   10.89    0.86 
  -1   7  -6   18.73    0.98 
  -1   7  -6   20.08    1.14 
   1  -7   6   19.19    1.05 
   1  -7   6   20.53    0.94 
   1  -7   6   19.43    0.88 
   1  -7   6   17.87    0.93 
   1  -7   6   20.29    0.93 
   1  -7   6   19.27    0.90 
  -2   7  -6   55.79    1.82 
   2  -7   6   53.15    1.72 
   2  -7   6   53.34    1.69 
   2  -7   6   54.91    1.67 
   2  -7   6   55.44    1.76 
   2  -7   6   54.60    1.61 
   2  -7   6   53.29    1.70 
   2  -7   6   52.86    1.75 
  -3   7  -6    2.84    0.60 
   3  -7   6    2.30    0.53 
   3  -7   6    4.54    0.65 
   3  -7   6    2.75    0.58 
   3  -7   6    2.69    0.57 
   3  -7   6    3.78    0.68 
   3  -7   6    3.02    0.55 
   3  -7   6    3.18    0.71 
  -4   7  -6   11.41    0.88 
   4  -7   6   10.03    1.04 
   4  -7   6   11.38    0.92 
   4  -7   6   12.55    1.00 
   4  -7   6   10.76    0.91 
   4  -7   6   11.80    1.10 
   4  -7   6   12.43    1.25 
   4  -7   6   11.20    0.82 
  -5   7  -6    7.98    1.03 
  -5   7  -6    9.89    0.95 
   5  -7   6    8.08    1.07 
   5  -7   6   10.58    0.75 
   5  -7   6    9.37    1.08 
   5  -7   6    6.54    1.29 
  -6   7  -6   12.36    1.17 
  -6   7  -6   11.78    1.52 
   6  -7   6   14.84    1.18 
   6  -7   6   13.91    1.58 
   6  -7   6    9.72    1.47 
  -7   7  -6    0.62    0.75 
   7  -7   6    0.10    0.73 
   7  -7   6   -0.45    0.76 
   7  -7   6   -0.31    0.84 
  -8   7  -6    0.93    0.86 
   8  -7   6   -0.75    0.94 
   8  -7   6   -0.52    0.96 
   8  -7   6   -0.60    0.83 
  11   6  -6    1.30    1.19 
  11   6  -6    1.26    0.84 
 -11  -6   6    0.97    1.27 
 -11  -6   6    2.60    0.98 
  10   6  -6    0.95    0.70 
  10   6  -6   -0.47    0.92 
 -10  -6   6    0.51    0.95 
 -10  -6   6    1.37    0.78 
   9   6  -6   18.51    1.61 
   9   6  -6   14.62    1.25 
  -9  -6   6   16.89    1.79 
  -9  -6   6   17.73    1.40 
  -9  -6   6   15.69    1.64 
   8   6  -6   12.44    1.16 
   8   6  -6   10.71    1.17 
  -8  -6   6   13.81    1.52 
  -8  -6   6   10.04    1.06 
  -8  -6   6   10.94    1.11 
   7   6  -6    1.40    0.54 
   7   6  -6    0.02    0.90 
   7   6  -6    0.67    0.70 
  -7  -6   6    0.28    0.41 
  -7  -6   6    0.90    0.53 
   6   6  -6    7.68    0.94 
   6   6  -6    5.89    0.85 
   6   6  -6    6.93    0.98 
  -6  -6   6    7.60    0.65 
  -6  -6   6    8.30    0.81 
  -6  -6   6    9.36    1.08 
   5   6  -6    2.11    0.43 
   5   6  -6    0.57    0.53 
   5   6  -6    1.52    0.53 
  -5  -6   6    2.07    0.51 
  -5  -6   6    2.42    0.46 
  -5  -6   6    1.39    0.61 
   4   6  -6    2.84    0.50 
   4   6  -6    2.67    0.65 
   4   6  -6    2.09    0.55 
  -4  -6   6    2.10    0.47 
  -4  -6   6    2.77    0.70 
  -4  -6   6    3.30    0.49 
   3   6  -6   97.36    2.62 
  -3  -6   6   96.46    2.48 
  -3  -6   6   93.39    2.50 
  -3  -6   6   96.82    2.32 
   2   6  -6   34.56    1.41 
  -2  -6   6   31.38    1.25 
  -2  -6   6   30.62    1.23 
  -2  -6   6   31.62    1.22 
  -2  -6   6   32.18    1.10 
   1   6  -6    1.63    0.26 
  -1  -6   6    1.47    0.44 
  -1  -6   6    1.39    0.32 
  -1  -6   6    0.69    0.33 
  -1  -6   6    1.05    0.37 
   0   6  -6    5.32    0.78 
   0  -6   6    3.56    0.53 
   0  -6   6    3.41    0.50 
   0  -6   6    2.98    0.43 
   0  -6   6    3.83    0.48 
   0  -6   6    3.97    0.44 
  -1   6  -6   83.99    2.25 
   1  -6   6   85.26    2.14 
   1  -6   6   84.67    2.19 
   1  -6   6   84.51    2.30 
   1  -6   6   87.51    2.13 
   1  -6   6   86.20    2.28 
   1  -6   6   88.95    2.15 
   1  -6   6   84.43    2.19 
  -2   6  -6   43.00    1.46 
   2  -6   6   45.67    1.43 
   2  -6   6   43.16    1.45 
   2  -6   6   43.83    1.40 
   2  -6   6   44.25    1.47 
   2  -6   6   44.75    1.59 
   2  -6   6   43.94    1.43 
   2  -6   6   45.06    1.54 
  -3   6  -6   11.79    0.90 
   3  -6   6   13.15    0.76 
   3  -6   6   12.42    0.87 
   3  -6   6   13.52    0.89 
   3  -6   6   12.95    1.00 
   3  -6   6   12.92    0.90 
   3  -6   6   11.94    0.86 
   3  -6   6   13.37    0.93 
  -4   6  -6    1.83    0.46 
  -4   6  -6    1.36    0.56 
   4  -6   6    2.23    0.51 
   4  -6   6    1.59    0.51 
   4  -6   6    1.72    0.71 
   4  -6   6    1.43    0.41 
   4  -6   6    2.10    0.61 
   4  -6   6    1.51    0.65 
  -5   6  -6   34.77    1.22 
  -5   6  -6   32.52    1.60 
  -5   6  -6   34.32    1.42 
   5  -6   6   35.58    1.62 
   5  -6   6   33.66    1.64 
   5  -6   6   34.41    1.58 
  -6   6  -6   51.54    1.78 
   6  -6   6   52.01    2.03 
   6  -6   6   53.19    2.38 
   6  -6   6   51.84    2.24 
  -7   6  -6   11.94    1.44 
   7  -6   6    9.74    1.30 
   7  -6   6   10.18    1.06 
   7  -6   6    8.59    1.09 
  -8   6  -6    5.87    0.99 
   8  -6   6    5.24    1.05 
   8  -6   6    6.70    1.50 
   8  -6   6    4.61    0.84 
  -9   6  -6    0.90    1.21 
  -9   6  -6    1.66    1.11 
  11   5  -6    8.59    1.39 
  11   5  -6   11.65    1.39 
 -11  -5   6    8.47    1.21 
 -11  -5   6    7.49    1.12 
  10   5  -6    2.09    0.90 
  10   5  -6    1.41    0.85 
 -10  -5   6    2.38    0.86 
 -10  -5   6    0.14    0.85 
   9   5  -6    3.76    0.91 
   9   5  -6    5.21    0.91 
  -9  -5   6    2.33    0.75 
  -9  -5   6    4.49    0.74 
   8   5  -6   11.99    1.06 
   8   5  -6    9.86    1.63 
   8   5  -6   11.14    1.15 
  -8  -5   6    9.98    1.18 
  -8  -5   6   10.23    0.95 
   7   5  -6  107.07    2.85 
   7   5  -6  103.07    2.92 
   7   5  -6  105.82    2.90 
  -7  -5   6  102.69    3.00 
  -7  -5   6  102.88    2.74 
  -7  -5   6  107.99    2.70 
   6   5  -6  119.07    3.03 
   6   5  -6  121.52    2.94 
   6   5  -6  120.64    3.15 
  -6  -5   6  115.83    2.87 
  -6  -5   6  120.46    3.19 
  -6  -5   6  119.80    2.88 
   5   5  -6    3.26    0.51 
   5   5  -6    3.78    0.59 
   5   5  -6    3.56    0.60 
  -5  -5   6    3.58    0.56 
  -5  -5   6    2.74    0.58 
  -5  -5   6    3.99    0.62 
   4   5  -6   43.09    1.51 
   4   5  -6   44.71    1.59 
  -4  -5   6   44.65    1.46 
  -4  -5   6   47.49    1.67 
  -4  -5   6   45.23    1.38 
   3   5  -6   29.84    1.26 
   3   5  -6   29.92    1.21 
  -3  -5   6   31.28    1.21 
  -3  -5   6   28.84    1.21 
  -3  -5   6   31.04    1.09 
   2   5  -6  137.99    3.24 
  -2  -5   6  134.84    3.18 
  -2  -5   6  140.55    3.05 
  -2  -5   6  138.47    3.15 
   1   5  -6    6.08    0.60 
  -1  -5   6    7.47    0.70 
  -1  -5   6    7.26    0.59 
  -1  -5   6    7.74    0.63 
  -1  -5   6    7.36    0.42 
  -1  -5   6    5.49    0.49 
   0   5  -6    3.12    0.51 
   0  -5   6    2.70    0.46 
   0  -5   6    2.79    0.41 
   0  -5   6    1.86    0.38 
   0  -5   6    2.58    0.49 
   0  -5   6    2.96    0.44 
  -1   5  -6   39.36    1.34 
   1  -5   6   37.78    1.33 
   1  -5   6   40.68    1.30 
   1  -5   6   40.05    1.30 
   1  -5   6   39.51    1.26 
   1  -5   6   39.35    1.33 
   1  -5   6   39.82    1.41 
  -2   5  -6  128.29    2.90 
   2  -5   6  129.27    3.05 
   2  -5   6  124.02    3.00 
   2  -5   6  129.29    2.93 
   2  -5   6  126.88    3.04 
   2  -5   6  123.40    2.95 
   2  -5   6  127.62    3.09 
   2  -5   6  129.15    2.84 
  -3   5  -6   90.47    2.14 
   3  -5   6   84.26    2.37 
   3  -5   6   85.35    2.36 
   3  -5   6   87.12    2.48 
   3  -5   6   91.27    2.50 
   3  -5   6   88.91    2.35 
  -4   5  -6    1.69    0.39 
  -4   5  -6    1.34    0.50 
   4  -5   6    1.40    0.40 
   4  -5   6    1.15    0.50 
   4  -5   6    1.54    0.55 
   4  -5   6    1.71    0.56 
   4  -5   6    1.16    0.64 
  -5   5  -6   20.68    1.09 
  -5   5  -6   18.57    1.32 
   5  -5   6   18.16    1.26 
   5  -5   6   20.83    1.35 
   5  -5   6   19.41    1.40 
   5  -5   6   20.18    1.35 
  -6   5  -6   44.76    1.61 
   6  -5   6   47.40    2.07 
   6  -5   6   46.89    2.05 
  -7   5  -6   30.30    1.68 
   7  -5   6   35.93    1.89 
   7  -5   6   30.44    1.67 
   7  -5   6   32.88    1.90 
  -8   5  -6   15.48    1.84 
   8  -5   6   17.11    1.67 
   8  -5   6   19.93    1.77 
   8  -5   6   17.22    1.51 
  -9   5  -6    2.37    1.28 
   9  -5   6    4.75    1.58 
   9  -5   6    0.08    1.06 
  11   4  -6    3.93    1.20 
  11   4  -6    7.63    1.25 
 -11  -4   6    3.83    0.94 
 -11  -4   6    5.16    1.13 
  10   4  -6   36.52    1.93 
  10   4  -6   34.48    1.74 
 -10  -4   6   36.71    1.94 
 -10  -4   6   35.63    2.07 
   9   4  -6    1.19    0.60 
   9   4  -6    0.17    0.64 
  -9  -4   6    0.22    0.79 
  -9  -4   6   -1.20    0.59 
  -9  -4   6    0.66    0.53 
   8   4  -6    0.41    0.64 
   8   4  -6    0.95    0.60 
   8   4  -6    1.67    0.67 
  -8  -4   6    2.48    0.50 
  -8  -4   6    0.43    0.60 
  -8  -4   6    1.44    0.44 
  -8  -4   6    1.02    0.67 
   7   4  -6   96.82    2.74 
   7   4  -6   98.41    2.59 
   7   4  -6   95.22    2.67 
  -7  -4   6   99.74    2.07 
  -7  -4   6   92.20    2.78 
  -7  -4   6   95.32    2.42 
  -7  -4   6   96.62    2.67 
   6   4  -6   34.82    1.37 
   6   4  -6   37.38    1.49 
   6   4  -6   37.95    1.34 
  -6  -4   6   34.51    1.39 
  -6  -4   6   36.20    1.33 
  -6  -4   6   36.11    1.54 
   5   4  -6   32.90    1.29 
   5   4  -6   36.73    1.42 
  -5  -4   6   34.02    1.35 
  -5  -4   6   31.45    1.28 
  -5  -4   6   33.14    1.26 
   4   4  -6    0.53    0.41 
   4   4  -6    0.37    0.40 
  -4  -4   6    0.49    0.29 
  -4  -4   6    0.88    0.27 
  -4  -4   6    1.72    0.54 
   3   4  -6   11.84    0.78 
   3   4  -6   12.06    0.84 
  -3  -4   6   12.38    0.79 
  -3  -4   6   11.68    0.81 
  -3  -4   6   11.20    0.71 
   2   4  -6  609.66   11.45 
   2   4  -6  599.57   11.40 
   2   4  -6  605.06   10.90 
  -2  -4   6  597.08   11.36 
  -2  -4   6  616.72   11.32 
  -2  -4   6  582.31   11.40 
  -2  -4   6  592.15   10.87 
   1   4  -6  217.74    4.49 
   1   4  -6  213.69    4.51 
  -1  -4   6  217.32    4.19 
  -1  -4   6  219.27    4.46 
  -1  -4   6  216.51    4.51 
  -1  -4   6  212.39    4.52 
   0   4  -6    8.14    0.60 
   0   4  -6    8.59    0.62 
   0  -4   6    8.30    0.70 
   0  -4   6    8.74    0.67 
   0  -4   6    7.90    0.64 
   0  -4   6    8.31    0.55 
  -1   4  -6    0.80    0.35 
  -1   4  -6    0.40    0.28 
   1  -4   6    0.50    0.33 
   1  -4   6    0.92    0.34 
   1  -4   6    0.55    0.40 
   1  -4   6    0.31    0.31 
   1  -4   6    0.56    0.26 
  -2   4  -6  107.39    2.39 
   2  -4   6  101.60    2.61 
   2  -4   6  107.96    2.52 
   2  -4   6  106.36    2.62 
   2  -4   6  101.13    2.58 
   2  -4   6  100.76    2.56 
  -3   4  -6   12.44    0.76 
  -3   4  -6   11.59    0.67 
   3  -4   6   11.84    0.96 
   3  -4   6   11.50    0.84 
   3  -4   6   11.00    0.89 
   3  -4   6   10.69    0.76 
   3  -4   6   10.80    0.87 
  -4   4  -6   22.41    1.09 
  -4   4  -6   21.92    0.81 
   4  -4   6   23.42    1.10 
   4  -4   6   20.59    1.18 
   4  -4   6   21.34    1.15 
   4  -4   6   21.20    1.19 
   4  -4   6   21.47    1.16 
  -5   4  -6    1.50    0.56 
  -5   4  -6    1.53    0.68 
   5  -4   6    2.27    0.81 
   5  -4   6    0.62    0.49 
   5  -4   6    1.75    0.66 
   5  -4   6    1.48    0.62 
  -6   4  -6    1.42    0.63 
   6  -4   6    3.74    0.94 
   6  -4   6    2.44    0.82 
   6  -4   6    2.95    0.92 
  -7   4  -6    4.26    1.05 
   7  -4   6    4.57    1.01 
   7  -4   6    7.90    1.28 
   7  -4   6    3.75    1.07 
  -8   4  -6    9.82    1.27 
   8  -4   6    7.85    1.08 
   8  -4   6    7.53    1.01 
   8  -4   6    9.45    1.27 
  -9   4  -6    6.80    1.46 
  -9   4  -6    5.42    0.97 
   9  -4   6    6.20    1.49 
   9  -4   6    3.76    1.22 
  12   3  -6    1.11    0.91 
 -12  -3   6    0.84    0.87 
 -12  -3   6    0.42    1.08 
  11   3  -6   34.90    1.98 
  11   3  -6   38.34    2.16 
 -11  -3   6   35.91    2.13 
 -11  -3   6   37.35    2.14 
  10   3  -6   46.16    1.97 
  10   3  -6   44.99    2.28 
 -10  -3   6   47.95    2.16 
 -10  -3   6   46.97    2.18 
   9   3  -6   12.95    1.08 
   9   3  -6   12.13    1.37 
   9   3  -6   14.16    1.28 
  -9  -3   6   17.54    1.32 
  -9  -3   6   14.25    0.97 
  -9  -3   6   14.65    0.98 
  -9  -3   6   12.97    1.39 
  -9  -3   6   14.25    1.35 
   8   3  -6   -0.12    0.47 
   8   3  -6   -0.35    0.58 
   8   3  -6   -0.40    0.62 
  -8  -3   6   -0.24    0.37 
  -8  -3   6    0.69    0.45 
  -8  -3   6    0.05    0.57 
  -8  -3   6   -0.84    0.47 
   7   3  -6    5.44    0.89 
   7   3  -6    5.14    0.79 
   7   3  -6    6.52    0.81 
  -7  -3   6    7.28    1.00 
  -7  -3   6    7.50    0.60 
  -7  -3   6    5.90    0.86 
  -7  -3   6    5.92    0.58 
   6   3  -6   79.70    2.29 
   6   3  -6   81.29    2.11 
   6   3  -6   82.43    2.36 
  -6  -3   6   85.34    1.78 
  -6  -3   6   80.57    2.31 
  -6  -3   6   80.29    2.25 
  -6  -3   6   81.09    2.03 
   5   3  -6   60.89    1.86 
   5   3  -6   59.43    1.81 
  -5  -3   6   58.86    1.28 
  -5  -3   6   59.86    1.72 
  -5  -3   6   61.31    1.81 
  -5  -3   6   60.04    1.59 
   4   3  -6   71.39    1.97 
   4   3  -6   66.46    1.90 
  -4  -3   6   68.03    1.89 
  -4  -3   6   68.62    1.86 
  -4  -3   6   68.01    1.80 
   3   3  -6    1.33    0.42 
   3   3  -6    0.31    0.27 
  -3  -3   6    0.97    0.39 
  -3  -3   6    0.03    0.30 
  -3  -3   6    0.19    0.27 
   2   3  -6  439.33    8.44 
   2   3  -6  437.70    8.47 
  -2  -3   6  441.45    8.40 
  -2  -3   6  445.63    8.41 
  -2  -3   6  440.66    8.44 
  -2  -3   6  418.98    8.03 
   1   3  -6    5.89    0.48 
   1   3  -6    7.31    0.60 
  -1  -3   6    6.06    0.55 
  -1  -3   6    5.34    0.48 
  -1  -3   6    7.42    0.45 
  -1  -3   6    8.06    0.57 
   0   3  -6   12.00    0.67 
   0  -3   6   13.05    0.68 
   0  -3   6   12.72    0.72 
   0  -3   6   11.92    0.73 
   0  -3   6   13.03    0.73 
  -1   3  -6   75.78    1.80 
   1  -3   6   75.07    1.94 
   1  -3   6   74.45    1.93 
   1  -3   6   72.05    1.89 
   1  -3   6   71.55    1.98 
  -2   3  -6   35.09    1.20 
   2  -3   6   35.65    1.34 
   2  -3   6   36.53    1.31 
   2  -3   6   33.88    1.22 
   2  -3   6   35.17    1.29 
  -3   3  -6   43.40    1.43 
  -3   3  -6   43.97    1.14 
   3  -3   6   41.32    1.43 
   3  -3   6   43.45    1.56 
   3  -3   6   44.15    1.52 
   3  -3   6   42.45    1.57 
   3  -3   6   44.48    1.58 
  -4   3  -6   76.06    2.31 
  -4   3  -6   76.39    2.08 
   4  -3   6   75.66    2.27 
   4  -3   6   73.20    2.34 
   4  -3   6   74.99    2.20 
   4  -3   6   76.52    2.35 
  -5   3  -6   22.99    1.15 
  -5   3  -6   22.93    1.32 
   5  -3   6   22.68    1.23 
   5  -3   6   18.67    1.10 
   5  -3   6   22.11    1.41 
   5  -3   6   22.45    1.51 
  -6   3  -6    6.87    0.95 
  -6   3  -6    5.91    1.49 
   6  -3   6   10.57    1.27 
   6  -3   6    7.22    1.31 
   6  -3   6    9.99    1.41 
   7  -3   6    2.64    0.99 
   7  -3   6    0.20    0.91 
   7  -3   6    1.00    0.87 
  -8   3  -6   -0.16    0.82 
   8  -3   6    0.72    0.59 
   8  -3   6    2.50    1.13 
   8  -3   6   -1.46    0.75 
  -9   3  -6   16.58    2.21 
  -9   3  -6   18.29    2.03 
   9  -3   6   15.96    1.89 
   9  -3   6   16.65    2.19 
  12   2  -6    0.38    1.22 
 -12  -2   6    1.71    1.00 
 -12  -2   6    3.09    1.21 
  11   2  -6    4.99    0.94 
  11   2  -6    7.31    1.23 
 -11  -2   6    5.77    1.32 
 -11  -2   6    4.47    1.16 
 -11  -2   6    5.31    1.11 
  10   2  -6   22.13    1.48 
  10   2  -6   20.10    2.02 
 -10  -2   6   23.83    1.37 
 -10  -2   6   24.57    1.80 
 -10  -2   6   23.70    1.70 
 -10  -2   6   26.05    1.28 
   9   2  -6   82.41    2.55 
   9   2  -6   76.63    2.51 
   9   2  -6   78.73    2.46 
  -9  -2   6   81.74    2.23 
  -9  -2   6   81.96    2.23 
  -9  -2   6   76.24    2.55 
  -9  -2   6   78.86    2.53 
   8   2  -6    8.92    1.08 
   8   2  -6    8.74    1.01 
   8   2  -6    8.16    0.92 
  -8  -2   6    8.98    0.83 
  -8  -2   6    8.54    1.15 
  -8  -2   6    8.20    0.95 
  -8  -2   6    9.69    0.87 
  -8  -2   6    9.62    0.80 
   7   2  -6    1.97    0.57 
   7   2  -6    1.80    0.60 
   7   2  -6    2.13    0.56 
  -7  -2   6    1.86    0.57 
  -7  -2   6    1.58    0.64 
  -7  -2   6    1.39    0.41 
  -7  -2   6    1.73    0.55 
   6   2  -6   10.99    0.93 
   6   2  -6   13.05    0.97 
   6   2  -6   12.29    0.92 
  -6  -2   6   12.27    0.96 
  -6  -2   6   12.41    0.62 
  -6  -2   6   11.65    0.76 
  -6  -2   6   10.89    0.81 
   5   2  -6   80.06    2.20 
   5   2  -6   79.33    2.15 
  -5  -2   6   84.17    1.78 
  -5  -2   6   83.81    2.15 
  -5  -2   6   85.49    2.00 
  -5  -2   6   79.35    2.15 
   4   2  -6    7.60    0.65 
   4   2  -6    7.99    0.64 
  -4  -2   6    9.66    0.73 
  -4  -2   6    8.77    0.63 
  -4  -2   6    8.49    0.39 
  -4  -2   6    8.89    0.65 
   3   2  -6    9.21    0.73 
   3   2  -6    9.18    0.64 
  -3  -2   6    8.56    0.56 
  -3  -2   6    8.49    0.58 
  -3  -2   6    9.04    0.55 
  -3  -2   6    9.53    0.41 
   2   2  -6    1.99    0.36 
   2   2  -6    2.36    0.43 
  -2  -2   6    2.64    0.33 
  -2  -2   6    2.34    0.39 
  -2  -2   6    2.19    0.41 
  -2  -2   6    1.95    0.35 
   1   2  -6  184.16    3.83 
  -1  -2   6  184.28    3.83 
  -1  -2   6  182.56    3.84 
  -1  -2   6  178.90    3.82 
  -1  -2   6  185.50    3.70 
   0   2  -6   57.30    1.62 
   0   2  -6   56.60    1.50 
   0  -2   6   55.07    1.54 
   0  -2   6   56.57    1.52 
   0  -2   6   58.31    1.62 
   0  -2   6   56.12    1.62 
  -1   2  -6   35.62    1.33 
  -1   2  -6   38.38    1.25 
   1  -2   6   39.78    1.37 
   1  -2   6   38.88    1.31 
   1  -2   6   39.46    1.29 
   1  -2   6   39.91    1.28 
  -2   2  -6    0.95    0.26 
  -2   2  -6    0.60    0.34 
   2  -2   6    0.99    0.37 
   2  -2   6    0.34    0.32 
   2  -2   6    1.00    0.35 
   2  -2   6    1.22    0.45 
   2  -2   6    0.65    0.52 
  -3   2  -6    2.90    0.53 
  -3   2  -6    2.58    0.34 
   3  -2   6    3.63    0.65 
   3  -2   6    2.96    0.57 
   3  -2   6    2.83    0.51 
   3  -2   6    2.36    0.46 
  -4   2  -6   40.57    1.62 
  -4   2  -6   40.54    1.45 
   4  -2   6   42.36    1.76 
   4  -2   6   41.95    1.64 
   4  -2   6   42.25    1.63 
   4  -2   6   42.21    1.65 
  -5   2  -6   16.76    0.99 
  -5   2  -6   15.33    1.26 
   5  -2   6   12.78    0.96 
   5  -2   6   15.80    1.22 
   5  -2   6   14.68    1.10 
   5  -2   6   13.21    1.32 
  -6   2  -6   30.58    1.78 
  -6   2  -6   31.38    1.34 
   6  -2   6   28.99    1.60 
   6  -2   6   28.77    1.56 
  -7   2  -6    1.06    0.70 
  -7   2  -6    2.32    0.95 
   7  -2   6    0.03    0.72 
   7  -2   6    1.18    0.89 
  -8   2  -6   -0.54    0.90 
   8  -2   6   -0.68    0.91 
   8  -2   6   -0.78    0.54 
  -9   2  -6   22.54    1.92 
  -9   2  -6   24.58    1.86 
   9  -2   6   24.73    2.31 
   9  -2   6   25.90    2.40 
  12   1  -6   -0.07    1.23 
 -12  -1   6   -0.16    0.95 
 -12  -1   6   -0.06    0.92 
 -12  -1   6    0.12    0.82 
  11   1  -6    0.90    0.66 
  11   1  -6    1.07    0.74 
 -11  -1   6    1.70    0.84 
 -11  -1   6    0.30    0.95 
 -11  -1   6   -0.12    0.78 
 -11  -1   6    1.42    0.81 
  10   1  -6   12.74    1.67 
  10   1  -6   13.45    1.27 
 -10  -1   6   14.08    1.32 
 -10  -1   6   16.05    1.27 
 -10  -1   6   13.84    1.51 
 -10  -1   6   16.14    1.29 
   9   1  -6   36.87    1.74 
   9   1  -6   36.29    1.75 
   9   1  -6   38.84    1.69 
  -9  -1   6   37.82    1.68 
  -9  -1   6   35.55    1.77 
  -9  -1   6   39.88    1.51 
  -9  -1   6   37.21    1.47 
   8   1  -6    1.45    0.61 
   8   1  -6    2.05    0.50 
   8   1  -6    0.53    0.54 
  -8  -1   6    0.77    0.66 
  -8  -1   6    1.08    0.51 
  -8  -1   6    1.73    0.56 
  -8  -1   6    0.69    0.53 
   7   1  -6   31.33    1.43 
   7   1  -6   30.75    1.31 
   7   1  -6   33.04    1.21 
  -7  -1   6   30.71    1.42 
  -7  -1   6   32.37    1.21 
  -7  -1   6   31.11    1.16 
  -7  -1   6   31.09    1.30 
   6   1  -6    2.15    0.54 
   6   1  -6    2.14    0.50 
   6   1  -6    2.30    0.58 
  -6  -1   6    2.43    0.52 
  -6  -1   6    2.89    0.51 
  -6  -1   6    2.73    0.45 
  -6  -1   6    2.73    0.63 
   5   1  -6   27.55    1.11 
   5   1  -6   30.59    1.26 
  -5  -1   6   28.12    1.08 
  -5  -1   6   29.36    0.94 
  -5  -1   6   28.25    1.07 
   4   1  -6   29.02    1.13 
   4   1  -6   28.42    1.13 
  -4  -1   6   31.07    1.14 
  -4  -1   6   28.62    1.05 
  -4  -1   6   30.08    0.90 
  -4  -1   6   31.71    1.22 
  -3  -1   6    8.67    0.70 
  -3  -1   6   10.54    0.68 
  -3  -1   6   10.08    0.63 
  -3  -1   6    9.76    0.50 
   2   1  -6    6.85    0.68 
   2   1  -6    5.17    0.58 
   2   1  -6    6.74    0.62 
  -2  -1   6    7.44    0.65 
  -2  -1   6    6.61    0.47 
  -2  -1   6    7.60    0.77 
   1   1  -6  184.87    3.84 
   1   1  -6  178.72    3.76 
  -1  -1   6  179.01    3.72 
  -1  -1   6  183.18    3.80 
  -1  -1   6  181.49    3.81 
   0   1  -6   46.52    1.29 
   0   1  -6   46.00    1.36 
   0  -1   6   46.06    1.33 
   0  -1   6   46.04    1.35 
   0  -1   6   46.83    1.35 
   0  -1   6   44.62    1.34 
  -1   1  -6  178.28    3.58 
  -1   1  -6  180.90    3.82 
   1  -1   6  180.56    3.90 
   1  -1   6  171.74    3.81 
   1  -1   6  178.13    3.90 
   1  -1   6  176.47    3.78 
  -2   1  -6   73.20    1.57 
  -2   1  -6   69.15    1.88 
   2  -1   6   67.75    1.87 
   2  -1   6   69.36    2.06 
   2  -1   6   71.70    1.91 
   2  -1   6   68.49    1.94 
   2  -1   6   69.67    1.99 
  -3   1  -6   13.92    0.92 
  -3   1  -6   12.68    0.89 
   3  -1   6   12.96    0.87 
   3  -1   6   11.86    0.97 
   3  -1   6   11.91    0.85 
   3  -1   6   12.25    0.84 
  -4   1  -6    0.41    0.40 
  -4   1  -6   -0.06    0.46 
   4  -1   6    0.08    0.59 
   4  -1   6   -0.09    0.48 
   4  -1   6   -0.39    0.43 
   4  -1   6   -0.27    0.38 
  -5   1  -6   23.42    1.26 
  -5   1  -6   23.93    1.38 
   5  -1   6   23.72    1.43 
   5  -1   6   20.53    1.46 
   5  -1   6   24.60    1.33 
   5  -1   6   24.26    1.45 
  -6   1  -6   73.06    2.51 
  -6   1  -6   80.52    2.22 
   6  -1   6   78.14    2.68 
   6  -1   6   79.08    2.73 
   6  -1   6   78.03    2.48 
  -7   1  -6    6.95    1.07 
  -7   1  -6    6.70    1.06 
   7  -1   6    8.58    1.34 
   7  -1   6    5.94    0.94 
   7  -1   6    6.44    1.16 
  -8   1  -6    0.97    1.02 
   8  -1   6   -0.45    0.80 
   8  -1   6    0.53    0.91 
   8  -1   6   -0.32    0.69 
  -9   1  -6   10.77    1.35 
  -9   1  -6   15.10    2.03 
   9  -1   6    9.60    1.55 
   9  -1   6   12.97    2.11 
  12   0  -6    1.33    1.04 
 -12   0   6    0.63    0.82 
 -12   0   6    0.19    0.98 
 -12   0   6    0.67    0.92 
  11   0  -6   14.59    1.57 
  11   0  -6   11.91    1.20 
 -11   0   6   13.85    1.49 
 -11   0   6   13.84    1.47 
 -11   0   6   14.81    1.54 
  10   0  -6   -0.68    0.94 
  10   0  -6    0.33    0.84 
  10   0  -6    0.04    0.57 
 -10   0   6    0.47    0.68 
 -10   0   6   -0.01    0.77 
 -10   0   6    0.49    0.69 
 -10   0   6   -0.24    0.57 
   9   0  -6    5.31    0.82 
   9   0  -6    5.53    0.88 
   9   0  -6    5.36    0.96 
  -9   0   6    6.97    1.08 
  -9   0   6    8.09    0.88 
  -9   0   6    7.05    0.90 
  -9   0   6    6.07    1.00 
   8   0  -6    1.29    0.58 
   8   0  -6    1.70    0.53 
   8   0  -6    0.64    0.71 
  -8   0   6    1.51    0.63 
  -8   0   6    0.30    0.55 
  -8   0   6    1.22    0.44 
  -8   0   6    1.01    0.58 
   7   0  -6   34.28    1.31 
   7   0  -6   33.96    1.46 
   7   0  -6   33.29    1.35 
  -7   0   6   34.88    1.26 
  -7   0   6   33.54    1.28 
  -7   0   6   35.78    1.31 
  -7   0   6   32.96    1.43 
   6   0  -6    0.38    0.41 
   6   0  -6    0.54    0.46 
   6   0  -6    0.08    0.41 
  -6   0   6   -0.25    0.34 
  -6   0   6   -0.06    0.39 
  -6   0   6    0.42    0.44 
  -6   0   6    0.42    0.42 
   5   0  -6   14.95    0.87 
   5   0  -6   14.67    0.86 
  -5   0   6   16.83    0.86 
  -5   0   6   15.93    0.82 
  -5   0   6   14.94    0.82 
  -5   0   6   16.55    0.81 
   4   0  -6   51.89    1.62 
   4   0  -6   51.67    1.57 
  -4   0   6   52.89    1.56 
  -4   0   6   52.91    1.41 
   3   0  -6   97.13    2.36 
   3   0  -6   97.01    2.40 
   3   0  -6   98.97    2.32 
  -3   0   6  102.16    2.36 
  -3   0   6   96.74    2.21 
   2   0  -6  112.80    2.63 
   2   0  -6  115.18    2.59 
   2   0  -6  113.71    2.60 
  -2   0   6  112.31    2.51 
  -2   0   6  114.97    2.58 
   1   0  -6   -0.14    0.29 
   1   0  -6   -0.04    0.28 
  -1   0   6    0.30    0.31 
  -1   0   6   -0.53    0.27 
  -1   0   6   -0.58    0.37 
  -1   0   6   -0.31    0.29 
   0   0  -6   42.37    1.33 
   0   0  -6   39.34    1.35 
   0   0   6   41.12    1.32 
   0   0   6   42.62    1.33 
   0   0   6   40.40    1.23 
   0   0   6   42.22    1.38 
  -1   0  -6  119.11    2.77 
  -1   0  -6  119.94    2.50 
   1   0   6  114.91    2.76 
   1   0   6  120.32    2.83 
   1   0   6  119.11    2.87 
   1   0   6  111.73    2.65 
  -2   0  -6  167.71    3.82 
  -2   0  -6  169.85    3.28 
  -2   0  -6  163.72    3.68 
   2   0   6  165.85    3.69 
   2   0   6  170.37    3.92 
   2   0   6  169.89    3.72 
   2   0   6  170.87    3.90 
  -3   0  -6    1.35    0.37 
  -3   0  -6    1.75    0.50 
   3   0   6    1.05    0.46 
   3   0   6    1.59    0.48 
   3   0   6    0.45    0.40 
  -4   0  -6    2.89    0.59 
  -4   0  -6    3.26    0.68 
   4   0   6    2.10    0.48 
   4   0   6    2.73    0.66 
   4   0   6    3.28    0.57 
   4   0   6    1.92    0.60 
  -5   0  -6   85.32    2.65 
  -5   0  -6   89.11    2.43 
   5   0   6   86.57    2.69 
   5   0   6   87.80    2.77 
   5   0   6   87.89    2.57 
  -6   0  -6   17.32    1.14 
  -6   0  -6   14.64    1.28 
   6   0   6   14.62    1.29 
   6   0   6   14.09    2.05 
   6   0   6   12.81    1.15 
  -7   0  -6   10.29    1.24 
   7   0   6   11.75    1.36 
   7   0   6   11.58    1.48 
   7   0   6   13.15    1.47 
  -8   0  -6   -1.43    0.83 
   8   0   6    0.39    0.89 
   8   0   6    0.13    0.91 
  12  -1  -6   21.86    1.90 
  12  -1  -6   24.84    1.35 
 -12   1   6   24.19    1.77 
 -12   1   6   21.19    1.65 
 -12   1   6   24.22    2.10 
  11  -1  -6   25.43    1.79 
  11  -1  -6   25.30    1.45 
 -11   1   6   27.38    1.67 
 -11   1   6   27.36    1.51 
 -11   1   6   27.13    1.87 
  10  -1  -6    4.46    0.98 
  10  -1  -6    7.45    0.84 
 -10   1   6    5.19    0.97 
 -10   1   6    5.11    1.09 
 -10   1   6    6.74    1.09 
   9  -1  -6   43.06    1.67 
   9  -1  -6   37.38    1.64 
   9  -1  -6   38.89    1.67 
  -9   1   6   40.94    1.62 
  -9   1   6   41.41    1.65 
  -9   1   6   40.06    1.64 
  -9   1   6   40.32    1.93 
   8  -1  -6    6.27    0.98 
   8  -1  -6    6.49    0.93 
   8  -1  -6    5.74    0.85 
  -8   1   6    4.92    0.83 
  -8   1   6    5.99    0.97 
  -8   1   6    5.73    0.88 
  -8   1   6    6.54    0.74 
   7  -1  -6  100.84    2.70 
   7  -1  -6  105.48    2.83 
   7  -1  -6  104.68    2.66 
  -7   1   6  105.81    2.73 
  -7   1   6  103.40    2.79 
  -7   1   6  102.43    2.46 
  -7   1   6  105.92    2.64 
   6  -1  -6   22.60    1.03 
   6  -1  -6   21.44    1.09 
   6  -1  -6   20.75    1.07 
  -6   1   6   23.22    1.12 
  -6   1   6   22.28    1.01 
  -6   1   6   24.78    1.19 
  -6   1   6   22.92    1.05 
   5  -1  -6    6.39    0.75 
   5  -1  -6    5.47    0.66 
  -5   1   6    6.63    0.70 
  -5   1   6    6.48    0.70 
  -5   1   6    5.81    0.66 
   4  -1  -6   50.91    1.60 
   4  -1  -6   49.86    1.54 
  -4   1   6   52.10    1.59 
  -4   1   6   52.27    1.48 
  -4   1   6   51.92    1.51 
   3  -1  -6  407.63    7.98 
   3  -1  -6  409.75    7.81 
   3  -1  -6  406.39    7.93 
  -3   1   6  411.43    7.86 
  -3   1   6  405.43    7.92 
  -3   1   6  400.49    7.83 
   2  -1  -6  620.36   11.45 
   2  -1  -6  598.93   11.36 
   2  -1  -6  606.73   11.39 
  -2   1   6  603.98   11.46 
  -2   1   6  605.39   11.34 
  -2   1   6  590.56   11.37 
   1  -1  -6  109.24    2.52 
   1  -1  -6  107.20    2.45 
  -1   1   6  106.13    2.59 
  -1   1   6  103.81    2.41 
  -1   1   6  106.05    2.53 
   0  -1  -6   29.10    1.09 
   0  -1  -6   28.26    0.97 
   0   1   6   27.32    1.15 
   0   1   6   28.32    1.12 
   0   1   6   28.37    1.02 
   0   1   6   28.83    1.08 
  -1  -1  -6   47.70    1.24 
  -1  -1  -6   45.87    1.50 
   1   1   6   45.26    1.54 
   1   1   6   47.29    1.45 
   1   1   6   45.08    1.37 
   1   1   6   48.34    1.60 
  -2  -1  -6  255.65    5.31 
  -2  -1  -6  252.57    5.37 
  -2  -1  -6  250.40    4.82 
   2   1   6  261.12    5.52 
   2   1   6  247.59    5.21 
   2   1   6  251.14    5.32 
   2   1   6  263.53    5.54 
  -3  -1  -6   28.28    1.32 
  -3  -1  -6   28.39    1.21 
   3   1   6   25.87    1.26 
   3   1   6   27.97    1.29 
   3   1   6   26.06    1.28 
   3   1   6   27.74    1.16 
  -4  -1  -6    1.00    0.60 
  -4  -1  -6   -0.34    0.53 
   4   1   6    0.30    0.54 
   4   1   6    0.91    0.62 
   4   1   6    0.19    0.54 
   4   1   6    0.23    0.57 
  -5  -1  -6    3.90    0.88 
  -5  -1  -6    3.06    0.66 
   5   1   6    4.11    0.65 
   5   1   6    3.27    0.83 
   5   1   6    3.12    0.79 
  -6  -1  -6   30.92    1.39 
  -6  -1  -6   31.84    1.94 
   6   1   6   29.06    1.72 
   6   1   6   30.12    1.76 
   6   1   6   30.12    1.85 
  -7  -1  -6    9.94    1.28 
  -7  -1  -6   12.73    1.69 
   7   1   6    7.96    1.38 
   7   1   6    9.66    1.50 
   7   1   6    9.83    1.14 
  -8  -1  -6    1.67    1.01 
  -8  -1  -6    3.93    1.32 
   8   1   6    1.60    1.02 
   8   1   6    2.46    1.26 
  12  -2  -6   17.88    1.33 
  12  -2  -6   18.23    1.69 
 -12   2   6   16.20    1.83 
 -12   2   6   18.13    1.73 
 -12   2   6   17.67    1.52 
  11  -2  -6   15.13    2.06 
  11  -2  -6   10.64    1.28 
 -11   2   6   10.97    1.35 
 -11   2   6   12.30    1.74 
 -11   2   6   13.12    1.45 
  10  -2  -6   22.83    1.46 
  10  -2  -6   23.06    1.29 
 -10   2   6   23.28    1.44 
 -10   2   6   22.50    1.78 
 -10   2   6   24.22    1.42 
 -10   2   6   23.70    1.52 
   9  -2  -6    1.03    0.58 
   9  -2  -6    0.06    0.65 
   9  -2  -6   -0.20    0.59 
  -9   2   6    0.44    0.78 
  -9   2   6    0.00    0.65 
  -9   2   6    0.79    0.48 
  -9   2   6    0.96    0.67 
   8  -2  -6    2.47    0.63 
   8  -2  -6    2.54    0.61 
   8  -2  -6    2.61    0.69 
  -8   2   6    1.21    0.61 
  -8   2   6    3.08    0.56 
  -8   2   6    2.63    0.69 
  -8   2   6    2.60    0.56 
   7  -2  -6  106.96    2.71 
   7  -2  -6  100.97    2.76 
   7  -2  -6  102.30    2.80 
  -7   2   6  107.93    2.45 
  -7   2   6  104.50    2.80 
  -7   2   6  105.37    2.71 
  -7   2   6  102.04    2.77 
   6  -2  -6  322.60    6.60 
   6  -2  -6  325.77    6.42 
   6  -2  -6  325.48    6.65 
  -6   2   6  305.33    6.55 
  -6   2   6  319.20    6.51 
  -6   2   6  313.84    6.53 
   5  -2  -6   35.71    1.37 
   5  -2  -6   33.08    1.26 
  -5   2   6   35.59    1.32 
  -5   2   6   35.20    1.33 
  -5   2   6   34.36    1.31 
   4  -2  -6    0.06    0.36 
   4  -2  -6   -0.02    0.29 
  -4   2   6    0.16    0.31 
  -4   2   6    0.20    0.40 
  -4   2   6   -0.07    0.39 
   3  -2  -6  173.81    3.81 
   3  -2  -6  175.10    3.67 
   3  -2  -6  173.02    3.76 
  -3   2   6  176.70    3.69 
  -3   2   6  170.37    3.80 
  -3   2   6  171.40    3.76 
   2  -2  -6   60.45    1.66 
   2  -2  -6   60.36    1.70 
   2  -2  -6   58.97    1.62 
  -2   2   6   60.78    1.60 
  -2   2   6   58.71    1.70 
  -2   2   6   59.67    1.77 
   1  -2  -6   18.40    0.88 
   1  -2  -6   18.42    0.89 
   1  -2  -6   19.78    0.86 
  -1   2   6   17.82    0.93 
  -1   2   6   18.84    0.82 
  -1   2   6   18.20    0.89 
   0  -2  -6   11.72    0.76 
   0  -2  -6   12.54    0.74 
   0  -2  -6   12.58    0.68 
   0   2   6   11.78    0.69 
   0   2   6   12.98    0.89 
   0   2   6    9.93    0.65 
  -1  -2  -6   20.78    0.81 
  -1  -2  -6   20.63    0.94 
  -1  -2  -6   20.41    1.01 
   1   2   6   18.94    0.98 
   1   2   6   21.74    0.93 
   1   2   6   20.23    0.97 
   1   2   6   20.26    1.02 
  -2  -2  -6  179.06    4.06 
  -2  -2  -6  176.98    3.54 
  -2  -2  -6  180.39    4.00 
   2   2   6  175.45    4.01 
   2   2   6  183.89    4.23 
   2   2   6  182.05    4.21 
   2   2   6  179.52    3.86 
  -3  -2  -6   17.38    1.10 
  -3  -2  -6   17.00    0.52 
  -3  -2  -6   16.33    1.13 
   3   2   6   15.68    1.16 
   3   2   6   17.10    1.15 
   3   2   6   19.38    1.30 
   3   2   6   17.06    0.96 
  -4  -2  -6   40.73    1.81 
  -4  -2  -6   39.70    1.55 
   4   2   6   37.79    1.70 
   4   2   6   36.11    1.67 
   4   2   6   40.70    1.95 
   4   2   6   39.61    1.45 
  -5  -2  -6    6.79    0.99 
  -5  -2  -6    6.10    1.17 
   5   2   6    6.63    0.95 
   5   2   6    7.29    1.18 
  -6  -2  -6   14.62    1.20 
  -6  -2  -6   15.21    1.73 
   6   2   6   13.55    1.35 
   6   2   6   14.14    1.59 
   6   2   6   14.69    1.18 
  -7  -2  -6   12.70    1.78 
  -7  -2  -6   11.64    1.66 
   7   2   6   15.37    1.43 
   7   2   6   15.45    1.65 
  -8  -2  -6   12.99    1.33 
  -8  -2  -6   10.95    1.81 
   8   2   6   12.49    1.61 
   8   2   6   11.63    1.29 
  12  -3  -6    0.25    0.64 
  12  -3  -6   -0.12    0.77 
 -12   3   6    0.95    1.14 
 -12   3   6   -0.20    0.94 
  11  -3  -6   16.14    1.26 
  11  -3  -6   16.37    1.59 
 -11   3   6   13.46    1.30 
 -11   3   6   18.78    1.88 
  10  -3  -6   24.51    1.44 
 -10   3   6   27.06    1.89 
 -10   3   6   26.94    1.34 
   9  -3  -6   17.91    1.24 
   9  -3  -6   14.38    1.33 
   9  -3  -6   17.71    1.40 
  -9   3   6   17.89    1.40 
  -9   3   6   17.36    1.48 
  -9   3   6   15.08    1.21 
  -9   3   6   17.65    1.04 
   8  -3  -6    0.43    0.49 
   8  -3  -6   -0.09    0.48 
   8  -3  -6    0.39    0.48 
  -8   3   6    0.43    0.49 
  -8   3   6   -0.31    0.56 
  -8   3   6    0.68    0.47 
  -8   3   6    0.59    0.60 
   7  -3  -6   82.66    2.44 
   7  -3  -6   90.34    2.43 
   7  -3  -6   89.04    2.58 
  -7   3   6   85.80    2.56 
  -7   3   6   84.59    2.44 
  -7   3   6   86.69    2.49 
   6  -3  -6  154.46    3.78 
   6  -3  -6  162.90    3.63 
   6  -3  -6  154.22    3.75 
  -6   3   6  160.02    3.80 
  -6   3   6  163.16    3.75 
  -6   3   6  158.18    3.65 
   5  -3  -6  100.24    2.67 
   5  -3  -6  107.04    2.74 
   5  -3  -6  103.28    2.46 
  -5   3   6  103.25    2.54 
  -5   3   6  100.68    2.66 
  -5   3   6  103.51    2.63 
   4  -3  -6   46.99    1.37 
   4  -3  -6   48.25    1.61 
   4  -3  -6   47.49    1.62 
   4  -3  -6   47.71    1.62 
  -4   3   6   47.75    1.55 
  -4   3   6   46.54    1.61 
  -4   3   6   46.99    1.45 
   3  -3  -6    5.88    0.54 
   3  -3  -6    3.48    0.60 
   3  -3  -6    4.21    0.62 
  -3   3   6    4.58    0.66 
  -3   3   6    4.71    0.47 
  -3   3   6    4.29    0.61 
   2  -3  -6   34.29    1.16 
   2  -3  -6   33.14    1.22 
   2  -3  -6   33.27    1.17 
  -2   3   6   31.97    1.23 
  -2   3   6   33.87    1.13 
  -2   3   6   33.35    1.28 
   1  -3  -6   44.10    1.43 
   1  -3  -6   45.62    1.41 
   1  -3  -6   46.53    1.38 
  -1   3   6   45.91    1.57 
  -1   3   6   45.56    1.33 
  -1   3   6   45.89    1.56 
  -1   3   6   47.51    1.48 
   0  -3  -6   40.52    1.29 
   0  -3  -6   40.98    1.25 
   0  -3  -6   41.05    1.44 
   0  -3  -6   40.27    1.29 
   0   3   6   42.19    1.53 
   0   3   6   40.38    1.24 
   0   3   6   42.75    1.35 
  -1  -3  -6   -0.11    0.29 
  -1  -3  -6    0.68    0.46 
  -1  -3  -6    0.36    0.38 
   1   3   6    0.41    0.29 
   1   3   6   -0.06    0.43 
   1   3   6   -0.70    0.37 
   1   3   6    0.02    0.35 
  -2  -3  -6   44.50    1.44 
  -2  -3  -6   44.92    1.55 
  -2  -3  -6   44.72    1.59 
   2   3   6   45.61    1.62 
   2   3   6   45.31    1.70 
   2   3   6   46.79    1.74 
   2   3   6   46.59    1.44 
  -3  -3  -6    2.25    0.30 
  -3  -3  -6    2.12    0.67 
  -3  -3  -6    2.59    0.59 
   3   3   6    1.82    0.61 
   3   3   6    3.67    0.84 
   3   3   6    2.78    0.52 
  -4  -3  -6   31.74    1.38 
  -4  -3  -6   29.36    1.69 
   4   3   6   28.16    1.56 
   4   3   6   32.50    1.80 
   4   3   6   29.88    1.37 
  -5  -3  -6   33.14    1.59 
  -5  -3  -6   33.08    1.97 
   5   3   6   33.53    1.70 
   5   3   6   34.83    1.55 
   5   3   6   26.75    2.44 
  -6  -3  -6    0.88    0.85 
  -6  -3  -6   -0.12    0.77 
   6   3   6    0.10    0.67 
   6   3   6    0.14    0.83 
   6   3   6    0.69    0.92 
  -7  -3  -6   -0.74    0.71 
  -7  -3  -6    0.08    0.88 
   7   3   6    0.26    0.83 
   7   3   6   -0.51    0.72 
  -8  -3  -6    6.99    1.25 
  -8  -3  -6   10.73    1.62 
   8   3   6    8.71    1.48 
   8   3   6    7.03    1.12 
  12  -4  -6   -0.30    0.90 
  12  -4  -6    0.40    0.66 
 -12   4   6   -0.75    1.14 
 -12   4   6   -0.67    1.12 
  11  -4  -6    8.30    1.07 
  11  -4  -6    9.41    1.48 
 -11   4   6    7.74    1.33 
 -11   4   6    9.40    1.53 
  10  -4  -6   25.18    1.75 
  10  -4  -6   21.66    1.57 
 -10   4   6   22.05    1.71 
 -10   4   6   21.74    1.67 
   9  -4  -6    8.40    1.18 
   9  -4  -6    8.19    1.07 
  -9   4   6    9.29    1.26 
  -9   4   6    9.35    1.43 
  -9   4   6    6.69    1.16 
   8  -4  -6    2.77    0.68 
   8  -4  -6    2.65    0.69 
   8  -4  -6    3.31    0.76 
  -8   4   6    1.73    0.66 
  -8   4   6    1.84    0.58 
  -8   4   6    2.60    0.75 
   7  -4  -6    2.77    0.65 
   7  -4  -6    2.28    0.63 
   7  -4  -6    2.11    0.63 
  -7   4   6    2.85    0.63 
  -7   4   6    2.64    0.63 
  -7   4   6    2.87    0.65 
   6  -4  -6    1.52    0.60 
   6  -4  -6    1.83    0.48 
   6  -4  -6    1.76    0.53 
  -6   4   6    2.38    0.62 
  -6   4   6    2.39    0.60 
  -6   4   6    2.00    0.48 
   5  -4  -6   53.33    1.62 
   5  -4  -6   52.37    1.79 
   5  -4  -6   51.59    1.70 
   5  -4  -6   52.97    1.45 
  -5   4   6   51.92    1.78 
  -5   4   6   52.33    1.60 
  -5   4   6   52.18    1.80 
   4  -4  -6    3.03    0.46 
   4  -4  -6    2.53    0.54 
   4  -4  -6    3.14    0.47 
   4  -4  -6    3.16    0.60 
  -4   4   6    3.03    0.63 
  -4   4   6    2.76    0.44 
  -4   4   6    2.72    0.53 
   3  -4  -6   10.84    0.81 
   3  -4  -6    9.95    0.73 
   3  -4  -6    9.08    0.71 
  -3   4   6   10.04    0.77 
  -3   4   6    9.86    0.87 
  -3   4   6    9.40    0.81 
  -3   4   6   10.37    0.74 
   2  -4  -6    1.82    0.41 
   2  -4  -6    2.77    0.53 
   2  -4  -6    2.73    0.53 
  -2   4   6    2.39    0.49 
  -2   4   6    2.56    0.42 
  -2   4   6    2.00    0.49 
   1  -4  -6   82.82    2.12 
   1  -4  -6   82.56    2.17 
   1  -4  -6   82.77    2.22 
   1  -4  -6   87.15    2.12 
  -1   4   6   84.89    2.01 
  -1   4   6   84.88    2.36 
  -1   4   6   86.41    2.25 
  -1   4   6   82.00    2.35 
   0  -4  -6   24.31    1.00 
   0  -4  -6   24.60    1.11 
   0  -4  -6   25.66    1.06 
   0  -4  -6   23.87    1.01 
   0   4   6   24.71    0.97 
   0   4   6   22.57    1.10 
   0   4   6   23.27    1.12 
  -1  -4  -6   34.54    1.40 
  -1  -4  -6   35.04    1.14 
  -1  -4  -6   34.34    1.34 
  -1  -4  -6   34.65    1.18 
   1   4   6   35.28    1.17 
   1   4   6   33.38    1.47 
   1   4   6   35.92    1.49 
   1   4   6   33.14    1.47 
  -2  -4  -6   11.06    1.05 
  -2  -4  -6    9.93    0.88 
  -2  -4  -6   10.53    0.67 
   2   4   6   10.13    0.72 
   2   4   6    8.53    0.90 
   2   4   6    9.73    0.80 
  -3  -4  -6    5.16    0.76 
  -3  -4  -6    5.49    0.69 
   3   4   6    7.64    1.19 
   3   4   6    6.57    1.12 
   3   4   6    3.89    0.73 
   3   4   6    6.33    0.78 
  -4  -4  -6   27.43    1.36 
  -4  -4  -6   27.49    1.71 
   4   4   6   25.26    1.51 
   4   4   6   25.03    1.55 
   4   4   6   25.28    1.34 
  -5  -4  -6   11.37    1.73 
  -5  -4  -6   15.71    1.62 
   5   4   6   14.01    1.32 
   5   4   6   14.81    1.23 
   5   4   6   14.74    1.20 
  -6  -4  -6    3.83    0.83 
  -6  -4  -6    2.49    0.81 
   6   4   6    2.93    0.95 
   6   4   6    2.24    0.97 
  -7  -4  -6    4.55    1.07 
   7   4   6    5.78    1.28 
   7   4   6    5.96    1.13 
  12  -5  -6    0.95    0.96 
  12  -5  -6    1.01    0.79 
 -12   5   6    0.28    1.05 
 -12   5   6    1.55    0.97 
  11  -5  -6    8.63    1.13 
  11  -5  -6    8.46    1.20 
 -11   5   6   10.43    1.41 
 -11   5   6    8.17    1.38 
  10  -5  -6    6.52    1.21 
  10  -5  -6    6.20    1.02 
 -10   5   6    9.89    1.24 
 -10   5   6    7.60    1.28 
   9  -5  -6   26.37    1.69 
   9  -5  -6   25.31    1.38 
  -9   5   6   24.49    1.75 
   8  -5  -6    3.89    0.84 
   8  -5  -6    3.98    0.83 
  -8   5   6    3.37    0.77 
  -8   5   6    3.81    0.90 
  -8   5   6    4.08    0.88 
   7  -5  -6   29.90    1.57 
   7  -5  -6   29.86    1.50 
   7  -5  -6   30.68    1.50 
  -7   5   6   30.08    1.44 
  -7   5   6   27.19    1.57 
  -7   5   6   27.74    1.56 
   6  -5  -6   39.38    1.63 
   6  -5  -6   38.53    1.20 
   6  -5  -6   38.53    1.57 
   6  -5  -6   40.73    1.65 
  -6   5   6   38.48    1.70 
  -6   5   6   40.69    1.74 
  -6   5   6   40.00    1.52 
   5  -5  -6   20.80    0.90 
   5  -5  -6   20.58    1.01 
   5  -5  -6   21.49    1.16 
   5  -5  -6   18.52    1.04 
  -5   5   6   21.14    1.05 
  -5   5   6   18.04    1.03 
  -5   5   6   20.23    1.27 
   4  -5  -6    0.26    0.40 
   4  -5  -6    0.55    0.49 
   4  -5  -6    0.57    0.39 
   4  -5  -6    0.45    0.40 
  -4   5   6    0.88    0.56 
  -4   5   6   -0.23    0.46 
  -4   5   6    0.28    0.52 
   3  -5  -6   55.92    1.80 
   3  -5  -6   58.98    1.86 
   3  -5  -6   56.29    1.67 
  -3   5   6   57.76    1.59 
  -3   5   6   58.92    1.96 
  -3   5   6   58.44    1.80 
  -3   5   6   55.79    1.86 
   2  -5  -6    0.08    0.32 
   2  -5  -6    0.04    0.40 
   2  -5  -6    0.04    0.38 
  -2   5   6    0.50    0.42 
  -2   5   6    0.00    0.40 
  -2   5   6   -0.54    0.34 
  -2   5   6   -0.69    0.36 
   1  -5  -6    0.74    0.34 
   1  -5  -6    0.11    0.46 
   1  -5  -6    0.77    0.38 
   1  -5  -6    0.12    0.44 
  -1   5   6    0.19    0.52 
  -1   5   6    0.00    0.42 
  -1   5   6    0.82    0.42 
   0  -5  -6    5.46    0.69 
   0  -5  -6    6.00    0.74 
   0   5   6    6.46    0.66 
   0   5   6    4.37    0.67 
   0   5   6    4.47    0.68 
   0   5   6    3.92    0.65 
  -1  -5  -6   70.11    1.92 
  -1  -5  -6   70.89    1.86 
  -1  -5  -6   72.16    2.02 
  -1  -5  -6   70.29    2.15 
   1   5   6   73.00    2.37 
   1   5   6   70.47    2.24 
   1   5   6   69.42    2.29 
   1   5   6   70.40    1.81 
  -2  -5  -6   42.36    1.70 
  -2  -5  -6   38.30    1.30 
  -2  -5  -6   40.13    1.31 
  -2  -5  -6   40.86    1.75 
   2   5   6   42.76    1.83 
   2   5   6   41.72    1.90 
   2   5   6   41.16    1.33 
   2   5   6   37.11    1.78 
  -3  -5  -6    1.44    0.57 
  -3  -5  -6    1.37    0.61 
   3   5   6    1.20    0.66 
   3   5   6    2.47    0.49 
   3   5   6    1.67    0.80 
  -4  -5  -6    4.45    0.92 
  -4  -5  -6    4.79    1.03 
   4   5   6    4.51    0.92 
   4   5   6    5.47    1.04 
   4   5   6    4.76    0.84 
  -5  -5  -6   35.54    1.96 
  -5  -5  -6   36.10    1.83 
   5   5   6   35.54    1.93 
   5   5   6   38.08    2.24 
   5   5   6   39.85    1.61 
  -6  -5  -6   19.91    1.39 
  -6  -5  -6   16.93    1.46 
  -6  -5  -6   20.57    1.32 
   6   5   6   21.09    1.60 
   6   5   6   21.59    1.75 
  -7  -5  -6   -1.68    0.93 
  -7  -5  -6    0.20    0.78 
  -7  -5  -6    1.95    0.78 
   7   5   6    0.74    1.00 
   7   5   6   -0.34    0.83 
  12  -6  -6    0.47    0.97 
  12  -6  -6   -0.85    0.79 
 -12   6   6    0.19    0.94 
 -12   6   6   -0.63    1.02 
  11  -6  -6    1.33    0.62 
  11  -6  -6    0.93    0.90 
 -11   6   6    1.24    0.87 
 -11   6   6    0.06    0.93 
  10  -6  -6    1.41    1.08 
  10  -6  -6    1.99    0.90 
 -10   6   6    1.51    0.93 
 -10   6   6    1.13    0.84 
   9  -6  -6   18.06    1.15 
   9  -6  -6   18.60    1.45 
  -9   6   6   18.24    1.51 
  -9   6   6   19.09    1.73 
   8  -6  -6   28.25    1.51 
   8  -6  -6   29.88    1.72 
  -8   6   6   29.46    1.60 
   7  -6  -6   47.29    1.34 
   7  -6  -6   49.43    1.98 
   7  -6  -6   47.47    1.97 
  -7   6   6   49.63    1.78 
  -7   6   6   43.77    1.91 
  -7   6   6   45.19    1.93 
   6  -6  -6    6.07    0.63 
   6  -6  -6    7.23    1.07 
   6  -6  -6    4.91    0.83 
   6  -6  -6    6.51    1.05 
  -6   6   6    7.07    0.99 
  -6   6   6    7.45    0.91 
  -6   6   6    5.52    1.01 
   5  -6  -6    1.66    0.71 
   5  -6  -6    1.39    0.58 
   5  -6  -6    0.98    0.37 
   5  -6  -6    0.57    0.51 
  -5   6   6    1.47    0.53 
  -5   6   6    1.20    0.64 
  -5   6   6    1.01    0.63 
   4  -6  -6    3.51    0.54 
   4  -6  -6    3.34    0.64 
   4  -6  -6    3.66    0.66 
  -4   6   6    3.30    0.57 
  -4   6   6    2.93    0.64 
  -4   6   6    2.03    0.56 
   3  -6  -6  100.29    2.62 
   3  -6  -6  102.34    2.71 
   3  -6  -6  102.75    2.77 
  -3   6   6  102.80    2.39 
  -3   6   6  103.34    2.88 
  -3   6   6  106.51    2.96 
  -3   6   6  105.36    2.82 
   2  -6  -6    0.83    0.45 
   2  -6  -6    1.22    0.47 
   2  -6  -6    1.19    0.52 
  -2   6   6    0.68    0.56 
  -2   6   6    0.56    0.54 
  -2   6   6    1.35    0.76 
  -2   6   6    0.02    0.44 
   1  -6  -6    4.69    0.80 
   1  -6  -6    3.80    0.59 
   1  -6  -6    4.19    0.64 
   1  -6  -6    4.76    0.61 
  -1   6   6    4.25    0.72 
  -1   6   6    4.20    0.79 
  -1   6   6    2.54    0.59 
   0  -6  -6   57.31    1.80 
   0  -6  -6   56.70    1.76 
   0  -6  -6   58.04    1.97 
   0  -6  -6   56.03    1.73 
   0   6   6   59.10    2.12 
   0   6   6   57.31    2.06 
   0   6   6   54.60    2.13 
   0   6   6   59.55    1.71 
  -1  -6  -6   44.90    1.49 
  -1  -6  -6   42.35    1.64 
  -1  -6  -6   42.67    1.49 
  -1  -6  -6   39.69    1.65 
   1   6   6   41.22    1.90 
   1   6   6   42.38    1.30 
   1   6   6   41.13    1.86 
   1   6   6   45.09    1.90 
  -2  -6  -6   38.90    1.41 
  -2  -6  -6   39.60    1.44 
  -2  -6  -6   41.79    1.73 
  -2  -6  -6   39.50    1.55 
   2   6   6   41.82    1.37 
   2   6   6   40.85    1.85 
   2   6   6   38.02    1.76 
  -3  -6  -6    1.62    0.53 
  -3  -6  -6    1.20    0.75 
  -3  -6  -6    1.89    0.77 
   3   6   6    2.10    1.64 
   3   6   6    2.04    0.63 
   3   6   6    1.28    0.53 
  -4  -6  -6    0.74    0.69 
  -4  -6  -6    1.48    0.72 
   4   6   6    2.26    0.59 
   4   6   6    1.72    0.86 
   4   6   6    0.43    0.89 
  -5  -6  -6   18.79    1.81 
  -5  -6  -6   16.50    1.48 
  -5  -6  -6   18.80    1.27 
   5   6   6   16.96    1.65 
   5   6   6   18.61    1.74 
  -6  -6  -6   29.88    1.89 
  -6  -6  -6   28.92    1.96 
   6   6   6   32.60    2.38 
   6   6   6   28.89    1.99 
  11  -7  -6    3.61    0.96 
  11  -7  -6    4.28    0.84 
 -11   7   6    4.91    1.24 
 -11   7   6    3.88    1.09 
  10  -7  -6    0.12    0.86 
  10  -7  -6   -0.03    1.03 
 -10   7   6    1.03    0.83 
 -10   7   6    0.28    0.81 
   9  -7  -6    0.53    0.69 
   9  -7  -6   -0.53    0.52 
  -9   7   6    0.19    0.86 
  -9   7   6    0.08    0.85 
   8  -7  -6   25.36    1.44 
  -8   7   6   26.51    1.82 
  -8   7   6   24.74    1.52 
   7  -7  -6   57.36    2.29 
   7  -7  -6   58.41    1.59 
   7  -7  -6   56.91    2.12 
  -7   7   6   61.29    2.01 
   6  -7  -6   27.43    1.01 
   6  -7  -6   26.05    1.40 
   6  -7  -6   27.34    1.46 
  -6   7   6   28.33    1.37 
  -6   7   6   26.26    1.53 
  -6   7   6   26.87    1.65 
   5  -7  -6    5.89    0.68 
   5  -7  -6    6.48    1.09 
   5  -7  -6    4.33    0.71 
  -5   7   6    7.01    0.76 
  -5   7   6    4.49    0.81 
  -5   7   6    4.98    0.86 
   4  -7  -6    5.54    0.97 
   4  -7  -6    7.94    0.85 
   4  -7  -6    8.80    1.00 
  -4   7   6    7.45    0.79 
  -4   7   6    9.15    0.99 
  -4   7   6    7.95    1.14 
   3  -7  -6   90.86    2.47 
   3  -7  -6   88.60    2.63 
   3  -7  -6   91.31    2.59 
  -3   7   6   93.05    2.79 
  -3   7   6   96.17    2.19 
  -3   7   6   85.13    2.66 
  -3   7   6   91.68    2.65 
   2  -7  -6   73.15    2.20 
   2  -7  -6   71.98    2.29 
   2  -7  -6   73.23    2.21 
  -2   7   6   74.63    2.42 
  -2   7   6   77.04    2.43 
  -2   7   6   74.90    2.52 
   1  -7  -6    0.53    0.52 
   1  -7  -6   -0.08    0.40 
   1  -7  -6   -0.19    0.55 
   1  -7  -6    0.35    0.51 
  -1   7   6    0.54    0.53 
  -1   7   6   -0.14    0.58 
   0  -7  -6   10.40    1.04 
   0  -7  -6   10.32    1.01 
   0  -7  -6    9.81    0.86 
   0  -7  -6    9.00    1.02 
   0   7   6   11.20    1.39 
   0   7   6   10.38    1.19 
   0   7   6   10.33    1.03 
  -1  -7  -6   78.40    2.66 
  -1  -7  -6   86.89    2.43 
  -1  -7  -6   82.55    2.28 
  -1  -7  -6   82.75    2.40 
   1   7   6   85.26    2.76 
   1   7   6   84.28    2.83 
  -2  -7  -6   64.37    2.23 
  -2  -7  -6   63.02    2.29 
  -2  -7  -6   63.09    2.02 
  -2  -7  -6   65.04    1.95 
   2   7   6   55.09    3.42 
   2   7   6   64.41    2.39 
  -3  -7  -6   10.59    1.20 
  -3  -7  -6   11.95    1.51 
   3   7   6   11.50    1.22 
   3   7   6   13.95    1.21 
  -4  -7  -6    5.61    0.93 
  -4  -7  -6    3.51    0.83 
   4   7   6    4.01    1.04 
   4   7   6    4.44    1.26 
  -5  -7  -6    5.28    1.14 
  -5  -7  -6    4.19    1.10 
   5   7   6    4.95    1.10 
   5   7   6    3.59    1.13 
  -6  -7  -6   39.74    2.42 
  -6  -7  -6   36.02    2.20 
   6   7   6   40.57    2.44 
   6   7   6   36.04    2.20 
  11  -8  -6   44.61    2.26 
  11  -8  -6   41.60    1.99 
 -11   8   6   41.67    2.33 
 -11   8   6   38.14    2.31 
  10  -8  -6   23.92    1.74 
  10  -8  -6   22.63    2.04 
 -10   8   6   23.91    2.06 
 -10   8   6   25.98    1.84 
   9  -8  -6    3.49    0.99 
   9  -8  -6    2.81    0.84 
  -9   8   6    4.94    1.20 
  -9   8   6    3.89    0.92 
   8  -8  -6    5.68    0.90 
   8  -8  -6    7.10    1.22 
  -8   8   6    6.63    1.21 
  -8   8   6    8.34    1.29 
   7  -8  -6    6.18    0.97 
   7  -8  -6    9.26    0.79 
  -7   8   6    9.83    0.96 
  -7   8   6    6.35    1.12 
   6  -8  -6   12.06    1.88 
   6  -8  -6   13.59    1.17 
   6  -8  -6   13.60    0.91 
  -6   8   6   16.07    1.11 
   5  -8  -6    1.38    0.79 
   5  -8  -6    1.05    0.46 
  -5   8   6    2.02    0.87 
  -5   8   6    0.94    0.46 
   4  -8  -6    7.39    0.94 
   4  -8  -6    6.89    1.06 
  -4   8   6    5.58    0.91 
  -4   8   6    6.89    0.80 
  -4   8   6    6.96    1.25 
   3  -8  -6   52.00    2.00 
   3  -8  -6   50.90    1.84 
  -3   8   6   53.73    2.10 
  -3   8   6   47.08    2.88 
  -3   8   6   48.04    1.91 
   2  -8  -6   86.49    2.63 
   2  -8  -6   91.08    2.64 
  -2   8   6   83.93    2.71 
  -2   8   6   86.14    2.78 
   1  -8  -6   41.10    1.34 
   1  -8  -6   40.84    1.67 
   1  -8  -6   42.91    1.85 
   1  -8  -6   39.25    1.79 
  -1   8   6   43.14    1.97 
  -1   8   6   41.71    1.89 
   0  -8  -6    2.68    0.85 
   0  -8  -6    3.25    0.77 
   0  -8  -6    6.15    1.01 
   0  -8  -6    5.03    0.83 
   0   8   6    5.27    1.01 
   0   8   6    4.94    0.81 
  -1  -8  -6    0.81    0.60 
  -1  -8  -6    1.68    0.58 
  -1  -8  -6    1.30    0.77 
  -1  -8  -6    0.69    0.82 
   1   8   6    1.43    1.05 
   1   8   6    0.55    0.65 
  -2  -8  -6   20.79    1.28 
  -2  -8  -6   22.07    1.45 
  -2  -8  -6   21.77    1.45 
   2   8   6   20.71    1.81 
   2   8   6   20.47    1.76 
  -3  -8  -6   10.64    1.35 
  -3  -8  -6    9.19    1.45 
   3   8   6   12.82    1.10 
   3   8   6    7.17    1.09 
  -4  -8  -6   14.00    1.64 
  -4  -8  -6   16.26    1.51 
   4   8   6   13.52    1.64 
   4   8   6   13.06    1.54 
  -5  -8  -6    5.00    1.27 
  -5  -8  -6    4.83    1.25 
   5   8   6    6.70    1.30 
   5   8   6    6.02    1.54 
  10  -9  -6   17.55    1.70 
  10  -9  -6   17.74    1.69 
 -10   9   6   21.43    1.87 
 -10   9   6   15.92    1.72 
   9  -9  -6    4.91    0.97 
   9  -9  -6    6.59    1.35 
  -9   9   6    5.01    1.28 
  -9   9   6    5.85    0.99 
   8  -9  -6    0.89    0.80 
   8  -9  -6    0.11    0.72 
  -8   9   6    1.35    0.87 
  -8   9   6    1.02    0.91 
   7  -9  -6   18.88    1.40 
   7  -9  -6   18.63    1.56 
   7  -9  -6   18.20    1.07 
  -7   9   6   19.72    1.70 
  -7   9   6   21.71    1.36 
   6  -9  -6   26.47    1.62 
   6  -9  -6   25.18    1.23 
   6  -9  -6   25.55    1.51 
  -6   9   6   29.16    1.36 
  -6   9   6   25.42    1.65 
   5  -9  -6   15.07    1.12 
   5  -9  -6   16.71    1.47 
  -5   9   6   12.82    1.22 
   4  -9  -6   -0.30    0.60 
  -4   9   6   -0.79    0.76 
  -4   9   6   -0.44    0.78 
   3  -9  -6   11.80    1.16 
  -3   9   6   12.82    2.30 
  -3   9   6   11.65    1.32 
   2  -9  -6   26.73    1.74 
  -2   9   6   24.30    2.65 
   1  -9  -6   13.12    1.20 
   1  -9  -6   12.63    1.30 
  -1   9   6   12.78    1.33 
   0  -9  -6   27.37    1.19 
   0  -9  -6   23.05    1.40 
   0  -9  -6   22.39    1.49 
   0   9   6   27.16    1.84 
   0   9   6   25.16    1.70 
  -1  -9  -6    3.16    0.92 
  -1  -9  -6    2.21    0.83 
   1   9   6    4.22    0.94 
   1   9   6    1.75    0.81 
  -2  -9  -6    1.06    0.74 
  -2  -9  -6    1.13    0.90 
  -2  -9  -6    0.73    0.83 
   2   9   6   -1.05    0.90 
   2   9   6    0.42    1.17 
  -3  -9  -6    3.30    0.99 
  -3  -9  -6    5.04    0.98 
   3   9   6    4.79    1.13 
   3   9   6    3.67    0.93 
  -4  -9  -6    1.47    0.91 
  -4  -9  -6    1.21    1.21 
   4   9   6    2.85    0.87 
   4   9   6   -0.39    0.91 
  10 -10  -6    2.14    1.16 
  10 -10  -6    3.76    1.12 
 -10  10   6    4.93    1.55 
 -10  10   6    4.34    1.14 
   9 -10  -6    0.90    0.99 
   9 -10  -6    0.40    0.87 
  -9  10   6    1.28    1.00 
  -9  10   6    2.79    1.01 
   8 -10  -6   -0.01    0.68 
  -8  10   6    0.41    1.00 
  -8  10   6    0.56    0.96 
   7 -10  -6    5.07    1.01 
   7 -10  -6    2.63    0.79 
   7 -10  -6    4.10    0.73 
  -7  10   6    4.92    1.08 
   6 -10  -6   16.60    1.52 
   6 -10  -6   14.84    1.16 
  -6  10   6   17.37    1.41 
  -6  10   6   19.01    1.82 
   5 -10  -6   10.95    1.13 
   5 -10  -6   13.56    1.58 
  -5  10   6   11.61    1.28 
  -5  10   6   12.03    1.72 
   4 -10  -6    2.77    0.86 
   4 -10  -6    2.98    0.65 
  -4  10   6    3.25    0.95 
  -4  10   6    4.24    1.09 
   3 -10  -6    3.07    0.78 
  -3  10   6    4.12    1.02 
  -3  10   6    3.76    0.88 
   2 -10  -6   -0.78    0.84 
   2 -10  -6   -0.92    0.47 
  -2  10   6    0.11    0.69 
  -2  10   6    0.66    0.92 
   1 -10  -6    5.78    1.02 
   1 -10  -6    6.12    0.83 
  -1  10   6    9.02    1.37 
  -1  10   6    6.15    1.20 
   0 -10  -6   -1.16    1.49 
   0 -10  -6   -1.04    0.52 
   0  10   6   -0.21    0.72 
   0  10   6   -0.67    0.94 
  -1 -10  -6    3.26    0.98 
  -1 -10  -6    3.87    0.76 
   1  10   6    2.91    1.14 
   1  10   6    4.46    0.91 
  -2 -10  -6    0.83    1.03 
  -2 -10  -6    0.01    1.00 
  -2 -10  -6   -1.42    0.98 
   2  10   6    1.74    0.84 
   2  10   6    1.67    1.19 
  -3 -10  -6    0.53    1.17 
   3  10   6   -1.49    1.17 
   3  10   6   -1.33    0.75 
   9 -11  -6   -0.80    0.89 
   9 -11  -6    1.36    0.88 
  -9  11   6    0.88    1.18 
   8 -11  -6    2.47    1.03 
   8 -11  -6    0.76    0.87 
  -8  11   6    3.00    1.23 
   7 -11  -6    1.52    0.91 
   7 -11  -6    2.19    0.81 
  -7  11   6    4.49    1.22 
  -7  11   6    1.75    1.02 
   6 -11  -6   -1.04    0.82 
   6 -11  -6    0.85    0.62 
  -6  11   6   -0.60    0.86 
  -6  11   6    1.35    1.03 
   5 -11  -6    3.12    1.05 
   5 -11  -6    1.52    0.74 
  -5  11   6    0.99    0.93 
  -5  11   6    0.07    0.77 
   4 -11  -6    5.72    0.94 
   4 -11  -6    4.74    0.87 
  -4  11   6    6.01    1.03 
  -4  11   6    5.77    1.05 
   3 -11  -6   20.40    1.57 
   3 -11  -6   22.23    1.82 
  -3  11   6   18.92    1.84 
  -3  11   6   17.28    1.65 
   2 -11  -6    0.15    0.84 
   2 -11  -6    0.20    0.64 
  -2  11   6   -0.06    1.02 
  -2  11   6    0.66    0.70 
   1 -11  -6   -0.43    0.59 
   1 -11  -6    0.15    0.86 
  -1  11   6    0.18    0.84 
  -1  11   6    1.11    0.98 
   0 -11  -6    2.02    0.86 
   0 -11  -6    3.23    1.10 
   0  11   6    1.32    1.04 
  -1 -11  -6   20.80    1.64 
  -1 -11  -6   20.57    1.69 
   1  11   6   24.08    2.38 
   1  11   6   22.46    2.11 
  -2 -11  -6   -0.22    0.83 
  -2 -11  -6    1.28    1.21 
  -2 -11  -6   -0.38    0.98 
   2  11   6    0.41    1.20 
   2  11   6    2.55    0.98 
   7 -12  -6    0.13    0.90 
  -7  12   6    0.15    1.21 
  -7  12   6   -0.88    0.76 
   6 -12  -6    1.22    0.66 
  -6  12   6    0.90    0.97 
  -6  12   6    1.86    1.16 
   5 -12  -6   13.54    1.75 
   5 -12  -6    9.08    1.16 
  -5  12   6   10.03    1.74 
  -5  12   6    6.93    1.40 
   4 -12  -6   12.60    1.26 
   4 -12  -6   15.61    1.50 
  -4  12   6   15.38    1.86 
  -4  12   6   17.54    1.97 
   3 -12  -6   15.72    1.79 
   3 -12  -6   13.55    1.39 
  -3  12   6   14.92    1.49 
  -3  12   6   15.55    1.88 
   2 -12  -6    5.41    1.06 
   2 -12  -6    5.91    0.94 
  -2  12   6    6.42    1.19 
  -2  12   6    6.08    1.38 
   1 -12  -6    0.81    0.94 
   1 -12  -6   -1.06    0.67 
  -1  12   6    0.08    0.81 
  -1  12   6   -0.71    0.83 
   0 -12  -6    0.43    0.87 
   0 -12  -6    3.64    1.18 
   0  12   6    4.38    1.42 
   0  12   6    1.29    1.29 
   5 -13  -6    2.04    1.18 
   5 -13  -6   -0.63    0.66 
  -5  13   6    0.82    1.10 
  -5  13   6   -0.30    1.01 
   4 -13  -6    7.70    1.24 
   4 -13  -6    8.76    1.31 
  -4  13   6    7.41    1.43 
  -4  13   6    7.74    1.49 
   3 -13  -6   18.08    1.96 
   3 -13  -6   15.23    1.46 
  -3  13   6   10.95    1.78 
  -3  13   6   15.95    1.98 
   2  14  -7    1.68    0.95 
  -2 -14   7    2.82    1.22 
  -2 -14   7    0.15    1.01 
  -2 -14   7    0.88    1.02 
   1  14  -7   10.62    1.78 
  -1 -14   7    9.76    1.63 
  -1 -14   7    9.54    1.46 
  -1 -14   7    8.55    1.51 
   0  14  -7    1.97    0.95 
   0 -14   7    1.26    1.17 
   0 -14   7    2.37    1.11 
   0 -14   7    1.70    0.78 
  -1  14  -7   -0.25    1.08 
   1 -14   7    0.54    1.01 
   1 -14   7   -0.10    0.97 
   1 -14   7    0.16    0.87 
  -2  14  -7    0.09    1.12 
   2 -14   7   -0.06    0.97 
   5  13  -7    5.51    1.10 
  -5 -13   7    5.28    1.05 
   4  13  -7    0.83    1.03 
  -4 -13   7    1.67    0.88 
  -4 -13   7    2.60    0.83 
   3  13  -7    2.20    1.03 
  -3 -13   7    0.55    0.81 
  -3 -13   7   -0.40    0.85 
   2  13  -7   -0.44    1.01 
  -2 -13   7   -0.29    0.77 
  -2 -13   7   -0.22    0.88 
  -2 -13   7   -0.95    0.69 
   1  13  -7   13.89    1.64 
  -1 -13   7   13.96    1.39 
  -1 -13   7   12.58    1.44 
  -1 -13   7   14.45    1.41 
   0  13  -7    0.80    0.94 
   0 -13   7    1.21    1.08 
   0 -13   7    0.77    1.00 
   0 -13   7    0.35    0.81 
  -1  13  -7    6.17    1.12 
   1 -13   7    9.64    1.22 
   1 -13   7    6.17    0.97 
   1 -13   7    6.39    1.07 
  -2  13  -7    5.47    1.20 
   2 -13   7    5.68    0.89 
   2 -13   7    6.52    0.93 
   2 -13   7    5.67    0.85 
  -3  13  -7    2.79    1.14 
   3 -13   7    1.77    0.94 
   3 -13   7    3.13    0.76 
   3 -13   7    1.72    0.96 
  -4  13  -7    2.95    1.27 
   4 -13   7    2.34    1.07 
   4 -13   7    3.86    1.01 
   4 -13   7    3.86    0.99 
   6  12  -7    3.41    1.41 
   6  12  -7    4.91    1.32 
  -6 -12   7    4.26    1.15 
  -6 -12   7    3.65    0.95 
   5  12  -7    3.82    0.99 
  -5 -12   7    3.50    1.17 
  -5 -12   7    2.72    0.95 
   4  12  -7    0.12    1.12 
  -4 -12   7    1.69    0.93 
  -4 -12   7    1.23    0.89 
  -3 -12   7    2.81    1.00 
  -3 -12   7    1.56    0.74 
  -3 -12   7    0.22    0.86 
   2  12  -7    1.88    0.90 
  -2 -12   7    0.51    0.84 
  -2 -12   7    0.84    0.77 
  -2 -12   7   -0.15    0.79 
   1  12  -7    3.48    1.00 
  -1 -12   7    2.32    0.84 
  -1 -12   7    1.95    0.71 
  -1 -12   7    1.17    0.74 
   0  12  -7   10.35    1.49 
   0 -12   7   12.62    1.57 
   0 -12   7   10.11    1.41 
   0 -12   7   12.91    1.47 
   1 -12   7   35.19    1.74 
   1 -12   7   37.76    1.72 
   1 -12   7   34.15    1.80 
  -2  12  -7    9.07    1.60 
   2 -12   7   11.85    1.48 
   2 -12   7   12.94    1.43 
   2 -12   7   11.83    1.21 
   2 -12   7   13.67    1.02 
   3 -12   7    3.37    1.02 
   3 -12   7    4.48    1.03 
   3 -12   7    4.57    1.05 
   3 -12   7    4.35    0.75 
   4 -12   7    4.58    0.91 
   4 -12   7    4.51    0.79 
   4 -12   7    4.04    0.84 
   4 -12   7    4.57    0.88 
   4 -12   7    4.70    0.93 
   4 -12   7    4.49    0.81 
   5 -12   7   20.39    1.71 
   5 -12   7   20.26    1.88 
   5 -12   7   21.62    1.62 
   5 -12   7   18.71    1.66 
   5 -12   7   22.68    1.71 
   5 -12   7   21.26    1.40 
   7  11  -7    1.15    0.98 
   7  11  -7    0.26    1.02 
  -7 -11   7    0.68    0.78 
  -7 -11   7    0.33    0.97 
   6  11  -7    6.16    1.40 
   6  11  -7    8.89    1.32 
  -6 -11   7    8.26    1.31 
  -6 -11   7    6.63    1.23 
   5  11  -7    1.62    0.80 
  -5 -11   7    0.87    0.82 
  -5 -11   7    0.79    0.71 
   4  11  -7   15.18    1.69 
  -4 -11   7   14.82    1.39 
  -4 -11   7   15.26    1.23 
   3  11  -7   21.49    1.57 
  -3 -11   7   21.91    1.50 
  -3 -11   7   21.59    1.44 
  -3 -11   7   18.60    1.41 
   2  11  -7   30.49    1.52 
  -2 -11   7   31.05    1.75 
  -2 -11   7   31.58    1.77 
  -2 -11   7   31.56    1.69 
   1  11  -7    0.31    0.73 
  -1 -11   7    0.65    0.68 
  -1 -11   7    0.64    0.70 
  -1 -11   7   -0.43    0.71 
  -1 -11   7    0.83    0.57 
   0  11  -7   20.13    1.38 
   0 -11   7   19.75    1.53 
   0 -11   7   22.20    1.09 
   0 -11   7   19.73    1.52 
  -1  11  -7   19.51    1.46 
   1 -11   7   15.72    1.50 
   1 -11   7   14.40    1.88 
   1 -11   7   15.28    1.10 
   1 -11   7   17.05    1.22 
  -2  11  -7   10.85    1.30 
   2 -11   7   11.26    1.48 
   2 -11   7   10.50    1.11 
   2 -11   7   10.17    1.35 
   2 -11   7   10.61    1.02 
   2 -11   7    9.77    1.02 
   3 -11   7    1.30    0.70 
   3 -11   7    2.10    0.84 
   3 -11   7    1.38    0.61 
   3 -11   7    2.06    0.70 
   3 -11   7    0.96    0.87 
   4 -11   7    2.94    0.86 
   4 -11   7    2.56    0.74 
   4 -11   7    1.94    0.72 
   4 -11   7    2.33    0.97 
   4 -11   7    3.29    0.72 
   4 -11   7    2.56    0.73 
   5 -11   7   14.93    1.32 
   5 -11   7   14.50    1.25 
   5 -11   7   15.89    1.65 
   5 -11   7   12.55    1.57 
   5 -11   7   16.86    1.39 
   5 -11   7   15.94    1.48 
  -6  11  -7   15.69    1.80 
   6 -11   7   16.77    1.86 
   6 -11   7   15.22    1.66 
   6 -11   7   15.73    1.63 
   8  10  -7   19.49    2.10 
   8  10  -7   18.59    1.49 
  -8 -10   7   15.56    1.68 
  -8 -10   7   20.98    1.70 
   7  10  -7   20.23    1.84 
   7  10  -7   15.99    1.32 
  -7 -10   7   18.25    1.42 
  -7 -10   7   13.65    1.60 
   6  10  -7   29.31    1.49 
   6  10  -7   29.33    1.85 
  -6 -10   7   33.36    1.85 
  -6 -10   7   32.01    1.89 
   5  10  -7    0.04    0.56 
   5  10  -7    0.30    0.72 
  -5 -10   7    1.17    0.93 
  -5 -10   7   -0.07    0.68 
   4  10  -7   11.55    1.37 
  -4 -10   7   13.69    1.52 
  -4 -10   7   13.94    1.38 
  -4 -10   7   12.04    1.09 
   3  10  -7   35.80    1.68 
  -3 -10   7   37.10    1.73 
  -3 -10   7   37.23    1.89 
  -3 -10   7   40.69    1.31 
  -3 -10   7   36.19    1.74 
   2  10  -7   40.45    1.69 
  -2 -10   7   40.48    1.86 
  -2 -10   7   41.22    1.88 
  -2 -10   7   39.83    1.33 
  -2 -10   7   42.31    1.99 
   1  10  -7    0.64    0.55 
  -1 -10   7    0.08    0.45 
  -1 -10   7   -0.04    0.60 
  -1 -10   7    0.04    0.58 
  -1 -10   7    0.35    0.66 
   0  10  -7    8.16    0.92 
   0  10  -7   10.45    1.03 
   0 -10   7   10.46    0.78 
   0 -10   7    8.63    1.12 
   0 -10   7    6.91    1.25 
  -1  10  -7   18.85    1.23 
  -1  10  -7   16.48    1.16 
   1 -10   7   17.70    1.47 
   1 -10   7   18.20    1.07 
   1 -10   7   18.03    1.22 
   1 -10   7   18.73    1.10 
  -2  10  -7   37.01    1.73 
   2 -10   7   37.81    1.60 
   2 -10   7   42.10    1.57 
   2 -10   7   38.21    1.73 
   2 -10   7   37.96    1.64 
   2 -10   7   38.32    1.87 
  -3  10  -7   14.18    1.35 
   3 -10   7   14.84    1.21 
   3 -10   7   14.64    1.19 
   3 -10   7   12.93    1.35 
   3 -10   7   15.79    1.09 
   4 -10   7   -0.78    0.65 
   4 -10   7    0.22    0.64 
   4 -10   7    0.36    0.75 
   4 -10   7    1.09    0.73 
   4 -10   7    0.92    0.55 
   5 -10   7    7.08    0.94 
   5 -10   7    7.77    1.25 
   5 -10   7    6.61    1.10 
   5 -10   7    9.80    1.08 
   5 -10   7    8.33    1.09 
  -6  10  -7    9.13    1.47 
   6 -10   7    7.08    1.13 
   6 -10   7    8.37    1.12 
   6 -10   7    7.83    1.47 
   9   9  -7   -0.06    1.00 
  -9  -9   7    0.53    1.16 
  -9  -9   7   -0.16    0.89 
   8   9  -7    8.92    1.52 
   8   9  -7   10.84    1.36 
  -8  -9   7   12.41    1.78 
  -8  -9   7    9.97    1.40 
   7   9  -7    7.73    1.11 
   7   9  -7    7.66    1.23 
  -7  -9   7    8.76    1.26 
  -7  -9   7    7.37    1.14 
  -7  -9   7    7.31    0.98 
   6   9  -7   37.27    1.85 
   6   9  -7   42.07    1.87 
  -6  -9   7   40.23    1.44 
  -6  -9   7   38.42    1.77 
  -6  -9   7   38.21    2.13 
   5   9  -7   -0.72    0.76 
   5   9  -7   -0.64    0.67 
  -5  -9   7   -0.30    0.58 
  -5  -9   7    0.23    0.47 
  -5  -9   7   -0.23    0.73 
   4   9  -7   -0.61    0.58 
  -4  -9   7   -1.37    0.91 
  -4  -9   7   -0.03    0.40 
   3   9  -7   19.78    1.20 
  -3  -9   7   19.13    1.47 
  -3  -9   7   16.37    1.19 
  -3  -9   7   18.25    1.25 
  -3  -9   7   19.20    0.93 
   2   9  -7    7.74    0.91 
  -2  -9   7    8.12    1.15 
  -2  -9   7    6.86    0.81 
  -2  -9   7    6.08    0.92 
  -2  -9   7    6.81    0.61 
   1   9  -7   16.03    1.06 
   1   9  -7   16.08    0.80 
  -1  -9   7   15.54    1.32 
  -1  -9   7   15.63    1.06 
  -1  -9   7   14.86    1.21 
  -1  -9   7   16.28    0.85 
   0   9  -7    4.75    0.77 
   0   9  -7    4.70    0.88 
   0  -9   7    4.05    0.76 
   0  -9   7    5.37    0.80 
   0  -9   7    4.52    0.60 
   0  -9   7    3.45    0.71 
   0  -9   7    3.79    0.69 
  -1   9  -7   -0.16    0.55 
   1  -9   7    1.51    0.54 
   1  -9   7    0.84    0.45 
   1  -9   7    1.27    0.69 
   1  -9   7    0.26    0.47 
   1  -9   7    0.14    0.64 
  -2   9  -7   17.89    1.23 
  -2   9  -7   18.75    1.42 
   2  -9   7   16.09    1.33 
   2  -9   7   17.22    1.26 
   2  -9   7   19.76    1.09 
   2  -9   7   18.43    1.07 
   2  -9   7   18.10    1.22 
   2  -9   7   18.00    1.19 
  -3   9  -7   42.24    1.99 
  -3   9  -7   43.56    1.90 
   3  -9   7   44.64    1.68 
   3  -9   7   42.86    1.91 
   3  -9   7   41.84    1.67 
   3  -9   7   45.14    1.64 
   3  -9   7   44.84    1.73 
   3  -9   7   44.28    1.73 
  -4   9  -7    0.90    0.92 
   4  -9   7    1.98    0.77 
   4  -9   7    2.17    0.61 
   4  -9   7    1.51    0.68 
   4  -9   7    2.41    0.54 
  -5   9  -7   -0.85    0.83 
   5  -9   7   -0.41    0.69 
   5  -9   7    0.50    0.75 
   5  -9   7   -0.24    0.89 
   5  -9   7   -0.83    0.60 
   5  -9   7    0.69    0.74 
  -6   9  -7    0.53    0.86 
   6  -9   7    0.31    0.90 
   6  -9   7    1.06    0.71 
   6  -9   7    1.48    1.06 
  -7   9  -7    1.22    1.02 
   7  -9   7    1.87    0.94 
   7  -9   7    1.90    1.07 
   7  -9   7    2.87    1.31 
  10   8  -7   13.14    1.91 
  10   8  -7   11.29    1.45 
 -10  -8   7   16.15    1.65 
 -10  -8   7   12.01    1.69 
   9   8  -7    4.47    0.90 
   9   8  -7    2.67    1.23 
  -9  -8   7    3.37    1.02 
  -9  -8   7    1.21    0.93 
  -9  -8   7    3.69    0.86 
   8   8  -7   -0.19    0.84 
  -8  -8   7   -0.74    0.72 
  -8  -8   7    1.54    0.75 
  -8  -8   7    0.23    0.79 
   7   8  -7    3.09    1.07 
   7   8  -7    4.79    0.89 
  -7  -8   7    4.22    0.85 
  -7  -8   7    4.90    0.69 
  -7  -8   7    4.59    1.04 
   6   8  -7    8.82    1.17 
   6   8  -7    8.08    1.39 
  -6  -8   7    7.64    1.26 
  -6  -8   7    7.57    1.41 
  -6  -8   7    9.66    0.91 
   5   8  -7    1.61    0.52 
   5   8  -7    0.15    0.80 
  -5  -8   7   -0.44    0.45 
  -5  -8   7    0.38    0.54 
  -5  -8   7    0.81    0.45 
   4   8  -7    5.35    0.88 
  -4  -8   7    4.59    0.60 
  -4  -8   7    4.46    0.79 
  -4  -8   7    3.60    0.69 
   3   8  -7   48.86    1.53 
  -3  -8   7   46.42    1.88 
  -3  -8   7   47.01    1.77 
  -3  -8   7   50.27    1.55 
   2   8  -7   25.74    1.13 
   2   8  -7   27.14    1.54 
  -2  -8   7   25.37    1.06 
  -2  -8   7   25.06    1.39 
  -2  -8   7   24.86    1.34 
  -2  -8   7   25.85    1.27 
   1   8  -7   31.32    1.26 
   1   8  -7   32.36    1.02 
   1   8  -7   26.59    1.37 
  -1  -8   7   32.08    1.46 
  -1  -8   7   31.38    1.17 
  -1  -8   7   30.25    1.45 
  -1  -8   7   31.45    1.31 
   0   8  -7    6.20    1.03 
   0   8  -7    5.15    0.83 
   0   8  -7    6.27    0.75 
   0  -8   7    4.91    0.83 
   0  -8   7    6.44    0.82 
   0  -8   7    6.10    0.65 
   0  -8   7    6.71    0.68 
   0  -8   7    6.56    0.90 
  -1   8  -7    7.13    0.86 
  -1   8  -7    7.84    1.15 
   1  -8   7    9.88    0.72 
   1  -8   7    9.10    0.91 
   1  -8   7    7.12    0.80 
   1  -8   7    9.17    0.94 
   1  -8   7    8.29    0.73 
   1  -8   7    7.79    0.73 
  -2   8  -7    0.05    0.64 
  -2   8  -7    0.49    0.59 
   2  -8   7   -0.09    0.40 
   2  -8   7    0.12    0.41 
   2  -8   7    0.64    0.43 
   2  -8   7    0.58    0.44 
   2  -8   7    0.88    0.57 
   2  -8   7   -0.92    0.56 
  -3   8  -7   30.88    1.45 
   3  -8   7   33.00    1.59 
   3  -8   7   30.43    1.62 
   3  -8   7   33.50    1.30 
   3  -8   7   31.99    1.52 
   3  -8   7   30.67    1.40 
   3  -8   7   31.96    1.41 
  -4   8  -7    3.59    0.72 
   4  -8   7    1.64    0.78 
   4  -8   7    2.89    0.75 
   4  -8   7    1.91    0.97 
   4  -8   7    1.28    0.65 
   4  -8   7    2.28    0.62 
  -5   8  -7   40.37    1.78 
   5  -8   7   38.89    1.87 
   5  -8   7   42.31    2.16 
   5  -8   7   41.03    1.78 
   5  -8   7   41.03    1.98 
  -6   8  -7    3.00    0.99 
   6  -8   7    2.13    0.91 
   6  -8   7    1.91    0.67 
   6  -8   7    1.83    0.69 
  -7   8  -7    1.47    0.98 
   7  -8   7    0.21    0.85 
   7  -8   7    2.61    1.29 
   7  -8   7    0.84    0.77 
  10   7  -7    7.41    1.39 
  10   7  -7    8.09    1.21 
 -10  -7   7   12.06    1.96 
 -10  -7   7    9.58    1.58 
 -10  -7   7   12.04    1.60 
   9   7  -7    3.58    0.96 
  -9  -7   7    5.00    1.13 
  -9  -7   7    2.09    0.93 
  -9  -7   7    4.26    0.89 
   8   7  -7   -0.27    0.70 
   8   7  -7    1.95    0.70 
  -8  -7   7    0.55    0.67 
  -8  -7   7   -0.65    0.76 
  -8  -7   7    0.67    1.21 
   7   7  -7    2.19    0.65 
  -7  -7   7    1.80    0.89 
  -7  -7   7    1.39    0.72 
  -7  -7   7    1.69    0.44 
   6   7  -7    9.38    1.09 
  -6  -7   7    8.60    1.06 
  -6  -7   7    7.98    1.10 
  -6  -7   7    8.94    0.78 
   5   7  -7   10.75    0.93 
   5   7  -7    9.80    1.00 
  -5  -7   7    9.62    0.95 
  -5  -7   7    8.44    0.84 
  -5  -7   7   11.89    1.10 
   4   7  -7    0.50    0.70 
   4   7  -7    0.48    0.60 
   4   7  -7   -0.01    0.40 
  -4  -7   7   -0.33    0.46 
  -4  -7   7    0.82    0.45 
  -4  -7   7    0.64    0.43 
   3   7  -7    0.91    0.59 
   3   7  -7    1.42    0.61 
  -3  -7   7    0.29    0.51 
  -3  -7   7    0.84    0.58 
  -3  -7   7    0.78    0.37 
   2   7  -7    9.03    0.90 
  -2  -7   7   10.58    0.81 
  -2  -7   7   11.79    0.86 
  -2  -7   7   12.28    0.75 
   1   7  -7   47.06    1.25 
   1   7  -7   46.54    1.79 
  -1  -7   7   46.08    1.44 
  -1  -7   7   44.94    1.63 
  -1  -7   7   45.88    1.62 
  -1  -7   7   45.53    1.69 
   0   7  -7    7.93    0.99 
   0   7  -7    8.51    0.72 
   0  -7   7    8.34    0.70 
   0  -7   7    9.17    0.90 
   0  -7   7    9.63    0.95 
   0  -7   7    9.11    0.79 
   0  -7   7    7.80    0.74 
  -1   7  -7   51.06    1.70 
   1  -7   7   47.74    1.78 
   1  -7   7   48.93    1.68 
   1  -7   7   51.05    1.67 
   1  -7   7   49.32    1.57 
   1  -7   7   49.96    1.52 
   1  -7   7   49.87    1.50 
   1  -7   7   46.96    1.61 
  -2   7  -7    0.93    0.46 
   2  -7   7    0.79    0.61 
   2  -7   7    0.85    0.38 
   2  -7   7    0.43    0.46 
   2  -7   7    0.11    0.48 
   2  -7   7    0.07    0.41 
   2  -7   7    0.77    0.50 
  -3   7  -7    5.22    0.74 
   3  -7   7    6.80    0.87 
   3  -7   7    7.06    0.69 
   3  -7   7    5.75    0.70 
   3  -7   7    6.31    0.79 
   3  -7   7    6.17    0.76 
   3  -7   7    6.36    0.80 
   3  -7   7    6.72    1.00 
  -4   7  -7    2.50    0.74 
  -4   7  -7    3.25    0.58 
   4  -7   7    2.59    0.67 
   4  -7   7    2.71    0.68 
   4  -7   7    3.14    0.56 
   4  -7   7    2.62    0.72 
   4  -7   7    2.68    0.60 
  -5   7  -7   46.09    1.78 
   5  -7   7   47.38    2.07 
   5  -7   7   44.78    1.99 
   5  -7   7   45.51    2.18 
  -6   7  -7    7.07    1.20 
  -6   7  -7    5.45    0.97 
   6  -7   7    5.07    0.80 
   6  -7   7    7.91    1.19 
   6  -7   7    4.73    0.93 
  -7   7  -7    3.63    0.93 
   7  -7   7    3.37    0.81 
   7  -7   7    3.50    0.96 
   7  -7   7    3.24    1.33 
  -8   7  -7    3.12    1.07 
   8  -7   7    2.65    0.97 
   8  -7   7    2.33    1.02 
  11   6  -7    2.64    1.09 
  11   6  -7    2.67    0.85 
 -11  -6   7    2.45    1.09 
 -11  -6   7    1.05    1.19 
  10   6  -7   22.68    1.83 
  10   6  -7   22.50    1.50 
 -10  -6   7   21.53    1.95 
 -10  -6   7   19.69    1.69 
   9   6  -7   -0.17    0.68 
   9   6  -7    0.99    0.80 
  -9  -6   7    0.77    0.61 
  -9  -6   7   -0.14    0.92 
  -9  -6   7    0.94    0.76 
   8   6  -7    2.67    0.66 
  -8  -6   7    1.99    0.77 
  -8  -6   7    1.62    0.70 
  -8  -6   7    3.30    1.00 
   7   6  -7   14.09    1.31 
   7   6  -7   16.07    1.17 
  -7  -6   7   16.52    1.22 
  -7  -6   7   16.65    1.00 
   6   6  -7    0.15    0.56 
   6   6  -7    0.31    0.55 
   6   6  -7    0.20    0.70 
  -6  -6   7    0.43    0.56 
  -6  -6   7   -0.49    0.36 
  -6  -6   7   -0.10    0.63 
   5   6  -7   65.36    2.07 
   5   6  -7   71.60    1.89 
   5   6  -7   62.78    2.15 
  -5  -6   7   66.25    2.19 
  -5  -6   7   67.50    2.09 
  -5  -6   7   66.75    1.96 
   4   6  -7   70.52    2.18 
   4   6  -7   74.29    2.29 
  -4  -6   7   74.90    2.15 
  -4  -6   7   69.75    2.14 
  -4  -6   7   73.45    1.99 
   3   6  -7   59.62    2.00 
   3   6  -7   57.61    1.89 
  -3  -6   7   54.59    1.73 
  -3  -6   7   58.94    1.96 
  -3  -6   7   56.83    1.68 
   2   6  -7    0.24    0.43 
   2   6  -7    0.28    0.44 
  -2  -6   7    0.30    0.37 
  -2  -6   7    1.54    0.54 
  -2  -6   7    0.46    0.43 
   1   6  -7    0.73    0.49 
  -1  -6   7    0.86    0.42 
  -1  -6   7    1.20    0.52 
  -1  -6   7    0.55    0.38 
   0   6  -7   65.32    1.92 
   0  -6   7   67.18    1.98 
   0  -6   7   62.17    1.93 
   0  -6   7   64.72    1.67 
   0  -6   7   67.73    1.74 
   0  -6   7   67.37    1.88 
  -1   6  -7   94.58    2.41 
   1  -6   7   91.79    2.45 
   1  -6   7   95.99    2.29 
   1  -6   7   90.91    2.50 
   1  -6   7   94.69    2.34 
   1  -6   7   92.42    2.35 
   1  -6   7   93.27    2.43 
  -2   6  -7    2.88    0.49 
   2  -6   7    2.61    0.50 
   2  -6   7    2.59    0.58 
   2  -6   7    2.57    0.44 
   2  -6   7    2.62    0.60 
   2  -6   7    2.78    0.56 
   2  -6   7    2.10    0.45 
  -3   6  -7    4.20    0.71 
  -3   6  -7    4.72    0.75 
   3  -6   7    3.98    0.64 
   3  -6   7    4.04    0.73 
   3  -6   7    4.35    0.77 
   3  -6   7    4.36    0.75 
   3  -6   7    3.71    0.76 
  -4   6  -7   39.36    1.36 
  -4   6  -7   38.44    1.36 
  -4   6  -7   40.19    1.54 
   4  -6   7   39.91    1.64 
   4  -6   7   39.55    1.69 
   4  -6   7   40.14    1.69 
   4  -6   7   41.52    1.85 
   4  -6   7   39.78    1.91 
  -5   6  -7   42.59    2.99 
  -5   6  -7   45.53    1.79 
   5  -6   7   48.37    1.99 
   5  -6   7   49.36    1.93 
   5  -6   7   49.06    2.25 
  -6   6  -7    3.14    0.83 
  -6   6  -7    2.92    0.95 
   6  -6   7    2.78    0.67 
   6  -6   7    4.17    0.96 
   6  -6   7    5.08    1.07 
  -7   6  -7    0.15    0.86 
   7  -6   7    1.49    1.14 
   7  -6   7    1.28    0.96 
   7  -6   7   -0.61    0.89 
  -8   6  -7    3.93    1.01 
   8  -6   7    4.90    1.20 
   8  -6   7    3.72    1.15 
   8  -6   7    5.01    1.07 
  11   5  -7    1.38    0.88 
  11   5  -7    0.14    1.12 
 -11  -5   7   -0.81    0.87 
 -11  -5   7    2.07    0.82 
  10   5  -7    4.17    0.95 
  10   5  -7    3.30    0.97 
 -10  -5   7    3.17    0.79 
   9   5  -7    5.28    1.11 
   9   5  -7    5.42    0.94 
  -9  -5   7    4.35    0.92 
  -9  -5   7    4.69    0.86 
   8   5  -7   18.94    1.45 
   8   5  -7   20.38    1.23 
  -8  -5   7   17.79    1.29 
  -8  -5   7   21.30    1.67 
  -8  -5   7   16.68    1.24 
   7   5  -7   58.18    1.81 
   7   5  -7   48.34    2.20 
   7   5  -7   52.03    1.96 
  -7  -5   7   53.73    1.74 
  -7  -5   7   50.46    1.95 
  -7  -5   7   51.40    1.87 
   6   5  -7    6.08    0.76 
   6   5  -7    6.52    1.06 
   6   5  -7    7.29    0.96 
  -6  -5   7    5.81    0.96 
  -6  -5   7    6.09    0.73 
  -6  -5   7    6.83    0.61 
   5   5  -7   57.01    1.98 
   5   5  -7   55.60    1.87 
  -5  -5   7   53.64    1.73 
  -5  -5   7   56.53    1.91 
  -5  -5   7   56.97    1.76 
   4   5  -7   85.80    2.44 
   4   5  -7   85.32    2.37 
  -4  -5   7   83.56    2.22 
  -4  -5   7   89.49    2.36 
  -4  -5   7   85.70    2.40 
   3   5  -7   48.31    1.69 
   3   5  -7   49.29    1.70 
  -3  -5   7   44.75    1.46 
  -3  -5   7   48.12    1.52 
  -3  -5   7   44.84    1.56 
   2   5  -7  111.15    2.76 
   2   5  -7  111.40    2.79 
  -2  -5   7  110.06    2.74 
  -2  -5   7  108.40    2.76 
  -2  -5   7  112.50    2.67 
   1   5  -7    1.18    0.54 
   1   5  -7    1.04    0.48 
  -1  -5   7    0.77    0.43 
  -1  -5   7    1.00    0.23 
  -1  -5   7    0.91    0.47 
  -1  -5   7    0.11    0.34 
   0   5  -7   35.40    1.29 
   0   5  -7   36.70    1.33 
   0  -5   7   36.84    1.13 
   0  -5   7   35.84    1.18 
   0  -5   7   34.43    1.26 
   0  -5   7   34.14    1.34 
   0  -5   7   34.94    1.28 
  -1   5  -7   81.13    2.13 
  -1   5  -7   81.52    2.14 
   1  -5   7   80.18    2.21 
   1  -5   7   78.64    2.13 
   1  -5   7   78.80    2.29 
   1  -5   7   82.67    2.15 
   1  -5   7   83.92    2.23 
  -2   5  -7   53.83    1.59 
  -2   5  -7   51.62    1.57 
   2  -5   7   52.10    1.72 
   2  -5   7   53.05    1.78 
   2  -5   7   52.99    1.78 
   2  -5   7   52.55    1.82 
   2  -5   7   53.86    1.58 
   2  -5   7   53.50    1.77 
  -3   5  -7    0.58    0.39 
  -3   5  -7    0.09    0.55 
  -3   5  -7    0.37    0.51 
   3  -5   7    0.20    0.59 
   3  -5   7    0.51    0.41 
   3  -5   7    0.64    0.45 
   3  -5   7    0.47    0.47 
   3  -5   7    0.69    0.37 
  -4   5  -7   40.43    1.29 
  -4   5  -7   40.36    1.57 
   4  -5   7   40.93    1.79 
   4  -5   7   41.01    1.76 
   4  -5   7   41.42    1.68 
   4  -5   7   39.90    1.71 
   4  -5   7   43.19    1.65 
  -5   5  -7   19.51    1.27 
   5  -5   7   19.78    1.32 
   5  -5   7   21.82    1.45 
   5  -5   7   21.41    1.55 
  -6   5  -7   58.17    1.99 
  -6   5  -7   57.79    2.38 
   6  -5   7   57.07    2.28 
   6  -5   7   60.04    2.44 
  -7   5  -7    8.84    1.23 
   7  -5   7    6.87    1.25 
   7  -5   7   12.60    1.66 
   7  -5   7   10.36    1.32 
  -8   5  -7   -0.65    1.06 
   8  -5   7    1.32    1.16 
   8  -5   7    0.99    1.03 
   8  -5   7    2.51    1.30 
  11   4  -7   12.21    1.60 
  11   4  -7    8.70    1.40 
 -11  -4   7    9.37    1.55 
 -11  -4   7   12.24    1.62 
  10   4  -7    3.17    0.83 
  10   4  -7    1.63    1.18 
 -10  -4   7    3.61    0.96 
 -10  -4   7    3.29    1.04 
   9   4  -7    1.66    0.70 
   9   4  -7    0.54    0.68 
  -9  -4   7    0.98    0.68 
  -9  -4   7   -0.12    0.72 
  -9  -4   7    0.79    0.88 
   8   4  -7   49.70    1.97 
   8   4  -7   52.13    1.91 
  -8  -4   7   48.37    2.03 
  -8  -4   7   49.56    1.78 
  -8  -4   7   49.30    1.73 
   7   4  -7   56.72    1.82 
   7   4  -7   58.01    2.13 
   7   4  -7   55.71    2.02 
  -7  -4   7   55.37    1.90 
  -7  -4   7   56.68    1.76 
  -7  -4   7   53.73    1.94 
   6   4  -7   17.08    1.25 
   6   4  -7   16.77    1.11 
   6   4  -7   17.27    1.05 
  -6  -4   7   17.29    0.91 
  -6  -4   7   15.72    1.16 
  -6  -4   7   15.50    1.11 
   5   4  -7   22.18    1.24 
   5   4  -7   21.34    1.18 
  -5  -4   7   20.02    0.95 
  -5  -4   7   18.89    1.12 
  -5  -4   7   20.43    1.04 
   4   4  -7   84.43    2.36 
   4   4  -7   81.41    2.24 
  -4  -4   7   83.85    2.31 
  -4  -4   7   83.12    2.20 
  -4  -4   7   84.87    2.21 
   3   4  -7  221.13    4.68 
   3   4  -7  213.66    4.63 
  -3  -4   7  207.14    4.49 
  -3  -4   7  211.15    4.52 
  -3  -4   7  212.56    4.61 
   2   4  -7  107.50    2.64 
   2   4  -7  111.97    2.73 
  -2  -4   7  113.52    2.65 
  -2  -4   7  109.80    2.67 
  -2  -4   7  107.58    2.69 
  -2  -4   7  112.88    2.25 
   1   4  -7   16.41    0.91 
   1   4  -7   17.12    0.90 
  -1  -4   7   17.06    0.68 
  -1  -4   7   15.90    0.91 
  -1  -4   7   15.53    0.80 
  -1  -4   7   16.59    0.81 
   0   4  -7   29.45    1.12 
   0   4  -7   30.58    1.13 
   0  -4   7   28.80    1.20 
   0  -4   7   30.09    1.04 
   0  -4   7   28.37    1.09 
   0  -4   7   28.78    1.14 
   0  -4   7   30.17    1.10 
  -1   4  -7  114.79    2.52 
  -1   4  -7  108.33    2.53 
   1  -4   7  105.62    2.75 
   1  -4   7  104.98    2.67 
   1  -4   7  103.69    2.64 
   1  -4   7  107.79    2.61 
   1  -4   7  107.42    2.66 
  -2   4  -7   75.49    1.93 
  -2   4  -7   74.87    2.13 
  -2   4  -7   78.18    1.98 
   2  -4   7   74.83    2.23 
   2  -4   7   76.44    2.20 
   2  -4   7   79.10    2.02 
   2  -4   7   75.74    2.17 
   2  -4   7   73.14    2.11 
  -3   4  -7   16.54    0.80 
  -3   4  -7   16.06    1.02 
   3  -4   7   15.99    0.96 
   3  -4   7   16.26    1.02 
   3  -4   7   16.55    1.11 
   3  -4   7   16.59    1.04 
   3  -4   7   16.60    1.10 
  -4   4  -7    0.72    0.33 
  -4   4  -7    1.37    0.46 
   4  -4   7    1.26    0.69 
   4  -4   7    1.64    0.67 
   4  -4   7    0.48    0.58 
   4  -4   7    1.60    0.43 
  -5   4  -7    1.57    0.57 
   5  -4   7    1.63    0.62 
   5  -4   7    1.58    0.97 
   5  -4   7    0.98    0.60 
  -6   4  -7   30.61    1.72 
  -6   4  -7   31.51    1.46 
   6  -4   7   31.77    1.79 
   6  -4   7   30.75    1.70 
  -7   4  -7    9.33    1.46 
   7  -4   7    7.40    1.16 
   7  -4   7    8.17    1.16 
  -8   4  -7    1.48    0.90 
   8  -4   7   -1.33    0.86 
   8  -4   7    1.56    1.21 
   8  -4   7    0.56    0.98 
  12   3  -7    4.08    1.50 
  12   3  -7    5.49    0.90 
 -12  -3   7    6.34    1.23 
 -12  -3   7    6.67    1.25 
  11   3  -7   29.26    1.85 
  11   3  -7   30.76    1.75 
 -11  -3   7   27.77    1.76 
 -11  -3   7   28.49    1.82 
  10   3  -7    2.05    1.01 
 -10  -3   7    1.96    0.97 
 -10  -3   7    1.82    0.90 
   9   3  -7    0.90    0.57 
   9   3  -7    0.41    0.64 
  -9  -3   7    0.02    0.74 
  -9  -3   7    1.54    0.53 
   8   3  -7   24.18    1.38 
   8   3  -7   26.18    1.41 
   8   3  -7   23.85    1.61 
  -8  -3   7   25.17    1.03 
  -8  -3   7   25.66    1.48 
  -8  -3   7   26.14    1.14 
  -8  -3   7   24.64    1.52 
  -8  -3   7   27.56    1.45 
   7   3  -7   32.45    1.31 
   7   3  -7   29.12    1.39 
   7   3  -7   30.59    1.56 
  -7  -3   7   30.58    1.19 
  -7  -3   7   30.38    0.91 
  -7  -3   7   30.93    1.39 
  -7  -3   7   29.20    1.33 
   6   3  -7   78.34    2.32 
   6   3  -7   76.68    2.25 
  -6  -3   7   73.51    2.18 
  -6  -3   7   71.21    1.54 
  -6  -3   7   72.73    2.11 
  -6  -3   7   75.65    2.02 
   5   3  -7   15.96    0.96 
   5   3  -7   15.71    0.93 
  -5  -3   7   17.65    0.98 
  -5  -3   7   16.93    0.94 
  -5  -3   7   17.65    0.91 
   4   3  -7    1.85    0.49 
   4   3  -7    1.42    0.47 
  -4  -3   7    1.25    0.36 
  -4  -3   7    1.11    0.36 
  -4  -3   7    1.49    0.41 
   3   3  -7   15.26    0.90 
   3   3  -7   14.37    0.82 
  -3  -3   7   15.89    0.52 
  -3  -3   7   15.34    0.79 
  -3  -3   7   16.11    0.80 
  -3  -3   7   15.16    0.83 
   2   3  -7  132.26    3.03 
   2   3  -7  133.62    3.07 
  -2  -3   7  129.52    2.68 
  -2  -3   7  127.77    3.00 
  -2  -3   7  133.90    3.02 
  -2  -3   7  127.50    3.00 
   1   3  -7    0.82    0.44 
   1   3  -7    0.52    0.32 
  -1  -3   7    0.62    0.29 
  -1  -3   7    0.79    0.35 
  -1  -3   7    0.17    0.31 
  -1  -3   7    0.29    0.29 
  -1  -3   7   -0.02    0.27 
   0   3  -7    0.11    0.33 
   0   3  -7    0.26    0.36 
   0  -3   7   -0.53    0.34 
   0  -3   7   -0.17    0.38 
   0  -3   7    0.25    0.34 
   0  -3   7    0.52    0.34 
  -1   3  -7   78.28    1.94 
  -1   3  -7   80.21    2.15 
  -1   3  -7   78.83    2.14 
   1  -3   7   78.09    2.20 
   1  -3   7   75.86    2.11 
   1  -3   7   78.52    2.09 
   1  -3   7   74.65    2.05 
  -2   3  -7    8.55    0.74 
  -2   3  -7    9.33    0.64 
   2  -3   7    8.49    0.86 
   2  -3   7   10.71    0.71 
   2  -3   7    8.07    0.77 
   2  -3   7    8.64    0.74 
   2  -3   7    7.46    0.83 
  -3   3  -7   34.17    1.32 
  -3   3  -7   35.03    1.03 
   3  -3   7   33.07    1.45 
   3  -3   7   33.09    1.40 
   3  -3   7   32.75    1.36 
   3  -3   7   35.22    1.54 
   3  -3   7   33.80    1.43 
  -4   3  -7    3.81    0.74 
  -4   3  -7    3.22    0.68 
   4  -3   7    3.19    0.69 
   4  -3   7    1.90    0.70 
   4  -3   7    3.47    0.66 
   4  -3   7    3.70    0.80 
  -5   3  -7   14.62    1.02 
   5  -3   7   10.79    1.15 
   5  -3   7   10.94    1.81 
   5  -3   7   12.30    1.25 
  -6   3  -7    0.68    0.61 
  -6   3  -7    0.67    0.83 
   6  -3   7    1.00    0.95 
   6  -3   7    0.66    0.75 
  -7   3  -7    7.55    1.11 
   7  -3   7    9.54    1.63 
   7  -3   7    8.86    1.20 
  -8   3  -7   -1.56    0.85 
   8  -3   7   -0.30    0.90 
   8  -3   7   -0.38    1.09 
   8  -3   7   -0.88    0.92 
  12   2  -7    6.55    1.06 
  12   2  -7    6.44    1.38 
 -12  -2   7    5.35    1.27 
 -12  -2   7    5.93    1.12 
  11   2  -7   10.76    1.61 
  11   2  -7   11.87    1.52 
 -11  -2   7   11.05    1.40 
 -11  -2   7   12.28    1.39 
  10   2  -7    9.78    1.47 
  10   2  -7    9.20    1.23 
 -10  -2   7    8.94    1.28 
 -10  -2   7    8.64    1.43 
 -10  -2   7    9.66    1.07 
   9   2  -7   11.35    0.99 
   9   2  -7    9.82    1.22 
  -9  -2   7    7.87    1.11 
  -9  -2   7    7.68    1.62 
  -9  -2   7    9.08    0.85 
  -9  -2   7    9.45    0.92 
   8   2  -7   36.85    1.79 
   8   2  -7   38.75    1.44 
   8   2  -7   35.79    1.61 
  -8  -2   7   37.19    1.69 
  -8  -2   7   38.82    1.32 
  -8  -2   7   37.08    1.33 
  -8  -2   7   36.70    1.69 
  -8  -2   7   40.10    1.29 
   7   2  -7   88.65    2.27 
   7   2  -7   92.08    2.66 
   7   2  -7   88.98    2.55 
  -7  -2   7   91.78    2.24 
  -7  -2   7   89.78    2.57 
  -7  -2   7   89.88    2.09 
  -7  -2   7   87.32    2.21 
  -7  -2   7   87.45    2.45 
   6   2  -7  117.40    3.01 
   6   2  -7  114.10    2.95 
  -6  -2   7  115.78    2.45 
  -6  -2   7  112.21    2.84 
  -6  -2   7  116.76    2.94 
  -6  -2   7  115.82    2.69 
   5   2  -7   59.69    1.90 
   5   2  -7   60.08    1.85 
  -5  -2   7   57.16    1.73 
  -5  -2   7   56.20    1.69 
  -5  -2   7   56.38    1.34 
  -5  -2   7   57.99    1.65 
   4   2  -7   -0.47    0.28 
   4   2  -7   -0.38    0.27 
  -4  -2   7   -0.19    0.41 
  -4  -2   7    0.13    0.17 
  -4  -2   7   -0.18    0.26 
  -4  -2   7    0.23    0.37 
   3   2  -7    1.32    0.44 
   3   2  -7    1.35    0.43 
  -3  -2   7    1.86    0.43 
  -3  -2   7    1.52    0.24 
  -3  -2   7    2.15    0.45 
  -3  -2   7    1.23    0.38 
   2   2  -7    8.58    0.69 
   2   2  -7    8.85    0.74 
  -2  -2   7    8.62    0.70 
  -2  -2   7    8.27    0.62 
  -2  -2   7    7.81    0.59 
  -2  -2   7    8.99    0.50 
   1   2  -7    0.97    0.41 
   1   2  -7    1.11    0.42 
   1   2  -7    1.10    0.38 
  -1  -2   7    0.46    0.36 
  -1  -2   7    1.02    0.31 
  -1  -2   7    1.17    0.23 
  -1  -2   7    1.29    0.39 
   0   2  -7   21.37    1.03 
   0   2  -7   22.34    0.90 
   0   2  -7   22.63    0.94 
   0  -2   7   21.59    0.96 
   0  -2   7   22.22    1.03 
   0  -2   7   22.23    1.07 
   0  -2   7   21.89    0.93 
  -1   2  -7   -0.31    0.34 
  -1   2  -7    0.10    0.23 
   1  -2   7    0.09    0.32 
   1  -2   7   -0.10    0.34 
   1  -2   7    0.16    0.38 
   1  -2   7   -0.43    0.32 
  -2   2  -7    4.65    0.53 
  -2   2  -7    4.32    0.58 
   2  -2   7    3.71    0.59 
   2  -2   7    4.80    0.83 
   2  -2   7    4.94    0.72 
   2  -2   7    3.74    0.62 
   2  -2   7    4.27    0.69 
  -3   2  -7   22.88    1.14 
  -3   2  -7   25.23    0.73 
   3  -2   7   22.76    1.34 
   3  -2   7   24.53    1.24 
   3  -2   7   22.63    1.24 
   3  -2   7   24.43    1.16 
  -4   2  -7   30.28    1.51 
  -4   2  -7   30.78    1.33 
   4  -2   7   32.16    1.54 
   4  -2   7   27.46    1.57 
   4  -2   7   30.81    1.45 
   4  -2   7   29.46    1.50 
  -5   2  -7    4.92    0.78 
   5  -2   7    5.28    1.02 
   5  -2   7    5.10    0.80 
  -6   2  -7    3.10    1.00 
  -6   2  -7    2.08    0.58 
   6  -2   7    1.06    0.81 
   6  -2   7    1.86    0.85 
   6  -2   7    1.45    0.90 
  -7   2  -7   14.38    1.68 
  -7   2  -7   10.82    1.64 
   7  -2   7   13.68    1.82 
   7  -2   7   15.01    1.55 
   7  -2   7    9.26    1.27 
  -8   2  -7   -1.07    1.01 
   8  -2   7   -0.60    1.04 
   8  -2   7    1.68    1.06 
   8  -2   7   -1.78    0.86 
  12   1  -7    4.74    0.97 
  12   1  -7    1.54    0.98 
 -12  -1   7    4.65    1.27 
 -12  -1   7    3.40    0.99 
  11   1  -7   11.92    1.60 
  11   1  -7   12.13    1.50 
 -11  -1   7   15.76    1.35 
 -11  -1   7   13.22    1.63 
 -11  -1   7   14.94    1.47 
  10   1  -7   29.47    1.70 
  10   1  -7   29.16    1.88 
 -10  -1   7   31.45    1.47 
 -10  -1   7   32.23    1.54 
 -10  -1   7   30.36    1.73 
 -10  -1   7   29.49    1.61 
   9   1  -7    0.03    0.86 
   9   1  -7    1.15    0.67 
   9   1  -7    0.29    0.73 
  -9  -1   7    0.83    0.88 
  -9  -1   7    0.14    0.46 
  -9  -1   7    0.16    0.68 
  -9  -1   7    0.12    0.54 
   8   1  -7   25.49    1.50 
   8   1  -7   23.83    1.35 
   8   1  -7   25.03    1.35 
  -8  -1   7   24.62    1.33 
  -8  -1   7   26.15    1.11 
  -8  -1   7   25.68    1.22 
  -8  -1   7   25.06    1.39 
   7   1  -7    6.68    0.82 
   7   1  -7    6.47    1.02 
   7   1  -7    6.21    0.72 
  -7  -1   7    7.06    0.90 
  -7  -1   7    6.36    0.93 
  -7  -1   7    5.96    0.83 
  -7  -1   7    6.79    0.70 
   6   1  -7   78.39    2.30 
   6   1  -7   71.89    2.14 
  -6  -1   7   77.89    2.00 
  -6  -1   7   75.36    2.05 
  -6  -1   7   71.39    2.13 
  -6  -1   7   74.89    1.88 
   5   1  -7   12.96    0.94 
   5   1  -7   13.09    0.92 
  -5  -1   7   13.09    0.85 
  -5  -1   7   13.90    0.93 
  -5  -1   7   13.58    0.69 
   4   1  -7    2.78    0.48 
   4   1  -7    3.67    0.62 
  -4  -1   7    4.00    0.62 
  -4  -1   7    3.51    0.44 
  -4  -1   7    2.72    0.42 
   3   1  -7   10.03    0.81 
   3   1  -7    9.42    0.71 
   3   1  -7    8.69    0.66 
  -3  -1   7    8.22    0.63 
  -3  -1   7    9.97    0.73 
  -3  -1   7    8.91    0.56 
   2   1  -7    0.23    0.36 
   2   1  -7    0.63    0.40 
  -2  -1   7    1.49    0.47 
  -2  -1   7    0.75    0.29 
  -2  -1   7    0.01    0.26 
  -2  -1   7    0.23    0.31 
   1   1  -7   50.10    1.46 
   1   1  -7   48.93    1.49 
   1   1  -7   50.42    1.47 
  -1  -1   7   47.31    1.48 
  -1  -1   7   50.35    1.52 
  -1  -1   7   49.83    1.46 
  -1  -1   7   50.01    1.53 
   0   1  -7   32.87    1.24 
   0   1  -7   34.38    1.14 
   0  -1   7   32.28    1.19 
   0  -1   7   35.12    1.26 
   0  -1   7   31.95    1.16 
   0  -1   7   31.91    1.23 
  -1   1  -7   18.99    0.79 
  -1   1  -7   18.27    0.92 
   1  -1   7   18.71    0.88 
   1  -1   7   21.51    1.06 
   1  -1   7   18.91    0.97 
   1  -1   7   18.77    1.05 
  -2   1  -7    6.03    0.83 
  -2   1  -7    5.61    0.51 
   2  -1   7    5.22    0.65 
   2  -1   7    5.50    0.70 
   2  -1   7    4.83    0.87 
   2  -1   7    4.86    0.70 
   2  -1   7    7.12    0.81 
  -3   1  -7   26.00    1.16 
  -3   1  -7   23.07    1.20 
   3  -1   7   24.56    1.24 
   3  -1   7   23.60    1.18 
   3  -1   7   25.03    1.34 
   3  -1   7   25.13    1.15 
  -4   1  -7   28.68    1.45 
  -4   1  -7   30.52    1.35 
   4  -1   7   31.06    1.48 
   4  -1   7   30.60    1.63 
   4  -1   7   29.91    1.48 
   4  -1   7   27.98    1.66 
  -5   1  -7   54.07    1.90 
  -5   1  -7   50.83    2.09 
   5  -1   7   52.58    2.03 
   5  -1   7   54.00    2.23 
  -6   1  -7    1.39    0.63 
   6  -1   7    0.80    0.80 
   6  -1   7    1.53    0.92 
   6  -1   7    2.58    0.94 
  -7   1  -7   -1.04    0.79 
   7  -1   7   -0.01    0.78 
   7  -1   7   -0.68    0.65 
  -8   1  -7   11.75    1.95 
   8  -1   7   10.60    1.55 
   8  -1   7   10.87    1.84 
   8  -1   7   10.60    1.47 
  12   0  -7   10.26    1.51 
  12   0  -7    9.16    1.55 
 -12   0   7   11.90    1.80 
 -12   0   7   11.46    1.34 
 -12   0   7   11.64    1.38 
  11   0  -7    5.71    1.19 
  11   0  -7    5.11    1.12 
 -11   0   7    7.31    1.19 
 -11   0   7    5.95    0.91 
 -11   0   7    5.17    0.85 
 -11   0   7    4.65    1.15 
  10   0  -7   18.68    1.57 
  10   0  -7   19.96    1.56 
 -10   0   7   20.17    1.38 
 -10   0   7   20.43    1.41 
 -10   0   7   19.96    1.54 
 -10   0   7   19.29    1.29 
   9   0  -7   16.48    1.30 
   9   0  -7   15.52    1.58 
   9   0  -7   16.75    1.35 
  -9   0   7   16.17    1.30 
  -9   0   7   16.93    1.14 
  -9   0   7   18.41    1.26 
  -9   0   7   13.45    1.44 
   8   0  -7   94.22    2.85 
   8   0  -7   92.68    2.68 
   8   0  -7   96.21    2.56 
  -8   0   7   96.80    2.61 
  -8   0   7   95.17    2.53 
  -8   0   7   97.47    2.49 
  -8   0   7   89.01    2.70 
   7   0  -7    0.89    0.40 
   7   0  -7   -0.31    0.48 
   7   0  -7   -0.24    0.45 
   7   0  -7    0.06    0.45 
  -7   0   7   -0.02    0.43 
  -7   0   7    0.27    0.42 
  -7   0   7    0.30    0.38 
  -7   0   7    0.36    0.50 
   6   0  -7    2.56    0.54 
   6   0  -7    2.55    0.58 
   6   0  -7    2.86    0.41 
  -6   0   7    3.38    0.58 
  -6   0   7    2.95    0.50 
  -6   0   7    3.78    0.48 
  -6   0   7    2.73    0.57 
   5   0  -7    0.46    0.41 
   5   0  -7    0.76    0.31 
   5   0  -7    0.84    0.48 
  -5   0   7    0.90    0.40 
  -5   0   7    0.64    0.36 
  -5   0   7    0.80    0.50 
   4   0  -7  133.23    2.89 
   4   0  -7  124.82    3.00 
   4   0  -7  129.44    3.08 
  -4   0   7  129.52    2.83 
  -4   0   7  117.92    2.96 
  -4   0   7  125.82    2.90 
  -4   0   7  125.58    2.94 
   3   0  -7    3.40    0.50 
   3   0  -7    2.55    0.43 
   3   0  -7    2.89    0.53 
  -3   0   7    2.24    0.40 
  -3   0   7    2.88    0.50 
  -3   0   7    3.16    0.48 
  -3   0   7    2.62    0.45 
   2   0  -7    0.82    0.38 
   2   0  -7    0.97    0.44 
   2   0  -7    0.88    0.33 
  -2   0   7    0.69    0.31 
  -2   0   7    1.49    0.41 
  -2   0   7    0.78    0.33 
  -2   0   7    0.96    0.32 
   1   0  -7  218.18    4.60 
   1   0  -7  218.12    4.53 
   1   0  -7  220.12    4.50 
  -1   0   7  214.00    4.56 
  -1   0   7  219.50    4.57 
  -1   0   7  221.30    4.68 
  -1   0   7  222.42    4.57 
   0   0  -7  200.89    3.99 
   0   0  -7  188.78    4.14 
   0   0   7  188.99    4.18 
   0   0   7  190.92    4.08 
   0   0   7  186.63    4.08 
   0   0   7  192.16    4.22 
  -1   0  -7   45.30    1.31 
  -1   0  -7   42.73    1.45 
   1   0   7   44.92    1.50 
   1   0   7   41.77    1.37 
   1   0   7   43.41    1.54 
   1   0   7   42.57    1.43 
  -2   0  -7   23.34    0.77 
  -2   0  -7   22.51    1.08 
  -2   0  -7   21.49    1.20 
   2   0   7   24.78    1.26 
   2   0   7   24.09    1.35 
   2   0   7   23.42    1.04 
   2   0   7   22.29    1.12 
  -3   0  -7    0.00    0.47 
  -3   0  -7    0.32    0.54 
   3   0   7   -0.56    0.36 
   3   0   7    0.56    0.48 
   3   0   7   -0.26    0.39 
  -4   0  -7   44.77    1.82 
  -4   0  -7   47.95    1.74 
   4   0   7   45.11    1.74 
   4   0   7   48.40    1.86 
   4   0   7   47.32    1.93 
  -5   0  -7   84.30    2.74 
  -5   0  -7   82.66    2.47 
   5   0   7   86.61    2.87 
   5   0   7   87.52    2.83 
  -6   0  -7    9.40    1.05 
  -6   0  -7    7.29    1.17 
   6   0   7    8.07    1.24 
   6   0   7    7.56    1.15 
   6   0   7    7.59    1.21 
  -7   0  -7   -0.89    0.92 
   7   0   7    1.93    0.96 
   7   0   7   -0.07    0.81 
   7   0   7   -0.15    0.75 
  -8   0  -7   10.89    1.48 
   8   0   7   17.34    2.13 
   8   0   7   14.58    1.85 
  12  -1  -7   13.87    1.60 
  12  -1  -7   13.80    1.64 
 -12   1   7   12.91    1.44 
 -12   1   7   14.05    1.68 
 -12   1   7   14.19    1.81 
  11  -1  -7    1.12    0.93 
  11  -1  -7    1.26    0.95 
 -11   1   7    2.03    0.97 
 -11   1   7    2.29    0.80 
 -11   1   7    2.38    1.10 
  10  -1  -7    0.67    0.80 
  10  -1  -7    0.62    0.74 
 -10   1   7    0.36    0.69 
 -10   1   7    0.36    0.84 
 -10   1   7   -0.77    0.71 
 -10   1   7    0.94    0.64 
   9  -1  -7   16.46    1.10 
   9  -1  -7   20.83    1.24 
  -9   1   7   18.42    1.27 
  -9   1   7   17.70    1.28 
  -9   1   7   16.81    1.56 
  -9   1   7   18.37    1.09 
   8  -1  -7   25.37    1.32 
   8  -1  -7   26.52    1.32 
   8  -1  -7   23.97    1.43 
  -8   1   7   27.47    1.11 
  -8   1   7   26.25    1.30 
  -8   1   7   26.21    1.28 
  -8   1   7   24.68    1.37 
   7  -1  -7    7.69    0.79 
   7  -1  -7    7.27    0.86 
   7  -1  -7    6.77    1.04 
  -7   1   7    7.01    0.77 
  -7   1   7    7.17    0.94 
  -7   1   7    6.51    0.79 
  -7   1   7    7.20    0.70 
   6  -1  -7    1.12    0.43 
   6  -1  -7    1.22    0.52 
   6  -1  -7    2.33    0.50 
   6  -1  -7    2.32    0.42 
  -6   1   7    2.32    0.42 
  -6   1   7    1.95    0.44 
  -6   1   7    1.70    0.51 
   5  -1  -7   10.81    0.78 
   5  -1  -7    9.26    0.77 
   5  -1  -7   11.89    0.65 
  -5   1   7    9.53    0.92 
  -5   1   7   11.32    0.78 
  -5   1   7   10.46    0.81 
  -5   1   7   10.33    0.86 
   4  -1  -7  158.11    3.60 
   4  -1  -7  149.79    3.51 
   4  -1  -7  156.76    3.36 
  -4   1   7  153.25    3.40 
  -4   1   7  149.01    3.42 
  -4   1   7  155.32    3.49 
   3  -1  -7  201.38    4.20 
   3  -1  -7  201.87    4.32 
   3  -1  -7  195.05    4.26 
  -3   1   7  197.72    4.19 
  -3   1   7  198.82    4.28 
  -3   1   7  192.35    4.17 
   2  -1  -7   45.01    1.39 
   2  -1  -7   44.33    1.37 
   2  -1  -7   44.94    1.46 
  -2   1   7   43.23    1.38 
  -2   1   7   42.82    1.47 
  -2   1   7   44.34    1.35 
  -2   1   7   42.42    1.32 
   1  -1  -7   81.42    2.14 
   1  -1  -7   82.77    2.09 
   1  -1  -7   82.71    2.09 
  -1   1   7   80.81    2.05 
  -1   1   7   82.50    2.19 
  -1   1   7   81.26    2.25 
  -1   1   7   81.15    2.07 
   0  -1  -7   63.58    1.86 
   0  -1  -7   65.98    1.71 
   0   1   7   66.42    1.96 
   0   1   7   63.22    1.81 
   0   1   7   64.32    1.77 
   0   1   7   63.96    1.93 
  -1  -1  -7  331.57    6.33 
  -1  -1  -7  327.49    6.70 
  -1  -1  -7  323.95    6.68 
   1   1   7  327.12    6.57 
   1   1   7  328.88    6.81 
   1   1   7  323.52    6.81 
   1   1   7  333.32    6.57 
  -2  -1  -7  116.10    2.37 
  -2  -1  -7  114.03    2.94 
  -2  -1  -7  113.04    2.87 
   2   1   7  111.62    2.79 
   2   1   7  109.26    2.78 
   2   1   7  116.72    3.10 
   2   1   7  110.83    3.00 
  -3  -1  -7   11.36    0.99 
  -3  -1  -7   13.30    1.01 
   3   1   7   11.79    1.00 
   3   1   7    9.62    0.93 
   3   1   7   11.89    0.90 
   3   1   7   10.94    1.05 
  -4  -1  -7   23.94    1.54 
  -4  -1  -7   22.38    1.35 
   4   1   7   21.46    1.51 
   4   1   7   21.30    1.15 
   4   1   7   21.21    1.34 
  -5  -1  -7   13.13    1.18 
  -5  -1  -7   12.52    1.54 
   5   1   7   13.72    1.33 
   5   1   7   12.91    1.35 
  -6  -1  -7    5.52    0.94 
  -6  -1  -7    8.80    1.50 
   6   1   7    4.64    0.96 
   6   1   7    6.41    1.08 
   6   1   7    7.11    1.28 
  -7  -1  -7    0.86    0.86 
  -7  -1  -7    3.97    1.20 
   7   1   7   -0.25    0.85 
   7   1   7   -0.43    0.96 
   7   1   7    0.55    0.93 
  -8  -1  -7    4.68    1.40 
   8   1   7    0.36    0.81 
   8   1   7    1.39    1.14 
  12  -2  -7   15.60    1.68 
  12  -2  -7   13.65    1.52 
 -12   2   7   16.12    1.86 
 -12   2   7   14.92    1.51 
  11  -2  -7   18.18    1.63 
  11  -2  -7   20.96    1.58 
 -11   2   7   20.65    1.58 
 -11   2   7   19.55    1.64 
 -11   2   7   24.09    1.43 
  10  -2  -7    0.34    0.74 
  10  -2  -7   -0.20    0.75 
 -10   2   7    1.12    0.67 
 -10   2   7    0.03    0.76 
 -10   2   7    1.78    0.90 
 -10   2   7    0.74    0.79 
   9  -2  -7   16.06    1.27 
   9  -2  -7   13.27    1.09 
  -9   2   7   15.43    1.05 
  -9   2   7   13.77    1.08 
  -9   2   7   14.48    1.30 
   8  -2  -7   67.89    2.28 
   8  -2  -7   68.37    2.10 
   8  -2  -7   68.12    2.35 
  -8   2   7   66.03    2.22 
  -8   2   7   67.30    2.17 
  -8   2   7   69.08    2.27 
  -8   2   7   66.78    1.85 
   7  -2  -7   62.65    1.87 
   7  -2  -7   59.78    2.04 
   7  -2  -7   60.56    2.08 
  -7   2   7   58.92    2.02 
  -7   2   7   59.99    1.68 
  -7   2   7   61.39    1.91 
  -7   2   7   60.05    1.93 
   6  -2  -7   31.33    1.40 
   6  -2  -7   28.39    1.26 
   6  -2  -7   28.66    1.04 
   6  -2  -7   29.38    1.17 
  -6   2   7   29.57    1.28 
  -6   2   7   25.64    1.18 
  -6   2   7   28.49    1.35 
   5  -2  -7    5.42    0.82 
   5  -2  -7    4.41    0.64 
   5  -2  -7    5.81    0.64 
  -5   2   7    4.33    0.66 
  -5   2   7    4.32    0.77 
  -5   2   7    5.57    0.74 
   4  -2  -7   92.99    2.46 
   4  -2  -7   97.96    2.33 
   4  -2  -7   95.86    2.53 
  -4   2   7   97.44    2.42 
  -4   2   7   94.55    2.47 
  -4   2   7   94.44    2.36 
   3  -2  -7  193.71    4.14 
   3  -2  -7  191.57    4.23 
   3  -2  -7  197.22    4.28 
  -3   2   7  196.47    4.23 
  -3   2   7  192.30    4.11 
  -3   2   7  194.83    4.30 
   2  -2  -7   58.81    1.66 
   2  -2  -7   59.66    1.74 
   2  -2  -7   57.61    1.68 
  -2   2   7   57.28    1.74 
  -2   2   7   58.35    1.83 
  -2   2   7   59.03    1.57 
  -2   2   7   58.18    1.64 
   1  -2  -7   17.84    1.02 
   1  -2  -7   17.33    0.86 
   1  -2  -7   16.91    0.88 
  -1   2   7   16.11    0.99 
  -1   2   7   17.11    0.85 
  -1   2   7   18.17    1.07 
  -1   2   7   16.31    0.82 
   0  -2  -7   10.21    0.76 
   0  -2  -7    9.83    0.68 
   0  -2  -7    9.78    0.84 
   0  -2  -7    9.85    0.80 
   0   2   7    9.78    0.83 
   0   2   7    9.85    0.70 
   0   2   7   11.87    0.98 
   0   2   7    9.22    0.77 
  -1  -2  -7  107.15    2.72 
  -1  -2  -7  101.28    2.69 
  -1  -2  -7  106.69    2.39 
   1   2   7  107.21    2.89 
   1   2   7  109.13    2.91 
   1   2   7  106.94    2.63 
   1   2   7  105.90    2.58 
  -2  -2  -7   21.51    1.15 
  -2  -2  -7   22.43    1.25 
  -2  -2  -7   18.07    0.93 
   2   2   7   20.11    1.18 
   2   2   7   22.26    1.18 
   2   2   7   22.17    0.97 
   2   2   7   17.97    1.06 
  -3  -2  -7   12.10    1.21 
  -3  -2  -7   12.87    1.05 
   3   2   7   14.57    1.41 
   3   2   7   13.24    1.02 
   3   2   7   14.84    1.24 
   3   2   7   13.04    0.88 
  -4  -2  -7   -0.47    0.69 
  -4  -2  -7    0.00    0.57 
   4   2   7   -0.39    0.55 
   4   2   7    0.19    0.61 
   4   2   7   -0.45    0.67 
  -5  -2  -7   29.64    1.88 
  -5  -2  -7   29.81    1.60 
   5   2   7   26.89    1.75 
   5   2   7   28.83    1.73 
  -6  -2  -7    7.63    1.25 
  -6  -2  -7    8.10    1.31 
   6   2   7    7.29    1.30 
   6   2   7    7.06    1.10 
   6   2   7    7.35    1.37 
  -7  -2  -7   25.10    1.82 
  -7  -2  -7   25.98    1.80 
   7   2   7   26.76    2.05 
   7   2   7   25.94    1.94 
   7   2   7   28.01    1.72 
  12  -3  -7    3.00    1.12 
  12  -3  -7    2.26    0.84 
 -12   3   7    1.60    1.06 
 -12   3   7    3.77    1.24 
  11  -3  -7   16.43    1.55 
  11  -3  -7   17.23    1.64 
 -11   3   7   18.68    1.61 
 -11   3   7   22.06    1.74 
  10  -3  -7    8.06    1.45 
 -10   3   7    6.54    1.12 
 -10   3   7    6.96    1.17 
   9  -3  -7    2.22    0.80 
   9  -3  -7    1.46    0.77 
  -9   3   7    2.15    0.78 
  -9   3   7    1.42    0.77 
  -9   3   7    2.71    0.61 
   8  -3  -7   10.41    1.23 
   8  -3  -7    8.86    0.98 
   8  -3  -7   11.25    1.08 
  -8   3   7    9.45    1.11 
  -8   3   7    9.84    0.96 
  -8   3   7   10.28    1.20 
  -8   3   7    9.35    1.05 
   7  -3  -7  172.55    3.92 
   7  -3  -7  166.69    4.15 
   7  -3  -7  166.46    4.10 
  -7   3   7  170.59    4.01 
  -7   3   7  164.67    4.09 
  -7   3   7  168.74    3.99 
   6  -3  -7   29.37    1.38 
   6  -3  -7   31.09    1.13 
   6  -3  -7   28.34    1.03 
   6  -3  -7   29.40    1.45 
  -6   3   7   28.12    1.27 
  -6   3   7   29.45    1.37 
  -6   3   7   28.65    1.40 
   5  -3  -7    1.94    0.48 
   5  -3  -7    2.05    0.58 
   5  -3  -7    2.17    0.45 
   5  -3  -7    1.68    0.53 
  -5   3   7    1.62    0.45 
  -5   3   7    3.07    0.65 
  -5   3   7    1.62    0.58 
   4  -3  -7   36.07    1.29 
   4  -3  -7   38.47    1.51 
   4  -3  -7   37.59    1.47 
  -4   3   7   35.02    1.29 
  -4   3   7   35.32    1.40 
  -4   3   7   36.72    1.39 
   3  -3  -7   62.98    1.82 
   3  -3  -7   64.82    1.90 
   3  -3  -7   65.43    1.93 
  -3   3   7   64.37    1.94 
  -3   3   7   62.00    1.98 
  -3   3   7   63.42    1.74 
   2  -3  -7   79.35    2.13 
   2  -3  -7   80.78    2.20 
   2  -3  -7   80.69    2.17 
  -2   3   7   80.04    2.34 
  -2   3   7   82.48    2.31 
  -2   3   7   81.23    2.07 
  -2   3   7   85.68    2.30 
  -2   3   7   84.51    2.12 
   1  -3  -7   21.16    1.02 
   1  -3  -7   21.70    0.96 
   1  -3  -7   19.68    1.01 
   1  -3  -7   22.29    0.94 
  -1   3   7   21.00    0.91 
  -1   3   7   19.70    1.08 
  -1   3   7   22.17    1.23 
  -1   3   7   22.21    0.91 
   0  -3  -7    4.86    0.61 
   0  -3  -7    6.10    0.79 
   0  -3  -7    5.31    0.68 
   0  -3  -7    4.90    0.64 
   0   3   7    3.88    0.59 
   0   3   7    4.13    0.61 
   0   3   7    5.44    0.83 
   0   3   7    3.55    0.58 
  -1  -3  -7    1.21    0.47 
  -1  -3  -7    0.79    0.49 
  -1  -3  -7    0.78    0.33 
  -1  -3  -7    1.38    0.45 
   1   3   7    0.79    0.47 
   1   3   7    1.00    0.59 
   1   3   7    0.80    0.35 
   1   3   7   -0.04    0.43 
  -2  -3  -7    2.18    0.40 
  -2  -3  -7    2.29    0.63 
  -2  -3  -7    2.66    0.65 
   2   3   7    2.25    0.66 
   2   3   7    2.37    0.72 
   2   3   7    2.38    0.55 
   2   3   7    4.17    0.91 
  -3  -3  -7    8.59    1.20 
  -3  -3  -7    8.97    0.67 
  -3  -3  -7    8.08    1.06 
   3   3   7    8.05    0.78 
   3   3   7    7.32    0.99 
   3   3   7    6.19    1.12 
  -4  -3  -7    0.33    0.67 
  -4  -3  -7    0.85    0.86 
   4   3   7    0.27    0.75 
   4   3   7   -0.55    0.66 
   4   3   7    0.19    0.79 
  -5  -3  -7    2.98    0.99 
  -5  -3  -7    3.94    0.88 
   5   3   7    3.89    1.05 
   5   3   7    3.82    1.07 
  -6  -3  -7    5.22    0.93 
  -6  -3  -7    4.26    1.05 
   6   3   7    5.92    1.22 
   6   3   7    5.11    1.25 
   6   3   7    5.52    1.14 
  -7  -3  -7   10.95    1.58 
  -7  -3  -7    9.76    1.55 
   7   3   7    9.65    1.58 
   7   3   7   11.16    1.79 
  12  -4  -7    4.09    1.17 
  12  -4  -7    5.25    0.93 
 -12   4   7    6.64    1.42 
 -12   4   7    5.32    1.24 
  11  -4  -7   26.67    1.68 
  11  -4  -7   28.63    1.85 
 -11   4   7   27.62    1.99 
 -11   4   7   29.86    2.05 
  10  -4  -7   11.70    1.10 
  10  -4  -7   11.55    1.37 
 -10   4   7   11.13    1.57 
 -10   4   7   10.33    1.48 
   9  -4  -7    0.30    0.70 
   9  -4  -7    1.19    0.72 
  -9   4   7    0.39    0.76 
  -9   4   7   -0.32    0.81 
  -9   4   7    0.91    1.13 
   8  -4  -7    3.95    0.69 
   8  -4  -7    4.21    0.81 
  -8   4   7    4.10    0.88 
  -8   4   7    4.09    0.88 
  -8   4   7    5.19    0.90 
   7  -4  -7   13.16    0.71 
   7  -4  -7   11.29    1.22 
   7  -4  -7   12.95    1.07 
   7  -4  -7   13.75    1.11 
  -7   4   7   14.33    1.29 
  -7   4   7   14.72    1.14 
  -7   4   7   15.71    1.29 
   6  -4  -7    5.57    0.54 
   6  -4  -7    5.79    0.81 
   6  -4  -7    5.87    0.79 
   6  -4  -7    6.20    1.00 
  -6   4   7    6.55    0.83 
  -6   4   7    6.75    0.89 
  -6   4   7    6.74    1.01 
   5  -4  -7    5.52    0.89 
   5  -4  -7    4.63    0.68 
   5  -4  -7    4.02    0.64 
   5  -4  -7    4.04    0.62 
  -5   4   7    4.47    0.84 
  -5   4   7    4.01    0.60 
  -5   4   7    4.04    0.64 
   4  -4  -7    3.62    0.61 
   4  -4  -7    3.29    0.56 
   4  -4  -7    3.22    0.61 
  -4   4   7    3.33    0.55 
  -4   4   7    3.39    0.61 
  -4   4   7    3.63    0.54 
  -4   4   7    3.02    0.49 
   3  -4  -7   71.30    2.10 
   3  -4  -7   68.46    2.04 
   3  -4  -7   67.47    1.91 
  -3   4   7   66.70    1.84 
  -3   4   7   70.40    2.17 
  -3   4   7   68.06    2.17 
  -3   4   7   70.44    1.96 
   2  -4  -7   65.77    1.89 
   2  -4  -7   62.16    1.85 
   2  -4  -7   57.86    1.81 
   2  -4  -7   60.79    1.85 
  -2   4   7   62.39    2.03 
  -2   4   7   62.90    1.71 
  -2   4   7   60.96    2.01 
  -2   4   7   64.24    1.87 
   1  -4  -7   58.75    1.75 
   1  -4  -7   59.46    1.90 
   1  -4  -7   62.70    1.71 
   1  -4  -7   60.84    1.79 
  -1   4   7   59.39    1.97 
  -1   4   7   61.03    1.86 
  -1   4   7   57.10    1.95 
  -1   4   7   59.69    1.63 
   0  -4  -7    0.76    0.51 
   0  -4  -7    1.34    0.45 
   0  -4  -7    1.30    0.42 
   0  -4  -7    1.57    0.44 
   0   4   7    0.60    0.47 
   0   4   7    1.54    0.44 
   0   4   7    1.22    0.48 
   0   4   7    1.66    0.61 
  -1  -4  -7    0.55    0.39 
  -1  -4  -7    0.35    0.41 
  -1  -4  -7    0.95    0.57 
  -1  -4  -7    0.04    0.40 
   1   4   7    0.60    0.55 
   1   4   7    0.59    0.60 
   1   4   7    0.67    0.48 
   1   4   7    1.24    0.66 
  -2  -4  -7   21.81    0.97 
  -2  -4  -7   21.78    1.20 
  -2  -4  -7   20.12    1.20 
  -2  -4  -7   20.58    0.92 
   2   4   7   19.72    1.35 
   2   4   7   19.92    1.43 
   2   4   7   19.96    1.24 
   2   4   7   20.54    1.08 
  -3  -4  -7   12.24    1.08 
  -3  -4  -7   11.98    1.20 
   3   4   7   11.56    1.10 
   3   4   7   12.81    1.27 
   3   4   7   11.18    1.16 
  -4  -4  -7   23.96    1.80 
  -4  -4  -7   23.92    1.51 
   4   4   7   25.65    1.44 
   4   4   7   25.82    1.81 
   4   4   7   22.57    1.65 
  -5  -4  -7    4.70    0.94 
  -5  -4  -7    3.45    0.89 
   5   4   7    3.16    1.02 
   5   4   7    4.21    1.05 
   5   4   7    4.25    0.93 
  -6  -4  -7    1.74    0.91 
  -6  -4  -7    2.85    0.89 
   6   4   7    2.67    1.06 
   6   4   7    3.18    1.04 
  -7  -4  -7    0.82    0.86 
  -7  -4  -7    1.60    0.75 
  -7  -4  -7    2.26    0.81 
   7   4   7    0.56    1.04 
   7   4   7    0.32    0.92 
  12  -5  -7    1.06    1.05 
  12  -5  -7    1.71    0.84 
 -12   5   7    2.58    1.15 
 -12   5   7    1.91    1.23 
  11  -5  -7   32.82    1.86 
  11  -5  -7   32.15    1.93 
 -11   5   7   31.62    1.95 
 -11   5   7   36.82    2.18 
  10  -5  -7    1.05    0.64 
  10  -5  -7    2.34    0.93 
 -10   5   7    2.03    0.86 
 -10   5   7    2.15    1.02 
   9  -5  -7    3.87    0.82 
   9  -5  -7    2.05    0.79 
  -9   5   7    4.15    1.00 
  -9   5   7    3.33    0.89 
   8  -5  -7    4.19    0.89 
   8  -5  -7    3.74    0.78 
  -8   5   7    5.61    0.91 
  -8   5   7    3.97    0.74 
  -8   5   7    3.41    0.76 
   7  -5  -7   13.31    1.16 
   7  -5  -7   10.67    0.99 
   7  -5  -7   12.79    0.72 
  -7   5   7   11.67    1.15 
  -7   5   7   12.99    1.25 
  -7   5   7   13.31    1.17 
   6  -5  -7   22.51    0.99 
   6  -5  -7   22.40    1.22 
   6  -5  -7   23.70    1.49 
   6  -5  -7   22.82    1.20 
  -6   5   7   23.22    1.13 
  -6   5   7   21.62    1.40 
  -6   5   7   20.71    1.31 
   5  -5  -7    5.29    0.96 
   5  -5  -7    5.17    0.60 
   5  -5  -7    5.06    0.85 
   5  -5  -7    5.08    0.80 
  -5   5   7    5.88    0.75 
  -5   5   7    7.28    1.10 
  -5   5   7    6.18    1.08 
   4  -5  -7   79.79    2.19 
   4  -5  -7   83.31    2.43 
   4  -5  -7   83.62    2.40 
  -4   5   7   81.50    2.43 
  -4   5   7   83.18    2.17 
  -4   5   7   78.89    2.43 
  -4   5   7   85.24    2.37 
   3  -5  -7    5.17    0.87 
   3  -5  -7    6.17    0.92 
   3  -5  -7    5.14    0.84 
  -3   5   7    4.33    0.66 
  -3   5   7    6.97    0.96 
  -3   5   7    4.33    0.76 
  -3   5   7    6.00    1.01 
   2  -5  -7   22.14    1.21 
   2  -5  -7   20.07    1.09 
   2  -5  -7   22.08    1.11 
   2  -5  -7   20.62    1.12 
  -2   5   7   20.63    0.97 
  -2   5   7   21.49    1.35 
  -2   5   7   20.56    1.19 
  -2   5   7   20.22    1.29 
   1  -5  -7    2.54    0.57 
   1  -5  -7    2.39    0.55 
   1  -5  -7    2.20    0.54 
   1  -5  -7    2.28    0.49 
  -1   5   7    1.43    0.64 
  -1   5   7    3.10    0.48 
  -1   5   7    2.65    0.48 
   0  -5  -7   41.23    1.41 
   0  -5  -7   43.54    1.43 
   0  -5  -7   41.33    1.45 
   0  -5  -7   40.49    1.67 
   0   5   7   41.37    1.82 
   0   5   7   41.11    1.34 
   0   5   7   43.65    1.87 
   0   5   7   39.82    1.50 
  -1  -5  -7    0.66    0.64 
  -1  -5  -7    0.68    0.45 
  -1  -5  -7    0.76    0.44 
  -1  -5  -7    1.43    0.65 
   1   5   7    0.30    0.59 
   1   5   7    1.10    0.65 
   1   5   7    1.28    0.44 
   1   5   7    0.42    0.58 
  -2  -5  -7   -0.49    0.45 
  -2  -5  -7   -0.78    0.48 
  -2  -5  -7    0.42    0.59 
   2   5   7    0.02    0.46 
  -3  -5  -7   26.91    2.22 
  -3  -5  -7   28.74    1.51 
   3   5   7   29.99    1.42 
   3   5   7   24.50    3.02 
   3   5   7   32.24    1.93 
  -4  -5  -7   32.00    1.76 
  -4  -5  -7   32.05    2.01 
   4   5   7   33.24    1.54 
   4   5   7   32.21    1.83 
   4   5   7   31.58    1.81 
  -5  -5  -7   12.25    1.57 
  -5  -5  -7   11.94    1.46 
   5   5   7   10.64    1.57 
   5   5   7   13.75    1.59 
   5   5   7   13.74    1.42 
  -6  -5  -7   -0.16    0.83 
  -6  -5  -7   -1.34    0.85 
   6   5   7    0.50    1.13 
   6   5   7    0.56    0.92 
  12  -6  -7    0.57    1.24 
  12  -6  -7    1.03    0.79 
 -12   6   7   -0.76    1.11 
 -12   6   7   -1.09    0.96 
  11  -6  -7    1.14    0.95 
  11  -6  -7    2.40    0.93 
 -11   6   7    1.00    0.86 
 -11   6   7    1.63    1.13 
  10  -6  -7    7.71    1.31 
  10  -6  -7    9.26    1.20 
 -10   6   7    7.34    1.28 
 -10   6   7    7.80    1.21 
   9  -6  -7   18.14    1.36 
   9  -6  -7   19.88    1.51 
  -9   6   7   16.53    1.47 
  -9   6   7   19.26    1.56 
   8  -6  -7    0.75    0.74 
   8  -6  -7    0.64    0.78 
  -8   6   7   -0.37    0.92 
  -8   6   7    0.53    0.77 
   7  -6  -7    2.85    0.78 
   7  -6  -7    3.46    0.86 
   7  -6  -7    3.01    0.46 
  -7   6   7    4.24    0.72 
  -7   6   7    2.37    0.76 
  -7   6   7    2.23    1.32 
   6  -6  -7   41.21    1.35 
   6  -6  -7   41.75    1.81 
   6  -6  -7   41.29    1.79 
  -6   6   7   43.93    1.64 
  -6   6   7   42.49    1.92 
  -6   6   7   40.87    2.02 
   5  -6  -7   81.39    2.21 
   5  -6  -7   85.40    2.58 
   5  -6  -7   77.20    2.54 
  -5   6   7   87.46    2.21 
  -5   6   7   81.28    2.57 
   4  -6  -7   83.03    2.26 
   4  -6  -7   83.63    2.46 
   4  -6  -7   84.29    2.61 
  -4   6   7   86.65    2.46 
  -4   6   7   80.00    2.61 
  -4   6   7   81.94    2.56 
  -4   6   7   86.52    2.17 
   3  -6  -7    1.57    0.61 
   3  -6  -7   -0.12    0.50 
   3  -6  -7    0.81    0.45 
  -3   6   7    1.36    0.46 
  -3   6   7    0.67    0.57 
  -3   6   7    1.43    0.76 
  -3   6   7    0.73    0.52 
   2  -6  -7    7.03    0.90 
   2  -6  -7    6.08    0.79 
   2  -6  -7    8.00    0.94 
   2  -6  -7    6.34    0.79 
  -2   6   7    6.26    0.97 
  -2   6   7    7.73    0.70 
  -2   6   7    6.61    0.97 
  -2   6   7    6.89    1.15 
   1  -6  -7    3.25    0.53 
   1  -6  -7    3.54    0.62 
   1  -6  -7    2.66    0.60 
   1  -6  -7    2.81    0.58 
  -1   6   7    2.42    0.61 
  -1   6   7    1.72    0.74 
  -1   6   7    2.86    0.47 
   0  -6  -7  104.30    2.71 
   0  -6  -7  102.47    2.70 
   0  -6  -7  103.43    2.92 
   0  -6  -7  103.04    2.70 
   0   6   7   99.83    3.11 
   0   6   7  107.17    2.46 
   0   6   7  106.99    3.15 
   0   6   7  105.46    3.09 
  -1  -6  -7   32.60    1.39 
  -1  -6  -7   34.91    1.44 
  -1  -6  -7   32.47    1.71 
  -1  -6  -7   35.45    1.32 
   1   6   7   33.80    1.23 
   1   6   7   35.37    1.82 
   1   6   7   31.12    1.65 
  -2  -6  -7    3.52    0.69 
  -2  -6  -7    2.59    0.86 
  -2  -6  -7    3.66    0.65 
  -2  -6  -7    3.50    0.91 
   2   6   7    4.27    0.89 
   2   6   7    2.26    0.90 
  -3  -6  -7   14.14    1.49 
  -3  -6  -7   12.63    1.24 
   3   6   7   14.12    1.35 
   3   6   7   16.37    1.11 
   3   6   7   14.87    1.77 
  -4  -6  -7   26.30    1.79 
  -4  -6  -7   25.60    1.64 
   4   6   7   25.07    2.08 
   4   6   7   25.01    2.01 
   4   6   7   27.15    1.75 
  -5  -6  -7    6.83    1.23 
  -5  -6  -7    7.73    1.23 
   5   6   7    8.55    1.57 
   5   6   7    8.06    1.52 
  -6  -6  -7    6.27    1.23 
  11  -7  -7    1.44    0.84 
  11  -7  -7    0.24    0.94 
 -11   7   7    1.48    1.06 
 -11   7   7    1.25    1.29 
  10  -7  -7   11.33    1.48 
  10  -7  -7   12.26    1.26 
 -10   7   7   10.87    1.42 
 -10   7   7   12.34    1.56 
   9  -7  -7    9.63    1.33 
   9  -7  -7    9.18    1.38 
  -9   7   7    6.88    1.23 
  -9   7   7   11.41    1.40 
   8  -7  -7   40.22    2.10 
   8  -7  -7   38.86    2.29 
  -8   7   7   37.96    2.10 
  -8   7   7   38.93    1.81 
   7  -7  -7   36.65    1.27 
   7  -7  -7   37.03    1.92 
   7  -7  -7   39.74    1.89 
  -7   7   7   39.54    2.06 
  -7   7   7   37.53    1.65 
   6  -7  -7    0.43    0.43 
   6  -7  -7   -0.05    0.81 
   6  -7  -7    1.06    0.72 
  -6   7   7    1.06    0.50 
  -6   7   7   -0.38    0.64 
   5  -7  -7    2.38    0.54 
   5  -7  -7    0.13    0.54 
  -5   7   7    2.11    0.50 
  -5   7   7    0.62    0.90 
  -5   7   7    0.84    0.64 
  -5   7   7    1.38    0.49 
   4  -7  -7   58.92    1.93 
   4  -7  -7   58.62    2.11 
  -4   7   7   56.92    2.22 
  -4   7   7   61.47    2.17 
  -4   7   7   58.20    2.38 
  -4   7   7   58.81    1.72 
   3  -7  -7   34.72    1.46 
   3  -7  -7   33.29    1.78 
   3  -7  -7   34.76    1.50 
  -3   7   7   35.95    1.24 
  -3   7   7   35.95    1.83 
  -3   7   7   36.84    1.69 
  -3   7   7   31.89    1.70 
   2  -7  -7    3.63    0.68 
   2  -7  -7    4.43    0.75 
   2  -7  -7    4.00    0.53 
   2  -7  -7    3.09    0.71 
  -2   7   7    3.88    0.70 
  -2   7   7    4.10    0.91 
  -2   7   7    4.40    0.59 
  -2   7   7    3.64    0.92 
   1  -7  -7   18.71    0.98 
   1  -7  -7   19.87    1.33 
   1  -7  -7   19.41    1.08 
   1  -7  -7   18.61    1.36 
  -1   7   7   19.42    1.33 
  -1   7   7   19.42    0.96 
  -1   7   7   16.17    1.27 
   0  -7  -7   36.04    2.65 
   0  -7  -7   43.88    1.73 
   0  -7  -7   43.64    1.62 
   0  -7  -7   43.57    1.71 
   0   7   7   43.05    2.06 
   0   7   7   45.23    2.11 
  -1  -7  -7   25.63    1.38 
  -1  -7  -7   25.33    1.44 
  -1  -7  -7   24.64    1.51 
  -1  -7  -7   26.12    1.29 
   1   7   7   24.38    1.59 
   1   7   7   23.43    2.13 
  -2  -7  -7    2.37    0.70 
  -2  -7  -7    1.96    0.63 
  -2  -7  -7    1.20    0.76 
  -2  -7  -7    1.46    0.86 
   2   7   7    0.80    0.72 
   2   7   7    1.64    1.00 
  -3  -7  -7    0.22    0.70 
  -3  -7  -7    0.94    0.87 
   3   7   7    1.23    0.81 
   3   7   7    0.51    1.16 
  -4  -7  -7    0.05    0.89 
  -4  -7  -7    0.74    0.75 
   4   7   7   -0.15    0.69 
   4   7   7    1.87    0.83 
  -5  -7  -7   54.75    2.60 
  -5  -7  -7   56.81    2.67 
   5   7   7   55.07    2.58 
   5   7   7   58.10    3.05 
  11  -8  -7   19.21    2.15 
  11  -8  -7   16.15    1.75 
 -11   8   7   18.66    1.78 
 -11   8   7   15.25    1.86 
  10  -8  -7    2.67    1.05 
  10  -8  -7    1.37    0.66 
 -10   8   7    1.52    1.12 
 -10   8   7    2.89    0.97 
   9  -8  -7    1.98    0.87 
   9  -8  -7    1.16    1.03 
  -9   8   7    0.32    0.95 
  -9   8   7    1.77    0.97 
   8  -8  -7   28.16    1.68 
   8  -8  -7   28.60    1.81 
  -8   8   7   31.56    1.83 
  -8   8   7   27.42    1.99 
   7  -8  -7   27.18    1.21 
   7  -8  -7   28.55    1.58 
   7  -8  -7   27.84    1.76 
  -7   8   7   25.81    1.72 
  -7   8   7   28.97    1.61 
   6  -8  -7    7.61    1.09 
   6  -8  -7   11.00    0.78 
  -6   8   7    9.88    1.02 
  -6   8   7   12.54    1.54 
   5  -8  -7    0.94    0.53 
   5  -8  -7    1.25    0.76 
  -5   8   7    1.56    0.52 
  -5   8   7    1.29    0.85 
  -5   8   7    0.81    0.80 
   4  -8  -7   23.96    2.28 
   4  -8  -7   22.77    1.26 
  -4   8   7   25.10    1.42 
  -4   8   7   26.32    1.10 
   3  -8  -7   35.88    1.76 
   3  -8  -7   35.15    1.67 
  -3   8   7   37.07    1.86 
  -3   8   7   29.47    1.86 
   2  -8  -7   12.79    1.36 
   2  -8  -7   12.25    1.22 
  -2   8   7   13.56    1.25 
  -2   8   7   12.82    2.26 
   1  -8  -7    1.65    0.68 
   1  -8  -7    1.74    0.49 
   1  -8  -7    2.43    0.81 
  -1   8   7    0.63    1.10 
  -1   8   7    1.73    0.57 
   0  -8  -7   10.31    1.38 
   0  -8  -7   11.40    0.98 
   0  -8  -7    8.45    1.23 
   0   8   7   11.26    1.26 
   0   8   7   11.69    1.56 
  -1  -8  -7   20.88    1.49 
  -1  -8  -7   22.86    1.31 
  -1  -8  -7   22.70    1.28 
   1   8   7   21.04    1.41 
   1   8   7   21.84    1.77 
  -2  -8  -7   27.39    1.77 
  -2  -8  -7   26.26    1.44 
  -2  -8  -7   23.71    1.55 
   2   8   7   23.31    1.87 
   2   8   7   26.46    1.69 
  -3  -8  -7   16.22    1.51 
   3   8   7   15.37    1.97 
   3   8   7   17.18    2.05 
  -4  -8  -7    0.63    1.08 
  -4  -8  -7    0.79    0.88 
   4   8   7    0.08    0.88 
   4   8   7    0.43    0.85 
  10  -9  -7    0.22    1.08 
  10  -9  -7    0.31    0.83 
 -10   9   7   -1.07    0.98 
 -10   9   7   -0.53    0.98 
   9  -9  -7    0.18    0.83 
   9  -9  -7    0.80    0.99 
  -9   9   7   -0.14    0.84 
  -9   9   7    0.89    0.99 
   8  -9  -7    8.55    1.25 
   8  -9  -7    8.70    1.37 
  -8   9   7    9.50    1.57 
  -8   9   7   10.13    1.45 
   7  -9  -7    9.35    1.36 
   7  -9  -7    7.58    1.24 
   7  -9  -7    7.82    0.97 
  -7   9   7    9.13    1.29 
  -7   9   7    7.15    1.28 
   6  -9  -7   -0.65    0.61 
   6  -9  -7    0.49    0.53 
  -6   9   7    0.61    0.65 
  -6   9   7    2.24    0.64 
   5  -9  -7    1.04    0.74 
   5  -9  -7    1.10    0.87 
  -5   9   7    0.84    0.79 
  -5   9   7    0.37    0.70 
   4  -9  -7    1.24    0.78 
  -4   9   7    0.50    0.73 
  -4   9   7    1.49    0.79 
   3  -9  -7   29.18    1.77 
   3  -9  -7   29.47    1.69 
  -3   9   7   29.92    1.64 
  -3   9   7   28.86    1.97 
   2  -9  -7   10.54    1.26 
   2  -9  -7    9.07    1.25 
  -2   9   7    7.82    1.15 
  -2   9   7    8.56    1.43 
   1  -9  -7    0.79    0.87 
   1  -9  -7    0.96    0.78 
  -1   9   7    1.13    0.66 
  -1   9   7    1.48    0.91 
   0  -9  -7    0.21    0.62 
   0  -9  -7    1.66    0.86 
   0  -9  -7   -0.52    0.84 
   0   9   7    0.73    0.52 
   0   9   7    0.77    1.09 
  -1  -9  -7   24.19    2.36 
  -1  -9  -7   27.60    1.48 
  -1  -9  -7   23.49    1.63 
   1   9   7   27.47    1.92 
   1   9   7   27.66    1.65 
  -2  -9  -7   16.24    1.64 
  -2  -9  -7   12.62    1.44 
   2   9   7   13.91    1.52 
   2   9   7   11.08    1.69 
  -3  -9  -7    9.54    1.50 
  -3  -9  -7   12.99    1.28 
   3   9   7   10.73    1.90 
   3   9   7   14.05    2.15 
   9 -10  -7    0.16    0.89 
   9 -10  -7   -0.77    0.84 
  -9  10   7    1.31    1.30 
  -9  10   7    2.97    0.88 
   8 -10  -7    3.66    0.98 
   8 -10  -7    3.70    1.02 
  -8  10   7    2.02    1.07 
   7 -10  -7   15.37    1.25 
   7 -10  -7   13.89    1.54 
  -7  10   7   14.36    1.61 
  -7  10   7   14.85    1.63 
   6 -10  -7   19.16    1.58 
  -6  10   7   24.65    1.93 
  -6  10   7   19.86    1.62 
   5 -10  -7    3.00    0.98 
   5 -10  -7    1.85    0.78 
  -5  10   7    2.02    0.84 
  -5  10   7    2.86    1.14 
   4 -10  -7   -0.55    0.54 
   4 -10  -7   -0.65    0.77 
  -4  10   7    1.07    1.09 
  -4  10   7    0.10    0.71 
   3 -10  -7   14.51    1.64 
   3 -10  -7   11.60    1.43 
  -3  10   7   14.19    1.71 
  -3  10   7   13.82    1.61 
   2 -10  -7    1.20    0.73 
   2 -10  -7    0.90    0.87 
  -2  10   7    0.56    0.93 
  -2  10   7    0.51    0.74 
   1 -10  -7    1.43    0.86 
   1 -10  -7    1.55    0.90 
  -1  10   7    0.98    0.99 
  -1  10   7    1.32    1.00 
   0 -10  -7    5.92    1.18 
   0 -10  -7    4.39    1.08 
   0  10   7    4.64    1.12 
   0  10   7    5.18    1.16 
  -1 -10  -7   -0.74    0.77 
  -1 -10  -7    2.15    0.76 
  -1 -10  -7    1.81    0.96 
   1  10   7    0.47    0.66 
   1  10   7    1.22    1.10 
  -2 -10  -7    0.14    0.97 
  -2 -10  -7    1.10    0.94 
   2  10   7   -0.19    1.25 
   2  10   7   -1.02    1.10 
   8 -11  -7    0.51    1.06 
  -8  11   7    3.38    1.42 
   7 -11  -7   15.74    1.35 
   7 -11  -7   16.96    1.64 
  -7  11   7   17.95    1.90 
  -7  11   7   14.44    1.95 
   6 -11  -7    0.89    0.79 
   6 -11  -7    0.02    0.76 
  -6  11   7   -0.69    0.73 
  -6  11   7    0.61    1.02 
   5 -11  -7    7.65    1.25 
   5 -11  -7    7.53    1.24 
  -5  11   7    8.69    1.53 
  -5  11   7    7.01    1.23 
   4 -11  -7    2.15    0.73 
   4 -11  -7    1.42    0.90 
  -4  11   7    1.00    0.76 
  -4  11   7    1.06    0.96 
   3 -11  -7    0.01    0.93 
   3 -11  -7    0.81    0.74 
  -3  11   7    0.53    1.03 
  -3  11   7    0.64    0.82 
   2 -11  -7    2.89    1.04 
   2 -11  -7    3.45    1.02 
  -2  11   7    3.03    1.22 
  -2  11   7    2.58    1.09 
   1 -11  -7   14.53    1.66 
   1 -11  -7   14.95    1.49 
  -1  11   7   14.43    1.66 
  -1  11   7   15.88    1.85 
   0 -11  -7   23.02    1.92 
   0 -11  -7   27.57    2.09 
   0  11   7   26.73    1.63 
   0  11   7   25.03    2.12 
  -1 -11  -7   -1.42    0.87 
  -1 -11  -7    0.38    0.95 
   1  11   7    2.10    0.90 
   1  11   7    0.67    0.89 
   7 -12  -7    3.22    1.40 
  -7  12   7    0.59    1.08 
  -7  12   7    0.15    1.08 
   6 -12  -7   -0.99    0.98 
   6 -12  -7    1.33    0.74 
  -6  12   7    2.55    1.36 
  -6  12   7    1.60    1.09 
   5 -12  -7    5.82    1.08 
   5 -12  -7    5.85    1.17 
  -5  12   7    7.76    1.56 
  -5  12   7    6.16    1.32 
   4 -12  -7    6.53    1.28 
   4 -12  -7    6.92    1.09 
  -4  12   7    6.23    1.40 
  -4  12   7    5.43    1.27 
   3 -12  -7    1.66    1.11 
   3 -12  -7    0.41    0.92 
  -3  12   7    1.83    0.93 
  -3  12   7    1.51    1.23 
   2 -12  -7    4.25    1.07 
   2 -12  -7    4.32    1.24 
  -2  12   7    2.76    1.09 
  -2  12   7    2.90    0.87 
   1 -12  -7   20.40    2.06 
   1 -12  -7   21.38    1.76 
  -1  12   7   17.56    1.72 
  -1  12   7   19.27    2.16 
   4  13  -8    1.34    1.23 
  -4 -13   8   -0.36    0.92 
  -4 -13   8    0.28    1.02 
  -3 -13   8    5.85    1.03 
  -3 -13   8    4.03    1.07 
  -2 -13   8   23.99    2.04 
  -2 -13   8   19.52    1.77 
  -2 -13   8   19.59    1.53 
  -1 -13   8    2.91    0.82 
  -1 -13   8    4.05    0.87 
  -1 -13   8    2.77    0.97 
   0  13  -8    7.72    1.37 
   0 -13   8    8.06    1.35 
   0 -13   8   11.05    1.72 
   0 -13   8    7.61    1.18 
  -1  13  -8    0.50    0.98 
   1 -13   8    0.26    0.87 
   1 -13   8   -0.25    0.84 
   1 -13   8   -0.06    0.97 
  -2  13  -8    2.00    1.07 
   2 -13   8    5.19    1.18 
   2 -13   8    3.73    0.96 
   2 -13   8    3.48    1.18 
  -3  13  -8   -0.76    1.15 
   3 -13   8    0.34    0.85 
   3 -13   8    0.53    1.10 
   3 -13   8    0.98    0.74 
   6  12  -8    1.15    0.98 
  -6 -12   8    1.63    1.01 
  -6 -12   8    2.79    1.14 
   5  12  -8    7.81    1.49 
  -5 -12   8    9.04    1.33 
  -5 -12   8    9.87    1.76 
   4  12  -8    1.89    1.14 
  -4 -12   8   -0.05    0.75 
  -4 -12   8    0.11    0.86 
  -3 -12   8    0.10    0.70 
  -3 -12   8    0.66    0.91 
   2  12  -8    3.07    1.06 
  -2 -12   8    3.22    1.10 
  -2 -12   8    3.90    1.03 
  -2 -12   8    4.91    1.14 
   1  12  -8   -0.92    0.93 
  -1 -12   8    1.93    0.87 
  -1 -12   8    1.07    0.95 
  -1 -12   8   -0.77    0.52 
   0  12  -8   16.90    1.49 
   0 -12   8   18.39    1.54 
   0 -12   8   17.21    1.65 
   0 -12   8   17.09    1.35 
  -1  12  -8    1.27    1.07 
   1 -12   8    0.56    0.68 
   1 -12   8    1.65    0.93 
   1 -12   8    0.21    0.97 
   1 -12   8    2.03    0.80 
  -2  12  -8    2.55    1.05 
   2 -12   8    3.82    0.86 
   2 -12   8    3.19    1.10 
   2 -12   8    4.06    0.91 
   2 -12   8    4.14    0.88 
   3 -12   8   14.85    1.58 
   3 -12   8   14.44    1.34 
   3 -12   8   14.46    1.40 
   3 -12   8   15.52    1.50 
   3 -12   8   13.12    1.30 
   4 -12   8   18.95    1.63 
   4 -12   8   18.30    1.77 
   4 -12   8   18.79    1.69 
   4 -12   8   19.97    1.59 
   4 -12   8   19.57    1.84 
   4 -12   8   20.22    1.54 
   7  11  -8    2.00    1.00 
  -7 -11   8    1.60    0.98 
  -7 -11   8    1.56    1.00 
   6  11  -8   27.58    2.15 
  -6 -11   8   25.74    1.90 
  -6 -11   8   24.45    2.05 
   5  11  -8   27.85    2.77 
   5  11  -8   29.94    2.10 
  -5 -11   8   28.03    1.90 
  -5 -11   8   24.05    1.76 
   4  11  -8   12.51    1.42 
   4  11  -8   10.70    1.57 
  -4 -11   8    9.00    1.28 
  -4 -11   8    8.24    1.23 
   3  11  -8    9.32    1.25 
  -3 -11   8    8.10    1.38 
  -3 -11   8    7.46    1.21 
   2  11  -8    8.78    1.27 
  -2 -11   8    5.91    1.04 
  -2 -11   8    7.57    1.14 
  -2 -11   8    6.89    0.82 
  -2 -11   8    7.57    1.16 
   1  11  -8   22.15    1.33 
  -1 -11   8   18.82    1.52 
  -1 -11   8   21.00    1.52 
  -1 -11   8   22.71    1.73 
  -1 -11   8   20.55    1.19 
   0  11  -8   16.86    1.41 
   0 -11   8   18.40    1.43 
   0 -11   8   16.57    1.15 
   0 -11   8   16.22    1.56 
   0 -11   8   18.83    1.43 
  -1  11  -8   19.16    1.52 
   1 -11   8   17.04    1.35 
   1 -11   8   18.15    1.55 
   1 -11   8   19.23    1.16 
   1 -11   8   15.48    1.64 
  -2  11  -8    0.13    0.82 
   2 -11   8    1.40    0.64 
   2 -11   8   -0.03    0.63 
   2 -11   8    0.86    0.54 
   2 -11   8   -0.27    0.71 
   3 -11   8    8.03    1.41 
   3 -11   8    9.97    1.33 
   3 -11   8   11.07    1.24 
   3 -11   8   11.06    1.14 
   3 -11   8    6.63    1.20 
   3 -11   8    8.13    1.20 
   4 -11   8    6.91    1.01 
   4 -11   8    5.03    0.91 
   4 -11   8    5.64    0.79 
   4 -11   8    4.18    1.12 
   4 -11   8    6.72    1.20 
   4 -11   8    4.69    1.07 
   5 -11   8   13.78    1.62 
   5 -11   8   12.85    1.56 
   5 -11   8   12.56    1.46 
   5 -11   8   12.60    1.63 
   8  10  -8    3.18    1.20 
  -8 -10   8    3.18    1.05 
  -8 -10   8    3.22    1.04 
   7  10  -8   18.43    2.48 
   7  10  -8   15.47    1.86 
  -7 -10   8   15.16    1.59 
  -7 -10   8   12.54    1.60 
   6  10  -8    7.16    1.37 
   6  10  -8    5.83    1.17 
  -6 -10   8    5.04    0.87 
  -6 -10   8    5.98    1.00 
   5  10  -8    7.83    1.28 
   5  10  -8   10.11    1.23 
  -5 -10   8    8.07    1.27 
  -5 -10   8    7.46    1.20 
  -5 -10   8    6.84    0.79 
   4  10  -8   24.91    1.39 
   4  10  -8   20.50    1.55 
  -4 -10   8   22.26    1.08 
  -4 -10   8   23.27    1.53 
  -4 -10   8   22.04    1.72 
   3  10  -8   65.20    2.05 
  -3 -10   8   60.38    2.39 
  -3 -10   8   63.28    1.83 
   2  10  -8    1.20    0.58 
  -2 -10   8    0.46    0.62 
  -2 -10   8    0.38    0.47 
  -2 -10   8   -1.10    0.54 
  -2 -10   8    0.75    0.80 
   1  10  -8    9.57    1.14 
  -1 -10   8   11.24    0.91 
  -1 -10   8   11.27    1.37 
  -1 -10   8    9.28    1.04 
  -1 -10   8    9.27    1.38 
   0  10  -8   14.38    1.20 
   0 -10   8   14.95    1.04 
   0 -10   8   14.32    1.38 
   0 -10   8   11.48    1.12 
   0 -10   8   12.51    1.34 
  -1  10  -8   10.27    1.20 
  -1  10  -8    8.90    1.13 
   1 -10   8   12.03    0.89 
   1 -10   8   10.21    1.37 
   1 -10   8   11.67    0.94 
   1 -10   8   11.07    1.21 
   1 -10   8   11.68    1.13 
  -2  10  -8    5.73    0.91 
   2 -10   8    4.12    0.86 
   2 -10   8    4.96    0.87 
   2 -10   8    4.26    0.84 
   2 -10   8    5.22    0.95 
   2 -10   8    4.54    0.90 
   2 -10   8    5.07    0.92 
   3 -10   8    0.16    0.82 
   3 -10   8    0.08    0.63 
   3 -10   8    0.23    0.78 
   3 -10   8    1.32    0.83 
   3 -10   8    0.25    0.73 
   3 -10   8    0.87    0.62 
   4 -10   8    0.54    0.66 
   4 -10   8    0.39    0.83 
   4 -10   8    0.01    0.84 
   4 -10   8    1.37    1.06 
   4 -10   8    0.68    0.91 
   4 -10   8   -0.09    0.72 
  -5  10  -8   29.34    1.82 
   5 -10   8   29.55    1.85 
   5 -10   8   31.39    1.93 
   5 -10   8   28.94    1.83 
   5 -10   8   27.44    2.01 
  -6  10  -8    6.39    1.26 
   6 -10   8    7.04    1.35 
   6 -10   8    7.63    1.35 
   6 -10   8    6.87    1.18 
   9   9  -8   21.96    2.91 
   9   9  -8   20.79    1.80 
  -9  -9   8   15.70    1.86 
  -9  -9   8   21.60    1.44 
   8   9  -8    8.71    1.45 
   8   9  -8    8.01    1.33 
  -8  -9   8    6.95    1.23 
  -8  -9   8   11.96    1.95 
  -8  -9   8    8.80    1.15 
   7   9  -8   27.20    1.83 
   7   9  -8   25.62    1.93 
  -7  -9   8   22.30    1.50 
  -7  -9   8   26.68    1.81 
  -7  -9   8   26.25    1.46 
   6   9  -8    1.80    0.95 
   6   9  -8    3.47    0.71 
  -6  -9   8    0.93    0.75 
  -6  -9   8    2.50    1.01 
  -6  -9   8    2.42    0.64 
   5   9  -8    6.77    1.19 
   5   9  -8    6.46    0.84 
  -5  -9   8    6.28    0.83 
  -5  -9   8    4.69    1.02 
  -5  -9   8    4.29    0.87 
   4   9  -8    5.26    0.95 
   4   9  -8    4.89    0.83 
  -4  -9   8    6.88    1.15 
  -4  -9   8    5.23    0.82 
  -4  -9   8    5.58    0.93 
   3   9  -8   26.78    1.65 
   3   9  -8   26.17    1.32 
  -3  -9   8   23.65    1.60 
  -3  -9   8   26.33    1.09 
   2   9  -8    1.11    0.47 
  -2  -9   8    0.81    0.45 
  -2  -9   8   -0.14    0.55 
   1   9  -8    0.87    0.50 
  -1  -9   8    0.23    0.78 
  -1  -9   8    0.88    0.46 
  -1  -9   8   -0.48    0.51 
  -1  -9   8   -0.06    0.87 
   0   9  -8    1.49    0.58 
   0   9  -8    1.23    0.49 
   0  -9   8    1.31    0.74 
   0  -9   8    1.61    0.55 
   0  -9   8    0.31    0.55 
   0  -9   8    1.64    0.47 
   0  -9   8    1.73    0.67 
  -1   9  -8    9.66    1.05 
   1  -9   8    8.22    1.25 
   1  -9   8   10.40    0.87 
   1  -9   8   10.90    0.83 
   1  -9   8    8.32    1.22 
   1  -9   8    9.19    1.05 
  -2   9  -8   18.38    1.42 
   2  -9   8   19.62    1.38 
   2  -9   8   19.64    1.32 
   2  -9   8   17.56    1.20 
   2  -9   8   18.68    1.19 
  -3   9  -8    0.91    0.74 
   3  -9   8    0.17    0.61 
   3  -9   8    0.33    1.18 
   3  -9   8   -0.07    0.58 
   3  -9   8    0.76    0.66 
   3  -9   8    0.56    0.55 
   3  -9   8    0.74    0.77 
   4  -9   8    4.97    0.78 
   4  -9   8    7.63    1.04 
   4  -9   8    7.21    1.17 
   4  -9   8    6.86    1.16 
  -5   9  -8    9.63    1.43 
   5  -9   8   11.08    1.49 
   5  -9   8   10.46    1.77 
   5  -9   8   10.90    1.49 
   5  -9   8    9.56    1.30 
  -6   9  -8    8.15    1.33 
   6  -9   8    7.38    1.19 
   6  -9   8    8.65    1.44 
   6  -9   8    6.76    1.19 
  10   8  -8    1.91    0.94 
   9   8  -8    2.61    1.19 
   9   8  -8    2.93    0.86 
  -9  -8   8    2.82    1.06 
  -9  -8   8    2.86    0.91 
  -9  -8   8    1.01    0.92 
   8   8  -8    6.02    0.94 
  -8  -8   8    4.09    1.05 
  -8  -8   8    6.39    1.05 
   7   8  -8   24.58    1.39 
   7   8  -8   17.20    1.42 
  -7  -8   8   22.98    1.88 
  -7  -8   8   18.97    1.50 
  -7  -8   8   18.42    1.17 
   6   8  -8    3.27    0.74 
   6   8  -8    2.64    0.87 
  -6  -8   8    3.00    0.91 
  -6  -8   8    3.31    0.69 
  -6  -8   8    4.89    1.07 
   5   8  -8    1.71    0.91 
   5   8  -8    2.35    0.60 
  -5  -8   8    2.21    1.24 
  -5  -8   8    2.21    0.76 
  -5  -8   8    2.37    0.53 
   4   8  -8    1.90    0.83 
  -4  -8   8    0.78    0.74 
  -4  -8   8    1.67    0.49 
  -4  -8   8   -0.10    0.52 
   3   8  -8   14.57    1.01 
   3   8  -8   11.67    1.00 
  -3  -8   8   14.35    1.33 
  -3  -8   8   15.11    0.87 
  -3  -8   8   11.28    1.11 
   2   8  -8    3.53    0.65 
   2   8  -8    3.84    0.83 
  -2  -8   8    3.59    0.57 
  -2  -8   8    3.23    0.72 
  -2  -8   8    2.92    0.65 
   1   8  -8    1.42    0.40 
   1   8  -8    1.51    0.55 
   1   8  -8   -0.20    0.66 
  -1  -8   8    1.58    0.69 
  -1  -8   8    1.13    0.66 
  -1  -8   8    1.51    0.45 
   0   8  -8    1.02    0.56 
   0   8  -8    1.56    0.53 
   0   8  -8    1.79    0.48 
   0  -8   8    0.80    0.65 
   0  -8   8    1.71    0.52 
   0  -8   8    0.73    0.48 
   0  -8   8    1.96    0.61 
   0  -8   8    1.69    0.68 
  -1   8  -8   41.88    1.74 
  -1   8  -8   42.27    1.58 
   1  -8   8   43.03    1.41 
   1  -8   8   43.22    1.73 
   1  -8   8   42.82    1.83 
   1  -8   8   44.91    1.47 
   1  -8   8   44.83    1.68 
   1  -8   8   44.99    1.67 
  -2   8  -8   42.26    1.70 
   2  -8   8   42.31    1.82 
   2  -8   8   45.03    1.78 
   2  -8   8   44.83    1.67 
   2  -8   8   43.13    1.88 
   2  -8   8   44.39    1.66 
   2  -8   8   43.55    1.55 
  -3   8  -8    0.65    0.72 
   3  -8   8    0.54    0.60 
   3  -8   8    0.18    0.44 
   3  -8   8   -0.51    1.08 
   3  -8   8    0.63    0.62 
   3  -8   8    0.58    0.70 
  -4   8  -8   26.13    1.37 
  -4   8  -8   23.85    1.48 
  -4   8  -8   25.42    1.61 
   4  -8   8   28.19    1.53 
   4  -8   8   24.25    1.59 
   4  -8   8   24.92    1.47 
   4  -8   8   25.97    1.59 
  -5   8  -8    1.84    1.44 
   5  -8   8    2.85    0.78 
   5  -8   8    4.15    1.06 
   5  -8   8    1.83    0.97 
  -6   8  -8    4.96    1.16 
   6  -8   8    3.19    1.01 
   6  -8   8    5.41    0.92 
   6  -8   8    5.30    1.27 
  -7   8  -8    0.65    0.94 
   7  -8   8    1.05    0.87 
   7  -8   8    0.23    0.64 
   7  -8   8   -0.43    0.76 
  10   7  -8    1.18    1.01 
  10   7  -8    1.97    1.13 
 -10  -7   8    2.68    1.16 
 -10  -7   8    3.03    0.94 
 -10  -7   8    0.66    1.12 
   9   7  -8    0.55    0.90 
  -9  -7   8   -0.39    0.88 
  -9  -7   8   -0.21    0.73 
  -9  -7   8    0.27    1.05 
   8   7  -8    2.17    0.87 
   8   7  -8    4.32    0.83 
  -8  -7   8    2.11    0.92 
  -8  -7   8    2.92    0.86 
   7   7  -8   19.42    1.29 
   7   7  -8   16.78    1.60 
  -7  -7   8   18.78    1.12 
  -7  -7   8   16.22    1.05 
  -7  -7   8   19.38    1.79 
   6   7  -8   18.35    1.19 
  -6  -7   8   18.33    1.17 
  -6  -7   8   18.27    1.03 
  -6  -7   8   16.62    1.39 
   5   7  -8   -0.44    0.45 
   5   7  -8    0.77    0.53 
  -5  -7   8   -0.42    0.56 
  -5  -7   8   -0.50    0.52 
   4   7  -8   13.70    1.10 
  -4  -7   8   14.19    1.07 
  -4  -7   8   13.96    1.22 
  -4  -7   8   13.96    0.94 
   3   7  -8    6.53    1.11 
   3   7  -8    9.04    1.13 
  -3  -7   8    7.00    0.71 
  -3  -7   8    7.01    0.89 
  -3  -7   8    8.63    0.96 
   2   7  -8   29.79    1.47 
   2   7  -8   30.06    1.56 
  -2  -7   8   32.70    1.56 
  -2  -7   8   31.34    1.24 
  -2  -7   8   32.38    1.52 
   1   7  -8    9.21    0.66 
   1   7  -8    8.30    0.86 
   1   7  -8    8.57    0.91 
  -1  -7   8    7.50    0.84 
  -1  -7   8    8.29    0.85 
  -1  -7   8    9.30    0.73 
   0   7  -8    3.83    0.75 
   0   7  -8    3.72    0.66 
   0  -7   8    3.79    0.56 
   0  -7   8    2.56    0.53 
   0  -7   8    3.47    0.68 
   0  -7   8    3.42    0.63 
   0  -7   8    5.21    0.63 
  -1   7  -8    9.04    0.99 
  -1   7  -8    9.68    1.00 
   1  -7   8   10.67    0.75 
   1  -7   8   10.33    0.77 
   1  -7   8   10.46    0.91 
   1  -7   8    9.87    0.91 
   1  -7   8   10.18    1.01 
   1  -7   8    9.24    0.89 
  -2   7  -8   30.22    1.41 
  -2   7  -8   30.49    1.28 
   2  -7   8   32.40    1.49 
   2  -7   8   32.21    1.35 
   2  -7   8   29.18    1.42 
   2  -7   8   29.80    1.34 
   2  -7   8   31.26    1.42 
   2  -7   8   30.39    1.18 
  -3   7  -8   21.81    1.28 
  -3   7  -8   22.21    1.26 
   3  -7   8   22.38    1.46 
   3  -7   8   24.07    1.55 
   3  -7   8   25.21    1.30 
   3  -7   8   23.29    1.45 
   3  -7   8   23.41    1.39 
  -4   7  -8   81.94    2.68 
  -4   7  -8   82.83    2.48 
   4  -7   8   80.54    2.81 
   4  -7   8   81.12    2.51 
   4  -7   8   81.45    2.77 
   4  -7   8   81.20    2.59 
  -5   7  -8    1.37    0.76 
  -5   7  -8    0.10    0.83 
   5  -7   8    0.84    0.81 
   5  -7   8    1.46    0.79 
   5  -7   8   -0.63    0.77 
  -6   7  -8    6.13    1.15 
  -6   7  -8    8.56    1.33 
   6  -7   8    9.20    1.53 
   6  -7   8    9.16    1.34 
   6  -7   8    6.92    1.33 
  -7   7  -8    2.26    1.04 
   7  -7   8    2.90    0.93 
   7  -7   8    3.35    1.17 
   7  -7   8    0.58    0.90 
  11   6  -8    2.81    0.96 
  11   6  -8    5.39    1.31 
 -11  -6   8    3.55    1.17 
 -11  -6   8    4.38    1.11 
  10   6  -8   10.26    1.34 
  10   6  -8   11.83    1.51 
 -10  -6   8    6.52    1.17 
 -10  -6   8   10.65    1.72 
   9   6  -8    1.57    0.94 
   9   6  -8    1.12    0.81 
  -9  -6   8    0.41    0.95 
  -9  -6   8    1.61    0.96 
  -9  -6   8    0.80    0.71 
   8   6  -8    2.73    0.76 
   8   6  -8    3.53    0.80 
  -8  -6   8    2.86    0.64 
  -8  -6   8    2.10    0.94 
  -8  -6   8    1.80    0.84 
   7   6  -8    9.56    1.65 
   7   6  -8   11.76    1.05 
  -7  -6   8   11.89    1.18 
  -7  -6   8   10.27    1.24 
  -7  -6   8    9.88    0.94 
   6   6  -8   32.87    1.31 
   6   6  -8   29.51    1.62 
  -6  -6   8   29.77    1.61 
  -6  -6   8   26.73    1.31 
  -6  -6   8   30.05    1.52 
   5   6  -8   20.84    1.66 
   5   6  -8   23.71    1.44 
  -5  -6   8   22.19    1.19 
  -5  -6   8   21.58    1.29 
  -5  -6   8   22.41    1.22 
   4   6  -8    2.26    0.68 
   4   6  -8    3.08    0.53 
  -4  -6   8    1.82    0.42 
  -4  -6   8    3.55    0.65 
  -4  -6   8    4.35    0.75 
   3   6  -8   18.22    1.22 
   3   6  -8   15.92    1.21 
  -3  -6   8   18.53    1.15 
  -3  -6   8   15.65    0.94 
  -3  -6   8   13.05    0.94 
   2   6  -8   96.08    1.87 
   2   6  -8   90.21    2.54 
   2   6  -8   87.95    2.45 
  -2  -6   8   91.24    2.59 
  -2  -6   8   90.68    2.50 
  -2  -6   8   90.95    2.39 
   1   6  -8   89.89    2.51 
   1   6  -8   88.75    2.45 
  -1  -6   8   90.33    2.04 
  -1  -6   8   89.46    2.38 
  -1  -6   8   93.57    2.18 
  -1  -6   8   86.13    2.43 
  -1  -6   8   88.48    2.54 
   0   6  -8   56.72    1.86 
   0   6  -8   57.46    1.86 
   0  -6   8   54.69    1.79 
   0  -6   8   54.20    1.84 
   0  -6   8   57.32    1.61 
   0  -6   8   55.69    1.78 
   0  -6   8   58.05    1.63 
  -1   6  -8   14.94    1.01 
  -1   6  -8   14.27    1.02 
   1  -6   8   14.20    0.92 
   1  -6   8   15.01    1.00 
   1  -6   8   15.82    0.97 
   1  -6   8   15.04    0.93 
   1  -6   8   14.93    1.04 
   1  -6   8   15.30    0.93 
  -2   6  -8    0.68    0.47 
  -2   6  -8    1.42    0.42 
   2  -6   8    0.53    0.59 
   2  -6   8    0.05    0.47 
   2  -6   8    0.61    0.62 
   2  -6   8    0.25    0.47 
   2  -6   8    0.76    0.40 
   2  -6   8    1.12    0.40 
  -3   6  -8   11.03    0.86 
  -3   6  -8   11.18    1.09 
  -3   6  -8    9.23    0.90 
   3  -6   8    9.78    0.81 
   3  -6   8    9.30    1.11 
   3  -6   8   10.68    1.05 
   3  -6   8   11.39    0.94 
   3  -6   8   11.05    1.12 
  -4   6  -8   14.24    1.18 
   4  -6   8   13.75    1.06 
   4  -6   8   14.09    1.20 
   4  -6   8   12.62    1.21 
  -5   6  -8    1.13    0.94 
  -5   6  -8    1.54    0.70 
   5  -6   8    1.72    0.63 
   5  -6   8    0.11    0.63 
   5  -6   8    0.12    0.61 
  -6   6  -8    3.35    0.99 
  -6   6  -8    3.91    0.82 
   6  -6   8    3.22    1.05 
   6  -6   8    3.21    0.85 
   6  -6   8    2.79    0.97 
  -7   6  -8    2.78    1.11 
   7  -6   8    4.20    1.30 
   7  -6   8    4.67    1.37 
   7  -6   8    3.61    1.02 
  11   5  -8   10.33    1.58 
  11   5  -8   12.30    1.68 
 -11  -5   8   10.34    1.55 
 -11  -5   8    9.60    1.63 
  10   5  -8    8.26    1.41 
  10   5  -8    9.14    1.50 
 -10  -5   8    8.89    1.10 
 -10  -5   8   11.08    1.29 
   9   5  -8   15.55    1.33 
   9   5  -8   12.03    1.44 
  -9  -5   8   11.03    1.22 
  -9  -5   8   13.47    1.58 
  -9  -5   8   11.16    1.33 
   8   5  -8    0.15    0.66 
  -8  -5   8    0.33    0.75 
  -8  -5   8   -0.37    0.55 
  -8  -5   8   -0.52    0.65 
   7   5  -8   12.48    1.07 
   7   5  -8   12.45    1.06 
  -7  -5   8   13.20    1.20 
  -7  -5   8    9.93    1.15 
  -7  -5   8   12.19    1.23 
   6   5  -8   66.65    2.39 
   6   5  -8   70.87    2.33 
  -6  -5   8   68.80    2.29 
  -6  -5   8   68.08    2.16 
  -6  -5   8   73.00    2.19 
   5   5  -8   21.14    1.31 
   5   5  -8   16.18    1.22 
  -5  -5   8   21.66    1.33 
  -5  -5   8   18.64    1.06 
  -5  -5   8   20.44    1.15 
   4   5  -8   31.06    1.50 
   4   5  -8   30.00    1.35 
  -4  -5   8   30.87    1.39 
  -4  -5   8   30.04    1.32 
  -4  -5   8   28.70    1.20 
   3   5  -8   70.67    2.16 
   3   5  -8   72.94    2.21 
  -3  -5   8   71.02    2.14 
  -3  -5   8   71.48    2.03 
  -3  -5   8   74.34    2.18 
   2   5  -8  141.82    3.37 
   2   5  -8  143.84    3.44 
  -2  -5   8  141.86    3.34 
  -2  -5   8  142.20    3.41 
  -2  -5   8  136.12    3.39 
  -2  -5   8  143.99    2.84 
   1   5  -8   52.40    1.71 
   1   5  -8   50.84    1.67 
  -1  -5   8   49.17    1.67 
  -1  -5   8   50.31    1.68 
  -1  -5   8   50.44    1.64 
  -1  -5   8   51.01    1.48 
  -1  -5   8   48.75    1.69 
   0   5  -8   63.19    1.86 
   0   5  -8   63.43    1.89 
   0  -5   8   62.02    1.89 
   0  -5   8   62.57    2.07 
   0  -5   8   62.44    1.71 
   0  -5   8   61.36    1.92 
   0  -5   8   63.62    1.79 
  -1   5  -8   85.17    2.23 
  -1   5  -8   84.93    2.19 
   1  -5   8   80.49    2.45 
   1  -5   8   81.17    2.31 
   1  -5   8   84.90    2.23 
   1  -5   8   83.65    2.37 
   1  -5   8   81.82    2.29 
  -2   5  -8   13.81    0.95 
  -2   5  -8   13.12    1.00 
  -2   5  -8   12.69    0.93 
   2  -5   8   15.66    0.82 
   2  -5   8   13.06    1.06 
   2  -5   8   14.69    1.15 
   2  -5   8   13.05    1.00 
   2  -5   8   14.55    0.99 
  -3   5  -8   18.46    1.04 
  -3   5  -8   18.24    0.97 
  -3   5  -8   18.20    1.19 
   3  -5   8   18.93    1.37 
   3  -5   8   19.57    1.29 
   3  -5   8   18.85    1.28 
   3  -5   8   19.14    1.23 
   3  -5   8   18.77    1.07 
  -4   5  -8   21.49    1.32 
   4  -5   8   21.11    1.49 
   4  -5   8   18.29    2.28 
   4  -5   8   22.14    1.19 
   4  -5   8   18.21    2.26 
  -5   5  -8   28.38    1.59 
  -5   5  -8   26.82    1.69 
   5  -5   8   25.88    1.46 
   5  -5   8   26.85    1.63 
   5  -5   8   27.09    1.69 
  -6   5  -8    5.64    1.15 
  -6   5  -8    5.99    0.90 
   6  -5   8    5.33    1.06 
   6  -5   8    5.20    1.05 
   6  -5   8    4.87    1.00 
  -7   5  -8    2.26    1.04 
   7  -5   8    3.67    1.24 
   7  -5   8    4.25    1.15 
   7  -5   8    2.81    1.05 
  11   4  -8    0.21    0.83 
  11   4  -8    1.30    0.89 
 -11  -4   8    1.24    0.82 
 -11  -4   8    1.53    0.88 
  10   4  -8    1.44    0.80 
  10   4  -8    1.27    1.02 
 -10  -4   8    0.29    0.85 
 -10  -4   8    2.26    0.91 
   9   4  -8   23.57    1.43 
   9   4  -8   21.08    1.52 
  -9  -4   8   21.63    1.50 
  -9  -4   8   21.46    1.62 
  -9  -4   8   20.76    1.35 
   8   4  -8   72.60    2.47 
   8   4  -8   74.26    2.23 
  -8  -4   8   74.45    2.10 
  -8  -4   8   73.15    2.50 
  -8  -4   8   71.21    2.37 
   7   4  -8    6.17    0.84 
   7   4  -8    7.37    0.87 
  -7  -4   8    7.62    1.00 
  -7  -4   8    7.56    1.24 
  -7  -4   8    5.82    0.85 
   6   4  -8    5.84    0.85 
   6   4  -8    5.84    0.82 
  -6  -4   8    7.43    1.08 
  -6  -4   8    6.32    0.86 
  -6  -4   8    6.24    0.83 
   5   4  -8   24.30    1.27 
   5   4  -8   23.55    1.36 
  -5  -4   8   22.26    1.02 
  -5  -4   8   22.12    1.13 
  -5  -4   8   25.26    1.33 
   4   4  -8   23.92    1.29 
   4   4  -8   22.09    1.13 
  -4  -4   8   25.79    1.17 
  -4  -4   8   24.83    1.18 
  -4  -4   8   22.59    1.11 
   3   4  -8   74.28    2.21 
   3   4  -8   76.12    2.20 
  -3  -4   8   75.83    1.56 
  -3  -4   8   72.95    2.13 
  -3  -4   8   75.06    2.09 
  -3  -4   8   76.48    2.10 
   2   4  -8   18.38    1.00 
   2   4  -8   18.49    1.02 
  -2  -4   8   19.50    0.70 
  -2  -4   8   21.19    1.16 
  -2  -4   8   20.18    1.07 
  -2  -4   8   19.82    1.00 
   1   4  -8   18.25    0.99 
   1   4  -8   17.92    0.95 
  -1  -4   8   18.43    0.89 
  -1  -4   8   18.09    0.79 
  -1  -4   8   17.95    0.98 
  -1  -4   8   18.27    1.03 
  -1  -4   8   17.20    0.99 
   0   4  -8   56.56    1.66 
   0   4  -8   54.68    1.67 
   0  -4   8   50.78    1.77 
   0  -4   8   52.54    1.69 
   0  -4   8   54.71    1.62 
   0  -4   8   54.04    1.64 
   0  -4   8   53.48    1.78 
  -1   4  -8   92.98    2.29 
  -1   4  -8   91.27    2.31 
  -1   4  -8   89.84    2.46 
   1  -4   8   93.06    2.41 
   1  -4   8   90.74    2.50 
   1  -4   8   91.20    2.48 
   1  -4   8   88.13    2.51 
  -2   4  -8    4.01    0.66 
  -2   4  -8    3.58    0.65 
  -2   4  -8    3.92    0.66 
   2  -4   8    4.43    0.67 
   2  -4   8    3.23    0.60 
   2  -4   8    4.25    0.65 
   2  -4   8    4.09    0.67 
   2  -4   8    4.25    0.70 
  -3   4  -8    3.90    0.68 
  -3   4  -8    4.26    0.72 
   3  -4   8    4.33    0.79 
   3  -4   8    4.15    0.89 
   3  -4   8    4.06    0.76 
   3  -4   8    3.08    0.63 
   3  -4   8    3.55    0.65 
  -4   4  -8    7.51    1.05 
   4  -4   8    9.81    1.04 
   4  -4   8    8.50    1.33 
   4  -4   8    7.35    1.22 
  -5   4  -8   36.89    1.66 
  -5   4  -8   36.73    1.97 
   5  -4   8   37.14    1.91 
   5  -4   8   36.68    1.96 
   5  -4   8   37.61    1.64 
  -6   4  -8   12.43    1.23 
  -6   4  -8   10.86    1.53 
   6  -4   8   13.62    1.39 
   6  -4   8    9.77    1.10 
  -7   4  -8    0.43    1.05 
   7  -4   8    1.74    1.11 
   7  -4   8   -0.13    0.74 
   7  -4   8    0.39    0.90 
  12   3  -8   -0.16    1.02 
  12   3  -8    2.44    1.30 
 -12  -3   8    2.00    0.99 
 -12  -3   8    1.09    1.13 
  11   3  -8   12.08    1.63 
  11   3  -8   11.02    1.68 
 -11  -3   8    9.02    1.45 
 -11  -3   8    9.10    1.52 
  10   3  -8    2.74    1.06 
  10   3  -8    2.35    0.87 
 -10  -3   8    1.49    0.82 
 -10  -3   8    2.54    0.77 
   9   3  -8   21.35    2.11 
   9   3  -8   22.47    1.22 
  -9  -3   8   20.52    1.43 
  -9  -3   8   21.94    1.18 
   8   3  -8   23.00    1.14 
   8   3  -8   21.42    1.43 
  -8  -3   8   20.31    1.18 
  -8  -3   8   19.45    1.38 
  -8  -3   8   19.02    1.12 
  -8  -3   8   18.37    1.34 
   7   3  -8    7.00    0.83 
   7   3  -8    3.93    0.68 
   7   3  -8    5.22    0.92 
  -7  -3   8    4.35    0.39 
  -7  -3   8    5.61    0.87 
  -7  -3   8    5.62    0.72 
  -7  -3   8    5.26    0.88 
   6   3  -8    0.00    0.49 
   6   3  -8   -0.98    0.50 
  -6  -3   8    0.09    0.38 
  -6  -3   8   -0.82    0.46 
  -6  -3   8   -0.16    0.53 
   5   3  -8    8.07    0.85 
   5   3  -8    8.47    0.89 
  -5  -3   8    7.25    0.70 
  -5  -3   8    7.94    0.88 
  -5  -3   8    6.71    0.82 
   4   3  -8   68.30    2.08 
   4   3  -8   67.70    2.03 
  -4  -3   8   68.33    1.46 
  -4  -3   8   69.00    2.04 
  -4  -3   8   65.33    1.93 
  -4  -3   8   70.75    2.00 
   3   3  -8  108.92    2.78 
   3   3  -8  112.77    2.85 
  -3  -3   8  110.97    2.77 
  -3  -3   8  108.46    2.71 
  -3  -3   8  112.00    2.80 
  -3  -3   8  112.04    2.34 
   2   3  -8   68.67    1.94 
   2   3  -8   72.21    2.04 
  -2  -3   8   67.57    1.93 
  -2  -3   8   69.52    1.86 
  -2  -3   8   67.72    1.99 
  -2  -3   8   67.39    1.97 
  -2  -3   8   70.63    1.70 
   1   3  -8   41.31    1.39 
   1   3  -8   42.26    1.43 
  -1  -3   8   39.53    1.42 
  -1  -3   8   43.35    1.31 
  -1  -3   8   40.19    1.46 
  -1  -3   8   43.60    1.35 
   0   3  -8   16.09    0.91 
   0   3  -8   14.70    0.86 
   0   3  -8   16.58    0.91 
   0  -3   8   15.83    0.96 
   0  -3   8   15.39    0.87 
   0  -3   8   16.93    0.89 
   0  -3   8   16.74    0.98 
  -1   3  -8   48.23    1.47 
  -1   3  -8   48.96    1.45 
  -1   3  -8   47.23    1.66 
   1  -3   8   48.08    1.64 
   1  -3   8   51.45    1.60 
   1  -3   8   45.90    1.64 
   1  -3   8   49.26    1.68 
  -2   3  -8    4.88    0.63 
  -2   3  -8    4.15    0.61 
   2  -3   8    5.59    0.95 
   2  -3   8    4.06    0.74 
   2  -3   8    4.68    0.79 
   2  -3   8    4.13    0.71 
   2  -3   8    3.51    0.58 
  -3   3  -8   10.69    0.72 
  -3   3  -8    9.01    1.07 
   3  -3   8    9.84    1.04 
   3  -3   8   11.48    1.04 
   3  -3   8   10.27    1.19 
   3  -3   8   10.86    0.91 
   3  -3   8   10.99    1.11 
  -4   3  -8    3.52    0.64 
   4  -3   8    2.43    0.95 
   4  -3   8    2.75    0.75 
  -5   3  -8    7.69    0.99 
  -5   3  -8    9.02    1.22 
   5  -3   8    9.90    1.37 
   5  -3   8    7.68    1.08 
   5  -3   8    8.87    1.29 
  -6   3  -8   11.74    1.42 
  -6   3  -8   14.10    1.28 
   6  -3   8   14.88    1.23 
   6  -3   8   13.21    1.50 
  -7   3  -8    0.16    0.81 
   7  -3   8    4.27    1.15 
   7  -3   8    1.53    0.88 
  12   2  -8    2.59    0.90 
  12   2  -8    1.15    1.07 
 -12  -2   8    0.15    1.02 
 -12  -2   8    1.99    0.93 
  11   2  -8    3.09    1.16 
  11   2  -8    4.45    0.99 
 -11  -2   8    4.09    1.14 
 -11  -2   8    4.40    0.98 
  10   2  -8    2.14    0.88 
  10   2  -8   -0.72    0.93 
 -10  -2   8    0.86    0.91 
 -10  -2   8    0.82    0.76 
   9   2  -8   23.28    1.49 
   9   2  -8   25.81    1.58 
  -9  -2   8   23.42    1.58 
  -9  -2   8   24.38    1.07 
  -9  -2   8   22.63    1.62 
  -9  -2   8   25.42    1.15 
   8   2  -8   15.26    1.16 
   8   2  -8   14.99    1.26 
  -8  -2   8   15.71    0.83 
  -8  -2   8   15.50    0.99 
  -8  -2   8   14.87    1.11 
  -8  -2   8   15.63    1.20 
  -8  -2   8   15.49    0.99 
   7   2  -8   24.12    1.12 
   7   2  -8   22.04    1.30 
   7   2  -8   22.80    1.31 
  -7  -2   8   23.16    0.88 
  -7  -2   8   22.97    1.10 
  -7  -2   8   22.13    1.27 
  -7  -2   8   23.59    1.00 
  -7  -2   8   23.58    1.25 
   6   2  -8   17.18    1.28 
   6   2  -8   17.26    1.03 
  -6  -2   8   16.02    0.97 
  -6  -2   8   16.72    0.91 
  -6  -2   8   16.82    0.92 
  -6  -2   8   16.90    0.98 
  -6  -2   8   16.70    0.68 
   5   2  -8    1.29    0.52 
  -5  -2   8    0.43    0.39 
  -5  -2   8    0.60    0.49 
  -5  -2   8    1.24    0.24 
  -5  -2   8    1.03    0.33 
   4   2  -8   44.13    1.60 
   4   2  -8   45.72    1.66 
  -4  -2   8   43.91    1.17 
  -4  -2   8   46.18    1.54 
  -4  -2   8   45.93    1.51 
  -4  -2   8   43.16    1.48 
   3   2  -8   99.64    2.54 
   3   2  -8   98.67    2.59 
  -3  -2   8   95.66    2.46 
  -3  -2   8   96.15    2.46 
  -3  -2   8   97.45    2.31 
  -3  -2   8   99.16    2.20 
   2   2  -8   21.67    1.08 
   2   2  -8   21.37    1.04 
   2   2  -8   22.66    1.12 
  -2  -2   8   21.39    1.04 
  -2  -2   8   22.23    1.06 
  -2  -2   8   21.85    0.98 
  -2  -2   8   21.49    0.88 
   1   2  -8    2.51    0.53 
   1   2  -8    2.41    0.46 
   1   2  -8    2.00    0.44 
  -1  -2   8    1.72    0.52 
  -1  -2   8    1.88    0.49 
  -1  -2   8    1.86    0.43 
  -1  -2   8    1.77    0.33 
   0   2  -8    1.77    0.47 
   0   2  -8    2.37    0.45 
   0   2  -8    2.03    0.46 
   0  -2   8    1.32    0.47 
   0  -2   8    2.00    0.47 
   0  -2   8    2.07    0.42 
   0  -2   8    2.09    0.41 
  -1   2  -8    9.25    0.71 
  -1   2  -8    8.77    0.77 
  -1   2  -8    8.17    0.84 
   1  -2   8    8.00    0.76 
   1  -2   8    8.89    0.88 
   1  -2   8    6.98    0.81 
   1  -2   8    9.26    0.96 
  -2   2  -8   39.91    1.21 
  -2   2  -8   39.91    1.60 
   2  -2   8   38.60    1.60 
   2  -2   8   38.78    1.61 
   2  -2   8   37.10    1.46 
   2  -2   8   42.17    1.38 
   2  -2   8   39.62    1.67 
  -3   2  -8   11.21    1.10 
  -3   2  -8   12.96    1.02 
  -3   2  -8   10.84    0.56 
   3  -2   8   12.16    0.89 
   3  -2   8   10.94    1.22 
   3  -2   8   11.58    1.08 
   3  -2   8   12.42    1.05 
  -4   2  -8    0.31    0.56 
   4  -2   8   -0.01    1.10 
   4  -2   8    0.06    0.45 
  -5   2  -8   40.86    1.81 
  -5   2  -8   40.66    1.95 
   5  -2   8   42.07    1.87 
   5  -2   8   42.13    2.05 
   5  -2   8   39.87    1.76 
  -6   2  -8    9.28    1.14 
  -6   2  -8    9.73    1.48 
   6  -2   8    6.65    1.05 
   6  -2   8    5.47    1.04 
   6  -2   8    7.62    1.37 
  -7   2  -8    3.83    1.16 
   7  -2   8    4.58    1.27 
   7  -2   8    5.95    1.32 
   7  -2   8    2.98    0.85 
  12   1  -8   13.65    1.58 
  12   1  -8   11.41    1.69 
 -12  -1   8   10.56    1.64 
 -12  -1   8   10.64    1.46 
  11   1  -8   14.26    1.67 
  11   1  -8   13.59    1.50 
 -11  -1   8   13.39    1.38 
 -11  -1   8   13.77    1.42 
 -11  -1   8   16.77    1.46 
  10   1  -8    8.42    1.25 
  10   1  -8    8.75    1.44 
 -10  -1   8    8.17    1.08 
 -10  -1   8    8.53    1.39 
 -10  -1   8    8.46    1.30 
 -10  -1   8    7.12    1.11 
   9   1  -8   21.54    1.35 
   9   1  -8   22.44    1.22 
   9   1  -8   21.77    1.46 
  -9  -1   8   20.21    1.24 
  -9  -1   8   21.49    1.14 
  -9  -1   8   21.98    1.39 
  -9  -1   8   19.26    1.51 
   8   1  -8   14.96    0.87 
   8   1  -8   15.71    0.96 
   8   1  -8   14.89    1.24 
   8   1  -8   15.99    1.56 
  -8  -1   8   14.03    1.02 
  -8  -1   8   15.30    0.96 
  -8  -1   8   14.09    1.08 
  -8  -1   8   13.23    1.24 
   7   1  -8   87.33    2.20 
   7   1  -8   86.12    2.66 
   7   1  -8   87.28    2.20 
   7   1  -8   85.46    2.55 
  -7  -1   8   86.38    2.41 
  -7  -1   8   84.61    2.54 
  -7  -1   8   86.18    2.31 
  -7  -1   8   86.58    2.15 
   6   1  -8   32.30    1.55 
   6   1  -8   29.26    1.39 
   6   1  -8   30.73    1.20 
  -6  -1   8   25.89    1.34 
  -6  -1   8   29.86    1.16 
  -6  -1   8   30.01    1.18 
  -6  -1   8   30.75    1.41 
   5   1  -8    0.01    0.48 
   5   1  -8   -0.30    0.37 
   5   1  -8    0.02    0.40 
  -5  -1   8    0.40    0.26 
  -5  -1   8   -0.34    0.38 
  -5  -1   8    0.28    0.45 
   4   1  -8    0.91    0.45 
   4   1  -8    1.24    0.47 
   4   1  -8    1.07    0.32 
  -4  -1   8    1.33    0.48 
  -4  -1   8    1.24    0.38 
  -4  -1   8    0.75    0.41 
  -4  -1   8    1.26    0.51 
   3   1  -8   20.80    1.02 
   3   1  -8   20.47    1.07 
   3   1  -8   20.77    1.08 
  -3  -1   8   19.89    0.95 
  -3  -1   8   22.34    1.03 
  -3  -1   8   20.96    1.03 
  -3  -1   8   20.62    0.85 
   2   1  -8   79.31    2.14 
   2   1  -8   81.27    2.17 
   2   1  -8   79.71    2.11 
  -2  -1   8   78.55    2.12 
  -2  -1   8   79.55    2.12 
  -2  -1   8   78.69    2.02 
  -2  -1   8   77.47    2.12 
   1   1  -8   29.80    1.24 
   1   1  -8   29.90    1.17 
   1   1  -8   29.14    1.13 
  -1  -1   8   27.27    1.07 
  -1  -1   8   27.51    1.12 
  -1  -1   8   29.36    1.24 
  -1  -1   8   28.84    1.14 
   0   1  -8    9.80    0.78 
   0   1  -8   10.21    0.81 
   0   1  -8   11.08    0.76 
   0  -1   8   10.64    0.89 
   0  -1   8   10.16    0.80 
   0  -1   8   10.27    0.87 
   0  -1   8   10.24    0.86 
  -1   1  -8    8.29    0.78 
  -1   1  -8    9.51    0.71 
   1  -1   8    8.17    0.80 
   1  -1   8    5.89    0.67 
   1  -1   8    7.37    0.83 
   1  -1   8    7.86    0.82 
  -2   1  -8   65.29    1.99 
   2  -1   8   65.04    2.19 
   2  -1   8   65.92    2.14 
   2  -1   8   67.96    1.95 
   2  -1   8   64.81    2.00 
   2  -1   8   66.14    2.14 
  -3   1  -8   34.53    1.49 
  -3   1  -8   33.02    1.59 
   3  -1   8   34.94    1.57 
   3  -1   8   32.71    1.65 
   3  -1   8   34.75    1.44 
   3  -1   8   31.51    1.40 
  -4   1  -8    0.34    0.67 
  -4   1  -8    1.06    0.80 
   4  -1   8    0.79    0.85 
   4  -1   8    1.79    0.61 
  -5   1  -8   -0.28    0.76 
  -5   1  -8   -0.42    0.72 
   5  -1   8   -0.39    0.78 
   5  -1   8   -0.31    0.63 
  -6   1  -8    3.86    0.96 
   6  -1   8    5.40    1.04 
   6  -1   8    7.02    1.27 
   6  -1   8    4.94    1.08 
  -7   1  -8   15.87    1.59 
  -7   1  -8   12.31    1.54 
   7  -1   8   13.84    1.58 
   7  -1   8   10.55    1.33 
   7  -1   8   15.91    1.72 
  12   0  -8   14.17    1.48 
  12   0  -8   11.16    1.59 
 -12   0   8   11.59    1.76 
 -12   0   8   12.34    1.63 
 -12   0   8   10.45    1.66 
  11   0  -8   17.24    1.59 
  11   0  -8   18.59    1.55 
 -11   0   8   18.33    1.58 
 -11   0   8   17.97    1.58 
 -11   0   8   19.32    1.70 
  10   0  -8   37.66    2.00 
  10   0  -8   38.56    1.78 
 -10   0   8   36.84    1.64 
 -10   0   8   38.38    2.01 
 -10   0   8   38.58    1.74 
 -10   0   8   37.89    1.74 
   9   0  -8   11.42    0.98 
   9   0  -8    9.51    1.26 
  -9   0   8    9.82    1.17 
  -9   0   8    8.70    0.99 
  -9   0   8    9.03    1.13 
  -9   0   8   10.56    1.15 
   8   0  -8    3.32    0.72 
   8   0  -8    3.12    0.63 
   8   0  -8    3.78    0.48 
   8   0  -8    3.86    0.89 
  -8   0   8    3.13    0.74 
  -8   0   8    4.45    0.74 
  -8   0   8    3.37    0.64 
  -8   0   8    4.31    0.65 
   7   0  -8   22.15    1.41 
   7   0  -8   21.72    1.30 
   7   0  -8   20.47    1.03 
   7   0  -8   22.72    1.00 
  -7   0   8   20.97    1.12 
  -7   0   8   23.37    1.00 
  -7   0   8   22.19    1.31 
  -7   0   8   23.93    1.10 
   6   0  -8   49.82    1.48 
   6   0  -8   48.16    1.71 
   6   0  -8   47.90    1.80 
  -6   0   8   46.32    1.49 
  -6   0   8   48.51    1.50 
  -6   0   8   48.88    1.56 
  -6   0   8   47.91    1.75 
   5   0  -8   97.54    2.64 
   5   0  -8   90.21    2.51 
   5   0  -8   94.78    2.34 
  -5   0   8   93.07    2.52 
  -5   0   8   93.84    2.30 
  -5   0   8   88.69    2.40 
  -5   0   8   92.92    2.26 
   4   0  -8    4.03    0.63 
   4   0  -8    3.65    0.59 
   4   0  -8    3.12    0.51 
  -4   0   8    3.86    0.57 
  -4   0   8    3.36    0.58 
  -4   0   8    3.81    0.53 
  -4   0   8    4.97    0.75 
   3   0  -8   13.03    0.85 
   3   0  -8   12.76    0.92 
   3   0  -8   12.92    0.79 
  -3   0   8   14.53    0.89 
  -3   0   8   14.02    0.93 
  -3   0   8   13.30    0.71 
  -3   0   8   14.46    0.81 
   2   0  -8  104.93    2.60 
   2   0  -8  105.02    2.62 
   2   0  -8  104.21    2.56 
  -2   0   8   98.72    2.60 
  -2   0   8  103.90    2.57 
  -2   0   8  103.12    2.54 
  -2   0   8  104.81    2.51 
   1   0  -8   21.07    1.06 
   1   0  -8   20.70    0.98 
   1   0  -8   19.82    1.02 
  -1   0   8   18.30    0.93 
  -1   0   8   19.15    0.98 
  -1   0   8   18.70    0.93 
  -1   0   8   19.59    1.00 
   0   0  -8   10.47    0.77 
   0   0  -8   10.35    0.72 
   0   0  -8    9.69    0.85 
   0   0   8   11.07    0.94 
   0   0   8   10.37    0.82 
   0   0   8   10.01    0.73 
   0   0   8   10.35    0.94 
  -1   0  -8    5.86    0.64 
  -1   0  -8    5.11    0.83 
   1   0   8    6.37    0.87 
   1   0   8    6.36    0.89 
   1   0   8    4.79    0.77 
   1   0   8    5.78    0.71 
   1   0   8    7.56    0.86 
  -2   0  -8   69.09    2.18 
  -2   0  -8   67.14    1.62 
  -2   0  -8   68.91    2.15 
   2   0   8   67.61    2.08 
   2   0   8   65.66    2.00 
   2   0   8   68.06    2.28 
   2   0   8   68.09    2.20 
  -3   0  -8   28.81    1.49 
  -3   0  -8   30.67    1.50 
   3   0   8   27.95    1.48 
   3   0   8   27.91    1.31 
   3   0   8   29.53    1.42 
   3   0   8   26.75    1.64 
  -4   0  -8   69.45    2.34 
  -4   0  -8   70.43    2.52 
   4   0   8   72.07    2.62 
   4   0   8   72.63    2.38 
   4   0   8   72.48    2.65 
  -5   0  -8   42.56    2.03 
  -5   0  -8   40.89    1.86 
   5   0   8   42.48    2.13 
   5   0   8   39.86    1.88 
  -6   0  -8    0.67    0.81 
  -6   0  -8    1.35    0.77 
   6   0   8    0.32    0.64 
   6   0   8    1.61    0.81 
   6   0   8    0.04    0.75 
  -7   0  -8    6.90    1.34 
  -7   0  -8    9.76    1.54 
   7   0   8    7.61    1.33 
   7   0   8    9.82    1.28 
   7   0   8    9.21    1.62 
  12  -1  -8    3.81    1.13 
 -12   1   8    3.29    1.00 
 -12   1   8    3.79    1.13 
  11  -1  -8   11.54    1.33 
  11  -1  -8    9.22    1.49 
 -11   1   8    8.80    1.38 
 -11   1   8   11.98    1.47 
 -11   1   8   13.77    1.20 
  10  -1  -8   32.04    1.89 
  10  -1  -8   33.12    1.64 
 -10   1   8   29.68    1.65 
 -10   1   8   27.99    1.72 
 -10   1   8   29.72    1.72 
 -10   1   8   33.51    1.67 
   9  -1  -8   16.00    1.41 
   9  -1  -8   14.90    1.20 
  -9   1   8   14.12    1.24 
  -9   1   8   15.06    1.12 
  -9   1   8   14.10    1.22 
  -9   1   8   16.76    1.25 
   8  -1  -8   20.79    1.14 
   8  -1  -8   20.38    0.93 
   8  -1  -8   24.59    2.23 
   8  -1  -8   19.52    1.26 
  -8   1   8   21.98    1.42 
  -8   1   8   20.25    1.22 
  -8   1   8   18.94    1.23 
  -8   1   8   21.04    1.09 
   7  -1  -8    4.43    0.82 
   7  -1  -8    6.08    0.80 
   7  -1  -8    6.51    0.91 
   7  -1  -8    6.43    0.66 
  -7   1   8    7.48    1.01 
  -7   1   8    6.28    0.83 
  -7   1   8    6.49    0.78 
  -7   1   8    6.60    0.91 
   6  -1  -8   17.38    1.21 
   6  -1  -8   19.32    1.27 
   6  -1  -8   17.16    0.91 
  -6   1   8   20.32    1.20 
  -6   1   8   18.89    0.93 
  -6   1   8   17.55    1.03 
  -6   1   8   18.04    1.02 
   5  -1  -8   52.59    1.82 
   5  -1  -8   55.24    1.64 
   5  -1  -8   50.37    1.78 
  -5   1   8   54.84    1.66 
  -5   1   8   54.45    1.70 
  -5   1   8   55.70    1.79 
  -5   1   8   54.24    1.56 
   4  -1  -8   24.99    1.20 
   4  -1  -8   23.22    1.21 
   4  -1  -8   26.08    1.14 
  -4   1   8   25.27    1.05 
  -4   1   8   25.92    1.19 
  -4   1   8   25.98    1.09 
  -4   1   8   22.95    1.14 
   3  -1  -8   13.66    0.98 
   3  -1  -8   13.56    0.79 
   3  -1  -8   13.71    0.99 
  -3   1   8   12.02    0.82 
  -3   1   8   11.47    0.87 
  -3   1   8   12.40    0.86 
  -3   1   8   12.45    0.78 
   2  -1  -8   73.62    2.04 
   2  -1  -8   75.27    2.11 
   2  -1  -8   78.18    2.16 
  -2   1   8   74.28    2.19 
  -2   1   8   77.12    2.09 
  -2   1   8   76.38    2.11 
  -2   1   8   77.48    2.03 
   1  -1  -8   45.09    1.41 
   1  -1  -8   41.42    1.47 
   1  -1  -8   43.47    1.43 
  -1   1   8   43.42    1.51 
  -1   1   8   42.57    1.43 
  -1   1   8   40.46    1.52 
  -1   1   8   43.63    1.48 
   0  -1  -8  114.14    2.60 
   0  -1  -8  104.15    2.76 
   0  -1  -8  113.40    2.59 
   0   1   8  109.10    2.88 
   0   1   8  106.26    2.72 
   0   1   8  106.49    2.66 
   0   1   8  106.75    2.61 
   0   1   8  109.12    2.86 
  -1  -1  -8  106.21    2.81 
  -1  -1  -8  104.04    2.81 
  -1  -1  -8  109.21    2.43 
   1   1   8  105.13    2.99 
   1   1   8  108.28    2.72 
   1   1   8  104.26    2.60 
   1   1   8  102.86    2.90 
  -2  -1  -8   40.71    1.68 
  -2  -1  -8   40.58    1.63 
   2   1   8   41.68    1.46 
   2   1   8   41.75    1.59 
   2   1   8   37.04    1.57 
   2   1   8   39.08    1.74 
  -3  -1  -8    0.66    0.67 
  -3  -1  -8    1.75    0.72 
   3   1   8    2.14    0.86 
   3   1   8    1.69    0.53 
   3   1   8    1.28    0.66 
  -4  -1  -8   42.41    1.98 
  -4  -1  -8   45.39    1.92 
   4   1   8   43.26    1.75 
   4   1   8   43.81    1.95 
   4   1   8   39.72    1.91 
  -5  -1  -8   29.16    1.64 
  -5  -1  -8   31.60    2.05 
   5   1   8   30.50    1.59 
   5   1   8   32.23    1.77 
   5   1   8   31.26    2.00 
  -6  -1  -8    5.62    0.88 
  -6  -1  -8    4.57    1.20 
   6   1   8    4.96    1.05 
   6   1   8    4.30    0.83 
   6   1   8    4.68    1.10 
  -7  -1  -8    1.15    0.90 
  -7  -1  -8    3.26    1.28 
   7   1   8   -1.22    1.12 
   7   1   8    1.10    1.07 
   7   1   8   -0.89    0.86 
  12  -2  -8   14.60    1.30 
  12  -2  -8   10.73    1.66 
 -12   2   8   12.03    1.80 
 -12   2   8   11.40    1.56 
  11  -2  -8    0.85    0.90 
  11  -2  -8    1.84    0.76 
 -11   2   8    0.91    0.94 
 -11   2   8    0.87    0.93 
  10  -2  -8   15.97    1.57 
  10  -2  -8   15.32    1.49 
 -10   2   8   14.26    1.40 
 -10   2   8   15.98    1.52 
 -10   2   8   15.24    1.42 
 -10   2   8   15.57    1.25 
   9  -2  -8   14.87    1.14 
   9  -2  -8   14.45    1.24 
  -9   2   8   15.04    1.27 
  -9   2   8   18.13    1.36 
  -9   2   8   17.58    1.09 
  -9   2   8   14.81    1.41 
   8  -2  -8    6.27    0.99 
   8  -2  -8    4.96    0.94 
   8  -2  -8    5.91    0.64 
  -8   2   8    5.27    0.84 
  -8   2   8    8.77    1.14 
  -8   2   8    6.25    1.00 
  -8   2   8    5.80    0.88 
   7  -2  -8    2.21    0.69 
   7  -2  -8    3.68    0.60 
   7  -2  -8    2.25    0.60 
   7  -2  -8    5.04    0.73 
  -7   2   8    4.27    0.70 
  -7   2   8    3.48    0.56 
  -7   2   8    6.35    1.01 
  -7   2   8    3.18    0.69 
   6  -2  -8    0.53    0.39 
   6  -2  -8    0.92    0.56 
   6  -2  -8    0.65    0.47 
   6  -2  -8   -0.08    0.42 
  -6   2   8    1.46    0.66 
  -6   2   8    1.06    0.47 
  -6   2   8    0.95    0.42 
  -6   2   8    0.67    0.58 
   5  -2  -8   42.18    1.41 
   5  -2  -8   42.93    1.68 
   5  -2  -8   39.63    1.54 
  -5   2   8   39.74    1.45 
  -5   2   8   42.92    1.58 
  -5   2   8   41.60    1.49 
  -5   2   8   43.38    1.40 
   4  -2  -8   99.20    2.64 
   4  -2  -8  104.43    2.57 
   4  -2  -8   99.97    2.69 
  -4   2   8  104.65    2.40 
  -4   2   8  102.20    2.65 
  -4   2   8   98.56    2.70 
  -4   2   8   99.59    2.56 
   3  -2  -8   29.28    1.31 
   3  -2  -8   28.26    1.23 
   3  -2  -8   28.65    1.30 
  -3   2   8   28.18    1.09 
  -3   2   8   27.34    1.29 
  -3   2   8   28.04    1.25 
  -3   2   8   27.34    1.13 
   2  -2  -8    1.71    0.41 
   2  -2  -8    3.06    0.58 
   2  -2  -8    2.33    0.46 
  -2   2   8    3.43    0.57 
  -2   2   8    2.80    0.52 
  -2   2   8    2.51    0.58 
  -2   2   8    3.06    0.63 
   1  -2  -8    6.87    0.72 
   1  -2  -8    7.54    0.68 
   1  -2  -8    8.13    0.86 
  -1   2   8    7.55    0.74 
  -1   2   8    7.62    0.90 
  -1   2   8    6.41    0.76 
  -1   2   8    7.97    0.97 
  -1   2   8    6.98    0.76 
   0  -2  -8   82.15    2.07 
   0  -2  -8   81.17    2.06 
   0  -2  -8   80.89    2.26 
   0  -2  -8   76.10    2.27 
   0   2   8   76.81    2.11 
   0   2   8   78.90    2.40 
   0   2   8   77.42    2.38 
   0   2   8   80.18    2.16 
  -1  -2  -8   46.16    1.68 
  -1  -2  -8   47.82    1.39 
  -1  -2  -8   46.21    1.65 
  -1  -2  -8   47.31    1.41 
   1   2   8   42.51    1.69 
   1   2   8   46.05    1.57 
   1   2   8   46.26    1.54 
   1   2   8   45.00    1.78 
  -2  -2  -8    4.88    0.76 
  -2  -2  -8    5.75    0.62 
  -2  -2  -8    5.48    0.96 
   2   2   8    4.81    0.76 
   2   2   8    4.70    0.74 
   2   2   8    4.99    0.97 
  -3  -2  -8   13.90    1.19 
  -3  -2  -8   12.69    1.34 
   3   2   8   13.41    1.14 
   3   2   8   14.01    1.01 
  -4  -2  -8   14.98    1.43 
   4   2   8   14.03    2.08 
   4   2   8   17.83    1.62 
   4   2   8   14.54    1.38 
  -5  -2  -8    9.42    1.63 
  -5  -2  -8    8.14    1.32 
   5   2   8   11.22    1.39 
   5   2   8   11.43    1.41 
   5   2   8   12.67    1.34 
  -6  -2  -8    2.23    1.08 
  -6  -2  -8    4.37    0.93 
   6   2   8    3.52    1.06 
   6   2   8    3.73    0.82 
   6   2   8    2.43    1.02 
  -7  -2  -8    0.09    1.00 
  -7  -2  -8    2.55    1.04 
   7   2   8    1.98    1.18 
   7   2   8    1.89    0.82 
   7   2   8    1.17    1.03 
  12  -3  -8    7.34    1.08 
  12  -3  -8    5.36    1.34 
 -12   3   8    6.97    1.40 
 -12   3   8    6.76    1.29 
  11  -3  -8    0.88    0.74 
  11  -3  -8    1.41    0.86 
 -11   3   8   -0.12    0.98 
 -11   3   8    0.64    0.94 
  10  -3  -8   -0.66    0.77 
  10  -3  -8    0.20    0.94 
 -10   3   8    0.53    0.85 
 -10   3   8   -0.29    0.77 
   9  -3  -8   16.90    1.30 
  -9   3   8   15.54    1.18 
  -9   3   8   15.81    1.34 
  -9   3   8   17.13    1.43 
   8  -3  -8    8.78    0.93 
   8  -3  -8    8.06    1.29 
   8  -3  -8    8.20    0.66 
  -8   3   8    7.22    1.02 
  -8   3   8    9.91    1.07 
  -8   3   8    8.12    0.94 
  -8   3   8    8.81    1.07 
   7  -3  -8   68.64    2.40 
   7  -3  -8   65.48    2.41 
   7  -3  -8   65.84    1.79 
   7  -3  -8   70.82    1.99 
  -7   3   8   66.69    2.15 
  -7   3   8   66.98    2.29 
  -7   3   8   69.79    2.24 
   6  -3  -8   26.26    1.39 
   6  -3  -8   29.94    1.46 
   6  -3  -8   27.40    1.13 
   6  -3  -8   28.85    1.25 
  -6   3   8   29.44    1.39 
  -6   3   8   28.47    1.36 
  -6   3   8   29.36    1.52 
   5  -3  -8   63.62    2.12 
   5  -3  -8   59.63    2.02 
   5  -3  -8   62.42    1.80 
   5  -3  -8   61.72    1.81 
  -5   3   8   61.19    1.95 
  -5   3   8   56.36    1.79 
  -5   3   8   59.79    2.00 
   4  -3  -8   66.64    2.15 
   4  -3  -8   63.32    1.88 
   4  -3  -8   66.40    2.13 
  -4   3   8   65.42    1.82 
  -4   3   8   63.93    2.07 
  -4   3   8   62.73    2.02 
  -4   3   8   62.17    1.83 
   3  -3  -8   26.92    1.26 
   3  -3  -8   26.99    1.22 
   3  -3  -8   28.46    1.29 
  -3   3   8   29.19    1.12 
  -3   3   8   26.57    1.32 
  -3   3   8   28.84    1.16 
  -3   3   8   27.23    1.18 
  -3   3   8   29.99    1.37 
   2  -3  -8   18.70    1.02 
   2  -3  -8   17.88    1.03 
   2  -3  -8   18.07    1.06 
  -2   3   8   16.98    0.94 
  -2   3   8   18.51    1.24 
  -2   3   8   20.61    0.88 
  -2   3   8   16.50    1.07 
   1  -3  -8    6.49    0.77 
   1  -3  -8    6.33    0.67 
   1  -3  -8    6.11    0.68 
   1  -3  -8    5.87    0.76 
  -1   3   8    5.00    0.92 
  -1   3   8    4.61    0.77 
  -1   3   8    5.31    0.69 
  -1   3   8    6.17    0.87 
   0  -3  -8    5.40    0.78 
   0  -3  -8    6.08    0.65 
   0  -3  -8    5.85    0.89 
   0  -3  -8    5.16    0.75 
   0   3   8    4.37    0.72 
   0   3   8    5.78    0.77 
   0   3   8    4.68    0.77 
   0   3   8    5.03    0.80 
  -1  -3  -8   30.61    1.14 
  -1  -3  -8   30.30    1.44 
  -1  -3  -8   32.03    1.16 
  -1  -3  -8   32.35    1.44 
   1   3   8   30.76    1.69 
   1   3   8   31.57    1.32 
   1   3   8   35.75    1.78 
   1   3   8   30.74    1.26 
  -2  -3  -8   42.68    1.27 
  -2  -3  -8   41.47    1.78 
  -2  -3  -8   42.51    1.77 
   2   3   8   44.19    1.61 
   2   3   8   37.46    1.78 
   2   3   8   42.09    1.78 
   3   3   8    1.58    0.96 
   3   3   8    0.42    0.62 
   3   3   8   -0.07    0.70 
  -4  -3  -8    2.63    0.89 
  -4  -3  -8    2.37    0.97 
   4   3   8    0.37    0.62 
   4   3   8    1.55    0.68 
  -5  -3  -8    7.18    1.14 
  -5  -3  -8    6.30    1.19 
   5   3   8    7.50    1.19 
   5   3   8    6.08    1.22 
   5   3   8    7.28    1.07 
  -6  -3  -8   17.71    1.55 
  -6  -3  -8   13.71    1.56 
   6   3   8   14.85    1.27 
   6   3   8   16.26    1.62 
   6   3   8   14.61    1.72 
  12  -4  -8   12.05    1.80 
  12  -4  -8   14.18    1.49 
 -12   4   8   13.64    1.93 
 -12   4   8   13.32    1.72 
  11  -4  -8    6.61    1.24 
  11  -4  -8    5.45    0.98 
 -11   4   8    7.09    1.28 
 -11   4   8    5.97    1.25 
  10  -4  -8    4.74    1.09 
  10  -4  -8    3.48    0.93 
 -10   4   8    4.11    0.89 
 -10   4   8    3.33    1.06 
   9  -4  -8    2.58    0.77 
   9  -4  -8    3.13    0.63 
  -9   4   8    2.74    1.19 
  -9   4   8    2.84    0.96 
   8  -4  -8   21.74    1.15 
   8  -4  -8   19.54    1.33 
   8  -4  -8   17.41    0.83 
  -8   4   8   18.62    1.41 
  -8   4   8   17.53    1.32 
  -8   4   8   17.06    1.32 
   7  -4  -8   12.59    0.76 
   7  -4  -8   13.17    1.03 
   7  -4  -8   12.42    1.33 
  -7   4   8   12.51    1.19 
  -7   4   8   13.30    1.03 
  -7   4   8   13.21    1.31 
   6  -4  -8    0.16    0.42 
   6  -4  -8    1.07    0.65 
   6  -4  -8    0.99    0.68 
   6  -4  -8   -0.39    0.53 
  -6   4   8    0.45    0.69 
  -6   4   8   -0.04    0.47 
  -6   4   8    0.52    0.61 
   5  -4  -8    0.90    0.57 
   5  -4  -8    0.64    0.54 
   5  -4  -8    0.87    0.40 
  -5   4   8    0.34    0.62 
  -5   4   8    0.43    0.53 
  -5   4   8    0.12    0.43 
   4  -4  -8    8.37    0.85 
   4  -4  -8    7.11    0.95 
   4  -4  -8    7.64    0.92 
  -4   4   8    7.71    0.87 
  -4   4   8    7.49    0.81 
  -4   4   8    7.89    0.90 
  -4   4   8    8.35    1.09 
   3  -4  -8   58.83    1.96 
   3  -4  -8   62.06    1.68 
   3  -4  -8   58.42    1.98 
   3  -4  -8   58.32    1.85 
  -3   4   8   59.41    1.73 
  -3   4   8   62.02    1.80 
  -3   4   8   60.85    2.06 
  -3   4   8   57.13    2.10 
   2  -4  -8   23.06    1.11 
   2  -4  -8   22.50    1.12 
   2  -4  -8   23.40    1.22 
   2  -4  -8   24.32    1.01 
  -2   4   8   24.02    1.36 
  -2   4   8   22.03    1.15 
  -2   4   8   22.98    1.35 
  -2   4   8   22.21    1.10 
   1  -4  -8    2.95    0.52 
   1  -4  -8    3.41    0.63 
   1  -4  -8    3.06    0.67 
   1  -4  -8    3.47    0.53 
  -1   4   8    3.56    0.58 
  -1   4   8    3.14    0.61 
  -1   4   8    1.92    0.54 
  -1   4   8    2.91    0.75 
   0  -4  -8   46.40    1.57 
   0  -4  -8   49.52    1.60 
   0  -4  -8   48.62    1.66 
   0  -4  -8   45.98    1.76 
   0   4   8   50.45    2.04 
   0   4   8   50.59    1.82 
   0   4   8   50.01    1.57 
   0   4   8   45.18    1.93 
  -1  -4  -8   34.82    1.29 
  -1  -4  -8   35.60    1.28 
  -1  -4  -8   34.03    1.48 
  -1  -4  -8   34.78    1.62 
   1   4   8   35.90    1.44 
   1   4   8   32.37    1.59 
   1   4   8   35.56    1.44 
  -2  -4  -8   14.05    1.83 
  -2  -4  -8   20.29    1.42 
  -2  -4  -8   22.09    0.97 
   2   4   8   19.18    1.19 
   2   4   8   19.75    1.53 
  -3  -4  -8    3.08    0.97 
  -3  -4  -8    3.54    0.91 
   3   4   8    1.44    0.87 
   3   4   8    1.96    0.68 
   3   4   8    2.23    0.79 
  -4  -4  -8    5.82    1.12 
  -4  -4  -8    6.80    1.15 
   4   4   8    6.01    1.11 
   4   4   8    6.81    1.17 
  -5  -4  -8    3.64    0.86 
  -5  -4  -8    3.13    0.90 
   5   4   8    2.79    1.10 
   5   4   8    2.69    1.03 
   5   4   8    1.44    1.00 
  -6  -4  -8   11.73    1.60 
  -6  -4  -8   10.40    1.53 
   6   4   8   11.67    1.95 
   6   4   8    9.08    1.52 
   6   4   8   12.96    1.44 
  12  -5  -8   17.07    2.02 
  12  -5  -8   14.62    1.66 
 -12   5   8   17.71    2.01 
 -12   5   8   16.88    1.69 
  11  -5  -8    8.72    1.38 
  11  -5  -8    7.50    1.19 
 -11   5   8    6.28    1.24 
 -11   5   8    4.53    1.06 
  10  -5  -8   -0.84    0.78 
  10  -5  -8    0.61    0.96 
 -10   5   8   -1.21    0.81 
 -10   5   8   -0.34    0.88 
   9  -5  -8    5.20    0.97 
   9  -5  -8    6.74    0.81 
  -9   5   8    5.17    1.04 
  -9   5   8    3.80    0.98 
   8  -5  -8   16.86    1.39 
   8  -5  -8   19.41    1.16 
   8  -5  -8   18.38    1.37 
  -8   5   8   18.60    1.30 
  -8   5   8   15.31    2.43 
   7  -5  -8   39.16    1.32 
   7  -5  -8   41.75    1.66 
   7  -5  -8   38.89    1.77 
  -7   5   8   42.67    1.71 
  -7   5   8   42.94    1.95 
  -7   5   8   40.31    2.00 
   6  -5  -8   35.24    1.27 
   6  -5  -8   35.48    1.67 
   6  -5  -8   37.23    1.56 
  -6   5   8   35.38    1.79 
  -6   5   8   35.62    1.70 
  -6   5   8   36.98    1.58 
   5  -5  -8   18.31    1.26 
   5  -5  -8   18.23    1.08 
   5  -5  -8   19.50    1.44 
  -5   5   8   17.79    1.32 
  -5   5   8   17.65    1.15 
  -5   5   8   19.46    1.06 
  -5   5   8   19.09    1.03 
   4  -5  -8    8.39    0.81 
   4  -5  -8    9.12    1.09 
   4  -5  -8    5.58    0.89 
  -4   5   8    9.07    0.77 
  -4   5   8    7.99    1.23 
  -4   5   8    8.71    0.83 
  -4   5   8    6.48    0.87 
   3  -5  -8   46.78    1.80 
   3  -5  -8   46.24    1.67 
   3  -5  -8   44.66    1.65 
  -3   5   8   45.95    1.52 
  -3   5   8   45.73    1.91 
  -3   5   8   44.02    1.85 
  -3   5   8   48.91    1.68 
   2  -5  -8   53.38    1.59 
   2  -5  -8   53.38    1.91 
   2  -5  -8   54.45    1.94 
   2  -5  -8   54.22    1.83 
  -2   5   8   55.18    1.82 
  -2   5   8   55.43    1.65 
  -2   5   8   52.66    2.11 
  -2   5   8   54.83    2.12 
   1  -5  -8    1.84    0.65 
   1  -5  -8    2.64    0.60 
   1  -5  -8    3.39    0.56 
   1  -5  -8    2.10    0.58 
  -1   5   8    2.76    0.54 
  -1   5   8    1.69    0.66 
  -1   5   8    2.43    0.61 
  -1   5   8    1.69    0.62 
   0  -5  -8    0.04    0.55 
   0  -5  -8    0.36    0.47 
   0  -5  -8   -0.60    0.51 
   0  -5  -8    0.48    0.44 
   0   5   8    0.37    0.38 
   0   5   8    0.93    0.46 
   0   5   8    1.57    0.84 
  -1  -5  -8    9.79    1.15 
  -1  -5  -8    9.41    0.95 
  -1  -5  -8    9.18    0.85 
   1   5   8    9.73    1.29 
   1   5   8   10.18    0.98 
   1   5   8    6.39    1.16 
  -2  -5  -8   33.13    1.65 
  -2  -5  -8   36.56    1.62 
   2   5   8   33.95    1.55 
   2   5   8   36.56    1.57 
   2   5   8   40.15    2.16 
  -3  -5  -8   21.23    1.73 
  -3  -5  -8   21.84    1.63 
   3   5   8   18.42    1.30 
   3   5   8   20.24    1.41 
   3   5   8   22.22    1.66 
  -4  -5  -8    8.14    1.21 
  -4  -5  -8    9.71    1.63 
   4   5   8    9.57    1.63 
   4   5   8    9.94    1.80 
  -5  -5  -8    0.08    0.86 
  -5  -5  -8   -0.10    0.72 
   5   5   8    0.89    0.90 
   5   5   8   -0.80    1.00 
   5   5   8   -0.31    0.67 
  11  -6  -8    4.88    0.92 
  11  -6  -8    4.61    1.08 
 -11   6   8    5.05    1.28 
 -11   6   8    4.24    1.16 
  10  -6  -8    5.34    1.09 
  10  -6  -8    6.22    1.16 
 -10   6   8    5.48    1.24 
 -10   6   8    7.04    1.24 
   9  -6  -8   -0.09    0.81 
   9  -6  -8   -0.62    0.70 
  -9   6   8   -0.11    0.76 
  -9   6   8   -0.80    0.63 
   8  -6  -8    9.49    1.17 
   8  -6  -8   10.99    1.37 
  -8   6   8   13.86    1.57 
  -8   6   8   10.81    1.25 
   7  -6  -8   37.68    1.32 
   7  -6  -8   36.71    1.75 
   7  -6  -8   36.33    1.83 
  -7   6   8   37.34    1.92 
  -7   6   8   38.12    1.77 
   6  -6  -8   57.52    2.16 
   6  -6  -8   61.60    2.00 
   6  -6  -8   59.01    1.83 
  -6   6   8   58.75    2.23 
  -6   6   8   62.19    1.98 
   5  -6  -8    6.99    0.72 
   5  -6  -8    8.63    1.23 
  -5   6   8    7.75    0.98 
  -5   6   8    7.05    1.06 
  -5   6   8    6.20    0.93 
   4  -6  -8   -0.55    0.58 
   4  -6  -8   -0.39    0.55 
  -4   6   8    1.24    0.84 
  -4   6   8    0.05    0.56 
  -4   6   8   -0.41    0.56 
  -4   6   8    0.66    0.44 
   3  -6  -8   11.09    1.12 
   3  -6  -8   12.86    1.26 
   3  -6  -8   10.92    1.06 
  -3   6   8   10.85    0.89 
  -3   6   8   11.68    0.85 
  -3   6   8   12.28    1.20 
  -3   6   8    9.04    1.26 
   2  -6  -8   10.86    1.12 
   2  -6  -8   14.93    1.29 
   2  -6  -8   12.60    0.96 
   2  -6  -8   11.93    1.05 
  -2   6   8   11.72    1.64 
  -2   6   8   13.01    1.35 
  -2   6   8   14.95    1.06 
  -2   6   8   12.42    0.85 
   1  -6  -8   96.78    2.66 
   1  -6  -8  100.13    2.47 
   1  -6  -8   94.24    2.68 
   1  -6  -8  100.31    2.96 
  -1   6   8   97.32    2.41 
  -1   6   8  100.09    2.83 
  -1   6   8   98.71    3.13 
   0  -6  -8   25.72    1.35 
   0  -6  -8   22.43    1.30 
   0  -6  -8   19.84    1.35 
   0  -6  -8   25.04    1.42 
   0   6   8   25.11    1.19 
   0   6   8   24.76    1.64 
  -1  -6  -8    3.51    0.90 
  -1  -6  -8    3.56    0.73 
  -1  -6  -8    2.83    0.63 
   1   6   8    3.02    0.89 
   1   6   8    2.49    0.92 
   1   6   8    4.00    0.63 
  -2  -6  -8   17.19    1.69 
  -2  -6  -8   15.99    1.36 
   2   6   8   21.04    1.92 
   2   6   8   17.76    1.72 
   2   6   8   19.59    1.22 
  -3  -6  -8    5.51    0.95 
  -3  -6  -8    3.39    0.87 
   3   6   8    3.64    1.02 
   3   6   8    3.83    0.87 
   3   6   8    3.81    0.91 
  -4  -6  -8   15.11    1.64 
  -4  -6  -8   13.98    1.71 
   4   6   8   15.00    1.60 
   4   6   8   14.41    1.87 
  -5  -6  -8    0.83    1.03 
  -5  -6  -8    0.06    1.05 
   5   6   8    0.44    0.95 
   5   6   8   -0.83    1.15 
  11  -7  -8   15.71    1.50 
  11  -7  -8   14.37    1.88 
 -11   7   8   14.14    1.95 
 -11   7   8   18.46    2.19 
  10  -7  -8    9.21    1.59 
  10  -7  -8   11.81    1.59 
 -10   7   8   11.14    1.40 
   9  -7  -8   11.84    1.62 
   9  -7  -8   13.75    1.66 
  -9   7   8   12.58    1.56 
  -9   7   8   13.49    1.60 
   8  -7  -8   19.11    1.48 
   8  -7  -8   15.72    1.43 
  -8   7   8   18.60    1.57 
   7  -7  -8    8.11    0.76 
   7  -7  -8    6.71    1.17 
   7  -7  -8    5.21    1.00 
  -7   7   8    7.56    1.32 
  -7   7   8    8.66    1.04 
   6  -7  -8   22.02    1.19 
   6  -7  -8   24.95    1.65 
  -6   7   8   22.88    1.34 
  -6   7   8   21.91    1.45 
  -6   7   8   22.84    1.67 
   5  -7  -8   26.14    1.29 
  -5   7   8   27.79    1.42 
  -5   7   8   25.59    1.67 
  -5   7   8   25.86    1.30 
   4  -7  -8   38.74    1.69 
   4  -7  -8   40.93    1.89 
  -4   7   8   43.12    1.46 
  -4   7   8   43.36    1.81 
   3  -7  -8   -0.07    0.59 
   3  -7  -8    0.08    0.64 
  -3   7   8    0.09    0.62 
  -3   7   8    0.53    0.49 
   2  -7  -8    2.40    0.71 
   2  -7  -8    2.67    0.85 
   2  -7  -8    1.50    0.48 
  -2   7   8    1.77    0.65 
  -2   7   8    2.35    0.54 
   1  -7  -8   16.32    1.12 
   1  -7  -8   15.28    1.24 
   1  -7  -8   16.08    0.96 
  -1   7   8   16.01    1.23 
  -1   7   8   17.19    1.00 
  -1   7   8   14.44    1.32 
   0  -7  -8   11.37    1.25 
   0  -7  -8    9.40    1.18 
   0  -7  -8    9.63    1.21 
   0  -7  -8   12.72    1.06 
   0   7   8   13.78    1.60 
   0   7   8   12.87    2.10 
  -1  -7  -8    1.39    0.65 
  -1  -7  -8    0.85    0.74 
  -1  -7  -8    1.27    0.72 
  -1  -7  -8    0.51    0.84 
   1   7   8    0.39    0.64 
   1   7   8    1.15    0.91 
  -2  -7  -8   -0.23    0.72 
  -2  -7  -8    0.19    0.89 
   2   7   8    0.03    0.85 
   2   7   8    0.23    1.10 
  -3  -7  -8    4.28    0.94 
  -3  -7  -8    1.57    0.91 
   3   7   8    1.89    1.25 
   3   7   8    2.73    0.88 
  -4  -7  -8    9.60    1.64 
  -4  -7  -8   13.21    1.80 
   4   7   8   12.12    1.96 
   4   7   8   11.48    1.62 
  11  -8  -8    3.74    1.30 
  11  -8  -8    3.33    0.93 
 -11   8   8    1.52    0.96 
 -11   8   8    3.11    1.03 
  10  -8  -8    0.15    1.01 
  10  -8  -8    1.84    1.02 
 -10   8   8    1.27    1.10 
 -10   8   8    0.39    1.09 
   9  -8  -8   33.63    1.99 
   9  -8  -8   33.16    2.11 
  -9   8   8   33.90    1.76 
  -9   8   8   32.93    2.18 
   8  -8  -8   20.32    1.47 
   8  -8  -8   17.09    1.57 
  -8   8   8   14.87    1.68 
  -8   8   8   16.75    1.55 
   7  -8  -8   -0.42    0.78 
   7  -8  -8    0.73    0.53 
  -7   8   8    0.83    0.64 
  -7   8   8   -0.52    0.77 
   6  -8  -8    0.29    0.53 
   6  -8  -8    1.20    0.86 
  -6   8   8   -0.96    0.65 
  -6   8   8   -0.25    0.91 
   5  -8  -8   15.11    1.43 
   5  -8  -8   15.91    1.19 
  -5   8   8   17.45    1.69 
  -5   8   8   17.10    1.46 
  -5   8   8   17.41    1.14 
   4  -8  -8    9.38    1.30 
   4  -8  -8   11.70    1.32 
  -4   8   8   10.50    1.56 
  -4   8   8   11.41    0.95 
  -4   8   8    8.35    1.29 
   3  -8  -8   10.16    1.17 
   3  -8  -8   12.29    1.28 
  -3   8   8   11.34    1.51 
  -3   8   8   12.96    1.45 
   2  -8  -8    1.86    0.85 
   2  -8  -8    2.59    1.14 
  -2   8   8    4.41    1.13 
   1  -8  -8    9.10    1.32 
   1  -8  -8    8.55    1.24 
  -1   8   8    9.73    1.14 
  -1   8   8    8.31    1.32 
   0  -8  -8    8.33    1.31 
   0  -8  -8   11.00    1.03 
   0  -8  -8    9.60    1.29 
   0   8   8   11.54    1.65 
   0   8   8   13.29    1.63 
  -1  -8  -8   10.36    1.35 
  -1  -8  -8    7.81    1.29 
   1   8   8   10.30    1.23 
   1   8   8    8.82    1.54 
  -2  -8  -8    6.70    1.12 
  -2  -8  -8    9.94    1.19 
   2   8   8    9.63    1.15 
   2   8   8    8.88    1.52 
  -3  -8  -8    0.40    0.89 
  -3  -8  -8    0.04    1.01 
   3   8   8   -0.88    1.22 
   3   8   8    1.26    0.86 
  10  -9  -8   -0.47    1.28 
  10  -9  -8    1.15    1.04 
 -10   9   8    1.40    1.21 
 -10   9   8    1.23    0.86 
   9  -9  -8    8.15    1.33 
   9  -9  -8   12.49    1.34 
  -9   9   8   11.30    1.74 
  -9   9   8    8.36    1.29 
   8  -9  -8    6.83    1.07 
   8  -9  -8    6.77    1.25 
  -8   9   8    9.93    1.75 
  -8   9   8    5.32    1.19 
   7  -9  -8    0.29    0.65 
   7  -9  -8    0.27    0.88 
  -7   9   8   -0.90    0.77 
  -7   9   8    2.12    0.73 
  -7   9   8    0.14    0.71 
   6  -9  -8    5.69    1.04 
   6  -9  -8    5.34    1.28 
  -6   9   8    3.90    0.97 
   5  -9  -8   -0.60    0.77 
   5  -9  -8   -0.12    0.63 
  -5   9   8   -0.39    0.80 
   4  -9  -8    1.66    0.77 
   4  -9  -8    0.98    0.76 
  -4   9   8    0.84    0.85 
   3  -9  -8   18.14    1.49 
   3  -9  -8   19.60    1.51 
  -3   9   8   21.09    1.79 
  -3   9   8   19.13    1.26 
   2  -9  -8    3.96    0.92 
   2  -9  -8    3.26    0.87 
  -2   9   8    4.12    1.11 
  -2   9   8    4.13    1.03 
   1  -9  -8    3.48    0.88 
   1  -9  -8    3.36    0.89 
  -1   9   8    3.95    1.05 
  -1   9   8    3.45    0.72 
   0  -9  -8   15.47    1.57 
   0  -9  -8   14.11    1.57 
   0  -9  -8   14.75    1.89 
   0   9   8   17.30    2.00 
   0   9   8   15.20    1.81 
  -1  -9  -8   32.99    1.80 
  -1  -9  -8   29.27    1.81 
   1   9   8   31.44    1.79 
   1   9   8   30.35    2.18 
  -2  -9  -8    5.24    1.04 
  -2  -9  -8    9.80    1.59 
   2   9   8    8.45    1.67 
   2   9   8    6.11    1.10 
   9 -10  -8    1.76    0.96 
   9 -10  -8    0.52    1.10 
  -9  10   8    3.57    1.34 
   8 -10  -8   10.96    1.61 
  -8  10   8   12.42    1.72 
   7 -10  -8   10.57    1.23 
   7 -10  -8   10.93    1.65 
  -7  10   8   12.74    1.89 
  -7  10   8    9.97    1.69 
   6 -10  -8    5.47    0.91 
   6 -10  -8    4.05    0.99 
  -6  10   8    6.73    1.40 
  -6  10   8    4.65    1.13 
   5 -10  -8    4.04    1.05 
   5 -10  -8    3.74    0.73 
  -5  10   8    4.96    0.96 
  -5  10   8    5.52    1.28 
   4 -10  -8   19.75    1.57 
   4 -10  -8   16.89    1.60 
  -4  10   8   19.24    1.86 
  -4  10   8   18.44    1.57 
   3 -10  -8    8.16    1.32 
   3 -10  -8    6.76    1.11 
  -3  10   8    7.83    1.36 
  -3  10   8    8.65    1.58 
   2 -10  -8    1.43    0.68 
   2 -10  -8    2.39    0.78 
  -2  10   8    1.83    0.82 
  -2  10   8    1.83    0.86 
   1 -10  -8   11.08    1.41 
   1 -10  -8    7.86    1.20 
  -1  10   8    7.95    1.47 
  -1  10   8    9.96    1.76 
   0 -10  -8    1.36    1.06 
   0 -10  -8    0.96    1.01 
   0  10   8    1.63    1.21 
   0  10   8    3.75    1.06 
  -1 -10  -8    5.88    1.08 
  -1 -10  -8    5.45    1.33 
   1  10   8    3.24    1.19 
   1  10   8    4.40    1.26 
   8 -11  -8    6.19    1.52 
  -8  11   8    5.45    1.41 
   7 -11  -8   12.26    1.39 
   7 -11  -8   16.02    1.84 
  -7  11   8   10.74    1.61 
   6 -11  -8   -0.10    0.80 
   6 -11  -8   -0.23    0.89 
  -6  11   8    0.27    1.04 
  -6  11   8   -1.49    0.98 
   5 -11  -8    0.57    0.61 
  -5  11   8   -0.27    0.81 
  -5  11   8   -0.78    1.00 
   4 -11  -8    8.06    1.38 
   4 -11  -8   11.37    1.81 
  -4  11   8   10.15    1.47 
  -4  11   8    9.23    1.67 
   3 -11  -8   21.05    1.90 
   3 -11  -8   19.55    1.61 
  -3  11   8   20.83    1.81 
  -3  11   8   20.61    2.01 
   2 -11  -8   27.01    1.89 
   2 -11  -8   28.93    1.92 
  -2  11   8   29.78    2.38 
  -2  11   8   28.08    2.15 
   1 -11  -8   14.63    1.73 
   1 -11  -8   16.03    1.77 
  -1  11   8   20.76    1.74 
  -1  11   8   17.64    2.16 
  -4  12   8    0.45    0.91 
   3  13  -9    9.21    1.56 
  -3 -13   9   10.64    1.63 
  -3 -13   9    9.26    1.36 
  -2 -13   9   17.44    1.92 
  -2 -13   9   19.61    2.08 
  -1 -13   9    0.45    0.83 
   0 -13   9    1.64    0.84 
   0 -13   9    2.54    1.08 
   0 -13   9    1.67    1.04 
   1 -13   9    9.34    1.53 
   1 -13   9   14.66    1.82 
   1 -13   9   12.25    1.59 
   5  12  -9   -0.27    0.63 
  -5 -12   9    1.29    1.13 
  -5 -12   9   -1.33    0.84 
   4  12  -9    3.66    1.33 
  -4 -12   9    0.12    0.82 
   3  12  -9    7.89    1.35 
  -3 -12   9    9.50    1.38 
  -3 -12   9    9.67    1.60 
  -2 -12   9    9.18    1.53 
  -2 -12   9    6.67    1.29 
  -1 -12   9    0.92    0.90 
  -1 -12   9   -1.10    0.72 
   0 -12   9    0.04    0.66 
   0 -12   9    0.19    0.73 
   0 -12   9   -0.35    0.65 
   0 -12   9    0.60    0.83 
   1 -12   9    2.25    0.97 
   1 -12   9    1.46    0.72 
   1 -12   9    2.41    0.86 
   1 -12   9    2.68    0.91 
   2 -12   9   11.12    1.41 
   2 -12   9   12.64    1.54 
   2 -12   9   13.48    1.56 
   2 -12   9   14.32    1.36 
   3 -12   9   12.55    1.19 
   3 -12   9   12.64    1.75 
   3 -12   9   10.74    1.44 
   7  11  -9   17.06    2.10 
  -7 -11   9   13.93    1.81 
  -7 -11   9   14.21    1.52 
   6  11  -9   18.26    1.46 
  -6 -11   9   21.93    1.98 
  -6 -11   9   15.64    1.56 
   5  11  -9   -0.97    0.79 
  -5 -11   9   -0.81    0.67 
  -4 -11   9    2.28    0.77 
  -3 -11   9    4.86    1.10 
  -3 -11   9    1.16    0.84 
   2  11  -9    4.23    1.10 
  -2 -11   9    1.14    0.72 
  -2 -11   9    2.39    0.59 
  -2 -11   9    0.54    0.74 
  -1 -11   9   35.83    2.05 
  -1 -11   9   37.83    1.63 
  -1 -11   9   35.83    2.03 
   0 -11   9    4.01    0.75 
   0 -11   9    2.72    0.82 
   0 -11   9    2.40    0.81 
   1 -11   9    1.58    0.77 
   1 -11   9    0.44    0.59 
   1 -11   9    0.71    0.68 
   2 -11   9    4.49    0.81 
   2 -11   9    6.09    1.26 
   2 -11   9    4.70    0.81 
   2 -11   9    3.70    0.98 
   3 -11   9    5.27    1.06 
   3 -11   9    7.11    1.20 
   3 -11   9    4.68    1.05 
   4 -11   9    2.72    0.86 
   4 -11   9    1.09    1.60 
   4 -11   9    3.13    0.79 
   4 -11   9    1.51    1.14 
   8  10  -9    0.86    1.03 
  -8 -10   9    0.60    1.16 
  -8 -10   9   -1.38    0.99 
   7  10  -9   11.73    1.54 
  -7 -10   9   13.82    1.44 
  -7 -10   9   10.83    1.79 
   6  10  -9   -0.58    0.63 
  -6 -10   9    1.80    0.64 
  -6 -10   9    0.95    0.82 
  -6 -10   9   -0.27    0.56 
   5  10  -9    3.49    1.15 
  -5 -10   9    3.74    0.65 
  -5 -10   9    3.02    0.88 
  -5 -10   9    1.55    0.69 
   4  10  -9   13.24    1.44 
  -4 -10   9   11.82    1.36 
  -4 -10   9   12.45    0.97 
  -4 -10   9   11.74    1.36 
   3  10  -9    0.38    0.83 
  -3 -10   9    3.00    1.01 
  -3 -10   9    2.37    0.56 
   2  10  -9   14.42    1.33 
  -2 -10   9   12.35    1.34 
  -2 -10   9   11.93    1.23 
  -2 -10   9   12.46    1.04 
  -1 -10   9   25.01    1.77 
  -1 -10   9   25.22    1.21 
  -1 -10   9   24.25    1.70 
   0 -10   9    3.60    0.82 
   0 -10   9    2.80    0.68 
   0 -10   9    3.43    1.02 
   1 -10   9    4.86    0.95 
   1 -10   9    5.03    0.73 
   1 -10   9    5.43    1.12 
   2 -10   9    3.05    0.93 
   2 -10   9    3.76    1.06 
   2 -10   9    2.44    0.92 
   2 -10   9    2.48    0.61 
   2 -10   9    1.55    0.69 
  -3  10  -9    0.89    0.85 
   3 -10   9    1.12    0.85 
   3 -10   9    1.90    0.66 
   3 -10   9    0.71    0.97 
   3 -10   9    0.43    0.74 
   3 -10   9    0.83    0.78 
  -4  10  -9    5.48    1.70 
  -4  10  -9    3.47    1.15 
   4 -10   9    4.72    0.95 
   4 -10   9    4.88    1.11 
   4 -10   9    5.67    1.00 
  -5  10  -9    7.79    1.15 
   5 -10   9    7.13    1.37 
   5 -10   9    9.28    1.48 
   5 -10   9    8.42    1.35 
   9   9  -9   13.11    1.60 
  -9  -9   9   19.04    1.45 
  -9  -9   9   20.05    1.48 
   8   9  -9   -0.15    0.67 
  -8  -9   9    1.09    0.89 
  -8  -9   9    0.61    1.08 
  -8  -9   9    3.77    1.22 
   7   9  -9   -0.45    0.75 
  -7  -9   9   -0.05    0.99 
   6   9  -9    2.43    1.10 
  -6  -9   9    3.65    0.77 
  -6  -9   9    1.72    0.84 
  -6  -9   9    2.96    0.92 
   5   9  -9   19.15    1.66 
  -5  -9   9   16.12    1.57 
  -5  -9   9   16.78    1.11 
  -5  -9   9   18.04    1.67 
  -4  -9   9   20.82    1.07 
  -4  -9   9   21.59    1.70 
  -4  -9   9   20.08    1.68 
   3   9  -9   10.62    1.46 
  -3  -9   9    8.41    0.89 
  -3  -9   9    7.71    1.22 
   2   9  -9    0.21    0.76 
  -2  -9   9    2.19    0.61 
  -2  -9   9    3.52    0.97 
  -2  -9   9    1.23    0.72 
   1   9  -9    3.31    0.79 
  -1  -9   9    3.52    0.80 
  -1  -9   9    4.85    0.92 
  -1  -9   9    5.38    0.82 
   0  -9   9    0.82    0.52 
   0  -9   9    1.29    0.46 
   0  -9   9    0.56    0.59 
   0  -9   9    0.39    0.65 
  -1   9  -9   20.65    1.25 
  -1   9  -9   19.65    1.51 
   1  -9   9   22.29    1.25 
   1  -9   9   23.22    1.70 
   1  -9   9   22.04    1.27 
   1  -9   9   22.23    1.17 
  -2   9  -9    1.51    0.66 
  -2   9  -9    2.37    0.69 
   2  -9   9    2.16    0.63 
   2  -9   9    0.83    0.60 
   2  -9   9    1.17    0.77 
   2  -9   9   -0.34    0.59 
   2  -9   9    0.70    0.65 
  -3   9  -9    3.53    1.04 
   3  -9   9    4.53    0.95 
   3  -9   9    5.06    1.09 
   3  -9   9    4.55    0.95 
   3  -9   9    3.22    0.75 
   3  -9   9    4.67    1.05 
  -4   9  -9   12.76    1.43 
   4  -9   9   14.26    1.46 
   4  -9   9   12.14    1.42 
   4  -9   9   13.48    1.25 
   4  -9   9   14.73    1.62 
  -5   9  -9    3.97    1.02 
   5  -9   9    5.49    0.87 
   5  -9   9    4.60    0.89 
   5  -9   9    4.33    1.15 
   9   8  -9    4.92    1.10 
  -9  -8   9    6.95    1.24 
  -9  -8   9    3.66    1.13 
  -9  -8   9    6.65    1.10 
   8   8  -9    5.23    1.17 
  -8  -8   9    7.55    1.09 
  -8  -8   9    6.89    1.14 
  -8  -8   9    4.38    1.11 
   7   8  -9    0.50    0.97 
  -7  -8   9   -0.57    0.77 
  -7  -8   9    1.17    0.78 
  -7  -8   9    1.63    0.61 
   6   8  -9   -0.51    0.71 
  -6  -8   9   -0.33    0.69 
  -6  -8   9    1.16    0.94 
  -6  -8   9   -0.26    0.59 
   5   8  -9   -0.52    0.56 
  -5  -8   9    0.92    0.71 
  -5  -8   9    1.87    0.95 
  -5  -8   9    1.11    0.62 
   4   8  -9   27.27    1.82 
  -4  -8   9   23.63    1.23 
  -4  -8   9   22.85    1.57 
  -4  -8   9   20.80    1.40 
   3   8  -9   15.86    1.30 
  -3  -8   9   22.85    1.17 
   2   8  -9    0.63    0.81 
  -2  -8   9   -0.40    0.56 
  -2  -8   9    0.58    0.55 
  -2  -8   9   -1.00    0.61 
   1   8  -9    2.33    0.87 
  -1  -8   9    2.09    0.57 
  -1  -8   9    2.01    0.50 
  -1  -8   9    1.75    0.56 
  -1  -8   9    3.00    0.81 
   0   8  -9   27.33    1.22 
   0   8  -9   25.82    1.56 
   0  -8   9   26.72    1.78 
   0  -8   9   26.08    1.59 
   0  -8   9   25.51    1.32 
   0  -8   9   24.66    1.20 
  -1   8  -9   40.05    1.82 
   1  -8   9   43.66    1.65 
   1  -8   9   41.23    2.08 
   1  -8   9   41.43    1.75 
   1  -8   9   41.91    1.56 
  -2   8  -9    6.55    1.13 
  -2   8  -9    5.31    0.86 
   2  -8   9    7.56    1.03 
   2  -8   9    6.30    0.86 
   2  -8   9    6.16    1.01 
   2  -8   9    4.77    0.83 
   2  -8   9    7.53    0.97 
   2  -8   9    6.38    1.05 
  -3   8  -9    1.41    0.91 
  -3   8  -9    2.74    0.82 
  -3   8  -9    1.88    0.84 
   3  -8   9    1.98    0.61 
   3  -8   9    2.94    0.55 
   3  -8   9    2.06    0.73 
  -4   8  -9    4.49    0.85 
   4  -8   9    4.76    1.09 
   4  -8   9    4.43    1.13 
   4  -8   9    4.12    1.14 
  -5   8  -9   26.44    1.70 
   5  -8   9   25.67    1.65 
   5  -8   9   24.98    1.45 
   5  -8   9   24.29    1.81 
  -6   8  -9    5.41    1.25 
   6  -8   9    4.58    0.97 
   6  -8   9    4.88    1.08 
   6  -8   9    4.07    1.35 
  10   7  -9   -0.14    1.00 
 -10  -7   9    1.51    1.18 
 -10  -7   9    0.39    1.02 
 -10  -7   9    2.08    0.71 
   9   7  -9    2.51    0.78 
  -9  -7   9    5.25    1.35 
  -9  -7   9    3.59    1.01 
  -9  -7   9    2.82    0.81 
   8   7  -9   15.88    1.32 
  -8  -7   9   11.62    1.23 
  -8  -7   9   15.78    1.60 
  -8  -7   9   16.66    1.26 
   7   7  -9   55.62    2.23 
  -7  -7   9   56.57    1.97 
  -7  -7   9   58.09    2.35 
  -7  -7   9   60.13    2.25 
   6   7  -9   10.17    1.40 
  -6  -7   9    8.05    1.59 
  -6  -7   9    8.49    0.98 
  -6  -7   9   11.51    1.38 
  -5  -7   9    0.33    0.60 
  -5  -7   9    1.07    0.72 
   4   7  -9   11.94    1.02 
  -4  -7   9   16.52    1.27 
  -4  -7   9   17.26    1.42 
  -4  -7   9   15.06    0.95 
   3   7  -9    9.61    1.16 
  -3  -7   9    7.31    0.89 
  -3  -7   9    7.67    0.85 
  -3  -7   9    6.49    0.93 
   2   7  -9    1.35    1.15 
   2   7  -9    2.14    0.82 
  -2  -7   9    1.62    0.49 
  -2  -7   9    2.07    0.72 
  -2  -7   9    1.02    0.64 
   1   7  -9    0.64    0.60 
   1   7  -9    0.02    0.50 
  -1  -7   9    0.68    0.54 
  -1  -7   9    0.02    0.46 
  -1  -7   9    0.50    0.40 
  -1  -7   9    1.35    0.68 
   0   7  -9   26.99    1.31 
   0   7  -9   23.99    1.37 
   0  -7   9   25.58    1.53 
   0  -7   9   27.27    1.35 
   0  -7   9   25.24    1.14 
   0  -7   9   26.26    1.44 
   0  -7   9   26.60    1.20 
  -1   7  -9   32.78    1.58 
  -1   7  -9   34.05    1.56 
   1  -7   9   36.39    1.16 
   1  -7   9   34.32    1.59 
   1  -7   9   32.62    1.62 
   1  -7   9   36.60    1.55 
   1  -7   9   33.93    1.61 
   1  -7   9   34.29    1.40 
  -2   7  -9   41.01    1.67 
  -2   7  -9   41.14    1.68 
   2  -7   9   42.66    1.89 
   2  -7   9   34.98    2.43 
   2  -7   9   43.03    1.82 
   2  -7   9   45.06    1.44 
   2  -7   9   42.01    1.74 
  -3   7  -9    6.46    1.07 
  -3   7  -9    5.60    0.90 
  -3   7  -9    6.36    1.08 
   3  -7   9    5.91    0.96 
   3  -7   9    6.46    1.20 
   3  -7   9    6.00    0.94 
   3  -7   9    6.24    0.96 
  -4   7  -9    2.30    0.82 
   4  -7   9    1.24    0.63 
   4  -7   9    1.87    0.61 
   4  -7   9    1.77    0.98 
   4  -7   9    1.91    0.71 
  -5   7  -9   15.04    1.27 
  -5   7  -9   11.15    1.72 
   5  -7   9   12.27    1.28 
   5  -7   9   10.47    1.42 
   5  -7   9   11.65    1.21 
  -6   7  -9   13.68    1.72 
   6  -7   9   11.14    1.58 
   6  -7   9   16.41    1.90 
   6  -7   9   12.13    1.98 
  10   6  -9    0.03    0.79 
 -10  -6   9    0.16    0.99 
 -10  -6   9   -0.03    0.99 
 -10  -6   9   -0.53    0.96 
   9   6  -9   -0.41    0.78 
  -9  -6   9    1.97    1.12 
  -9  -6   9    0.42    0.79 
  -9  -6   9   -0.56    0.75 
   8   6  -9   33.73    1.96 
  -8  -6   9   30.21    1.62 
  -8  -6   9   33.79    1.77 
  -8  -6   9   30.39    1.61 
   7   6  -9   17.96    1.37 
  -7  -6   9   17.66    1.26 
  -7  -6   9   17.16    1.24 
  -7  -6   9   19.41    1.45 
   6   6  -9    4.28    1.30 
  -6  -6   9    5.36    1.42 
  -6  -6   9    5.20    0.79 
  -6  -6   9    5.88    0.98 
   5   6  -9    3.75    0.84 
  -5  -6   9    1.95    0.60 
  -5  -6   9    1.88    0.60 
  -5  -6   9    3.10    0.79 
   4   6  -9    1.64    0.59 
  -4  -6   9    1.54    0.61 
  -4  -6   9    2.98    0.73 
  -4  -6   9    1.85    0.62 
   3   6  -9  159.54    3.94 
   3   6  -9  154.87    3.94 
  -3  -6   9  154.71    3.92 
  -3  -6   9  154.74    3.70 
  -3  -6   9  159.42    3.83 
   2   6  -9   68.66    2.11 
   2   6  -9   69.54    2.26 
  -2  -6   9   67.43    2.09 
  -2  -6   9   72.28    2.27 
  -2  -6   9   72.11    2.31 
   1   6  -9   24.30    1.16 
   1   6  -9   23.40    1.28 
  -1  -6   9   21.95    1.36 
  -1  -6   9   23.54    1.32 
  -1  -6   9   23.02    1.01 
  -1  -6   9   22.98    1.15 
  -1  -6   9   23.87    0.92 
   0   6  -9    2.47    0.63 
   0   6  -9    3.96    0.68 
   0  -6   9    3.31    0.56 
   0  -6   9    2.42    0.57 
   0  -6   9    2.72    0.65 
   0  -6   9    3.56    0.70 
   0  -6   9    2.86    0.55 
  -1   6  -9   24.08    1.34 
  -1   6  -9   23.40    1.25 
   1  -6   9   24.00    1.55 
   1  -6   9   23.14    1.39 
   1  -6   9   23.55    1.34 
   1  -6   9   22.95    1.20 
   1  -6   9   23.61    1.25 
  -2   6  -9   13.68    1.17 
  -2   6  -9   15.52    1.10 
  -2   6  -9   16.81    1.05 
   2  -6   9   13.06    1.14 
   2  -6   9   14.65    1.10 
   2  -6   9   15.81    0.90 
   2  -6   9   16.07    1.16 
   2  -6   9   14.27    1.27 
  -3   6  -9    9.35    1.23 
  -3   6  -9   10.42    1.03 
  -3   6  -9   10.00    0.97 
   3  -6   9   10.26    0.90 
   3  -6   9    8.58    1.30 
   3  -6   9   11.02    1.34 
   3  -6   9    9.51    1.23 
   3  -6   9    9.32    1.13 
  -4   6  -9    3.11    1.23 
   4  -6   9    4.73    1.07 
   4  -6   9    3.89    0.72 
   4  -6   9    4.51    0.96 
   4  -6   9    3.22    0.90 
  -5   6  -9    0.31    0.66 
  -5   6  -9    0.22    0.68 
  -6   6  -9    3.86    1.06 
  -6   6  -9    3.25    0.98 
   6  -6   9    4.60    0.89 
   6  -6   9    2.45    1.13 
   6  -6   9    2.69    1.02 
  11   5  -9   36.17    2.08 
 -11  -5   9   34.65    2.22 
 -11  -5   9   31.51    2.04 
  10   5  -9    3.27    1.03 
 -10  -5   9    2.39    0.76 
 -10  -5   9    3.57    1.02 
   9   5  -9    6.61    1.13 
  -9  -5   9    5.60    1.29 
  -9  -5   9    4.37    0.96 
  -9  -5   9    5.02    0.82 
   8   5  -9    1.39    0.76 
  -8  -5   9    2.47    0.91 
  -8  -5   9    0.80    0.61 
  -7  -5   9    0.83    1.22 
  -7  -5   9   -0.16    0.73 
  -7  -5   9    0.44    0.50 
   6   5  -9   22.30    1.36 
  -6  -5   9   23.52    1.42 
  -6  -5   9   22.15    1.11 
  -6  -5   9   22.64    1.35 
   5   5  -9    6.56    1.02 
   5   5  -9    6.61    1.25 
  -5  -5   9    6.39    0.89 
  -5  -5   9    7.23    0.80 
  -5  -5   9    8.59    0.72 
   4   5  -9    1.16    0.70 
   4   5  -9    0.75    0.59 
  -4  -5   9    0.40    0.57 
  -4  -5   9    1.16    0.65 
  -4  -5   9   -0.44    0.48 
   3   5  -9   97.61    2.76 
   3   5  -9   98.77    2.76 
  -3  -5   9   98.32    2.69 
  -3  -5   9   98.28    2.62 
  -3  -5   9   99.68    2.78 
   2   5  -9   38.23    1.58 
   2   5  -9   37.32    1.50 
  -2  -5   9   35.35    1.47 
  -2  -5   9   37.73    1.24 
  -2  -5   9   39.95    1.61 
  -2  -5   9   38.56    1.47 
  -2  -5   9   38.46    1.09 
   1   5  -9    9.47    0.96 
   1   5  -9   10.26    0.90 
  -1  -5   9   10.59    0.76 
  -1  -5   9    9.53    0.96 
  -1  -5   9   11.15    0.72 
  -1  -5   9   11.40    0.97 
  -1  -5   9    8.90    0.82 
   0   5  -9   56.23    1.85 
   0   5  -9   56.14    1.80 
   0  -5   9   57.84    2.07 
   0  -5   9   56.62    1.74 
   0  -5   9   56.73    1.90 
   0  -5   9   56.10    1.98 
   0  -5   9   58.77    1.82 
  -1   5  -9    5.04    0.82 
  -1   5  -9    4.75    0.69 
  -1   5  -9    4.97    0.83 
   1  -5   9    3.95    0.67 
   1  -5   9    5.21    0.73 
   1  -5   9    4.23    0.71 
   1  -5   9    5.44    0.77 
  -2   5  -9    0.13    0.50 
  -2   5  -9    0.53    0.49 
  -2   5  -9    0.01    0.49 
   2  -5   9    0.18    0.64 
   2  -5   9    1.08    0.58 
   2  -5   9    0.63    0.51 
   2  -5   9    0.03    0.41 
   2  -5   9    0.81    0.76 
  -3   5  -9   39.72    1.42 
  -3   5  -9   40.71    1.70 
   3  -5   9   39.80    1.80 
   3  -5   9   38.58    1.83 
   3  -5   9   40.99    1.52 
   3  -5   9   42.64    1.95 
   3  -5   9   39.91    2.00 
  -4   5  -9    7.28    1.24 
   4  -5   9    9.09    1.34 
   4  -5   9    7.86    1.26 
   4  -5   9    7.49    1.05 
  -5   5  -9    8.26    1.42 
  -5   5  -9    5.94    1.02 
   5  -5   9    4.94    0.91 
   5  -5   9    6.45    1.02 
   5  -5   9    5.53    1.09 
  -6   5  -9    1.15    0.94 
  -6   5  -9    0.05    0.88 
   6  -5   9    1.28    0.99 
   6  -5   9   -0.09    0.77 
  -7   5  -9    2.11    1.09 
   7  -5   9    2.49    1.42 
   7  -5   9    1.33    0.88 
   7  -5   9    3.42    1.34 
  11   4  -9    5.32    1.15 
  11   4  -9    8.56    1.53 
 -11  -4   9    5.60    1.01 
 -11  -4   9    5.22    1.02 
  10   4  -9   19.97    1.64 
  10   4  -9   18.70    1.79 
 -10  -4   9   20.47    1.67 
 -10  -4   9   21.09    1.57 
   9   4  -9    3.53    0.93 
   9   4  -9    3.34    0.96 
  -9  -4   9    2.54    1.05 
  -9  -4   9    3.52    0.76 
  -9  -4   9    3.70    1.05 
   8   4  -9    0.54    0.77 
  -8  -4   9    1.38    0.63 
   7   4  -9   15.52    1.26 
  -7  -4   9   15.06    1.01 
  -7  -4   9   12.26    1.19 
  -7  -4   9   15.71    1.04 
   6   4  -9   28.55    1.48 
  -6  -4   9   28.34    1.27 
  -6  -4   9   28.50    1.21 
  -6  -4   9   27.37    1.34 
   5   4  -9   30.87    1.43 
   5   4  -9   30.36    1.51 
  -5  -4   9   33.22    1.40 
  -5  -4   9   31.79    1.48 
  -5  -4   9   33.00    1.45 
   4   4  -9    4.64    0.76 
   4   4  -9    3.34    0.65 
  -4  -4   9    4.45    0.71 
  -4  -4   9    3.43    0.52 
  -4  -4   9    4.76    0.75 
   3   4  -9    0.80    0.59 
   3   4  -9    0.66    0.53 
  -3  -4   9    0.79    0.48 
  -3  -4   9    1.24    0.24 
  -3  -4   9    1.01    0.53 
  -3  -4   9    0.79    0.46 
   2   4  -9   18.76    1.14 
   2   4  -9   19.01    1.17 
  -2  -4   9   20.30    0.93 
  -2  -4   9   16.32    1.06 
  -2  -4   9   17.05    1.01 
  -2  -4   9   19.86    1.10 
   1   4  -9    7.82    0.90 
   1   4  -9    7.22    0.88 
  -1  -4   9    7.98    0.82 
  -1  -4   9    8.54    0.66 
  -1  -4   9    8.82    0.80 
  -1  -4   9    9.86    0.98 
  -1  -4   9    9.20    0.68 
   0   4  -9   62.66    1.86 
   0   4  -9   64.34    2.10 
   0   4  -9   63.61    1.94 
   0  -4   9   62.43    1.91 
   0  -4   9   64.74    1.86 
   0  -4   9   62.30    1.98 
   0  -4   9   59.74    2.01 
  -1   4  -9    0.22    0.48 
  -1   4  -9    0.07    0.42 
   1  -4   9    0.25    0.47 
   1  -4   9    0.07    0.50 
   1  -4   9    0.30    0.48 
   1  -4   9   -0.59    0.46 
  -2   4  -9    0.50    0.48 
  -2   4  -9    0.50    0.57 
  -2   4  -9    0.32    0.50 
   2  -4   9    0.39    0.52 
   2  -4   9    1.65    0.73 
   2  -4   9    0.76    0.50 
   2  -4   9    0.94    0.62 
   2  -4   9    1.36    0.60 
  -3   4  -9   17.57    1.19 
   3  -4   9   17.76    1.22 
   3  -4   9   19.50    1.10 
   3  -4   9   16.64    1.51 
   3  -4   9   18.63    1.39 
   3  -4   9   17.26    1.18 
  -4   4  -9   11.81    1.46 
  -4   4  -9    9.89    1.35 
   4  -4   9    7.50    1.14 
   4  -4   9    8.38    1.21 
   4  -4   9   10.33    1.45 
  -5   4  -9   17.51    1.67 
   5  -4   9   15.51    1.30 
   5  -4   9   16.36    1.57 
   5  -4   9   20.04    1.59 
  -6   4  -9    0.70    0.93 
  -6   4  -9   -0.47    0.90 
   6  -4   9    0.27    1.01 
   6  -4   9    0.46    0.61 
  -7   4  -9    1.04    1.04 
   7  -4   9    1.75    1.23 
   7  -4   9    0.70    1.07 
   7  -4   9    0.67    0.95 
  12   3  -9    4.22    1.19 
  12   3  -9    0.89    1.10 
 -12  -3   9    3.21    1.23 
 -12  -3   9    3.48    0.99 
  11   3  -9    0.42    0.95 
  11   3  -9    0.96    0.89 
 -11  -3   9    0.84    0.79 
 -11  -3   9    0.26    1.12 
  10   3  -9   23.11    1.66 
  10   3  -9   23.48    1.79 
 -10  -3   9   21.36    1.65 
 -10  -3   9   22.46    1.70 
   9   3  -9    1.33    0.74 
   9   3  -9    0.66    0.80 
  -9  -3   9    1.14    0.98 
  -9  -3   9    1.53    0.78 
  -9  -3   9    1.33    0.69 
   8   3  -9    7.29    0.93 
   8   3  -9    6.46    1.13 
  -8  -3   9    6.20    1.02 
  -8  -3   9    5.78    0.99 
  -8  -3   9    6.33    0.95 
   7   3  -9   -0.27    0.51 
  -7  -3   9   -0.62    0.51 
  -7  -3   9   -0.06    0.67 
  -7  -3   9   -0.41    0.50 
   6   3  -9   37.18    1.64 
   6   3  -9   35.43    1.62 
  -6  -3   9   37.47    1.49 
  -6  -3   9   37.08    1.61 
  -6  -3   9   37.46    1.58 
   5   3  -9   11.78    1.09 
   5   3  -9    9.93    0.94 
  -5  -3   9    9.53    0.93 
  -5  -3   9   10.11    1.02 
  -5  -3   9    9.66    0.93 
  -5  -3   9   10.07    0.45 
   4   3  -9   26.33    1.30 
   4   3  -9   24.46    1.31 
  -4  -3   9   26.29    1.22 
  -4  -3   9   26.59    1.17 
  -4  -3   9   28.65    1.04 
  -4  -3   9   27.27    0.83 
  -4  -3   9   27.34    1.36 
   3   3  -9    5.79    0.76 
   3   3  -9    7.37    0.92 
  -3  -3   9    7.27    0.88 
  -3  -3   9    6.81    0.74 
  -3  -3   9    7.55    0.85 
  -3  -3   9    8.84    0.83 
  -3  -3   9    7.85    0.59 
   2   3  -9   -0.59    0.39 
   2   3  -9    0.03    0.41 
  -2  -3   9    0.59    0.53 
  -2  -3   9   -0.17    0.34 
  -2  -3   9    0.16    0.27 
  -2  -3   9   -0.22    0.40 
   1   3  -9   68.08    1.94 
   1   3  -9   67.26    2.02 
   1   3  -9   66.53    1.98 
  -1  -3   9   64.80    1.97 
  -1  -3   9   64.84    2.04 
  -1  -3   9   67.04    1.85 
  -1  -3   9   65.14    1.92 
   0   3  -9   36.15    1.49 
   0   3  -9   39.19    1.39 
   0   3  -9   37.58    1.41 
   0  -3   9   38.10    1.57 
   0  -3   9   39.02    1.42 
   0  -3   9   35.74    1.45 
   0  -3   9   37.61    1.50 
  -1   3  -9   27.64    1.20 
  -1   3  -9   28.04    1.37 
  -1   3  -9   26.71    1.10 
   1  -3   9   29.00    1.39 
   1  -3   9   29.40    1.48 
   1  -3   9   28.24    1.36 
   1  -3   9   28.15    1.23 
  -2   3  -9    4.32    0.77 
  -2   3  -9    3.94    0.65 
  -2   3  -9    3.53    0.53 
   2  -3   9    3.25    0.70 
   2  -3   9    2.94    0.65 
   2  -3   9    3.78    0.63 
   2  -3   9    3.96    0.77 
   2  -3   9    3.81    0.69 
  -3   3  -9    0.11    0.62 
   3  -3   9    1.17    0.47 
   3  -3   9    0.72    0.68 
   3  -3   9   -0.32    1.01 
  -4   3  -9    4.88    0.99 
  -4   3  -9    4.92    0.91 
   4  -3   9    5.49    0.97 
   4  -3   9    5.46    0.99 
  -5   3  -9   43.15    2.04 
  -5   3  -9   44.64    2.19 
   5  -3   9   50.38    2.04 
   5  -3   9   45.12    2.38 
   5  -3   9   49.57    2.24 
  -6   3  -9    3.13    0.98 
  -6   3  -9    3.05    1.07 
   6  -3   9    3.29    1.12 
   6  -3   9    3.32    1.07 
  -7   3  -9   -1.75    0.94 
   7  -3   9    0.61    1.21 
   7  -3   9   -1.42    1.03 
  12   2  -9    5.54    1.15 
  12   2  -9    3.82    1.05 
 -12  -2   9    3.40    1.01 
  11   2  -9    1.03    0.83 
  11   2  -9    1.12    0.88 
 -11  -2   9    0.03    0.86 
 -11  -2   9    2.07    0.84 
  10   2  -9    6.42    1.14 
  10   2  -9    6.55    0.96 
 -10  -2   9    6.20    1.13 
 -10  -2   9    6.55    1.20 
   9   2  -9    1.61    0.65 
   9   2  -9    2.42    0.59 
   9   2  -9    0.41    0.84 
  -9  -2   9    1.10    0.72 
  -9  -2   9    2.19    0.72 
  -9  -2   9    1.99    0.54 
   8   2  -9   36.25    1.40 
   8   2  -9   39.51    1.89 
  -8  -2   9   37.89    1.35 
  -8  -2   9   39.14    1.90 
  -8  -2   9   38.05    1.61 
   7   2  -9   -0.07    0.53 
  -7  -2   9    0.84    0.39 
  -7  -2   9    0.11    0.53 
  -7  -2   9    0.42    0.31 
  -7  -2   9   -0.57    0.42 
   6   2  -9    6.83    1.08 
   6   2  -9   10.19    1.09 
  -6  -2   9    8.56    0.74 
  -6  -2   9    8.61    0.56 
  -6  -2   9    8.45    0.88 
   5   2  -9   29.45    1.36 
   5   2  -9   33.28    1.60 
  -5  -2   9   29.53    1.17 
  -5  -2   9   29.46    1.34 
  -5  -2   9   31.62    1.42 
  -5  -2   9   30.66    0.96 
   4   2  -9   82.94    2.45 
   4   2  -9   83.03    2.28 
   4   2  -9   78.35    2.29 
  -4  -2   9   78.57    2.24 
  -4  -2   9   81.24    2.06 
  -4  -2   9   79.54    2.19 
  -4  -2   9   77.37    1.89 
   3   2  -9   79.17    2.31 
   3   2  -9   76.22    2.21 
   3   2  -9   78.09    2.22 
  -3  -2   9   75.87    2.17 
  -3  -2   9   72.59    2.03 
  -3  -2   9   74.61    1.90 
  -3  -2   9   74.78    2.16 
   2   2  -9    1.06    0.51 
   2   2  -9    0.76    0.42 
   2   2  -9    0.70    0.51 
  -2  -2   9    0.79    0.42 
  -2  -2   9    0.47    0.29 
  -2  -2   9   -0.32    0.41 
   1   2  -9    1.52    0.48 
   1   2  -9    1.35    0.47 
   1   2  -9    1.25    0.47 
  -1  -2   9    1.26    0.44 
  -1  -2   9    1.85    0.46 
  -1  -2   9    1.42    0.46 
  -1  -2   9    2.13    0.50 
   0   2  -9   74.85    2.07 
   0   2  -9   71.75    2.22 
   0   2  -9   73.56    1.97 
   0  -2   9   75.04    2.17 
   0  -2   9   74.16    2.20 
   0  -2   9   72.35    2.23 
   0  -2   9   74.53    2.21 
  -1   2  -9   45.36    1.66 
  -1   2  -9   48.21    1.50 
  -1   2  -9   47.88    1.50 
   1  -2   9   46.51    1.79 
   1  -2   9   49.21    1.78 
   1  -2   9   50.09    1.86 
   1  -2   9   49.12    1.88 
  -2   2  -9    2.27    0.49 
  -2   2  -9    1.23    0.64 
   2  -2   9    0.95    0.63 
   2  -2   9    2.18    0.53 
   2  -2   9    1.51    0.66 
   2  -2   9    1.90    0.74 
   2  -2   9    2.66    0.74 
  -3   2  -9    1.12    0.63 
   3  -2   9    1.29    0.57 
  -4   2  -9   29.78    1.65 
  -4   2  -9   28.36    1.68 
   4  -2   9   30.93    1.75 
   4  -2   9   32.72    1.84 
   4  -2   9   29.99    1.61 
  -5   2  -9   39.49    1.79 
  -5   2  -9   37.83    1.96 
   5  -2   9   34.15    1.75 
   5  -2   9   42.24    2.14 
  -6   2  -9    6.78    1.31 
  -6   2  -9    6.38    1.10 
   6  -2   9    4.73    1.12 
   6  -2   9    5.26    1.19 
   6  -2   9    4.86    0.86 
  -7   2  -9    3.49    1.34 
   7  -2   9    4.08    1.37 
   7  -2   9    4.91    1.39 
  12   1  -9   22.67    1.59 
  12   1  -9   23.27    1.69 
 -12  -1   9   23.35    2.04 
 -12  -1   9   20.50    1.73 
  11   1  -9    1.22    0.74 
 -11  -1   9    0.54    0.83 
 -11  -1   9    2.15    1.13 
  10   1  -9    9.79    1.38 
  10   1  -9   10.42    1.10 
 -10  -1   9    9.39    1.36 
 -10  -1   9    9.07    1.74 
 -10  -1   9    6.64    1.16 
   9   1  -9    7.21    0.80 
   9   1  -9    6.53    1.16 
   9   1  -9    7.61    1.06 
  -9  -1   9    7.84    1.22 
  -9  -1   9    7.16    1.23 
  -9  -1   9    6.22    0.96 
  -9  -1   9    6.30    0.83 
   8   1  -9   56.53    1.76 
   8   1  -9   56.78    2.20 
   8   1  -9   59.77    1.75 
  -8  -1   9   55.49    2.05 
  -8  -1   9   56.18    1.78 
  -8  -1   9   57.42    1.69 
  -8  -1   9   56.09    1.98 
   7   1  -9   22.97    1.45 
   7   1  -9   24.12    1.13 
   7   1  -9   21.54    1.59 
  -7  -1   9   23.82    1.31 
  -7  -1   9   22.11    1.24 
  -7  -1   9   24.18    1.00 
  -7  -1   9   24.01    1.02 
   6   1  -9   -0.14    0.55 
   6   1  -9   -0.10    0.52 
   6   1  -9   -0.58    0.43 
  -6  -1   9   -0.01    0.29 
  -6  -1   9   -0.10    0.42 
  -6  -1   9   -0.55    0.43 
   5   1  -9    9.90    1.02 
   5   1  -9    9.11    0.84 
   5   1  -9   10.27    0.95 
  -5  -1   9    9.99    0.93 
  -5  -1   9    9.13    0.71 
  -5  -1   9    8.71    0.88 
  -5  -1   9   11.09    0.68 
   4   1  -9   89.21    2.52 
   4   1  -9   94.62    2.64 
   4   1  -9   90.20    2.39 
  -4  -1   9   86.84    2.31 
  -4  -1   9   91.83    2.37 
  -4  -1   9   86.41    2.38 
  -4  -1   9   87.07    2.16 
   3   1  -9  180.50    4.03 
   3   1  -9  174.24    4.02 
   3   1  -9  185.68    4.15 
  -3  -1   9  176.55    3.79 
  -3  -1   9  171.00    3.98 
  -3  -1   9  178.61    3.95 
  -3  -1   9  168.90    3.92 
   2   1  -9   69.30    2.08 
   2   1  -9   70.31    2.04 
   2   1  -9   72.15    2.09 
  -2  -1   9   68.67    2.03 
  -2  -1   9   69.41    1.93 
  -2  -1   9   70.84    2.03 
  -2  -1   9   69.87    2.06 
   1   1  -9    3.99    0.65 
   1   1  -9    3.99    0.61 
   1   1  -9    4.37    0.75 
  -1  -1   9    5.28    0.84 
  -1  -1   9    3.77    0.58 
  -1  -1   9    4.48    0.70 
  -1  -1   9    4.42    0.70 
   0   1  -9    4.98    0.84 
   0   1  -9    3.35    0.57 
   0   1  -9    3.40    0.60 
   0  -1   9    3.62    0.54 
   0  -1   9    2.67    0.58 
   0  -1   9    3.14    0.49 
   0  -1   9    4.84    0.75 
  -1   1  -9  106.88    2.48 
  -1   1  -9  104.29    2.45 
  -1   1  -9  101.17    2.86 
   1  -1   9  103.22    2.98 
   1  -1   9  101.37    2.78 
   1  -1   9  101.72    2.84 
   1  -1   9  103.45    2.91 
   1  -1   9  102.35    2.49 
  -2   1  -9    8.63    0.70 
  -2   1  -9    7.73    1.09 
   2  -1   9    7.44    1.19 
   2  -1   9    8.77    0.82 
   2  -1   9    7.59    0.99 
   2  -1   9    8.14    1.14 
  -3   1  -9    9.67    1.25 
  -3   1  -9   10.68    1.24 
   3  -1   9   12.54    0.91 
   3  -1   9    9.31    1.30 
  -4   1  -9   16.82    1.63 
   4  -1   9   17.23    1.27 
   4  -1   9   17.48    1.47 
   4  -1   9   20.51    1.55 
  -5   1  -9    2.70    0.86 
  -5   1  -9    3.68    0.81 
   5  -1   9    3.31    0.95 
   5  -1   9    3.74    0.95 
   5  -1   9    2.49    0.84 
  -6   1  -9   10.44    1.50 
   6  -1   9   11.68    1.75 
   6  -1   9   13.08    1.77 
   6  -1   9   10.25    1.14 
   7  -1   9    3.31    1.27 
  12   0  -9    5.71    0.96 
  12   0  -9   10.54    1.49 
 -12   0   9    7.75    1.24 
 -12   0   9    7.27    1.42 
 -12   0   9    6.54    1.27 
  11   0  -9   10.62    1.25 
  11   0  -9   11.40    1.82 
 -11   0   9    9.71    1.51 
 -11   0   9   11.28    1.69 
 -11   0   9   11.11    1.29 
  10   0  -9    0.58    0.86 
  10   0  -9    1.46    0.78 
 -10   0   9    0.58    0.67 
 -10   0   9   -0.27    0.83 
 -10   0   9    0.29    0.75 
 -10   0   9    0.28    0.74 
   9   0  -9   -0.43    0.55 
   9   0  -9    0.30    0.99 
   9   0  -9    0.21    0.56 
  -9   0   9    0.02    0.58 
  -9   0   9   -0.15    0.49 
  -9   0   9    0.89    0.84 
  -9   0   9    0.55    0.56 
   8   0  -9   76.54    2.53 
   8   0  -9   78.76    2.15 
   8   0  -9   81.59    2.11 
  -8   0   9   76.14    2.19 
  -8   0   9   78.41    2.23 
  -8   0   9   78.32    2.41 
  -8   0   9   74.31    2.52 
   7   0  -9  116.81    3.29 
   7   0  -9  123.84    2.93 
   7   0  -9  121.86    3.78 
   7   0  -9  135.57    3.55 
  -7   0   9  116.53    3.07 
  -7   0   9  116.07    2.90 
  -7   0   9  121.20    3.29 
  -7   0   9  116.89    2.97 
   6   0  -9   36.94    1.58 
   6   0  -9   37.20    1.72 
   6   0  -9   40.00    1.40 
  -6   0   9   36.61    1.63 
  -6   0   9   37.46    1.37 
  -6   0   9   39.50    1.34 
  -6   0   9   38.24    1.50 
   5   0  -9    8.35    0.98 
   5   0  -9    9.15    0.97 
   5   0  -9    9.79    0.82 
  -5   0   9   10.17    0.84 
  -5   0   9    8.56    0.88 
  -5   0   9    9.25    0.88 
  -5   0   9    8.40    0.72 
   4   0  -9   32.20    1.44 
   4   0  -9   32.47    1.47 
   4   0  -9   33.36    1.32 
  -4   0   9   33.76    1.27 
  -4   0   9   32.53    1.28 
  -4   0   9   34.07    1.30 
  -4   0   9   32.39    1.21 
   3   0  -9   37.60    1.50 
   3   0  -9   37.12    1.39 
   3   0  -9   37.77    1.52 
  -3   0   9   37.66    1.50 
  -3   0   9   35.38    1.35 
  -3   0   9   36.93    1.35 
  -3   0   9   37.78    1.32 
   2   0  -9    4.75    0.68 
   2   0  -9    4.64    0.67 
   2   0  -9    4.18    0.66 
  -2   0   9    4.82    0.66 
  -2   0   9    4.80    0.64 
  -2   0   9    4.62    0.62 
  -2   0   9    4.26    0.60 
   1   0  -9    6.36    0.70 
   1   0  -9    7.67    0.83 
   1   0  -9    7.92    0.84 
  -1   0   9    7.28    0.71 
  -1   0   9    8.90    0.92 
  -1   0   9    9.18    0.98 
  -1   0   9    9.06    0.89 
   0   0  -9    6.29    0.75 
   0   0  -9    7.64    0.86 
   0   0  -9    7.30    0.77 
   0   0   9    7.88    0.84 
   0   0   9    5.59    0.83 
   0   0   9    6.55    0.86 
   0   0   9    7.30    0.83 
  -1   0  -9  114.52    3.08 
  -1   0  -9  117.82    2.67 
  -1   0  -9  120.44    2.67 
   1   0   9  113.24    3.08 
   1   0   9  112.17    2.95 
   1   0   9  110.72    3.22 
   1   0   9  116.24    3.13 
   1   0   9  112.41    2.76 
  -2   0  -9   17.58    1.20 
  -2   0  -9   20.76    1.01 
  -2   0  -9   18.28    1.27 
   2   0   9   18.51    1.25 
   2   0   9   15.80    1.38 
   2   0   9   17.29    1.15 
   2   0   9   18.51    1.11 
  -3   0  -9   25.34    1.42 
  -3   0  -9   24.84    1.51 
   3   0   9   26.94    1.71 
   3   0   9   25.75    1.31 
  -4   0  -9   20.93    1.68 
  -4   0  -9   21.44    1.55 
   4   0   9   22.22    1.43 
   4   0   9   23.02    1.63 
   4   0   9   22.26    1.52 
  -5   0  -9    3.51    1.01 
  -5   0  -9    4.07    0.89 
   5   0   9    4.29    1.05 
   5   0   9    4.04    0.93 
   5   0   9    4.36    0.99 
  -6   0  -9    2.71    0.87 
  -6   0  -9    1.22    0.93 
   6   0   9    1.74    0.91 
   6   0   9    1.99    0.93 
   6   0   9    1.10    0.96 
  12  -1  -9    1.20    1.03 
  12  -1  -9    1.54    0.98 
 -12   1   9    1.02    1.04 
 -12   1   9    2.33    1.32 
  11  -1  -9   19.71    1.54 
  11  -1  -9   19.94    1.45 
 -11   1   9   18.58    1.58 
 -11   1   9   20.37    1.51 
 -11   1   9   20.07    1.79 
  10  -1  -9   16.20    1.50 
  10  -1  -9   18.32    1.53 
 -10   1   9   17.34    1.35 
 -10   1   9   15.02    1.48 
 -10   1   9   14.39    1.35 
 -10   1   9   17.30    1.42 
   9  -1  -9    2.32    0.65 
   9  -1  -9    1.66    0.87 
  -9   1   9    1.88    0.64 
  -9   1   9    1.41    0.81 
  -9   1   9    0.88    0.79 
  -9   1   9    2.01    0.69 
   8  -1  -9    7.76    0.92 
   8  -1  -9    5.22    0.74 
   8  -1  -9    5.64    0.92 
  -8   1   9    5.13    0.88 
  -8   1   9    6.32    1.04 
  -8   1   9    6.01    1.01 
  -8   1   9    8.13    0.94 
   7  -1  -9  104.20    2.56 
   7  -1  -9  104.40    3.00 
   7  -1  -9  100.42    2.48 
  -7   1   9  101.60    2.56 
  -7   1   9  102.80    2.68 
  -7   1   9   99.44    2.76 
  -7   1   9  102.13    2.93 
   6  -1  -9   26.01    1.56 
   6  -1  -9   25.04    1.13 
   6  -1  -9   25.40    1.45 
  -6   1   9   24.75    1.13 
  -6   1   9   23.13    1.35 
  -6   1   9   23.93    1.26 
  -6   1   9   24.05    1.22 
   5  -1  -9   42.19    1.49 
   5  -1  -9   43.48    1.71 
   5  -1  -9   40.42    1.75 
  -5   1   9   40.34    1.57 
  -5   1   9   40.42    1.58 
  -5   1   9   40.46    1.44 
  -5   1   9   40.41    1.35 
   4  -1  -9    1.09    0.60 
   4  -1  -9    0.91    0.53 
   4  -1  -9    0.54    0.43 
  -4   1   9    0.12    0.42 
  -4   1   9    0.97    0.41 
  -4   1   9    0.83    0.42 
   3  -1  -9   -0.25    0.43 
   3  -1  -9   -0.45    0.43 
   3  -1  -9    1.14    0.52 
  -3   1   9    0.30    0.45 
  -3   1   9    1.44    0.55 
  -3   1   9    0.17    0.43 
  -3   1   9    0.43    0.42 
   2  -1  -9   21.42    1.16 
   2  -1  -9   21.47    1.16 
   2  -1  -9   22.57    1.18 
  -2   1   9   21.50    1.19 
  -2   1   9   20.62    1.07 
  -2   1   9   22.96    1.33 
  -2   1   9   22.11    1.12 
   1  -1  -9   13.51    0.98 
   1  -1  -9   14.10    1.07 
   1  -1  -9   13.24    0.99 
  -1   1   9   13.53    0.83 
  -1   1   9   12.03    1.00 
  -1   1   9   12.40    0.89 
  -1   1   9   13.25    0.86 
   0  -1  -9    0.52    0.38 
   0  -1  -9    0.19    0.37 
   0  -1  -9   -0.18    0.44 
   0   1   9   -0.29    0.39 
   0   1   9    0.51    0.65 
   0   1   9   -0.02    0.59 
   0   1   9    0.09    0.46 
   0   1   9   -0.02    0.46 
  -1  -1  -9   15.11    1.14 
  -1  -1  -9   17.17    0.93 
  -1  -1  -9   15.44    1.16 
  -1  -1  -9   13.90    0.87 
   1   1   9   13.23    0.97 
   1   1   9   16.83    0.93 
   1   1   9   15.98    0.99 
   1   1   9   13.67    1.26 
  -2  -1  -9   -0.27    0.50 
  -2  -1  -9    0.45    0.59 
  -2  -1  -9    0.19    0.42 
   2   1   9    0.19    0.52 
   2   1   9    0.44    0.54 
   2   1   9    0.83    0.85 
  -3  -1  -9   26.66    1.54 
   3   1   9   27.16    1.73 
   3   1   9   25.89    1.47 
  -4  -1  -9   34.77    1.82 
  -4  -1  -9   33.70    1.94 
   4   1   9   33.39    1.83 
   4   1   9   33.62    1.90 
   4   1   9   31.78    1.61 
  -5  -1  -9    1.22    1.02 
  -5  -1  -9   -0.42    0.69 
   5   1   9   -0.65    0.76 
   5   1   9    0.26    0.89 
   5   1   9   -0.79    0.82 
  -6  -1  -9   -0.01    0.72 
  -6  -1  -9    1.17    1.24 
   6   1   9   -1.47    1.01 
   6   1   9    0.92    0.73 
   6   1   9   -0.30    0.93 
  12  -2  -9    4.63    1.12 
  12  -2  -9    4.82    1.17 
 -12   2   9    3.28    1.22 
 -12   2   9    5.46    1.32 
  11  -2  -9   14.58    1.37 
  11  -2  -9   13.65    1.59 
 -11   2   9   15.81    1.73 
 -11   2   9   11.13    1.59 
  10  -2  -9   14.15    1.44 
  10  -2  -9   12.63    1.40 
 -10   2   9   11.55    1.85 
 -10   2   9   10.82    1.51 
 -10   2   9   12.12    1.31 
   9  -2  -9   -0.45    0.67 
   9  -2  -9    1.65    0.73 
  -9   2   9   -0.81    0.77 
  -9   2   9   -0.09    0.69 
  -9   2   9    0.56    0.64 
  -9   2   9    0.41    0.76 
   8  -2  -9    0.99    0.42 
   8  -2  -9    0.79    0.85 
   8  -2  -9    0.03    0.64 
  -8   2   9   -0.58    0.55 
  -8   2   9   -0.13    0.65 
  -8   2   9    0.29    0.51 
  -8   2   9   -0.91    0.65 
   7  -2  -9   -0.19    0.45 
   7  -2  -9   -1.07    0.63 
   7  -2  -9    0.15    0.36 
  -7   2   9    0.96    0.71 
  -7   2   9   -0.19    0.56 
  -7   2   9    0.91    0.45 
  -7   2   9    0.51    0.47 
   6  -2  -9    9.24    0.84 
   6  -2  -9    9.30    0.91 
   6  -2  -9    7.72    0.85 
   6  -2  -9    8.87    1.00 
  -6   2   9    8.02    0.85 
  -6   2   9    9.27    0.81 
  -6   2   9   10.37    0.93 
  -6   2   9   10.60    0.81 
   5  -2  -9    1.72    0.51 
  -5   2   9    2.34    0.63 
  -5   2   9    2.23    0.41 
  -5   2   9    1.71    0.59 
  -5   2   9    0.83    0.56 
   4  -2  -9   14.09    1.10 
   4  -2  -9   14.43    1.01 
   4  -2  -9   13.26    1.14 
  -4   2   9   14.50    1.05 
  -4   2   9   15.13    0.87 
  -4   2   9   13.69    1.01 
  -4   2   9   13.75    0.90 
   3  -2  -9    8.97    0.96 
   3  -2  -9    8.96    0.87 
   3  -2  -9    8.38    0.93 
  -3   2   9    8.93    0.96 
  -3   2   9    8.61    0.84 
  -3   2   9    9.35    0.86 
  -3   2   9    8.94    0.86 
   2  -2  -9   41.67    1.62 
   2  -2  -9   44.75    1.63 
   2  -2  -9   42.95    1.67 
  -2   2   9   43.97    1.70 
  -2   2   9   42.33    1.65 
  -2   2   9   44.99    1.48 
  -2   2   9   41.81    1.54 
   1  -2  -9   54.44    1.86 
   1  -2  -9   56.03    1.75 
   1  -2  -9   57.11    1.81 
  -1   2   9   53.94    2.05 
  -1   2   9   54.57    1.78 
  -1   2   9   55.52    1.57 
  -1   2   9   56.61    1.96 
   0  -2  -9   35.81    1.50 
   0  -2  -9   36.91    1.62 
   0  -2  -9   35.69    1.35 
   0  -2  -9   38.11    1.28 
   0   2   9   35.53    1.63 
   0   2   9   35.05    1.57 
   0   2   9   33.88    1.31 
   0   2   9   35.84    1.41 
  -1  -2  -9   13.14    0.92 
  -1  -2  -9   12.28    1.20 
  -1  -2  -9   12.64    1.05 
  -1  -2  -9   12.18    0.88 
   1   2   9   15.66    1.45 
   1   2   9   12.16    1.00 
   1   2   9   13.27    0.89 
   1   2   9   12.94    1.43 
  -2  -2  -9    8.19    0.99 
  -2  -2  -9    6.81    1.07 
   2   2   9    6.42    1.03 
   2   2   9    6.65    1.04 
   2   2   9    8.79    1.06 
  -3  -2  -9   12.37    1.36 
  -3  -2  -9   11.37    1.34 
   3   2   9    8.34    1.31 
   3   2   9   10.91    1.29 
  -4  -2  -9   23.77    1.87 
  -4  -2  -9   24.00    1.65 
   4   2   9   24.50    1.81 
   4   2   9   23.32    1.70 
   4   2   9   24.44    1.61 
  -5  -2  -9   -0.85    0.80 
  -5  -2  -9    1.48    1.02 
   5   2   9    1.28    0.86 
   5   2   9    0.22    0.97 
   5   2   9    0.89    0.94 
  -6  -2  -9    5.19    1.02 
  -6  -2  -9    4.31    1.36 
   6   2   9    4.89    1.22 
   6   2   9    4.72    1.19 
   6   2   9    4.23    1.10 
  12  -3  -9    0.44    1.02 
  12  -3  -9   -0.32    0.96 
 -12   3   9    0.37    1.16 
 -12   3   9    0.68    1.12 
  11  -3  -9    9.21    1.33 
  11  -3  -9    9.98    1.41 
 -11   3   9   11.52    1.65 
  10  -3  -9    5.43    1.19 
  10  -3  -9    5.70    1.09 
 -10   3   9    8.28    1.23 
 -10   3   9    5.73    1.06 
   9  -3  -9    3.50    0.86 
   9  -3  -9    5.13    0.97 
  -9   3   9    3.27    0.86 
  -9   3   9    4.31    1.08 
   8  -3  -9   15.53    0.92 
   8  -3  -9   17.18    1.28 
  -8   3   9   16.67    1.43 
  -8   3   9   15.73    1.22 
  -8   3   9   18.35    1.35 
   7  -3  -9   -0.36    0.39 
   7  -3  -9    0.09    0.50 
   7  -3  -9    0.21    0.78 
  -7   3   9   -0.69    0.52 
  -7   3   9   -0.56    0.55 
  -7   3   9    1.24    0.52 
  -7   3   9    0.32    0.68 
   6  -3  -9   29.02    1.26 
   6  -3  -9   27.39    1.30 
   6  -3  -9   29.21    1.53 
  -6   3   9   27.54    1.44 
  -6   3   9   28.07    1.26 
  -6   3   9   26.81    1.34 
  -6   3   9   25.02    1.31 
   5  -3  -9    1.66    0.71 
   5  -3  -9    2.97    0.77 
   5  -3  -9    1.95    0.51 
  -5   3   9    2.21    0.56 
  -5   3   9    2.12    0.58 
  -5   3   9    1.95    0.46 
  -5   3   9    1.71    0.69 
  -5   3   9    2.25    0.69 
   4  -3  -9   35.36    1.45 
   4  -3  -9   35.32    1.54 
   4  -3  -9   36.84    1.67 
  -4   3   9   39.14    1.26 
  -4   3   9   36.73    1.53 
  -4   3   9   38.08    1.57 
  -4   3   9   37.16    1.33 
  -4   3   9   35.83    1.64 
   3  -3  -9    0.33    0.53 
   3  -3  -9   -0.19    0.46 
   3  -3  -9    0.36    0.61 
  -3   3   9   -0.03    0.54 
  -3   3   9    0.17    0.43 
  -3   3   9    0.18    0.41 
  -3   3   9   -0.38    0.46 
  -3   3   9    0.19    0.53 
   2  -3  -9   13.30    0.98 
   2  -3  -9   11.85    0.98 
   2  -3  -9   13.42    1.00 
  -2   3   9   13.05    1.07 
  -2   3   9   13.77    1.28 
  -2   3   9   13.35    0.86 
  -2   3   9   12.34    0.86 
   1  -3  -9    3.14    0.57 
   1  -3  -9    2.69    0.56 
   1  -3  -9    2.78    0.53 
   1  -3  -9    2.70    0.67 
  -1   3   9    2.41    0.73 
  -1   3   9    2.72    0.51 
  -1   3   9    2.98    0.58 
  -1   3   9    1.37    0.56 
   0  -3  -9   65.73    1.92 
   0  -3  -9   68.00    2.08 
   0  -3  -9   67.29    1.94 
   0  -3  -9   66.92    2.27 
   0   3   9   67.12    2.43 
   0   3   9   69.89    2.01 
   0   3   9   64.59    2.41 
   0   3   9   64.84    2.08 
  -1  -3  -9   33.60    1.29 
  -1  -3  -9   32.51    1.57 
  -1  -3  -9   34.25    1.23 
  -1  -3  -9   33.02    1.60 
   1   3   9   36.04    1.46 
   1   3   9   34.54    1.41 
   1   3   9   28.47    1.75 
  -2  -3  -9    1.87    0.67 
   2   3   9    2.17    0.74 
   2   3   9    2.18    0.57 
   2   3   9    3.75    1.09 
  -3  -3  -9    8.75    1.32 
  -3  -3  -9    9.53    1.49 
   3   3   9    7.95    1.21 
   3   3   9    7.57    1.33 
  -4  -3  -9   16.49    1.74 
  -4  -3  -9   15.03    1.45 
   4   3   9   14.88    1.79 
   4   3   9   16.80    1.42 
   4   3   9   14.67    1.67 
  -5  -3  -9   10.14    1.75 
  -5  -3  -9   13.94    1.66 
   5   3   9   12.83    1.30 
   5   3   9   14.50    1.73 
   5   3   9   14.48    1.80 
  12  -4  -9   -0.49    0.86 
  12  -4  -9   -0.69    1.07 
 -12   4   9    4.20    1.42 
 -12   4   9   -0.66    1.08 
  11  -4  -9    0.97    0.76 
  11  -4  -9    0.15    0.81 
 -11   4   9    0.26    1.04 
 -11   4   9   -0.03    0.83 
  10  -4  -9    7.94    1.23 
 -10   4   9    5.62    0.96 
 -10   4   9    6.24    1.14 
   9  -4  -9   17.86    1.36 
   9  -4  -9   20.02    1.47 
  -9   4   9   19.75    1.74 
  -9   4   9   18.30    1.74 
   8  -4  -9   46.14    1.46 
   8  -4  -9   48.26    1.89 
   8  -4  -9   46.75    2.03 
  -8   4   9   49.06    2.20 
  -8   4   9   44.93    2.31 
   7  -4  -9   -0.09    0.45 
   7  -4  -9   -0.19    0.62 
   7  -4  -9    0.59    0.77 
  -7   4   9   -0.33    0.51 
  -7   4   9   -0.15    0.69 
  -7   4   9   -0.64    0.56 
   6  -4  -9    1.25    0.80 
   6  -4  -9    1.11    0.43 
  -6   4   9    0.81    0.44 
  -6   4   9    1.25    0.64 
  -6   4   9    1.48    0.67 
   5  -4  -9    6.93    0.91 
   5  -4  -9    5.88    1.15 
   5  -4  -9    6.07    0.92 
  -5   4   9    5.78    0.75 
  -5   4   9    5.79    0.82 
  -5   4   9    5.61    0.79 
  -5   4   9    7.31    1.13 
   4  -4  -9  113.33    3.00 
   4  -4  -9  110.87    3.15 
   4  -4  -9  115.38    3.11 
  -4   4   9  117.49    2.91 
  -4   4   9  117.33    2.90 
  -4   4   9  119.09    3.23 
  -4   4   9  115.98    3.29 
   3  -4  -9    3.83    0.66 
   3  -4  -9    3.54    0.50 
   3  -4  -9    2.80    0.67 
   3  -4  -9    3.14    0.70 
  -3   4   9    3.06    0.70 
  -3   4   9    3.37    0.64 
  -3   4   9    3.88    0.67 
  -3   4   9    4.17    0.60 
   2  -4  -9    6.45    0.70 
   2  -4  -9    7.45    0.82 
   2  -4  -9    5.09    0.78 
   2  -4  -9    6.03    0.89 
  -2   4   9    7.19    1.25 
  -2   4   9    7.37    0.79 
  -2   4   9    6.29    0.84 
   1  -4  -9   10.98    1.22 
   1  -4  -9   10.48    0.90 
   1  -4  -9   10.51    1.01 
   1  -4  -9   10.90    0.91 
  -1   4   9    8.60    1.34 
  -1   4   9    7.57    1.03 
  -1   4   9    9.66    0.87 
  -1   4   9   10.85    0.90 
   0  -4  -9   57.25    1.92 
   0  -4  -9   57.11    1.80 
   0  -4  -9   56.20    1.81 
   0  -4  -9   57.63    2.09 
   0   4   9   56.18    1.85 
   0   4   9   56.43    2.02 
   0   4   9   54.67    2.20 
  -1  -4  -9   32.64    1.78 
  -1  -4  -9   35.24    1.33 
  -1  -4  -9   32.86    1.32 
  -1  -4  -9   35.83    1.59 
   1   4   9   32.60    1.48 
   1   4   9   32.31    1.77 
   1   4   9   35.42    1.52 
  -2  -4  -9    1.77    0.85 
  -2  -4  -9    0.99    0.70 
   2   4   9    1.13    0.67 
   2   4   9   -0.79    0.67 
   2   4   9    0.84    0.86 
  -3  -4  -9    0.36    0.95 
  -3  -4  -9    0.78    0.84 
   3   4   9    2.01    1.19 
   3   4   9    0.88    0.76 
  -4  -4  -9   18.97    1.78 
  -4  -4  -9   19.88    1.76 
   4   4   9   21.10    1.47 
   4   4   9   20.71    1.46 
   4   4   9   18.95    1.72 
  -5  -4  -9   15.60    1.66 
  -5  -4  -9   16.69    1.46 
   5   4   9   19.31    2.02 
   5   4   9   16.11    1.82 
   5   4   9   18.92    1.57 
  12  -5  -9    5.72    1.57 
  12  -5  -9    4.68    1.15 
 -12   5   9    5.37    1.25 
 -12   5   9    8.39    1.53 
  11  -5  -9    1.91    0.88 
  11  -5  -9    3.39    0.82 
 -11   5   9    1.85    0.96 
 -11   5   9    3.82    1.03 
  10  -5  -9    0.38    0.81 
  10  -5  -9   -0.13    0.96 
 -10   5   9    0.91    0.92 
 -10   5   9   -0.40    0.90 
   9  -5  -9    8.20    1.12 
   9  -5  -9   11.31    1.36 
  -9   5   9   10.77    1.43 
  -9   5   9    9.28    1.55 
   8  -5  -9   32.42    1.20 
   8  -5  -9   33.70    1.56 
   8  -5  -9   28.68    1.68 
  -8   5   9   26.36    2.66 
  -8   5   9   32.39    1.99 
   7  -5  -9   25.08    1.43 
   7  -5  -9   21.55    1.45 
   7  -5  -9   23.58    1.12 
  -7   5   9   21.60    1.47 
   6  -5  -9    1.01    0.57 
   6  -5  -9    0.82    0.66 
  -6   5   9   -0.04    0.62 
  -6   5   9    0.02    0.52 
  -6   5   9    0.81    0.55 
  -6   5   9    1.14    0.57 
   5  -5  -9    1.48    0.54 
   5  -5  -9    0.64    0.71 
  -5   5   9    0.94    0.77 
  -5   5   9    0.57    0.67 
  -5   5   9    1.58    0.61 
  -5   5   9    1.01    0.56 
   4  -5  -9   96.42    2.67 
   4  -5  -9   97.56    2.89 
  -4   5   9  100.66    2.71 
  -4   5   9   93.43    2.98 
  -4   5   9   96.76    2.55 
  -4   5   9   93.61    3.00 
   3  -5  -9   45.56    1.50 
   3  -5  -9   46.19    1.81 
   3  -5  -9   41.96    1.83 
   3  -5  -9   42.78    1.68 
  -3   5   9   43.71    1.54 
  -3   5   9   43.16    1.94 
  -3   5   9   43.07    1.96 
  -3   5   9   43.03    1.72 
   2  -5  -9   19.23    1.03 
   2  -5  -9   20.58    1.29 
   2  -5  -9   18.57    1.34 
   2  -5  -9   19.21    1.20 
  -2   5   9   16.22    1.24 
  -2   5   9   18.90    1.22 
  -2   5   9   18.53    1.09 
   1  -5  -9   13.30    1.12 
   1  -5  -9   14.29    1.61 
   1  -5  -9   13.35    1.15 
   1  -5  -9   14.48    0.98 
  -1   5   9   13.63    1.31 
  -1   5   9   13.11    2.29 
  -1   5   9   15.33    1.00 
   0  -5  -9   27.45    1.53 
   0  -5  -9   27.76    1.40 
   0  -5  -9   26.09    1.57 
   0  -5  -9   27.82    1.27 
   0   5   9   29.48    1.38 
   0   5   9   23.39    1.50 
   0   5   9   27.16    1.33 
  -1  -5  -9   46.29    1.69 
  -1  -5  -9   47.49    1.61 
  -1  -5  -9   47.18    1.97 
  -1  -5  -9   47.63    2.12 
   1   5   9   49.69    2.36 
   1   5   9   45.85    2.14 
   1   5   9   46.69    1.76 
  -2  -5  -9   10.16    1.08 
  -2  -5  -9    9.04    1.16 
   2   5   9    8.10    1.08 
   2   5   9    9.32    1.25 
   2   5   9   10.94    1.08 
  -3  -5  -9    2.30    0.91 
  -3  -5  -9    1.97    1.06 
   3   5   9    2.39    1.27 
   3   5   9    2.09    0.78 
   3   5   9    2.11    1.31 
  -4  -5  -9   -0.04    0.77 
  -4  -5  -9    0.15    1.05 
   4   5   9   -0.13    1.03 
  11  -6  -9   18.93    1.80 
  11  -6  -9   17.42    1.93 
 -11   6   9   21.23    1.98 
 -11   6   9   20.39    1.76 
  10  -6  -9    1.95    0.91 
  10  -6  -9    2.51    0.99 
 -10   6   9    2.58    1.20 
 -10   6   9    2.22    1.15 
   9  -6  -9    7.30    1.28 
   9  -6  -9    4.65    0.93 
  -9   6   9    4.87    1.06 
   8  -6  -9   13.15    1.32 
   8  -6  -9   13.97    0.92 
   8  -6  -9   12.00    1.41 
  -8   6   9   14.23    1.70 
  -8   6   9   14.10    1.23 
   7  -6  -9   11.65    0.98 
   7  -6  -9   10.78    1.12 
  -7   6   9   12.05    1.58 
  -7   6   9   13.20    1.10 
   6  -6  -9    4.07    0.85 
   6  -6  -9    5.81    0.89 
  -6   6   9    5.23    0.88 
  -6   6   9    5.80    0.93 
  -6   6   9    5.15    0.94 
   5  -6  -9    2.25    0.67 
  -5   6   9    3.14    0.73 
  -5   6   9    2.69    0.58 
  -5   6   9    1.97    0.74 
   4  -6  -9   37.02    1.62 
   4  -6  -9   36.22    1.75 
  -4   6   9   37.80    1.62 
  -4   6   9   37.77    1.50 
   3  -6  -9   67.96    1.83 
   3  -6  -9   70.80    2.34 
   3  -6  -9   70.44    2.42 
  -3   6   9   69.11    2.36 
  -3   6   9   61.73    3.56 
  -3   6   9   70.57    2.04 
   2  -6  -9   17.98    1.67 
   2  -6  -9   16.78    1.27 
   2  -6  -9   18.35    1.07 
  -2   6   9   16.58    1.33 
  -2   6   9   17.32    1.42 
  -2   6   9   18.48    1.05 
   1  -6  -9   21.93    1.25 
   1  -6  -9   21.66    1.29 
   1  -6  -9   20.16    1.31 
   1  -6  -9   20.37    1.51 
  -1   6   9   22.36    1.23 
  -1   6   9   21.76    1.24 
  -1   6   9   24.60    1.80 
   0  -6  -9   -1.15    0.66 
   0  -6  -9    0.56    0.60 
   0  -6  -9    1.08    0.69 
   0  -6  -9    0.01    0.66 
   0   6   9    1.54    0.83 
   0   6   9   -0.72    0.65 
   0   6   9    0.12    0.63 
  -1  -6  -9    5.52    1.02 
  -1  -6  -9    4.66    1.54 
  -1  -6  -9    4.88    0.79 
   1   6   9    4.10    0.74 
   1   6   9    5.51    0.95 
   1   6   9    5.04    1.27 
  -2  -6  -9    6.22    1.01 
  -2  -6  -9    7.17    1.10 
   2   6   9    5.69    1.23 
   2   6   9    7.26    1.24 
  -3  -6  -9   15.05    1.60 
  -3  -6  -9   12.36    1.47 
   3   6   9   14.42    2.00 
   3   6   9   13.42    1.72 
  -4  -6  -9   -0.27    1.11 
  -4  -6  -9    0.58    0.91 
   4   6   9    0.01    1.14 
   4   6   9    0.08    0.74 
  11  -7  -9   10.16    1.71 
  11  -7  -9   12.73    1.95 
 -11   7   9   11.17    1.94 
 -11   7   9   10.36    1.58 
  10  -7  -9    4.15    1.04 
  10  -7  -9    2.27    1.12 
 -10   7   9    2.02    1.02 
 -10   7   9    4.36    0.97 
   9  -7  -9   -0.81    1.03 
   9  -7  -9   -1.02    0.80 
  -9   7   9   -0.45    0.79 
  -9   7   9   -1.02    0.93 
   8  -7  -9    4.39    1.20 
   8  -7  -9    4.46    1.02 
   8  -7  -9    3.85    0.67 
  -8   7   9    4.72    1.05 
  -8   7   9    5.32    1.13 
   7  -7  -9   23.67    1.29 
   7  -7  -9   24.22    1.71 
  -7   7   9   27.25    1.94 
  -7   7   9   27.56    1.63 
   6  -7  -9   13.97    1.08 
   6  -7  -9   12.99    1.58 
  -6   7   9   13.86    1.23 
  -6   7   9   13.80    1.49 
  -6   7   9   14.98    1.27 
   5  -7  -9    0.76    0.71 
   5  -7  -9    1.37    0.82 
  -5   7   9    0.62    0.63 
  -5   7   9    1.46    0.93 
  -5   7   9    0.74    0.62 
   4  -7  -9   -0.26    0.70 
   4  -7  -9    0.56    1.18 
  -4   7   9    1.19    0.87 
  -4   7   9    0.45    0.61 
  -4   7   9   -0.17    0.57 
   3  -7  -9   10.73    1.82 
   3  -7  -9   12.76    1.27 
  -3   7   9   12.40    1.36 
  -3   7   9    9.95    1.24 
  -3   7   9   13.38    1.00 
   2  -7  -9    9.93    1.19 
   2  -7  -9    9.52    1.10 
   2  -7  -9    9.28    1.28 
  -2   7   9   10.22    1.40 
  -2   7   9    9.36    0.96 
  -2   7   9    6.52    1.16 
   1  -7  -9   14.95    1.29 
   1  -7  -9   13.19    1.18 
   1  -7  -9   15.45    1.46 
  -1   7   9   18.02    1.79 
   0  -7  -9   11.14    1.22 
   0  -7  -9   11.40    1.40 
   0  -7  -9   10.79    1.40 
   0   7   9   10.16    1.25 
   0   7   9   13.29    1.56 
  -1  -7  -9    0.10    0.70 
  -1  -7  -9    0.75    0.99 
  -1  -7  -9   -1.20    0.77 
   1   7   9   -0.18    0.77 
   1   7   9    0.90    1.12 
  -2  -7  -9    1.64    0.93 
  -2  -7  -9    1.61    0.92 
   2   7   9    1.59    0.74 
  -3  -7  -9    6.08    1.00 
  -3  -7  -9    4.99    1.12 
   3   7   9    5.96    1.37 
   3   7   9    7.03    1.51 
  10  -8  -9   -0.77    1.22 
  10  -8  -9    0.89    1.04 
 -10   8   9   -0.76    1.13 
 -10   8   9   -0.46    1.02 
   9  -8  -9    0.19    0.89 
   9  -8  -9    1.51    1.18 
  -9   8   9    3.43    1.30 
   8  -8  -9    2.49    0.76 
  -8   8   9    1.55    0.98 
   7  -8  -9    6.79    1.01 
   7  -8  -9    6.01    1.13 
  -7   8   9    8.32    1.16 
  -7   8   9    4.96    1.03 
  -7   8   9    8.52    1.46 
   6  -8  -9   17.57    1.74 
   6  -8  -9   12.57    2.11 
  -6   8   9   16.80    1.35 
  -6   8   9   16.52    1.52 
  -6   8   9   18.25    1.92 
   5  -8  -9    8.52    1.14 
   5  -8  -9    7.36    1.11 
  -5   8   9    9.98    1.13 
  -5   8   9    8.28    1.38 
  -5   8   9   10.14    1.57 
   4  -8  -9    6.98    1.01 
   4  -8  -9    7.12    1.18 
  -4   8   9    6.09    1.51 
  -4   8   9    6.18    1.08 
   3  -8  -9   -0.17    0.71 
   3  -8  -9    0.17    0.64 
  -3   8   9   -0.02    0.65 
   2  -8  -9    0.18    0.74 
   2  -8  -9    0.55    0.73 
  -2   8   9    1.14    1.00 
  -2   8   9    0.38    0.96 
   1  -8  -9    2.10    0.81 
   1  -8  -9    2.74    0.83 
  -1   8   9    1.89    0.89 
  -1   8   9    2.40    0.56 
   0  -8  -9    1.30    0.96 
   0  -8  -9    1.33    0.82 
   0  -8  -9    0.82    0.91 
   0   8   9   -0.20    0.88 
   0   8   9    2.56    1.05 
  -1  -8  -9    0.24    0.83 
  -1  -8  -9   -0.43    0.81 
   1   8   9   -0.65    1.06 
   1   8   9    0.20    1.04 
  -2  -8  -9    0.27    0.76 
  -2  -8  -9    0.76    0.99 
   2   8   9    0.58    0.92 
   2   8   9   -0.06    0.81 
   9  -9  -9    2.16    1.02 
  -9   9   9    3.85    1.20 
   8  -9  -9   -0.15    0.86 
  -8   9   9    0.11    0.73 
  -8   9   9    1.75    0.89 
  -8   9   9    1.81    1.30 
   7  -9  -9   -0.49    0.76 
   7  -9  -9    0.90    1.03 
  -7   9   9    0.69    0.74 
  -7   9   9   -0.27    1.06 
  -7   9   9   -0.82    0.69 
   6  -9  -9    0.11    0.68 
   6  -9  -9    1.19    0.99 
  -6   9   9   -0.21    0.76 
   5  -9  -9    4.58    0.87 
   5  -9  -9    4.58    1.04 
  -5   9   9    2.81    1.01 
  -5   9   9    4.24    1.12 
   4  -9  -9   12.98    1.35 
   4  -9  -9   13.51    1.40 
  -4   9   9   13.21    1.70 
  -4   9   9   14.45    1.63 
   3  -9  -9    0.58    0.81 
   3  -9  -9    0.41    0.75 
  -3   9   9    2.54    1.08 
  -3   9   9    0.55    0.75 
   2  -9  -9    0.07    0.76 
   2  -9  -9    1.63    0.79 
  -2   9   9    1.04    0.92 
  -2   9   9    2.09    1.13 
   1  -9  -9    0.21    0.89 
   1  -9  -9    0.14    0.74 
  -1   9   9    0.63    0.74 
   0  -9  -9   22.67    1.71 
   0  -9  -9   26.40    1.76 
   0   9   9   26.11    2.11 
   0   9   9   26.03    2.16 
  -1  -9  -9    0.64    0.86 
  -1  -9  -9    3.14    1.23 
   1   9   9   -0.55    1.22 
   1   9   9   -1.21    1.19 
   8 -10  -9    0.17    1.09 
  -8  10   9   -0.83    0.98 
  -8  10   9    0.05    1.00 
   7 -10  -9    7.12    1.19 
   7 -10  -9    4.85    1.19 
  -7  10   9    7.15    1.52 
  -7  10   9    5.28    1.20 
   6 -10  -9    1.25    0.99 
   6 -10  -9    2.48    0.65 
  -6  10   9    2.89    0.93 
  -6  10   9    2.07    1.25 
   5 -10  -9   11.74    1.39 
   5 -10  -9   13.31    1.53 
  -5  10   9   15.52    1.54 
  -5  10   9   15.12    1.98 
   4 -10  -9   18.45    1.81 
   4 -10  -9   19.93    1.44 
  -4  10   9   20.79    2.10 
  -4  10   9   17.17    1.53 
   3 -10  -9    2.47    0.98 
   3 -10  -9    0.76    0.68 
  -3  10   9    2.39    1.12 
  -3  10   9    2.22    1.24 
   2 -10  -9    0.34    0.75 
   2 -10  -9    0.75    0.92 
  -2  10   9    1.80    0.76 
  -2  10   9    0.91    0.88 
   1 -10  -9    6.61    1.10 
   1 -10  -9    9.57    1.64 
  -1  10   9    5.76    1.04 
  -1  10   9    6.78    1.42 
   0 -10  -9   28.85    1.97 
   0  10   9   27.91    2.46 
   6 -11  -9    3.12    0.73 
   6 -11  -9    3.09    1.13 
  -6  11   9    2.05    1.10 
   5 -11  -9    7.01    1.21 
   5 -11  -9    7.86    1.29 
  -5  11   9    6.89    1.40 
  -5  11   9    8.49    1.61 
   4 -11  -9   13.07    1.51 
   4 -11  -9   18.85    2.06 
  -4  11   9   12.58    1.54 
  -4  11   9   14.82    2.07 
   3 -11  -9   10.61    1.44 
   3 -11  -9    9.71    1.51 
  -3  11   9   12.09    1.69 
  -3  11   9   12.51    1.68 
   5  12 -10    5.25    1.41 
  -5 -12  10    2.68    1.17 
  -5 -12  10   -0.08    1.02 
   4  12 -10    6.60    1.30 
  -4 -12  10    5.33    1.03 
  -4 -12  10    6.71    1.17 
   3  12 -10   28.18    2.30 
  -3 -12  10   21.51    1.78 
  -3 -12  10   24.89    2.14 
   2  12 -10    1.40    1.09 
  -2 -12  10    0.10    0.92 
  -2 -12  10    0.57    1.02 
   1  12 -10    0.60    0.71 
  -1 -12  10    2.48    1.05 
  -1 -12  10    2.88    1.15 
  -1 -12  10    1.25    0.80 
   0  12 -10    1.27    0.86 
   0 -12  10    1.70    0.74 
   0 -12  10    2.89    1.05 
   0 -12  10    3.24    0.88 
  -1  12 -10   10.42    1.36 
   1 -12  10   10.02    1.29 
   1 -12  10    6.04    1.16 
   1 -12  10    8.16    1.32 
  -2  12 -10   10.28    1.55 
   2 -12  10    6.93    1.44 
   2 -12  10    7.68    1.25 
   2 -12  10    5.00    1.10 
   6  11 -10   -0.02    1.32 
  -6 -11  10   -0.94    0.99 
   5  11 -10   -0.74    0.82 
  -5 -11  10    1.33    0.77 
  -4 -11  10    4.87    0.93 
  -4 -11  10    2.19    0.91 
  -4 -11  10    2.91    0.85 
   3  11 -10    5.88    1.14 
  -3 -11  10    7.40    1.11 
  -3 -11  10    5.87    0.96 
   2  11 -10    3.46    1.22 
  -2 -11  10    2.63    0.75 
  -2 -11  10    2.11    0.85 
   1  11 -10   -0.24    0.89 
  -1 -11  10    1.30    0.88 
  -1 -11  10   -0.15    0.66 
  -1 -11  10   -0.33    0.90 
   0  11 -10    0.95    0.86 
   0 -11  10    1.01    0.74 
   0 -11  10   -1.59    0.93 
   0 -11  10   -0.57    1.00 
  -1  11 -10    3.53    0.96 
   1 -11  10    1.88    0.79 
   1 -11  10    2.64    0.61 
   1 -11  10    2.47    0.85 
  -2  11 -10    9.97    1.75 
   2 -11  10    9.47    1.42 
   2 -11  10    8.53    1.45 
   2 -11  10   11.11    1.74 
  -3  11 -10    1.30    0.84 
   3 -11  10   -0.42    0.83 
   3 -11  10   -0.78    0.86 
   3 -11  10    0.05    1.06 
   3 -11  10   -0.80    0.95 
   7  10 -10    6.23    1.38 
  -7 -10  10    9.02    1.29 
  -7 -10  10    7.23    1.38 
  -7 -10  10    8.23    1.14 
   6  10 -10    1.10    1.10 
  -6 -10  10   -0.01    0.66 
  -6 -10  10   -0.76    0.71 
  -6 -10  10   -1.14    0.76 
  -5 -10  10   -0.83    0.77 
  -5 -10  10   -0.06    0.85 
  -4 -10  10   11.21    1.56 
  -4 -10  10    7.78    1.35 
  -4 -10  10    6.74    1.04 
   3  10 -10    2.99    0.90 
  -3 -10  10    4.76    0.97 
  -3 -10  10    4.68    0.76 
  -3 -10  10    2.81    0.82 
   2  10 -10   13.77    1.44 
  -2 -10  10   16.44    1.61 
  -2 -10  10   14.45    1.43 
  -2 -10  10   16.12    1.13 
   1  10 -10    3.19    1.07 
  -1 -10  10    2.16    0.70 
  -1 -10  10    2.32    1.21 
  -1 -10  10    2.75    0.97 
   0  10 -10   10.62    1.52 
   0 -10  10   10.41    1.45 
   0 -10  10   10.79    1.31 
   0 -10  10   10.98    1.21 
  -1  10 -10   -0.25    0.95 
   1 -10  10    0.17    0.73 
   1 -10  10   -0.13    0.67 
   1 -10  10    0.55    0.79 
  -2  10 -10   11.02    1.20 
   2 -10  10   12.47    1.10 
   2 -10  10   12.30    1.44 
   2 -10  10   11.49    1.51 
   2 -10  10   12.23    1.31 
  -3  10 -10    2.30    1.20 
   3 -10  10    2.93    0.79 
   3 -10  10    3.22    0.84 
   3 -10  10    3.53    0.83 
  -4  10 -10    9.79    1.57 
   4 -10  10   13.04    1.96 
   4 -10  10   11.97    1.58 
   4 -10  10   12.57    1.52 
   8   9 -10    1.61    1.04 
  -8  -9  10    1.84    0.84 
  -8  -9  10    4.29    1.40 
  -8  -9  10    1.01    1.00 
   7   9 -10    3.79    1.14 
  -7  -9  10    3.62    1.20 
  -7  -9  10    4.37    0.79 
  -7  -9  10    2.18    0.92 
   6   9 -10    6.83    0.99 
  -6  -9  10    6.21    1.17 
  -6  -9  10    6.19    1.06 
  -6  -9  10    7.17    1.15 
   5   9 -10    5.23    1.24 
  -5  -9  10    5.01    1.14 
  -5  -9  10    4.54    0.81 
  -5  -9  10    3.05    0.92 
  -4  -9  10    0.66    0.77 
  -4  -9  10   -0.12    0.65 
  -4  -9  10   -0.02    0.61 
   3   9 -10    3.17    1.12 
  -3  -9  10    0.35    0.74 
  -3  -9  10    0.54    0.90 
  -3  -9  10    0.47    0.63 
   2   9 -10    9.07    1.25 
  -2  -9  10   11.96    1.18 
  -2  -9  10    7.76    1.01 
  -2  -9  10   11.87    1.15 
   1   9 -10    7.19    1.15 
  -1  -9  10    8.28    1.12 
  -1  -9  10    6.85    1.10 
  -1  -9  10    9.50    1.46 
   0   9 -10   14.04    1.21 
   0  -9  10    9.83    1.15 
   0  -9  10   10.64    1.22 
   0  -9  10   12.40    1.47 
  -1   9 -10    1.89    0.74 
   1  -9  10    1.68    0.60 
   1  -9  10    1.61    0.83 
   1  -9  10    1.65    0.74 
   1  -9  10    1.45    0.83 
  -2   9 -10    4.56    1.16 
  -2   9 -10    5.58    1.47 
   2  -9  10    5.48    1.00 
   2  -9  10    5.44    1.75 
   2  -9  10    5.29    1.01 
   2  -9  10    7.55    1.26 
  -3   9 -10   -0.93    0.78 
   3  -9  10    0.46    0.76 
   3  -9  10    0.23    0.89 
   3  -9  10    0.04    0.99 
  -4   9 -10   42.63    2.15 
   4  -9  10   45.04    2.51 
   4  -9  10   46.36    2.34 
   4  -9  10   47.13    2.28 
   5  -9  10    2.24    0.90 
   9   8 -10    0.62    0.94 
  -9  -8  10   -1.36    1.02 
  -9  -8  10   -1.82    0.90 
  -9  -8  10    1.29    0.85 
   8   8 -10    1.17    0.87 
  -8  -8  10    0.10    1.07 
  -8  -8  10    0.65    0.73 
  -8  -8  10   -0.23    0.64 
   7   8 -10   -1.01    0.59 
  -7  -8  10    0.30    0.73 
  -7  -8  10    0.10    0.60 
   6   8 -10   22.87    1.76 
  -6  -8  10   17.94    1.32 
  -6  -8  10   19.18    1.69 
   5   8 -10   24.39    1.70 
  -5  -8  10   30.16    1.92 
  -5  -8  10   26.98    1.66 
  -5  -8  10   24.71    1.39 
   4   8 -10   33.40    1.84 
  -4  -8  10   34.73    1.90 
  -4  -8  10   34.28    1.59 
  -4  -8  10   32.05    1.84 
   3   8 -10    7.13    0.95 
  -3  -8  10    8.53    1.20 
  -3  -8  10    5.98    0.97 
  -3  -8  10    9.12    0.86 
   2   8 -10    0.40    0.78 
  -2  -8  10   -0.80    0.71 
  -2  -8  10    0.79    0.76 
  -2  -8  10   -0.14    0.55 
  -1  -8  10    5.54    0.92 
  -1  -8  10    7.58    1.26 
  -1  -8  10    5.38    0.94 
  -1  -8  10    3.84    0.70 
   0   8 -10   32.39    1.71 
   0  -8  10   33.51    1.73 
   0  -8  10   35.63    1.36 
   0  -8  10   33.36    1.65 
  -1   8 -10    0.44    0.66 
   1  -8  10    1.60    0.86 
   1  -8  10    1.12    0.57 
   1  -8  10    1.98    0.95 
   1  -8  10    0.18    0.62 
   1  -8  10    0.95    0.63 
  -2   8 -10    2.23    0.91 
   2  -8  10    1.96    0.76 
   2  -8  10    2.51    0.76 
   2  -8  10    2.50    0.69 
   2  -8  10    2.44    0.91 
  -3   8 -10   15.74    1.49 
   3  -8  10   19.31    1.76 
   3  -8  10   19.17    1.28 
   3  -8  10   17.46    1.24 
  -4   8 -10   29.46    1.84 
   4  -8  10   30.96    1.84 
   4  -8  10   30.76    2.09 
   4  -8  10   32.21    1.99 
  -5   8 -10    4.83    1.38 
  -5   8 -10    5.38    0.92 
   5  -8  10    4.59    1.15 
   5  -8  10    5.86    1.37 
  10   7 -10    0.09    0.93 
 -10  -7  10    2.86    0.81 
 -10  -7  10    0.87    1.00 
 -10  -7  10    1.81    1.35 
   9   7 -10   18.08    1.70 
  -9  -7  10   22.29    1.68 
  -9  -7  10   17.35    1.67 
  -9  -7  10   17.40    1.58 
   8   7 -10    6.06    1.13 
  -8  -7  10    5.38    0.98 
  -8  -7  10    4.31    1.05 
   7   7 -10   27.71    1.87 
  -7  -7  10   27.56    1.81 
  -7  -7  10   25.05    1.62 
  -7  -7  10   25.25    1.36 
   6   7 -10   25.60    1.66 
  -6  -7  10   25.08    1.29 
  -6  -7  10   24.93    1.81 
  -6  -7  10   27.21    1.73 
   5   7 -10   26.49    1.71 
  -5  -7  10   24.53    1.59 
  -5  -7  10   26.08    1.56 
  -5  -7  10   23.48    1.42 
   4   7 -10   14.94    1.15 
  -4  -7  10   18.13    1.18 
  -4  -7  10   17.77    1.24 
  -4  -7  10   12.82    1.60 
   3   7 -10   31.40    1.83 
  -3  -7  10   31.71    1.43 
   2   7 -10    1.00    0.86 
  -2  -7  10    0.27    0.61 
   1   7 -10   22.28    1.51 
  -1  -7  10   23.30    1.06 
  -1  -7  10   21.16    1.25 
  -1  -7  10   21.59    0.95 
   0   7 -10   32.54    1.72 
   0  -7  10   34.29    1.27 
   0  -7  10   33.62    1.69 
   0  -7  10   33.82    1.73 
   0  -7  10   34.46    1.42 
   0  -7  10   27.40    1.80 
  -1   7 -10   10.58    1.21 
  -1   7 -10   10.07    1.35 
   1  -7  10   10.53    1.09 
   1  -7  10   12.54    1.04 
   1  -7  10   11.51    1.05 
   1  -7  10   11.60    1.07 
  -2   7 -10    2.38    0.69 
  -2   7 -10    2.19    0.64 
  -2   7 -10    1.98    0.84 
   2  -7  10    1.33    0.58 
   2  -7  10    2.06    0.88 
   2  -7  10    1.36    0.77 
   2  -7  10    2.32    0.82 
  -3   7 -10   17.59    1.52 
   3  -7  10   16.00    1.38 
   3  -7  10   16.09    1.46 
   3  -7  10   14.66    1.43 
  -4   7 -10    9.50    1.46 
   4  -7  10   11.60    1.57 
   4  -7  10   10.88    1.08 
   4  -7  10   11.10    1.49 
  -5   7 -10   17.53    1.78 
  -5   7 -10   16.85    1.63 
   5  -7  10   17.30    1.69 
   5  -7  10   18.91    1.85 
   5  -7  10   22.47    1.79 
  10   6 -10   -0.49    0.96 
 -10  -6  10    0.41    0.98 
 -10  -6  10    0.52    1.14 
 -10  -6  10    1.19    0.89 
   9   6 -10   12.95    1.62 
  -9  -6  10    8.35    1.43 
  -9  -6  10   12.88    1.46 
  -9  -6  10   11.92    1.47 
   8   6 -10   54.46    2.31 
  -8  -6  10   50.66    2.25 
  -8  -6  10   50.49    2.18 
  -8  -6  10   51.05    2.19 
   7   6 -10   12.49    1.49 
  -7  -6  10    8.05    1.68 
  -7  -6  10    9.89    1.16 
  -7  -6  10   10.37    1.38 
   6   6 -10    2.01    0.88 
  -6  -6  10    1.75    0.82 
  -6  -6  10    2.54    0.82 
  -6  -6  10    0.53    0.65 
  -5  -6  10   11.41    1.03 
  -5  -6  10   15.75    1.39 
   4   6 -10   16.28    1.34 
  -4  -6  10   13.15    1.18 
  -4  -6  10   14.25    1.10 
  -4  -6  10   14.11    1.11 
   3   6 -10   65.53    2.28 
  -3  -6  10   59.89    2.05 
  -3  -6  10   59.77    2.12 
  -3  -6  10   61.80    2.23 
   2   6 -10    1.63    0.71 
   2   6 -10    1.83    0.72 
  -2  -6  10    0.04    0.54 
  -2  -6  10    1.05    0.59 
  -2  -6  10    2.39    0.78 
  -2  -6  10    1.17    0.33 
  -2  -6  10    1.40    0.56 
   1   6 -10    5.25    0.93 
   1   6 -10    5.75    0.85 
  -1  -6  10    4.82    0.62 
  -1  -6  10    4.14    0.80 
  -1  -6  10    4.86    0.77 
  -1  -6  10    4.92    0.69 
  -1  -6  10    3.95    0.73 
   0   6 -10   27.90    1.54 
   0   6 -10   29.69    1.51 
   0  -6  10   26.87    1.77 
   0  -6  10   29.60    1.52 
   0  -6  10   31.78    1.50 
   0  -6  10   30.24    1.33 
   0  -6  10   30.86    1.39 
  -1   6 -10   39.57    1.65 
  -1   6 -10   42.05    1.56 
  -1   6 -10   36.16    2.60 
   1  -6  10   38.35    1.93 
   1  -6  10   37.19    2.55 
   1  -6  10   40.34    1.63 
   1  -6  10   40.89    1.71 
  -2   6 -10   11.66    1.09 
  -2   6 -10   10.56    1.17 
  -2   6 -10   11.92    1.12 
   2  -6  10   10.49    1.30 
   2  -6  10   10.49    1.03 
   2  -6  10   12.98    1.12 
   2  -6  10   12.84    1.48 
  -3   6 -10   -0.95    0.76 
   3  -6  10    0.73    0.76 
   3  -6  10    0.13    0.83 
   3  -6  10   -0.38    0.80 
  -4   6 -10    1.19    0.81 
   4  -6  10    2.07    0.93 
   4  -6  10    0.47    0.71 
   4  -6  10    0.94    0.72 
  -5   6 -10   16.74    1.86 
  -5   6 -10   16.76    1.71 
   5  -6  10   19.54    1.48 
   5  -6  10   14.87    1.67 
   5  -6  10   13.73    1.42 
  -6   6 -10    4.05    1.33 
   6  -6  10    1.35    1.14 
   6  -6  10    3.42    1.44 
   6  -6  10    2.62    1.03 
  11   5 -10    6.58    1.25 
 -11  -5  10    6.23    1.07 
 -11  -5  10    4.91    1.24 
  10   5 -10   -0.22    0.83 
 -10  -5  10    0.19    1.07 
 -10  -5  10    1.12    1.13 
 -10  -5  10    0.94    0.94 
   9   5 -10   11.53    1.42 
  -9  -5  10    6.80    1.76 
  -9  -5  10    7.92    1.30 
  -9  -5  10    8.93    1.11 
   8   5 -10   10.30    1.37 
  -8  -5  10   10.71    1.30 
  -8  -5  10   12.73    1.55 
  -8  -5  10   10.51    1.38 
   7   5 -10    9.54    1.12 
  -7  -5  10   12.72    1.16 
  -7  -5  10   10.15    1.19 
  -6  -5  10    1.78    0.69 
  -6  -5  10    0.90    0.64 
  -6  -5  10    2.61    0.69 
   5   5 -10    0.36    0.56 
  -5  -5  10    0.27    0.66 
  -5  -5  10   -0.80    0.53 
  -5  -5  10    0.11    0.51 
   4   5 -10   11.19    1.11 
  -4  -5  10    9.69    1.07 
  -4  -5  10    9.60    1.22 
  -4  -5  10   10.22    1.04 
   3   5 -10   25.29    1.52 
   3   5 -10   27.69    1.44 
  -3  -5  10   27.36    1.37 
  -3  -5  10   27.92    1.39 
  -3  -5  10   28.79    0.82 
  -3  -5  10   27.44    1.49 
  -3  -5  10   26.81    1.06 
   2   5 -10    7.28    0.98 
   2   5 -10    8.31    0.96 
  -2  -5  10    8.33    1.01 
  -2  -5  10    8.05    0.71 
  -2  -5  10    7.81    0.63 
  -2  -5  10    6.96    0.81 
  -2  -5  10    8.03    0.95 
   1   5 -10    3.02    0.65 
   1   5 -10    3.20    0.75 
  -1  -5  10    3.16    0.47 
  -1  -5  10    3.41    0.66 
  -1  -5  10    3.99    0.70 
  -1  -5  10    3.76    0.58 
  -1  -5  10    3.92    0.77 
   0   5 -10   13.19    1.15 
   0   5 -10   14.04    1.29 
   0   5 -10   12.72    1.06 
   0  -5  10   12.57    0.91 
   0  -5  10   14.26    1.05 
   0  -5  10   11.47    1.10 
   0  -5  10   13.10    1.16 
  -1   5 -10   13.50    1.09 
  -1   5 -10   13.95    1.10 
  -1   5 -10   15.36    1.15 
   1  -5  10   13.23    1.30 
   1  -5  10   16.61    1.18 
   1  -5  10   13.78    1.16 
  -2   5 -10    8.99    1.00 
  -2   5 -10    8.74    1.04 
   2  -5  10   11.88    1.30 
   2  -5  10   11.03    1.05 
   2  -5  10    9.82    1.24 
   2  -5  10    9.67    1.26 
  -3   5 -10    8.67    1.06 
   3  -5  10    9.71    1.11 
   3  -5  10   10.62    1.00 
   3  -5  10   12.06    1.41 
   3  -5  10    9.72    1.27 
  -4   5 -10   12.68    1.52 
  -4   5 -10    9.36    1.33 
   4  -5  10   10.72    1.40 
   4  -5  10   10.83    1.23 
   4  -5  10   12.88    1.54 
  -5   5 -10    0.92    0.99 
  -5   5 -10   -0.53    0.85 
   5  -5  10   -0.92    0.67 
   5  -5  10   -0.09    0.79 
   5  -5  10    0.59    0.84 
  -6   5 -10    0.80    0.97 
  -6   5 -10    0.09    1.01 
   6  -5  10    0.73    1.09 
   6  -5  10    2.35    0.95 
  11   4 -10    2.97    1.06 
 -11  -4  10    3.46    0.97 
 -11  -4  10    2.80    1.06 
  10   4 -10    0.21    0.87 
 -10  -4  10   -0.22    0.56 
 -10  -4  10    0.34    1.07 
   9   4 -10    8.25    1.42 
  -9  -4  10    6.00    0.89 
  -9  -4  10    6.41    1.22 
  -9  -4  10    6.90    1.05 
   8   4 -10   11.93    1.39 
  -8  -4  10   11.66    1.48 
  -8  -4  10   10.40    1.17 
  -8  -4  10   11.41    1.03 
   7   4 -10   32.81    1.87 
  -7  -4  10   31.36    1.53 
  -7  -4  10   32.90    1.56 
  -7  -4  10   33.20    1.74 
   6   4 -10   12.60    1.18 
  -6  -4  10   12.09    1.00 
  -6  -4  10   12.74    1.15 
  -6  -4  10   14.33    1.35 
   5   4 -10    0.96    0.57 
  -5  -4  10    1.04    0.69 
  -5  -4  10    1.52    0.74 
  -5  -4  10    2.00    0.63 
   4   4 -10    0.48    0.68 
   4   4 -10    0.97    0.63 
  -4  -4  10   -0.10    0.47 
  -4  -4  10    0.86    0.38 
  -4  -4  10    0.64    0.20 
  -4  -4  10   -0.30    0.49 
   3   4 -10   20.22    1.36 
   3   4 -10   18.19    1.21 
  -3  -4  10   18.78    1.22 
  -3  -4  10   21.03    0.92 
  -3  -4  10   18.45    1.25 
  -3  -4  10   19.15    0.79 
  -3  -4  10   19.85    1.24 
   2   4 -10    0.16    0.60 
   2   4 -10    0.08    0.55 
  -2  -4  10    0.63    0.36 
  -2  -4  10    0.14    0.46 
  -2  -4  10   -0.50    0.41 
  -2  -4  10   -0.04    0.36 
   1   4 -10   15.44    1.11 
   1   4 -10   15.86    1.10 
   1   4 -10   12.69    1.04 
  -1  -4  10   15.49    0.91 
  -1  -4  10   17.01    1.21 
  -1  -4  10   16.14    1.17 
  -1  -4  10   14.73    0.92 
   0   4 -10   -0.12    0.47 
   0   4 -10    0.99    0.54 
   0   4 -10    1.02    0.53 
   0  -4  10    1.09    0.46 
   0  -4  10    1.86    0.44 
   0  -4  10    0.86    0.58 
  -1   4 -10    0.56    0.58 
  -1   4 -10    1.09    0.53 
  -1   4 -10    1.30    0.49 
   1  -4  10    0.89    0.58 
   1  -4  10    1.09    0.63 
   1  -4  10    0.64    0.55 
   1  -4  10    0.68    0.68 
  -2   4 -10   12.52    1.23 
  -2   4 -10   12.60    1.12 
  -2   4 -10   11.53    0.97 
   2  -4  10   13.11    1.27 
   2  -4  10   11.98    1.25 
   2  -4  10   10.65    1.05 
   2  -4  10   12.25    1.23 
   2  -4  10   14.04    0.97 
  -3   4 -10    9.11    1.26 
   3  -4  10   10.64    1.37 
   3  -4  10    7.34    1.20 
   3  -4  10   10.45    1.06 
   3  -4  10   10.77    1.30 
  -4   4 -10   13.64    1.57 
  -4   4 -10   16.13    1.44 
   4  -4  10   17.05    1.22 
   4  -4  10   18.26    1.71 
   4  -4  10   17.55    1.68 
  -5   4 -10   -0.85    0.89 
  -5   4 -10    1.17    0.96 
   5  -4  10    0.96    0.76 
   5  -4  10   -0.17    0.99 
   5  -4  10   -0.70    0.62 
  -6   4 -10    6.68    1.06 
  -6   4 -10    6.09    1.38 
   6  -4  10    8.44    1.45 
  11   3 -10   11.12    1.62 
 -11  -3  10    6.60    1.31 
 -11  -3  10    8.29    1.25 
  10   3 -10    0.43    0.83 
 -10  -3  10    0.77    0.91 
 -10  -3  10    0.83    1.03 
   9   3 -10    1.75    0.93 
  -9  -3  10    0.45    0.73 
  -9  -3  10    2.28    0.79 
   8   3 -10    0.85    0.79 
  -8  -3  10    0.54    0.77 
  -8  -3  10    0.82    0.72 
   7   3 -10   19.97    1.62 
  -7  -3  10   20.27    1.43 
  -7  -3  10   20.62    1.01 
  -7  -3  10   20.22    1.30 
  -7  -3  10   23.24    1.49 
   6   3 -10    1.69    0.62 
  -6  -3  10    1.90    0.69 
  -6  -3  10    1.82    0.69 
  -6  -3  10    2.60    0.38 
  -6  -3  10    2.26    0.43 
  -6  -3  10    2.02    0.64 
   5   3 -10    0.21    0.57 
  -5  -3  10   -0.54    0.50 
  -5  -3  10    0.62    0.25 
  -5  -3  10   -0.63    0.47 
  -5  -3  10    0.35    0.46 
   4   3 -10   -0.65    0.50 
   4   3 -10   -0.12    0.55 
  -4  -3  10   -0.31    0.49 
  -4  -3  10    0.09    0.37 
  -4  -3  10    0.04    0.28 
  -4  -3  10    0.88    0.64 
   3   3 -10    1.84    0.59 
   3   3 -10    1.89    0.60 
   3   3 -10    2.45    0.66 
  -3  -3  10    2.35    0.60 
  -3  -3  10    1.90    0.58 
  -3  -3  10    2.38    0.40 
  -3  -3  10    1.72    0.35 
   2   3 -10   26.45    1.37 
   2   3 -10   26.12    1.27 
   2   3 -10   26.63    1.36 
  -2  -3  10   27.13    1.46 
  -2  -3  10   24.34    1.21 
  -2  -3  10   24.41    1.22 
  -2  -3  10   25.55    1.10 
   1   3 -10   54.67    1.78 
   1   3 -10   54.00    1.86 
   1   3 -10   52.16    1.89 
  -1  -3  10   53.41    1.93 
  -1  -3  10   55.13    1.92 
  -1  -3  10   54.18    1.73 
  -1  -3  10   52.25    1.89 
   0   3 -10   21.68    1.40 
   0   3 -10   24.09    1.19 
   0   3 -10   24.39    1.21 
   0  -3  10   22.91    1.29 
   0  -3  10   24.22    1.29 
   0  -3  10   21.92    1.21 
   0  -3  10   22.87    1.30 
  -1   3 -10    0.25    0.67 
  -1   3 -10    0.25    0.48 
  -1   3 -10   -0.05    0.49 
   1  -3  10   -0.88    0.59 
   1  -3  10    0.31    0.56 
   1  -3  10   -0.48    0.45 
   1  -3  10   -0.03    0.58 
  -2   3 -10    7.47    1.13 
  -2   3 -10    6.44    0.86 
   2  -3  10    9.51    1.26 
   2  -3  10    7.06    1.03 
   2  -3  10    8.35    0.82 
   2  -3  10    6.37    1.13 
   2  -3  10    5.16    0.91 
  -3   3 -10   29.49    1.66 
   3  -3  10   29.28    1.81 
   3  -3  10   30.76    1.51 
   3  -3  10   26.90    1.51 
  -4   3 -10   15.48    1.71 
  -4   3 -10   13.30    1.76 
   4  -3  10    9.11    1.39 
   4  -3  10   12.43    1.48 
  -5   3 -10    2.24    1.00 
  -5   3 -10    1.23    0.93 
   5  -3  10    1.80    1.00 
   5  -3  10    1.64    0.95 
   5  -3  10    0.19    0.98 
  -6   3 -10    0.43    1.08 
  -6   3 -10    0.93    0.93 
   6  -3  10   -1.33    0.94 
   6  -3  10    0.79    1.03 
   6  -3  10    1.47    0.88 
  12   2 -10    0.24    0.89 
 -12  -2  10    1.46    1.18 
  11   2 -10    5.46    1.08 
 -11  -2  10    5.23    0.96 
 -11  -2  10    3.89    1.20 
  10   2 -10    2.50    0.97 
 -10  -2  10    2.91    1.09 
 -10  -2  10    4.59    0.84 
   9   2 -10   47.37    2.23 
   9   2 -10   48.83    1.69 
  -9  -2  10   43.66    1.97 
   8   2 -10    2.82    0.86 
   8   2 -10    2.72    0.58 
  -8  -2  10    2.55    0.91 
  -8  -2  10    2.63    0.60 
  -8  -2  10    2.40    0.83 
   7   2 -10    2.56    0.84 
   7   2 -10    3.74    0.56 
  -7  -2  10    3.83    0.67 
  -7  -2  10    2.59    0.78 
  -7  -2  10    3.31    0.78 
  -7  -2  10    3.36    0.55 
   6   2 -10    1.01    0.44 
   6   2 -10    0.04    0.52 
  -6  -2  10    1.53    0.46 
  -6  -2  10    1.12    0.64 
  -6  -2  10    0.71    0.72 
  -6  -2  10    1.47    0.43 
   5   2 -10   71.04    2.42 
   5   2 -10   73.56    2.16 
   5   2 -10   71.94    2.36 
  -5  -2  10   70.16    2.16 
  -5  -2  10   75.26    2.22 
  -5  -2  10   73.39    2.29 
  -5  -2  10   70.34    1.99 
   4   2 -10   10.09    1.01 
   4   2 -10    9.04    0.95 
   4   2 -10   10.99    1.08 
  -4  -2  10   10.66    0.82 
  -4  -2  10   10.18    0.69 
  -4  -2  10    9.91    0.96 
  -4  -2  10   11.67    1.06 
   3   2 -10    3.88    0.74 
   3   2 -10    2.72    0.60 
   3   2 -10    2.85    0.57 
  -3  -2  10    3.35    0.60 
  -3  -2  10    3.21    0.63 
  -3  -2  10    3.16    0.48 
  -3  -2  10    3.21    0.64 
   2   2 -10   87.63    2.55 
   2   2 -10   89.94    2.53 
   2   2 -10   88.46    2.46 
  -2  -2  10   91.46    2.59 
  -2  -2  10   87.78    2.33 
  -2  -2  10   84.85    2.48 
  -2  -2  10   87.30    2.38 
   1   2 -10   62.72    1.93 
   1   2 -10   62.36    2.08 
   1   2 -10   61.58    2.00 
  -1  -2  10   62.66    2.05 
  -1  -2  10   62.19    1.94 
  -1  -2  10   62.39    2.04 
  -1  -2  10   63.73    2.06 
   0   2 -10   36.57    1.45 
   0   2 -10   38.47    1.46 
   0   2 -10   35.17    1.56 
   0  -2  10   37.27    1.56 
   0  -2  10   34.53    1.49 
   0  -2  10   39.26    1.71 
   0  -2  10   37.07    1.70 
  -1   2 -10   11.12    0.93 
  -1   2 -10   11.74    0.95 
  -1   2 -10   11.96    1.26 
   1  -2  10   10.09    1.13 
   1  -2  10   11.80    0.88 
   1  -2  10   11.16    1.19 
   1  -2  10   11.85    1.15 
   1  -2  10   10.23    1.06 
  -2   2 -10    0.99    0.69 
   2  -2  10    0.51    0.79 
   2  -2  10    1.41    0.85 
   2  -2  10    0.43    0.42 
  -3   2 -10   10.97    1.28 
  -3   2 -10   11.29    1.43 
   3  -2  10   14.55    1.01 
   3  -2  10   12.38    1.29 
   3  -2  10   12.72    1.35 
  -4   2 -10   50.72    2.11 
  -4   2 -10   48.37    2.33 
   4  -2  10   51.31    1.86 
   4  -2  10   52.10    2.43 
   4  -2  10   54.07    2.33 
  -5   2 -10    7.80    1.14 
  -5   2 -10    8.09    1.42 
   5  -2  10    8.09    1.46 
   5  -2  10    7.93    1.33 
  -6   2 -10    0.04    1.05 
  -6   2 -10    0.88    0.97 
   6  -2  10    0.14    0.96 
   6  -2  10    1.22    1.02 
   6  -2  10    0.84    1.12 
  12   1 -10    7.11    1.03 
 -12  -1  10   10.26    1.71 
 -12  -1  10    7.41    1.27 
  11   1 -10   -0.63    0.78 
 -11  -1  10   -1.26    0.78 
 -11  -1  10    0.24    0.83 
  10   1 -10    8.19    1.32 
 -10  -1  10    7.94    1.20 
 -10  -1  10    7.89    1.16 
 -10  -1  10    9.04    1.09 
   9   1 -10   15.88    1.56 
   9   1 -10   16.88    1.07 
  -9  -1  10   17.60    1.21 
  -9  -1  10   17.96    1.69 
  -9  -1  10   19.95    1.35 
   8   1 -10    2.69    0.92 
   8   1 -10    2.60    0.56 
  -8  -1  10    3.05    0.48 
  -8  -1  10    1.47    0.70 
  -8  -1  10    3.06    0.67 
  -8  -1  10    2.28    0.69 
   7   1 -10    0.28    0.47 
   7   1 -10   -0.28    0.66 
  -7  -1  10    0.19    0.49 
  -7  -1  10    0.82    0.53 
  -7  -1  10    1.03    0.43 
   6   1 -10   13.77    1.02 
   6   1 -10   13.21    1.21 
  -6  -1  10   11.70    1.08 
  -6  -1  10   12.65    0.79 
  -6  -1  10   11.68    1.13 
  -6  -1  10   12.91    0.88 
   5   1 -10  129.74    3.19 
   5   1 -10  128.48    3.39 
   5   1 -10  123.22    3.41 
  -5  -1  10  124.77    3.11 
  -5  -1  10  125.14    3.29 
  -5  -1  10  119.33    2.85 
  -5  -1  10  127.15    3.14 
   4   1 -10   78.19    2.42 
   4   1 -10   74.54    2.41 
   4   1 -10   77.44    2.27 
  -4  -1  10   77.57    2.15 
  -4  -1  10   75.37    2.34 
  -4  -1  10   73.23    2.02 
  -4  -1  10   79.64    2.27 
   3   1 -10   58.44    1.93 
   3   1 -10   59.21    2.02 
   3   1 -10   58.72    1.96 
  -3  -1  10   57.48    1.75 
  -3  -1  10   57.65    1.82 
  -3  -1  10   55.66    1.92 
  -3  -1  10   57.07    1.91 
   2   1 -10   23.17    1.15 
   2   1 -10   23.81    1.31 
   2   1 -10   22.40    1.26 
  -2  -1  10   22.72    1.19 
  -2  -1  10   21.79    1.21 
  -2  -1  10   24.68    1.37 
  -2  -1  10   21.69    1.03 
   1   1 -10   24.56    1.24 
   1   1 -10   21.71    1.20 
   1   1 -10   24.66    1.27 
  -1  -1  10   24.06    1.26 
  -1  -1  10   24.49    1.28 
  -1  -1  10   23.58    1.25 
  -1  -1  10   22.83    1.24 
   0   1 -10   59.07    2.05 
   0   1 -10   63.97    1.92 
   0   1 -10   64.43    1.90 
   0  -1  10   63.20    2.18 
   0  -1  10   63.20    2.17 
   0  -1  10   61.28    2.22 
   0  -1  10   60.99    2.01 
  -1   1 -10  102.63    2.49 
  -1   1 -10   97.28    2.84 
  -1   1 -10  104.13    2.51 
   1  -1  10  103.19    2.49 
   1  -1  10   98.68    3.00 
   1  -1  10   99.79    2.96 
   1  -1  10  104.62    3.08 
   1  -1  10   97.64    2.81 
  -2   1 -10    2.64    1.20 
  -2   1 -10    3.22    0.98 
   2  -1  10    2.98    0.78 
   2  -1  10    2.86    0.55 
   2  -1  10    2.42    0.83 
  -3   1 -10    8.28    1.15 
  -3   1 -10    8.18    1.25 
   3  -1  10    8.66    1.29 
   3  -1  10    8.19    1.05 
   3  -1  10    6.74    1.01 
  -4   1 -10   20.68    1.55 
  -4   1 -10   18.75    1.55 
   4  -1  10   19.70    1.49 
   4  -1  10   18.57    1.76 
   4  -1  10   21.01    1.75 
  -5   1 -10    2.33    0.92 
  -5   1 -10    1.85    0.99 
   5  -1  10    2.67    1.09 
   5  -1  10    2.89    0.83 
  -6   1 -10    0.27    1.02 
  -6   1 -10    1.69    1.11 
   6  -1  10    3.61    1.26 
   6  -1  10    0.91    0.97 
   6  -1  10    2.61    1.13 
  12   0 -10    9.82    1.52 
 -12   0  10    7.89    1.47 
 -12   0  10   10.46    1.68 
  11   0 -10    1.57    0.76 
 -11   0  10   -0.35    1.49 
 -11   0  10    1.82    0.99 
 -11   0  10    1.99    1.04 
  10   0 -10   13.21    1.61 
 -10   0  10   10.04    1.33 
 -10   0  10   11.20    1.43 
 -10   0  10    7.93    1.34 
   9   0 -10   24.35    1.18 
   9   0 -10   21.57    1.59 
  -9   0  10   20.99    1.22 
  -9   0  10   24.23    1.72 
  -9   0  10   22.86    1.37 
  -9   0  10   23.41    1.30 
   8   0 -10   41.05    1.42 
   8   0 -10   38.05    2.23 
  -8   0  10   36.17    1.67 
  -8   0  10   43.20    1.61 
  -8   0  10   40.88    1.55 
  -8   0  10   40.33    1.46 
   7   0 -10   11.66    0.95 
   7   0 -10    9.80    1.14 
  -7   0  10   12.83    0.88 
  -7   0  10   10.33    0.96 
  -7   0  10   11.48    1.08 
   6   0 -10    0.24    0.65 
   6   0 -10    0.58    0.52 
  -6   0  10   -0.24    0.46 
  -6   0  10   -0.55    0.55 
  -6   0  10   -0.01    0.38 
   5   0 -10   27.27    1.64 
   5   0 -10   28.86    1.57 
   5   0 -10   28.02    1.33 
  -5   0  10   25.67    1.25 
  -5   0  10   26.75    1.39 
  -5   0  10   28.25    1.23 
  -5   0  10   25.05    1.15 
   4   0 -10   89.02    2.60 
   4   0 -10   88.71    2.69 
   4   0 -10   84.98    2.41 
  -4   0  10   88.64    2.35 
  -4   0  10   88.08    2.47 
  -4   0  10   88.29    2.51 
  -4   0  10   90.10    2.46 
   3   0 -10   30.94    1.45 
   3   0 -10   30.53    1.41 
   3   0 -10   30.62    1.49 
  -3   0  10   28.59    1.42 
  -3   0  10   31.25    1.30 
  -3   0  10   29.68    1.35 
  -3   0  10   30.70    1.27 
   2   0 -10    2.28    0.56 
   2   0 -10    1.65    0.59 
   2   0 -10    1.46    0.64 
  -2   0  10    1.56    0.51 
  -2   0  10    1.77    0.47 
  -2   0  10    2.76    0.57 
  -2   0  10    2.04    0.54 
   1   0 -10    0.78    0.59 
   1   0 -10    0.70    0.62 
   1   0 -10    0.90    0.48 
  -1   0  10    0.36    0.59 
  -1   0  10    0.90    0.54 
  -1   0  10    1.54    0.61 
  -1   0  10    0.38    0.38 
   0   0 -10   54.39    2.01 
   0   0 -10   57.55    1.80 
   0   0 -10   57.13    1.80 
   0   0  10   55.89    2.10 
   0   0  10   59.11    1.67 
   0   0  10   57.10    1.99 
   0   0  10   56.18    2.02 
   0   0  10   55.17    2.11 
  -1   0 -10   14.65    1.02 
  -1   0 -10   14.17    1.28 
  -1   0 -10   16.41    0.96 
   1   0  10   16.35    1.21 
   1   0  10   15.36    1.49 
   1   0  10   15.93    1.08 
   1   0  10   16.50    0.99 
  -2   0 -10    0.29    0.81 
  -2   0 -10    0.41    0.56 
   2   0  10    0.89    0.87 
   2   0  10    1.30    0.54 
   2   0  10   -0.02    0.59 
  -3   0 -10   -0.03    0.72 
  -3   0 -10   -0.61    0.74 
   3   0  10    0.55    0.83 
   3   0  10    1.00    0.86 
   3   0  10    0.27    0.56 
  -4   0 -10    3.39    1.00 
  -4   0 -10    4.05    0.88 
   4   0  10    4.44    0.80 
   4   0  10    3.53    1.02 
  -5   0 -10    8.73    1.35 
  -5   0 -10    4.07    1.00 
   5   0  10    5.77    1.14 
   5   0  10    6.53    1.28 
   5   0  10    6.72    1.06 
  12  -1 -10    7.93    1.41 
  12  -1 -10    8.67    1.49 
 -12   1  10    9.33    1.60 
 -12   1  10    8.07    1.43 
  11  -1 -10   -0.75    0.78 
 -11   1  10    0.54    0.74 
 -11   1  10    2.87    1.14 
  10  -1 -10    1.29    0.90 
  10  -1 -10    1.45    0.78 
 -10   1  10    0.68    1.01 
 -10   1  10    3.18    0.79 
 -10   1  10    1.81    0.87 
 -10   1  10   -0.42    0.74 
   9  -1 -10   22.56    1.74 
   9  -1 -10   25.35    1.34 
   9  -1 -10   19.89    1.09 
  -9   1  10   21.20    1.34 
  -9   1  10   22.71    1.77 
  -9   1  10   20.99    1.30 
  -9   1  10   18.38    1.40 
   8  -1 -10   53.56    1.70 
   8  -1 -10   50.51    2.24 
   8  -1 -10   54.12    1.91 
  -8   1  10   48.41    1.96 
  -8   1  10   52.51    1.96 
  -8   1  10   54.03    1.81 
  -8   1  10   54.02    2.05 
   7  -1 -10   67.40    2.05 
   7  -1 -10   66.60    2.38 
  -7   1  10   64.03    2.22 
  -7   1  10   65.78    2.04 
  -7   1  10   65.88    2.01 
  -7   1  10   63.01    2.20 
   6  -1 -10    1.79    0.54 
   6  -1 -10    0.85    0.57 
  -6   1  10    1.63    0.49 
  -6   1  10    1.48    0.67 
  -6   1  10    2.01    0.52 
  -6   1  10    0.37    0.50 
   5  -1 -10    2.25    0.67 
   5  -1 -10    1.38    0.56 
   5  -1 -10    2.52    0.60 
  -5   1  10    2.60    0.65 
  -5   1  10    2.55    0.58 
  -5   1  10    2.34    0.61 
  -5   1  10    3.29    0.79 
   4  -1 -10   29.10    1.41 
   4  -1 -10   30.65    1.43 
   4  -1 -10   27.23    1.48 
  -4   1  10   28.88    1.47 
  -4   1  10   28.20    1.51 
  -4   1  10   31.57    1.21 
  -4   1  10   30.82    1.34 
   3  -1 -10   10.43    1.08 
   3  -1 -10   11.66    1.17 
   3  -1 -10   10.03    0.99 
  -3   1  10    9.15    0.96 
  -3   1  10   11.05    0.88 
  -3   1  10    9.98    1.02 
  -3   1  10   10.55    0.95 
   2  -1 -10   12.50    1.07 
   2  -1 -10   11.46    1.10 
   2  -1 -10   12.63    1.06 
  -2   1  10   11.96    0.98 
  -2   1  10   14.68    1.00 
  -2   1  10   10.97    1.17 
  -2   1  10   11.59    0.88 
   1  -1 -10    1.36    0.47 
   1  -1 -10    1.57    0.51 
   1  -1 -10    0.59    0.52 
  -1   1  10    1.41    0.64 
  -1   1  10    0.97    0.68 
  -1   1  10    0.50    0.67 
  -1   1  10    1.14    0.51 
   0  -1 -10    0.13    0.72 
   0  -1 -10    0.21    0.49 
   0  -1 -10   -0.97    0.53 
   0   1  10    0.34    0.61 
   0   1  10    1.24    0.76 
   0   1  10    0.21    0.70 
   0   1  10   -0.60    0.40 
  -1  -1 -10    0.55    0.59 
  -1  -1 -10    1.21    0.42 
  -1  -1 -10   -0.35    1.06 
  -1  -1 -10    0.35    0.50 
   1   1  10    0.46    0.64 
   1   1  10    0.37    0.50 
  -2  -1 -10    4.78    0.84 
  -2  -1 -10    8.36    1.09 
   2   1  10    6.64    1.11 
   2   1  10    7.70    1.04 
   2   1  10    6.32    1.02 
  -3  -1 -10    2.26    0.84 
  -3  -1 -10    1.94    0.79 
   3   1  10    1.95    0.78 
   3   1  10    2.90    0.83 
  -4  -1 -10    1.50    0.85 
  -4  -1 -10    3.73    0.96 
   4   1  10    1.23    0.94 
   4   1  10    1.33    0.84 
   4   1  10    2.21    0.98 
  -5  -1 -10    2.40    1.11 
  -5  -1 -10    0.64    0.81 
   5   1  10    2.16    0.88 
   5   1  10    1.72    0.80 
   5   1  10    2.09    1.09 
  12  -2 -10   19.89    1.90 
  12  -2 -10   18.30    2.06 
 -12   2  10   19.07    2.12 
 -12   2  10   19.12    1.94 
  11  -2 -10    4.96    1.05 
  11  -2 -10    6.29    1.22 
 -11   2  10    7.74    1.23 
 -11   2  10    7.36    1.43 
  10  -2 -10    2.36    0.75 
  10  -2 -10    1.26    0.89 
 -10   2  10    0.22    0.67 
 -10   2  10    0.54    0.77 
   9  -2 -10   -0.27    0.74 
  -9   2  10   -0.03    0.64 
  -9   2  10   -0.41    0.82 
  -9   2  10    0.95    0.90 
   8  -2 -10   19.79    1.20 
   8  -2 -10   20.60    1.65 
   8  -2 -10   20.38    1.13 
  -8   2  10   19.05    1.41 
  -8   2  10   20.51    1.21 
  -8   2  10   17.99    1.52 
   7  -2 -10   -0.12    0.50 
   7  -2 -10   -0.14    0.45 
   7  -2 -10    0.72    0.78 
  -7   2  10    0.47    0.49 
  -7   2  10    0.94    0.62 
  -7   2  10    0.26    0.66 
   6  -2 -10    0.30    0.70 
   6  -2 -10   -0.55    0.46 
  -6   2  10   -0.17    0.56 
  -6   2  10   -0.17    0.53 
  -6   2  10   -0.19    0.53 
  -6   2  10    0.35    0.56 
  -6   2  10    0.31    0.65 
   5  -2 -10    0.35    0.77 
   5  -2 -10   -0.49    0.41 
   5  -2 -10    1.06    0.78 
  -5   2  10    0.42    0.60 
  -5   2  10    0.15    0.64 
  -5   2  10    0.58    0.50 
  -5   2  10   -0.17    0.50 
   4  -2 -10    6.02    0.87 
   4  -2 -10    7.42    1.12 
   4  -2 -10    6.51    1.12 
  -4   2  10    5.88    0.99 
  -4   2  10    6.03    1.03 
  -4   2  10    6.43    0.74 
  -4   2  10    4.84    0.84 
   3  -2 -10   24.55    1.30 
   3  -2 -10   27.39    1.41 
   3  -2 -10   26.66    1.25 
  -3   2  10   27.14    1.49 
  -3   2  10   27.12    1.35 
  -3   2  10   25.44    1.26 
  -3   2  10   25.18    1.31 
   2  -2 -10   15.66    1.04 
   2  -2 -10   15.95    1.20 
   2  -2 -10   16.03    1.17 
  -2   2  10   13.71    1.20 
  -2   2  10   14.07    1.06 
  -2   2  10   15.51    1.07 
  -2   2  10   15.75    0.89 
  -2   2  10   13.89    1.07 
   1  -2 -10    9.90    0.88 
   1  -2 -10    7.67    0.90 
   1  -2 -10    9.76    0.96 
  -1   2  10    8.57    1.02 
  -1   2  10    8.64    0.88 
  -1   2  10    9.21    0.91 
  -1   2  10    9.20    1.21 
   0  -2 -10    0.24    0.41 
   0  -2 -10   -0.16    0.58 
   0  -2 -10   -0.42    0.47 
   0  -2 -10    0.19    0.52 
   0   2  10   -0.14    0.53 
   0   2  10    0.96    0.83 
   0   2  10    0.13    0.41 
  -1  -2 -10   12.88    1.53 
  -1  -2 -10   15.83    1.47 
  -1  -2 -10   14.55    1.18 
  -1  -2 -10   13.52    0.96 
   1   2  10   13.64    1.07 
   1   2  10   13.54    1.21 
  -2  -2 -10   13.31    1.29 
  -2  -2 -10   10.95    1.35 
   2   2  10   12.00    1.42 
   2   2  10   14.38    1.36 
   2   2  10   13.21    1.19 
  -3  -2 -10   18.27    1.64 
  -3  -2 -10   16.01    1.47 
   3   2  10   16.97    1.44 
   3   2  10   17.91    1.60 
   3   2  10   19.62    1.78 
  -4  -2 -10   12.45    1.67 
  -4  -2 -10    9.42    1.21 
   4   2  10   11.51    1.36 
   4   2  10   12.80    1.41 
   4   2  10    7.82    1.29 
  -5  -2 -10    2.28    0.87 
  -5  -2 -10    3.08    1.34 
   5   2  10    1.06    1.01 
   5   2  10    1.51    0.94 
   5   2  10    0.90    1.10 
  12  -3 -10   23.22    1.82 
  12  -3 -10   23.26    2.00 
 -12   3  10   23.82    2.26 
 -12   3  10   22.22    2.07 
  11  -3 -10    7.53    1.37 
  11  -3 -10   10.19    1.62 
 -11   3  10   11.36    1.62 
 -11   3  10    8.21    1.49 
  10  -3 -10    3.63    1.08 
 -10   3  10    1.57    0.92 
 -10   3  10    2.65    0.84 
   9  -3 -10    0.34    0.71 
  -9   3  10    1.78    0.98 
  -9   3  10    0.63    0.95 
   8  -3 -10   -0.80    0.49 
   8  -3 -10    0.87    0.93 
   8  -3 -10    1.06    0.55 
  -8   3  10    0.18    0.72 
  -8   3  10    0.34    0.67 
  -8   3  10    0.38    0.80 
   7  -3 -10    4.85    1.04 
   7  -3 -10    4.12    0.62 
   7  -3 -10    3.52    0.76 
  -7   3  10    3.81    0.85 
  -7   3  10    5.25    0.88 
  -7   3  10    3.83    0.78 
   6  -3 -10    2.56    0.90 
   6  -3 -10    2.08    0.63 
  -6   3  10    2.98    0.54 
  -6   3  10    1.77    0.53 
  -6   3  10    2.82    0.80 
  -6   3  10    2.24    0.54 
  -6   3  10    3.08    0.82 
   5  -3 -10   45.39    1.90 
   5  -3 -10   47.26    1.80 
  -5   3  10   49.06    1.54 
  -5   3  10   48.42    1.57 
  -5   3  10   47.74    1.90 
  -5   3  10   46.37    1.72 
  -5   3  10   47.62    1.97 
   4  -3 -10    1.82    0.72 
   4  -3 -10    1.29    0.67 
   4  -3 -10    0.59    0.58 
  -4   3  10    2.53    0.50 
  -4   3  10    1.89    0.48 
  -4   3  10    0.85    0.65 
  -4   3  10    2.14    0.55 
  -4   3  10    2.89    0.56 
   3  -3 -10    6.68    1.07 
   3  -3 -10    4.87    0.83 
   3  -3 -10    4.90    0.80 
  -3   3  10    6.46    0.79 
  -3   3  10    5.35    0.83 
  -3   3  10    6.98    1.21 
  -3   3  10    6.26    0.85 
  -3   3  10    5.96    0.89 
   2  -3 -10    7.92    0.94 
   2  -3 -10    9.84    1.04 
   2  -3 -10    8.15    0.98 
   2  -3 -10    9.99    1.02 
  -2   3  10    8.85    0.86 
  -2   3  10   11.24    1.33 
  -2   3  10    8.99    1.12 
  -2   3  10    8.13    0.96 
   1  -3 -10   10.07    1.03 
   1  -3 -10   11.23    0.96 
   1  -3 -10    9.62    1.03 
   1  -3 -10   10.23    1.08 
  -1   3  10   11.74    0.86 
  -1   3  10   10.32    1.16 
  -1   3  10    9.77    1.01 
   0  -3 -10    6.90    1.04 
   0  -3 -10    7.32    1.00 
   0  -3 -10    6.81    0.93 
   0  -3 -10    6.43    1.05 
   0   3  10    5.24    0.91 
   0   3  10    6.78    1.02 
   0   3  10    5.42    0.88 
  -1  -3 -10    0.43    0.80 
  -1  -3 -10   -0.11    0.79 
   1   3  10    0.66    1.08 
   1   3  10    0.30    0.49 
   1   3  10    0.13    0.74 
  -2  -3 -10   12.39    1.29 
  -2  -3 -10   13.12    1.44 
   2   3  10    9.37    1.21 
   2   3  10   12.62    1.26 
   2   3  10   12.55    1.30 
  -3  -3 -10   35.00    2.06 
  -3  -3 -10   35.20    1.91 
   3   3  10   36.18    1.96 
   3   3  10   39.50    1.78 
   3   3  10   35.54    2.34 
  -4  -3 -10   13.87    1.64 
  -4  -3 -10   14.46    1.87 
   4   3  10   14.39    1.70 
   4   3  10   16.25    1.77 
   4   3  10   11.83    1.60 
  12  -4 -10    2.55    0.98 
  12  -4 -10    2.33    1.11 
 -12   4  10    5.72    1.51 
  11  -4 -10    2.01    1.05 
  11  -4 -10    1.17    0.97 
 -11   4  10    0.20    1.05 
 -11   4  10    1.72    0.87 
  10  -4 -10   16.59    1.51 
 -10   4  10   16.89    1.45 
 -10   4  10   13.30    1.52 
   9  -4 -10    2.86    0.91 
   9  -4 -10    3.33    0.94 
  -9   4  10    2.71    0.98 
  -9   4  10    2.98    1.08 
   8  -4 -10    0.77    0.77 
   8  -4 -10    1.02    0.46 
   8  -4 -10   -0.05    0.73 
  -8   4  10    1.12    0.88 
  -8   4  10    0.22    0.82 
   7  -4 -10   16.73    1.57 
   7  -4 -10   16.51    1.10 
  -7   4  10   13.57    2.01 
  -7   4  10   16.20    1.49 
  -7   4  10   13.09    1.65 
   6  -4 -10   40.69    1.55 
   6  -4 -10   36.08    2.77 
  -6   4  10   39.35    1.87 
  -6   4  10   39.65    1.44 
  -6   4  10   38.51    1.69 
  -6   4  10   37.25    1.95 
   5  -4 -10   65.04    2.20 
   5  -4 -10   65.54    2.30 
  -5   4  10   67.28    2.25 
  -5   4  10   72.11    1.92 
  -5   4  10   69.40    2.50 
  -5   4  10   63.10    2.37 
  -5   4  10   69.00    2.03 
   4  -4 -10    2.06    0.71 
   4  -4 -10    1.79    0.76 
  -4   4  10    2.65    0.95 
  -4   4  10    2.39    0.65 
  -4   4  10    1.69    0.64 
  -4   4  10    2.00    0.61 
   3  -4 -10    0.29    0.59 
   3  -4 -10    0.31    0.42 
   3  -4 -10    0.03    0.46 
   3  -4 -10    0.04    0.75 
  -3   4  10   -0.70    0.57 
  -3   4  10   -0.31    0.51 
  -3   4  10   -0.75    0.66 
  -3   4  10   -0.78    0.69 
   2  -4 -10    1.37    0.57 
   2  -4 -10    1.27    0.71 
   2  -4 -10    1.45    0.59 
   2  -4 -10    1.30    0.49 
  -2   4  10    0.94    1.12 
  -2   4  10    0.48    0.64 
  -2   4  10    1.69    0.61 
   1  -4 -10  110.98    2.87 
   1  -4 -10  102.77    2.91 
   1  -4 -10  108.36    3.19 
   1  -4 -10  108.79    2.89 
  -1   4  10  108.59    2.84 
  -1   4  10  107.52    2.93 
  -1   4  10  110.22    3.44 
   0  -4 -10   33.77    1.45 
   0  -4 -10   32.48    1.46 
   0  -4 -10   31.38    1.58 
   0   4  10   28.53    1.66 
   0   4  10   31.38    1.44 
   0   4  10   31.44    1.55 
  -1  -4 -10   15.87    1.26 
  -1  -4 -10   19.35    1.56 
   1   4  10   19.73    1.24 
   1   4  10   18.04    1.64 
   1   4  10   19.21    1.30 
  -2  -4 -10    9.66    1.44 
  -2  -4 -10   10.48    1.23 
   2   4  10   14.90    1.90 
   2   4  10   13.25    1.13 
   2   4  10   13.49    1.48 
  -3  -4 -10   11.57    1.31 
  -3  -4 -10   10.21    1.45 
   3   4  10    9.02    1.29 
   3   4  10   13.60    1.48 
   3   4  10    8.96    1.27 
  -4  -4 -10   13.09    1.62 
  -4  -4 -10   11.17    1.65 
   4   4  10   13.96    1.70 
   4   4  10   13.34    1.50 
   4   4  10   15.80    1.99 
  11  -5 -10    2.36    1.12 
  11  -5 -10    2.66    1.01 
 -11   5  10    2.42    1.00 
 -11   5  10    2.70    1.02 
  10  -5 -10    7.73    1.21 
  10  -5 -10    8.14    1.27 
 -10   5  10    8.73    1.38 
 -10   5  10    8.93    1.42 
   9  -5 -10   18.06    1.70 
   9  -5 -10   15.77    1.56 
  -9   5  10   14.02    1.37 
  -9   5  10   15.38    1.48 
   8  -5 -10   30.36    1.81 
   8  -5 -10   32.84    1.81 
   8  -5 -10   29.06    1.36 
  -8   5  10   31.80    2.10 
  -8   5  10   32.98    1.81 
   7  -5 -10   -0.51    0.50 
   7  -5 -10    0.14    0.69 
  -7   5  10   -0.48    0.54 
  -7   5  10    0.25    0.67 
   6  -5 -10    4.48    0.93 
   6  -5 -10    7.72    0.94 
  -6   5  10    7.79    1.20 
  -6   5  10    5.64    0.91 
  -6   5  10    6.50    0.95 
   5  -5 -10   24.39    1.82 
   5  -5 -10   27.08    1.44 
  -5   5  10   26.29    1.78 
  -5   5  10   28.49    1.37 
  -5   5  10   28.04    1.44 
   4  -5 -10   35.06    1.67 
   4  -5 -10   34.08    1.71 
   4  -5 -10   34.13    1.30 
  -4   5  10   34.55    1.51 
  -4   5  10   37.86    1.57 
  -4   5  10   35.07    1.94 
   3  -5 -10   11.28    0.83 
   3  -5 -10   10.48    1.31 
  -3   5  10   10.70    1.06 
  -3   5  10   11.80    0.98 
  -3   5  10    9.52    1.30 
   2  -5 -10    8.45    1.13 
   2  -5 -10    7.73    0.94 
   2  -5 -10    7.06    1.15 
  -2   5  10    8.74    1.08 
  -2   5  10   10.15    0.83 
  -2   5  10    5.88    0.93 
   1  -5 -10   55.99    2.11 
   1  -5 -10   62.94    2.44 
   1  -5 -10   59.03    2.09 
   1  -5 -10   61.32    2.01 
  -1   5  10   63.55    2.63 
  -1   5  10   64.02    1.96 
  -1   5  10   62.36    2.20 
   0  -5 -10   23.77    1.38 
   0  -5 -10   20.98    1.57 
   0  -5 -10   24.16    1.53 
   0  -5 -10   21.26    1.52 
   0   5  10   23.35    1.30 
   0   5  10   25.53    1.93 
   0   5  10   23.08    1.39 
  -1  -5 -10    4.37    1.04 
  -1  -5 -10    3.90    0.94 
   1   5  10    1.96    1.00 
   1   5  10    4.41    0.85 
   1   5  10    1.89    1.18 
  -2  -5 -10    0.39    0.61 
  -2  -5 -10   -1.22    0.65 
   2   5  10    0.84    0.74 
   2   5  10   -0.66    0.79 
   2   5  10    4.02    1.32 
  -3  -5 -10   -0.56    0.93 
  -3  -5 -10    0.70    0.99 
   3   5  10    1.02    0.80 
   3   5  10    1.17    1.07 
   3   5  10    0.09    1.06 
  11  -6 -10   -1.56    1.07 
  11  -6 -10   -0.11    1.03 
 -11   6  10    1.48    0.95 
 -11   6  10   -0.01    0.96 
  10  -6 -10    0.17    0.89 
  10  -6 -10    1.69    0.93 
 -10   6  10    0.05    1.23 
 -10   6  10   -0.38    1.00 
   9  -6 -10   22.11    1.53 
   9  -6 -10   18.56    1.69 
  -9   6  10   18.80    1.77 
  -9   6  10   19.64    1.49 
   8  -6 -10   18.30    1.54 
   8  -6 -10   20.45    1.19 
  -8   6  10   21.17    1.84 
  -8   6  10   22.66    1.59 
   7  -6 -10    3.27    0.59 
   7  -6 -10    2.73    0.86 
  -7   6  10    3.31    0.85 
  -7   6  10    2.79    0.96 
   6  -6 -10   -0.58    0.69 
   6  -6 -10   -0.91    0.67 
  -6   6  10    0.35    0.60 
  -6   6  10   -0.54    0.54 
  -6   6  10   -0.87    0.64 
   5  -6 -10   30.06    1.89 
   5  -6 -10   28.70    1.52 
  -5   6  10   30.41    1.44 
  -5   6  10   29.30    1.60 
  -5   6  10   28.65    1.88 
   4  -6 -10   35.30    1.72 
   4  -6 -10   30.85    1.59 
  -4   6  10   35.39    1.55 
  -4   6  10   35.43    2.04 
  -4   6  10   34.78    1.66 
   3  -6 -10   13.15    1.33 
  -3   6  10   10.59    1.02 
  -3   6  10   12.91    1.02 
  -3   6  10   11.93    1.44 
   2  -6 -10    1.21    0.79 
   2  -6 -10    0.88    0.56 
   2  -6 -10    0.13    0.84 
  -2   6  10    2.63    0.68 
  -2   6  10    0.74    0.68 
   1  -6 -10    2.46    0.72 
   1  -6 -10    2.01    0.89 
   1  -6 -10    1.30    0.74 
  -1   6  10    2.53    0.91 
  -1   6  10    2.63    1.07 
  -1   6  10    2.16    0.68 
   0  -6 -10   10.94    1.37 
   0  -6 -10   12.51    1.27 
   0  -6 -10   10.63    1.34 
   0   6  10   12.81    1.31 
   0   6  10   12.91    1.68 
   0   6  10   14.36    1.13 
  -1  -6 -10    6.18    1.13 
  -1  -6 -10   11.44    1.49 
   1   6  10    9.14    1.18 
   1   6  10    8.04    1.13 
  -2  -6 -10    6.67    1.15 
  -2  -6 -10    7.75    1.14 
   2   6  10    8.32    1.44 
   2   6  10   13.29    2.13 
  -3  -6 -10    1.34    0.91 
  -3  -6 -10    2.14    1.03 
   3   6  10    1.15    1.18 
   3   6  10    0.60    1.18 
  10  -7 -10   -0.05    0.92 
  10  -7 -10    0.00    0.91 
 -10   7  10    0.42    0.82 
 -10   7  10    1.32    1.23 
   9  -7 -10    5.63    0.97 
   9  -7 -10    4.80    1.01 
  -9   7  10    7.74    1.11 
  -9   7  10    6.07    1.17 
   8  -7 -10    6.25    1.03 
   8  -7 -10    4.89    0.97 
  -8   7  10    7.87    1.34 
  -8   7  10    7.73    1.22 
  -8   7  10    6.63    1.23 
   7  -7 -10    1.02    0.65 
  -7   7  10   -0.23    1.00 
  -7   7  10    0.47    0.72 
   6  -7 -10    1.42    0.78 
   6  -7 -10    2.73    1.08 
  -6   7  10    1.67    0.81 
  -6   7  10    2.04    1.03 
  -6   7  10    2.79    0.81 
   5  -7 -10    4.16    0.90 
   5  -7 -10    5.37    1.04 
  -5   7  10    4.65    1.12 
  -5   7  10    4.01    0.79 
  -5   7  10    3.84    0.85 
   4  -7 -10   10.53    1.41 
   4  -7 -10   12.04    1.16 
  -4   7  10   10.53    1.13 
  -4   7  10   13.25    1.53 
  -4   7  10   10.86    1.39 
   3  -7 -10   15.76    1.22 
   3  -7 -10   12.89    1.22 
  -3   7  10   10.89    1.62 
  -3   7  10   16.91    1.25 
  -3   7  10   13.23    1.23 
   2  -7 -10    4.08    1.02 
   2  -7 -10    5.41    0.92 
  -2   7  10    5.10    0.82 
   1  -7 -10    0.92    0.88 
   1  -7 -10    1.10    0.88 
   1  -7 -10    0.62    0.79 
  -1   7  10    2.39    0.75 
  -1   7  10    3.11    1.17 
   0  -7 -10    4.61    1.02 
   0  -7 -10    6.26    1.00 
   0   7  10    5.09    1.24 
   0   7  10    4.57    1.24 
  -1  -7 -10   10.79    1.62 
  -1  -7 -10   10.45    1.38 
   1   7  10   10.61    1.74 
   1   7  10    8.11    1.23 
  -2  -7 -10   11.96    1.64 
  -2  -7 -10    9.46    1.58 
   2   7  10   12.91    2.26 
   2   7  10    9.38    1.42 
  10  -8 -10   -1.46    1.04 
  10  -8 -10   -1.74    1.18 
 -10   8  10   -0.51    1.15 
   9  -8 -10    1.60    0.87 
  -9   8  10    3.24    1.21 
  -9   8  10    4.22    1.41 
   8  -8 -10    6.98    1.20 
  -8   8  10   11.75    1.60 
  -8   8  10    9.86    1.57 
   7  -8 -10    8.99    1.34 
   7  -8 -10   10.58    1.21 
  -7   8  10   13.95    1.70 
  -7   8  10   13.57    1.24 
  -7   8  10   11.53    1.48 
   6  -8 -10    9.73    1.64 
  -6   8  10   10.33    1.68 
  -6   8  10    9.64    1.23 
  -6   8  10   10.58    1.27 
   5  -8 -10    0.14    0.78 
   5  -8 -10   -0.22    0.68 
  -5   8  10    1.12    0.91 
  -5   8  10    1.30    0.75 
  -5   8  10    0.44    0.76 
   4  -8 -10    6.13    1.14 
   4  -8 -10    7.65    1.28 
  -4   8  10    4.83    1.14 
  -4   8  10    4.91    1.05 
   3  -8 -10    0.50    0.72 
   3  -8 -10    0.30    0.88 
  -3   8  10    1.34    0.85 
   2  -8 -10    0.39    0.81 
   2  -8 -10    0.37    0.87 
  -2   8  10    0.88    0.98 
  -2   8  10   -0.25    1.03 
   1  -8 -10    8.81    1.47 
   1  -8 -10    6.95    1.20 
  -1   8  10    9.69    1.21 
   0  -8 -10    0.58    0.96 
   0  -8 -10    0.32    0.88 
   0  -8 -10    1.51    0.85 
   0   8  10    0.52    1.12 
   0   8  10    1.78    1.13 
  -1  -8 -10    0.15    0.94 
  -1  -8 -10    0.26    0.88 
   1   8  10   -1.28    1.01 
   1   8  10   -0.18    1.23 
  -9   9  10    1.34    0.95 
   8  -9 -10    7.24    1.29 
  -8   9  10    7.03    1.42 
  -8   9  10   10.14    1.65 
  -8   9  10    9.93    1.39 
   7  -9 -10   10.03    1.50 
   7  -9 -10   11.08    1.03 
  -7   9  10    8.03    1.37 
   6  -9 -10    6.62    1.31 
   6  -9 -10    8.71    1.25 
  -6   9  10    3.77    1.11 
  -6   9  10    5.79    1.11 
   5  -9 -10    5.41    0.95 
   5  -9 -10    4.60    1.05 
  -5   9  10    3.22    1.04 
  -5   9  10    3.81    1.16 
   4  -9 -10   -0.30    0.83 
   4  -9 -10   -0.62    0.77 
  -4   9  10    1.45    0.73 
   3  -9 -10   -0.25    1.02 
   3  -9 -10    0.83    0.80 
  -3   9  10    0.26    0.97 
   2  -9 -10    9.25    1.47 
   2  -9 -10   10.48    1.60 
  -2   9  10    7.46    1.27 
  -2   9  10   13.05    2.11 
   1  -9 -10   22.48    1.91 
  -1   9  10   24.93    1.51 
  -1   9  10   25.00    2.35 
   0  -9 -10    3.65    1.63 
   0   9  10    1.67    1.12 
   7 -10 -10    1.17    1.11 
  -7  10  10    3.31    0.97 
  -7  10  10    4.71    1.60 
   6 -10 -10    5.47    1.16 
   6 -10 -10    6.63    1.20 
  -6  10  10    5.89    1.10 
   5 -10 -10    9.51    1.19 
  -5  10  10    7.45    1.52 
  -5  10  10    9.28    1.33 
   4 -10 -10    4.19    1.05 
   4 -10 -10    5.24    1.12 
  -4  10  10    6.13    1.23 
  -4  10  10    8.40    1.68 
   3 -10 -10    2.00    1.09 
   3 -10 -10    1.26    1.20 
  -3  10  10    1.39    1.13 
  -3  10  10    3.08    1.46 
   2 -10 -10   16.39    1.84 
  -2  10  10   16.26    1.71 
   3  12 -11    6.96    1.63 
  -3 -12  11    4.37    1.42 
   2  12 -11    9.09    1.52 
  -2 -12  11   11.71    1.61 
  -2 -12  11    8.96    1.38 
  -2 -12  11    9.78    1.46 
   1  12 -11    8.18    1.24 
  -1 -12  11    6.22    1.19 
  -1 -12  11   10.47    1.74 
   0  12 -11    7.12    1.09 
   0 -12  11    8.64    1.40 
   0 -12  11    6.59    1.14 
   0 -12  11    6.54    1.42 
  -6 -11  11   -0.98    0.99 
  -5 -11  11   -0.07    0.93 
  -5 -11  11    2.15    1.05 
  -5 -11  11    2.34    1.02 
  -4 -11  11   14.70    1.83 
  -4 -11  11   10.88    1.22 
  -4 -11  11   12.31    1.58 
   3  11 -11   -0.33    1.10 
  -3 -11  11   -0.92    0.74 
  -3 -11  11   -0.08    0.94 
  -3 -11  11    0.38    0.63 
   2  11 -11    1.14    1.27 
  -2 -11  11   -0.03    0.93 
  -2 -11  11    0.82    0.71 
  -2 -11  11    0.84    0.66 
   1  11 -11    0.95    1.12 
  -1 -11  11    0.72    0.77 
  -1 -11  11    0.12    0.74 
  -1 -11  11    0.91    0.86 
   0  11 -11    1.13    1.13 
   0 -11  11    1.29    0.79 
   0 -11  11    1.81    1.09 
   0 -11  11    1.27    1.01 
  -1  11 -11    3.49    1.34 
   1 -11  11    5.81    1.24 
   1 -11  11    4.47    1.05 
   1 -11  11    5.72    1.16 
  -2  11 -11   -0.65    0.94 
   2 -11  11    0.21    0.84 
   2 -11  11    0.45    1.07 
   2 -11  11    0.33    1.07 
   7  10 -11   -1.71    0.94 
  -7 -10  11   -1.08    0.71 
  -7 -10  11    0.56    1.03 
  -7 -10  11    1.01    1.21 
   6  10 -11    4.31    1.38 
  -6 -10  11    4.88    1.30 
  -6 -10  11    5.17    0.89 
   5  10 -11    0.69    0.88 
  -5 -10  11    0.91    1.07 
  -5 -10  11    0.06    0.69 
  -5 -10  11   -0.31    0.76 
   4  10 -11    6.45    1.24 
  -4 -10  11    8.96    1.46 
  -4 -10  11    8.71    1.15 
  -4 -10  11    5.66    1.07 
  -3 -10  11   -0.18    0.59 
  -3 -10  11    1.40    0.77 
  -3 -10  11    3.30    1.07 
   2  10 -11    2.22    0.97 
  -2 -10  11    3.50    0.73 
  -2 -10  11    2.80    1.02 
  -2 -10  11    2.32    0.79 
   1  10 -11   -0.73    0.91 
  -1 -10  11   -0.12    0.81 
  -1 -10  11   -0.49    0.69 
  -1 -10  11   -1.00    0.70 
   0  10 -11    4.35    1.07 
   0 -10  11    4.75    0.94 
   0 -10  11    4.03    0.89 
   0 -10  11    4.59    1.22 
  -1  10 -11   16.12    1.26 
   1 -10  11   16.53    1.75 
   1 -10  11   16.17    1.51 
   1 -10  11   15.17    1.26 
  -2  10 -11    0.40    1.11 
   2 -10  11    0.65    1.05 
   2 -10  11   -0.01    0.76 
  -3  10 -11    3.03    1.16 
   3 -10  11    2.22    0.87 
   3 -10  11    1.26    1.22 
   3 -10  11    1.78    1.19 
   8   9 -11    2.06    0.85 
  -8  -9  11    2.53    0.96 
  -8  -9  11    2.85    0.73 
  -8  -9  11    3.70    1.27 
   7   9 -11    2.93    1.12 
  -7  -9  11    5.01    1.09 
  -7  -9  11    4.90    0.93 
  -7  -9  11    3.04    1.14 
   6   9 -11    2.28    1.04 
  -6  -9  11    0.09    0.63 
  -6  -9  11   -0.13    0.79 
  -6  -9  11   -0.26    0.89 
   5   9 -11   -1.12    0.77 
  -5  -9  11   -1.09    0.79 
  -5  -9  11    0.92    0.68 
  -5  -9  11   -0.08    0.83 
   4   9 -11    3.48    1.00 
  -4  -9  11    3.79    0.72 
  -4  -9  11    1.69    0.73 
  -4  -9  11    3.30    0.88 
   3   9 -11    9.71    1.67 
  -3  -9  11    8.30    1.11 
  -3  -9  11    7.06    1.16 
   2   9 -11    6.90    1.14 
  -2  -9  11    7.48    1.11 
  -2  -9  11    5.37    0.87 
  -2  -9  11    9.64    1.11 
   1   9 -11    0.48    0.80 
  -1  -9  11   -0.91    0.72 
  -1  -9  11    0.48    0.79 
  -1  -9  11    0.86    0.81 
   0   9 -11    2.46    0.86 
   0  -9  11    1.83    0.91 
   0  -9  11    2.31    1.04 
   0  -9  11    2.23    0.70 
  -1   9 -11    2.43    1.10 
   1  -9  11    2.68    1.04 
   1  -9  11    4.79    0.86 
   1  -9  11    5.18    0.77 
   1  -9  11    4.04    0.92 
  -2   9 -11    4.89    1.14 
   2  -9  11    6.27    1.05 
   2  -9  11    4.54    0.74 
   2  -9  11    4.91    1.10 
  -3   9 -11   36.23    1.97 
   3  -9  11   36.24    1.85 
   3  -9  11   35.88    2.02 
   3  -9  11   36.32    2.23 
   9   8 -11    0.16    0.99 
  -9  -8  11    0.71    0.91 
  -9  -8  11   -0.93    1.06 
   8   8 -11    5.54    1.22 
  -8  -8  11    5.94    0.82 
  -8  -8  11    6.60    1.19 
   7   8 -11   15.74    1.50 
  -7  -8  11   15.31    1.25 
  -7  -8  11   16.05    1.29 
  -6  -8  11   10.83    1.52 
  -6  -8  11   12.70    1.23 
  -6  -8  11   10.78    1.19 
   5   8 -11    2.61    0.99 
  -5  -8  11    2.81    0.91 
  -5  -8  11    1.23    0.86 
  -5  -8  11    1.46    0.62 
   4   8 -11   14.28    1.40 
  -4  -8  11   14.55    1.13 
  -4  -8  11   18.10    1.58 
  -4  -8  11   12.97    1.36 
   3   8 -11   19.61    1.34 
  -3  -8  11   21.92    1.59 
  -3  -8  11   19.60    1.36 
  -3  -8  11   21.71    1.40 
   2   8 -11   26.33    1.67 
  -2  -8  11   25.41    1.77 
  -2  -8  11   25.34    1.64 
  -2  -8  11   26.93    1.53 
   1   8 -11   18.35    1.46 
  -1  -8  11   18.68    1.59 
  -1  -8  11   17.75    1.29 
  -1  -8  11   19.32    1.67 
   0   8 -11   17.43    1.33 
   0  -8  11   16.46    1.39 
   0  -8  11   15.93    1.28 
   0  -8  11   18.25    1.42 
   0  -8  11   18.74    1.44 
  -1   8 -11    1.26    1.45 
   1  -8  11   -0.96    0.84 
   1  -8  11   -0.07    0.76 
   1  -8  11   -1.03    0.76 
  -2   8 -11    6.00    0.95 
  -2   8 -11    3.24    1.04 
   2  -8  11    4.49    1.08 
   2  -8  11    5.69    1.06 
   2  -8  11    4.64    1.18 
  -3   8 -11   12.10    1.51 
   3  -8  11   12.62    1.47 
   3  -8  11   14.94    1.51 
   3  -8  11   15.22    1.27 
  -4   8 -11    0.23    0.98 
   4  -8  11   -0.25    1.11 
   4  -8  11    0.04    0.89 
   4  -8  11   -0.60    1.09 
   9   7 -11    1.02    1.08 
  -9  -7  11    0.89    0.85 
  -9  -7  11    3.26    0.86 
  -9  -7  11    1.96    0.97 
   8   7 -11    0.86    0.76 
  -8  -7  11    1.41    0.68 
  -8  -7  11    2.04    1.08 
  -8  -7  11    0.52    0.71 
   7   7 -11    4.60    0.98 
  -7  -7  11    2.68    0.93 
  -7  -7  11    4.63    1.02 
  -7  -7  11    5.19    0.76 
   6   7 -11   24.61    1.77 
  -6  -7  11   19.43    1.33 
  -6  -7  11   20.69    1.67 
  -6  -7  11   18.50    1.44 
   5   7 -11   15.19    1.56 
  -5  -7  11   17.56    1.31 
  -5  -7  11   18.18    1.45 
  -5  -7  11   15.39    1.35 
   4   7 -11   48.09    2.06 
  -4  -7  11   48.62    2.04 
  -4  -7  11   48.06    2.04 
   3   7 -11   24.80    1.62 
  -3  -7  11   22.53    1.66 
  -3  -7  11   23.35    1.55 
   2   7 -11   11.94    1.66 
  -2  -7  11   13.06    1.26 
  -2  -7  11   12.74    1.82 
  -2  -7  11   15.59    1.43 
   1   7 -11   14.10    1.53 
  -1  -7  11   17.43    1.12 
  -1  -7  11   17.59    1.27 
  -1  -7  11   16.70    1.41 
  -1  -7  11   15.33    1.53 
   0   7 -11   31.69    1.66 
   0  -7  11   29.58    1.40 
   0  -7  11   30.98    1.59 
   0  -7  11   28.19    1.67 
   0  -7  11   27.17    1.54 
  -1   7 -11    0.93    0.71 
  -1   7 -11    2.13    0.82 
   1  -7  11    1.03    0.73 
   1  -7  11    0.68    0.62 
   1  -7  11    0.67    0.55 
   1  -7  11    1.04    0.89 
  -2   7 -11    3.32    0.91 
  -2   7 -11    3.69    0.77 
   2  -7  11    2.62    0.69 
   2  -7  11    2.76    0.78 
   2  -7  11    2.52    0.92 
  -3   7 -11   11.52    1.32 
   3  -7  11   13.12    1.77 
   3  -7  11   10.83    1.57 
   3  -7  11   12.63    1.41 
  -4   7 -11   10.46    1.55 
   4  -7  11    7.13    1.22 
   4  -7  11    6.03    1.05 
  10   6 -11   12.81    1.79 
 -10  -6  11   12.41    1.85 
 -10  -6  11    9.15    1.42 
 -10  -6  11   13.60    1.69 
   9   6 -11   18.30    1.59 
  -9  -6  11   20.55    1.69 
  -9  -6  11   19.21    1.59 
  -9  -6  11   15.62    1.41 
   8   6 -11   21.73    1.66 
  -8  -6  11   22.17    1.61 
  -8  -6  11   22.44    1.70 
  -8  -6  11   25.67    2.03 
   7   6 -11    7.62    1.13 
  -7  -6  11    8.63    1.34 
  -7  -6  11    9.01    1.39 
  -7  -6  11    7.94    1.22 
   6   6 -11    3.86    1.02 
  -6  -6  11    3.46    0.88 
  -6  -6  11    1.55    0.82 
  -6  -6  11    3.51    0.89 
   5   6 -11   13.04    1.41 
  -5  -6  11   16.02    1.50 
  -5  -6  11   16.05    1.35 
   4   6 -11   27.79    1.63 
  -4  -6  11   26.50    1.50 
  -4  -6  11   26.71    1.53 
  -4  -6  11   26.38    1.51 
   3   6 -11   14.67    1.56 
  -3  -6  11   15.88    1.33 
  -3  -6  11   15.42    1.38 
  -3  -6  11   14.11    1.09 
   2   6 -11    2.80    0.86 
  -2  -6  11    2.24    0.67 
  -2  -6  11    2.88    0.75 
  -2  -6  11    2.20    0.89 
   1   6 -11    5.20    0.91 
  -1  -6  11    6.87    0.81 
  -1  -6  11    6.13    0.99 
  -1  -6  11    6.18    0.85 
   0   6 -11   32.93    2.10 
   0   6 -11   32.62    1.69 
   0   6 -11   36.48    1.61 
   0  -6  11   35.35    1.53 
   0  -6  11   36.84    1.45 
   0  -6  11   35.41    2.00 
   0  -6  11   34.47    1.72 
  -1   6 -11    0.24    0.70 
  -1   6 -11    1.13    0.82 
  -1   6 -11    1.31    0.75 
   1  -6  11    1.74    0.72 
   1  -6  11    2.14    0.80 
   1  -6  11    1.12    0.76 
   1  -6  11    1.41    0.57 
  -2   6 -11    3.81    0.96 
   2  -6  11    4.09    0.73 
   2  -6  11    3.76    0.85 
   2  -6  11    4.83    1.12 
  -3   6 -11    5.26    1.04 
   3  -6  11    7.99    1.29 
   3  -6  11    6.46    1.14 
   3  -6  11    5.56    1.21 
  -4   6 -11   17.04    1.47 
  -4   6 -11   16.66    1.77 
   4  -6  11   17.81    1.60 
  -5   6 -11   10.50    1.67 
  -5   6 -11    9.45    1.68 
   5  -6  11    7.17    1.36 
   5  -6  11    4.79    1.07 
  10   5 -11   11.35    1.59 
 -10  -5  11   17.21    1.72 
 -10  -5  11   16.78    1.93 
 -10  -5  11   16.15    1.81 
   9   5 -11   19.16    1.65 
  -9  -5  11   19.19    1.67 
  -9  -5  11   21.82    1.47 
  -9  -5  11   17.34    1.24 
   8   5 -11    2.92    0.88 
  -8  -5  11    0.91    0.83 
  -8  -5  11    2.31    0.81 
  -8  -5  11    2.60    0.97 
   7   5 -11    2.63    0.90 
  -7  -5  11    2.03    0.90 
  -7  -5  11    3.46    1.04 
  -7  -5  11    2.26    0.88 
   6   5 -11    1.33    0.70 
  -6  -5  11    0.09    0.72 
  -6  -5  11    1.84    0.87 
   5   5 -11    5.51    1.01 
  -5  -5  11    6.38    1.06 
  -5  -5  11    6.41    1.71 
  -5  -5  11    5.94    0.89 
   4   5 -11   29.85    1.62 
  -4  -5  11   27.51    1.56 
  -4  -5  11   27.70    1.47 
  -4  -5  11   27.66    1.08 
  -4  -5  11   27.06    1.84 
   3   5 -11    2.30    0.81 
  -3  -5  11    3.06    0.84 
  -3  -5  11    2.67    0.35 
  -3  -5  11    2.68    0.71 
  -3  -5  11    2.38    0.53 
  -3  -5  11    2.00    0.66 
   2   5 -11   -0.14    0.60 
  -2  -5  11   -0.16    0.36 
  -2  -5  11    0.13    0.42 
  -2  -5  11    0.55    0.62 
  -2  -5  11    0.70    0.76 
   1   5 -11   24.77    1.45 
   1   5 -11   25.70    1.57 
   1   5 -11   21.93    1.60 
  -1  -5  11   24.29    1.83 
  -1  -5  11   24.33    1.11 
  -1  -5  11   26.60    1.29 
   0   5 -11   19.63    1.35 
   0   5 -11   16.29    1.25 
   0   5 -11   18.94    1.27 
   0  -5  11   20.19    1.29 
   0  -5  11   18.39    1.19 
   0  -5  11   15.16    1.25 
   0  -5  11   19.71    1.17 
  -1   5 -11    1.21    0.57 
  -1   5 -11    1.53    0.77 
  -1   5 -11    1.30    0.70 
   1  -5  11    2.05    0.72 
   1  -5  11    2.69    0.98 
   1  -5  11    2.05    0.89 
   1  -5  11    2.07    0.73 
  -2   5 -11    2.85    0.93 
   2  -5  11    3.34    0.88 
   2  -5  11    3.10    0.87 
   2  -5  11    3.25    0.80 
  -3   5 -11    0.75    0.93 
   3  -5  11    1.65    0.90 
   3  -5  11    1.60    0.94 
   3  -5  11    2.57    0.87 
  -4   5 -11    0.68    0.90 
  -4   5 -11    1.74    0.83 
   4  -5  11    3.42    1.17 
   4  -5  11    0.98    0.88 
  -5   5 -11    4.27    1.18 
  -5   5 -11    4.76    1.10 
   5  -5  11    3.20    0.99 
  11   4 -11   -0.06    0.90 
 -11  -4  11    0.87    1.15 
 -11  -4  11    0.47    1.12 
  10   4 -11   11.65    1.69 
 -10  -4  11   12.34    1.61 
 -10  -4  11   10.89    1.29 
   9   4 -11    1.30    0.90 
  -9  -4  11    3.32    0.99 
  -9  -4  11    3.89    1.07 
   8   4 -11    9.03    1.50 
  -8  -4  11    7.78    1.06 
  -8  -4  11    7.67    1.19 
  -8  -4  11    7.97    1.26 
   7   4 -11    4.30    0.92 
  -7  -4  11    6.85    1.14 
  -7  -4  11    5.54    0.93 
  -7  -4  11    5.08    0.92 
   6   4 -11    0.40    0.73 
  -6  -4  11    0.05    0.76 
  -6  -4  11   -0.64    0.67 
   5   4 -11   12.84    1.37 
  -5  -4  11   10.09    1.16 
  -5  -4  11   12.49    0.90 
  -5  -4  11   13.59    1.16 
  -5  -4  11   12.07    1.16 
   4   4 -11   21.78    1.39 
  -4  -4  11   19.10    1.24 
  -4  -4  11   21.59    1.10 
  -4  -4  11   20.53    1.28 
  -4  -4  11   20.78    0.78 
   3   4 -11   23.15    1.44 
   3   4 -11   21.93    1.42 
  -3  -4  11   22.79    0.95 
  -3  -4  11   22.01    1.40 
  -3  -4  11   21.57    1.38 
  -3  -4  11   21.95    1.16 
   2   4 -11    8.62    1.26 
   2   4 -11    5.84    0.90 
   2   4 -11    9.92    1.13 
  -2  -4  11    6.58    0.95 
  -2  -4  11    8.13    0.96 
  -2  -4  11    8.84    0.84 
  -2  -4  11    7.33    0.95 
   1   4 -11    4.62    0.67 
   1   4 -11    4.82    0.82 
   1   4 -11    3.82    0.87 
  -1  -4  11    4.41    0.62 
  -1  -4  11    3.89    0.83 
  -1  -4  11    4.43    0.74 
  -1  -4  11    5.08    0.83 
   0   4 -11    6.91    1.13 
   0   4 -11    7.02    0.90 
   0   4 -11    5.16    1.08 
   0  -4  11    7.78    0.91 
   0  -4  11    7.99    1.02 
   0  -4  11    6.60    0.95 
   0  -4  11    6.49    1.06 
  -1   4 -11   12.73    1.20 
  -1   4 -11   13.78    1.32 
  -1   4 -11   15.11    1.11 
   1  -4  11   14.29    1.32 
   1  -4  11   14.26    1.38 
   1  -4  11   13.76    1.39 
  -2   4 -11   15.02    1.50 
   2  -4  11   13.44    1.26 
   2  -4  11   14.14    1.28 
   2  -4  11   16.79    1.72 
  -3   4 -11    3.17    0.99 
   3  -4  11    3.16    0.82 
   3  -4  11    3.72    0.95 
  -4   4 -11    4.06    0.99 
  -4   4 -11    6.27    1.29 
   4  -4  11    6.06    1.29 
   4  -4  11    5.16    1.19 
  -5   4 -11    5.03    1.22 
   5  -4  11    4.39    1.15 
  11   3 -11    6.46    1.42 
 -11  -3  11    4.25    1.13 
 -11  -3  11    6.34    1.29 
  10   3 -11    3.38    0.95 
  10   3 -11    3.61    1.04 
 -10  -3  11    4.25    1.18 
 -10  -3  11    4.41    0.95 
   9   3 -11   -0.33    0.86 
   9   3 -11    1.26    0.57 
  -9  -3  11   -0.04    0.62 
  -9  -3  11    0.35    0.96 
   8   3 -11   18.20    1.41 
   8   3 -11   16.96    1.45 
  -8  -3  11   17.80    1.43 
  -8  -3  11   17.30    1.36 
   7   3 -11   14.84    1.35 
   7   3 -11   15.23    1.33 
  -7  -3  11   12.42    1.18 
  -7  -3  11   12.80    1.24 
   6   3 -11    0.52    0.73 
  -6  -3  11    1.06    0.41 
  -6  -3  11    0.10    0.72 
   5   3 -11    1.77    0.70 
   5   3 -11    1.50    0.69 
  -5  -3  11    1.49    0.70 
  -5  -3  11    0.42    0.64 
  -5  -3  11    1.59    0.46 
  -5  -3  11    1.81    0.35 
   4   3 -11    4.36    0.78 
   4   3 -11    5.33    0.79 
  -4  -3  11    4.34    0.64 
  -4  -3  11    3.86    0.86 
  -4  -3  11    5.23    0.83 
  -4  -3  11    4.20    0.72 
   3   3 -11   17.76    1.30 
   3   3 -11   16.50    1.47 
   3   3 -11   18.08    1.16 
  -3  -3  11   17.88    1.20 
  -3  -3  11   17.09    1.15 
  -3  -3  11   18.88    0.97 
  -3  -3  11   16.33    1.27 
   2   3 -11   25.43    1.47 
   2   3 -11   26.27    1.45 
   2   3 -11   26.08    1.42 
  -2  -3  11   26.11    1.13 
  -2  -3  11   25.78    1.40 
  -2  -3  11   28.12    1.57 
  -2  -3  11   24.42    1.30 
   1   3 -11   16.14    1.39 
   1   3 -11   17.20    1.14 
   1   3 -11   18.05    1.25 
  -1  -3  11   16.17    1.18 
  -1  -3  11   17.07    1.01 
  -1  -3  11   18.71    1.18 
  -1  -3  11   16.07    1.29 
   0   3 -11   -0.25    0.59 
   0   3 -11   -0.03    0.55 
   0  -3  11    1.19    0.79 
   0  -3  11    1.34    1.32 
   0  -3  11   -0.25    0.58 
   0  -3  11   -0.69    0.48 
  -1   3 -11   33.43    1.81 
  -1   3 -11   34.27    1.40 
  -1   3 -11   32.72    1.44 
   1  -3  11   31.64    1.61 
   1  -3  11   31.49    1.76 
   1  -3  11   30.97    1.76 
  -2   3 -11   10.85    1.49 
   2  -3  11   12.01    1.31 
   2  -3  11    9.71    1.17 
   2  -3  11   12.38    1.52 
  -3   3 -11    4.09    1.02 
  -3   3 -11    5.06    1.17 
   3  -3  11    2.32    0.82 
   3  -3  11    3.87    0.87 
  -4   3 -11    0.96    0.93 
  -4   3 -11    1.53    0.86 
   4  -3  11    0.47    0.73 
   4  -3  11    3.57    1.18 
  -5   3 -11   -1.17    0.94 
  -5   3 -11   -0.71    0.82 
   5  -3  11    1.33    1.14 
  11   2 -11   23.56    1.80 
 -11  -2  11   22.55    1.66 
 -11  -2  11   19.00    1.62 
  10   2 -11    0.18    1.01 
 -10  -2  11    0.18    0.88 
 -10  -2  11    1.06    0.97 
   9   2 -11   13.38    1.36 
   9   2 -11   14.95    1.18 
  -9  -2  11   14.66    1.33 
  -9  -2  11   16.38    1.58 
   8   2 -11    8.29    0.98 
   8   2 -11    6.93    1.20 
  -8  -2  11    4.79    0.69 
  -8  -2  11    6.81    1.17 
  -8  -2  11    5.53    1.11 
   7   2 -11   15.55    1.49 
   7   2 -11   11.33    0.99 
  -7  -2  11   10.39    1.32 
  -7  -2  11   13.26    1.21 
  -7  -2  11   11.43    1.00 
   6   2 -11   14.23    1.08 
   6   2 -11   14.43    1.30 
  -6  -2  11   14.55    1.03 
  -6  -2  11   13.11    1.27 
  -6  -2  11   14.21    1.05 
  -6  -2  11   15.73    0.77 
   5   2 -11   11.74    0.99 
   5   2 -11   11.09    1.25 
  -5  -2  11   12.47    0.77 
  -5  -2  11   10.01    0.95 
  -5  -2  11   11.39    1.13 
  -5  -2  11   11.24    0.75 
   4   2 -11    2.75    1.26 
   4   2 -11    3.81    0.81 
   4   2 -11    3.10    0.73 
  -4  -2  11    4.33    0.63 
  -4  -2  11    3.87    0.61 
  -4  -2  11    3.98    0.87 
  -4  -2  11    3.75    0.69 
   3   2 -11   50.60    1.87 
   3   2 -11   50.97    2.02 
   3   2 -11   50.08    1.90 
  -3  -2  11   50.06    1.61 
  -3  -2  11   51.90    1.95 
  -3  -2  11   50.17    1.77 
  -3  -2  11   52.31    1.86 
   2   2 -11   25.13    1.43 
   2   2 -11   24.66    1.47 
   2   2 -11   26.60    1.40 
  -2  -2  11   25.60    1.48 
  -2  -2  11   27.28    1.52 
  -2  -2  11   25.09    1.22 
  -2  -2  11   26.32    1.49 
   1   2 -11   20.77    1.30 
   1   2 -11   19.06    1.21 
   1   2 -11   16.73    1.24 
  -1  -2  11   19.88    1.38 
  -1  -2  11   20.92    1.29 
  -1  -2  11   21.14    1.17 
  -1  -2  11   19.12    1.37 
   0   2 -11    8.87    1.04 
   0   2 -11    7.83    1.11 
   0  -2  11    9.50    0.87 
   0  -2  11    8.64    1.65 
   0  -2  11    9.47    1.70 
   0  -2  11    9.32    1.06 
  -1   2 -11   25.96    1.29 
  -1   2 -11   25.19    1.70 
  -1   2 -11   25.20    1.28 
   1  -2  11   23.84    1.62 
   1  -2  11   23.13    1.52 
   1  -2  11   23.69    1.43 
  -2   2 -11   13.22    1.37 
   2  -2  11   14.06    1.30 
   2  -2  11   13.55    1.23 
  -3   2 -11   18.64    1.68 
  -3   2 -11   20.16    1.77 
   3  -2  11   16.69    1.51 
   3  -2  11   18.35    1.60 
  -4   2 -11   45.88    2.22 
  -4   2 -11   44.67    2.31 
   4  -2  11   46.22    2.21 
   4  -2  11   46.38    2.53 
   4  -2  11   45.36    2.24 
  -5   2 -11   -1.93    0.92 
  -5   2 -11   -1.81    0.92 
   5  -2  11    0.42    1.04 
   5  -2  11    1.15    0.82 
  11   1 -11   11.79    1.53 
 -11  -1  11    9.12    1.33 
 -11  -1  11   10.52    1.74 
  10   1 -11    8.28    1.38 
 -10  -1  11    9.35    1.24 
 -10  -1  11    6.35    1.03 
 -10  -1  11    7.10    1.33 
   9   1 -11   13.48    1.39 
   9   1 -11   12.98    1.13 
  -9  -1  11   14.16    1.66 
  -9  -1  11   12.33    1.41 
  -9  -1  11   16.28    1.13 
   8   1 -11   -0.22    0.49 
   8   1 -11   -0.28    0.85 
  -8  -1  11    0.28    0.51 
  -8  -1  11   -0.50    0.68 
  -8  -1  11    0.01    0.79 
   7   1 -11    9.76    1.29 
   7   1 -11   13.01    1.08 
  -7  -1  11   10.02    1.18 
  -7  -1  11   10.65    0.81 
  -7  -1  11   11.23    0.98 
  -7  -1  11    8.71    1.18 
   6   1 -11   26.78    1.43 
   6   1 -11   26.84    1.61 
  -6  -1  11   27.79    1.41 
  -6  -1  11   29.39    1.58 
  -6  -1  11   29.06    1.43 
  -6  -1  11   27.55    1.14 
   5   1 -11   22.60    1.27 
   5   1 -11   20.38    1.33 
  -5  -1  11   22.29    1.09 
  -5  -1  11   20.19    1.25 
  -5  -1  11   22.62    1.20 
  -5  -1  11   20.83    1.23 
   4   1 -11    3.69    0.78 
   4   1 -11    4.02    0.76 
   4   1 -11    4.15    0.86 
  -4  -1  11    3.58    0.81 
  -4  -1  11    3.23    0.53 
  -4  -1  11    3.84    0.64 
  -4  -1  11    3.38    0.78 
   3   1 -11   10.95    1.10 
   3   1 -11   10.24    1.10 
   3   1 -11    9.92    1.14 
  -3  -1  11   10.47    0.93 
  -3  -1  11   10.86    1.03 
  -3  -1  11   10.57    0.80 
  -3  -1  11    9.44    0.95 
   2   1 -11   20.97    1.42 
   2   1 -11   19.51    1.23 
   2   1 -11   21.39    1.33 
  -2  -1  11   20.99    1.43 
  -2  -1  11   19.05    1.34 
  -2  -1  11   20.55    1.19 
  -2  -1  11   19.31    1.31 
   1   1 -11   46.92    1.88 
   1   1 -11   49.47    1.80 
   1   1 -11   49.98    1.83 
  -1  -1  11   48.04    1.93 
  -1  -1  11   47.20    1.71 
  -1  -1  11   47.41    1.85 
  -1  -1  11   47.58    1.83 
   0   1 -11   61.07    1.96 
   0   1 -11   54.84    3.20 
   0   1 -11   61.81    1.97 
   0  -1  11   58.68    2.05 
   0  -1  11   61.39    2.11 
   0  -1  11   61.57    2.30 
  -1   1 -11   12.17    1.11 
  -1   1 -11   12.67    1.45 
   1  -1  11   10.14    1.31 
   1  -1  11    9.83    1.16 
   1  -1  11   13.95    1.38 
  -2   1 -11    0.07    0.77 
  -2   1 -11   -0.77    0.76 
   2  -1  11    0.56    0.81 
   2  -1  11   -1.46    0.67 
   2  -1  11   -0.70    0.83 
  -3   1 -11   28.09    1.84 
  -3   1 -11   25.04    1.73 
   3  -1  11   28.85    1.45 
   3  -1  11   24.90    1.75 
   3  -1  11   27.42    1.85 
  -4   1 -11   20.36    1.68 
  -4   1 -11   21.78    1.71 
   4  -1  11   21.65    1.71 
   4  -1  11   24.32    2.03 
   4  -1  11   22.26    1.65 
  -5   1 -11    2.89    1.17 
  -5   1 -11    0.75    1.04 
   5  -1  11    0.02    1.04 
   5  -1  11    1.54    0.75 
   5  -1  11    2.13    1.08 
  12   0 -11   -0.40    0.96 
 -12   0  11   -0.55    1.24 
  11   0 -11    2.50    0.86 
 -11   0  11    4.74    1.31 
 -11   0  11    2.90    1.00 
 -11   0  11    3.49    1.00 
  10   0 -11    5.69    1.26 
 -10   0  11    5.98    1.14 
   9   0 -11    2.98    0.63 
   9   0 -11    3.04    0.96 
  -9   0  11    5.48    1.14 
  -9   0  11    3.74    0.91 
  -9   0  11    4.20    0.87 
   8   0 -11    0.70    0.90 
   8   0 -11   -0.21    0.61 
  -8   0  11   -0.13    0.66 
  -8   0  11    0.98    0.48 
  -8   0  11   -1.57    0.75 
  -8   0  11   -0.65    0.70 
   7   0 -11    0.64    0.56 
   7   0 -11   -0.46    0.72 
  -7   0  11    0.06    0.67 
  -7   0  11   -0.30    0.45 
  -7   0  11    0.02    0.61 
  -7   0  11   -1.47    0.70 
   6   0 -11   26.98    1.30 
   6   0 -11   25.68    1.48 
  -6   0  11   27.71    1.55 
  -6   0  11   27.64    1.43 
  -6   0  11   27.64    1.27 
  -6   0  11   29.44    1.40 
   5   0 -11   45.60    1.88 
   5   0 -11   49.12    1.85 
  -5   0  11   47.43    1.95 
  -5   0  11   44.71    1.60 
  -5   0  11   47.03    1.78 
  -5   0  11   48.46    1.79 
   4   0 -11   43.51    1.84 
   4   0 -11   43.08    1.83 
   4   0 -11   41.07    1.86 
  -4   0  11   42.65    1.69 
  -4   0  11   43.89    1.73 
  -4   0  11   41.67    1.61 
  -4   0  11   43.38    1.77 
   3   0 -11   -0.77    0.66 
   3   0 -11    0.25    0.71 
   3   0 -11    0.15    0.55 
  -3   0  11   -0.28    0.47 
  -3   0  11   -0.06    0.56 
  -3   0  11    0.38    0.72 
  -3   0  11    0.14    0.62 
   2   0 -11    0.44    0.53 
   2   0 -11    0.95    0.71 
   2   0 -11    1.14    0.63 
  -2   0  11    0.22    0.69 
  -2   0  11    0.30    0.65 
  -2   0  11    0.24    0.57 
  -2   0  11    0.63    0.64 
   1   0 -11   32.74    1.43 
   1   0 -11   29.03    1.53 
   1   0 -11   32.55    1.51 
  -1   0  11   32.03    1.44 
  -1   0  11   30.07    1.56 
  -1   0  11   29.06    1.39 
  -1   0  11   29.72    1.55 
   0   0 -11   38.46    1.78 
   0   0 -11   41.37    1.62 
   0   0 -11   41.54    1.62 
   0   0  11   37.62    1.92 
  -1   0 -11    0.79    0.79 
  -1   0 -11    1.00    0.81 
   1   0  11    1.17    0.97 
   1   0  11    1.12    0.69 
   1   0  11    0.54    0.81 
  -2   0 -11   13.67    1.45 
  -2   0 -11   12.41    1.49 
   2   0  11   12.32    1.48 
   2   0  11   10.02    1.23 
   2   0  11   12.59    1.10 
  -3   0 -11    5.68    1.15 
  -3   0 -11    4.34    1.09 
   3   0  11    6.85    1.10 
   3   0  11    5.46    1.04 
  -4   0 -11    5.51    1.18 
  -4   0 -11    5.41    1.13 
   4   0  11    4.61    0.95 
   4   0  11    6.67    1.10 
   4   0  11    4.42    1.21 
   5   0  11    0.82    1.16 
  12  -1 -11   -1.02    1.17 
 -12   1  11    0.51    0.87 
 -12   1  11   -1.51    0.97 
  11  -1 -11   -0.80    0.80 
 -11   1  11    1.09    0.83 
 -11   1  11    3.25    1.31 
  10  -1 -11    6.78    1.33 
 -10   1  11    3.44    0.89 
 -10   1  11    5.52    1.06 
   9  -1 -11    4.65    0.68 
   9  -1 -11    3.11    0.89 
  -9   1  11    5.12    0.84 
  -9   1  11    4.42    0.84 
  -9   1  11    4.13    0.83 
  -9   1  11    6.18    1.17 
   8  -1 -11   30.43    1.39 
   8  -1 -11   29.64    1.86 
  -8   1  11   25.18    1.72 
  -8   1  11   26.23    1.44 
  -8   1  11   28.26    1.49 
  -8   1  11   28.75    1.55 
   7  -1 -11    0.96    0.55 
   7  -1 -11    0.88    0.83 
  -7   1  11   -0.58    0.56 
  -7   1  11    0.07    0.53 
  -7   1  11   -1.02    0.69 
  -7   1  11   -0.29    0.54 
   6  -1 -11   47.95    2.39 
   6  -1 -11   51.15    1.92 
  -6   1  11   51.56    1.82 
  -6   1  11   51.25    1.80 
  -6   1  11   49.29    1.94 
  -6   1  11   48.10    1.99 
   5  -1 -11   32.27    1.49 
   5  -1 -11   35.95    1.80 
  -5   1  11   32.40    1.61 
  -5   1  11   33.08    1.47 
  -5   1  11   31.66    1.49 
  -5   1  11   32.95    1.41 
   4  -1 -11   18.05    1.11 
   4  -1 -11   16.28    1.31 
  -4   1  11   15.33    1.16 
  -4   1  11   17.06    1.39 
  -4   1  11   17.32    1.17 
  -4   1  11   17.95    1.36 
   3  -1 -11   16.21    1.29 
   3  -1 -11   17.30    1.28 
   3  -1 -11   18.86    1.27 
  -3   1  11   16.73    1.27 
  -3   1  11   15.72    1.10 
  -3   1  11   16.57    1.17 
  -3   1  11   17.39    1.17 
   2  -1 -11    2.60    0.67 
   2  -1 -11    2.66    0.71 
   2  -1 -11    1.78    0.75 
  -2   1  11    2.39    0.69 
  -2   1  11    2.27    0.59 
  -2   1  11    2.59    0.69 
  -2   1  11    2.00    0.64 
   1  -1 -11    1.24    0.53 
   1  -1 -11    0.43    0.59 
  -1   1  11    0.33    0.61 
  -1   1  11    0.06    0.46 
  -1   1  11    0.53    0.70 
  -1   1  11    0.66    0.79 
   0  -1 -11    6.00    0.95 
   0  -1 -11    4.18    0.85 
   0  -1 -11    4.98    0.99 
   0  -1 -11    5.91    0.94 
   0   1  11    7.08    1.27 
   0   1  11    4.42    0.80 
  -1  -1 -11   10.02    1.40 
  -1  -1 -11   10.41    1.23 
   1   1  11   11.22    0.92 
   1   1  11    9.67    1.23 
   1   1  11   10.57    1.09 
  -2  -1 -11    2.88    0.91 
  -2  -1 -11    1.30    0.88 
   2   1  11    1.98    0.70 
   2   1  11    1.32    0.84 
   2   1  11    1.86    0.87 
  -3  -1 -11    2.67    0.87 
  -3  -1 -11    2.94    0.95 
   3   1  11    4.96    1.20 
   3   1  11    3.43    0.69 
  -4  -1 -11    2.66    0.99 
  -4  -1 -11    1.65    0.77 
   4   1  11    3.28    0.93 
   4   1  11    3.74    1.30 
   4   1  11    3.77    1.18 
  11  -2 -11    2.19    0.96 
 -11   2  11    1.39    0.72 
 -11   2  11    4.76    1.37 
  10  -2 -11    6.74    1.19 
 -10   2  11    6.37    1.17 
   9  -2 -11    5.34    0.74 
   9  -2 -11    7.31    1.13 
  -9   2  11    5.40    0.73 
  -9   2  11    9.87    1.52 
  -9   2  11    6.32    0.91 
   8  -2 -11   44.53    2.13 
   8  -2 -11   42.32    1.64 
  -8   2  11   42.87    1.89 
  -8   2  11   45.63    2.12 
  -8   2  11   46.03    1.69 
  -8   2  11   41.35    2.13 
   7  -2 -11    3.04    0.98 
   7  -2 -11    2.10    0.65 
  -7   2  11    2.99    0.84 
  -7   2  11    2.56    0.58 
  -7   2  11    2.28    0.91 
  -7   2  11    2.05    0.70 
   6  -2 -11   -0.98    0.51 
   6  -2 -11    1.04    1.41 
  -6   2  11   -0.10    0.83 
  -6   2  11    0.55    0.47 
  -6   2  11    0.49    0.59 
  -6   2  11   -0.23    0.71 
   5  -2 -11    0.23    0.67 
   5  -2 -11   -0.28    0.55 
  -5   2  11   -0.07    0.62 
  -5   2  11   -0.77    0.61 
  -5   2  11    0.37    0.52 
  -5   2  11    0.23    0.59 
   4  -2 -11   19.32    1.23 
   4  -2 -11   16.47    1.25 
  -4   2  11   18.48    1.16 
  -4   2  11   18.77    1.30 
  -4   2  11   19.25    1.30 
  -4   2  11   19.50    1.37 
   3  -2 -11    8.36    1.22 
   3  -2 -11   10.14    1.36 
   3  -2 -11   10.03    1.27 
  -3   2  11   10.32    0.98 
  -3   2  11    9.32    1.21 
  -3   2  11    8.87    1.08 
  -3   2  11   11.47    1.23 
   2  -2 -11    3.00    0.69 
   2  -2 -11    3.27    0.82 
  -2   2  11    2.87    0.65 
  -2   2  11    2.40    0.93 
  -2   2  11    2.41    0.75 
  -2   2  11    3.16    0.79 
   1  -2 -11   11.20    1.28 
   1  -2 -11    9.65    1.07 
   1  -2 -11   12.01    1.28 
   1  -2 -11   11.11    1.16 
  -1   2  11   10.38    1.10 
  -1   2  11   10.35    0.80 
  -1   2  11   10.60    1.12 
   0  -2 -11   17.72    1.38 
   0  -2 -11   21.04    1.26 
   0  -2 -11   19.04    1.30 
   0   2  11   18.53    1.15 
   0   2  11   16.66    1.50 
  -1  -2 -11   23.15    1.67 
  -1  -2 -11   22.49    1.67 
   1   2  11   25.17    2.01 
   1   2  11   20.90    1.29 
   1   2  11   23.42    1.58 
  -2  -2 -11    0.29    0.90 
  -2  -2 -11   -0.10    0.73 
   2   2  11   -0.05    0.64 
   2   2  11   -0.04    0.69 
   2   2  11    1.29    0.96 
  -3  -2 -11    6.78    1.13 
  -3  -2 -11    9.24    1.47 
   3   2  11   10.08    1.36 
   3   2  11    7.05    1.22 
  -4  -2 -11    0.75    0.89 
  -4  -2 -11    0.45    0.86 
   4   2  11    0.11    1.03 
   4   2  11    2.34    0.90 
   4   2  11    1.98    0.79 
  11  -3 -11    0.53    1.13 
 -11   3  11    1.98    1.25 
 -11   3  11    1.18    0.90 
  10  -3 -11    1.33    1.14 
 -10   3  11    1.69    0.97 
   9  -3 -11    7.72    1.05 
  -9   3  11   12.68    1.71 
  -9   3  11    8.86    1.30 
   8  -3 -11   12.04    1.13 
   8  -3 -11   13.45    1.43 
  -8   3  11   13.65    1.62 
  -8   3  11   15.58    1.65 
   7  -3 -11   28.18    1.38 
   7  -3 -11   27.47    1.73 
  -7   3  11   30.23    1.74 
  -7   3  11   29.62    1.77 
  -7   3  11   27.06    2.02 
   6  -3 -11   13.40    1.24 
   6  -3 -11   14.03    1.34 
  -6   3  11   11.73    1.88 
  -6   3  11   15.22    1.01 
  -6   3  11   12.28    1.75 
  -6   3  11   13.35    1.23 
   5  -3 -11    3.48    0.80 
   5  -3 -11    3.87    1.23 
  -5   3  11    4.30    0.74 
  -5   3  11    3.62    0.84 
  -5   3  11    3.97    0.73 
  -5   3  11    4.65    1.05 
   4  -3 -11   23.02    1.55 
   4  -3 -11   19.22    1.44 
  -4   3  11   19.95    1.21 
  -4   3  11   20.16    1.54 
  -4   3  11   19.88    1.24 
  -4   3  11   18.79    1.56 
   3  -3 -11   13.71    1.18 
  -3   3  11   13.03    1.08 
  -3   3  11   12.68    0.90 
  -3   3  11   11.92    1.79 
   2  -3 -11    6.79    1.06 
   2  -3 -11    6.30    0.90 
   2  -3 -11    5.29    0.91 
   2  -3 -11    6.25    1.06 
  -2   3  11    7.98    0.73 
  -2   3  11    6.55    0.97 
  -2   3  11    6.75    1.15 
   1  -3 -11    2.31    0.93 
   1  -3 -11    2.06    0.66 
   1  -3 -11    2.18    0.83 
   1  -3 -11    2.73    0.64 
  -1   3  11    3.36    1.11 
  -1   3  11    2.11    0.69 
  -1   3  11    1.07    0.60 
   0  -3 -11    0.45    0.61 
   0  -3 -11    0.35    1.13 
   0  -3 -11    2.11    0.61 
   0  -3 -11    0.81    0.70 
   0   3  11    1.28    0.53 
   0   3  11    1.17    0.71 
  -1  -3 -11   23.98    1.70 
  -1  -3 -11   21.34    1.56 
   1   3  11   25.29    1.94 
   1   3  11   23.37    1.43 
   1   3  11   19.25    1.51 
  -2  -3 -11   22.01    1.81 
  -2  -3 -11   18.89    1.36 
   2   3  11   23.86    2.10 
   2   3  11   18.11    1.73 
   2   3  11   19.05    1.58 
  -3  -3 -11   15.90    1.64 
  -3  -3 -11   18.74    1.52 
   3   3  11   17.02    1.53 
   3   3  11   22.08    1.50 
   3   3  11   17.79    2.06 
  11  -4 -11    2.71    1.25 
 -11   4  11    1.46    0.89 
 -11   4  11    2.79    1.22 
  10  -4 -11    0.70    0.86 
 -10   4  11    2.22    1.01 
 -10   4  11   -0.34    0.89 
   9  -4 -11    2.74    0.84 
   9  -4 -11    4.20    1.17 
  -9   4  11    1.70    0.94 
  -9   4  11    1.80    0.84 
   8  -4 -11   16.99    1.49 
   8  -4 -11   17.90    1.26 
  -8   4  11   17.70    1.82 
  -8   4  11   17.83    1.64 
   7  -4 -11   32.19    1.42 
   7  -4 -11   29.01    1.75 
  -7   4  11   30.13    1.33 
  -7   4  11   27.12    1.88 
  -7   4  11   30.23    1.71 
   6  -4 -11   13.69    1.06 
   6  -4 -11   11.64    1.40 
  -6   4  11   14.79    1.00 
  -6   4  11   12.01    1.41 
   5  -4 -11    1.17    0.79 
   5  -4 -11    0.47    0.70 
  -5   4  11    1.90    0.90 
  -5   4  11    2.69    0.57 
  -5   4  11    1.31    0.69 
   4  -4 -11    2.11    1.29 
   4  -4 -11    5.26    0.86 
  -4   4  11    3.03    0.67 
  -4   4  11    3.95    1.05 
  -4   4  11    3.25    0.79 
   3  -4 -11   15.20    1.39 
   3  -4 -11   13.86    1.31 
   3  -4 -11   15.20    1.07 
  -3   4  11   15.80    1.35 
  -3   4  11   15.86    1.22 
  -3   4  11   13.74    1.14 
   2  -4 -11   22.47    1.50 
   2  -4 -11   26.66    1.51 
   2  -4 -11   22.84    1.29 
  -2   4  11   23.56    1.19 
  -2   4  11   19.36    1.54 
  -2   4  11   24.53    1.44 
   1  -4 -11   47.80    2.21 
   1  -4 -11   49.08    1.92 
   1  -4 -11   47.91    1.96 
   1  -4 -11   50.69    2.29 
  -1   4  11   50.39    1.93 
  -1   4  11   50.77    2.44 
  -1   4  11   46.15    1.90 
   0  -4 -11    2.12    0.84 
   0  -4 -11    1.44    0.80 
   0  -4 -11    2.54    0.75 
   0   4  11    3.00    1.09 
   0   4  11    0.71    0.93 
   0   4  11    2.80    0.56 
  -1  -4 -11    5.93    0.98 
  -1  -4 -11    8.29    1.38 
   1   4  11    6.27    1.06 
  -2  -4 -11    7.09    1.19 
  -2  -4 -11    5.80    0.89 
   2   4  11    7.89    1.28 
   2   4  11    9.10    1.29 
  -3  -4 -11   14.78    1.63 
  -3  -4 -11   13.72    1.65 
   3   4  11   14.83    1.60 
   3   4  11   14.98    1.78 
  11  -5 -11   10.49    1.64 
  11  -5 -11    9.88    1.58 
 -11   5  11    8.99    1.25 
 -11   5  11    8.47    1.44 
  10  -5 -11   12.31    1.58 
  10  -5 -11   12.74    1.58 
 -10   5  11   11.72    1.69 
 -10   5  11   10.36    1.66 
   9  -5 -11   13.08    1.54 
   9  -5 -11   12.05    1.57 
  -9   5  11   13.71    1.52 
  -9   5  11   14.16    1.48 
   8  -5 -11    0.06    0.58 
   8  -5 -11   -0.48    0.73 
  -8   5  11    1.56    0.66 
  -8   5  11   -0.52    0.94 
  -8   5  11   -0.17    0.73 
   7  -5 -11    8.17    1.14 
   7  -5 -11    7.40    1.16 
  -7   5  11   10.02    1.15 
  -7   5  11    8.79    1.36 
  -7   5  11    8.62    1.55 
   6  -5 -11    6.12    1.07 
  -6   5  11    6.59    1.19 
  -6   5  11    7.64    1.39 
  -6   5  11    8.11    1.08 
   5  -5 -11   20.49    1.60 
   5  -5 -11   21.22    1.43 
  -5   5  11   21.80    1.50 
  -5   5  11   20.71    1.84 
  -5   5  11   23.62    1.22 
   4  -5 -11    1.07    0.68 
   4  -5 -11    1.46    0.77 
  -4   5  11    0.86    0.67 
  -4   5  11    2.02    0.55 
  -4   5  11    0.46    0.95 
   3  -5 -11    0.26    0.65 
   3  -5 -11    0.76    0.51 
   3  -5 -11   -0.42    0.84 
  -3   5  11    1.41    0.96 
  -3   5  11    1.67    0.57 
  -3   5  11    0.38    0.62 
   2  -5 -11   27.81    2.05 
   2  -5 -11   28.87    1.49 
   2  -5 -11   30.29    1.72 
  -2   5  11   29.66    1.66 
  -2   5  11   30.93    1.55 
  -2   5  11   23.31    1.47 
   1  -5 -11   13.03    1.46 
   1  -5 -11   13.23    1.32 
   1  -5 -11   11.03    1.02 
  -1   5  11   13.26    1.13 
  -1   5  11    9.48    1.31 
  -1   5  11   10.96    1.31 
   0  -5 -11    3.15    0.87 
   0  -5 -11    4.26    0.93 
   0  -5 -11    6.34    0.95 
   0   5  11    4.61    1.05 
  -1  -5 -11   -0.63    0.86 
  -1  -5 -11    1.68    1.07 
   1   5  11    0.84    0.91 
   1   5  11    0.39    0.86 
  -2  -5 -11   -0.73    0.78 
  -2  -5 -11   -1.41    0.81 
   2   5  11    0.48    0.84 
  10  -6 -11    9.93    1.55 
  10  -6 -11   10.80    1.41 
 -10   6  11   11.42    2.02 
 -10   6  11   11.51    1.64 
   9  -6 -11   26.00    1.93 
  -9   6  11   25.75    1.70 
  -9   6  11   28.06    1.94 
   8  -6 -11    0.82    0.71 
   8  -6 -11    0.37    0.77 
  -8   6  11    0.59    0.99 
  -8   6  11    0.17    0.82 
  -8   6  11    1.11    1.16 
   7  -6 -11    0.67    0.66 
  -7   6  11    0.32    0.69 
  -7   6  11    0.04    0.78 
  -7   6  11   -0.21    0.94 
   6  -6 -11    7.75    1.26 
   6  -6 -11    7.66    1.23 
  -6   6  11    6.16    1.07 
  -6   6  11    6.83    1.23 
  -6   6  11    8.91    1.48 
   5  -6 -11   16.31    1.70 
   5  -6 -11   14.99    1.39 
  -5   6  11   15.83    1.32 
  -5   6  11   16.13    1.73 
  -5   6  11   19.72    1.18 
   4  -6 -11    4.02    0.82 
   4  -6 -11    4.89    0.94 
  -4   6  11    6.19    1.04 
  -4   6  11    4.96    1.24 
   3  -6 -11    0.52    0.77 
   3  -6 -11    1.20    0.75 
  -3   6  11    1.04    1.02 
  -3   6  11   -0.03    0.76 
  -3   6  11   -0.69    0.82 
   2  -6 -11    4.33    0.78 
   2  -6 -11    4.88    1.11 
   2  -6 -11    5.09    0.91 
  -2   6  11    6.52    1.01 
  -2   6  11    5.50    0.99 
   1  -6 -11   10.37    1.41 
   1  -6 -11   11.09    1.48 
   1  -6 -11    9.23    1.34 
  -1   6  11    9.18    1.31 
  -1   6  11   10.63    1.55 
  -1   6  11   10.63    1.32 
   0  -6 -11    5.18    0.95 
   0  -6 -11    2.82    0.84 
   0   6  11    5.23    1.08 
   0   6  11    4.15    0.91 
   0   6  11    6.06    1.31 
  -1  -6 -11   12.15    1.64 
   1   6  11    9.87    1.52 
   1   6  11   12.33    1.91 
  10  -7 -11    6.19    1.28 
 -10   7  11    6.96    1.47 
 -10   7  11   11.48    1.68 
   9  -7 -11   -0.09    0.72 
  -9   7  11    1.92    0.94 
  -9   7  11    4.08    1.00 
   8  -7 -11    0.66    0.66 
  -8   7  11    0.54    0.82 
  -8   7  11    0.89    0.88 
  -8   7  11    0.84    0.96 
   7  -7 -11    0.40    0.66 
   7  -7 -11   -0.69    0.90 
  -7   7  11    0.04    0.98 
  -7   7  11    0.25    0.84 
  -7   7  11    1.48    1.12 
   6  -7 -11    1.10    0.87 
   6  -7 -11    2.57    1.08 
  -6   7  11    1.61    0.84 
  -6   7  11    0.65    0.99 
   5  -7 -11    0.44    0.64 
   5  -7 -11    0.19    0.86 
  -5   7  11    0.94    1.11 
  -5   7  11    0.18    1.19 
  -5   7  11    0.83    1.45 
   4  -7 -11   11.34    1.57 
   4  -7 -11   11.23    1.32 
  -4   7  11   12.66    1.34 
   3  -7 -11    0.58    0.73 
   3  -7 -11   -1.22    0.69 
  -3   7  11   -0.08    0.94 
  -3   7  11   -0.36    0.76 
  -3   7  11    0.48    1.13 
   2  -7 -11    6.62    1.18 
   2  -7 -11    8.04    1.39 
  -2   7  11    6.52    0.99 
   1  -7 -11    3.86    1.07 
   1  -7 -11    6.02    1.20 
  -1   7  11    6.05    1.10 
   0  -7 -11   19.46    1.80 
   0  -7 -11   22.53    1.72 
   0   7  11   20.01    2.06 
   0   7  11   24.56    2.40 
  -1  -7 -11   10.78    1.52 
   1   7  11    9.75    1.75 
   9  -8 -11    4.31    1.21 
  -9   8  11    6.32    1.55 
  -9   8  11    7.30    1.17 
  -9   8  11    5.79    1.14 
   8  -8 -11    2.65    0.71 
  -8   8  11    3.16    0.82 
  -8   8  11    0.49    0.92 
  -8   8  11    1.93    0.93 
   7  -8 -11    5.66    0.97 
   7  -8 -11    4.77    1.18 
  -7   8  11    5.88    1.20 
  -7   8  11    5.99    0.99 
  -7   8  11    5.73    1.17 
   6  -8 -11    3.08    1.18 
   6  -8 -11    2.29    0.77 
  -6   8  11    3.90    0.92 
  -6   8  11    2.04    0.88 
  -6   8  11    3.41    1.07 
   5  -8 -11   10.02    1.38 
   5  -8 -11    9.10    1.20 
  -5   8  11   11.99    1.66 
  -5   8  11    8.37    1.31 
   4  -8 -11   19.66    1.82 
   4  -8 -11   19.78    1.64 
  -4   8  11   22.90    1.49 
  -4   8  11   20.74    1.91 
   3  -8 -11    0.85    0.98 
   3  -8 -11   -0.41    0.83 
  -3   8  11   -0.79    1.07 
   2  -8 -11    8.08    1.28 
   2  -8 -11    9.29    1.55 
  -2   8  11    7.25    1.29 
   1  -8 -11   -1.67    1.05 
   1  -8 -11   -1.08    0.89 
  -1   8  11    1.46    0.93 
  -1   8  11   -1.46    0.90 
   7  -9 -11    2.60    0.96 
   7  -9 -11    4.40    1.32 
  -7   9  11    2.75    1.10 
   6  -9 -11   -0.51    0.74 
   6  -9 -11    0.65    1.09 
  -6   9  11    1.54    1.10 
  -6   9  11   -0.40    0.89 
   5  -9 -11    4.02    1.06 
   5  -9 -11    5.72    1.13 
  -5   9  11    5.32    1.01 
   4  -9 -11   10.03    1.58 
   4  -9 -11   10.60    1.65 
  -4   9  11   10.46    1.64 
   3  -9 -11   23.24    1.99 
   3  -9 -11   25.73    2.01 
  -3   9  11   22.68    2.18 
  -4 -11  12    3.60    1.36 
  -4 -11  12    1.48    1.15 
   3  11 -12    1.69    1.35 
  -3 -11  12   -0.22    0.75 
  -3 -11  12   -1.33    0.80 
  -3 -11  12    0.63    0.87 
   2  11 -12    2.89    1.39 
  -2 -11  12    3.24    0.83 
  -2 -11  12    2.46    0.90 
  -2 -11  12    0.74    0.93 
   1  11 -12   -1.10    1.22 
  -1 -11  12   -0.25    0.91 
  -1 -11  12    0.00    0.80 
   0  11 -12    4.39    1.38 
   0 -11  12    6.09    1.10 
   0 -11  12    5.94    1.14 
   0 -11  12    6.11    1.11 
  -6 -10  12    1.36    0.76 
  -6 -10  12    0.00    0.97 
  -6 -10  12    2.73    1.15 
   5  10 -12    6.71    1.46 
  -5 -10  12    2.06    0.93 
  -5 -10  12    3.19    0.77 
  -5 -10  12    4.29    1.32 
   4  10 -12    4.21    1.07 
  -4 -10  12    5.59    1.31 
  -4 -10  12    3.90    1.02 
  -3 -10  12    0.07    0.76 
  -3 -10  12    0.54    0.67 
   2  10 -12    0.48    0.90 
  -2 -10  12    0.57    0.92 
  -2 -10  12    0.92    0.92 
  -2 -10  12    1.24    0.74 
   1  10 -12    1.58    0.92 
  -1 -10  12    1.08    0.92 
  -1 -10  12    0.38    0.80 
  -1 -10  12    1.52    1.02 
   0  10 -12   23.78    1.64 
   0 -10  12   23.60    1.74 
   0 -10  12   21.48    1.69 
   0 -10  12   23.56    1.66 
  -1  10 -12    5.45    1.22 
   1 -10  12    3.84    0.97 
   1 -10  12    3.72    1.29 
   7   9 -12    3.76    1.17 
  -7  -9  12    2.64    1.10 
  -7  -9  12    4.91    1.22 
  -7  -9  12    3.81    0.96 
   6   9 -12    1.01    1.12 
  -6  -9  12    0.19    0.96 
  -6  -9  12   -0.15    0.77 
   5   9 -12    3.28    1.03 
  -5  -9  12    5.00    1.08 
  -5  -9  12    3.92    0.97 
  -5  -9  12    4.97    0.94 
   4   9 -12    5.00    1.18 
  -4  -9  12    6.66    1.28 
  -4  -9  12    2.97    0.98 
  -4  -9  12    4.89    0.94 
   3   9 -12    2.05    1.09 
  -3  -9  12    0.09    0.65 
  -3  -9  12    0.18    0.77 
  -3  -9  12    1.41    0.95 
   2   9 -12    1.07    1.04 
  -2  -9  12    0.66    0.78 
  -2  -9  12   -0.16    0.71 
  -2  -9  12   -0.55    0.75 
   1   9 -12    5.90    1.22 
  -1  -9  12    8.02    1.23 
  -1  -9  12    4.23    0.82 
  -1  -9  12    6.92    1.12 
   0   9 -12   10.28    1.74 
   0  -9  12   13.96    1.22 
   0  -9  12   13.24    1.45 
   0  -9  12   13.25    1.85 
  -1   9 -12   10.83    1.71 
  -1   9 -12   10.24    1.33 
   1  -9  12    9.35    1.38 
   1  -9  12    9.53    1.46 
   1  -9  12   13.44    1.81 
  -2   9 -12    4.30    1.02 
   2  -9  12    2.49    0.89 
   2  -9  12    2.90    0.92 
   2  -9  12    6.01    1.28 
   8   8 -12   11.28    1.63 
  -8  -8  12   16.33    1.97 
  -8  -8  12   14.34    1.70 
  -8  -8  12   10.14    1.29 
   7   8 -12    0.46    1.05 
  -7  -8  12    1.65    0.84 
  -7  -8  12    0.98    0.94 
  -7  -8  12    1.12    0.82 
   6   8 -12    0.60    0.89 
  -6  -8  12   -1.29    0.84 
  -6  -8  12    0.76    0.77 
  -6  -8  12   -0.30    0.74 
   5   8 -12    3.39    1.13 
  -5  -8  12    2.78    1.03 
  -5  -8  12    2.31    0.85 
   4   8 -12   12.99    1.38 
  -4  -8  12   16.65    1.44 
  -4  -8  12   20.03    1.58 
  -4  -8  12   19.82    1.42 
   3   8 -12   38.15    2.01 
  -3  -8  12   39.23    1.91 
  -3  -8  12   37.51    1.92 
  -3  -8  12   40.62    1.98 
   2   8 -12   14.91    1.31 
  -2  -8  12   14.14    1.36 
  -2  -8  12   13.23    1.31 
  -2  -8  12   11.73    1.28 
   1   8 -12    6.96    1.20 
  -1  -8  12    2.74    0.94 
  -1  -8  12    3.97    1.01 
  -1  -8  12    5.39    0.96 
   0   8 -12    1.14    0.94 
   0   8 -12    0.43    0.84 
   0  -8  12    0.63    0.63 
   0  -8  12   -0.06    0.92 
   0  -8  12    0.75    0.96 
  -1   8 -12    3.91    1.06 
  -1   8 -12    5.52    1.07 
   1  -8  12    6.45    1.09 
   1  -8  12    5.54    0.96 
   1  -8  12    8.13    1.11 
  -2   8 -12    4.30    1.08 
   2  -8  12    4.92    1.19 
   2  -8  12    3.76    0.92 
   2  -8  12    3.14    1.04 
  -3   8 -12    1.60    0.91 
   3  -8  12    2.29    1.26 
   3  -8  12    1.54    0.96 
   3  -8  12    0.97    0.97 
   9   7 -12    0.93    1.03 
  -9  -7  12    2.19    1.00 
  -9  -7  12    1.85    1.06 
  -9  -7  12    0.62    1.00 
   8   7 -12   -0.09    1.05 
  -8  -7  12   -0.46    0.87 
  -8  -7  12   -0.05    0.71 
  -8  -7  12    2.17    1.11 
   7   7 -12    4.08    0.96 
  -7  -7  12    4.55    0.86 
  -7  -7  12    3.82    1.01 
  -7  -7  12    4.54    1.04 
   6   7 -12    3.68    1.03 
  -6  -7  12    2.08    0.88 
  -6  -7  12    4.00    1.01 
  -6  -7  12    3.46    0.87 
   5   7 -12    1.18    0.77 
  -5  -7  12    1.12    0.79 
  -5  -7  12    0.96    0.68 
   4   7 -12   27.29    1.70 
  -4  -7  12   27.55    1.73 
  -4  -7  12   25.41    1.50 
  -4  -7  12   25.16    1.59 
   3   7 -12   15.42    1.60 
  -3  -7  12   17.37    1.26 
  -3  -7  12   14.48    1.38 
  -3  -7  12   13.35    1.42 
   2   7 -12   12.06    1.50 
  -2  -7  12   12.52    1.20 
  -2  -7  12   12.04    1.45 
  -2  -7  12   12.77    1.63 
   1   7 -12   21.68    1.55 
  -1  -7  12   25.02    1.90 
  -1  -7  12   23.10    1.62 
  -1  -7  12   20.90    1.21 
   0   7 -12    0.12    0.72 
   0  -7  12    0.14    0.69 
   0  -7  12   -0.93    0.59 
   0  -7  12   -0.37    0.72 
  -1   7 -12   -0.75    0.69 
   1  -7  12   -0.28    0.82 
   1  -7  12   -1.03    0.77 
   1  -7  12   -0.61    0.90 
  -2   7 -12    7.22    1.18 
   2  -7  12   11.34    1.20 
   2  -7  12    8.90    1.47 
   2  -7  12   10.87    1.70 
  -3   7 -12    3.67    0.91 
   3  -7  12    5.56    1.23 
   3  -7  12    2.66    0.92 
   3  -7  12    4.19    0.97 
  10   6 -12    2.36    1.13 
   9   6 -12   -0.26    0.84 
  -9  -6  12    1.69    0.84 
  -9  -6  12    1.36    1.03 
   8   6 -12    1.05    0.90 
  -8  -6  12    0.50    0.89 
  -8  -6  12    0.78    1.02 
  -8  -6  12    0.68    0.82 
   7   6 -12   27.25    1.84 
  -7  -6  12   27.18    1.73 
  -7  -6  12   29.38    1.83 
  -7  -6  12   27.78    1.91 
   6   6 -12   16.46    1.40 
  -6  -6  12   16.62    1.56 
  -6  -6  12   18.50    1.66 
  -6  -6  12   14.23    1.40 
   5   6 -12    9.82    1.35 
  -5  -6  12    8.59    1.26 
  -5  -6  12    7.61    1.29 
  -5  -6  12    6.64    1.15 
   4   6 -12   -0.02    0.92 
  -4  -6  12    0.60    0.73 
  -4  -6  12    1.59    0.87 
  -4  -6  12   -0.06    0.70 
   3   6 -12    1.07    0.81 
  -3  -6  12    3.11    1.01 
  -3  -6  12    2.56    0.71 
  -3  -6  12    2.06    0.82 
   2   6 -12    0.26    0.85 
  -2  -6  12    0.99    0.85 
  -2  -6  12    1.25    0.70 
  -2  -6  12    1.72    0.53 
   1   6 -12   22.80    1.61 
  -1  -6  12   24.75    1.37 
  -1  -6  12   23.77    1.53 
   0   6 -12    0.75    0.75 
   0   6 -12   -1.17    0.73 
   0  -6  12    0.91    0.89 
   0  -6  12    0.49    0.59 
   0  -6  12    0.65    0.56 
   0  -6  12    0.58    0.71 
  -1   6 -12   -0.29    0.80 
  -1   6 -12    0.92    0.83 
   1  -6  12    0.13    0.94 
   1  -6  12   -0.60    0.74 
   1  -6  12   -0.17    0.62 
  -2   6 -12   14.64    1.69 
   2  -6  12   16.08    1.52 
   2  -6  12   16.29    1.30 
   2  -6  12   13.08    1.29 
  -3   6 -12    1.09    1.08 
   3  -6  12    1.77    1.06 
   3  -6  12    1.17    1.04 
   3  -6  12    2.35    1.04 
  -4   6 -12   11.67    1.75 
   4  -6  12    8.68    1.26 
  10   5 -12   -0.38    0.91 
 -10  -5  12    0.60    1.06 
 -10  -5  12   -1.11    1.01 
   9   5 -12    3.81    1.06 
  -9  -5  12    2.97    1.05 
  -9  -5  12    3.53    0.84 
   8   5 -12    0.80    0.81 
  -8  -5  12    0.15    0.90 
  -8  -5  12    1.55    0.86 
  -8  -5  12   -0.04    0.84 
   7   5 -12   11.15    1.33 
  -7  -5  12    9.37    1.47 
  -7  -5  12    9.96    1.33 
  -7  -5  12   10.35    1.34 
   6   5 -12   11.96    1.42 
  -6  -5  12   10.08    1.27 
  -6  -5  12   12.20    1.50 
  -6  -5  12   12.53    1.46 
   5   5 -12    7.58    1.25 
  -5  -5  12    8.34    1.34 
  -5  -5  12    7.68    1.20 
  -5  -5  12    6.94    1.02 
   4   5 -12    4.85    0.93 
  -4  -5  12    6.81    0.88 
  -4  -5  12    6.13    1.01 
  -4  -5  12    6.07    1.06 
   3   5 -12    3.67    1.01 
   3   5 -12    2.70    0.95 
  -3  -5  12    1.34    0.77 
  -3  -5  12    2.19    0.81 
  -3  -5  12    2.85    0.58 
   2   5 -12   11.58    1.32 
  -2  -5  12   11.88    0.86 
  -2  -5  12   13.18    1.26 
  -2  -5  12   14.04    1.06 
  -2  -5  12   11.89    1.38 
   1   5 -12   22.35    1.53 
   1   5 -12   20.59    1.54 
  -1  -5  12   24.21    1.59 
  -1  -5  12   23.53    1.38 
  -1  -5  12   26.88    1.89 
  -1  -5  12   22.48    1.20 
   0   5 -12    2.79    0.81 
   0   5 -12    4.33    0.80 
   0  -5  12    3.59    0.79 
   0  -5  12    2.99    0.80 
   0  -5  12    4.21    1.01 
   0  -5  12    2.67    0.91 
  -1   5 -12    0.48    0.83 
  -1   5 -12    0.68    0.70 
   1  -5  12   -0.65    0.61 
   1  -5  12   -1.29    0.73 
   1  -5  12   -0.14    0.70 
  -2   5 -12    0.72    0.87 
   2  -5  12    0.18    0.77 
   2  -5  12    0.12    0.66 
   2  -5  12    0.94    1.10 
  -3   5 -12    3.13    1.14 
   3  -5  12    4.29    1.10 
   3  -5  12    3.62    1.10 
  -4   5 -12   20.20    1.92 
  -4   5 -12   18.50    1.81 
   4  -5  12   19.92    1.83 
   4  -5  12   19.10    1.89 
  10   4 -12    0.73    0.82 
  10   4 -12    1.25    1.10 
 -10  -4  12    0.26    0.84 
 -10  -4  12    0.85    0.83 
   9   4 -12   22.88    1.78 
   9   4 -12   24.51    1.63 
  -9  -4  12   22.81    1.86 
  -9  -4  12   20.75    1.78 
   8   4 -12    3.11    0.91 
   8   4 -12    3.90    1.05 
  -8  -4  12    3.83    1.04 
  -8  -4  12    2.72    0.86 
   7   4 -12    3.50    1.05 
  -7  -4  12    2.95    0.96 
  -7  -4  12    4.29    0.95 
   6   4 -12    0.07    0.73 
   6   4 -12    0.77    0.73 
  -6  -4  12    0.61    0.84 
  -6  -4  12   -0.82    0.57 
   5   4 -12   28.22    1.67 
   5   4 -12   26.03    1.58 
  -5  -4  12   29.34    1.12 
  -5  -4  12   26.76    1.59 
  -5  -4  12   26.15    1.47 
   4   4 -12   13.13    1.51 
   4   4 -12   16.51    1.34 
  -4  -4  12   15.77    1.47 
  -4  -4  12   14.86    0.92 
  -4  -4  12   15.99    1.33 
   3   4 -12    0.85    0.76 
   3   4 -12    1.03    0.66 
  -3  -4  12    2.15    0.85 
  -3  -4  12    0.15    0.56 
  -3  -4  12    0.74    0.46 
  -3  -4  12    0.92    0.53 
   2   4 -12   11.10    1.31 
   2   4 -12   10.87    1.09 
  -2  -4  12   11.42    1.20 
  -2  -4  12   12.17    1.23 
  -2  -4  12   11.23    0.97 
  -2  -4  12   11.25    1.16 
   1   4 -12   10.69    1.24 
   1   4 -12   12.55    1.24 
  -1  -4  12   12.18    1.37 
  -1  -4  12   11.68    1.23 
  -1  -4  12   11.44    1.25 
  -1  -4  12   11.47    1.02 
   0   4 -12   22.41    1.66 
   0   4 -12   22.64    1.67 
   0   4 -12   25.87    1.40 
   0  -4  12   25.52    1.61 
   0  -4  12   24.58    1.53 
  -1   4 -12    0.73    0.73 
   1  -4  12    2.15    0.83 
   1  -4  12    1.73    0.80 
   1  -4  12    1.36    0.80 
  -2   4 -12    0.83    0.81 
   2  -4  12    1.43    0.70 
   2  -4  12   -1.38    0.69 
   2  -4  12   -0.80    0.72 
  -3   4 -12    5.09    1.27 
  -3   4 -12    3.47    1.00 
   3  -4  12    5.44    1.21 
   3  -4  12    4.31    0.97 
  -4   4 -12   26.12    1.98 
  -4   4 -12   26.58    2.20 
   4  -4  12   27.54    2.19 
   4  -4  12   22.47    1.97 
  11   3 -12    2.47    1.25 
 -11  -3  12    3.41    0.94 
 -11  -3  12    0.37    1.00 
  10   3 -12    1.78    0.77 
  10   3 -12    1.59    0.98 
 -10  -3  12    2.10    1.04 
 -10  -3  12    2.91    1.14 
   9   3 -12   34.36    1.59 
   9   3 -12   36.63    2.28 
  -9  -3  12   34.51    1.86 
  -9  -3  12   31.70    1.95 
   8   3 -12    7.98    1.27 
   8   3 -12    8.12    1.14 
  -8  -3  12    6.19    1.00 
  -8  -3  12    6.96    1.03 
   7   3 -12    0.47    0.87 
   7   3 -12   -0.01    1.17 
  -7  -3  12    0.60    0.82 
  -7  -3  12    0.65    0.64 
   6   3 -12    0.52    0.72 
  -6  -3  12    1.16    0.73 
  -6  -3  12    1.33    0.49 
   5   3 -12   23.16    1.63 
  -5  -3  12   25.95    1.15 
  -5  -3  12   22.98    1.57 
  -5  -3  12   25.73    1.56 
   4   3 -12   32.60    1.93 
   4   3 -12   39.06    2.07 
  -4  -3  12   39.20    1.32 
  -4  -3  12   38.42    1.56 
  -4  -3  12   36.82    1.93 
  -4  -3  12   39.38    1.87 
   3   3 -12   16.65    1.40 
   3   3 -12   17.64    1.34 
  -3  -3  12   14.60    0.98 
  -3  -3  12   14.13    1.15 
  -3  -3  12   17.48    1.19 
   2   3 -12    4.41    0.85 
   2   3 -12    3.50    0.84 
  -2  -3  12    5.77    1.10 
  -2  -3  12    4.75    0.86 
  -2  -3  12    4.32    0.77 
  -2  -3  12    4.72    0.72 
   1   3 -12    3.99    0.81 
   1   3 -12    5.11    0.95 
   1   3 -12    4.01    0.88 
  -1  -3  12    5.11    0.94 
  -1  -3  12    3.82    0.92 
  -1  -3  12    4.93    0.91 
  -1  -3  12    4.62    0.72 
   0   3 -12   19.02    1.44 
   0   3 -12   23.79    1.40 
   0   3 -12   20.79    1.45 
   0  -3  12   20.46    1.35 
   0  -3  12   20.82    1.56 
   0  -3  12   20.55    1.58 
   0  -3  12   21.24    1.55 
  -1   3 -12    8.76    1.11 
   1  -3  12    9.31    1.23 
   1  -3  12   13.73    1.64 
   1  -3  12   11.02    1.34 
  -2   3 -12   11.54    1.40 
   2  -3  12    8.23    1.14 
   2  -3  12    9.84    1.28 
  -3   3 -12    2.69    0.96 
  -3   3 -12    1.99    1.02 
   3  -3  12    2.90    0.86 
   3  -3  12    3.87    1.17 
  -4   3 -12    2.11    1.05 
  -4   3 -12    3.49    1.06 
   4  -3  12    0.82    1.07 
   4  -3  12    3.81    1.05 
  11   2 -12    0.58    1.24 
 -11  -2  12    0.06    1.04 
 -11  -2  12   -0.94    0.75 
  10   2 -12   -0.98    0.80 
 -10  -2  12   -0.16    0.82 
 -10  -2  12   -0.04    0.95 
   9   2 -12   13.33    1.74 
   9   2 -12   12.83    1.31 
  -9  -2  12   11.14    1.53 
  -9  -2  12   11.15    1.44 
   8   2 -12   37.95    2.08 
   8   2 -12   38.14    1.77 
  -8  -2  12   37.17    1.94 
  -8  -2  12   40.14    1.99 
  -8  -2  12   39.04    1.57 
   7   2 -12   13.63    1.18 
   7   2 -12   11.04    1.38 
  -7  -2  12   11.68    1.07 
  -7  -2  12    9.58    1.23 
  -7  -2  12   12.42    1.37 
   6   2 -12    6.90    0.93 
   6   2 -12    8.59    1.35 
  -6  -2  12    6.83    1.10 
  -6  -2  12    8.08    0.92 
  -6  -2  12    6.56    1.13 
   5   2 -12    1.83    0.79 
   5   2 -12    1.50    1.06 
  -5  -2  12    2.49    0.59 
  -5  -2  12    3.00    0.43 
  -5  -2  12    2.47    0.86 
  -5  -2  12    1.54    0.71 
   4   2 -12   15.70    1.39 
  -4  -2  12   17.32    0.99 
  -4  -2  12   16.43    1.28 
  -4  -2  12   15.93    0.95 
  -4  -2  12   15.56    1.31 
   3   2 -12    6.38    0.95 
   3   2 -12    6.21    1.00 
  -3  -2  12    5.95    0.97 
  -3  -2  12    5.11    0.77 
  -3  -2  12    7.10    0.84 
  -3  -2  12    7.14    0.83 
   2   2 -12    1.38    0.63 
   2   2 -12    0.88    0.65 
   2   2 -12    1.79    0.76 
  -2  -2  12    1.13    0.57 
  -2  -2  12    1.89    0.70 
  -2  -2  12    2.00    0.56 
   1   2 -12   -1.00    0.77 
   1   2 -12    1.67    0.80 
   1   2 -12   -0.32    0.65 
  -1  -2  12   -0.06    0.60 
  -1  -2  12    1.11    0.85 
  -1  -2  12    0.31    0.62 
  -1  -2  12   -0.39    0.74 
   0   2 -12   49.33    2.20 
   0   2 -12   50.74    1.96 
   0   2 -12   50.94    1.80 
   0  -2  12   47.30    2.00 
   0  -2  12   47.65    2.09 
   0  -2  12   49.42    2.22 
  -1   2 -12    9.07    1.35 
   1  -2  12   11.37    1.45 
   1  -2  12    9.51    1.50 
   1  -2  12   12.23    1.36 
  -2   2 -12   23.12    1.56 
  -2   2 -12   20.74    1.83 
   2  -2  12   19.19    1.54 
   2  -2  12   23.55    1.78 
  -3   2 -12    7.24    1.28 
  -3   2 -12    6.25    1.04 
   3  -2  12   10.20    1.44 
   3  -2  12    6.09    1.16 
  -4   2 -12    2.45    0.93 
  -4   2 -12    1.88    1.12 
   4  -2  12    2.36    1.17 
  11   1 -12    6.72    1.39 
 -11  -1  12    6.03    1.33 
 -11  -1  12    6.21    1.08 
  10   1 -12    5.73    1.29 
 -10  -1  12    3.02    0.83 
 -10  -1  12    4.45    1.08 
   9   1 -12    1.73    0.95 
   9   1 -12    2.61    0.60 
  -9  -1  12    1.55    1.00 
  -9  -1  12    3.71    0.76 
  -9  -1  12    1.97    0.89 
   8   1 -12   19.03    1.55 
   8   1 -12   19.81    1.36 
  -8  -1  12   21.85    1.70 
  -8  -1  12   19.84    1.33 
  -8  -1  12   20.94    1.40 
   7   1 -12   11.54    1.25 
   7   1 -12   13.74    1.63 
  -7  -1  12   13.60    1.18 
  -7  -1  12   13.02    1.42 
  -7  -1  12   10.78    1.18 
   6   1 -12   14.95    1.46 
   6   1 -12   15.59    1.37 
  -6  -1  12   14.53    1.18 
  -6  -1  12   15.30    1.00 
  -6  -1  12   15.24    1.42 
  -6  -1  12   14.28    1.26 
   5   1 -12    0.21    0.67 
  -5  -1  12    0.35    0.48 
  -5  -1  12   -0.04    0.41 
  -5  -1  12   -0.34    0.72 
   4   1 -12   -0.85    0.75 
   4   1 -12    0.24    0.82 
  -4  -1  12    0.28    0.73 
  -4  -1  12   -0.01    0.50 
  -4  -1  12   -0.32    0.74 
  -4  -1  12   -0.14    0.46 
   3   1 -12    4.98    0.82 
   3   1 -12    5.25    0.95 
  -3  -1  12    5.79    0.96 
  -3  -1  12    5.02    0.82 
  -3  -1  12    5.45    0.88 
  -3  -1  12    5.89    0.84 
   2   1 -12   15.26    1.37 
   2   1 -12   13.24    1.41 
   2   1 -12   14.66    1.23 
  -2  -1  12   14.97    1.36 
  -2  -1  12   15.21    1.30 
  -2  -1  12   15.46    1.24 
  -2  -1  12   14.28    1.21 
   1   1 -12    0.85    0.68 
   1   1 -12    1.89    0.88 
   1   1 -12    0.01    0.72 
  -1  -1  12    1.82    0.78 
  -1  -1  12    0.29    0.74 
  -1  -1  12    0.89    0.84 
   0   1 -12    3.86    0.83 
   0   1 -12    4.01    0.98 
   0   1 -12    5.43    0.89 
   0  -1  12    3.54    0.77 
   0  -1  12    5.26    0.95 
   0  -1  12    5.45    1.12 
  -1   1 -12   -0.99    0.65 
   1  -1  12    0.88    0.87 
   1  -1  12    0.48    0.85 
  -2   1 -12   11.87    1.64 
  -2   1 -12   10.12    1.35 
   2  -1  12   11.90    1.53 
   2  -1  12    7.17    1.16 
  -3   1 -12   29.61    1.77 
  -3   1 -12   29.56    2.10 
   3  -1  12   31.33    2.12 
   3  -1  12   32.52    1.96 
  -4   1 -12   -1.04    0.80 
  -4   1 -12   -1.53    0.99 
   4  -1  12    1.25    0.98 
  11   0 -12    5.05    1.12 
  10   0 -12    0.40    1.02 
 -10   0  12    1.74    0.92 
 -10   0  12   -1.12    0.95 
   9   0 -12    0.61    0.75 
   9   0 -12    0.42    0.78 
  -9   0  12    2.69    1.07 
  -9   0  12    0.92    0.68 
  -9   0  12    1.91    0.75 
   8   0 -12    4.11    0.70 
   8   0 -12    3.52    1.03 
  -8   0  12    5.40    1.20 
  -8   0  12    3.90    0.75 
   7   0 -12    2.40    1.05 
   7   0 -12    0.16    0.62 
  -7   0  12    1.01    0.64 
  -7   0  12    0.75    0.51 
  -7   0  12    1.04    0.87 
  -7   0  12    0.34    0.60 
   6   0 -12    4.24    0.83 
   6   0 -12    4.48    1.02 
  -6   0  12    3.49    0.55 
  -6   0  12    3.29    0.98 
  -6   0  12    3.36    0.72 
  -6   0  12    3.41    0.79 
   5   0 -12    3.61    0.69 
   5   0 -12    2.98    1.56 
  -5   0  12    3.49    0.73 
  -5   0  12    2.64    0.77 
  -5   0  12    3.54    0.64 
  -5   0  12    2.76    0.86 
   4   0 -12    0.12    0.68 
  -4   0  12    0.33    0.52 
  -4   0  12   -0.71    0.74 
  -4   0  12    0.07    0.49 
  -4   0  12   -0.17    0.61 
   3   0 -12   32.45    1.77 
   3   0 -12   35.10    1.78 
  -3   0  12   34.11    1.76 
  -3   0  12   31.74    1.69 
  -3   0  12   31.75    1.56 
  -3   0  12   36.45    1.62 
   2   0 -12   27.13    1.66 
   2   0 -12   25.61    1.57 
   2   0 -12   28.95    1.40 
  -2   0  12   23.20    1.55 
  -2   0  12   27.39    1.67 
  -2   0  12   25.99    1.57 
  -2   0  12   22.31    2.44 
   1   0 -12   30.71    1.44 
   1   0 -12   27.04    1.55 
  -1   0  12   26.48    1.60 
  -1   0  12   26.95    1.68 
  -1   0  12   26.31    1.69 
   0   0 -12   15.96    1.60 
   0   0 -12   16.34    1.32 
   0   0 -12   17.56    1.37 
   0   0  12   16.21    1.34 
   0   0  12   18.24    1.57 
  -1   0 -12    6.71    1.05 
  -1   0 -12    4.37    0.88 
   1   0  12    5.13    0.85 
   1   0  12    6.31    1.05 
  -2   0 -12    3.61    1.01 
  -2   0 -12    1.63    0.84 
   2   0  12    4.14    1.10 
   2   0  12    0.76    0.84 
  -3   0 -12   12.73    1.69 
  -3   0 -12   12.17    1.63 
   3   0  12   11.97    1.64 
   3   0  12    9.67    1.33 
  11  -1 -12    2.08    0.90 
 -11   1  12    2.42    1.02 
 -11   1  12    6.12    1.39 
  10  -1 -12    1.54    1.14 
 -10   1  12    1.48    0.79 
   9  -1 -12    1.96    0.99 
   9  -1 -12    2.04    0.66 
  -9   1  12    3.33    0.87 
  -9   1  12    3.98    1.11 
  -9   1  12    1.50    0.94 
   8  -1 -12   -0.89    0.68 
   8  -1 -12    0.13    0.65 
  -8   1  12    1.36    1.01 
  -8   1  12    0.25    0.76 
  -8   1  12    1.27    0.63 
   7  -1 -12   18.96    1.32 
   7  -1 -12   19.09    1.72 
  -7   1  12   18.48    1.22 
  -7   1  12   17.51    1.44 
  -7   1  12   17.11    1.44 
  -7   1  12   18.80    1.55 
   6  -1 -12    0.66    0.89 
   6  -1 -12   -0.25    0.59 
  -6   1  12    1.88    0.87 
  -6   1  12    0.83    0.61 
  -6   1  12   -0.15    0.72 
  -6   1  12    0.26    0.72 
   5  -1 -12   36.42    1.89 
   5  -1 -12   30.97    1.65 
  -5   1  12   34.18    1.78 
  -5   1  12   36.88    1.65 
  -5   1  12   35.74    1.67 
  -5   1  12   34.19    1.62 
   4  -1 -12    1.10    0.80 
   4  -1 -12   -0.71    0.73 
  -4   1  12   -0.04    0.54 
  -4   1  12   -0.21    0.76 
  -4   1  12   -0.09    0.77 
  -4   1  12    0.09    0.58 
   3  -1 -12    2.20    0.75 
   3  -1 -12    2.76    0.78 
  -3   1  12    2.41    0.68 
  -3   1  12    2.39    0.81 
  -3   1  12    1.98    0.75 
   2  -1 -12    5.06    0.91 
   2  -1 -12    6.46    1.03 
  -2   1  12    5.15    1.00 
  -2   1  12    6.44    1.00 
  -2   1  12    5.00    0.82 
   1  -1 -12   23.34    1.70 
   1  -1 -12   23.76    1.54 
   1  -1 -12   25.80    1.58 
  -1   1  12   23.79    1.55 
  -1   1  12   23.10    1.61 
   0  -1 -12   18.83    1.51 
   0  -1 -12   23.05    1.28 
   0  -1 -12   20.67    1.71 
   0   1  12   20.04    1.78 
   0   1  12   20.33    1.42 
  -1  -1 -12    3.58    0.94 
  -1  -1 -12    1.46    0.81 
   1   1  12    2.80    0.94 
   1   1  12    2.41    1.16 
  -2  -1 -12    2.71    0.94 
  -2  -1 -12    2.39    1.04 
   2   1  12    3.58    1.17 
   2   1  12    3.16    0.99 
  -3  -1 -12   10.38    1.77 
  -3  -1 -12   10.79    1.57 
   3   1  12   10.75    1.81 
   3   1  12    8.21    1.36 
  11  -2 -12    0.73    1.02 
 -11   2  12    3.88    1.31 
 -11   2  12    1.74    0.85 
  10  -2 -12   12.37    1.89 
 -10   2  12   10.48    1.63 
 -10   2  12    6.86    1.12 
   9  -2 -12   22.23    1.43 
   9  -2 -12   21.72    1.59 
  -9   2  12   26.40    2.00 
  -9   2  12   24.75    1.62 
   8  -2 -12    0.79    0.58 
  -8   2  12    0.87    0.91 
  -8   2  12    1.40    0.69 
  -8   2  12    2.26    1.02 
   7  -2 -12    9.20    1.26 
   7  -2 -12    5.37    1.09 
  -7   2  12    7.73    1.40 
  -7   2  12    6.89    1.23 
  -7   2  12    6.59    1.04 
   6  -2 -12   -0.09    0.65 
   6  -2 -12    0.83    0.80 
  -6   2  12    1.21    0.73 
  -6   2  12    0.53    0.75 
  -6   2  12    1.05    0.81 
  -6   2  12    0.57    0.64 
   5  -2 -12   66.94    2.81 
   5  -2 -12   78.23    2.60 
  -5   2  12   79.21    2.39 
  -5   2  12   77.31    2.94 
  -5   2  12   75.74    2.55 
  -5   2  12   81.39    2.64 
   4  -2 -12    8.31    1.21 
  -4   2  12    8.81    1.53 
  -4   2  12    7.25    1.12 
  -4   2  12    7.87    0.95 
  -4   2  12    7.59    1.18 
   3  -2 -12    0.36    0.61 
   3  -2 -12    2.30    0.71 
  -3   2  12    1.10    0.87 
  -3   2  12    1.03    0.77 
  -3   2  12    1.41    0.63 
   2  -2 -12    2.55    0.74 
   2  -2 -12    1.55    0.83 
  -2   2  12    1.66    0.88 
  -2   2  12    1.46    0.84 
   1  -2 -12   35.42    1.62 
   1  -2 -12   33.50    1.69 
   1  -2 -12   30.39    1.82 
   1  -2 -12   33.80    1.88 
  -1   2  12   33.56    1.78 
  -1   2  12   33.34    2.08 
   0  -2 -12   12.63    1.41 
   0  -2 -12   14.35    1.61 
   0   2  12   12.23    1.29 
   0   2  12    9.45    1.18 
  -1  -2 -12    0.88    0.85 
  -1  -2 -12    2.60    0.88 
   1   2  12    2.60    0.92 
   1   2  12    1.64    0.71 
  -2  -2 -12    1.75    0.98 
  -2  -2 -12    1.28    0.91 
   2   2  12    0.42    0.90 
   2   2  12    0.80    1.18 
  -3  -2 -12    6.49    1.23 
  -3  -2 -12    5.54    0.95 
   3   2  12    5.81    1.07 
   3   2  12    8.22    1.61 
  11  -3 -12    2.65    1.29 
 -11   3  12    0.80    0.78 
 -11   3  12    3.21    1.37 
  10  -3 -12   10.13    1.76 
 -10   3  12   10.66    1.73 
   9  -3 -12   20.44    1.71 
   9  -3 -12   24.26    1.29 
  -9   3  12   21.39    1.49 
  -9   3  12   22.80    1.63 
   8  -3 -12    6.06    0.99 
   8  -3 -12    8.95    1.21 
  -8   3  12    8.92    1.51 
  -8   3  12   10.34    1.34 
   7  -3 -12    4.66    1.11 
   7  -3 -12    2.62    0.85 
  -7   3  12    5.22    1.07 
  -7   3  12    3.91    1.05 
   6  -3 -12    0.22    0.66 
  -6   3  12   -1.06    0.65 
  -6   3  12   -0.25    0.79 
   5  -3 -12   45.17    2.21 
   5  -3 -12   43.62    1.88 
  -5   3  12   46.39    2.31 
  -5   3  12   41.37    1.75 
  -5   3  12   41.69    1.90 
   4  -3 -12   14.89    1.39 
   4  -3 -12   15.52    1.52 
  -4   3  12   16.91    1.27 
  -4   3  12   15.08    1.33 
  -4   3  12   14.90    1.63 
   3  -3 -12   20.67    1.42 
  -3   3  12   17.97    1.22 
  -3   3  12   18.69    1.32 
   2  -3 -12    1.51    0.91 
   2  -3 -12    1.57    0.80 
   2  -3 -12    1.94    0.82 
  -2   3  12    0.11    0.75 
  -2   3  12    1.54    0.76 
   1  -3 -12   18.06    1.67 
   1  -3 -12   19.56    1.41 
   1  -3 -12   18.54    1.55 
  -1   3  12   20.03    1.40 
  -1   3  12   19.81    1.75 
   0  -3 -12   18.16    1.47 
   0  -3 -12   18.35    1.55 
   0   3  12   18.20    1.55 
   0   3  12   19.57    1.99 
  -1  -3 -12    3.70    0.99 
  -1  -3 -12    4.82    1.06 
   1   3  12    5.81    0.98 
   1   3  12    6.19    1.37 
  -2  -3 -12    1.51    0.87 
  -2  -3 -12    3.87    1.22 
   2   3  12   -0.54    0.78 
   2   3  12    3.40    0.80 
   2   3  12    1.53    1.01 
  10  -4 -12    0.23    1.04 
 -10   4  12    0.55    0.87 
 -10   4  12   -0.52    0.99 
   9  -4 -12    6.56    1.20 
  -9   4  12   10.79    1.50 
  -9   4  12    8.96    1.12 
   8  -4 -12    6.93    1.23 
  -8   4  12   10.80    1.19 
  -8   4  12   10.99    1.57 
   7  -4 -12    3.21    0.92 
   7  -4 -12    6.21    1.03 
  -7   4  12    4.04    0.81 
  -7   4  12    3.91    1.06 
   6  -4 -12    2.22    0.67 
   6  -4 -12    0.68    0.79 
  -6   4  12    0.94    0.92 
  -6   4  12    0.26    0.90 
   5  -4 -12   15.62    1.30 
   5  -4 -12   16.76    1.75 
  -5   4  12   15.74    1.27 
  -5   4  12   18.11    1.77 
   4  -4 -12   25.80    1.62 
   4  -4 -12   24.40    1.25 
   4  -4 -12   22.94    1.58 
  -4   4  12   23.54    1.64 
  -4   4  12   25.61    1.93 
   3  -4 -12    9.91    1.31 
   3  -4 -12   11.40    1.36 
   3  -4 -12   10.60    1.07 
  -3   4  12   13.65    1.41 
  -3   4  12   11.84    1.24 
   2  -4 -12    3.75    1.44 
   2  -4 -12    2.61    0.97 
   2  -4 -12    3.91    0.83 
  -2   4  12    3.90    1.01 
  -2   4  12    5.01    0.91 
   1  -4 -12    0.69    0.91 
   1  -4 -12    0.31    0.68 
   1  -4 -12    0.76    0.72 
  -1   4  12   -0.54    0.68 
  -1   4  12   -0.49    0.86 
   0  -4 -12    2.38    0.91 
   0  -4 -12    2.68    0.93 
   0   4  12    2.65    0.80 
   0   4  12    3.92    0.97 
   0   4  12    2.72    1.11 
  -1  -4 -12    2.79    1.14 
  -1  -4 -12    2.33    0.93 
   1   4  12    3.73    0.94 
   1   4  12    2.84    1.03 
  -2  -4 -12   12.50    1.82 
  -2  -4 -12    9.52    1.69 
   2   4  12   11.42    1.96 
   2   4  12    6.10    1.33 
   2   4  12    7.33    1.27 
  10  -5 -12   -1.33    0.96 
 -10   5  12    0.72    1.18 
 -10   5  12    0.81    1.14 
   9  -5 -12    0.18    0.80 
  -9   5  12    0.84    1.11 
  -9   5  12    1.31    0.77 
   8  -5 -12   10.06    1.20 
   8  -5 -12    6.87    1.21 
  -8   5  12    9.50    1.62 
  -8   5  12    8.03    1.25 
   7  -5 -12    9.43    1.28 
   7  -5 -12   14.54    1.36 
  -7   5  12   11.24    1.60 
  -7   5  12   12.87    1.76 
   6  -5 -12   -1.07    0.79 
   6  -5 -12    0.67    0.72 
  -6   5  12    0.81    0.98 
  -6   5  12    2.32    0.76 
   5  -5 -12    0.06    0.81 
   5  -5 -12   -0.70    0.67 
  -5   5  12    0.30    1.09 
  -5   5  12   -0.35    0.78 
   4  -5 -12    5.83    1.09 
   4  -5 -12    5.12    0.87 
  -4   5  12    7.49    1.15 
  -4   5  12    5.63    1.26 
   3  -5 -12    2.35    0.63 
   3  -5 -12    1.95    0.88 
   3  -5 -12    2.44    0.77 
  -3   5  12    3.40    1.19 
  -3   5  12    1.64    0.84 
   2  -5 -12   21.25    1.42 
   2  -5 -12   17.13    1.40 
   2  -5 -12   21.53    1.74 
  -2   5  12   20.58    1.53 
  -2   5  12   19.58    1.70 
  -2   5  12   21.96    1.29 
   1  -5 -12    5.71    1.09 
   1  -5 -12    5.44    1.14 
   1  -5 -12    6.19    1.00 
  -1   5  12    5.80    0.99 
  -1   5  12    8.35    1.27 
   0  -5 -12    0.56    0.87 
   0  -5 -12    1.08    0.72 
   0   5  12    1.83    0.98 
   0   5  12   -1.11    0.97 
   0   5  12    1.48    0.77 
  -1  -5 -12    2.77    1.19 
  -1  -5 -12    1.37    1.03 
   1   5  12    2.07    0.91 
   1   5  12    0.60    0.90 
   1   5  12    5.55    1.45 
   9  -6 -12   -1.59    0.89 
  -9   6  12    0.61    0.94 
  -9   6  12   -0.23    0.85 
   8  -6 -12    2.90    1.10 
   8  -6 -12    4.83    0.75 
  -8   6  12    4.42    1.26 
  -8   6  12    4.57    0.91 
   7  -6 -12    5.58    1.02 
   7  -6 -12    2.55    0.97 
  -7   6  12    5.06    1.06 
  -7   6  12    4.51    1.23 
   6  -6 -12    5.49    0.91 
   6  -6 -12    6.92    1.32 
  -6   6  12    3.76    1.01 
  -6   6  12    5.80    1.29 
   5  -6 -12    9.34    1.45 
   5  -6 -12    9.65    1.34 
  -5   6  12   13.42    1.70 
  -5   6  12    9.91    1.39 
  -5   6  12   12.31    1.93 
   4  -6 -12   -0.18    0.98 
   4  -6 -12   -0.09    0.75 
  -4   6  12   -0.41    0.77 
  -4   6  12   -1.20    0.85 
  -4   6  12    0.68    1.06 
   3  -6 -12    1.18    0.81 
   3  -6 -12   -0.20    0.74 
  -3   6  12    1.22    0.83 
  -3   6  12    2.88    1.18 
  -3   6  12    2.22    0.74 
   2  -6 -12    2.48    1.03 
   2  -6 -12    1.93    0.98 
  -2   6  12    1.81    1.19 
  -2   6  12    0.38    0.98 
  -2   6  12    2.73    1.01 
   1  -6 -12    4.95    1.19 
   1  -6 -12    7.90    1.30 
   1  -6 -12    5.75    0.99 
  -1   6  12    6.51    1.19 
  -1   6  12    7.20    1.08 
   0  -6 -12   -0.57    1.01 
   0  -6 -12   -1.71    0.83 
   0   6  12    0.29    0.75 
   8  -7 -12   -0.43    0.74 
  -8   7  12   -0.68    0.94 
  -8   7  12   -0.92    1.04 
   7  -7 -12    0.28    0.79 
   7  -7 -12   -0.60    0.93 
  -7   7  12    0.50    1.12 
  -7   7  12    0.42    0.89 
  -7   7  12    1.66    0.80 
   6  -7 -12    4.43    1.28 
   6  -7 -12    2.83    0.99 
  -6   7  12    2.48    1.29 
  -6   7  12    3.29    1.03 
  -6   7  12    2.64    0.97 
   5  -7 -12    8.38    1.26 
   5  -7 -12    9.43    1.41 
  -5   7  12    9.12    1.38 
  -5   7  12   12.55    1.90 
  -5   7  12   10.64    1.32 
   4  -7 -12    0.89    0.98 
   4  -7 -12    0.29    0.77 
  -4   7  12   -1.10    0.90 
  -4   7  12    2.42    1.34 
  -4   7  12    0.46    1.01 
   3  -7 -12   -1.40    0.97 
   3  -7 -12   -0.44    0.71 
  -3   7  12    0.23    0.96 
  -3   7  12    2.31    1.36 
   2  -7 -12    0.97    0.94 
   2  -7 -12    2.13    1.06 
  -2   7  12    0.63    0.88 
  -2   7  12    3.23    1.36 
   1  -7 -12   18.81    1.90 
   1  -7 -12   18.55    1.67 
  -1   7  12   16.83    1.96 
   7  -8 -12    0.34    1.09 
   7  -8 -12   -1.13    0.78 
  -7   8  12   -0.35    0.89 
  -7   8  12   -1.23    1.09 
  -7   8  12    0.63    1.00 
   6  -8 -12   10.72    1.41 
   6  -8 -12   14.17    1.91 
  -6   8  12   11.37    1.97 
  -6   8  12    9.97    1.65 
   5  -8 -12   14.54    1.71 
   5  -8 -12   13.37    1.57 
  -5   8  12   13.84    1.29 
  -5   8  12   17.94    2.30 
   4  -8 -12    3.22    1.04 
   4  -8 -12    3.44    1.06 
  -4   8  12    3.54    1.23 
  -4   8  12    5.75    1.44 
   3  -8 -12    0.59    0.95 
   3  -8 -12    0.56    0.92 
  -3   8  12   -0.96    1.03 
  -3   8  12   -0.63    1.08 
   5  10 -13    5.10    1.35 
  -5 -10  13    5.05    1.00 
   4  10 -13    1.22    0.98 
  -4 -10  13    6.54    1.37 
  -4 -10  13    4.69    1.25 
  -4 -10  13    3.34    0.93 
   3  10 -13    0.14    0.86 
  -3 -10  13    0.62    0.87 
  -3 -10  13    0.84    1.05 
  -3 -10  13    0.50    1.02 
   2  10 -13    3.21    0.96 
  -2 -10  13    0.78    0.98 
  -2 -10  13    3.64    1.28 
  -2 -10  13    2.87    0.95 
   1  10 -13    6.96    1.14 
  -1 -10  13    7.47    1.13 
  -1 -10  13    7.90    1.47 
  -1 -10  13    9.14    1.60 
   6   9 -13    5.21    1.26 
  -6  -9  13    5.33    0.87 
  -6  -9  13    6.53    1.27 
  -6  -9  13    3.23    1.04 
   5   9 -13    4.77    1.17 
  -5  -9  13    5.05    0.89 
  -5  -9  13    3.28    1.00 
  -5  -9  13    4.52    1.34 
   4   9 -13   11.38    1.63 
  -4  -9  13    9.19    1.43 
  -4  -9  13   12.19    1.70 
  -4  -9  13   10.00    1.34 
   3   9 -13   -0.22    1.03 
  -3  -9  13   -0.58    0.92 
  -3  -9  13    0.32    0.81 
   2   9 -13    5.37    1.21 
  -2  -9  13    6.41    1.32 
  -2  -9  13    4.41    0.72 
  -2  -9  13    6.23    1.30 
   1   9 -13   16.33    1.79 
  -1  -9  13   16.28    1.66 
  -1  -9  13   15.84    1.33 
   0   9 -13    3.96    0.99 
   0   9 -13    2.41    0.95 
   0  -9  13    3.44    1.16 
   0  -9  13    1.71    0.96 
   1  -9  13    3.39    1.22 
   7   8 -13    2.88    1.07 
  -7  -8  13    4.48    1.17 
  -7  -8  13    5.02    1.01 
  -7  -8  13    4.00    1.37 
   6   8 -13    2.58    1.16 
  -6  -8  13    1.78    1.08 
  -6  -8  13    2.00    0.93 
   5   8 -13    1.27    0.94 
  -5  -8  13    2.36    1.10 
  -5  -8  13    1.98    0.76 
  -5  -8  13    0.26    0.86 
   4   8 -13   19.44    1.53 
  -4  -8  13   21.23    1.39 
  -4  -8  13   19.94    1.72 
  -4  -8  13   17.62    1.64 
   3   8 -13    0.57    0.86 
  -3  -8  13    0.70    0.62 
  -3  -8  13    0.59    0.96 
   2   8 -13    2.61    0.81 
  -2  -8  13    3.26    1.00 
   1   8 -13    5.63    1.03 
  -1  -8  13    4.11    1.05 
  -1  -8  13    3.51    0.88 
   0   8 -13   14.73    1.79 
   0   8 -13   11.00    1.58 
   0  -8  13   13.23    1.95 
   0  -8  13   12.31    1.34 
   0  -8  13    9.96    1.22 
  -1   8 -13    9.96    1.68 
  -1   8 -13    6.90    1.30 
   1  -8  13   10.70    1.37 
   1  -8  13   10.69    1.22 
   1  -8  13   11.83    1.87 
   8   7 -13    1.16    1.04 
  -8  -7  13   -0.62    0.96 
  -8  -7  13   -0.06    0.77 
  -8  -7  13    0.99    0.84 
   7   7 -13   -0.69    0.90 
  -7  -7  13    1.15    0.88 
  -7  -7  13    1.77    1.12 
  -7  -7  13   -0.12    0.75 
   6   7 -13   -0.32    0.75 
  -6  -7  13    0.43    0.69 
  -6  -7  13   -0.80    0.61 
  -6  -7  13   -0.42    0.75 
   5   7 -13   -0.78    0.75 
  -5  -7  13    1.07    0.85 
  -5  -7  13   -1.32    0.65 
  -5  -7  13    1.01    0.87 
   4   7 -13   23.91    1.75 
  -4  -7  13   24.63    1.61 
  -4  -7  13   19.12    1.71 
  -4  -7  13   27.00    1.94 
   3   7 -13    1.05    0.98 
  -3  -7  13   -1.09    0.86 
  -3  -7  13    0.67    0.85 
   2   7 -13    0.97    0.90 
   2   7 -13    3.17    1.13 
  -2  -7  13   -0.01    0.88 
  -2  -7  13    0.80    0.74 
   1   7 -13    1.42    0.92 
   1   7 -13    1.85    0.86 
  -1  -7  13    3.47    1.16 
  -1  -7  13    1.14    0.66 
  -1  -7  13    2.60    0.93 
   0   7 -13    4.51    1.09 
   0   7 -13    4.15    1.11 
   0  -7  13    4.51    0.95 
   0  -7  13    7.03    1.23 
   0  -7  13    4.13    1.02 
  -1   7 -13    1.57    1.03 
   1  -7  13    2.71    0.93 
   1  -7  13    1.40    0.99 
   1  -7  13    1.00    0.85 
  -2   7 -13    2.03    1.07 
   2  -7  13    4.30    0.88 
   2  -7  13    3.93    1.07 
   2  -7  13    2.94    1.10 
   9   6 -13    2.46    1.20 
  -9  -6  13    2.41    1.21 
  -9  -6  13    1.12    1.02 
   8   6 -13    6.72    1.28 
  -8  -6  13    5.87    1.19 
  -8  -6  13    4.79    1.10 
   7   6 -13    9.48    1.59 
  -7  -6  13    4.92    1.17 
  -7  -6  13    4.97    1.01 
  -7  -6  13    5.31    1.03 
   6   6 -13    2.21    0.99 
  -6  -6  13    0.43    0.80 
  -6  -6  13    0.70    0.80 
  -6  -6  13    1.91    1.01 
   5   6 -13    0.41    0.87 
  -5  -6  13   -0.77    0.70 
  -5  -6  13    0.47    0.90 
   4   6 -13    3.47    1.04 
  -4  -6  13    4.97    1.08 
  -4  -6  13    3.48    0.89 
   3   6 -13    4.66    1.08 
   3   6 -13    5.27    1.15 
  -3  -6  13    8.96    1.51 
  -3  -6  13    4.64    0.99 
   2   6 -13    0.20    0.86 
   2   6 -13    0.90    0.88 
  -2  -6  13    2.63    1.08 
  -2  -6  13    0.75    0.84 
  -2  -6  13    2.02    0.62 
   1   6 -13    5.81    1.09 
  -1  -6  13    6.36    0.95 
  -1  -6  13    6.74    1.05 
   0   6 -13    0.03    0.86 
   0   6 -13    0.76    0.81 
   0  -6  13   -0.42    0.67 
   0  -6  13    0.98    0.75 
  -1   6 -13    1.09    0.95 
   1  -6  13    0.58    0.87 
   1  -6  13    0.07    1.02 
   1  -6  13    1.05    1.09 
  -2   6 -13    5.48    1.22 
   2  -6  13    6.29    1.28 
   2  -6  13    5.33    1.27 
   2  -6  13    7.53    1.16 
   9   5 -13    0.29    0.90 
   9   5 -13    0.31    0.88 
  -9  -5  13   -0.28    0.82 
  -9  -5  13   -1.03    0.96 
   8   5 -13   10.87    1.53 
   8   5 -13   12.87    1.76 
  -8  -5  13   11.00    1.40 
  -8  -5  13   12.79    1.55 
   7   5 -13    4.73    1.13 
   7   5 -13    4.32    0.98 
  -7  -5  13    4.36    0.99 
  -7  -5  13    3.60    0.96 
   6   5 -13    2.51    0.99 
   6   5 -13    2.17    0.94 
  -6  -5  13    2.82    0.99 
  -6  -5  13    2.92    1.05 
   5   5 -13    1.24    0.88 
   5   5 -13    0.41    0.86 
  -5  -5  13    1.48    0.80 
  -5  -5  13    1.41    0.79 
   4   5 -13    0.33    0.57 
   4   5 -13   -0.01    0.75 
  -4  -5  13   -0.22    0.69 
  -4  -5  13   -0.52    0.67 
   3   5 -13    2.12    0.89 
   3   5 -13    0.87    0.82 
  -3  -5  13    0.71    0.65 
  -3  -5  13    1.25    0.52 
   2   5 -13   25.00    1.76 
   2   5 -13   26.73    1.65 
  -2  -5  13   21.03    1.61 
  -2  -5  13   25.16    1.54 
  -2  -5  13   26.52    1.48 
   1   5 -13   11.39    1.49 
   1   5 -13   12.16    1.50 
  -1  -5  13   12.26    1.44 
  -1  -5  13   15.08    1.60 
   0   5 -13    3.23    0.94 
   0   5 -13    0.97    0.89 
   0  -5  13    3.53    1.13 
   0  -5  13    2.07    0.79 
   0  -5  13    2.88    0.83 
  -1   5 -13    3.52    0.93 
   1  -5  13    4.00    0.99 
   1  -5  13    3.15    1.09 
   1  -5  13    5.04    0.97 
  -2   5 -13    8.03    1.18 
   2  -5  13   11.07    1.74 
   2  -5  13    9.42    1.33 
   2  -5  13    6.72    1.17 
  10   4 -13    7.96    1.44 
  10   4 -13    9.59    1.27 
 -10  -4  13    8.43    1.21 
 -10  -4  13    5.66    1.12 
   9   4 -13    4.71    0.95 
   9   4 -13    3.98    1.17 
  -9  -4  13    5.43    1.34 
  -9  -4  13    4.76    1.06 
   8   4 -13    1.44    0.95 
   8   4 -13    2.07    0.92 
  -8  -4  13    0.26    1.06 
  -8  -4  13    1.20    1.06 
   7   4 -13   -0.63    0.74 
   7   4 -13   -0.19    0.71 
  -7  -4  13    0.20    0.93 
  -7  -4  13   -0.30    0.85 
   6   4 -13   12.13    1.51 
   6   4 -13   16.34    1.54 
  -6  -4  13   15.73    1.55 
  -6  -4  13   14.95    1.42 
   5   4 -13   15.08    1.64 
   5   4 -13   14.68    1.50 
  -5  -4  13   13.16    1.39 
  -5  -4  13   14.65    1.56 
  -5  -4  13   16.49    1.40 
   4   4 -13    5.91    1.09 
   4   4 -13    3.57    0.80 
  -4  -4  13    4.28    0.82 
  -4  -4  13    4.37    0.98 
  -4  -4  13    5.82    1.11 
   3   4 -13   23.78    1.61 
   3   4 -13   22.75    1.55 
  -3  -4  13   23.86    1.51 
  -3  -4  13   21.07    1.36 
  -3  -4  13   22.80    1.82 
   2   4 -13   26.57    1.63 
   2   4 -13   26.58    1.79 
  -2  -4  13   25.36    1.33 
  -2  -4  13   27.22    1.80 
  -2  -4  13   21.80    1.28 
  -2  -4  13   24.47    1.54 
   1   4 -13   12.35    1.37 
   1   4 -13   11.07    1.52 
  -1  -4  13    9.39    1.25 
  -1  -4  13   10.23    1.34 
  -1  -4  13   12.13    1.22 
  -1  -4  13   11.84    1.08 
   0   4 -13    2.01    0.77 
   0  -4  13    3.75    0.93 
   0  -4  13    4.99    1.00 
   0  -4  13    3.04    0.96 
  -1   4 -13   -0.84    0.68 
   1  -4  13   -0.18    0.84 
   1  -4  13    2.81    1.14 
   1  -4  13   -0.71    0.69 
  -2   4 -13   11.73    1.53 
   2  -4  13   12.60    1.59 
   2  -4  13    9.42    1.35 
  -3   4 -13   11.59    1.64 
  -3   4 -13    9.53    1.54 
   3  -4  13    8.17    1.37 
   3  -4  13   10.05    1.67 
  10   3 -13   13.30    1.46 
  10   3 -13   15.90    2.00 
 -10  -3  13   16.79    1.98 
 -10  -3  13   14.86    1.74 
   9   3 -13    3.64    0.87 
   9   3 -13    3.79    1.10 
  -9  -3  13    3.89    1.09 
  -9  -3  13    2.71    0.89 
   8   3 -13    0.67    1.07 
   8   3 -13    0.40    0.75 
  -8  -3  13   -1.35    0.76 
  -8  -3  13   -0.22    0.70 
   7   3 -13    0.26    0.76 
   7   3 -13    0.05    0.91 
  -7  -3  13   -0.87    0.77 
  -7  -3  13   -0.31    0.61 
   6   3 -13   57.03    2.26 
   6   3 -13   52.39    2.29 
  -6  -3  13   52.35    2.18 
  -6  -3  13   52.88    1.79 
   5   3 -13   23.06    1.60 
   5   3 -13   22.55    1.61 
  -5  -3  13   22.13    1.40 
  -5  -3  13   22.72    1.54 
  -5  -3  13   25.03    1.23 
   4   3 -13   23.19    1.71 
   4   3 -13   24.48    1.58 
  -4  -3  13   25.75    1.79 
  -4  -3  13   26.41    1.17 
  -4  -3  13   22.39    1.50 
   3   3 -13    7.40    1.16 
   3   3 -13    8.65    1.22 
  -3  -3  13    9.24    1.06 
  -3  -3  13    7.41    1.16 
  -3  -3  13    8.28    0.93 
  -3  -3  13    8.83    1.20 
   2   3 -13    3.47    0.94 
   2   3 -13    1.73    1.30 
  -2  -3  13    3.18    0.55 
  -2  -3  13    2.91    0.87 
  -2  -3  13    3.83    0.93 
  -2  -3  13    4.66    1.15 
   1   3 -13   14.91    1.44 
   1   3 -13   14.61    1.38 
  -1  -3  13   15.50    1.47 
  -1  -3  13   15.58    1.76 
  -1  -3  13   15.86    1.40 
  -1  -3  13   15.81    1.64 
   0   3 -13   39.75    1.87 
   0   3 -13   38.57    2.02 
   0  -3  13   37.43    2.05 
   0  -3  13   38.55    1.98 
   0  -3  13   39.05    1.95 
  -1   3 -13    1.00    0.89 
   1  -3  13    1.40    0.83 
   1  -3  13   -0.41    0.80 
   1  -3  13    2.19    0.88 
  -2   3 -13    1.21    1.18 
  -2   3 -13    0.53    0.93 
   2  -3  13    0.36    0.98 
   2  -3  13    0.12    0.93 
  -3   3 -13   11.98    1.78 
   3  -3  13    8.94    1.35 
   3  -3  13   12.85    1.80 
  10   2 -13   10.26    1.15 
  10   2 -13    7.86    1.28 
 -10  -2  13    7.80    1.43 
 -10  -2  13    7.98    1.22 
   9   2 -13   19.14    1.84 
   9   2 -13   16.77    1.49 
  -9  -2  13   18.24    1.50 
  -9  -2  13   16.92    1.44 
   8   2 -13    6.53    1.29 
   8   2 -13    4.57    0.84 
  -8  -2  13    6.58    1.22 
  -8  -2  13    5.22    1.13 
   7   2 -13   -0.37    0.85 
   7   2 -13    0.85    0.76 
  -7  -2  13    1.48    0.55 
  -7  -2  13    0.64    0.94 
  -7  -2  13    0.39    0.85 
   6   2 -13    8.48    1.22 
   6   2 -13    6.48    1.13 
  -6  -2  13    7.36    1.08 
  -6  -2  13    6.15    1.08 
  -6  -2  13    4.96    0.89 
   5   2 -13   15.77    1.46 
   5   2 -13   13.05    1.47 
  -5  -2  13   13.62    1.29 
  -5  -2  13   12.95    1.16 
  -5  -2  13   15.06    1.59 
   4   2 -13   15.40    1.45 
   4   2 -13   17.26    1.48 
  -4  -2  13   17.45    1.49 
  -4  -2  13   16.32    1.27 
  -4  -2  13   15.22    1.31 
  -4  -2  13   16.49    1.10 
   3   2 -13   -0.17    1.30 
   3   2 -13    0.36    0.54 
  -3  -2  13    0.11    0.70 
  -3  -2  13    0.58    0.67 
  -3  -2  13    1.29    0.76 
  -3  -2  13   -0.53    0.61 
   2   2 -13    2.32    0.99 
   2   2 -13    0.11    0.69 
  -2  -2  13    0.45    0.79 
  -2  -2  13   -0.20    0.77 
  -2  -2  13   -0.12    0.64 
  -2  -2  13   -0.21    0.74 
   1   2 -13    9.76    1.42 
   1   2 -13   13.31    1.38 
  -1  -2  13   13.88    1.42 
  -1  -2  13   15.15    1.68 
  -1  -2  13   10.67    1.40 
   0   2 -13   25.22    1.65 
   0  -2  13   27.34    1.87 
   0  -2  13   30.06    1.81 
   0  -2  13   28.45    1.70 
  -1   2 -13    1.07    0.91 
   1  -2  13    1.34    0.67 
  -2   2 -13    0.04    0.91 
  -2   2 -13    0.93    1.08 
   2  -2  13    2.53    1.12 
   2  -2  13    1.12    0.96 
  -3   2 -13   -0.25    1.11 
  -3   2 -13   -0.09    1.12 
   3  -2  13    0.51    1.08 
  10   1 -13    3.48    0.95 
 -10  -1  13    2.32    1.04 
   9   1 -13   18.78    1.56 
   9   1 -13   22.63    1.94 
  -9  -1  13   18.78    1.42 
  -9  -1  13   17.44    1.75 
  -9  -1  13   15.11    1.71 
   8   1 -13   20.91    1.52 
   8   1 -13   22.06    1.84 
  -8  -1  13   22.19    1.71 
  -8  -1  13   25.88    1.78 
  -8  -1  13   23.85    1.37 
   7   1 -13    6.99    1.04 
   7   1 -13    4.61    0.98 
  -7  -1  13    4.93    1.05 
  -7  -1  13    6.53    1.18 
   6   1 -13   -1.57    0.77 
   6   1 -13    0.57    0.61 
  -6  -1  13   -1.34    0.76 
   5   1 -13    7.97    1.37 
   5   1 -13   10.65    1.36 
  -5  -1  13   12.06    1.10 
  -5  -1  13    8.27    1.18 
  -5  -1  13    9.86    1.21 
   4   1 -13    0.58    0.84 
   4   1 -13    1.10    0.85 
  -4  -1  13    0.67    0.69 
  -4  -1  13    1.12    0.59 
  -4  -1  13    0.52    0.83 
  -4  -1  13    0.80    0.86 
   3   1 -13    2.84    0.74 
  -3  -1  13    3.55    0.85 
  -3  -1  13    3.94    0.76 
  -3  -1  13    3.38    0.87 
   2   1 -13    3.26    0.96 
   2   1 -13    2.26    0.95 
  -2  -1  13    2.50    0.64 
  -2  -1  13    2.98    0.87 
  -2  -1  13    1.62    0.55 
   1   1 -13    0.78    0.92 
   1   1 -13   -0.57    0.70 
  -1  -1  13    0.53    0.76 
  -1  -1  13    0.36    0.63 
  -1  -1  13    0.61    0.95 
   0   1 -13   -0.64    0.73 
   0  -1  13    0.35    0.97 
   0  -1  13   -0.15    0.80 
   0  -1  13    0.34    0.71 
  -1   1 -13    0.68    1.02 
  -1   1 -13    1.42    0.99 
   1  -1  13    2.00    1.02 
   1  -1  13    0.65    0.74 
  -2   1 -13    3.98    1.13 
  -2   1 -13    3.18    1.08 
   2  -1  13    5.44    1.20 
   2  -1  13    3.49    1.15 
  11   0 -13    2.35    1.24 
  10   0 -13   -1.08    0.80 
 -10   0  13    0.29    0.84 
 -10   0  13   -0.19    0.97 
   9   0 -13    0.73    0.69 
   9   0 -13    1.78    1.13 
  -9   0  13    1.44    0.93 
  -9   0  13    1.15    0.89 
  -9   0  13   -0.13    0.93 
   8   0 -13    4.12    0.95 
   8   0 -13    2.19    0.93 
  -8   0  13    4.56    1.21 
  -8   0  13    2.97    1.68 
   7   0 -13    0.60    0.87 
   7   0 -13    2.74    0.91 
  -7   0  13    2.61    0.99 
  -7   0  13    4.44    0.83 
  -7   0  13    4.58    1.20 
   6   0 -13   -0.07    0.83 
  -6   0  13   -0.47    0.76 
  -6   0  13    0.54    0.67 
  -6   0  13   -1.10    0.83 
  -6   0  13    0.56    0.69 
   5   0 -13    2.33    0.92 
   5   0 -13    2.56    0.86 
  -5   0  13    1.91    0.94 
  -5   0  13    2.78    0.66 
  -5   0  13    2.35    0.85 
   4   0 -13    5.46    1.18 
   4   0 -13    4.43    0.94 
  -4   0  13    5.36    0.83 
  -4   0  13    5.66    0.79 
  -4   0  13    4.86    1.25 
  -4   0  13    6.17    1.06 
   3   0 -13   11.62    1.81 
   3   0 -13   10.49    1.22 
  -3   0  13   15.34    1.25 
  -3   0  13   13.09    1.08 
  -3   0  13   13.37    1.31 
   2   0 -13   10.15    1.25 
   2   0 -13    9.83    1.31 
  -2   0  13    7.19    1.15 
  -2   0  13    8.02    1.28 
  -2   0  13    6.73    1.16 
   1   0 -13    2.67    0.81 
   1   0 -13    1.18    0.78 
  -1   0  13    2.03    0.96 
  -1   0  13    3.14    1.03 
  -1   0  13    2.26    0.90 
   0   0 -13    1.03    0.81 
   0   0 -13    1.63    1.03 
   0   0  13    0.13    0.66 
   0   0  13    2.63    1.15 
  -1   0 -13   11.94    1.67 
  -1   0 -13   14.34    1.79 
   1   0  13   14.49    1.70 
   1   0  13   16.18    1.95 
  -2   0 -13    7.54    1.38 
  -2   0 -13    7.50    1.28 
   2   0  13    7.58    1.25 
   2   0  13    9.69    1.60 
  10  -1 -13   -0.33    0.99 
 -10   1  13    0.55    0.80 
   9  -1 -13    1.38    1.21 
   9  -1 -13   -1.03    0.70 
  -9   1  13    0.96    0.97 
  -9   1  13    0.28    0.76 
   8  -1 -13    1.87    0.67 
   8  -1 -13    0.95    1.03 
  -8   1  13    0.08    0.83 
  -8   1  13    3.01    1.17 
  -8   1  13    0.30    0.88 
   7  -1 -13    2.23    0.83 
   7  -1 -13    0.90    0.96 
  -7   1  13    1.68    1.00 
  -7   1  13    3.66    0.94 
  -7   1  13    2.02    0.89 
  -7   1  13    4.88    1.13 
   6  -1 -13   12.79    1.30 
   6  -1 -13   10.53    1.40 
  -6   1  13   11.51    1.27 
  -6   1  13   10.16    1.32 
  -6   1  13   13.64    1.38 
  -6   1  13   10.55    1.16 
   5  -1 -13    0.73    0.80 
   5  -1 -13    0.27    1.06 
  -5   1  13    1.29    0.97 
  -5   1  13   -0.24    0.85 
  -5   1  13    1.67    0.68 
  -5   1  13    0.51    0.75 
   4  -1 -13    5.84    0.99 
   4  -1 -13    7.99    1.35 
  -4   1  13    9.99    1.10 
  -4   1  13    8.53    1.45 
  -4   1  13    6.39    1.23 
   3  -1 -13    7.06    1.17 
   3  -1 -13    5.53    1.08 
  -3   1  13    6.37    1.08 
  -3   1  13    6.89    1.21 
  -3   1  13    6.87    1.18 
   2  -1 -13   18.40    1.60 
   2  -1 -13   19.93    1.65 
  -2   1  13   18.52    1.73 
  -2   1  13   17.59    1.47 
  -2   1  13   19.99    1.61 
   1  -1 -13    4.69    1.02 
   1  -1 -13    3.58    0.98 
   1  -1 -13    4.92    0.95 
  -1   1  13    5.18    1.07 
  -1   1  13    4.59    1.10 
   0  -1 -13   -0.71    0.84 
   0  -1 -13    0.91    0.84 
   0   1  13   -1.65    0.79 
  -1  -1 -13    5.27    1.13 
  -1  -1 -13    3.06    1.00 
   1   1  13    2.92    0.83 
   1   1  13    2.95    0.93 
  -2  -1 -13   16.28    1.75 
  -2  -1 -13   17.63    1.83 
   2   1  13   14.82    1.67 
   2   1  13   16.87    1.82 
  10  -2 -13    2.35    1.24 
 -10   2  13    1.11    1.01 
 -10   2  13    1.25    0.92 
   9  -2 -13    0.68    0.78 
   9  -2 -13    1.47    1.08 
  -9   2  13    0.86    0.98 
  -9   2  13    1.21    1.01 
   8  -2 -13    6.93    1.23 
   8  -2 -13    8.11    1.19 
  -8   2  13    8.38    1.43 
  -8   2  13    9.96    1.52 
   7  -2 -13   24.73    1.48 
   7  -2 -13   21.94    1.83 
  -7   2  13   25.59    1.84 
  -7   2  13   23.48    1.56 
   6  -2 -13   46.74    2.28 
   6  -2 -13   48.78    2.13 
  -6   2  13   48.79    2.07 
  -6   2  13   46.48    1.98 
  -6   2  13   47.65    2.12 
   5  -2 -13    2.98    0.77 
   5  -2 -13    2.64    1.05 
  -5   2  13    3.85    0.95 
  -5   2  13    3.81    0.79 
  -5   2  13    3.89    1.01 
   4  -2 -13    0.01    0.57 
   4  -2 -13    0.76    0.67 
  -4   2  13   -0.11    0.90 
  -4   2  13   -0.19    0.67 
  -4   2  13    0.61    0.83 
   3  -2 -13   -1.28    0.72 
   3  -2 -13   -1.07    0.82 
  -3   2  13    0.55    0.79 
  -3   2  13   -0.46    0.68 
   2  -2 -13   21.57    1.97 
   2  -2 -13   24.81    1.66 
   2  -2 -13   24.19    1.71 
  -2   2  13   24.74    1.67 
  -2   2  13   24.09    1.87 
   1  -2 -13   36.64    1.84 
   1  -2 -13   36.06    2.03 
   1  -2 -13   35.60    1.96 
  -1   2  13   36.77    1.87 
  -1   2  13   32.98    2.35 
   0  -2 -13   14.33    1.65 
   0  -2 -13   12.86    1.50 
   0   2  13   12.55    1.52 
   0   2  13   13.44    2.00 
  -1  -2 -13    2.04    0.92 
  -1  -2 -13    1.56    1.07 
   1   2  13    4.59    1.40 
   1   2  13    2.95    0.82 
  10  -3 -13    6.97    1.61 
 -10   3  13    5.27    1.31 
 -10   3  13    4.66    1.17 
   9  -3 -13   16.82    2.04 
   9  -3 -13   14.81    1.15 
  -9   3  13   12.65    1.34 
  -9   3  13   12.70    1.57 
   8  -3 -13   -1.24    0.87 
   8  -3 -13   -0.49    0.79 
  -8   3  13    0.47    0.74 
  -8   3  13   -0.52    0.66 
   7  -3 -13    5.13    0.89 
   7  -3 -13    4.57    1.24 
  -7   3  13    5.96    1.10 
  -7   3  13    5.84    1.02 
   6  -3 -13   20.07    1.84 
   6  -3 -13   18.85    1.45 
  -6   3  13   17.95    1.51 
  -6   3  13   16.56    1.82 
   5  -3 -13   23.53    1.60 
   5  -3 -13   21.92    1.81 
  -5   3  13   22.38    1.53 
  -5   3  13   20.43    1.87 
  -5   3  13   20.19    1.48 
   4  -3 -13    8.45    1.21 
   4  -3 -13    6.89    1.11 
  -4   3  13    7.26    1.19 
  -4   3  13    6.85    1.21 
   3  -3 -13    0.80    0.90 
   3  -3 -13    2.37    0.84 
  -3   3  13   -1.11    0.76 
  -3   3  13    0.24    0.85 
   2  -3 -13   50.72    2.08 
   2  -3 -13   52.05    2.40 
   2  -3 -13   51.57    2.18 
  -2   3  13   50.77    2.13 
  -2   3  13   47.93    2.24 
   1  -3 -13    8.58    1.40 
   1  -3 -13    4.96    0.93 
   1  -3 -13    6.33    1.82 
  -1   3  13    7.24    1.21 
  -1   3  13    5.38    1.00 
   0  -3 -13    6.37    1.23 
   0  -3 -13    3.77    0.93 
   0   3  13    5.35    1.10 
   0   3  13    3.12    0.94 
  -1  -3 -13    1.11    0.92 
  -1  -3 -13    1.65    1.11 
   1   3  13    2.98    1.45 
   1   3  13    1.82    1.04 
  10  -4 -13    5.86    1.44 
 -10   4  13    6.12    1.47 
 -10   4  13    5.37    1.37 
   9  -4 -13   19.17    1.77 
   9  -4 -13   18.24    1.59 
  -9   4  13   21.29    1.51 
  -9   4  13   20.51    1.86 
   8  -4 -13    0.16    0.83 
   8  -4 -13    0.52    0.84 
  -8   4  13    0.98    0.92 
  -8   4  13    1.90    1.07 
   7  -4 -13    0.06    1.00 
   7  -4 -13   -0.45    0.78 
  -7   4  13   -0.85    0.88 
  -7   4  13    0.98    0.94 
   6  -4 -13    7.16    1.15 
   6  -4 -13   10.00    1.74 
  -6   4  13    7.96    1.39 
  -6   4  13    6.99    1.18 
   5  -4 -13   25.37    1.48 
   5  -4 -13   24.46    1.66 
  -5   4  13   24.70    1.63 
  -5   4  13   27.03    2.17 
   4  -4 -13    8.37    1.11 
   4  -4 -13    8.67    1.50 
   4  -4 -13    7.05    1.05 
  -4   4  13   10.38    1.73 
  -4   4  13    6.36    1.07 
   3  -4 -13    1.28    0.84 
   3  -4 -13   -0.82    0.92 
  -3   4  13    0.88    1.07 
  -3   4  13    0.34    0.80 
   2  -4 -13    1.02    0.91 
   2  -4 -13    1.12    0.72 
   2  -4 -13    0.59    0.92 
  -2   4  13    0.49    1.06 
  -2   4  13   -1.07    0.91 
   1  -4 -13    1.51    0.86 
   1  -4 -13    0.72    0.83 
  -1   4  13    2.52    0.91 
  -1   4  13    1.65    0.92 
   0  -4 -13    2.20    1.18 
   0  -4 -13    0.47    0.72 
   0   4  13    1.16    0.80 
   9  -5 -13    3.48    1.19 
  -9   5  13    5.06    0.99 
  -9   5  13    4.14    1.32 
   8  -5 -13   -1.82    0.98 
   8  -5 -13   -0.08    0.73 
  -8   5  13    0.47    0.89 
  -8   5  13   -0.94    0.93 
   7  -5 -13    0.47    0.84 
   7  -5 -13    0.13    1.03 
  -7   5  13    0.67    0.77 
  -7   5  13    0.00    1.07 
   6  -5 -13    3.79    0.89 
   6  -5 -13    4.33    1.25 
  -6   5  13    4.10    1.37 
  -6   5  13    4.80    1.01 
   5  -5 -13    0.92    0.84 
   5  -5 -13    1.06    0.89 
  -5   5  13    2.37    1.14 
  -5   5  13    2.25    0.97 
   4  -5 -13    4.30    1.01 
   4  -5 -13    4.51    1.15 
  -4   5  13    4.49    0.93 
  -4   5  13    5.16    1.39 
   3  -5 -13    3.32    1.11 
   3  -5 -13    2.19    1.11 
  -3   5  13    3.84    1.41 
  -3   5  13    3.02    0.90 
   2  -5 -13    0.97    0.66 
   2  -5 -13    1.63    1.00 
   2  -5 -13    1.55    1.02 
  -2   5  13    2.97    0.93 
  -2   5  13    1.80    1.28 
   1  -5 -13    1.54    1.00 
   1  -5 -13    0.21    0.90 
  -1   5  13    2.50    0.95 
  -1   5  13    3.59    1.41 
   8  -6 -13    4.10    1.27 
  -8   6  13    4.87    1.20 
  -8   6  13    4.22    1.17 
   7  -6 -13    6.13    1.41 
   7  -6 -13    5.96    1.14 
  -7   6  13    5.68    1.42 
  -7   6  13    7.02    1.24 
   6  -6 -13    3.10    1.00 
   6  -6 -13    2.83    1.17 
  -6   6  13    2.19    0.90 
  -6   6  13    5.32    1.46 
   5  -6 -13   -0.70    0.86 
   5  -6 -13   -0.33    0.84 
  -5   6  13   -0.57    1.02 
  -5   6  13    0.07    0.84 
   4  -6 -13    1.02    0.96 
   4  -6 -13    2.63    0.96 
  -4   6  13    2.88    1.36 
  -4   6  13    1.95    0.97 
   3  -6 -13   -0.48    1.00 
   3  -6 -13   -0.74    0.92 
  -3   6  13    1.27    1.30 
  -3   6  13    1.00    0.93 
   2  -6 -13    5.55    1.07 
   2  -6 -13    4.09    1.32 
  -2   6  13    4.52    1.42 
  -2   6  13    5.27    0.95 
   6  -7 -13    5.83    1.30 
   6  -7 -13    4.81    1.12 
  -6   7  13    5.20    1.24 
  -6   7  13    6.99    1.59 
   5  -7 -13    0.47    0.86 
   5  -7 -13    1.12    1.10 
  -5   7  13    0.48    0.88 
  -5   7  13    0.05    1.21 
   4  -7 -13    0.86    0.90 
   4  -7 -13   -0.35    0.83 
  -4   7  13    3.43    1.53 
   4   9 -14    6.07    1.37 
  -4  -9  14    6.06    1.29 
  -4  -9  14    6.93    1.43 
  -4  -9  14    6.37    1.05 
   3   9 -14    4.94    1.31 
  -3  -9  14    3.03    1.00 
   2   9 -14    4.22    1.25 
  -2  -9  14    4.72    1.23 
  -2  -9  14    6.68    1.54 
   6   8 -14    0.86    1.10 
  -6  -8  14    2.57    1.19 
  -6  -8  14    0.92    0.75 
  -6  -8  14   -0.21    0.99 
   5   8 -14    5.20    1.12 
  -5  -8  14    5.61    1.22 
  -5  -8  14    7.61    1.34 
   4   8 -14    5.75    1.18 
  -4  -8  14    5.86    1.17 
  -4  -8  14    4.28    1.08 
   3   8 -14    1.71    1.05 
   3   8 -14   -0.68    0.86 
  -3  -8  14   -0.53    1.11 
  -3  -8  14   -0.40    0.89 
   2   8 -14    1.25    0.91 
   2   8 -14   -1.67    0.87 
  -2  -8  14   -0.90    0.97 
  -2  -8  14    0.41    0.83 
   1   8 -14   14.42    1.96 
   1   8 -14   14.22    1.67 
  -1  -8  14   14.12    1.52 
  -1  -8  14    9.58    1.65 
   7   7 -14   -1.02    0.89 
  -7  -7  14    2.09    1.23 
  -7  -7  14    0.59    0.95 
   6   7 -14    3.00    1.27 
  -6  -7  14    1.74    1.02 
  -6  -7  14    0.53    1.09 
   5   7 -14    5.84    1.30 
  -5  -7  14    4.79    1.09 
  -5  -7  14    2.96    1.08 
   4   7 -14    0.44    0.90 
   4   7 -14    1.46    1.14 
  -4  -7  14    0.69    0.83 
   3   7 -14   -1.22    0.80 
   3   7 -14    1.52    1.04 
  -3  -7  14    1.52    0.83 
   2   7 -14    5.35    1.20 
   2   7 -14    4.59    1.21 
  -2  -7  14    5.79    1.25 
  -2  -7  14    2.52    1.00 
   1   7 -14   13.45    1.66 
   1   7 -14   10.94    1.61 
  -1  -7  14   11.95    1.43 
  -1  -7  14   15.07    1.85 
   0   7 -14    0.29    1.02 
   0   7 -14    1.82    1.10 
   0  -7  14    0.93    1.10 
   0  -7  14    0.52    0.99 
   0  -7  14    1.94    0.91 
   8   6 -14    3.25    1.23 
   8   6 -14    3.52    1.21 
  -8  -6  14    2.90    0.98 
  -8  -6  14    3.14    1.10 
   7   6 -14    0.44    1.09 
   7   6 -14    0.20    0.99 
  -7  -6  14   -0.03    0.77 
  -7  -6  14    0.77    1.07 
   6   6 -14    2.30    1.02 
   6   6 -14    1.60    1.00 
  -6  -6  14    0.57    0.70 
  -6  -6  14    1.19    1.04 
   5   6 -14    8.68    1.29 
   5   6 -14    9.28    1.27 
  -5  -6  14   10.65    1.32 
  -5  -6  14   13.00    1.64 
   4   6 -14    7.66    1.24 
   4   6 -14   10.14    1.48 
  -4  -6  14    7.37    1.26 
  -4  -6  14    9.95    1.74 
   3   6 -14    0.32    0.89 
   3   6 -14    0.34    0.74 
  -3  -6  14    0.77    0.90 
  -3  -6  14    1.11    1.14 
   2   6 -14   -0.12    0.80 
   2   6 -14    0.24    0.86 
  -2  -6  14    3.05    1.24 
  -2  -6  14   -1.26    0.66 
   1   6 -14   -0.64    0.91 
   1   6 -14    0.09    0.94 
  -1  -6  14    1.12    1.06 
  -1  -6  14    0.01    1.03 
  -1  -6  14    0.39    0.75 
   0   6 -14    2.79    1.31 
   0   6 -14    3.08    1.10 
   0  -6  14    0.98    0.99 
   0  -6  14    4.40    1.15 
   0  -6  14    3.91    0.93 
  -1   6 -14    5.87    1.16 
   1  -6  14    3.25    1.18 
   1  -6  14    6.84    1.23 
   1  -6  14    5.26    1.08 
   9   5 -14    5.13    1.10 
   9   5 -14    4.19    1.20 
  -9  -5  14    3.43    1.02 
   8   5 -14    3.16    1.03 
   8   5 -14    4.19    1.12 
  -8  -5  14    3.34    1.09 
  -8  -5  14    4.57    1.04 
   7   5 -14    0.32    0.84 
   7   5 -14   -0.71    0.92 
  -7  -5  14    0.24    0.89 
  -7  -5  14   -0.87    0.81 
   6   5 -14   -0.50    1.01 
   6   5 -14    0.22    0.97 
  -6  -5  14    0.40    0.89 
  -6  -5  14    0.36    0.80 
   5   5 -14    1.58    0.99 
   5   5 -14    0.99    0.91 
  -5  -5  14    1.80    0.96 
  -5  -5  14    1.18    0.73 
   4   5 -14   12.03    1.61 
   4   5 -14    9.86    1.28 
  -4  -5  14   13.21    1.69 
  -4  -5  14   12.09    1.34 
   3   5 -14    3.20    0.93 
   3   5 -14    4.69    0.98 
  -3  -5  14    4.15    0.84 
  -3  -5  14    2.24    0.93 
  -3  -5  14    3.43    1.05 
   2   5 -14   31.89    1.82 
   2   5 -14   31.91    2.02 
  -2  -5  14   27.22    1.88 
  -2  -5  14   30.52    1.63 
  -2  -5  14   31.38    1.86 
   1   5 -14    0.01    0.92 
   1   5 -14    1.65    0.97 
  -1  -5  14    0.07    0.87 
  -1  -5  14   -0.70    0.76 
  -1  -5  14    0.37    0.79 
   0  -5  14    5.66    1.20 
   0  -5  14    7.53    1.20 
   0  -5  14    5.61    1.18 
  -1   5 -14    5.37    1.05 
   1  -5  14    3.06    0.84 
   1  -5  14    6.03    1.55 
   1  -5  14    4.94    1.30 
   9   4 -14    1.12    1.08 
   9   4 -14    1.58    0.88 
  -9  -4  14    0.63    1.23 
  -9  -4  14    0.42    0.73 
   8   4 -14    8.08    1.48 
   8   4 -14    5.75    1.05 
  -8  -4  14    6.45    1.23 
  -8  -4  14    6.18    1.31 
   7   4 -14    3.16    1.05 
   7   4 -14    4.93    0.99 
  -7  -4  14    3.95    1.20 
  -7  -4  14    3.53    1.08 
   6   4 -14   10.49    1.66 
   6   4 -14    9.41    1.44 
  -6  -4  14    7.51    1.16 
  -6  -4  14   10.12    1.59 
   5   4 -14    0.55    0.85 
   5   4 -14    0.48    0.82 
  -5  -4  14   -1.03    0.93 
  -5  -4  14    0.27    0.92 
   4   4 -14   11.28    1.53 
   4   4 -14   10.90    1.35 
  -4  -4  14   11.39    1.44 
  -4  -4  14   10.82    0.99 
  -4  -4  14   10.13    1.39 
   3   4 -14   19.21    1.59 
   3   4 -14   20.40    1.71 
  -3  -4  14   19.98    1.60 
  -3  -4  14   24.44    1.90 
   2   4 -14   12.45    1.64 
   2   4 -14    8.63    1.53 
  -2  -4  14   10.02    1.40 
  -2  -4  14   11.64    1.73 
  -2  -4  14   12.16    1.39 
   1   4 -14   10.30    1.55 
  -1  -4  14    9.71    1.29 
  -1  -4  14    8.99    1.42 
  -1  -4  14    6.75    1.12 
   0   4 -14    9.32    1.33 
   0  -4  14   10.09    1.47 
   0  -4  14    6.46    1.07 
   0  -4  14   11.51    1.62 
  -1   4 -14    3.69    1.20 
   1  -4  14    3.93    1.15 
   1  -4  14    2.42    0.95 
   9   3 -14    1.13    1.19 
   9   3 -14    0.14    0.77 
  -9  -3  14   -0.19    1.12 
  -9  -3  14    0.28    1.10 
   8   3 -14    4.92    0.99 
   8   3 -14    2.93    0.95 
  -8  -3  14    1.91    0.95 
  -8  -3  14    4.74    1.08 
   7   3 -14   12.83    1.49 
   7   3 -14   11.33    1.47 
  -7  -3  14   12.27    1.46 
  -7  -3  14   12.92    1.47 
   6   3 -14   22.10    1.93 
   6   3 -14   24.13    1.76 
  -6  -3  14   20.61    1.59 
  -6  -3  14   22.24    1.36 
  -6  -3  14   25.69    1.62 
   5   3 -14    2.10    0.86 
   5   3 -14    1.79    1.02 
  -5  -3  14    1.95    0.70 
  -5  -3  14    1.04    0.78 
  -5  -3  14    1.12    0.65 
   4   3 -14    0.62    0.78 
   4   3 -14    1.35    0.79 
  -4  -3  14    1.57    0.58 
  -4  -3  14    0.69    0.90 
  -4  -3  14   -1.21    0.69 
   3   3 -14    2.88    0.87 
   3   3 -14    3.78    0.95 
  -3  -3  14    3.26    0.99 
  -3  -3  14    2.89    1.00 
  -3  -3  14    1.87    0.82 
   2   3 -14   10.37    1.61 
   2   3 -14   15.24    1.66 
  -2  -3  14   11.65    1.50 
  -2  -3  14   12.97    1.60 
  -2  -3  14   14.24    1.56 
   1   3 -14   20.51    1.78 
   1   3 -14   14.90    1.62 
  -1  -3  14   17.99    1.43 
  -1  -3  14   22.05    1.97 
  -1  -3  14   17.48    1.55 
   0   3 -14    5.52    1.21 
   0  -3  14    5.13    1.36 
   0  -3  14    2.92    0.96 
   0  -3  14    3.66    0.95 
  -1   3 -14    0.55    1.05 
   1  -3  14    1.56    1.10 
   1  -3  14    0.08    0.92 
  10   2 -14    0.95    0.98 
  10   2 -14    1.64    1.34 
 -10  -2  14    2.12    1.30 
   9   2 -14    1.12    0.70 
   9   2 -14   -1.11    0.81 
  -9  -2  14   -1.63    0.91 
  -9  -2  14    1.16    0.90 
   8   2 -14    1.77    0.69 
   8   2 -14    1.20    1.07 
  -8  -2  14    1.48    0.84 
  -8  -2  14    3.38    0.89 
   7   2 -14   10.19    1.38 
   7   2 -14   11.76    1.65 
  -7  -2  14    9.78    1.10 
  -7  -2  14   10.06    1.38 
   6   2 -14   20.67    1.93 
   6   2 -14   15.63    1.31 
  -6  -2  14   15.81    1.31 
  -6  -2  14   17.66    1.74 
  -6  -2  14   15.90    1.50 
   5   2 -14   13.91    1.57 
   5   2 -14   14.33    1.18 
  -5  -2  14   10.49    1.23 
  -5  -2  14   14.07    1.63 
   4   2 -14    1.41    0.83 
   4   2 -14    1.85    0.89 
  -4  -2  14    1.19    0.92 
  -4  -2  14    1.04    0.94 
  -4  -2  14    0.35    0.76 
   3   2 -14    0.83    0.86 
   3   2 -14    0.51    0.89 
  -3  -2  14   -0.38    0.78 
  -3  -2  14    0.10    0.91 
  -3  -2  14   -0.24    0.79 
  -3  -2  14    0.66    0.91 
   2   2 -14    7.96    1.25 
   2   2 -14    6.17    1.15 
  -2  -2  14    5.20    1.14 
  -2  -2  14    5.56    1.01 
  -2  -2  14    6.35    0.95 
   1   2 -14   11.71    1.62 
   1   2 -14   19.32    1.72 
  -1  -2  14   13.46    1.50 
  -1  -2  14   14.01    1.48 
  -1  -2  14   15.70    1.70 
   0   2 -14    1.81    0.99 
   0  -2  14   -1.00    0.89 
   0  -2  14    1.55    1.01 
   0  -2  14    0.81    1.01 
  -1   2 -14    3.69    1.19 
  -1   2 -14    3.30    1.26 
   1  -2  14    5.46    1.36 
   1  -2  14    3.45    1.05 
  10   1 -14    2.15    1.38 
 -10  -1  14    4.65    1.11 
 -10  -1  14    0.96    1.02 
   9   1 -14    5.20    1.11 
  -9  -1  14    4.64    1.10 
   8   1 -14    1.59    1.03 
   8   1 -14    2.08    0.71 
  -8  -1  14    1.55    0.77 
  -8  -1  14    0.93    0.89 
  -8  -1  14    1.88    1.10 
   7   1 -14   20.32    1.87 
   7   1 -14   15.81    1.47 
  -7  -1  14   14.39    1.72 
  -7  -1  14   15.59    1.65 
  -7  -1  14   16.87    1.25 
   6   1 -14    6.63    1.09 
  -6  -1  14    5.45    1.11 
  -6  -1  14    4.77    0.92 
  -6  -1  14    5.07    1.15 
   5   1 -14   11.46    1.63 
   5   1 -14    9.80    1.27 
  -5  -1  14    9.43    1.18 
  -5  -1  14    9.52    1.30 
  -5  -1  14    9.73    1.59 
   4   1 -14   -0.13    0.80 
   4   1 -14    1.76    0.79 
  -4  -1  14    1.54    0.90 
  -4  -1  14    1.08    0.94 
  -4  -1  14    0.20    0.77 
  -4  -1  14    0.09    0.71 
   3   1 -14   -0.61    1.03 
   3   1 -14    1.34    0.82 
  -3  -1  14    2.23    0.94 
  -3  -1  14    0.83    1.03 
  -3  -1  14    1.61    0.92 
   2   1 -14    1.30    0.97 
   2   1 -14   -1.25    0.71 
  -2  -1  14   -0.10    0.97 
  -2  -1  14    0.33    0.92 
  -2  -1  14    0.18    0.70 
   1   1 -14    0.56    0.82 
  -1  -1  14    1.83    0.86 
  -1  -1  14   -1.15    0.77 
  -1  -1  14    3.16    1.19 
   0   1 -14    2.53    1.04 
   0  -1  14   -0.30    1.04 
   0  -1  14    1.30    0.98 
  -1   1 -14    2.90    1.14 
  -1   1 -14    3.09    1.10 
   1  -1  14    4.56    1.16 
   1  -1  14    3.91    1.02 
  10   0 -14   -0.34    1.07 
 -10   0  14    0.34    1.06 
   9   0 -14   19.37    1.69 
   9   0 -14   22.31    1.61 
  -9   0  14   23.06    1.83 
  -9   0  14   27.05    1.55 
  -9   0  14   21.93    2.00 
   8   0 -14    2.06    1.10 
   8   0 -14    0.26    0.69 
  -8   0  14    0.49    0.89 
  -8   0  14    0.81    1.03 
  -8   0  14   -0.06    1.00 
   7   0 -14    1.90    0.63 
   7   0 -14    2.96    1.25 
  -7   0  14    3.15    1.03 
  -7   0  14    1.50    0.78 
  -7   0  14    0.25    1.02 
   6   0 -14    2.59    1.07 
  -6   0  14    0.43    0.99 
  -6   0  14    2.81    0.95 
   5   0 -14    2.24    0.83 
   5   0 -14    2.90    0.83 
  -5   0  14    3.29    0.76 
  -5   0  14    2.10    0.92 
  -5   0  14    2.88    0.99 
   4   0 -14    2.74    0.91 
   4   0 -14    4.92    1.10 
  -4   0  14    3.18    0.89 
  -4   0  14    4.58    1.03 
  -4   0  14    3.33    0.71 
   3   0 -14   -0.13    0.83 
   3   0 -14    0.51    0.92 
  -3   0  14   -0.73    0.71 
  -3   0  14    0.44    0.84 
  -3   0  14    0.93    0.70 
   2   0 -14   -0.03    1.01 
   2   0 -14    0.19    0.82 
  -2   0  14   -0.03    0.74 
  -2   0  14   -0.32    0.57 
  -2   0  14    0.76    0.87 
   1   0 -14    6.71    1.23 
  -1   0  14    7.76    1.22 
  -1   0  14    7.05    1.16 
   0   0 -14   10.31    1.51 
   0   0 -14   12.49    1.83 
   0   0  14   14.09    1.74 
   0   0  14   11.45    1.48 
  -1   0 -14    1.58    1.03 
  -1   0 -14    2.35    0.98 
   1   0  14    1.44    0.96 
   1   0  14    1.19    0.79 
 -10   1  14    0.24    0.99 
 -10   1  14   -1.79    0.97 
   9  -1 -14    9.74    1.64 
   9  -1 -14    9.83    1.46 
  -9   1  14    7.26    1.34 
   8  -1 -14    0.56    0.79 
   8  -1 -14    2.67    1.25 
  -8   1  14    1.39    0.84 
  -8   1  14    0.09    1.10 
   7  -1 -14   15.42    1.96 
   7  -1 -14   11.62    1.29 
  -7   1  14   11.79    1.57 
  -7   1  14    9.41    1.58 
  -7   1  14   10.73    1.53 
   6  -1 -14    5.25    0.98 
   6  -1 -14    6.48    1.17 
  -6   1  14    8.03    1.22 
  -6   1  14    6.00    1.19 
  -6   1  14    6.17    1.25 
   5  -1 -14    7.39    1.29 
   5  -1 -14    6.95    1.09 
  -5   1  14    8.35    1.17 
  -5   1  14    5.76    1.16 
  -5   1  14    5.82    1.06 
   4  -1 -14    4.41    1.04 
   4  -1 -14    3.89    1.15 
  -4   1  14    4.78    0.82 
  -4   1  14    5.60    1.13 
  -4   1  14    3.28    1.00 
   3  -1 -14   10.24    1.26 
   3  -1 -14    6.74    1.22 
  -3   1  14    6.32    1.10 
  -3   1  14    8.73    1.45 
  -3   1  14    9.33    1.26 
   2  -1 -14   -1.02    0.78 
   2  -1 -14   -0.42    0.78 
  -2   1  14    0.81    0.81 
  -2   1  14   -0.72    1.05 
   1  -1 -14    1.32    0.91 
   1  -1 -14    1.82    0.71 
  -1   1  14    1.93    1.27 
  -1   1  14    1.11    1.12 
   0  -1 -14   10.74    1.73 
   0  -1 -14   13.69    1.63 
   0   1  14   12.91    1.35 
   0   1  14   13.06    2.03 
   9  -2 -14    1.64    0.78 
   9  -2 -14    2.30    1.35 
  -9   2  14    2.42    0.96 
   8  -2 -14   20.54    2.06 
   8  -2 -14   14.24    1.60 
  -8   2  14   14.25    1.41 
  -8   2  14   15.98    1.86 
   7  -2 -14    5.62    0.98 
   7  -2 -14    5.63    1.29 
  -7   2  14    4.10    0.77 
  -7   2  14    3.82    1.00 
   6  -2 -14    4.21    1.03 
   6  -2 -14    4.01    0.95 
  -6   2  14    4.42    1.04 
  -6   2  14    3.98    0.72 
  -6   2  14    4.85    1.24 
   5  -2 -14    3.89    0.89 
   5  -2 -14    2.96    0.89 
  -5   2  14    4.10    1.09 
  -5   2  14    3.11    1.15 
  -5   2  14    3.11    0.59 
   4  -2 -14    5.71    1.26 
   4  -2 -14    7.72    1.25 
  -4   2  14    6.08    1.06 
  -4   2  14    5.88    1.03 
  -4   2  14    5.84    1.15 
   3  -2 -14   18.89    1.56 
   3  -2 -14   17.11    1.60 
  -3   2  14   18.10    1.37 
  -3   2  14   16.89    1.61 
   2  -2 -14   22.68    1.58 
   2  -2 -14   19.38    1.62 
   2  -2 -14   24.07    1.75 
  -2   2  14   17.36    1.32 
  -2   2  14   20.55    1.69 
   1  -2 -14    9.43    1.43 
   1  -2 -14    8.03    1.38 
  -1   2  14    5.70    0.99 
  -1   2  14    9.19    1.44 
   0  -2 -14   -1.24    0.75 
   0  -2 -14    2.35    0.93 
   0   2  14    2.56    1.12 
   0   2  14   -1.87    0.94 
   9  -3 -14   -0.06    0.75 
   9  -3 -14    2.52    1.28 
  -9   3  14   -1.24    0.87 
  -9   3  14    0.06    1.06 
   8  -3 -14    6.59    1.50 
   8  -3 -14    2.00    1.02 
  -8   3  14    2.81    0.96 
  -8   3  14    1.18    0.71 
   7  -3 -14    5.39    1.04 
   7  -3 -14    6.71    1.37 
  -7   3  14    6.87    1.24 
  -7   3  14    5.76    1.17 
   6  -3 -14    7.96    1.34 
   6  -3 -14    6.73    1.16 
  -6   3  14    6.38    1.21 
  -6   3  14    7.46    1.34 
   5  -3 -14    1.82    0.80 
   5  -3 -14    2.26    0.92 
  -5   3  14    2.50    1.04 
  -5   3  14    1.46    1.08 
   4  -3 -14    1.01    0.97 
   4  -3 -14    1.51    0.97 
   4  -3 -14    1.61    0.84 
  -4   3  14    1.56    1.09 
  -4   3  14    0.99    0.85 
   3  -3 -14    8.41    1.28 
   3  -3 -14    8.58    1.33 
   3  -3 -14    7.04    1.24 
  -3   3  14    8.83    1.16 
  -3   3  14   10.14    1.70 
   2  -3 -14   26.81    1.98 
   2  -3 -14   23.75    1.67 
   2  -3 -14   29.46    1.77 
  -2   3  14   24.94    1.80 
  -2   3  14   28.30    2.27 
   1  -3 -14    2.06    0.85 
   1  -3 -14    4.03    1.18 
  -1   3  14    2.52    1.01 
  -1   3  14    2.16    1.23 
   8  -4 -14    2.37    1.33 
   8  -4 -14   -1.22    0.79 
  -8   4  14    1.02    0.85 
  -8   4  14   -0.98    1.16 
   7  -4 -14    4.91    1.26 
   7  -4 -14    3.19    1.03 
  -7   4  14    3.47    1.28 
  -7   4  14    1.24    1.08 
   6  -4 -14   11.45    1.44 
   6  -4 -14   10.87    1.53 
  -6   4  14   10.05    1.44 
  -6   4  14   11.17    1.99 
   5  -4 -14    5.22    1.12 
   5  -4 -14    5.48    1.09 
  -5   4  14    7.58    1.45 
  -5   4  14    5.44    0.96 
   4  -4 -14    0.82    0.90 
   4  -4 -14   -1.40    0.91 
  -4   4  14    1.05    1.21 
  -4   4  14    0.32    0.91 
   3  -4 -14    4.88    1.14 
   3  -4 -14    2.50    0.83 
   3  -4 -14    1.09    1.05 
  -3   4  14    4.52    1.27 
  -3   4  14    3.85    1.04 
   2  -4 -14    2.48    0.80 
   2  -4 -14    0.34    0.95 
   2  -4 -14    0.38    1.03 
  -2   4  14    3.92    1.48 
  -2   4  14    1.19    1.00 
   7  -5 -14    1.40    1.01 
   7  -5 -14    2.21    1.21 
  -7   5  14    2.38    1.02 
  -7   5  14    2.77    1.41 
   6  -5 -14    0.57    1.01 
   6  -5 -14    1.46    0.99 
  -6   5  14    0.61    1.13 
  -6   5  14    1.01    1.08 
   5  -5 -14    3.27    1.13 
   5  -5 -14    4.90    1.37 
  -5   5  14    4.75    1.12 
  -5   5  14    6.03    1.48 
   4  -5 -14    0.19    1.06 
   4  -5 -14    2.12    0.90 
  -4   5  14    0.53    0.94 
  -4   5  14   -0.85    1.20 
   3  -5 -14    3.60    1.29 
   3  -5 -14    2.87    0.88 
  -3   5  14    1.26    1.06 
  -3   5  14    0.74    1.01 
   5   7 -15    0.81    1.03 
   5   7 -15    0.29    1.04 
  -5  -7  15    1.68    0.87 
  -5  -7  15   -1.59    0.90 
   4   7 -15    1.41    1.09 
   4   7 -15   -1.74    0.92 
  -4  -7  15    0.27    0.97 
   3   7 -15    0.60    0.91 
   3   7 -15   -1.71    0.89 
  -3  -7  15   -0.48    0.88 
   6   6 -15    1.38    1.06 
   6   6 -15    2.85    1.25 
  -6  -6  15    2.92    1.14 
  -6  -6  15    3.82    1.34 
   5   6 -15    3.48    1.03 
   5   6 -15    3.69    1.25 
  -5  -6  15    6.25    1.44 
  -5  -6  15    2.47    0.97 
   4   6 -15    0.92    0.95 
   4   6 -15    0.98    1.12 
  -4  -6  15    1.26    1.08 
  -4  -6  15    0.82    1.00 
   3   6 -15    6.40    1.12 
   3   6 -15    7.21    1.26 
  -3  -6  15    8.43    1.55 
  -3  -6  15    5.18    1.24 
   2   6 -15    9.15    1.51 
   2   6 -15    7.55    1.37 
  -2  -6  15   11.93    2.10 
  -2  -6  15    7.95    1.38 
  -1  -6  15    5.70    1.13 
   7   5 -15    1.13    0.93 
   7   5 -15    0.75    1.19 
  -7  -5  15   -0.31    0.97 
  -7  -5  15    1.45    1.01 
   6   5 -15   11.14    1.62 
   6   5 -15   13.79    1.71 
  -6  -5  15   13.47    1.59 
  -6  -5  15   12.68    1.65 
   5   5 -15    9.86    1.58 
   5   5 -15    7.63    1.29 
  -5  -5  15    9.78    1.52 
  -5  -5  15    8.89    1.41 
   4   5 -15   10.48    1.48 
   4   5 -15    8.04    1.30 
  -4  -5  15    9.46    1.53 
  -4  -5  15   10.03    1.49 
   3   5 -15   -0.14    1.00 
   3   5 -15   -0.21    0.86 
  -3  -5  15   -1.00    0.86 
  -3  -5  15    0.88    1.04 
  -3  -5  15    1.48    0.91 
   2   5 -15   -1.66    1.03 
   2   5 -15    1.41    1.18 
  -2  -5  15    0.36    1.07 
  -2  -5  15   -0.71    0.78 
  -2  -5  15   -1.36    0.95 
   1   5 -15    7.14    1.20 
  -1  -5  15    7.75    1.32 
  -1  -5  15    8.81    1.48 
   8   4 -15    2.03    1.07 
   8   4 -15    3.62    1.12 
  -8  -4  15    3.57    1.01 
  -8  -4  15    3.36    1.15 
   7   4 -15    1.76    1.17 
   7   4 -15    2.02    1.05 
  -7  -4  15    1.42    1.11 
  -7  -4  15    0.34    1.03 
   6   4 -15   -0.24    1.15 
   6   4 -15    0.75    0.89 
  -6  -4  15    0.57    1.12 
  -6  -4  15   -0.40    0.81 
   5   4 -15    4.37    1.29 
   5   4 -15    4.36    1.01 
  -5  -4  15    3.83    1.09 
  -5  -4  15    3.44    0.98 
   4   4 -15    6.71    1.21 
   4   4 -15    7.06    1.27 
  -4  -4  15    6.22    1.11 
  -4  -4  15    5.11    1.04 
  -4  -4  15    7.21    1.36 
   3   4 -15    2.80    1.06 
   3   4 -15    3.60    1.01 
  -3  -4  15    3.30    1.06 
  -3  -4  15    4.69    0.98 
  -3  -4  15    3.53    1.28 
   2   4 -15    0.37    0.88 
   2   4 -15   -0.45    1.09 
  -2  -4  15    0.24    1.03 
  -2  -4  15    0.27    0.71 
  -2  -4  15    1.48    0.93 
   1   4 -15    3.53    1.03 
   1   4 -15    4.63    1.38 
  -1  -4  15    5.68    1.34 
  -1  -4  15    7.33    1.43 
  -1  -4  15    4.67    1.02 
   8   3 -15    5.81    1.50 
   8   3 -15    4.50    1.08 
  -8  -3  15    2.54    1.18 
  -8  -3  15    2.62    1.01 
   7   3 -15   11.78    1.89 
   7   3 -15   10.73    1.60 
  -7  -3  15    8.82    1.52 
  -7  -3  15    8.63    1.39 
   6   3 -15    1.82    0.94 
   6   3 -15    2.37    1.19 
  -6  -3  15    0.80    0.83 
  -6  -3  15    2.13    0.79 
   5   3 -15   -0.14    0.74 
   5   3 -15   -0.09    1.01 
  -5  -3  15   -0.29    0.93 
  -5  -3  15    0.53    0.61 
   4   3 -15   -0.45    0.76 
   4   3 -15    1.41    1.07 
  -4  -3  15    0.82    0.85 
  -4  -3  15    1.11    0.82 
  -4  -3  15    2.24    0.93 
   3   3 -15    4.62    1.03 
   3   3 -15    5.61    1.31 
  -3  -3  15    4.59    0.82 
  -3  -3  15    4.29    1.01 
  -3  -3  15    4.40    1.00 
   2   3 -15    1.25    1.11 
   2   3 -15    0.74    0.78 
  -2  -3  15    2.38    0.74 
  -2  -3  15    0.81    0.97 
  -2  -3  15    2.75    0.72 
   1   3 -15    3.94    1.16 
  -1  -3  15    2.75    0.89 
  -1  -3  15    1.33    0.99 
  -1  -3  15    5.01    1.28 
   8   2 -15    2.14    1.17 
   8   2 -15    1.04    0.99 
  -8  -2  15   -0.33    0.74 
  -8  -2  15    2.76    0.89 
   7   2 -15    0.26    1.08 
   7   2 -15    1.68    0.98 
  -7  -2  15    0.52    0.95 
  -7  -2  15    1.81    0.95 
   6   2 -15    3.13    1.13 
   6   2 -15    2.65    1.10 
  -6  -2  15    1.14    0.94 
  -6  -2  15    1.43    0.96 
  -6  -2  15    2.63    0.94 
   5   2 -15   -1.20    1.05 
   5   2 -15    0.48    0.92 
  -5  -2  15   -1.40    0.95 
  -5  -2  15   -0.94    0.75 
  -5  -2  15   -0.04    1.01 
   4   2 -15    7.42    1.35 
   4   2 -15    5.06    0.98 
  -4  -2  15    7.17    1.17 
  -4  -2  15    7.94    1.30 
  -4  -2  15    8.79    1.40 
   3   2 -15   10.97    1.80 
   3   2 -15   12.63    1.71 
  -3  -2  15   13.13    1.31 
  -3  -2  15   12.36    1.69 
  -3  -2  15   11.23    1.39 
   2   2 -15    6.46    1.08 
  -2  -2  15    8.51    1.48 
  -2  -2  15    6.11    1.21 
  -2  -2  15    8.38    1.21 
   1   2 -15   11.40    1.81 
  -1  -2  15    8.33    1.31 
  -1  -2  15   11.18    1.73 
   8   1 -15    1.11    1.04 
   8   1 -15    1.27    1.01 
  -8  -1  15    2.03    0.93 
  -8  -1  15   -0.01    0.94 
   7   1 -15    2.07    1.05 
   7   1 -15    0.88    0.90 
  -7  -1  15    1.79    1.03 
  -7  -1  15    1.89    1.03 
   6   1 -15   12.54    1.53 
   6   1 -15   11.61    1.58 
  -6  -1  15   14.25    1.50 
  -6  -1  15   12.29    1.44 
  -6  -1  15   13.31    1.84 
   5   1 -15    1.00    1.10 
   5   1 -15    1.48    1.01 
  -5  -1  15    0.61    1.03 
  -5  -1  15    1.18    0.90 
  -5  -1  15    1.09    0.94 
   4   1 -15    2.79    1.07 
   4   1 -15    1.55    0.79 
  -4  -1  15    1.54    0.93 
  -4  -1  15    1.48    1.07 
  -4  -1  15    1.20    1.09 
   3   1 -15   -1.21    1.09 
   3   1 -15    0.05    0.92 
  -3  -1  15    0.27    1.00 
  -3  -1  15    0.69    0.92 
  -3  -1  15    0.37    0.84 
   2   1 -15    6.48    1.15 
  -2  -1  15   10.06    1.65 
  -2  -1  15    7.50    1.28 
  -2  -1  15    8.33    1.33 
   1   1 -15    7.58    1.33 
  -1  -1  15    9.89    1.68 
  -1  -1  15   12.80    1.86 
   8   0 -15    4.41    1.02 
  -8   0  15    8.60    1.50 
  -8   0  15    3.80    1.16 
  -8   0  15    5.21    1.19 
   7   0 -15   -0.46    0.89 
  -7   0  15    0.16    0.94 
  -7   0  15    0.06    0.94 
  -7   0  15    1.13    0.92 
   6   0 -15   34.88    2.08 
   6   0 -15   32.08    2.20 
  -6   0  15   32.83    2.08 
  -6   0  15   33.22    2.06 
  -6   0  15   36.93    1.83 
   5   0 -15    2.05    0.99 
   5   0 -15    1.35    1.16 
  -5   0  15    0.66    0.95 
  -5   0  15    1.32    0.82 
  -5   0  15    0.04    0.99 
   4   0 -15    0.50    0.91 
   4   0 -15    2.18    0.88 
  -4   0  15   -0.27    1.01 
  -4   0  15    1.31    0.86 
  -4   0  15   -0.01    0.72 
   3   0 -15   -0.42    1.14 
   3   0 -15   -0.11    0.83 
  -3   0  15    1.04    0.99 
  -3   0  15    1.19    0.98 
  -3   0  15    0.76    0.95 
   2   0 -15    4.59    1.27 
   2   0 -15    6.44    1.29 
  -2   0  15    5.71    1.31 
  -2   0  15    5.62    1.39 
   1   0 -15    4.20    1.25 
   1   0 -15    4.16    1.20 
  -1   0  15    5.51    1.51 
  -1   0  15    6.27    1.22 
   8  -1 -15    0.67    0.94 
  -8   1  15    1.89    0.82 
  -8   1  15    0.31    0.88 
   7  -1 -15   -0.01    0.89 
   7  -1 -15    2.39    1.06 
  -7   1  15    1.74    1.09 
  -7   1  15    1.05    1.10 
  -7   1  15    3.14    0.98 
   6  -1 -15   15.18    1.81 
   6  -1 -15   16.71    1.82 
  -6   1  15   11.93    1.87 
  -6   1  15   15.35    1.39 
  -6   1  15   12.44    1.41 
   5  -1 -15    3.11    1.06 
   5  -1 -15    3.20    1.22 
  -5   1  15    2.69    0.84 
  -5   1  15    1.72    0.82 
  -5   1  15    3.45    1.08 
   4  -1 -15    1.76    0.85 
   4  -1 -15    4.22    0.93 
  -4   1  15    2.87    0.99 
  -4   1  15    4.24    1.08 
  -4   1  15    3.25    0.97 
   3  -1 -15    1.33    0.99 
   3  -1 -15    1.64    1.07 
  -3   1  15    0.93    0.92 
  -3   1  15    3.05    1.05 
   2  -1 -15   18.11    1.84 
   2  -1 -15   16.64    1.69 
   2  -1 -15   18.06    1.81 
  -2   1  15   15.43    1.84 
  -2   1  15   16.89    1.36 
   8  -2 -15    0.33    0.87 
   8  -2 -15    4.34    0.91 
  -8   2  15    2.66    1.08 
  -8   2  15    4.53    1.35 
   7  -2 -15    0.20    0.94 
   7  -2 -15   -0.64    0.92 
  -7   2  15    0.61    0.92 
  -7   2  15    1.46    0.99 
   6  -2 -15    2.40    1.12 
   6  -2 -15    2.83    1.26 
  -6   2  15    2.48    0.81 
  -6   2  15    1.31    0.93 
   5  -2 -15    5.85    1.34 
   5  -2 -15    6.15    1.10 
  -5   2  15    6.57    1.23 
  -5   2  15    9.03    1.54 
  -5   2  15    9.26    1.43 
   4  -2 -15    8.81    1.35 
   4  -2 -15   10.88    1.47 
  -4   2  15    5.65    1.23 
  -4   2  15    8.16    1.40 
   3  -2 -15    0.56    0.97 
   3  -2 -15    1.79    0.81 
   3  -2 -15    1.34    0.89 
  -3   2  15   -0.20    0.94 
  -3   2  15    0.42    0.88 
   2  -2 -15    1.17    0.87 
  -2   2  15    1.75    0.81 
   7  -3 -15    0.64    1.07 
   7  -3 -15    0.01    0.85 
  -7   3  15    1.18    0.96 
  -7   3  15    1.36    1.10 
   6  -3 -15    0.00    1.11 
   6  -3 -15    1.06    1.11 
  -6   3  15    0.41    1.18 
  -6   3  15    0.43    0.92 
   5  -3 -15    1.51    1.12 
   5  -3 -15    2.38    1.15 
  -5   3  15    1.83    1.23 
  -5   3  15    1.80    1.09 
   4  -3 -15    1.90    0.87 
   4  -3 -15    2.42    1.07 
   4  -3 -15    1.87    1.13 
  -4   3  15    1.25    1.07 
  -4   3  15    1.47    1.29 
  -5  -4  16    4.97    1.12 
  -4  -4  16    0.51    1.13 
  -6  -3  16    1.17    1.02 
   5   3 -16    0.55    1.16 
   5   3 -16    2.75    1.17 
  -5  -3  16    2.78    1.16 
  -5  -3  16    2.73    0.98 
  -5  -3  16    2.22    1.02 
   4   3 -16   -0.19    0.83 
   4   3 -16    0.34    1.21 
  -4  -3  16   -0.36    0.92 
  -4  -3  16    0.92    1.01 
  -4  -3  16    1.67    0.78 
   6   2 -16    1.67    0.99 
   6   2 -16    0.93    0.99 
  -6  -2  16    1.99    1.27 
  -6  -2  16    0.97    1.03 
  -6  -2  16    1.17    1.14 
   5   2 -16    1.15    1.17 
   5   2 -16    1.26    1.00 
  -5  -2  16    0.51    0.97 
  -5  -2  16    0.54    0.97 
  -5  -2  16    1.23    1.04 
   4   2 -16   10.09    1.57 
   4   2 -16    7.56    1.56 
  -4  -2  16   11.74    1.65 
  -4  -2  16    6.69    1.39 
  -4  -2  16    8.10    1.23 
   6   1 -16    2.39    0.87 
   6   1 -16    1.24    0.95 
  -6  -1  16    1.74    1.01 
  -6  -1  16    1.12    1.07 
  -6  -1  16    2.47    1.28 
   5   1 -16    2.32    1.08 
   5   1 -16    1.59    1.09 
  -5  -1  16    2.01    1.09 
  -5  -1  16    1.10    1.18 
  -5  -1  16    1.97    1.21 
   4   1 -16    3.30    1.40 
   4   1 -16    4.85    1.19 
  -4  -1  16    5.14    1.09 
  -4  -1  16    4.07    1.31 
  -4  -1  16    4.16    1.22 
  -5   0  16    1.45    1.19 
   0   0   0    0.00    0.00 
;
_shelx_hkl_checksum              40054
loop_
_space_group_symop_operation_xyz
'x, y, z'
'-x, -y, -z'
loop_
_atom_site_label
_atom_site_type_symbol
_atom_site_fract_x
_atom_site_fract_y
_atom_site_fract_z
_atom_site_U_iso_or_equiv
_atom_site_adp_type
_atom_site_occupancy
_atom_site_site_symmetry_order
_atom_site_calc_flag
_atom_site_refinement_flags_posn
_atom_site_refinement_flags_adp
C1 C 0.48014(19) 0.33264(15) 0.21853(15) 0.0220(3) Uani 1 1 d . .
H1 H 0.599610 0.372004 0.274645 0.026 Uiso 1 1 calc R U
C2 C 0.4406(2) 0.20559(17) 0.12902(17) 0.0290(3) Uani 1 1 d . .
H2 H 0.531212 0.158569 0.122851 0.035 Uiso 1 1 calc R U
C3 C 0.2658(2) 0.14813(17) 0.04841(17) 0.0311(3) Uani 1 1 d . .
H3 H 0.235350 0.060239 -0.012796 0.037 Uiso 1 1 calc R U
C4 C 0.1361(2) 0.21954(16) 0.05760(16) 0.0267(3) Uani 1 1 d . .
H4 H 0.015758 0.181776 0.002888 0.032 Uiso 1 1 calc R U
C5 C 0.18539(18) 0.34740(14) 0.14837(14) 0.0198(2) Uani 1 1 d . .
C6 C 0.06042(17) 0.43646(15) 0.16438(14) 0.0196(2) Uani 1 1 d . .
C7 C -0.11917(19) 0.40393(18) 0.08581(16) 0.0265(3) Uani 1 1 d . .
H7 H -0.169754 0.320113 0.017894 0.032 Uiso 1 1 calc R U
C8 C -0.2234(2) 0.4967(2) 0.10866(17) 0.0299(3) Uani 1 1 d . .
H8 H -0.346658 0.476783 0.055912 0.036 Uiso 1 1 calc R U
C9 C -0.1477(2) 0.61750(19) 0.20795(17) 0.0289(3) Uani 1 1 d . .
H9 H -0.217524 0.680988 0.226077 0.035 Uiso 1 1 calc R U
C10 C 0.03309(19) 0.64403(17) 0.28075(16) 0.0240(3) Uani 1 1 d . .
H10 H 0.086392 0.728011 0.348071 0.029 Uiso 1 1 calc R U
C11 C 0.75289(17) 0.69731(14) 0.52691(13) 0.0167(2) Uani 1 1 d . .
C12 C 0.93244(18) 0.69621(16) 0.55894(15) 0.0212(2) Uani 1 1 d . .
H12 H 0.968326 0.611583 0.535066 0.025 Uiso 1 1 calc R U
C13 C 1.05663(19) 0.81592(18) 0.62430(17) 0.0267(3) Uani 1 1 d . .
H13 H 1.175802 0.812719 0.641249 0.032 Uiso 1 1 calc R U
C14 C 1.0113(2) 0.94211(18) 0.66631(18) 0.0300(3) Uani 1 1 d . .
H14 H 1.098208 1.023821 0.710582 0.036 Uiso 1 1 calc R U
C15 C 0.8398(2) 0.94539(16) 0.64238(17) 0.0257(3) Uani 1 1 d . .
H15 H 0.808403 1.029350 0.674066 0.031 Uiso 1 1 calc R U
C16 C 0.70786(18) 0.82584(14) 0.57117(14) 0.0187(2) Uani 1 1 d . .
C17 C 0.53358(19) 0.83921(14) 0.55166(15) 0.0203(2) Uani 1 1 d . .
H17 H 0.518927 0.923346 0.598650 0.024 Uiso 1 1 calc R U
Cu1 Cu 0.39444(2) 0.58090(2) 0.35961(2) 0.01710(5) Uani 1 1 d . .
N1 N 0.35526(15) 0.40200(12) 0.22860(12) 0.0177(2) Uani 1 1 d . .
N2 N 0.13520(15) 0.55598(13) 0.25981(12) 0.0185(2) Uani 1 1 d . .
N3 N 0.46223(15) 0.82513(12) 0.19652(12) 0.0199(2) Uani 1 1 d . .
O1 O 0.63878(12) 0.58192(10) 0.46342(10) 0.01850(18) Uani 1 1 d . .
O2 O 0.39739(13) 0.75216(11) 0.47930(11) 0.0222(2) Uani 1 1 d . .
O3 O 0.47798(15) 0.70005(11) 0.20270(13) 0.0264(2) Uani 1 1 d . .
O4 O 0.31852(17) 0.86177(14) 0.17594(17) 0.0406(3) Uani 1 1 d . .
O5 O 0.5890(2) 0.91122(17) 0.2126(3) 0.0659(6) Uani 1 1 d . .
loop_
_atom_site_aniso_label
_atom_site_aniso_U_11
_atom_site_aniso_U_22
_atom_site_aniso_U_33
_atom_site_aniso_U_23
_atom_site_aniso_U_13
_atom_site_aniso_U_12
C1 0.0223(6) 0.0212(6) 0.0222(6) 0.0045(5) 0.0085(5) 0.0045(5)
C2 0.0364(8) 0.0225(7) 0.0271(7) 0.0031(5) 0.0109(6) 0.0097(6)
C3 0.0416(9) 0.0197(7) 0.0241(7) 0.0003(5) 0.0064(6) 0.0032(6)
C4 0.0287(7) 0.0211(6) 0.0207(6) 0.0027(5) 0.0018(5) -0.0025(5)
C5 0.0197(6) 0.0196(6) 0.0163(5) 0.0062(4) 0.0035(5) -0.0013(5)
C6 0.0160(5) 0.0240(6) 0.0166(5) 0.0083(5) 0.0039(4) -0.0008(5)
C7 0.0179(6) 0.0348(8) 0.0210(6) 0.0087(6) 0.0024(5) -0.0025(5)
C8 0.0147(6) 0.0468(10) 0.0272(7) 0.0162(7) 0.0049(5) 0.0031(6)
C9 0.0187(6) 0.0440(9) 0.0289(7) 0.0153(7) 0.0108(6) 0.0105(6)
C10 0.0184(6) 0.0314(7) 0.0238(6) 0.0087(5) 0.0086(5) 0.0066(5)
C11 0.0162(5) 0.0178(5) 0.0150(5) 0.0043(4) 0.0053(4) 0.0015(4)
C12 0.0171(6) 0.0244(6) 0.0219(6) 0.0046(5) 0.0076(5) 0.0037(5)
C13 0.0170(6) 0.0331(8) 0.0272(7) 0.0046(6) 0.0079(5) -0.0016(5)
C14 0.0238(7) 0.0276(7) 0.0310(8) -0.0002(6) 0.0081(6) -0.0076(6)
C15 0.0259(7) 0.0189(6) 0.0287(7) 0.0003(5) 0.0100(6) -0.0018(5)
C16 0.0188(6) 0.0166(5) 0.0189(5) 0.0021(4) 0.0066(5) 0.0010(4)
C17 0.0221(6) 0.0168(6) 0.0211(6) 0.0028(5) 0.0076(5) 0.0044(5)
Cu1 0.01274(7) 0.01715(8) 0.01819(8) 0.00107(5) 0.00372(5) 0.00160(5)
N1 0.0181(5) 0.0170(5) 0.0168(5) 0.0045(4) 0.0058(4) 0.0011(4)
N2 0.0151(5) 0.0222(5) 0.0185(5) 0.0067(4) 0.0062(4) 0.0029(4)
N3 0.0169(5) 0.0194(5) 0.0203(5) 0.0020(4) 0.0055(4) 0.0007(4)
O1 0.0145(4) 0.0163(4) 0.0205(4) 0.0017(3) 0.0032(3) 0.0022(3)
O2 0.0178(4) 0.0213(5) 0.0240(5) -0.0001(4) 0.0056(4) 0.0048(4)
O3 0.0287(5) 0.0215(5) 0.0352(6) 0.0094(4) 0.0169(5) 0.0093(4)
O4 0.0253(6) 0.0286(6) 0.0653(9) 0.0018(6) 0.0155(6) 0.0116(5)
O5 0.0339(8) 0.0340(8) 0.1317(18) 0.0199(9) 0.0367(10) -0.0039(6)
loop_
_atom_type_symbol
_atom_type_description
_atom_type_scat_dispersion_real
_atom_type_scat_dispersion_imag
_atom_type_scat_source
C C 0.0033 0.0016 'International Tables Vol C Tables 4.2.6.8 and 6.1.1.4'
H H 0.0000 0.0000 'International Tables Vol C Tables 4.2.6.8 and 6.1.1.4'
Cu Cu 0.3201 1.2651 'International Tables Vol C Tables 4.2.6.8 and 6.1.1.4'
N N 0.0061 0.0033 'International Tables Vol C Tables 4.2.6.8 and 6.1.1.4'
O O 0.0106 0.0060 'International Tables Vol C Tables 4.2.6.8 and 6.1.1.4'
loop_
_geom_angle_atom_site_label_1
_geom_angle_atom_site_label_2
_geom_angle_atom_site_label_3
_geom_angle
N1 C1 C2 122.04(14)
N1 C1 H1 119.0
C2 C1 H1 119.0
C1 C2 C3 118.66(15)
C1 C2 H2 120.7
C3 C2 H2 120.7
C4 C3 C2 119.65(14)
C4 C3 H3 120.2
C2 C3 H3 120.2
C3 C4 C5 118.59(14)
C3 C4 H4 120.7
C5 C4 H4 120.7
N1 C5 C4 121.70(14)
N1 C5 C6 114.27(12)
C4 C5 C6 124.01(13)
N2 C6 C7 121.68(14)
N2 C6 C5 114.65(12)
C7 C6 C5 123.64(14)
C6 C7 C8 118.52(15)
C6 C7 H7 120.7
C8 C7 H7 120.7
C9 C8 C7 119.91(14)
C9 C8 H8 120.0
C7 C8 H8 120.0
C8 C9 C10 118.27(15)
C8 C9 H9 120.9
C10 C9 H9 120.9
N2 C10 C9 122.53(15)
N2 C10 H10 118.7
C9 C10 H10 118.7
O1 C11 C12 119.32(12)
O1 C11 C16 123.75(12)
C12 C11 C16 116.89(12)
C13 C12 C11 121.14(14)
C13 C12 H12 119.4
C11 C12 H12 119.4
C12 C13 C14 121.63(14)
C12 C13 H13 119.2
C14 C13 H13 119.2
C15 C14 C13 118.73(14)
C15 C14 H14 120.6
C13 C14 H14 120.6
C14 C15 C16 121.18(14)
C14 C15 H15 119.4
C16 C15 H15 119.4
C15 C16 C17 117.10(13)
C15 C16 C11 120.33(13)
C17 C16 C11 122.53(12)
O2 C17 C16 126.93(13)
O2 C17 H17 116.5
C16 C17 H17 116.5
O1 Cu1 O2 92.78(4)
O1 Cu1 N2 172.39(5)
O2 Cu1 N2 90.74(5)
O1 Cu1 N1 94.84(4)
O2 Cu1 N1 172.03(5)
N2 Cu1 N1 81.42(5)
O1 Cu1 O3 87.51(4)
O2 Cu1 O3 94.49(4)
N2 Cu1 O3 98.95(4)
N1 Cu1 O3 88.17(4)
C1 N1 C5 119.34(12)
C1 N1 Cu1 125.89(10)
C5 N1 Cu1 114.72(10)
C10 N2 C6 119.07(12)
C10 N2 Cu1 126.21(10)
C6 N2 Cu1 114.71(9)
O5 N3 O4 119.91(14)
O5 N3 O3 119.96(14)
O4 N3 O3 120.12(12)
C11 O1 Cu1 122.62(8)
C17 O2 Cu1 123.32(10)
N3 O3 Cu1 121.63(9)
loop_
_geom_bond_atom_site_label_1
_geom_bond_atom_site_label_2
_geom_bond_distance
C1 N1 1.3397(18)
C1 C2 1.382(2)
C1 H1 0.9500
C2 C3 1.387(2)
C2 H2 0.9500
C3 C4 1.384(3)
C3 H3 0.9500
C4 C5 1.387(2)
C4 H4 0.9500
C5 N1 1.3489(17)
C5 C6 1.480(2)
C6 N2 1.3494(18)
C6 C7 1.3873(19)
C7 C8 1.389(2)
C7 H7 0.9500
C8 C9 1.378(3)
C8 H8 0.9500
C9 C10 1.387(2)
C9 H9 0.9500
C10 N2 1.3367(19)
C10 H10 0.9500
C11 O1 1.3092(16)
C11 C12 1.4125(19)
C11 C16 1.4274(19)
C12 C13 1.380(2)
C12 H12 0.9500
C13 C14 1.401(2)
C13 H13 0.9500
C14 C15 1.366(2)
C14 H14 0.9500
C15 C16 1.4164(19)
C15 H15 0.9500
C16 C17 1.419(2)
C17 O2 1.2487(17)
C17 H17 0.9500
Cu1 O1 1.9169(10)
Cu1 O2 1.9538(10)
Cu1 N2 1.9891(12)
Cu1 N1 1.9940(12)
Cu1 O3 2.4032(11)
N3 O5 1.2223(18)
N3 O4 1.2432(17)
N3 O3 1.2578(16)
