#------------------------------------------------------------------------------
#$Date: 2019-11-24 23:44:47 +0200 (Sun, 24 Nov 2019) $
#$Revision: 239735 $
#$URL: file:///home/coder/svn-repositories/cod/cif/4/51/70/4517085.cif $
#------------------------------------------------------------------------------
#
# This file is available in the Crystallography Open Database (COD),
# http://www.crystallography.net/
#
# All data on this site have been placed in the public domain by the
# contributors.
#
data_4517085
loop_
_publ_author_name
'Kerr, Andrew T.'
'Cahill, Christopher L.'
_publ_section_title
;
 Postsynthetic Rearrangement/Metalation as a Route to Bimetallic Uranyl
 Coordination Polymers: Syntheses, Structures, and Luminescence
;
_journal_issue                   4
_journal_name_full               'Crystal Growth &amp; Design'
_journal_page_first              1914
_journal_paper_doi               10.1021/cg500050q
_journal_volume                  14
_journal_year                    2014
_chemical_formula_sum            'C12 H12 Cl Cu N2 O11 U2'
_chemical_formula_weight         935.29
_space_group_crystal_system      triclinic
_space_group_IT_number           2
_space_group_name_Hall           '-P 1'
_space_group_name_H-M_alt        'P -1'
_symmetry_cell_setting           triclinic
_symmetry_Int_Tables_number      2
_symmetry_space_group_name_H-M   'P -1'
_atom_sites_solution_hydrogens   geom
_audit_creation_method           SHELXL-2013
_cell_angle_alpha                71.659(2)
_cell_angle_beta                 80.212(2)
_cell_angle_gamma                84.494(2)
_cell_formula_units_Z            2
_cell_length_a                   8.6901(11)
_cell_length_b                   10.6622(14)
_cell_length_c                   10.7588(14)
_cell_measurement_reflns_used    13626
_cell_measurement_temperature    100(2)
_cell_measurement_theta_max      59.708
_cell_measurement_theta_min      4.733
_cell_volume                     931.5(2)
_computing_cell_refinement       'SAINT, Bruker-AXS'
_computing_data_collection       'APEX, Bruker-AXS'
_computing_data_reduction        'SAINT, Bruker-AXS'
_computing_molecular_graphics    'Crystal Maker (Palmer, 2009)'
_computing_structure_refinement  'SHELXL-2013 (Sheldrick, 2013)'
_computing_structure_solution    'SIR92 (Gualardi, 1993)'
_diffrn_ambient_temperature      100(2)
_diffrn_measured_fraction_theta_full 1.000
_diffrn_measured_fraction_theta_max 0.914
_diffrn_measurement_device_type  'Bruker APEX II CCD'
_diffrn_measurement_method       'omega scans'
_diffrn_radiation_probe          x-ray
_diffrn_radiation_type           MoK\a
_diffrn_radiation_wavelength     0.71073
_diffrn_reflns_av_R_equivalents  0.0557
_diffrn_reflns_av_unetI/netI     0.0678
_diffrn_reflns_Laue_measured_fraction_full 1.000
_diffrn_reflns_Laue_measured_fraction_max 0.914
_diffrn_reflns_limit_h_max       12
_diffrn_reflns_limit_h_min       -12
_diffrn_reflns_limit_k_max       14
_diffrn_reflns_limit_k_min       -14
_diffrn_reflns_limit_l_max       14
_diffrn_reflns_limit_l_min       -14
_diffrn_reflns_number            13626
_diffrn_reflns_point_group_measured_fraction_full 1.000
_diffrn_reflns_point_group_measured_fraction_max 0.914
_diffrn_reflns_theta_full        25.500
_diffrn_reflns_theta_max         30.226
_diffrn_reflns_theta_min         2.014
_diffrn_source                   'fine-focus sealed tube'
_diffrn_source_type              'Bruker APEX II'
_exptl_absorpt_coefficient_mu    18.680
_exptl_absorpt_correction_T_max  0.07660
_exptl_absorpt_correction_T_min  0.02863
_exptl_absorpt_correction_type   empirical
_exptl_absorpt_process_details   'SADABS, G. Sheldrick (1999)'
_exptl_crystal_colour            green
_exptl_crystal_density_diffrn    3.335
_exptl_crystal_description       plate
_exptl_crystal_F_000             832
_exptl_crystal_recrystallization_method Hydrothermal
_exptl_crystal_size_max          0.085
_exptl_crystal_size_mid          0.050
_exptl_crystal_size_min          0.017
_exptl_transmission_factor_max   0.7460
_exptl_transmission_factor_min   0.5032
_refine_diff_density_max         10.995
_refine_diff_density_min         -2.162
_refine_diff_density_rms         0.366
_refine_ls_extinction_method     none
_refine_ls_goodness_of_fit_ref   0.994
_refine_ls_hydrogen_treatment    constr
_refine_ls_matrix_type           full
_refine_ls_number_parameters     266
_refine_ls_number_reflns         5070
_refine_ls_number_restraints     24
_refine_ls_restrained_S_all      0.992
_refine_ls_R_factor_all          0.0558
_refine_ls_R_factor_gt           0.0423
_refine_ls_shift/su_max          0.001
_refine_ls_shift/su_mean         0.000
_refine_ls_structure_factor_coef Fsqd
_refine_ls_weighting_details
'w=1/[\s^2^(Fo^2^)+(0.0436P)^2^] where P=(Fo^2^+2Fc^2^)/3'
_refine_ls_weighting_scheme      calc
_refine_ls_wR_factor_gt          0.0919
_refine_ls_wR_factor_ref         0.0969
_reflns_Friedel_coverage         0.000
_reflns_number_gt                3891
_reflns_number_total             5070
_reflns_threshold_expression     'I > 2\s(I)'
_cod_data_source_file            cg500050q_si_002.cif
_cod_data_source_block           Compound_2
_cod_database_code               4517085
_shelx_space_group_comment
;
The symmetry employed for this shelxl refinement is uniquely defined
by the following loop, which should always be used as a source of
symmetry information in preference to the above space-group names.
They are only intended as comments.
;
_shelxl_version_number           2013-4
_shelx_res_file
;
TITL Pbar1 in P-1
CELL  0.71073   8.6901  10.6622  10.7588   71.659   80.212   84.494
ZERR     2.00   0.0011   0.0014   0.0014    0.002    0.002    0.002
LATT   1
SFAC  C    N    O    CU   U    H    CL
UNIT  24   4    22   2    4    24   2
MERG   2
isor .003 c2 c7 c1
ISOR  .01 OW1
EQIV $1 -x+1, -y+1, -z+1
HTAB C3 O8_$1
HTAB C4 O4_$1
EQIV $2 -x+1, -y+2, -z+1
HTAB C6 O3_$2
HTAB C10 Cl1
EQIV $3 -x, -y+2, -z+1
HTAB C12 O2_$3
EQIV $4 -x, -y+2, -z
HTAB C12 Cl1_$4
HTAB C3 O8_$1
HTAB C4 O4_$1
HTAB C6 O3_$2
HTAB C10 Cl1
HTAB C12 O2_$3
HTAB C12 Cl1_$4
HTAB OW1 O3_$2
FMAP   2
PLAN   40
ACTA    51.00
BOND   $H
CONF
L.S.  24
WGHT    0.043600
FVAR       0.11657   0.75000
C1    1    0.437341    0.693457    0.611084    11.00000    0.01204    0.01183 =
         0.00961   -0.00208   -0.00230    0.00189
C2    1    0.445221    0.765256    0.462125    11.00000    0.01079    0.01236 =
         0.01050   -0.00208   -0.00346   -0.00121
C3    1    0.477830    0.699767    0.369079    11.00000    0.02719    0.01082 =
         0.01697    0.00047   -0.00566   -0.00429
AFIX  43
H3    6    0.492184    0.608129    0.395270    11.00000   -1.20000
AFIX   0
C4    1    0.489312    0.770097    0.236483    11.00000    0.02165    0.00997 =
         0.02748   -0.00796   -0.00442   -0.00195
AFIX  43
H4    6    0.512130    0.724142    0.174573    11.00000   -1.20000
AFIX   0
C5    1    0.420893    0.901115    0.417770    11.00000    0.02105    0.01634 =
         0.01553   -0.00260   -0.00081    0.00304
AFIX  43
H5    6    0.396656    0.949050    0.477883    11.00000   -1.20000
AFIX   0
C6    1    0.432834    0.964699    0.284098    11.00000    0.03272    0.02020 =
         0.01231   -0.00596   -0.00145    0.00166
AFIX  43
H6    6    0.414842    1.055980    0.255720    11.00000   -1.20000
AFIX   0
C7    1   -0.058901    0.686423    0.606851    11.00000    0.01135    0.01225 =
         0.00900   -0.00062   -0.00318   -0.00297
C8    1   -0.043260    0.760389    0.459309    11.00000    0.01564    0.01468 =
         0.01002   -0.00035   -0.00430   -0.00278
C9    1    0.045278    0.706600    0.366933    11.00000    0.01606    0.01463 =
         0.01629   -0.00323   -0.00210    0.00082
AFIX  43
H9    6    0.098887    0.625108    0.393456    11.00000   -1.20000
AFIX   0
C10   1    0.051784    0.778256    0.232708    11.00000    0.02514    0.01024 =
         0.01401   -0.00100   -0.00155   -0.00186
AFIX  43
H10   6    0.109816    0.742611    0.169865    11.00000   -1.20000
AFIX   0
C11   1   -0.118672    0.881033    0.415895    11.00000    0.02698    0.02150 =
         0.01693   -0.00612   -0.00005    0.00498
AFIX  43
H11   6   -0.178512    0.918671    0.476428    11.00000   -1.20000
AFIX   0
C12   1   -0.105870    0.946789    0.282269    11.00000    0.02498    0.01600 =
         0.01668   -0.00297   -0.00367    0.00533
AFIX  43
H12   6   -0.157028    1.029225    0.254247    11.00000   -1.20000
AFIX   0
N1    2    0.468957    0.901689    0.193369    11.00000    0.02164    0.01157 =
         0.01139    0.00014   -0.00513   -0.00478
N2    2   -0.022737    0.896365    0.191805    11.00000    0.01916    0.01331 =
         0.01039   -0.00367   -0.00219   -0.00526
O1    3    0.179369    0.373879    0.848200    11.00000    0.02009    0.00906 =
         0.01906   -0.00593   -0.00589    0.00367
O2    3    0.119344    0.718971    0.825007    11.00000    0.01848    0.00775 =
         0.01411   -0.00148   -0.00277   -0.00463
O3    3    0.638222    0.724073    0.928285    11.00000    0.02193    0.01391 =
         0.01901   -0.01055   -0.00349    0.00123
O4    3    0.673968    0.473751    0.769930    11.00000    0.02170    0.01410 =
         0.01884   -0.00866   -0.00793   -0.00228
O5    3    0.381873    0.572690    0.934463    11.00000    0.01304    0.02230 =
         0.01018   -0.00403   -0.00237   -0.00174
O6    3    0.111965    0.475963    1.071703    11.00000    0.01080    0.01847 =
         0.00905   -0.00101   -0.00250    0.00060
O7    3    0.516997    0.738351    0.672201    11.00000    0.01945    0.01612 =
         0.01303   -0.00229   -0.00370   -0.00088
O8    3    0.353679    0.595037    0.658001    11.00000    0.01602    0.01867 =
         0.01198   -0.00278   -0.00253   -0.00255
O9    3    0.034376    0.587725    0.643201    11.00000    0.02072    0.01684 =
         0.01187   -0.00551   -0.00263   -0.00256
O10   3    0.839435    0.730461    0.678164    11.00000    0.01623    0.02018 =
         0.01554   -0.00417   -0.00384   -0.00245
OW1   3    0.090108    1.142231    0.043903    11.00000    0.02745    0.01379 =
         0.01808   -0.01010   -0.00193   -0.00412
CU1   4    0.500000    1.000000    0.000000    10.50000    0.02317    0.01253 =
         0.00940   -0.00114   -0.00381   -0.00559
CU2   4    0.000000    1.000000    0.000000    10.50000    0.02548    0.01037 =
         0.01008   -0.00197   -0.00352   -0.00524
U1    5    0.142539    0.545240    0.845411    11.00000    0.01157    0.01454 =
         0.00879   -0.00174   -0.00189    0.00020
U2    5    0.659550    0.596552    0.849804    11.00000    0.01131    0.01517 =
         0.00883   -0.00170   -0.00188    0.00018
CL1   7    0.308645    0.885901   -0.033578    11.00000    0.01784    0.01870 =
         0.01751   -0.00500   -0.00411   -0.00325
HKLF    4

REM  Pbar1 in P-1
REM R1 =  0.0423 for    3891 Fo > 4sig(Fo)  and  0.0558 for all    5070 data
REM    266 parameters refined using     24 restraints

END

WGHT      0.0441      0.0000

REM Highest difference peak 10.995,  deepest hole -2.162,  1-sigma level  0.366
Q1    1   0.6363  0.5322  0.8389  11.00000  0.05   10.99
Q2    1   0.1619  0.6086  0.8576  11.00000  0.05   10.28
Q3    1   0.1886  1.1275  0.0435  11.00000  0.05    2.22
Q4    1   0.0256  1.0732 -0.0031  11.00000  0.05    1.62
Q5    1   0.7031  0.6624  0.9022  11.00000  0.05    1.55
Q6    1   0.0849  0.4586  0.8505  11.00000  0.05    1.50
Q7    1   0.0992  0.4778  0.8070  11.00000  0.05    1.39
Q8    1   0.7220  0.6791  0.8421  11.00000  0.05    1.38
Q9    1   0.4527  0.7383  0.5543  11.00000  0.05    1.35
Q10   1   0.4251  0.8418 -0.0126  11.00000  0.05    1.35
Q11   1   0.5919  0.5364  0.7564  11.00000  0.05    1.33
Q12   1   0.4858  0.9255  0.0002  11.00000  0.05    1.28
Q13   1   0.2614  0.4342  0.8527  11.00000  0.05    1.21
Q14   1   0.6281  0.6980  0.8416  11.00000  0.05    1.20
Q15   1   0.6685  0.3797  0.8251  11.00000  0.05    1.19
Q16   1   0.1021  0.6620  0.9203  11.00000  0.05    1.18
Q17   1   0.5505  0.7055  0.8411  11.00000  0.05    1.17
Q18   1   0.3002  0.6628  0.9372  11.00000  0.05    1.17
Q19   1   0.1457  0.7245  0.9480  11.00000  0.05    1.10
Q20   1  -0.0695  0.6829  0.5426  11.00000  0.05    1.05
Q21   1   0.6282  0.3565  0.8948  11.00000  0.05    1.00
Q22   1   0.0496  0.6753  0.8617  11.00000  0.05    0.99
Q23   1   0.0308  0.7327  0.6864  11.00000  0.05    0.98
Q24   1   0.6735  0.4037  0.7886  11.00000  0.05    0.97
Q25   1   0.0946  0.9491 -0.0199  11.00000  0.05    0.93
Q26   1   0.6924  0.4366  0.8429  11.00000  0.05    0.92
Q27   1   0.0852  1.0941  0.0525  11.00000  0.05    0.92
Q28   1   0.5165  0.5120  0.8155  11.00000  0.05    0.91
Q29   1   0.7305  0.4587  0.8126  11.00000  0.05    0.90
Q30   1   0.6105  0.7620  0.9864  11.00000  0.05    0.90
Q31   1   0.4135  1.0198 -0.0129  11.00000  0.05    0.90
Q32   1   0.0734  1.1636  0.0184  11.00000  0.05    0.90
Q33   1  -0.0500  0.7387  0.5774  11.00000  0.05    0.88
Q34   1   0.4944  0.4558  0.7930  11.00000  0.05    0.88
Q35   1  -0.1890  0.8943  0.5989  11.00000  0.05    0.87
Q36   1   0.0064  0.6642  0.1463  11.00000  0.05    0.87
Q37   1   0.1257  1.2041 -0.0270  11.00000  0.05    0.86
Q38   1   0.0016  0.4464  0.8031  11.00000  0.05    0.86
Q39   1   0.0240  0.6031  0.2194  11.00000  0.05    0.86
Q40   1   0.1294  0.7615  0.8841  11.00000  0.05    0.85
;
_shelx_res_checksum              19210
_shelx_hkl_file
;
   0   0  -1 1032.85    7.01
   0   0   1  930.78    8.95
   0   0   1  970.17    6.49
   0   0   1  848.40   10.84
   0   0   1  929.06    8.94
   0   0  -2   74.92    2.95
   0   0   2   58.51    3.51
   0   0   2   74.26    5.06
   0   0   2   63.54    3.62
   0   0  -3  478.31   12.21
   0   0  -3  517.05    9.05
   0   0   3  461.95   11.22
   0   0   3  491.50   14.29
   0   0   3  442.81   10.97
   0   0  -4  445.89   13.57
   0   0  -4  513.93   10.54
   0   0   4  426.25   12.48
   0   0   4  421.28   12.37
   0   0  -5  123.04    8.11
   0   0  -5  138.88    6.47
   0   0   5  113.05    7.40
   0   0   5  112.85    8.91
   0   0   5  121.87    7.66
   0   0  -6  814.01   22.19
   0   0  -6  882.69   17.01
   0   0   6  838.85   21.48
   0   0   6  852.49   25.19
   0   0   6  791.09   20.82
   0   0  -7  517.85   19.12
   0   0  -7  573.65   14.85
   0   0   7  519.57   18.31
   0   0   7  598.99   22.39
   0   0  -8   24.46    5.60
   0   0   8   29.31    5.83
   0   0   8   32.48    7.09
   0   0  -9  151.85   11.80
   0   0   9  160.82   11.82
   0   0   9  174.61   13.72
   0   0 -10  308.40   17.45
   0   0  10  325.97   17.38
   0   0  10  330.08   19.03
   0   0 -11   28.77    6.87
   0   0  11   26.06    6.53
   0   0  11   34.90    8.30
   0   0 -12   85.24   10.28
   0   0  12   80.33    9.92
   0   0  12   86.13   12.63
   0   0 -13  231.61   17.04
   0   0  13  257.68   18.20
   0   1 -13  140.47   13.34
   0  -1  12  141.01   13.13
   0  -1  12  157.32   13.60
   0   1 -12  132.54   12.55
   0  -1  11    2.24    3.43
   0  -1  11    2.81    3.74
   0   1 -11    1.65    2.99
   0  -1  10  386.84   19.56
   0  -1  10  418.49   20.50
   0   1 -10  386.59   19.47
   0  -1   9  443.16   20.09
   0  -1   9  496.33   21.45
   0   1  -9  423.75   19.42
   0  -1   8   90.44    8.91
   0  -1   8   81.33    8.70
   0   1  -8   87.81    8.72
   0  -1   7   37.27    6.67
   0  -1   7   30.47    6.27
   0   1  -7   26.80    5.53
   0   1  -7   34.97    5.55
   0  -1   6  344.28   14.89
   0  -1   6  386.65   16.22
   0   1  -6  357.61   14.92
   0   1  -6  430.79   14.18
   0  -1   5   80.41    6.87
   0  -1   5   82.59    7.33
   0   1  -5   71.47    6.52
   0   1  -5   83.83    6.44
   0  -1   4 1286.16   24.04
   0  -1   4 1409.64   25.52
   0   1  -4 1181.33   22.38
   0   1  -4 1395.30   22.14
   0  -1   3 1964.96   26.58
   0  -1   3 1983.32   26.15
   0   1  -3 1811.79   24.40
   0   1  -3 2025.42   24.50
   0  -1   2 1246.70   18.52
   0  -1   2 1152.15   16.07
   0   1  -2 1196.52   16.78
   0   1  -2 1143.35   16.94
   0  -1   1    4.89    1.48
   0  -1   1    3.82    1.03
   0   1  -1    2.70    1.07
   0   1  -1    5.53    1.87
   0  -1   0  782.51   10.13
   0   1   0  837.92    8.82
   0   1   0  738.72   11.18
   0   1   0  817.06    6.48
   0  -1  -1  691.05    8.21
   0  -1  -1  692.86    9.46
   0   1   1  711.89    9.53
   0   1   1  588.69   10.51
   0  -1  -2   12.13    1.74
   0  -1  -2   12.29    2.23
   0   1   2   13.97    1.47
   0   1   2   12.69    3.07
   0  -1  -3  684.57   12.13
   0  -1  -3  687.50   14.67
   0   1   3  626.98    7.65
   0  -1  -4 1033.51   17.65
   0  -1  -4 1058.44   20.83
   0  -1  -4  979.22   11.17
   0   1   4 1027.71   24.55
   0  -1  -5  371.58   12.15
   0  -1  -5  368.21   13.78
   0  -1  -5  353.63    7.91
   0   1   5  379.71   16.47
   0  -1  -6  186.98   10.80
   0  -1  -6  184.10    6.59
   0   1   6  173.52    9.35
   0   1   6  186.72   12.57
   0   1   6  173.64    9.33
   0  -1  -7  405.51   16.90
   0  -1  -7  445.77   11.14
   0   1   7  383.85   14.97
   0   1   7  392.23   19.05
   0   1   7  401.31   15.24
   0  -1  -8  141.30   10.79
   0   1   8  151.35   10.34
   0   1   8  151.07   12.59
   0   1   8  135.17    9.83
   0  -1  -9   89.86    9.28
   0   1   9  100.11    9.09
   0   1   9   95.57   10.80
   0  -1 -10  414.83   20.11
   0   1  10  480.29   20.21
   0   1  10  502.55   24.10
   0  -1 -11  256.76   16.70
   0   1  11  260.07   15.72
   0   1  11  242.14   17.31
   0  -1 -12   -2.12    2.61
   0   1  12    3.16    4.03
   0  -1 -13  159.48   14.32
   0   1  13  186.13   16.07
   0   1  14  117.81   13.39
   0  -2  12  252.64   17.70
   0  -2  11  101.94   11.31
   0   2 -11  100.04   10.69
   0  -2  10   20.16    6.18
   0  -2  10   29.54    6.79
   0   2 -10   16.24    5.45
   0  -2   9  191.61   13.99
   0  -2   9  212.19   13.61
   0   2  -9  178.60   12.92
   0  -2   8   58.78    9.09
   0  -2   8   47.81    7.68
   0   2  -8   61.27    8.77
   0  -2   7  136.10   10.82
   0  -2   7  131.62    9.82
   0   2  -7  115.92    9.40
   0   2  -7  121.40    9.24
   0  -2   6  653.43   21.78
   0  -2   6  740.37   21.00
   0   2  -6  667.13   20.59
   0   2  -6  662.95   19.88
   0  -2   5  753.15   21.94
   0  -2   5  780.58   19.82
   0   2  -5  743.00   20.15
   0   2  -5  821.51   21.26
   0  -2   4  100.20    7.70
   0  -2   4  113.38    7.07
   0   2  -4  106.05    7.30
   0   2  -4   88.26    7.27
   0  -2   3  392.82   13.68
   0  -2   3  415.25   11.11
   0   2  -3  382.59   12.02
   0   2  -3  420.02   14.07
   0  -2   2  454.80    9.17
   0   2  -2  419.10   11.08
   0   2  -2  423.72   13.46
   0  -2   1   29.90    3.63
   0  -2   1   26.06    1.86
   0   2  -1   28.20    2.90
   0   2  -1   23.50    4.09
   0   2   0  526.62    9.93
   0   2   0  450.78   12.48
   0   2   0  525.32    7.64
   0  -2  -1 2551.71   23.32
   0  -2  -1 2551.90   22.57
   0   2   1 2319.64   26.27
   0   2   1 2134.45   22.29
   0  -2  -2  320.51    7.98
   0  -2  -2  321.44    9.29
   0   2   2  351.47    9.51
   0   2   2  268.53   10.26
   0  -2  -3   47.33    3.54
   0  -2  -3   54.54    4.69
   0   2   3   56.73    3.62
   0   2   3   44.61    5.56
   0  -2  -4  570.34   12.69
   0  -2  -4  559.43   15.52
   0   2   4  591.30    9.69
   0   2   4  569.35   19.07
   0  -2  -5  334.20   10.99
   0  -2  -5  325.19   13.21
   0   2   5  303.77    6.94
   0  -2  -6   31.68    4.76
   0  -2  -6   28.53    5.35
   0  -2  -6   28.59    2.55
   0   2   6   24.29    6.02
   0  -2  -7  599.28   17.77
   0  -2  -7  612.24   20.90
   0  -2  -7  577.07   11.03
   0  -2  -8  399.81   17.96
   0   2   8  402.17   15.77
   0   2   8  352.03   19.42
   0   2   8  379.61   15.28
   0  -2  -9   -1.47    2.01
   0   2   9    1.34    2.47
   0   2   9    3.47    4.05
   0   2   9    2.64    2.56
   0  -2 -10  139.85   12.07
   0   2  10  146.22   11.00
   0   2  10  133.75   13.16
   0   2  10  122.12   10.20
   0  -2 -11  204.95   15.02
   0   2  11  195.87   13.29
   0   2  11  185.94   15.83
   0  -2 -12   15.45    5.68
   0   2  12    8.41    5.17
   0  -2 -13   60.26   10.53
   0   2  13   42.13    9.88
   0  -2 -14  181.95   15.62
   0   2  14  192.94   16.88
   0  -3  12  106.60   12.38
   0   3 -12  106.38   11.62
   0  -3  11   67.55   11.13
   0   3 -11   51.14    9.13
   0  -3  10   26.65    7.17
   0   3 -10   21.71    6.15
   0  -3   9  428.02   21.33
   0  -3   9  428.99   18.09
   0   3  -9  429.57   19.93
   0  -3   8  446.82   20.98
   0  -3   8  446.95   17.53
   0   3  -8  396.88   18.28
   0  -3   7   72.44    8.63
   0  -3   7   92.12    7.92
   0   3  -7   74.79    7.76
   0   3  -7   64.34    7.92
   0  -3   6   46.60    7.62
   0  -3   6   58.48    6.09
   0   3  -6   58.97    6.68
   0   3  -6   55.62    8.10
   0  -3   5  280.90   14.53
   0  -3   5  304.62   11.65
   0   3  -5  269.01   12.59
   0   3  -5  307.26   14.74
   0  -3   4   51.40    6.31
   0  -3   4   50.05    4.53
   0   3  -4   48.59    5.33
   0   3  -4   55.44    6.79
   0  -3   3  544.15   17.90
   0  -3   3  510.18   11.28
   0   3  -3  502.67   14.61
   0   3  -3  527.59   18.12
   0  -3   2  854.10   20.89
   0  -3   2  839.99   11.64
   0   3  -2  893.57   17.77
   0   3  -2  817.17   21.59
   0  -3   1  286.60   11.45
   0  -3   1  289.24    5.83
   0   3  -1  277.37    9.27
   0   3  -1  247.34   11.89
   0  -3   0   -1.23    1.28
   0   3   0    3.20    1.66
   0   3   0    1.43    2.30
   0   3   0    2.78    1.45
   0  -3  -1  586.52   14.20
   0  -3  -1  583.00   12.92
   0   3   1  529.61   15.81
   0   3   1  499.26   12.00
   0  -3  -2  496.15   12.30
   0  -3  -2  491.28   12.69
   0   3   2  485.51   14.40
   0   3   2  398.21   13.09
   0  -3  -3    5.18    1.84
   0  -3  -3    1.78    1.71
   0   3   3    4.28    2.11
   0   3   3    2.34    2.36
   0  -3  -4  257.30    9.00
   0  -3  -4  252.15   10.99
   0   3   4  267.13    8.98
   0   3   4  212.60   12.33
   0  -3  -5  515.60   13.64
   0  -3  -5  547.00   17.44
   0   3   5  566.15   11.68
   0   3   5  480.92   19.73
   0  -3  -6  111.46    7.06
   0  -3  -6  117.14    8.90
   0   3   6  109.90    5.00
   0   3   6  104.33   10.23
   0  -3  -7   64.20    5.93
   0  -3  -7   60.00    6.97
   0  -3  -7   54.85    3.67
   0   3   7   49.18    8.93
   0  -3  -8  163.34    9.90
   0  -3  -8  158.25   11.69
   0   3   8  146.29   13.17
   0  -3  -9  169.73   12.60
   0   3   9  160.65   14.23
   0  -3 -10   97.01   10.10
   0   3  10   93.06    8.76
   0   3  10   79.22   12.45
   0   3  10  101.29    9.02
   0  -3 -11  299.35   17.99
   0   3  11  328.78   16.51
   0   3  11  342.65   21.51
   0   3  11  328.40   16.47
   0  -3 -12  137.29   12.83
   0   3  12  139.69   14.54
   0  -3 -13    7.27    4.46
   0   3  13   16.39    6.95
   0  -3 -14   61.71   10.96
   0   3  14   60.23   11.83
   0   4 -12   82.27   11.90
   0  -4  11  255.43   18.17
   0   4 -11  248.20   16.63
   0  -4  10   82.64   12.24
   0   4 -10   68.61   10.12
   0  -4   9   12.31    5.22
   0   4  -9   20.43    5.70
   0  -4   8  173.31   13.90
   0   4  -8  170.52   12.25
   0  -4   7   64.48    9.85
   0  -4   7   78.64    6.89
   0   4  -7   62.38    7.48
   0   4  -7   63.38    9.43
   0  -4   6   66.07    8.22
   0  -4   6   65.77    5.85
   0   4  -6   68.25    7.22
   0   4  -6   64.82    9.39
   0  -4   5  438.67   19.25
   0  -4   5  448.65   13.06
   0   4  -5  427.09   16.40
   0   4  -5  418.89   18.72
   0  -4   4  390.71   17.35
   0  -4   4  410.05   11.07
   0   4  -4  399.21   14.89
   0   4  -4  398.72   17.95
   0  -4   3    3.01    2.48
   0  -4   3    1.93    1.16
   0   4  -3    0.66    1.59
   0   4  -3    0.62    2.74
   0  -4   2  328.68   14.47
   0  -4   2  324.87    7.30
   0   4  -2  350.03   12.27
   0   4  -2  288.43   14.65
   0  -4   1  502.35   16.94
   0  -4   1  551.00    9.24
   0   4  -1  483.66   13.63
   0   4  -1  448.15   17.72
   0  -4   0    0.25    1.67
   0   4   0    1.13    1.53
   0   4   0    0.44    2.19
   0   4   0    0.99    1.40
   0  -4  -1  399.38   13.68
   0  -4  -1  397.59   12.18
   0   4   1  360.36   15.18
   0   4   1  347.17   10.81
   0  -4  -2  551.97   15.20
   0  -4  -2  544.28   14.78
   0   4   2  507.18   17.25
   0   4   2  444.11   14.42
   0  -4  -3  279.16   10.48
   0  -4  -3  294.36   11.61
   0   4   3  302.95   12.75
   0   4   3  235.75   12.14
   0  -4  -4    1.30    1.46
   0  -4  -4    4.78    2.43
   0   4   4   -0.41    1.70
   0   4   4    3.76    3.03
   0  -4  -5  523.42   14.44
   0  -4  -5  523.41   17.58
   0   4   5  591.91   15.08
   0   4   5  445.02   19.49
   0  -4  -6  115.10    7.30
   0  -4  -6  112.57    8.94
   0   4   6  118.07    6.35
   0   4   6   92.20   10.04
   0  -4  -7   51.58    5.43
   0  -4  -7   42.77    7.03
   0   4   7   45.66    3.87
   0   4   7   40.01    8.15
   0  -4  -8  359.57   14.33
   0  -4  -8  321.14   16.50
   0   4   8  284.78   18.27
   0  -4  -9  296.31   13.85
   0  -4  -9  312.28   17.07
   0   4   9  261.66   18.20
   0  -4 -10    4.79    3.04
   0  -4 -10    9.48    4.45
   0   4  10    5.19    4.42
   0  -4 -11   40.24    8.36
   0   4  11   37.24    9.33
   0  -4 -12   34.97    8.23
   0   4  12   32.64    8.86
   0  -4 -13   -1.72    2.70
   0   4  13    1.81    4.39
   0  -4 -14   38.82    9.00
   0   4  14   45.55   10.68
   0  -5  11  104.71   12.52
   0   5 -11  100.69   11.04
   0  -5  10   52.26   10.26
   0   5 -10   61.93    9.80
   0  -5   9   12.52    5.42
   0   5  -9   14.89    5.21
   0  -5   8  224.07   16.31
   0   5  -8  239.68   14.75
   0  -5   7  269.49   17.17
   0   5  -7  254.57   14.54
   0   5  -7  241.67   15.76
   0  -5   6   27.44    6.80
   0   5  -6   27.57    5.68
   0   5  -6   27.02    6.73
   0  -5   5  250.05   15.43
   0   5  -5  225.20   12.42
   0   5  -5  217.11   14.65
   0  -5   4  130.17   10.87
   0  -5   4  122.30    5.84
   0   5  -4  113.63    8.51
   0   5  -4  113.56   10.63
   0  -5   3    3.83    2.89
   0  -5   3    4.14    1.46
   0   5  -3    3.56    2.14
   0   5  -3    5.31    3.85
   0  -5   2  188.35   11.97
   0  -5   2  195.72    5.96
   0   5  -2  200.16   10.05
   0   5  -2  166.32   12.31
   0  -5   1  513.27   18.78
   0   5  -1  513.97   15.42
   0   5  -1  426.16   18.97
   0  -5   0   95.45    8.11
   0   5   0   93.20    6.70
   0   5   0   88.13    8.86
   0   5   0   93.10    5.23
   0  -5  -1   12.13    3.76
   0  -5  -1    8.38    2.79
   0   5   1    7.86    3.72
   0   5   1    8.56    2.82
   0  -5  -2  242.17   11.46
   0  -5  -2  240.79   10.83
   0   5   2  242.43   13.45
   0   5   2  203.10   10.33
   0  -5  -3  171.50    9.34
   0  -5  -3  175.38    9.76
   0   5   3  183.65   11.34
   0   5   3  157.18   10.25
   0  -5  -4   16.28    3.67
   0  -5  -4   11.25    3.45
   0   5   4   14.53    4.20
   0   5   4    6.14    3.48
   0  -5  -5  370.02   13.14
   0  -5  -5  360.28   15.28
   0   5   5  366.99   14.09
   0   5   5  285.63   16.01
   0  -5  -6  387.84   13.71
   0  -5  -6  387.80   16.70
   0   5   6  431.20   14.15
   0   5   6  318.80   17.98
   0  -5  -7   52.60    5.57
   0  -5  -7   44.43    7.33
   0   5   7   59.06    5.18
   0   5   7   40.45    8.32
   0  -5  -8    5.70    2.71
   0  -5  -8    3.59    3.06
   0   5   8    4.80    4.10
   0  -5  -9   15.67    4.19
   0  -5  -9   18.31    5.47
   0   5   9   18.26    6.46
   0  -5 -10   12.56    4.30
   0  -5 -10   12.24    5.06
   0   5  10    6.95    5.22
   0  -5 -11  115.46   11.57
   0   5  11   93.35   13.87
   0  -5 -12  140.31   13.23
   0   5  12  121.80   14.09
   0  -5 -13   69.92   11.41
   0   5  13   54.71   11.25
   0  -5 -14    4.83    4.46
   0   5  14    4.98    5.32
   0   6 -11   83.51   10.15
   0  -6  10  130.77   13.64
   0   6 -10  131.57   12.16
   0  -6   9   10.10    5.26
   0   6  -9    8.02    4.11
   0  -6   8   24.18    7.08
   0   6  -8   24.28    6.18
   0  -6   7   87.22   10.59
   0   6  -7   94.99    9.33
   0   6  -7   94.45   10.89
   0  -6   6   17.06    5.64
   0   6  -6   28.67    5.99
   0   6  -6   27.15    7.23
   0  -6   5   31.12    7.18
   0   6  -5   29.20    5.76
   0   6  -5   38.39    8.43
   0  -6   4  181.11   13.42
   0   6  -4  173.10   10.87
   0   6  -4  164.06   13.49
   0  -6   3  129.37   11.18
   0   6  -3  128.84    9.08
   0   6  -3  128.45   11.93
   0  -6   2    0.21    2.01
   0  -6   2    0.78    1.11
   0   6  -2    0.13    1.62
   0   6  -2    0.84    2.83
   0  -6   1   97.07    9.03
   0   6  -1  113.39    8.01
   0   6  -1  101.85   10.38
   0   6  -1  103.22    5.04
   0  -6   0  237.51   13.32
   0   6   0  233.70   11.16
   0   6   0  223.41   14.67
   0   6   0  222.91    8.29
   0  -6  -1   43.56    7.02
   0  -6  -1   43.77    5.37
   0   6   1   53.54    8.80
   0   6   1   39.93    4.70
   0  -6  -2  351.13   15.10
   0  -6  -2  374.68   14.32
   0   6   2  377.50   18.09
   0   6   2  323.51   13.18
   0  -6  -3  364.28   14.86
   0  -6  -3  383.98   15.01
   0   6   3  378.65   17.64
   0   6   3  332.22   14.76
   0  -6  -4  198.41   10.73
   0  -6  -4  191.61   11.14
   0   6   4  197.25   12.51
   0   6   4  170.74   11.89
   0  -6  -5    2.10    2.06
   0  -6  -5    2.94    2.70
   0   6   5    3.04    2.73
   0   6   5    3.31    3.31
   0  -6  -6  105.73    7.84
   0  -6  -6   96.28    8.78
   0   6   6  107.83    8.50
   0   6   6   95.14   10.27
   0  -6  -7    3.56    2.41
   0  -6  -7    2.60    2.47
   0   6   7    5.85    2.76
   0   6   7    2.25    3.28
   0  -6  -8  125.13    8.84
   0  -6  -8  120.89   10.70
   0   6   8  126.98    7.83
   0   6   8  113.80   12.16
   0  -6  -9  111.32    8.70
   0  -6  -9  103.52   10.38
   0   6   9  110.02   12.63
   0  -6 -10  103.61    8.81
   0  -6 -10   89.37   10.03
   0   6  10   84.54   13.17
   0  -6 -11    4.78    4.22
   0   6  11    4.50    4.58
   0  -6 -12   18.06    6.06
   0   6  12   19.02    7.18
   0  -6 -13    0.47    3.35
   0   6  13    0.74    4.27
   0  -6 -14    2.82    3.84
   0   6  14    2.65    4.83
   0   7 -10   40.13    8.19
   0  -7   9   29.07    8.09
   0   7  -9   31.26    7.15
   0  -7   8    8.54    4.80
   0   7  -8    7.21    3.92
   0  -7   7   37.64    8.53
   0   7  -7   55.00    8.59
   0   7  -7   42.84    9.21
   0  -7   6   98.67   11.17
   0   7  -6  104.10    9.62
   0   7  -6   98.49   11.36
   0  -7   5   20.07    6.12
   0   7  -5   16.93    4.83
   0   7  -5   13.17    5.71
   0  -7   4  114.68   11.32
   0   7  -4  120.30    9.58
   0   7  -4   92.20   10.78
   0  -7   3    0.81    2.56
   0   7  -3    3.87    2.73
   0   7  -3    0.97    3.27
   0  -7   2   11.93    4.53
   0   7  -2   10.01    3.47
   0   7  -2   10.75    5.04
   0  -7   1   97.74    9.61
   0   7  -1   82.01    7.33
   0   7  -1   76.87   11.31
   0  -7   0  277.49   15.35
   0  -7   0  283.63   13.12
   0   7   0  268.15   16.93
   0   7   0  263.41    9.28
   0  -7  -1  103.93    9.44
   0  -7  -1  114.60    8.56
   0   7   1  108.53   11.10
   0   7   1  107.26    7.17
   0  -7  -2    0.87    2.30
   0  -7  -2    1.15    2.21
   0   7   2    0.38    2.65
   0   7   2    0.44    2.15
   0  -7  -3    6.16    2.97
   0  -7  -3    6.58    3.09
   0   7   3    5.69    3.82
   0   7   3    1.19    2.70
   0  -7  -4    1.04    2.10
   0  -7  -4    4.80    2.83
   0   7   4    2.95    3.11
   0   7   4   -1.44    2.26
   0  -7  -5   15.64    4.22
   0  -7  -5   15.32    4.55
   0   7   5   13.82    4.71
   0   7   5   19.00    5.83
   0  -7  -6  150.12    9.81
   0  -7  -6  145.51   11.09
   0   7   6  149.09   10.83
   0   7   6  155.94   13.04
   0  -7  -7   91.19    7.78
   0  -7  -7   89.76    9.29
   0   7   7   93.16    8.37
   0   7   7   84.29   12.10
   0  -7  -8    1.53    2.45
   0  -7  -8    5.59    3.62
   0   7   8   10.29    3.54
   0   7   8    9.47    5.29
   0  -7  -9    0.19    2.23
   0  -7  -9   -0.64    2.17
   0   7   9   -2.53    2.71
   0  -7 -10    2.89    3.44
   0   7  10    3.80    4.52
   0  -7 -11   -1.07    2.50
   0   7  11    0.59    3.94
   0  -7 -12   19.31    6.35
   0   7  12   32.72    8.92
   0  -7 -13   14.11    5.86
   0   7  13    9.28    5.78
   0  -7 -14   14.07    6.04
   0   8  -9   46.92    8.91
   0  -8   8    0.09    3.40
   0   8  -8    1.25    3.02
   0  -8   7    1.99    3.78
   0   8  -7   -0.10    2.50
   0   8  -7   -1.34    3.67
   0  -8   6    5.43    4.32
   0   8  -6    1.30    2.66
   0   8  -6    3.83    4.36
   0  -8   5   -1.23    2.39
   0   8  -5   -0.57    2.20
   0   8  -5    1.66    3.62
   0  -8   4   27.90    7.02
   0   8  -4   20.87    5.26
   0   8  -4   21.25    6.99
   0  -8   3   58.37    9.81
   0   8  -3   57.17    7.00
   0   8  -3   48.89    9.77
   0  -8   2   65.10   10.34
   0   8  -2   58.84    6.89
   0   8  -2   50.23    9.79
   0  -8   1   56.74    9.50
   0   8  -1   59.99    6.76
   0   8  -1   67.33   11.01
   0  -8   0    2.50    2.89
   0  -8   0    4.80    2.78
   0   8   0    4.51    3.75
   0  -8  -1    8.39    4.03
   0  -8  -1    7.18    3.31
   0   8   1    9.67    4.83
   0  -8  -2   20.07    5.32
   0  -8  -2   20.92    4.96
   0   8   2   18.22    6.13
   0   8   2   24.90    5.01
   0  -8  -3   50.74    7.95
   0  -8  -3   51.28    7.63
   0   8   3   47.18    8.86
   0   8   3   44.62    7.24
   0  -8  -4  123.02    9.95
   0  -8  -4  115.42    9.63
   0   8   4  137.77   12.10
   0   8   4  117.52   10.28
   0  -8  -5   23.35    5.33
   0  -8  -5   29.88    6.17
   0   8   5   31.62    7.09
   0   8   5   25.57    6.64
   0  -8  -6    1.12    2.19
   0  -8  -6    0.41    2.42
   0   8   6   -1.37    2.52
   0   8   6    0.81    3.28
   0  -8  -7   -0.72    2.02
   0  -8  -7    2.43    2.86
   0   8   7    0.28    2.79
   0   8   7   -0.73    3.22
   0  -8  -8    2.54    2.63
   0  -8  -8    2.98    3.09
   0   8   8    6.21    3.47
   0   8   8    1.92    3.82
   0  -8  -9   27.76    5.69
   0  -8  -9   22.73    6.38
   0   8   9   25.12    7.71
   0  -8 -10    2.05    3.27
   0   8  10    3.78    4.41
   0  -8 -11   12.39    5.27
   0   8  11    6.02    4.90
   0  -8 -12    6.62    4.47
   0   8  12    9.54    5.72
   0  -8 -13   -0.59    3.33
   0   8  13   -0.24    3.74
   0  -9   7   10.78    5.52
   0   9  -7   12.03    5.82
   0  -9   6   15.19    5.91
   0   9  -6   20.14    5.61
   0   9  -6   18.75    6.94
   0  -9   5   32.82    8.16
   0   9  -5   37.60    7.13
   0   9  -5   35.82    8.87
   0  -9   4   24.98    7.00
   0   9  -4   29.07    6.28
   0   9  -4   22.45    7.27
   0  -9   3    0.81    2.92
   0   9  -3    1.08    2.65
   0   9  -3    0.34    3.28
   0  -9   2   12.77    5.25
   0   9  -2   15.50    4.58
   0   9  -2   10.20    5.51
   0  -9   1    2.88    3.34
   0   9  -1    9.76    5.41
   0  -9   0   29.05    7.04
   0  -9   0   26.21    5.75
   0   9   0   20.37    7.03
   0  -9  -1   39.27    7.64
   0  -9  -1   45.54    7.36
   0   9   1   39.41    8.95
   0  -9  -2   23.78    6.16
   0  -9  -2   26.02    5.75
   0   9   2   30.35    7.93
   0  -9  -3   -0.73    1.94
   0  -9  -3   -0.17    2.17
   0   9   3    0.73    3.48
   0   9   3    1.11    2.80
   0  -9  -4   20.66    5.52
   0  -9  -4   11.04    4.34
   0   9   4   11.45    5.24
   0   9   4   14.57    4.96
   0  -9  -5   31.41    6.42
   0  -9  -5   26.01    6.14
   0   9   5   34.33    7.71
   0   9   5   32.07    7.11
   0  -9  -6    1.19    2.46
   0  -9  -6    0.52    2.47
   0   9   6   -2.77    2.48
   0   9   6    0.41    3.14
   0  -9  -7    0.63    2.43
   0  -9  -7    1.42    2.88
   0   9   7    0.97    3.40
   0   9   7    2.99    3.72
   0  -9  -8    4.38    3.11
   0  -9  -8    3.15    3.28
   0   9   8    2.19    3.13
   0   9   8    3.28    4.34
   0  -9  -9   13.43    5.44
   0   9   9   13.50    6.07
   0  -9 -10    5.73    4.10
   0   9  10    4.28    4.74
   0  -9 -11    3.37    3.64
   0   9  11    4.41    4.71
   0  -9 -12    0.17    3.57
   0   9  12    0.91    4.37
   0  -9 -13    0.05    3.72
   0   9  13    0.59    4.39
   0  10  -7   -0.68    3.93
   0 -10   6   11.24    5.85
   0  10  -6   14.75    6.54
   0 -10   5   13.85    5.92
   0  10  -5   15.89    6.76
   0 -10   4    2.62    3.74
   0  10  -4    2.60    3.94
   0 -10   3   13.68    5.49
   0  10  -3   17.86    5.23
   0  10  -3   12.74    6.27
   0 -10   2    6.88    4.65
   0  10  -2    6.25    3.44
   0  10  -2    3.92    4.07
   0 -10   1   -1.31    2.38
   0 -10   1   -1.89    2.09
   0  10  -1   -1.37    2.94
   0 -10   0   24.64    6.61
   0 -10   0   18.66    5.23
   0  10   0   26.79    7.94
   0 -10  -1   22.49    6.46
   0 -10  -1   17.97    5.18
   0  10   1   23.62    7.44
   0 -10  -2   16.85    5.60
   0 -10  -2   20.77    5.56
   0  10   2   17.62    6.60
   0 -10  -3    2.64    3.16
   0 -10  -3    3.50    3.14
   0  10   3    6.46    4.55
   0 -10  -4    4.35    3.41
   0 -10  -4    0.22    2.49
   0  10   4    2.57    3.80
   0 -10  -5    6.49    3.86
   0 -10  -5   13.16    4.81
   0  10   5   12.31    5.64
   0  10   5    9.81    4.47
   0 -10  -6   -1.61    2.12
   0 -10  -6   -0.84    2.54
   0  10   6   -1.91    2.77
   0  10   6   -0.24    3.29
   0 -10  -7   15.81    5.08
   0 -10  -7    9.17    4.54
   0  10   7   12.35    5.16
   0  10   7   10.91    5.60
   0 -10  -8   27.37    6.19
   0 -10  -8   29.68    7.27
   0  10   8   19.31    5.88
   0  10   8   17.95    6.73
   0 -10  -9    2.69    3.36
   0  10   9    1.65    4.23
   0 -10 -10    0.55    3.13
   0  10  10    0.58    4.02
   0 -10 -11    1.20    3.68
   0  10  11    3.22    4.59
   0 -10 -12    1.00    3.62
   0  10  12    4.15    4.97
   0 -10 -13   -1.33    3.32
   0  11  -6    4.29    4.89
   0 -11   5    0.25    3.95
   0  11  -5    3.46    4.38
   0 -11   4   -0.34    2.78
   0  11  -4    2.83    4.48
   0 -11   3    0.86    3.45
   0  11  -3    0.16    3.81
   0 -11   2   19.79    6.52
   0  11  -2   28.55    8.42
   0 -11   1   23.34    6.96
   0  11  -1   28.52    8.24
   0 -11   0    9.21    4.79
   0  11   0    6.10    4.60
   0 -11  -1    3.93    3.78
   0 -11  -1    3.62    3.31
   0  11   1    1.78    3.84
   0 -11  -2   11.33    4.86
   0 -11  -2   13.49    4.81
   0  11   2   15.11    6.58
   0 -11  -3    6.62    3.94
   0 -11  -3    3.35    3.52
   0  11   3    4.68    4.72
   0 -11  -4   13.99    5.27
   0 -11  -4   13.88    5.08
   0  11   4   10.27    5.26
   0 -11  -5   36.22    7.47
   0 -11  -5   39.21    7.68
   0  11   5   29.89    7.84
   0 -11  -6   39.93    7.85
   0 -11  -6   44.92    8.23
   0  11   6   45.47    9.23
   0 -11  -7    1.28    2.90
   0 -11  -7   -0.48    2.69
   0  11   7   -0.41    3.40
   0  11   7   -3.19    3.10
   0 -11  -8   30.04    7.19
   0  11   8   29.44    7.23
   0  11   8   39.11    8.91
   0 -11  -9   12.78    5.28
   0  11   9   12.65    6.02
   0 -11 -10    4.65    4.22
   0  11  10    6.88    5.08
   0 -11 -11   21.19    6.84
   0  11  11   29.19    8.66
   0 -11 -12   61.15   10.89
   0  11  12   56.35   11.72
   0  12  -4   42.14   10.20
   0 -12   3    7.31    5.10
   0  12  -3    6.56    5.29
   0 -12   2    1.22    3.95
   0  12  -2    3.69    4.37
   0 -12   1   18.40    6.61
   0  12  -1   18.44    7.06
   0 -12   0   10.69    5.27
   0  12   0    2.37    4.11
   0 -12  -1   -0.95    2.76
   0  12   1    5.51    4.66
   0 -12  -2   54.30    9.66
   0  12   2   72.67   12.44
   0 -12  -3   70.37   10.80
   0  12   3   67.15   12.04
   0 -12  -4   -0.17    3.04
   0  12   4   -1.78    3.77
   0 -12  -5   46.37    8.79
   0  12   5   51.04   10.42
   0 -12  -6   13.68    5.35
   0  12   6   11.74    5.81
   0 -12  -7    1.24    3.34
   0  12   7    1.39    3.58
   0 -12  -8   34.58    7.90
   0  12   8   48.40    9.47
   0 -12  -9   82.10   11.73
   0 -12 -10   15.37    6.17
   0  12  10   14.57    6.54
   0 -12 -11    2.12    4.00
   0  12  11    0.23    4.38
   0 -12 -12   13.03    6.23
   0 -13   1   37.47    8.90
   0  13  -1   52.77   11.45
   0 -13   0   48.55    9.99
   0  13   0   50.63   10.81
   0 -13  -1    1.96    3.72
   0  13   1   -1.68    3.22
   0 -13  -2    6.67    4.68
   0  13   2   14.40    6.65
   0 -13  -3   58.68   10.34
   0  13   3   78.77   13.41
   0 -13  -4    4.74    4.20
   0  13   4    7.40    5.47
   0 -13  -5   63.41   10.18
   0  13   5   70.49   12.42
   0 -13  -6   86.40   10.15
   0  13   6   82.29   12.74
   0  13   7   55.76   10.54
   0 -14  -1   -0.37    3.52
   0 -14  -2   23.13    7.18
   0  14   2   18.02    7.09
   0 -14  -3  106.51   11.99
   0 -14  -4   84.58   12.10
   0  14   4   75.56   12.96
   0 -14  -5    0.09    3.42
   0  14   5    0.26    4.15
   0  14   6   24.62    7.94
   0  14   7   37.04    9.25
  -1  14   6    3.03    4.77
   1 -14  -6    0.48    3.54
  -1  14   5   18.32    6.96
   1 -14  -5   28.93    7.73
  -1  14   4   75.93   12.73
   1 -14  -4   92.69   11.37
  -1  14   3   40.30   10.01
   1 -14  -3   32.80    8.35
   1 -14  -2    4.11    4.35
  -1  13   7  114.21   12.54
   1 -13  -7  118.05   11.75
  -1  13   6   92.77   13.48
   1 -13  -6   88.20   10.59
  -1  13   5   -1.94    3.46
   1 -13  -5   -1.11    2.63
  -1  13   4   65.46   11.98
   1 -13  -4   78.83   11.60
  -1  13   3   78.52   13.09
   1 -13  -3   77.71   11.78
  -1  13   2   -3.37    3.28
   1 -13  -2    0.67    3.44
  -1  13   1   47.24   10.45
   1 -13  -1   58.34   10.44
  -1  13   0   94.82   14.60
   1 -13   0  108.27   12.49
  -1  13  -1   39.52    9.90
   1 -13   1   36.67    9.08
  -1  12  11    0.60    4.55
  -1  12  10   92.14   13.73
  -1  12   9  131.54   13.66
   1 -12  -8   14.96    5.54
  -1  12   7   73.97   11.41
   1 -12  -7   68.69   10.37
  -1  12   6  122.20   12.89
   1 -12  -6  132.36   12.26
  -1  12   5   11.75    5.71
   1 -12  -5   14.34    5.54
  -1  12   4   47.30   10.05
   1 -12  -4   51.71    9.41
  -1  12   3  209.65   17.48
   1 -12  -3  203.67   15.68
  -1  12   2   79.13   13.02
   1 -12  -2   73.68   11.57
  -1  12   1   20.59    7.20
   1 -12  -1   27.75    7.59
  -1  12   0  164.18   16.08
   1 -12   0  150.59   14.21
  -1  12  -1  108.03   13.29
   1 -12   1  128.08   13.29
  -1  12  -2   -1.04    3.19
   1 -12   2    1.13    3.36
  -1  12  -3   76.43   13.19
   1 -12   3   68.37   11.82
  -1  11  12  111.67   13.66
   1 -11 -12  129.43   13.13
  -1  11  11   11.02    6.09
   1 -11 -11   13.63    5.61
  -1  11  10   41.43    9.60
   1 -11 -10   25.91    6.94
  -1  11   9  160.63   15.15
   1 -11  -9  167.17   13.59
  -1  11   8   54.45   10.36
   1 -11  -8   56.53    9.29
  -1  11   7   33.29    7.70
  -1  11   7   33.79    8.33
   1 -11  -7   30.86    6.89
  -1  11   6  219.98   16.28
  -1  11   6  225.16   15.76
   1 -11  -6  203.12   14.35
  -1  11   5  104.47   11.97
   1 -11  -5   90.09   10.11
  -1  11   4    5.63    4.53
   1 -11  -4    1.39    2.88
  -1  11   3  199.56   16.57
   1 -11  -3  218.94   15.65
  -1  11   2  210.93   17.09
   1 -11  -2  230.64   16.42
  -1  11   1   -0.98    3.20
   1 -11  -1    2.47    3.55
  -1  11   0   85.93   13.62
   1 -11   0   87.82   10.78
  -1  11  -1  168.31   15.89
   1 -11   1  195.03   15.86
  -1  11  -2   35.25    8.93
   1 -11   2   34.30    8.44
  -1  11  -3   70.93   12.30
   1 -11   3   73.16   12.02
  -1  11  -4  189.85   17.15
   1 -11   4  180.14   16.08
  -1  11  -5   68.92   12.27
   1 -11   5   69.13   12.02
   1 -10 -13   23.36    7.55
  -1  10  12  141.53   15.38
   1 -10 -12  117.62   12.59
  -1  10  11   65.21   12.26
   1 -10 -11   61.91   10.26
  -1  10  10    5.64    5.07
   1 -10 -10   10.78    5.25
  -1  10   9  141.15   14.21
   1 -10  -9  140.74   11.57
   1 -10  -9  156.10   13.05
  -1  10   8  186.13   15.80
   1 -10  -8  177.71   12.92
   1 -10  -8  176.91   13.42
  -1  10   7   -2.84    2.58
  -1  10   7   -0.89    3.64
   1 -10  -7   -0.36    2.46
   1 -10  -7   -0.60    2.65
  -1  10   6  195.88   14.81
  -1  10   6  145.33   13.00
   1 -10  -6  165.22   12.71
   1 -10  -6  160.42   12.01
  -1  10   5  215.64   15.96
  -1  10   5  203.28   14.54
   1 -10  -5  206.85   14.28
   1 -10  -5  222.95   13.59
  -1  10   4   51.53    9.78
  -1  10   4   41.90    7.77
   1 -10  -4   46.14    8.46
   1 -10  -4   50.50    7.79
  -1  10   3   58.90   10.45
   1 -10  -3   54.94    9.18
   1 -10  -3   80.19    8.23
  -1  10   2  261.16   18.53
   1 -10  -2  241.20   16.14
  -1  10   1   48.31    9.89
   1 -10  -1   51.70    9.26
  -1  10   0   39.72    9.12
   1 -10   0   50.13    9.33
  -1  10  -1  251.02   18.74
   1 -10   1  279.95   18.44
  -1  10  -2  177.90   16.08
   1 -10   2  197.95   15.88
  -1  10  -3    1.23    3.60
   1 -10   3    0.07    3.07
  -1  10  -4  150.76   14.94
   1 -10   4  179.82   15.57
  -1  10  -5  119.52   13.42
   1 -10   5  138.33   14.02
  -1  10  -6    3.65    4.67
   1 -10   6   -0.69    3.03
  -1  10  -7   49.66   10.51
   1  -9 -13    2.11    4.27
  -1   9  12  146.25   15.74
   1  -9 -12  140.67   13.58
  -1   9  11  124.33   14.15
   1  -9 -11  144.18   13.20
  -1   9  10    7.81    5.05
   1  -9 -10    2.87    3.68
  -1   9   9  108.53   12.83
   1  -9  -9   93.65    9.47
   1  -9  -9   96.08   10.36
  -1   9   8  272.14   18.78
   1  -9  -8  274.48   15.36
   1  -9  -8  284.62   16.57
  -1   9   7   93.26    9.61
  -1   9   7   86.81   10.67
   1  -9  -7   99.71    9.54
   1  -9  -7   87.34    9.35
  -1   9   6   38.43    7.80
  -1   9   6   41.49    8.69
   1  -9  -6   33.00    6.78
   1  -9  -6   34.04    6.74
  -1   9   5  173.01   13.73
  -1   9   5  185.72   13.87
   1  -9  -5  200.36   13.50
   1  -9  -5  192.06   12.33
  -1   9   4   60.64   10.19
  -1   9   4   57.06    8.96
   1  -9  -4   65.37    9.54
   1  -9  -4   71.24    7.63
  -1   9   3   18.34    6.25
  -1   9   3   12.76    4.67
   1  -9  -3   21.86    5.84
   1  -9  -3   18.50    4.86
  -1   9   2  324.16   19.66
   1  -9  -2  314.42   17.65
   1  -9  -2  350.36   15.27
  -1   9   1  228.00   16.92
   1  -9  -1  247.02   16.04
   1  -9  -1  284.77   13.61
  -1   9   0   -1.03    3.17
   1  -9   0    2.15    3.25
   1  -9   0    1.28    2.46
  -1   9  -1  138.97   13.54
   1  -9   1  169.00   14.05
   1  -9   1  175.84   11.03
  -1   9  -2  309.79   14.56
   1  -9   2  311.55   19.09
  -1   9  -3   49.99   10.40
   1  -9   3   44.10    9.14
  -1   9  -4   45.22    9.77
   1  -9   4   66.42   11.25
  -1   9  -5  144.43   14.46
   1  -9   5  148.10   14.11
  -1   9  -6   37.07    9.22
   1  -9   6   39.48    8.95
  -1   9  -7   17.84    6.82
   1  -9   7   18.98    6.99
  -1   8  13   16.42    7.16
   1  -8 -13   17.66    6.42
  -1   8  12   78.24   13.55
   1  -8 -12   73.76   11.65
  -1   8  11  244.68   19.40
   1  -8 -11  290.88   18.43
  -1   8  10  110.23   13.12
   1  -8 -10  112.31   10.09
   1  -8 -10  115.22   11.63
  -1   8   9    4.68    4.40
   1  -8  -9    3.95    3.18
   1  -8  -9    3.74    3.35
  -1   8   8  171.24   15.22
   1  -8  -8  145.11   11.00
   1  -8  -8  156.53   12.23
  -1   8   7  175.78   11.80
  -1   8   7  152.58   13.97
   1  -8  -7  156.57   11.29
   1  -8  -7  157.65   11.92
  -1   8   6    7.15    3.96
  -1   8   6    3.53    4.08
   1  -8  -6    7.81    3.59
   1  -8  -6    4.63    3.21
  -1   8   5  210.20   14.19
  -1   8   5  188.64   14.01
   1  -8  -5  196.91   12.77
   1  -8  -5  211.46   12.68
  -1   8   4  269.46   16.52
  -1   8   4  246.58   14.94
   1  -8  -4  244.83   14.32
   1  -8  -4  259.00   13.33
  -1   8   3   26.97    6.84
  -1   8   3   20.24    5.34
   1  -8  -3   27.86    6.18
   1  -8  -3   24.73    5.28
  -1   8   2  167.52   13.67
  -1   8   2  170.64   10.94
   1  -8  -2  174.91   12.73
   1  -8  -2  178.14   10.62
  -1   8   1  407.25   21.32
  -1   8   1  409.70   15.30
   1  -8  -1  432.07   20.23
   1  -8  -1  436.56   15.97
  -1   8   0  104.67   11.34
   1  -8   0  110.35   10.77
   1  -8   0  108.28    8.41
  -1   8  -1   38.01    8.51
   1  -8   1   47.72    8.82
  -1   8  -2  255.80   12.66
  -1   8  -2  239.37   17.17
   1  -8   2  248.57   16.48
  -1   8  -3  150.18   10.14
  -1   8  -3  132.69   13.11
   1  -8   3  150.47   13.23
  -1   8  -4    8.50    3.50
  -1   8  -4    4.27    4.13
   1  -8   4    9.37    4.80
  -1   8  -5  178.58   11.64
  -1   8  -5  166.80   14.85
   1  -8   5  182.29   15.18
  -1   8  -6  156.80   11.36
  -1   8  -6  132.72   13.57
   1  -8   6  160.23   14.55
  -1   8  -7    3.41    4.17
   1  -8   7    6.63    4.47
  -1   8  -8   48.15   10.07
   1  -8   8   56.87   10.92
   1  -8   9   69.19   11.99
  -1   7  13  128.90   15.07
   1  -7 -13  111.37   12.45
  -1   7  12   -0.46    3.86
   1  -7 -12   -0.04    3.19
  -1   7  11  129.76   14.52
   1  -7 -11  162.42   13.97
  -1   7  10  142.79   14.87
   1  -7 -10  166.98   11.92
   1  -7 -10  153.20   13.08
  -1   7   9    5.96    4.59
   1  -7  -9   10.12    3.86
   1  -7  -9   10.07    4.47
  -1   7   8  136.94   13.77
   1  -7  -8  135.15   10.34
   1  -7  -8  142.96   11.72
  -1   7   7  337.81   14.76
  -1   7   7  299.72   19.06
   1  -7  -7  316.68   15.14
   1  -7  -7  344.07   16.88
  -1   7   6   77.00    8.05
  -1   7   6   56.43    9.66
   1  -7  -6   66.54    7.31
   1  -7  -6   66.68    7.60
  -1   7   5  111.80    9.88
  -1   7   5  107.26   10.68
   1  -7  -5  109.15    9.09
   1  -7  -5  106.91    8.90
  -1   7   4  407.58   18.91
  -1   7   4  372.21   18.00
   1  -7  -4  372.82   16.66
   1  -7  -4  402.11   15.85
  -1   7   3  175.98   13.03
  -1   7   3  161.35   11.34
   1  -7  -3  169.52   11.61
   1  -7  -3  189.02   10.64
  -1   7   2   12.35    4.80
  -1   7   2   14.54    4.27
   1  -7  -2   12.38    4.22
   1  -7  -2   19.14    4.31
  -1   7   1  353.00   18.86
  -1   7   1  360.29   14.05
   1  -7  -1  370.37   17.75
   1  -7  -1  381.97   14.09
  -1   7   0  185.73   14.17
  -1   7   0  242.66   10.68
   1  -7   0  214.58   13.97
   1  -7   0  237.99   11.21
  -1   7  -1    4.19    2.35
  -1   7  -1    1.46    3.09
  -1   7  -1    1.79    2.01
   1  -7   1    4.40    3.38
  -1   7  -2  261.87   12.16
  -1   7  -2  272.75   17.45
   1  -7   2  265.55   16.29
  -1   7  -3  302.37   13.42
  -1   7  -3  296.21   18.40
   1  -7   3  330.25   18.65
  -1   7  -4   28.61    5.40
  -1   7  -4   34.56    8.08
   1  -7   4   24.32    6.71
  -1   7  -5   41.83    6.66
  -1   7  -5   55.26   10.01
   1  -7   5   58.58   10.06
  -1   7  -6  127.55   10.06
  -1   7  -6  146.34   13.79
   1  -7   6  148.43   13.58
  -1   7  -7   40.78    7.10
  -1   7  -7   35.26    8.36
   1  -7   7   34.23    8.33
  -1   7  -8   18.59    5.39
  -1   7  -8   12.59    5.88
   1  -7   8   21.04    6.68
  -1   7  -9  124.89   11.19
   1  -7   9  102.03   12.47
   1  -7  10   59.67   11.21
  -1   6  13  116.87   14.46
   1  -6 -13  129.61   13.11
  -1   6  12   15.76    7.12
   1  -6 -12    8.81    4.96
  -1   6  11   77.88   13.11
   1  -6 -11   99.47    9.59
   1  -6 -11  113.75   11.73
  -1   6  10  239.61   18.60
   1  -6 -10  247.92   14.25
   1  -6 -10  233.30   15.73
  -1   6   9   77.09   12.28
   1  -6  -9   78.28    8.03
   1  -6  -9   79.17    9.16
  -1   6   8   27.14    7.52
   1  -6  -8   34.38    6.24
   1  -6  -8   31.93    6.82
  -1   6   7  354.03   13.15
  -1   6   7  276.78   18.12
   1  -6  -7  307.11   14.44
   1  -6  -7  338.04   16.52
  -1   6   6  271.16   12.70
  -1   6   6  241.02   16.15
   1  -6  -6  242.01   12.68
   1  -6  -6  241.95   13.40
  -1   6   5    1.76    2.25
  -1   6   5    1.73    3.03
   1  -6  -5    0.71    1.85
   1  -6  -5    0.36    1.92
  -1   6   4  247.02   13.75
  -1   6   4  220.46   13.92
   1  -6  -4  225.61   12.26
   1  -6  -4  242.66   11.97
  -1   6   3  302.36   15.69
  -1   6   3  277.88   14.39
   1  -6  -3  284.12   13.90
   1  -6  -3  320.23   12.92
  -1   6   2    0.58    2.69
  -1   6   2    1.15    2.49
   1  -6  -2   -0.47    1.56
   1  -6  -2    1.08    1.81
  -1   6   1  346.36   17.50
  -1   6   1  326.22   13.02
   1  -6  -1  363.14   16.52
   1  -6  -1  376.51   13.07
  -1   6   0  460.02   20.49
  -1   6   0  484.13   14.34
   1  -6   0  508.26   20.06
   1  -6   0  472.21   14.44
  -1   6  -1   91.21    6.73
  -1   6  -1   99.29   10.10
   1  -6   1   87.15    8.82
  -1   6  -2   72.50    6.18
  -1   6  -2   69.65    8.68
   1  -6   2   77.85    8.78
   1  -6   2   73.14    5.18
  -1   6  -3  283.26   12.31
  -1   6  -3  252.56   16.13
   1  -6   3  286.09   16.51
   1  -6   3  273.32    9.50
  -1   6  -4   94.58    7.70
  -1   6  -4   94.64   10.36
   1  -6   4  107.35   10.70
  -1   6  -5   14.51    4.07
  -1   6  -5   12.38    5.15
   1  -6   5   14.06    5.21
  -1   6  -6  136.18   10.05
  -1   6  -6  141.88   12.84
   1  -6   6  138.29   12.84
  -1   6  -7  105.77    9.38
  -1   6  -7  103.56   11.39
   1  -6   7   89.09   10.63
  -1   6  -8    0.09    2.23
  -1   6  -8    1.46    3.48
   1  -6   8   -0.01    2.76
  -1   6  -9   90.80    9.62
   1  -6   9   76.63   12.14
  -1   6 -10   82.52    9.61
   1  -6  10   91.77   13.61
  -1   6 -11   10.10    4.89
   1  -6  11   11.93    5.82
  -1   5  14   22.43    8.37
   1  -5 -14   16.84    6.18
  -1   5  13   96.22   14.89
   1  -5 -13  119.24   12.65
  -1   5  12   61.22   11.69
   1  -5 -12   58.32   10.14
  -1   5  11   15.65    6.53
   1  -5 -11    6.02    3.67
   1  -5 -11    8.24    4.49
  -1   5  10  140.60   14.37
   1  -5 -10  170.99   11.88
   1  -5 -10  168.75   13.45
  -1   5   9  170.18   15.27
   1  -5  -9  200.55   12.28
   1  -5  -9  196.01   13.80
  -1   5   8    8.20    4.85
   1  -5  -8   19.04    4.61
   1  -5  -8   14.71    4.71
  -1   5   7  130.87    6.78
  -1   5   7   89.13   10.56
   1  -5  -7  124.79    8.98
   1  -5  -7  127.38   10.25
  -1   5   6  254.58   10.59
  -1   5   6  204.05   14.79
   1  -5  -6  247.52   12.18
   1  -5  -6  244.36   13.15
  -1   5   5   19.70    4.27
  -1   5   5   16.45    5.60
   1  -5  -5   19.14    4.28
   1  -5  -5   17.43    4.24
  -1   5   4  142.55    9.52
  -1   5   4  115.61   10.31
   1  -5  -4  133.66    8.90
   1  -5  -4  129.55    8.51
  -1   5   3  453.32   17.39
  -1   5   3  408.39   16.92
   1  -5  -3  479.26   16.56
   1  -5  -3  494.07   15.05
  -1   5   2  156.21   10.78
  -1   5   2  144.61    9.52
   1  -5  -2  167.62   10.23
   1  -5  -2  151.27    8.02
  -1   5   1   73.59    7.88
  -1   5   1   77.71    6.43
   1  -5  -1   69.13    7.08
   1  -5  -1   70.93    5.53
  -1   5   0  320.40   15.95
  -1   5   0  318.07   11.09
   1  -5   0  305.86   14.52
   1  -5   0  307.93   10.67
  -1   5  -1  124.27    7.10
  -1   5  -1  130.41   10.81
   1  -5   1  135.76   10.20
   1  -5   1  135.59    6.85
  -1   5  -2    3.61    1.96
  -1   5  -2    3.89    3.36
   1  -5   2    3.71    2.83
   1  -5   2    3.38    1.64
  -1   5  -3  223.40   10.33
  -1   5  -3  216.12   14.05
   1  -5   3  221.34   13.87
   1  -5   3  226.88    8.53
  -1   5  -4  145.86    8.93
  -1   5  -4  166.70   12.60
   1  -5   4  166.03   12.42
   1  -5   4  146.49    7.29
  -1   5  -5    0.35    1.85
  -1   5  -5   -0.39    2.89
   1  -5   5    2.49    2.69
   1  -5   5    1.09    1.63
  -1   5  -6   72.55    7.39
  -1   5  -6   81.46    9.66
   1  -5   6   87.77    9.92
  -1   5  -7  146.28   10.68
  -1   5  -7  150.90   12.89
   1  -5   7  166.82   13.83
  -1   5  -8   32.34    6.51
  -1   5  -8   33.31    7.70
   1  -5   8   32.03    7.60
  -1   5  -9   14.80    4.95
   1  -5   9   16.74    5.99
  -1   5 -10   51.43    8.73
   1  -5  10   48.05    9.84
  -1   5 -11    9.43    4.53
   1  -5  11   14.95    6.23
  -1   4  14   -0.28    4.03
  -1   4  13   50.35   10.79
   1  -4 -13   57.92   10.32
  -1   4  12   94.51   14.59
   1  -4 -12   91.39   10.76
  -1   4  11    9.05    5.34
   1  -4 -11    4.02    3.62
  -1   4  10   36.31    8.85
   1  -4 -10   37.67    6.88
   1  -4 -10   34.85    7.38
  -1   4   9   81.10   12.51
   1  -4  -9  110.46    9.34
   1  -4  -9  105.59   10.22
  -1   4   8   45.80    9.32
   1  -4  -8   58.83    6.64
   1  -4  -8   52.21    8.21
  -1   4   7   39.05    3.03
  -1   4   7   36.88    8.00
   1  -4  -7   35.00    5.66
   1  -4  -7   34.43    6.28
  -1   4   6  278.85    8.65
  -1   4   6  203.73   14.63
   1  -4  -6  261.88   12.07
   1  -4  -6  278.48   13.78
  -1   4   5  152.82    7.63
  -1   4   5  111.59   10.42
   1  -4  -5  136.76    8.45
   1  -4  -5  157.91    9.74
  -1   4   4    7.28    2.81
  -1   4   4    3.07    3.01
   1  -4  -4    6.14    2.46
   1  -4  -4    7.12    2.74
  -1   4   3  144.82    8.93
  -1   4   3  127.62    9.55
   1  -4  -3  138.48    8.36
   1  -4  -3  148.35    7.97
  -1   4   2  209.07   11.12
  -1   4   2  200.43   10.68
   1  -4  -2  199.34   10.02
   1  -4  -2  198.94    8.34
  -1   4   1    7.30    3.35
  -1   4   1    6.60    2.64
   1  -4  -1    7.03    2.80
   1  -4  -1    6.36    2.08
  -1   4   0  160.33   10.31
   1  -4   0  128.94    8.86
   1  -4   0  151.40    7.36
  -1   4  -1  117.16    6.15
  -1   4  -1  125.71    9.64
   1  -4   1  109.08    8.51
   1  -4   1  127.28    6.16
  -1   4  -2   27.22    3.91
  -1   4  -2   25.82    5.62
   1  -4   2   19.43    4.70
   1  -4   2   23.37    3.27
  -1   4  -3   76.29    5.84
  -1   4  -3   82.18    8.41
   1  -4   3   70.08    7.52
   1  -4   3   67.82    4.76
  -1   4  -4  231.24   10.67
  -1   4  -4  258.13   14.48
   1  -4   4  244.11   14.15
   1  -4   4  230.26    9.21
  -1   4  -5   72.37    6.66
  -1   4  -5   85.85    9.08
   1  -4   5   78.31    8.57
   1  -4   5   79.55    6.16
  -1   4  -6   -0.24    1.57
  -1   4  -6    0.87    3.01
   1  -4   6    0.79    2.45
   1  -4   6   -0.23    1.71
  -1   4  -7   46.94    7.18
  -1   4  -7   50.63    8.67
   1  -4   7   42.14    8.05
   1  -4   7   58.44    6.31
  -1   4  -8   38.66    6.91
  -1   4  -8   33.76    7.48
   1  -4   8   38.20    7.87
  -1   4  -9    1.14    2.57
   1  -4   9    4.34    4.10
  -1   4 -10   40.90    7.86
   1  -4  10   42.75    8.87
  -1   4 -11   30.78    7.30
   1  -4  11   30.47    7.94
  -1   4 -12    1.82    3.11
   1  -4  12   -0.64    3.78
  -1   3  14   14.17    6.74
  -1   3  13    5.42    5.18
   1  -3 -13    3.58    3.74
  -1   3  12   62.15    9.54
  -1   3  12   43.38    9.96
  -1   3  12   59.49    9.47
   1  -3 -12   46.60    9.25
  -1   3  11   10.37    4.38
  -1   3  11   10.58    5.41
  -1   3  11   17.08    5.46
   1  -3 -11   15.36    5.43
  -1   3  10   10.93    5.57
   1  -3 -10   11.33    4.62
  -1   3   9   82.06   12.45
   1  -3  -9   91.12    8.59
   1  -3  -9  100.18    9.94
  -1   3   8  130.81   12.66
   1  -3  -8  161.24   10.53
   1  -3  -8  175.15   12.26
  -1   3   7   18.99    5.82
   1  -3  -7   22.19    4.65
   1  -3  -7   17.78    4.64
  -1   3   6   79.43    3.19
  -1   3   6   82.89    9.46
   1  -3  -6   70.83    6.39
   1  -3  -6   94.23    8.21
  -1   3   5  100.64    4.48
  -1   3   5   75.79    8.67
   1  -3  -5   86.47    6.51
   1  -3  -5   88.38    7.39
  -1   3   4   19.01    3.10
  -1   3   4   17.40    5.09
   1  -3  -4   15.36    3.29
   1  -3  -4   14.64    3.41
  -1   3   3    2.22    1.92
  -1   3   3    2.85    2.66
   1  -3  -3    3.98    1.97
   1  -3  -3    5.04    2.14
  -1   3   2  104.65    6.96
  -1   3   2   99.00    7.62
   1  -3  -2  104.62    6.65
   1  -3  -2  100.13    5.50
  -1   3   1    7.63    3.03
  -1   3   1   11.58    3.04
   1  -3  -1    4.08    2.11
   1  -3  -1    6.37    1.82
  -1   3   0  108.82    7.64
   1  -3   0   93.12    6.74
   1  -3   0  106.94    5.80
  -1   3  -1  152.45    5.95
  -1   3  -1  173.55    9.75
   1  -3   1  134.96    8.43
   1  -3   1  148.32    6.11
  -1   3  -2  143.94    6.49
  -1   3  -2  175.51   10.20
   1  -3   2  151.88    9.37
   1  -3   2  138.78    6.12
  -1   3  -3   27.34    3.95
  -1   3  -3   29.07    5.48
   1  -3   3   27.85    5.29
   1  -3   3   24.87    3.55
  -1   3  -4   47.11    4.91
  -1   3  -4   53.33    6.40
   1  -3   4   62.82    6.95
   1  -3   4   47.47    4.56
  -1   3  -5   68.39    6.28
  -1   3  -5   77.80    7.96
   1  -3   5   74.37    7.96
   1  -3   5   78.56    6.29
  -1   3  -6    3.39    2.38
  -1   3  -6    3.17    2.98
   1  -3   6    2.36    2.57
   1  -3   6    2.53    2.30
  -1   3  -7   17.02    4.47
  -1   3  -7   17.13    5.35
   1  -3   7   19.52    5.52
   1  -3   7   17.15    4.42
  -1   3  -8   35.97    6.77
  -1   3  -8   38.14    7.31
   1  -3   8   38.61    7.68
   1  -3   8   40.35    6.71
  -1   3  -9    7.98    3.75
   1  -3   9    8.54    4.54
   1  -3   9    3.40    3.26
  -1   3 -10   -0.12    2.63
   1  -3  10    7.41    4.61
  -1   3 -11   12.42    4.77
   1  -3  11   21.89    6.89
  -1   3 -12    1.40    3.11
   1  -3  12    2.03    3.87
  -1   2  14   11.27    6.11
  -1   2  13    2.39    4.61
   1  -2 -13    0.51    3.18
  -1   2  12   39.92    7.95
  -1   2  12   39.68    9.10
   1  -2 -12   50.82    9.31
  -1   2  11   71.18    8.62
  -1   2  11   64.63   11.41
  -1   2  11   73.78    8.83
   1  -2 -11   60.98    9.85
  -1   2  10    2.11    2.84
  -1   2  10    0.54    3.28
  -1   2  10    2.28    2.89
   1  -2 -10    1.10    2.93
  -1   2   9   12.40    4.13
  -1   2   9   17.00    6.16
  -1   2   9   18.00    4.80
   1  -2  -9   11.24    4.49
  -1   2   8   40.47    8.52
   1  -2  -8   67.47    7.23
   1  -2  -8   57.02    8.54
  -1   2   7   54.99    9.51
   1  -2  -7   56.48    6.15
   1  -2  -7   49.21    7.35
  -1   2   6    6.05    3.97
   1  -2  -6   11.71    3.32
   1  -2  -6   13.80    3.94
  -1   2   5   39.09    7.10
   1  -2  -5   38.13    4.53
   1  -2  -5   46.27    5.60
  -1   2   4    2.76    0.90
  -1   2   4    1.60    2.41
   1  -2  -4    2.89    1.77
   1  -2  -4    1.28    1.78
  -1   2   3    6.29    1.75
  -1   2   3    2.15    2.43
   1  -2  -3    4.09    1.79
   1  -2  -3    7.50    2.38
  -1   2   2   76.39    4.83
  -1   2   2   76.54    6.44
   1  -2  -2   81.28    5.20
   1  -2  -2   78.91    4.63
  -1   2   1  173.75    7.32
  -1   2   1  140.47    7.01
   1  -2  -1  140.78    6.58
   1  -2  -1  146.06    4.78
  -1   2   0    1.44    1.83
   1  -2   0    3.32    1.79
   1  -2   0    2.74    0.96
   1  -2   0    2.43    1.53
  -1   2  -1   11.67    1.79
  -1   2  -1   14.64    3.29
   1  -2   1   12.97    3.09
   1  -2   1   11.42    2.10
  -1   2  -2   35.79    3.16
  -1   2  -2   39.69    4.81
   1  -2   2   37.98    4.74
   1  -2   2   29.53    3.12
  -1   2  -3   46.95    4.03
  -1   2  -3   56.19    5.70
   1  -2   3   50.28    5.57
   1  -2   3   56.13    4.59
  -1   2  -4    3.57    1.95
  -1   2  -4    4.89    2.59
   1  -2   4    2.53    2.22
   1  -2   4    2.09    1.78
  -1   2  -5   47.94    5.31
  -1   2  -5   44.37    6.34
   1  -2   5   36.16    5.98
   1  -2   5   55.31    5.66
  -1   2  -6   16.43    4.11
  -1   2  -6   16.00    4.39
   1  -2   6   15.38    4.42
   1  -2   6   16.21    4.17
  -1   2  -7   -0.67    1.48
  -1   2  -7    1.45    2.51
   1  -2   7    0.64    2.28
   1  -2   7    0.07    1.86
  -1   2  -8    6.88    3.30
  -1   2  -8   13.11    4.51
   1  -2   8    7.10    3.83
   1  -2   8    5.57    3.39
  -1   2  -9    6.45    3.52
   1  -2   9    8.05    4.27
   1  -2   9    2.90    3.29
  -1   2 -10    0.72    2.33
   1  -2  10   -0.36    2.50
   1  -2  10   -0.82    2.42
  -1   2 -11    3.09    3.43
   1  -2  11    2.24    3.61
   1  -2  11    4.16    3.65
  -1   2 -12    1.20    3.26
  -1   2 -13   -0.49    2.84
  -1   1  14    7.72    5.53
  -1   1  13    5.53    4.84
   1  -1 -13    2.76    3.93
  -1   1  12    3.33    3.62
  -1   1  12    1.17    4.04
   1  -1 -12    3.95    3.88
  -1   1  11   30.81    7.20
  -1   1  11   30.29    8.04
   1  -1 -11   40.71    8.30
  -1   1  10    5.88    3.68
  -1   1  10    8.79    4.92
  -1   1  10    9.38    4.27
   1  -1 -10   10.17    4.50
  -1   1   9    2.83    2.95
  -1   1   9   -1.56    2.96
  -1   1   9    3.57    2.98
   1  -1  -9    0.04    2.04
  -1   1   8    8.13    3.61
  -1   1   8    4.40    3.80
  -1   1   8    6.14    3.40
   1  -1  -8   10.05    4.04
  -1   1   7   14.97    3.99
  -1   1   7   14.38    5.31
  -1   1   7   18.14    4.44
   1  -1  -7   14.47    4.39
  -1   1   6    9.66    4.21
   1  -1  -6    8.64    3.11
   1  -1  -6   11.87    3.65
  -1   1   5   85.93    8.62
   1  -1  -5   88.02    6.62
   1  -1  -5   94.39    7.44
  -1   1   4   13.37    4.15
   1  -1  -4    9.21    2.51
   1  -1  -4    8.40    2.67
  -1   1   3    2.04    2.50
   1  -1  -3    1.03    1.22
   1  -1  -3   -0.03    1.34
  -1   1   2    3.13    1.06
  -1   1   2    3.17    2.22
   1  -1  -2    0.19    1.02
   1  -1  -2   -0.06    1.13
   1  -1  -2    1.91    0.68
  -1   1   1   17.77    1.95
  -1   1   1   15.70    2.88
   1  -1  -1   11.83    2.02
   1  -1  -1   16.84    1.86
  -1   1   0   -0.29    0.80
   1  -1   0    0.53    0.96
   1  -1   0   -0.09    0.85
  -1   1  -1    2.13    0.83
  -1   1  -1    1.83    1.28
   1  -1   1    1.28    1.37
   1  -1   1    0.93    0.96
  -1   1  -2    8.29    1.81
  -1   1  -2    5.98    1.99
   1  -1   2    6.57    2.16
   1  -1   2    7.33    2.03
  -1   1  -3    9.24    2.30
  -1   1  -3   12.01    2.67
   1  -1   3   10.40    2.73
   1  -1   3    7.33    2.31
  -1   1  -4    2.08    1.65
  -1   1  -4    0.94    1.66
   1  -1   4    2.43    1.95
   1  -1   4    1.85    1.91
  -1   1  -5    0.17    1.58
  -1   1  -5    2.38    2.06
   1  -1   5    2.61    2.04
   1  -1   5    4.06    2.42
  -1   1  -6    0.83    1.67
  -1   1  -6    1.10    1.88
   1  -1   6    1.52    2.10
   1  -1   6   -0.12    1.81
  -1   1  -7    0.11    1.71
  -1   1  -7    0.06    1.99
   1  -1   7    0.93    2.25
   1  -1   7    1.00    2.26
  -1   1  -8    0.46    2.04
  -1   1  -8    0.32    2.39
   1  -1   8    0.81    2.26
   1  -1   8    0.48    2.42
  -1   1  -9   -0.67    1.97
   1  -1   9   -0.23    2.42
   1  -1   9    1.90    3.10
  -1   1 -10    0.66    2.50
   1  -1  10    1.41    2.80
   1  -1  10   -0.16    2.98
  -1   1 -11    0.52    2.58
   1  -1  11    0.40    2.94
   1  -1  11   -0.01    2.98
  -1   1 -12   -0.86    2.69
   1  -1  12   -0.21    3.35
  -1   1 -13    1.19    3.34
  -1   0  13    3.60    4.19
  -1   0  13    4.83    4.50
   1   0 -13    1.72    3.64
  -1   0  12    1.27    3.55
  -1   0  12    2.46    4.22
   1   0 -12    0.22    2.87
  -1   0  11    2.15    3.53
  -1   0  11    3.14    4.26
   1   0 -11    1.00    3.09
  -1   0  10    0.69    2.58
  -1   0  10    2.05    3.22
   1   0 -10   -0.95    2.29
  -1   0   9    5.95    3.63
  -1   0   9    4.79    4.02
   1   0  -9    3.10    2.90
  -1   0   8   13.37    4.44
  -1   0   8    9.99    4.72
  -1   0   8   17.18    5.02
   1   0  -8   11.51    4.16
  -1   0   7    7.49    3.22
  -1   0   7    6.73    3.82
  -1   0   7    5.77    3.06
   1   0  -7    5.83    2.89
  -1   0   6    0.78    1.88
  -1   0   6    2.06    2.63
  -1   0   6    0.06    1.78
   1   0  -6    0.73    1.78
   1   0  -6    1.73    1.54
  -1   0   5    5.48    2.39
  -1   0   5    6.43    3.25
  -1   0   5    6.12    2.66
   1   0  -5    4.82    2.57
   1   0  -5    4.61    1.72
  -1   0   4    1.29    2.38
   1   0  -4    0.13    1.34
   1   0  -4    0.28    1.46
   1   0  -4    1.05    1.25
  -1   0   3   21.06    4.31
   1   0  -3   19.47    3.34
   1   0  -3   18.10    3.30
   1   0  -3   19.54    2.11
  -1   0   2    3.09    1.10
  -1   0   2    4.77    2.37
   1   0  -2    3.11    1.52
   1   0  -2    2.03    1.42
   1   0  -2    2.84    0.84
  -1   0   1    3.55    0.81
  -1   0   1    4.67    1.77
   1   0  -1    3.43    1.14
   1   0  -1    3.48    1.19
   1   0  -1    3.34    0.72
   1   0   0    0.73    0.60
   1   0   0    1.14    0.65
   1   0   0    1.29    0.58
   1   0   0    1.40    0.83
  -1   0  -1    1.56    0.83
  -1   0  -1    0.45    0.71
   1   0   1    1.29    0.80
   1   0   1    0.69    0.87
  -1   0  -2    1.54    1.17
  -1   0  -2    0.15    0.88
   1   0   2    0.63    1.04
   1   0   2    0.85    1.34
  -1   0  -3   10.18    2.36
  -1   0  -3    7.15    1.80
   1   0   3    8.73    2.18
   1   0   3    9.70    2.91
  -1   0  -4   10.04    2.67
  -1   0  -4    7.82    2.11
   1   0   4    7.95    2.40
   1   0   4   15.09    3.65
  -1   0  -5    3.78    2.08
  -1   0  -5    1.79    1.49
   1   0   5    2.37    1.98
   1   0   5    2.37    2.34
  -1   0  -6   23.59    4.64
  -1   0  -6   23.72    3.91
   1   0   6   26.99    4.75
   1   0   6   31.20    5.95
  -1   0  -7   25.15    5.20
  -1   0  -7   25.33    4.39
   1   0   7   18.88    4.47
   1   0   7   21.59    5.54
  -1   0  -8    1.46    2.49
  -1   0  -8    0.67    2.22
   1   0   8    3.91    2.81
   1   0   8    2.37    3.12
  -1   0  -9    2.56    2.80
   1   0   9    8.34    3.92
   1   0   9    7.47    4.10
  -1   0 -10    5.64    3.58
   1   0  10    4.53    3.68
   1   0  10    3.43    3.88
  -1   0 -11    1.93    3.06
   1   0  11    2.19    3.06
   1   0  11    1.69    3.55
  -1   0 -12   14.82    5.36
   1   0  12   19.28    6.49
  -1   0 -13    6.67    4.25
   1   0  13    8.79    5.17
   1   0  14    0.92    4.19
  -1  -1  13    4.74    4.76
   1   1 -13    1.75    3.38
  -1  -1  12    0.13    3.11
   1   1 -12    0.62    3.08
  -1  -1  11   -1.40    2.82
  -1  -1  11    0.38    3.27
   1   1 -11    1.03    3.01
  -1  -1  10   -1.07    2.66
  -1  -1  10    0.43    3.09
   1   1 -10    2.13    2.86
  -1  -1   9   -0.03    2.41
  -1  -1   9    0.70    2.75
   1   1  -9    0.19    2.31
  -1  -1   8    1.53    2.59
  -1  -1   8    0.02    2.66
   1   1  -8   -0.37    2.09
  -1  -1   7   12.83    4.09
  -1  -1   7   15.39    4.83
   1   1  -7    8.96    3.65
  -1  -1   6   12.16    3.85
  -1  -1   6   12.09    4.20
  -1  -1   6    8.38    3.29
   1   1  -6   12.84    3.78
   1   1  -6    8.94    2.88
  -1  -1   5    0.10    1.39
  -1  -1   5    2.09    2.45
  -1  -1   5    1.61    2.01
   1   1  -5    1.62    1.89
   1   1  -5   -0.60    1.60
  -1  -1   4   11.30    3.10
  -1  -1   4   14.92    3.83
  -1  -1   4   11.95    3.20
   1   1  -4   12.35    3.23
   1   1  -4    9.13    2.66
  -1  -1   3   20.96    3.67
  -1  -1   3   26.18    4.39
  -1  -1   3   16.21    3.29
   1   1  -3   26.03    4.15
   1   1  -3   17.68    3.21
  -1  -1   2    0.93    1.38
  -1  -1   2    0.80    1.69
  -1  -1   2   -0.43    1.11
   1   1  -2    0.86    1.42
   1   1  -2    0.95    1.56
  -1  -1   1   15.91    2.38
  -1  -1   1   18.09    2.45
  -1  -1   1   15.70    2.40
   1   1  -1   18.86    2.69
   1   1  -1   20.44    2.91
  -1  -1   0   42.55    2.44
  -1  -1   0   45.56    2.58
   1   1   0   58.01    3.53
   1   1   0   49.24    2.34
  -1  -1  -1    4.30    0.63
  -1  -1  -1    3.50    1.37
   1   1   1    2.58    1.12
   1   1   1    3.27    1.17
  -1  -1  -2   25.40    3.11
   1   1   2   19.68    1.28
   1   1   2   18.31    1.11
   1   1   2   16.28    1.97
   1   1   2   24.47    3.48
   1   1   2   18.92    1.26
  -1  -1  -3   77.75    5.31
   1   1   3   77.03    3.59
   1   1   3   69.67    3.80
   1   1   3   82.99    6.32
   1   1   3   81.87    3.76
  -1  -1  -4   99.75    6.63
  -1  -1  -4   96.91    4.82
   1   1   4  113.92    5.50
   1   1   4  113.90    8.21
   1   1   4  114.63    5.49
  -1  -1  -5   18.81    3.92
  -1  -1  -5   18.67    2.91
   1   1   5   16.62    3.14
   1   1   5   24.84    5.42
   1   1   5   21.68    3.57
  -1  -1  -6   35.66    5.73
  -1  -1  -6   34.26    3.61
   1   1   6   39.39    4.64
   1   1   6   46.34    7.59
  -1  -1  -7   55.20    6.48
  -1  -1  -7   53.63    4.75
   1   1   7   55.50    5.94
   1   1   7   54.32    8.52
  -1  -1  -8   -1.17    1.62
  -1  -1  -8    1.27    1.72
   1   1   8    1.10    2.13
   1   1   8   -1.36    2.07
  -1  -1  -9   35.72    6.89
   1   1   9   36.43    6.41
   1   1   9   40.67    8.12
  -1  -1 -10   50.27    8.50
   1   1  10   41.43    7.40
   1   1  10   44.40    9.01
  -1  -1 -11    4.58    3.62
   1   1  11    6.09    4.39
  -1  -1 -12   17.10    5.78
   1   1  12   15.06    6.09
  -1  -1 -13   38.54    8.41
   1   1  13   30.87    8.22
  -1  -1 -14    6.75    4.48
   1   1  14    4.96    4.63
  -1  -2  13    4.35    4.69
  -1  -2  12   -0.51    3.45
   1   2 -12    1.65    3.22
  -1  -2  11    4.65    4.04
   1   2 -11    1.78    3.21
  -1  -2  10   20.56    6.44
  -1  -2  10   19.23    5.61
   1   2 -10   17.06    5.64
  -1  -2   9   23.25    6.33
  -1  -2   9   27.07    6.24
   1   2  -9   22.93    5.97
  -1  -2   8   -0.58    2.27
  -1  -2   8   -0.29    2.31
   1   2  -8    0.55    2.22
  -1  -2   7   21.40    5.39
  -1  -2   7   23.13    5.42
   1   2  -7   21.92    5.28
   1   2  -7   13.96    3.95
  -1  -2   6   38.79    6.69
  -1  -2   6   48.67    7.01
   1   2  -6   43.36    6.83
   1   2  -6   31.30    5.41
  -1  -2   5    4.39    2.48
  -1  -2   5    6.98    2.82
   1   2  -5    8.58    3.07
   1   2  -5    4.79    2.66
  -1  -2   4   51.64    5.81
  -1  -2   4   55.30    5.40
   1   2  -4   51.83    5.56
   1   2  -4   36.69    5.53
  -1  -2   3   69.75    6.08
  -1  -2   3   77.84    5.53
   1   2  -3   71.78    5.90
   1   2  -3   61.50    6.03
  -1  -2   2    0.07    1.22
  -1  -2   2    2.37    1.54
   1   2  -2    1.67    1.50
   1   2  -2   -0.01    1.88
  -1  -2   1   38.16    3.84
  -1  -2   1   40.43    2.49
   1   2  -1   38.05    3.84
   1   2  -1   31.93    4.66
   1   2  -1   43.61    2.37
  -1  -2   0  133.76    5.82
  -1  -2   0  138.33    2.96
   1   2   0  138.79    6.36
   1   2   0  145.55    7.43
   1   2   0  128.79    2.80
  -1  -2  -1  210.07    6.04
  -1  -2  -1  184.39    7.35
   1   2   1  242.06    8.88
   1   2   1  237.67    6.58
  -1  -2  -2    3.21    1.02
  -1  -2  -2    1.66    1.57
   1   2   2    4.22    1.82
   1   2   2    3.16    1.91
  -1  -2  -3   78.82    3.27
  -1  -2  -3   77.31    5.73
   1   2   3   85.67    4.88
   1   2   3   84.56    6.83
  -1  -2  -4   74.75    3.97
  -1  -2  -4   83.21    6.37
   1   2   4   77.84    4.56
   1   2   4   99.90    8.22
  -1  -2  -5   20.92    3.12
  -1  -2  -5   24.61    4.64
   1   2   5   17.45    2.80
   1   2   5   24.50    5.40
  -1  -2  -6   86.77    7.64
  -1  -2  -6   71.77    4.75
   1   2   6   73.47    5.55
   1   2   6   89.39    8.97
   1   2   6   78.76    5.70
  -1  -2  -7  141.94   10.18
  -1  -2  -7  133.06    6.64
   1   2   7  130.31    7.97
   1   2   7  163.76   12.61
   1   2   7  141.26    8.24
  -1  -2  -8   15.73    4.61
  -1  -2  -8   23.54    3.73
   1   2   8   27.87    5.01
   1   2   8   20.77    6.13
   1   2   8   21.07    4.53
  -1  -2  -9    9.52    4.13
   1   2   9   20.08    4.78
   1   2   9   20.33    6.15
  -1  -2 -10   78.22    9.07
   1   2  10   87.65    8.34
   1   2  10  100.11   11.38
  -1  -2 -11   33.04    7.54
   1   2  11   25.32    7.13
  -1  -2 -12    4.51    3.64
   1   2  12    2.60    4.27
  -1  -2 -13   52.92    9.74
   1   2  13   48.24   10.11
  -1  -2 -14   31.45    7.88
   1   2  14   33.68    8.59
  -1  -3  12   14.71    6.08
   1   3 -12   13.23    5.59
  -1  -3  11    3.22    4.16
   1   3 -11   -0.15    2.82
  -1  -3  10   12.00    5.23
   1   3 -10   12.56    4.77
  -1  -3   9   67.14   10.41
   1   3  -9   74.81    9.10
  -1  -3   8   10.38    4.56
  -1  -3   8   12.08    4.19
   1   3  -8    8.79    3.92
  -1  -3   7   21.53    5.71
  -1  -3   7   17.66    4.54
   1   3  -7   18.76    4.98
   1   3  -7   16.95    4.69
  -1  -3   6   60.29    7.45
  -1  -3   6   71.62    6.71
   1   3  -6   53.16    6.58
   1   3  -6   48.49    7.30
  -1  -3   5   46.58    7.25
  -1  -3   5   57.44    5.51
   1   3  -5   49.41    6.01
   1   3  -5   41.52    6.78
  -1  -3   4   21.41    5.00
  -1  -3   4   28.43    4.10
   1   3  -4   22.81    4.57
   1   3  -4   20.48    4.98
  -1  -3   3  286.03   13.01
  -1  -3   3  306.71    8.95
   1   3  -3  271.23   11.77
   1   3  -3  208.27   11.71
  -1  -3   2   80.89    6.60
  -1  -3   2   80.73    3.61
   1   3  -2   79.08    6.19
   1   3  -2   64.33    6.84
  -1  -3   1   -1.53    1.06
   1   3  -1    1.45    1.54
   1   3  -1    2.17    2.30
  -1  -3   0   77.61    5.50
   1   3   0   81.41    5.73
   1   3   0   80.53    7.05
  -1  -3  -1  183.84    7.44
  -1  -3  -1  177.29    8.26
   1   3   1  209.35   10.24
   1   3   1  207.62    6.59
  -1  -3  -2    1.75    1.31
  -1  -3  -2    1.08    1.69
   1   3   2    1.39    2.04
   1   3   2    2.91    2.14
  -1  -3  -3  107.39    4.81
  -1  -3  -3  105.54    7.11
   1   3   3  117.59    7.04
   1   3   3  107.60    7.61
  -1  -3  -4  208.52    6.71
  -1  -3  -4  201.89   10.23
   1   3   4  223.91    8.90
   1   3   4  210.58   11.70
  -1  -3  -5   90.04    5.04
  -1  -3  -5   91.90    7.54
   1   3   5   87.69    5.49
   1   3   5   89.61    8.66
  -1  -3  -6   16.80    3.11
  -1  -3  -6   15.53    4.22
   1   3   6   14.19    2.81
   1   3   6   15.68    4.99
  -1  -3  -7  196.60    9.18
  -1  -3  -7  205.68   12.41
   1   3   7  187.48    7.80
   1   3   7  188.95   13.93
  -1  -3  -8  104.32    9.49
  -1  -3  -8   84.29    5.63
   1   3   8   98.67    7.29
   1   3   8   98.60   10.67
   1   3   8  105.13    7.44
  -1  -3  -9    1.92    2.66
   1   3   9    1.37    2.28
   1   3   9    2.58    3.70
   1   3   9    3.38    2.56
  -1  -3 -10   75.05    8.97
   1   3  10   76.85    7.55
   1   3  10   70.52   11.45
   1   3  10   80.71    7.70
  -1  -3 -11   73.94   10.82
   1   3  11   68.24   11.71
  -1  -3 -12   -0.44    2.80
   1   3  12    1.59    3.78
  -1  -3 -13   33.23    7.86
   1   3  13   43.25    9.93
  -1  -3 -14   90.32   13.06
   1   3  14   78.69   13.14
  -1  -4  12   34.42    8.69
  -1  -4  11   11.84    5.69
   1   4 -11   15.88    5.53
  -1  -4  10    0.14    2.75
   1   4 -10    0.13    2.90
  -1  -4   9   53.84    9.57
   1   4  -9   87.01    9.83
  -1  -4   8   60.89    9.76
   1   4  -8   56.83    8.97
  -1  -4   7    6.63    3.89
   1   4  -7    6.48    3.41
   1   4  -7    2.05    3.14
  -1  -4   6  127.72   11.14
  -1  -4   6  127.20    7.88
   1   4  -6  124.11   10.05
   1   4  -6   93.98    9.33
  -1  -4   5  185.36   12.63
  -1  -4   5  206.15    8.87
   1   4  -5  202.93   12.11
   1   4  -5  160.89   11.72
  -1  -4   4   29.44    5.89
  -1  -4   4   27.44    3.20
   1   4  -4   32.10    5.63
   1   4  -4   22.98    5.65
  -1  -4   3   83.42    7.84
  -1  -4   3   94.07    4.28
   1   4  -3   83.67    7.11
   1   4  -3   75.10    8.16
  -1  -4   2  183.86   10.69
  -1  -4   2  182.02    3.71
   1   4  -2  191.50    9.98
   1   4  -2  156.12   11.17
  -1  -4   1   14.13    3.61
   1   4  -1   16.82    3.70
   1   4  -1   17.13    4.73
  -1  -4   0   27.69    4.64
   1   4   0   25.08    4.33
   1   4   0   22.84    5.24
  -1  -4  -1  255.19   10.36
  -1  -4  -1  238.41   10.52
   1   4   1  261.04   13.16
   1   4   1  279.27    8.08
  -1  -4  -2  227.79    9.20
  -1  -4  -2  226.21   10.51
   1   4   2  258.08   12.58
   1   4   2  244.28    9.80
  -1  -4  -3   33.70    3.69
  -1  -4  -3   28.41    4.92
   1   4   3   30.44    5.30
   1   4   3   32.07    5.30
  -1  -4  -4  345.91   10.02
  -1  -4  -4  327.29   13.67
   1   4   4  355.37   13.21
   1   4   4  308.32   14.32
  -1  -4  -5  201.31    7.80
  -1  -4  -5  234.96   12.35
   1   4   5  252.53   10.65
   1   4   5  213.22   13.31
  -1  -4  -6    6.22    2.03
  -1  -4  -6    6.98    3.24
   1   4   6    4.65    2.14
   1   4   6    6.37    3.74
  -1  -4  -7  138.06    7.58
  -1  -4  -7  136.79   10.45
   1   4   7  138.52    7.33
   1   4   7  141.90   12.44
  -1  -4  -8  224.15   10.42
  -1  -4  -8  191.13   12.86
   1   4   8  193.26    8.48
   1   4   8  194.80   15.05
  -1  -4  -9   17.97    5.26
   1   4   9   20.23    6.64
  -1  -4 -10   46.13    8.26
   1   4  10   59.21   10.84
  -1  -4 -11  158.16   13.26
   1   4  11  134.13   13.90
  -1  -4 -12   57.70   10.29
   1   4  12   47.96   10.53
  -1  -4 -13    1.57    3.53
   1   4  13    4.49    4.94
  -1  -4 -14   84.44   12.88
   1   4  14   64.80   12.03
  -1  -5  11   39.49    9.07
   1   5 -11   41.61    8.48
  -1  -5  10   -0.47    3.34
   1   5 -10   -0.73    2.72
  -1  -5   9   67.47   10.88
   1   5  -9   66.82   10.18
  -1  -5   8  204.15   15.48
   1   5  -8  195.82   13.81
  -1  -5   7   27.29    6.69
   1   5  -7   30.60    6.41
   1   5  -7   29.26    6.93
  -1  -5   6   44.95    8.51
   1   5  -6   41.26    7.27
   1   5  -6   33.85    7.23
  -1  -5   5  135.76   11.46
   1   5  -5  154.61   10.99
   1   5  -5  129.73   11.40
  -1  -5   4  158.84   11.85
   1   5  -4  167.10   10.88
   1   5  -4  123.39   11.14
  -1  -5   3    1.77    2.34
  -1  -5   3    2.16    0.94
   1   5  -3    2.58    2.09
   1   5  -3    5.84    3.72
  -1  -5   2  306.35   14.88
   1   5  -2  274.83   12.71
   1   5  -2  251.71   15.04
  -1  -5   1  206.99   11.69
   1   5  -1  200.61   10.62
   1   5  -1  194.30   13.24
  -1  -5   0    3.25    2.39
   1   5   0    6.10    2.66
   1   5   0    3.67    3.14
  -1  -5  -1  233.33   11.29
  -1  -5  -1  244.79   11.53
   1   5   1  227.49   13.57
   1   5   1  237.15    7.84
  -1  -5  -2  455.67   14.76
  -1  -5  -2  444.84   15.63
   1   5   2  447.15   18.29
   1   5   2  416.61   12.99
  -1  -5  -3   35.18    4.38
  -1  -5  -3   35.77    5.85
   1   5   3   43.69    6.87
   1   5   3   43.31    6.26
  -1  -5  -4  234.84    9.62
  -1  -5  -4  237.53   12.40
   1   5   4  275.56   13.37
   1   5   4  230.02   12.77
  -1  -5  -5  480.08   13.28
  -1  -5  -5  473.97   18.04
   1   5   5  519.84   17.27
   1   5   5  419.18   18.55
  -1  -5  -6  102.37    6.41
  -1  -5  -6   92.02    8.60
   1   5   6  108.38    7.70
   1   5   6   92.16    9.74
  -1  -5  -7   57.66    5.20
  -1  -5  -7   54.65    8.33
   1   5   7   57.24    5.47
   1   5   7   45.57    8.59
  -1  -5  -8  309.19   12.07
  -1  -5  -8  316.77   16.81
   1   5   8  312.36   11.65
   1   5   8  253.42   17.14
  -1  -5  -9  166.80    9.62
  -1  -5  -9  155.09   12.39
   1   5   9  145.62   13.78
  -1  -5 -10    0.48    2.69
   1   5  10    0.45    2.88
  -1  -5 -11   91.43   10.36
   1   5  11   96.50   14.19
  -1  -5 -12   83.88   10.26
   1   5  12   92.17   14.02
  -1  -5 -13    1.04    3.24
   1   5  13    1.93    4.59
  -1  -5 -14   65.86   11.24
   1   5  14   58.19   12.15
  -1  -6  10   34.90    8.70
   1   6 -10   46.12    8.81
  -1  -6   9    4.20    4.47
   1   6  -9    3.86    3.67
  -1  -6   8  154.54   13.97
   1   6  -8  153.82   12.52
  -1  -6   7  112.63   11.69
   1   6  -7  128.77   11.17
   1   6  -7  123.99   11.84
  -1  -6   6   -0.69    2.21
   1   6  -6    1.22    2.60
   1   6  -6    0.30    3.11
  -1  -6   5  145.16   12.39
   1   6  -5  162.04   11.58
   1   6  -5  146.48   12.81
  -1  -6   4  247.65   15.45
   1   6  -4  255.61   13.91
   1   6  -4  235.74   15.91
  -1  -6   3   34.32    6.86
   1   6  -3   33.57    6.01
   1   6  -3   30.97    7.29
  -1  -6   2  131.68   10.56
   1   6  -2  137.31    9.64
   1   6  -2  116.34   11.31
  -1  -6   1  375.05   16.84
   1   6  -1  373.84   15.31
   1   6  -1  374.39   19.34
  -1  -6   0   78.49    7.67
   1   6   0   84.05    7.42
   1   6   0   84.63    9.69
  -1  -6  -1   87.54    7.71
  -1  -6  -1   81.67    7.51
   1   6   1   76.22    9.05
   1   6   1   82.52    5.03
  -1  -6  -2  591.35   18.65
  -1  -6  -2  543.50   18.41
   1   6   2  551.62   22.08
   1   6   2  491.31   14.32
  -1  -6  -3  238.47   11.50
  -1  -6  -3  215.77   11.99
   1   6   3  240.04   14.38
   1   6   3  195.66   10.66
  -1  -6  -4   57.95    5.68
  -1  -6  -4   55.83    6.77
   1   6   4   53.28    8.00
   1   6   4   48.54    7.32
  -1  -6  -5  558.16   15.97
  -1  -6  -5  515.86   19.46
   1   6   5  567.96   20.14
   1   6   5  456.81   19.53
  -1  -6  -6  441.43   14.03
  -1  -6  -6  437.15   18.62
   1   6   6  465.73   17.39
   1   6   6  373.34   18.86
  -1  -6  -7   12.07    3.23
  -1  -6  -7   11.27    4.35
   1   6   7   13.03    3.79
   1   6   7   14.20    5.51
  -1  -6  -8  141.27    8.52
  -1  -6  -8  135.61   11.41
   1   6   8  143.80    8.98
   1   6   8  128.72   12.59
  -1  -6  -9  259.10   16.12
   1   6   9  196.37   15.94
  -1  -6 -10   25.10    6.60
   1   6  10   27.86    7.99
  -1  -6 -11   95.35   10.71
   1   6  11   83.43   13.12
  -1  -6 -12  163.22   14.34
   1   6  12  161.38   15.73
  -1  -6 -13   35.76    8.36
   1   6  13   37.73    9.50
  -1  -6 -14   29.51    7.92
   1   6  14   12.09    6.81
   1   7 -10   71.88   10.99
  -1  -7   9    2.66    3.65
   1   7  -9    1.02    2.97
  -1  -7   8   92.15   11.33
   1   7  -8   82.27    9.68
  -1  -7   7  162.25   14.43
   1   7  -7  178.54   13.34
  -1  -7   6   16.40    5.69
   1   7  -6   34.42    6.77
   1   7  -6   18.42    6.37
  -1  -7   5   66.44   10.24
   1   7  -5   61.12    7.58
   1   7  -5   69.94   11.14
  -1  -7   4  228.52   15.54
   1   7  -4  231.78   13.68
   1   7  -4  241.38   17.02
  -1  -7   3  136.15   11.82
   1   7  -3  146.89   10.66
   1   7  -3  148.36   13.39
  -1  -7   2   18.60    5.30
   1   7  -2   18.68    4.76
   1   7  -2   10.46    5.07
  -1  -7   1  322.10   16.70
   1   7  -1  297.14   14.40
   1   7  -1  307.97   18.64
  -1  -7   0  235.94   13.80
   1   7   0  236.62   12.77
   1   7   0  243.01   16.33
  -1  -7  -1   12.04    4.12
  -1  -7  -1   16.74    4.55
   1   7   1   15.53    5.68
   1   7   1   12.95    2.67
  -1  -7  -2  421.44   17.04
  -1  -7  -2  421.48   17.08
   1   7   2  436.39   21.07
   1   7   2  402.26   13.15
  -1  -7  -3  498.88   17.91
  -1  -7  -3  514.12   19.15
   1   7   3  515.41   22.30
   1   7   3  466.24   16.30
  -1  -7  -4   53.40    6.14
  -1  -7  -4   57.95    7.17
   1   7   4   59.96    9.34
   1   7   4   59.44    7.19
  -1  -7  -5  199.13   10.70
  -1  -7  -5  212.80   13.20
   1   7   5  214.39   13.73
   1   7   5  171.38   12.30
  -1  -7  -6  436.66   15.15
  -1  -7  -6  439.23   19.25
   1   7   6  477.94   19.37
   1   7   6  398.07   19.54
  -1  -7  -7   89.89    7.18
  -1  -7  -7   84.57    9.04
   1   7   7   78.52    7.90
   1   7   7   82.92   10.12
  -1  -7  -8   58.07    5.98
  -1  -7  -8   53.14    8.84
   1   7   8   63.81    6.93
   1   7   8   52.18    9.83
  -1  -7  -9  281.57   17.09
   1   7   9  219.49   17.00
  -1  -7 -10  123.56   12.05
   1   7  10  111.02   12.88
  -1  -7 -11    7.87    4.30
   1   7  11    5.03    4.37
  -1  -7 -12  170.81   14.71
   1   7  12  165.74   16.03
  -1  -7 -13  121.10   12.91
   1   7  13  131.01   14.88
  -1  -7 -14   -0.98    3.25
   1   7  14   -0.17    4.17
   1   8  -9   24.62    6.89
  -1  -8   8   23.75    7.34
   1   8  -8   31.69    7.27
  -1  -8   7  179.02   15.51
   1   8  -7  166.93   13.22
  -1  -8   6  125.38   12.73
   1   8  -6  116.49   10.87
   1   8  -6  104.40   12.02
  -1  -8   5    1.13    2.84
   1   8  -5    1.32    2.49
   1   8  -5    2.99    4.12
  -1  -8   4  177.64   14.40
   1   8  -4  171.14   12.23
   1   8  -4  155.43   14.36
  -1  -8   3  167.41   13.56
   1   8  -3  152.37   11.37
   1   8  -3  156.50   14.23
  -1  -8   2    4.74    3.82
   1   8  -2    6.02    3.25
   1   8  -2    2.74    3.64
  -1  -8   1  195.12   13.75
   1   8  -1  197.90   12.42
   1   8  -1  203.25   16.06
  -1  -8   0  383.41   18.52
  -1  -8   0  415.04   17.63
   1   8   0  392.40   21.64
  -1  -8  -1   71.46    8.24
  -1  -8  -1   78.93    8.16
   1   8   1   67.26   11.01
  -1  -8  -2  127.04   10.31
  -1  -8  -2  128.30   10.19
   1   8   2  119.79   12.12
  -1  -8  -3  402.35   17.22
  -1  -8  -3  420.96   18.04
   1   8   3  399.38   20.92
   1   8   3  395.36   15.09
  -1  -8  -4  104.96    8.87
  -1  -8  -4  118.36   10.17
   1   8   4  106.63   10.97
   1   8   4  102.67    9.04
  -1  -8  -5   22.03    4.85
  -1  -8  -5   24.26    5.87
   1   8   5   17.46    5.51
   1   8   5   30.28    6.62
  -1  -8  -6  323.17   14.11
  -1  -8  -6  305.83   16.52
   1   8   6  324.51   17.27
   1   8   6  294.75   16.97
  -1  -8  -7  243.40   12.13
  -1  -8  -7  238.78   15.21
   1   8   7  249.14   14.64
   1   8   7  240.27   16.33
  -1  -8  -8    1.33    2.90
   1   8   8    3.13    3.16
   1   8   8   -1.10    3.37
  -1  -8  -9  159.97   13.33
   1   8   9  143.79   13.84
  -1  -8 -10  239.22   16.45
   1   8  10  220.24   17.50
  -1  -8 -11   26.18    7.23
   1   8  11   22.17    7.44
  -1  -8 -12   61.71   10.61
   1   8  12   59.14   11.42
  -1  -8 -13  129.49   13.43
   1   8  13  103.95   15.14
   1   9  -8   -0.93    2.77
  -1  -9   7   73.59   12.24
   1   9  -7   87.32   10.05
  -1  -9   6  138.19   13.77
   1   9  -6  114.74   11.03
   1   9  -6  133.36   13.81
  -1  -9   5   20.47    6.53
   1   9  -5   20.18    5.68
   1   9  -5   20.29    7.08
  -1  -9   4   70.96   11.18
   1   9  -4   82.16    9.02
   1   9  -4   74.11   12.01
  -1  -9   3  301.30   18.69
   1   9  -3  296.14   16.11
   1   9  -3  314.93   20.49
  -1  -9   2   85.73   10.03
   1   9  -2   88.56    8.89
   1   9  -2   84.95   12.83
  -1  -9   1   31.93    7.43
   1   9  -1   20.46    5.55
   1   9  -1   29.65    8.34
  -1  -9   0  251.04   15.80
  -1  -9   0  267.80   14.83
   1   9   0  221.73   17.20
  -1  -9  -1  160.84   12.50
  -1  -9  -1  191.84   12.66
   1   9   1  177.38   15.29
  -1  -9  -2   12.82    4.76
  -1  -9  -2   13.04    4.57
   1   9   2   12.91    5.68
  -1  -9  -3  249.12   14.51
  -1  -9  -3  246.33   14.41
   1   9   3  219.53   16.47
  -1  -9  -4  224.43   13.38
  -1  -9  -4  230.69   14.19
   1   9   4  207.28   15.57
   1   9   4  208.01   12.44
  -1  -9  -5    7.57    3.55
  -1  -9  -5    2.02    3.08
   1   9   5    5.82    4.25
   1   9   5    8.97    4.35
  -1  -9  -6  170.18   11.09
  -1  -9  -6  181.05   13.28
   1   9   6  173.44   13.64
   1   9   6  167.01   12.94
  -1  -9  -7  341.97   15.14
  -1  -9  -7  312.00   17.56
   1   9   7  361.29   18.69
   1   9   7  303.23   18.12
  -1  -9  -8   69.05   10.31
   1   9   8   82.75    9.06
   1   9   8   63.77   10.70
  -1  -9  -9   36.95    7.97
   1   9   9   44.44    9.65
  -1  -9 -10  147.34   13.41
   1   9  10  155.59   14.81
  -1  -9 -11   69.98   11.11
   1   9  11   72.06   12.61
  -1  -9 -12   10.95    5.32
   1   9  12    9.32    5.89
  -1  -9 -13  133.84   13.62
   1   9  13  131.07   15.00
  -1 -10   6  160.27   15.15
   1  10  -6  166.89   13.36
  -1 -10   5   99.30   12.02
   1  10  -5  115.92   11.11
   1  10  -5  113.86   13.28
  -1 -10   4    2.51    3.86
   1  10  -4    6.49    3.93
   1  10  -4    0.10    3.89
  -1 -10   3  172.55   14.79
   1  10  -3  156.18   12.22
   1  10  -3  185.24   16.46
  -1 -10   2  157.22   13.89
   1  10  -2  155.15   12.05
   1  10  -2  161.30   15.47
  -1 -10   1    3.74    3.74
  -1 -10   1    7.60    4.01
   1  10  -1    4.78    4.27
  -1 -10   0  120.68   11.72
  -1 -10   0  122.77   10.64
   1  10   0  117.02   13.17
  -1 -10  -1  195.60   14.22
  -1 -10  -1  227.60   14.16
   1  10   1  206.62   17.01
  -1 -10  -2   21.02    5.76
  -1 -10  -2   18.77    5.29
   1  10   2   13.69    5.91
  -1 -10  -3  133.20   11.38
  -1 -10  -3  125.61   10.96
   1  10   3  134.65   13.64
  -1 -10  -4  293.73   15.98
  -1 -10  -4  289.42   16.36
   1  10   4  310.15   19.76
  -1 -10  -5   90.69    9.00
  -1 -10  -5   97.28   10.11
   1  10   5   94.07   11.17
  -1 -10  -6   11.05    4.32
  -1 -10  -6   14.90    5.22
   1  10   6   13.20    5.43
   1  10   6    8.32    4.55
  -1 -10  -7  196.37   14.43
   1  10   7  199.96   14.91
   1  10   7  203.13   14.91
  -1 -10  -8  131.98   12.32
   1  10   8  143.24   12.31
   1  10   8  139.90   13.20
  -1 -10  -9   -1.36    2.95
   1  10   9    1.99    4.03
  -1 -10 -10  161.95   14.18
   1  10  10  142.58   14.40
  -1 -10 -11  130.52   12.95
   1  10  11  125.23   13.73
  -1 -10 -12    0.76    3.46
   1  10  12    7.39    5.40
  -1 -10 -13   33.98    8.63
   1  10  13   28.39    8.83
   1  11  -6   88.13   14.04
  -1 -11   5  117.81   13.35
   1  11  -5  115.38   13.65
  -1 -11   4   24.51    7.33
   1  11  -4   24.52    6.30
   1  11  -4   20.79    7.76
  -1 -11   3   72.76   11.91
   1  11  -3   47.05    8.38
   1  11  -3   54.69   10.96
  -1 -11   2  191.58   15.54
   1  11  -2  189.47   17.10
  -1 -11   1   28.20    7.30
  -1 -11   1   34.88    7.25
   1  11  -1   32.64    8.76
  -1 -11   0   48.00    9.09
  -1 -11   0   45.75    8.20
   1  11   0   51.21   10.79
  -1 -11  -1  180.66   14.28
  -1 -11  -1  200.63   13.74
   1  11   1  207.15   17.48
  -1 -11  -2  114.48   11.37
  -1 -11  -2  123.88   11.08
   1  11   2  118.99   13.27
  -1 -11  -3    0.35    2.74
  -1 -11  -3    0.53    2.83
   1  11   3    1.76    4.14
  -1 -11  -4  177.96   13.22
  -1 -11  -4  168.49   12.95
   1  11   4  180.90   15.91
  -1 -11  -5  142.68   11.60
  -1 -11  -5  158.34   12.64
   1  11   5  139.08   13.66
  -1 -11  -6    0.07    2.47
  -1 -11  -6    4.58    3.41
   1  11   6   -2.73    2.78
  -1 -11  -7  121.53   11.75
   1  11   7  136.47   13.12
  -1 -11  -8  230.03   16.11
   1  11   8  224.51   15.95
   1  11   8  203.75   15.43
  -1 -11  -9   35.67    8.02
   1  11   9   45.26    9.44
  -1 -11 -10   34.60    8.18
   1  11  10   30.99    8.43
  -1 -11 -11  102.52   11.68
   1  11  11  104.08   12.83
  -1 -11 -12   37.78    8.83
   1  11  12   46.73   10.51
   1  12  -4   59.52   11.75
  -1 -12   3    8.00    5.04
   1  12  -3   11.62    6.30
  -1 -12   2  140.93   13.96
   1  12  -2  132.58   14.87
  -1 -12   1  116.19   12.38
   1  12  -1  109.13   13.52
  -1 -12   0    0.46    3.15
  -1 -12   0    0.86    2.94
   1  12   0   -0.36    3.26
  -1 -12  -1   81.86   12.00
  -1 -12  -1   80.63    9.27
   1  12   1   82.17   13.29
  -1 -12  -2   83.97   10.23
  -1 -12  -2  113.95   10.93
   1  12   2  104.97   12.88
  -1 -12  -3    5.03    3.98
  -1 -12  -3    4.89    4.05
   1  12   3    1.86    3.95
  -1 -12  -4   94.71   10.24
  -1 -12  -4  110.64   10.93
   1  12   4   99.04   12.27
  -1 -12  -5  181.70   13.54
  -1 -12  -5  197.00   14.40
   1  12   5  187.58   16.32
  -1 -12  -6   54.96    9.33
   1  12   6   50.73   10.32
  -1 -12  -7   20.42    6.32
   1  12   7   25.99    7.45
  -1 -12  -8  156.07   13.68
   1  12   8  157.87   14.13
  -1 -12  -9   64.90   10.68
  -1 -12 -10    0.29    3.66
  -1 -12 -11   61.35   10.69
   1  12  11   61.10   11.40
  -1 -12 -12   28.63    8.23
   1  12  12   31.61    8.84
  -1 -13   1   61.00   10.97
   1  13  -1   61.34   12.25
  -1 -13   0   10.96    5.38
   1  13   0    9.85    5.77
  -1 -13  -1   27.86    7.55
   1  13   1   20.54    7.51
  -1 -13  -2  100.70   11.42
   1  13   2   99.44   14.75
  -1 -13  -3   37.46    8.12
   1  13   3   52.59   11.12
  -1 -13  -4    3.24    3.78
   1  13   4    3.93    4.69
  -1 -13  -5  117.71   11.50
  -1 -13  -5  139.73   12.54
   1  13   5  135.67   14.31
  -1 -13  -6  100.16   10.98
   1  13   6   85.01   13.10
  -1 -13  -7    1.86    3.39
   1  13   7   -2.37    3.45
  -1 -13  -8   31.49    7.57
   1  13   8   25.37    7.56
  -1 -13  -9   52.56    9.92
  -1 -13 -10   -0.19    3.85
  -1 -13 -11   31.51    8.37
  -1 -14  -1   -0.70    3.56
  -1 -14  -2   41.19    8.83
   1  14   2   43.50   10.31
  -1 -14  -3   53.32    9.93
   1  14   3   53.17   11.29
  -1 -14  -4    5.22    4.45
   1  14   4    5.76    5.63
   1  14   5   18.51    7.09
   1  14   6   43.78    9.97
   1  14   7   -1.24    4.06
   1  14   8    8.24    5.48
   2 -14  -7   35.42    8.33
  -2  14   6   -1.01    4.00
   2 -14  -6    2.17    4.11
  -2  14   5   20.55    7.58
   2 -14  -5   20.42    6.98
  -2  14   4   39.56    9.60
   2 -14  -4   43.48    9.47
  -2  14   3   -0.76    3.55
   2 -14  -3    2.08    3.78
   2 -13  -8    7.08    4.70
   2 -13  -7   36.24    8.28
  -2  13   6    0.20    4.02
   2 -13  -6   -1.77    2.96
  -2  13   5   46.69   10.12
   2 -13  -5   44.64    9.22
  -2  13   4   58.44   10.95
   2 -13  -4   57.03   10.53
  -2  13   3   36.19    9.28
   2 -13  -3   31.78    8.03
  -2  13   2    3.01    4.52
   2 -13  -2    0.05    3.48
  -2  13   1   16.40    6.93
   2 -13  -1   21.97    7.34
  -2  13   0   -0.75    3.63
   2 -13   0    0.07    3.67
  -2  12  10   11.61    6.33
  -2  12   9    1.39    4.10
  -2  12   8   28.01    8.01
   2 -12  -8   30.97    7.54
   2 -12  -7   71.84   10.77
  -2  12   6   52.05   10.08
   2 -12  -6   40.17    8.64
  -2  12   5   -0.31    3.97
   2 -12  -5    1.23    3.04
  -2  12   4    1.08    3.87
   2 -12  -4    4.51    3.84
  -2  12   3    3.44    4.59
   2 -12  -3    7.77    4.69
  -2  12   2    9.68    5.50
   2 -12  -2   11.93    5.61
  -2  12   1   37.72    9.30
   2 -12  -1   48.51    9.79
  -2  12   0   36.20    9.54
   2 -12   0   33.94    8.58
  -2  12  -1    1.70    4.16
   2 -12   1    4.40    4.15
  -2  12  -2    2.91    4.21
   2 -12   2   -0.43    3.53
  -2  12  -3    2.58    4.34
   2 -12   3   -1.94    3.24
  -2  11  11   11.02    6.59
  -2  11  10   45.22   10.40
  -2  11   9   24.57    7.85
   2 -11  -9   27.99    6.98
  -2  11   8    0.79    4.04
   2 -11  -8    1.57    3.20
  -2  11   7    1.46    3.98
   2 -11  -7    2.11    3.41
  -2  11   6    3.10    4.07
  -2  11   6    1.01    3.70
   2 -11  -6    1.15    3.25
  -2  11   5    1.97    3.74
   2 -11  -5    9.64    4.88
  -2  11   4   26.46    7.47
   2 -11  -4   33.21    7.87
  -2  11   3   19.46    7.01
   2 -11  -3   21.59    6.67
  -2  11   2    5.70    4.41
   2 -11  -2    1.25    3.32
  -2  11   1    5.76    4.92
   2 -11  -1    2.98    4.06
  -2  11   0   -0.58    3.48
   2 -11   0   -0.43    2.78
  -2  11  -1    3.76    4.56
   2 -11   1    2.62    3.69
  -2  11  -2    9.32    5.68
   2 -11   2   13.40    5.87
  -2  11  -3   10.78    5.65
   2 -11   3   16.14    6.48
  -2  11  -4   -0.34    3.93
   2 -11   4    0.52    3.44
  -2  11  -5    5.62    5.32
   2 -11   5    4.49    4.61
  -2  10  12    0.78    4.27
  -2  10  11    9.23    6.18
  -2  10  10    9.00    5.63
   2 -10 -10    0.87    3.30
  -2  10   9    1.06    4.05
   2 -10  -9    0.26    2.95
  -2  10   8   -0.45    3.65
   2 -10  -8    2.23    3.40
  -2  10   7    4.25    4.20
   2 -10  -7   10.52    4.79
  -2  10   6    7.28    4.52
  -2  10   6    3.29    4.07
   2 -10  -6    6.20    3.86
  -2  10   5   40.26    8.63
  -2  10   5   36.13    7.77
   2 -10  -5   34.49    7.76
  -2  10   4   -0.87    2.84
  -2  10   4    3.56    3.70
   2 -10  -4    0.39    3.17
  -2  10   3    0.86    3.19
   2 -10  -3    2.63    3.49
  -2  10   2    6.47    4.71
   2 -10  -2   10.54    4.74
  -2  10   1    9.36    5.48
   2 -10  -1   19.33    6.26
  -2  10   0    7.65    5.26
   2 -10   0   16.44    6.06
  -2  10  -1    3.27    4.08
   2 -10   1   -1.07    2.65
  -2  10  -2    6.92    4.64
   2 -10   2    5.61    4.19
  -2  10  -3    8.10    5.37
   2 -10   3   12.82    5.55
  -2  10  -4    0.32    3.67
   2 -10   4    3.97    3.95
  -2  10  -5    5.16    4.66
   2 -10   5   16.28    6.38
  -2  10  -6    2.53    4.61
   2 -10   6    0.06    3.69
  -2  10  -7   -0.07    3.95
   2  -9 -13    4.17    4.44
  -2   9  12    5.98    5.61
   2  -9 -12    3.80    4.46
  -2   9  11    6.35    5.42
   2  -9 -11    7.28    4.63
  -2   9  10   -2.04    3.23
   2  -9 -10   -1.18    2.63
   2  -9 -10    0.35    3.21
  -2   9   9    5.45    5.11
   2  -9  -9    6.75    3.93
   2  -9  -9    7.60    4.31
  -2   9   8   -0.07    3.51
   2  -9  -8    7.54    4.01
   2  -9  -8    8.28    4.26
  -2   9   7    2.97    4.30
   2  -9  -7    9.37    4.14
   2  -9  -7    7.52    3.67
  -2   9   6    8.67    4.52
  -2   9   6    9.45    5.02
   2  -9  -6   14.48    5.13
   2  -9  -6   18.06    5.03
  -2   9   5   38.85    8.12
  -2   9   5   40.53    8.39
   2  -9  -5   35.97    7.33
   2  -9  -5   38.79    6.63
  -2   9   4   28.56    7.17
  -2   9   4   26.96    6.87
   2  -9  -4   27.54    6.56
  -2   9   3    1.70    3.43
  -2   9   3    1.49    2.97
   2  -9  -3    2.09    3.11
  -2   9   2   -1.03    2.67
  -2   9   2    3.36    3.28
   2  -9  -2    0.68    2.73
  -2   9   1   -0.15    3.24
   2  -9  -1    2.15    3.09
  -2   9   0   37.24    8.70
   2  -9   0   40.60    8.53
  -2   9  -1   40.18    9.10
   2  -9   1   36.44    8.30
  -2   9  -2    7.42    4.87
   2  -9   2    4.59    3.90
  -2   9  -3    0.16    3.64
   2  -9   3    2.70    3.46
  -2   9  -4    4.59    4.54
   2  -9   4    2.02    3.50
  -2   9  -5   13.75    6.21
   2  -9   5    8.46    4.80
  -2   9  -6    1.73    3.96
   2  -9   6    1.17    2.97
  -2   9  -7   16.66    6.74
   2  -9   7   24.00    7.67
  -2   9  -8   14.35    6.45
   2  -8 -13   -1.00    3.38
  -2   8  12    0.72    4.31
   2  -8 -12    1.59    3.96
  -2   8  11   -1.22    3.24
   2  -8 -11   -1.75    2.83
   2  -8 -11   -0.04    3.27
  -2   8  10    5.58    5.13
   2  -8 -10    4.19    3.83
   2  -8 -10    8.53    4.38
  -2   8   9   52.79   10.74
   2  -8  -9   49.19    8.36
   2  -8  -9   52.61    8.92
  -2   8   8   45.35    9.99
   2  -8  -8   44.96    7.94
   2  -8  -8   39.14    7.51
  -2   8   7   21.07    7.16
   2  -8  -7   18.55    5.34
   2  -8  -7   19.88    5.46
  -2   8   6    0.07    2.77
  -2   8   6   -1.53    2.92
   2  -8  -6    1.05    2.66
   2  -8  -6    1.19    2.48
  -2   8   5   27.28    6.53
  -2   8   5   33.91    7.73
   2  -8  -5   28.86    6.33
   2  -8  -5   27.05    5.64
  -2   8   4   17.00    5.55
  -2   8   4   18.57    5.85
   2  -8  -4   16.61    5.04
   2  -8  -4   13.91    4.09
  -2   8   3   16.74    5.74
  -2   8   3   16.86    5.22
   2  -8  -3   11.72    4.46
   2  -8  -3   21.37    4.57
  -2   8   2   65.56   10.34
  -2   8   2   60.74    8.62
   2  -8  -2   54.38    8.90
   2  -8  -2   66.96    6.27
  -2   8   1   19.49    6.10
  -2   8   1   27.57    5.72
   2  -8  -1   26.48    6.70
   2  -8  -1   32.58    5.23
  -2   8   0    4.47    3.85
  -2   8   0    2.87    2.62
   2  -8   0    0.91    2.51
  -2   8  -1   12.50    5.46
   2  -8   1    9.60    4.46
  -2   8  -2   33.73    8.35
   2  -8   2   32.37    7.47
  -2   8  -3    7.29    4.72
   2  -8   3    4.88    3.58
  -2   8  -4   48.23    9.79
   2  -8   4   32.03    7.99
  -2   8  -5   44.82    9.39
   2  -8   5   59.02   10.66
  -2   8  -6   37.93    8.97
   2  -8   6   35.65    8.41
  -2   8  -7   -1.10    3.36
   2  -8   7    2.76    3.86
  -2   8  -8   21.87    7.32
   2  -8   8   20.89    6.96
   2  -8   9   -0.02    3.70
  -2   7  13   -0.50    4.11
   2  -7 -13    1.85    4.08
  -2   7  12   22.43    7.95
   2  -7 -12   18.64    6.44
  -2   7  11   61.03   11.82
   2  -7 -11   65.86    9.78
   2  -7 -11   75.33   11.30
  -2   7  10   30.15    8.69
   2  -7 -10   28.33    6.58
   2  -7 -10   34.08    7.65
  -2   7   9    0.03    4.06
   2  -7  -9    1.26    2.74
   2  -7  -9    0.13    2.72
  -2   7   8    9.76    5.37
   2  -7  -8    9.97    4.07
   2  -7  -8   12.62    4.67
  -2   7   7   11.35    5.66
   2  -7  -7   19.02    5.28
   2  -7  -7   28.95    6.28
  -2   7   6    4.06    3.14
  -2   7   6    3.96    3.65
   2  -7  -6    5.02    3.39
   2  -7  -6    3.03    2.81
  -2   7   5   83.50    8.64
  -2   7   5   75.74   11.13
   2  -7  -5   86.05    8.59
   2  -7  -5   88.46    7.91
  -2   7   4  161.53   12.09
  -2   7   4  150.33   12.20
   2  -7  -4  145.82   11.15
   2  -7  -4  161.17    9.73
  -2   7   3   30.99    6.94
  -2   7   3   23.58    5.94
   2  -7  -3   26.96    6.10
   2  -7  -3   30.99    5.12
  -2   7   2   75.07    8.85
  -2   7   2   70.30    7.72
   2  -7  -2   64.86    7.84
   2  -7  -2   72.82    6.07
  -2   7   1   61.63    9.60
  -2   7   1   69.69    7.11
   2  -7  -1   68.70    8.25
   2  -7  -1   73.55    5.95
  -2   7   0   -0.06    2.64
  -2   7   0   -0.01    2.13
   2  -7   0    0.36    2.26
   2  -7   0    1.22    1.84
  -2   7  -1   87.02    9.98
   2  -7   1   87.70    9.64
   2  -7   1   88.15    6.51
  -2   7  -2  227.75   10.40
  -2   7  -2  236.97   16.14
   2  -7   2  227.94   15.47
   2  -7   2  241.03   10.78
  -2   7  -3  119.25    7.97
  -2   7  -3  109.19   11.59
   2  -7   3   99.14   10.66
  -2   7  -4   22.55    4.62
  -2   7  -4   28.00    7.46
   2  -7   4   27.65    7.06
  -2   7  -5   42.75    6.42
  -2   7  -5   40.23    8.57
   2  -7   5   35.11    8.17
  -2   7  -6   21.49    6.92
   2  -7   6   23.93    6.94
  -2   7  -7    7.93    4.87
   2  -7   7    1.32    3.40
  -2   7  -8  101.93   12.02
   2  -7   8  112.64   12.56
   2  -7   9   67.74   11.87
   2  -7  10   14.01    6.17
  -2   6  13   32.36    9.44
   2  -6 -13   41.85    9.26
  -2   6  12    2.78    4.46
   2  -6 -12    2.69    3.35
   2  -6 -12    0.27    3.52
  -2   6  11   16.76    6.94
   2  -6 -11   12.43    4.91
   2  -6 -11   21.84    6.75
  -2   6  10   28.65    8.21
   2  -6 -10   33.80    6.80
   2  -6 -10   37.40    7.87
  -2   6   9   -2.50    3.00
   2  -6  -9    1.14    2.59
   2  -6  -9    0.55    2.56
  -2   6   8  118.89   13.09
   2  -6  -8  128.15   10.27
   2  -6  -8  133.66   11.19
  -2   6   7  178.24   14.99
   2  -6  -7  196.53   12.45
   2  -6  -7  217.80   13.24
  -2   6   6   47.76    6.64
  -2   6   6   33.88    7.87
   2  -6  -6   41.25    7.08
   2  -6  -6   51.29    7.51
  -2   6   5   41.17    6.65
  -2   6   5   31.15    7.26
   2  -6  -5   39.19    6.64
   2  -6  -5   31.04    5.62
  -2   6   4  206.73   12.52
  -2   6   4  173.55   12.79
   2  -6  -4  198.04   12.18
   2  -6  -4  212.74   10.72
  -2   6   3   17.85    4.98
  -2   6   3   16.06    4.93
   2  -6  -3   19.04    5.03
   2  -6  -3   23.19    4.24
  -2   6   2   75.30    8.39
  -2   6   2   83.51    8.13
   2  -6  -2   77.30    7.96
   2  -6  -2   83.69    5.98
  -2   6   1  417.51   18.84
  -2   6   1  413.67   15.87
   2  -6  -1  423.77   18.52
   2  -6  -1  411.90   12.08
  -2   6   0  123.69   10.97
  -2   6   0  123.69    8.39
   2  -6   0  128.39   10.73
   2  -6   0  129.86    6.92
  -2   6  -1    0.44    2.62
   2  -6   1    1.95    2.53
   2  -6   1    3.64    2.19
  -2   6  -2   95.28    6.38
  -2   6  -2  103.42   10.31
   2  -6   2  108.28   10.34
   2  -6   2   95.12    6.75
  -2   6  -3  114.00    7.38
  -2   6  -3  101.57   10.44
   2  -6   3   96.71   10.05
   2  -6   3  105.73    7.01
  -2   6  -4    2.70    2.03
  -2   6  -4   -0.14    3.12
   2  -6   4    3.16    3.22
   2  -6   4    6.55    2.57
  -2   6  -5  104.93    8.05
  -2   6  -5  115.84   11.53
   2  -6   5  105.12   11.04
  -2   6  -6  325.12   14.49
  -2   6  -6  335.60   19.42
   2  -6   6  335.55   19.67
  -2   6  -7   99.36    8.66
  -2   6  -7  102.70   11.41
   2  -6   7  103.97   11.61
  -2   6  -8    8.62    3.78
  -2   6  -8    4.04    4.15
   2  -6   8    4.38    4.02
   2  -6   9   81.93   12.60
   2  -6  10    9.96    5.41
   2  -6  11   34.88    8.94
  -2   5  13   34.32    9.76
   2  -5 -13   26.90    7.38
  -2   5  12   -1.98    3.74
   2  -5 -12    2.29    3.29
   2  -5 -12    1.44    3.39
  -2   5  11   72.60   12.80
   2  -5 -11   58.44    9.15
   2  -5 -11   78.38   11.50
  -2   5  10  107.82   13.06
   2  -5 -10  150.61   11.80
   2  -5 -10  147.16   12.60
  -2   5   9   63.32   11.39
   2  -5  -9   67.85    7.93
   2  -5  -9   69.95   10.21
  -2   5   8   32.09    8.14
   2  -5  -8   31.19    6.25
   2  -5  -8   24.63    6.00
  -2   5   7  163.30   14.21
   2  -5  -7  167.56   11.18
   2  -5  -7  189.33   12.19
  -2   5   6   99.86    6.78
  -2   5   6   84.47   10.29
   2  -5  -6  101.32    8.65
   2  -5  -6   98.37    8.53
  -2   5   5   26.89    4.87
  -2   5   5   17.74    5.78
   2  -5  -5   25.56    5.18
   2  -5  -5   23.40    4.79
  -2   5   4  490.47   17.04
  -2   5   4  427.02   19.55
   2  -5  -4  540.63   18.71
   2  -5  -4  563.63   16.58
  -2   5   3  443.17   16.93
  -2   5   3  410.25   17.87
   2  -5  -3  441.10   16.93
   2  -5  -3  468.58   13.73
  -2   5   2   24.49    5.41
  -2   5   2   31.05    5.95
   2  -5  -2   27.76    5.45
   2  -5  -2   30.05    4.09
  -2   5   1  128.17   10.08
  -2   5   1  126.08    8.80
   2  -5  -1  111.88    9.11
   2  -5  -1  102.42    5.64
  -2   5   0  260.19   14.23
   2  -5   0  239.42   13.46
   2  -5   0  246.09    8.22
   2  -5   0  258.45   11.41
  -2   5  -1   13.29    2.67
  -2   5  -1   21.72    5.55
   2  -5   1   13.76    4.38
   2  -5   1   17.40    3.67
  -2   5  -2  258.09    9.35
  -2   5  -2  270.02   15.16
   2  -5   2  236.50   14.10
   2  -5   2  272.04   10.68
  -2   5  -3  679.69   16.23
  -2   5  -3  741.38   25.31
   2  -5   3  653.12   23.89
   2  -5   3  694.92   16.97
  -2   5  -4  398.49   13.50
   2  -5   4  385.91   19.07
   2  -5   4  394.08   13.23
  -2   5  -5   53.26    5.65
  -2   5  -5   60.48    9.46
   2  -5   5   48.80    8.60
   2  -5   5   48.86    5.29
  -2   5  -6  173.50   10.35
  -2   5  -6  179.16   13.78
   2  -5   6  178.26   13.90
   2  -5   6  174.00    9.77
  -2   5  -7   62.00    6.92
  -2   5  -7   78.23    9.68
   2  -5   7   59.64    9.98
  -2   5  -8   29.85    5.92
  -2   5  -8   41.42    8.54
   2  -5   8   30.89    7.75
  -2   5  -9  305.66   16.04
  -2   5  -9  274.80   17.74
   2  -5   9  275.58   18.56
  -2   5 -10  156.30   12.18
   2  -5  10  164.28   14.90
  -2   5 -11   13.15    5.12
   2  -5  11   12.66    5.78
  -2   4  13  119.50   14.07
   2  -4 -13  121.81   12.92
  -2   4  12   60.71    9.68
  -2   4  12   54.29   11.14
  -2   4  12   54.76    9.36
   2  -4 -12   66.52   11.05
  -2   4  11   18.43    7.22
   2  -4 -11    8.28    4.16
   2  -4 -11   11.94    5.33
  -2   4  10  103.03   12.52
   2  -4 -10  132.15   11.11
   2  -4 -10  134.17   12.10
  -2   4   9   96.52   11.84
   2  -4  -9  109.84    9.85
   2  -4  -9  124.97   11.24
  -2   4   8   46.33    9.77
   2  -4  -8   36.17    6.52
   2  -4  -8   42.11    7.47
  -2   4   7  375.30   20.93
   2  -4  -7  437.58   17.43
   2  -4  -7  433.11   18.16
  -2   4   6  550.34   11.16
  -2   4   6  448.41   21.83
   2  -4  -6  504.54   17.95
   2  -4  -6  512.83   18.44
  -2   4   5   21.01    3.69
  -2   4   5   10.76    4.97
   2  -4  -5   17.06    4.24
   2  -4  -5   18.66    4.40
  -2   4   4  118.05    7.62
  -2   4   4  105.14   10.10
   2  -4  -4  136.80    9.06
   2  -4  -4  140.49    8.29
  -2   4   3  280.90   11.97
  -2   4   3  261.58   14.16
   2  -4  -3  287.93   12.76
   2  -4  -3  294.67   10.49
  -2   4   2   54.29    6.09
  -2   4   2   53.46    6.44
   2  -4  -2   49.66    5.62
   2  -4  -2   54.48    4.25
  -2   4   1  236.55   11.89
  -2   4   1  218.04   10.81
   2  -4  -1  207.90   11.18
   2  -4  -1  216.71    6.81
  -2   4   0 1125.02   25.97
   2  -4   0  962.54   24.39
   2  -4   0  992.37   13.48
   2  -4   0 1106.28   22.27
  -2   4  -1  263.14    7.57
  -2   4  -1  310.01   14.31
   2  -4   1  282.37   10.73
  -2   4  -2    0.58    1.20
  -2   4  -2    0.00    2.43
   2  -4   2   -0.31    1.87
   2  -4   2    0.51    1.46
  -2   4  -3  233.01    8.92
  -2   4  -3  253.11   13.91
   2  -4   3  231.85   13.54
   2  -4   3  239.68    9.97
  -2   4  -4  156.45    8.16
  -2   4  -4  158.44   11.50
   2  -4   4  146.94   11.35
   2  -4   4  160.41    8.57
  -2   4  -5   28.87    4.75
  -2   4  -5   36.52    7.20
   2  -4   5   34.52    6.87
   2  -4   5   32.79    5.18
  -2   4  -6  384.95   14.85
  -2   4  -6  446.78   19.92
   2  -4   6  421.51   20.04
   2  -4   6  422.39   15.32
  -2   4  -7  579.29   19.42
  -2   4  -7  632.83   24.17
   2  -4   7  597.58   24.56
   2  -4   7  566.94   18.68
  -2   4  -8   89.74    8.53
  -2   4  -8  103.17   10.57
   2  -4   8   94.29   10.58
   2  -4   8   98.76    8.57
  -2   4  -9   38.98    7.06
  -2   4  -9   39.27    8.19
   2  -4   9   38.33    8.38
  -2   4 -10  144.74   11.57
   2  -4  10  147.52   13.73
  -2   4 -11   28.86    6.88
   2  -4  11   34.42    8.31
  -2   4 -12   18.00    5.78
  -2   3  13   77.31   11.47
  -2   3  13   68.46   12.30
  -2   3  13   74.03   11.41
   2  -3 -13   57.65   10.25
  -2   3  12   73.77   10.80
  -2   3  12   56.57   11.16
  -2   3  12   74.41   10.89
   2  -3 -12   88.90   10.95
  -2   3  11    3.97    3.62
  -2   3  11    3.71    4.72
  -2   3  11    4.30    3.69
   2  -3 -11    7.12    4.05
  -2   3  10  209.81   16.99
   2  -3 -10  260.22   15.37
   2  -3 -10  257.55   16.47
  -2   3   9  217.14   17.01
   2  -3  -9  234.93   14.00
   2  -3  -9  224.61   14.73
  -2   3   8   84.14   12.43
   2  -3  -8  105.98    9.10
   2  -3  -8  119.08   10.41
  -2   3   7   81.38   12.00
   2  -3  -7   78.30    7.64
   2  -3  -7   89.82    8.57
  -2   3   6  311.96   18.02
   2  -3  -6  370.17   15.08
   2  -3  -6  351.06   15.30
  -2   3   5  107.93    4.46
  -2   3   5   92.17    9.68
   2  -3  -5  107.78    7.93
   2  -3  -5  103.32    7.92
  -2   3   4   78.05    5.17
  -2   3   4   67.73    8.01
   2  -3  -4   92.97    7.17
   2  -3  -4   82.36    6.47
  -2   3   3 1139.32   20.02
  -2   3   3  964.16   25.87
   2  -3  -3 1104.13   22.92
   2  -3  -3 1205.06   20.37
  -2   3   2  658.06   15.99
  -2   3   2  577.77   18.35
   2  -3  -2  638.17   17.25
   2  -3  -2  644.38   12.49
  -2   3   1   51.13    5.23
  -2   3   1   52.57    5.62
   2  -3  -1   52.01    5.33
   2  -3  -1   52.25    3.02
  -2   3   0   86.54    6.61
   2  -3   0   71.33    2.78
   2  -3   0   72.14    5.78
  -2   3  -1  289.64    6.32
  -2   3  -1  300.66   12.38
   2  -3   1  259.91   12.07
   2  -3   1  286.35   10.30
  -2   3  -2   16.42    2.42
  -2   3  -2   18.80    4.20
   2  -3   2   16.99    4.35
   2  -3   2   18.48    3.42
  -2   3  -3  778.24   14.98
  -2   3  -3  817.32   22.05
   2  -3   3  726.87   21.68
   2  -3   3  774.85   17.41
  -2   3  -4 1023.46   19.50
  -2   3  -4 1028.77   25.72
   2  -3   4 1024.73   26.90
   2  -3   4 1019.81   21.33
  -2   3  -5  349.01   12.74
  -2   3  -5  378.25   16.36
   2  -3   5  351.72   16.58
   2  -3   5  354.77   13.60
  -2   3  -6   60.67    6.12
  -2   3  -6   72.99    8.05
   2  -3   6   69.12    8.12
   2  -3   6   69.93    6.82
  -2   3  -7  315.31   14.24
  -2   3  -7  344.40   16.84
   2  -3   7  342.88   17.77
   2  -3   7  347.12   15.20
  -2   3  -8  119.94    9.63
  -2   3  -8  176.72   12.72
   2  -3   8  142.88   12.15
   2  -3   8  148.78   10.70
  -2   3  -9   33.22    6.53
  -2   3  -9   40.68    7.79
   2  -3   9   32.95    7.40
   2  -3   9   36.34    6.96
  -2   3 -10  221.44   14.10
   2  -3  10  231.44   16.26
   2  -3  10  243.47   14.64
  -2   3 -11  176.32   13.19
   2  -3  11  178.32   14.80
  -2   3 -12    2.75    3.53
  -2   3 -13  107.87   11.33
  -2   2  14    4.98    5.30
  -2   2  13   53.78    9.89
  -2   2  13   49.71   10.51
   2  -2 -13   48.07    9.76
  -2   2  12  263.45   17.05
  -2   2  12  219.36   17.64
  -2   2  12  247.27   16.58
   2  -2 -12  252.49   17.69
  -2   2  11   96.76   10.31
  -2   2  11  111.03   12.90
  -2   2  11  111.50   10.99
   2  -2 -11   84.97   10.10
  -2   2  10   15.13    5.15
  -2   2  10   20.69    6.78
  -2   2  10   21.97    5.91
   2  -2 -10   20.35    5.97
  -2   2   9  286.55   18.95
   2  -2  -9  287.58   15.71
   2  -2  -9  320.83   17.56
  -2   2   8  175.12   14.48
   2  -2  -8  180.92   11.90
   2  -2  -8  186.74   12.87
  -2   2   7  119.22   11.68
   2  -2  -7  151.84   10.36
   2  -2  -7  169.38   11.55
  -2   2   6  614.78   24.58
   2  -2  -6  793.23   21.90
   2  -2  -6  856.34   23.86
  -2   2   5  710.71   24.99
   2  -2  -5  906.74   21.99
   2  -2  -5  951.81   23.09
  -2   2   4   93.30    3.53
  -2   2   4   73.52    8.00
   2  -2  -4   89.39    6.80
   2  -2  -4  100.46    7.04
  -2   2   3  138.51    5.56
  -2   2   3  109.07    8.83
   2  -2  -3  128.34    7.51
   2  -2  -3  120.54    6.77
  -2   2   2  281.43    8.39
  -2   2   2  211.66   10.87
   2  -2  -2  254.85   10.03
   2  -2  -2  262.91    8.10
  -2   2   1    2.68    1.72
   2  -2  -1    2.90    1.77
   2  -2  -1    2.66    1.10
  -2   2   0  474.68   12.37
   2  -2   0  472.53   13.06
  -2   2  -1 1600.16   10.74
  -2   2  -1 1655.65   24.50
   2  -2   1 1390.73   24.02
   2  -2   1 1594.24   22.68
  -2   2  -2  473.34    8.91
  -2   2  -2  486.62   14.23
   2  -2   2  448.97   14.58
   2  -2   2  471.92   12.72
  -2   2  -3   64.25    4.35
  -2   2  -3   60.13    5.69
   2  -2   3   50.23    5.64
   2  -2   3   59.97    5.20
  -2   2  -4  405.33   11.99
  -2   2  -4  424.04   14.99
   2  -2   4  366.81   14.84
   2  -2   4  405.45   13.74
  -2   2  -5  316.16   11.94
  -2   2  -5  353.29   14.43
   2  -2   5  313.01   14.50
   2  -2   5  324.29   13.35
  -2   2  -6    5.24    2.56
  -2   2  -6    7.01    3.31
   2  -2   6    5.93    3.41
   2  -2   6    5.04    2.81
  -2   2  -7  444.88   16.70
  -2   2  -7  544.88   19.50
   2  -2   7  455.41   19.14
   2  -2   7  465.81   18.13
  -2   2  -8  402.59   17.00
  -2   2  -8  430.78   18.03
   2  -2   8  424.95   19.36
   2  -2   8  440.73   18.65
  -2   2  -9   36.63    6.72
  -2   2  -9   45.34    7.79
   2  -2   9   33.60    7.45
   2  -2   9   48.47    8.04
  -2   2 -10   44.49    7.81
   2  -2  10   49.34    8.93
   2  -2  10   52.64    8.77
  -2   2 -11  174.84   13.26
   2  -2  11  181.29   13.76
  -2   2 -12   35.05    7.70
  -2   2 -13   16.63    5.81
  -2   1  13    1.74    3.55
  -2   1  13    5.05    4.89
   2  -1 -13    1.50    3.55
  -2   1  12  122.73   12.18
  -2   1  12  119.44   13.14
   2  -1 -12  133.65   13.11
  -2   1  11  116.44   11.36
  -2   1  11  142.86   14.05
  -2   1  11  117.09   11.32
   2  -1 -11  128.04   12.32
  -2   1  10   15.40    5.23
  -2   1  10   15.89    6.08
  -2   1  10   17.36    5.70
   2  -1 -10   22.80    6.02
  -2   1   9  475.41   20.38
  -2   1   9  487.72   23.68
  -2   1   9  521.93   21.27
   2  -1  -9  510.56   22.17
  -2   1   8  485.22   19.55
  -2   1   8  454.83   22.31
  -2   1   8  503.32   19.86
   2  -1  -8  462.49   20.12
  -2   1   7  200.09   14.61
   2  -1  -7  197.04   11.94
   2  -1  -7  195.28   12.47
  -2   1   6   69.98    8.75
   2  -1  -6   90.29    7.73
   2  -1  -6   84.69    7.89
  -2   1   5  358.16   17.33
   2  -1  -5  408.01   14.89
   2  -1  -5  410.17   15.52
  -2   1   4  103.98    9.07
   2  -1  -4  151.40    8.57
   2  -1  -4  157.40    8.92
  -2   1   3  199.68    4.19
  -2   1   3  157.42   10.05
   2  -1  -3  189.85    8.74
   2  -1  -3  184.03    8.51
  -2   1   2 1717.44   14.73
  -2   1   2 1581.06   27.63
   2  -1  -2 1621.02   23.06
   2  -1  -2 1780.88   21.77
  -2   1   1  907.60   12.34
   2  -1  -1  935.44   16.36
   2  -1  -1 1023.89   13.04
   2  -1  -1  927.18   18.89
  -2   1   0  121.73    2.96
  -2   1   0  117.66    5.16
   2  -1   0  123.07    6.02
   2  -1   0  130.95    3.44
   2  -1   0  130.83    6.67
  -2   1  -1  754.13    7.98
  -2   1  -1  674.36   13.16
   2  -1   1  701.90   14.23
   2  -1   1  695.70   14.27
  -2   1  -2  915.80   12.35
  -2   1  -2  883.32   16.40
   2  -1   2  789.77   16.22
   2  -1   2  865.60   16.73
  -2   1  -3    4.55    1.72
  -2   1  -3    5.83    2.12
   2  -1   3    4.56    2.21
   2  -1   3    5.38    2.20
  -2   1  -4 1059.00   19.23
  -2   1  -4 1017.79   20.44
   2  -1   4 1017.62   21.68
   2  -1   4 1095.11   22.87
  -2   1  -5  921.36   20.18
  -2   1  -5  960.14   21.19
   2  -1   5  903.02   22.00
   2  -1   5  981.89   23.69
  -2   1  -6  147.15    9.01
  -2   1  -6  166.66    9.66
   2  -1   6  157.03   10.09
   2  -1   6  168.99   10.76
  -2   1  -7   79.73    7.32
  -2   1  -7   85.62    7.50
   2  -1   7   81.39    8.00
   2  -1   7   86.25    8.50
  -2   1  -8  396.50   16.85
  -2   1  -8  425.76   16.62
   2  -1   8  404.09   17.74
   2  -1   8  449.14   19.52
  -2   1  -9  160.29   11.52
  -2   1  -9  201.05   12.09
   2  -1   9  166.61   12.23
   2  -1   9  181.83   13.11
  -2   1 -10   40.81    7.45
   2  -1  10   37.50    7.42
   2  -1  10   45.93    8.63
  -2   1 -11  253.60   15.84
   2  -1  11  270.21   17.12
  -2   1 -12  196.51   14.55
   2  -1  12  193.61   14.90
  -2   1 -13    1.63    3.42
   2  -1  13    1.21    3.83
  -2   0  13    1.23    3.68
  -2   0  12  118.86   12.26
  -2   0  12  119.88   12.78
   2   0 -12  121.72   12.46
  -2   0  11  404.18   20.97
  -2   0  11  404.71   21.95
   2   0 -11  378.31   20.87
  -2   0  10  160.06   13.01
  -2   0  10  150.82   13.53
   2   0 -10  152.08   12.91
  -2   0   9   29.27    6.65
  -2   0   9   28.86    7.44
  -2   0   9   39.17    7.56
   2   0  -9   25.03    6.27
  -2   0   8  331.65   16.78
  -2   0   8  324.24   18.15
  -2   0   8  333.83   16.79
   2   0  -8  330.92   17.22
  -2   0   7  163.79   11.27
  -2   0   7  147.83   12.17
  -2   0   7  184.20   11.93
   2   0  -7  175.59   12.01
  -2   0   6  156.73   11.83
   2   0  -6  157.72   10.70
  -2   0   5  903.01   26.24
   2   0  -5 1077.43   24.70
   2   0  -5 1062.98   25.34
  -2   0   4 1120.48   27.22
   2   0  -4 1300.50   25.00
   2   0  -4 1298.61   25.65
   2   0  -4 1254.94    9.32
  -2   0   3  117.82    8.52
   2   0  -3  129.20    7.35
   2   0  -3  142.56    7.86
   2   0  -3  129.53    3.48
  -2   0   2  559.58   15.76
   2   0  -2  574.80   13.57
   2   0  -2  626.17   14.17
   2   0  -2  577.50    8.02
   2   0  -1 1415.63   18.68
   2   0  -1 1492.08   18.65
   2   0  -1 1327.15   13.47
   2   0  -1 1457.06   22.04
   2   0   0   36.94    2.90
   2   0   0   36.48    2.88
   2   0   0   36.62    2.79
   2   0   0   37.81    3.59
  -2   0  -1  540.03    9.68
  -2   0  -1  473.26    9.85
   2   0   1  543.56    9.55
   2   0   1  497.86   11.46
  -2   0  -2 1475.57   17.78
  -2   0  -2 1249.20   17.36
   2   0   2 1336.14   16.05
   2   0   2 1428.77   21.23
  -2   0  -3  387.12   10.66
  -2   0  -3  361.21   10.26
   2   0   3  368.61    9.86
   2   0   3  408.81   12.96
  -2   0  -4  312.36   10.88
  -2   0  -4  266.12    9.53
   2   0   4  284.37    9.89
   2   0   4  308.63   12.63
  -2   0  -5  484.43   14.98
  -2   0  -5  459.68   13.37
   2   0   5  492.83   14.38
   2   0   5  535.44   18.14
  -2   0  -6  432.50   15.42
  -2   0  -6  401.32   13.35
   2   0   6  418.40   14.58
   2   0   6  454.66   17.99
  -2   0  -7    7.58    3.17
  -2   0  -7   10.13    3.14
   2   0   7    8.13    3.19
   2   0   7   10.01    4.08
  -2   0  -8  527.19   19.53
  -2   0  -8  551.31   17.46
   2   0   8  546.73   19.18
   2   0   8  537.71   21.94
  -2   0  -9  425.29   18.60
  -2   0  -9  443.70   16.44
   2   0   9  442.59   18.36
   2   0   9  478.83   21.65
  -2   0 -10   27.24    6.30
   2   0  10   33.98    6.76
   2   0  10   29.92    7.35
  -2   0 -11   60.50    9.43
   2   0  11   69.01   10.82
  -2   0 -12  159.79   13.31
   2   0  12  163.61   14.22
  -2   0 -13    7.21    4.53
   2   0  13   15.70    6.27
   2   0  14   70.82   11.85
  -2  -1  13  114.47   12.77
  -2  -1  12    2.65    3.95
   2   1 -12    1.54    3.33
  -2  -1  11  129.61   12.60
  -2  -1  11  148.62   13.16
   2   1 -11  133.55   12.74
  -2  -1  10   88.56   10.06
  -2  -1  10   82.87    9.96
   2   1 -10   79.23   11.40
  -2  -1   9   24.68    6.33
  -2  -1   9   32.97    7.43
   2   1  -9   31.27    7.00
  -2  -1   8  436.88   19.69
  -2  -1   8  441.68   20.27
  -2  -1   8  464.93   20.27
   2   1  -8  436.07   19.93
  -2  -1   7  571.54   21.39
  -2  -1   7  584.93   22.33
  -2  -1   7  534.76   20.66
   2   1  -7  563.31   21.49
  -2  -1   6   91.14    8.28
  -2  -1   6   95.63    9.07
  -2  -1   6   86.28    8.03
   2   1  -6   92.63    8.48
   2   1  -6  100.09    5.45
  -2  -1   5  253.00   12.57
  -2  -1   5  250.33   13.35
  -2  -1   5  257.60   12.66
   2   1  -5  258.03   12.97
   2   1  -5  299.75    9.03
  -2  -1   4  481.32   15.92
  -2  -1   4  444.69   16.45
  -2  -1   4  488.70   16.03
   2   1  -4  508.50   16.82
   2   1  -4  598.82   12.41
  -2  -1   3  262.63   11.58
   2   1  -3  315.97   12.27
   2   1  -3  355.61    9.34
  -2  -1   2  195.28    8.88
   2   1  -2  227.80    9.05
   2   1  -2  239.09    9.66
   2   1  -2  251.29    7.69
   2   1  -1 1246.39   18.17
   2   1  -1 1330.87   20.37
   2   1  -1 1394.79   17.48
   2   1   0  570.47   10.27
   2   1   0  605.48   12.87
   2   1   0  621.95   11.75
   2   1   0  592.54   11.54
  -2  -1  -1   69.63    4.66
   2   1   1   75.13    3.01
   2   1   1   71.94    4.29
   2   1   1   85.86    4.82
  -2  -1  -2 1128.09    9.35
  -2  -1  -2 1345.90   19.78
   2   1   2 1284.71    8.69
   2   1   2 1344.07   20.49
  -2  -1  -3  829.86   16.89
   2   1   3  729.22    9.23
   2   1   3  782.37   14.55
   2   1   3  832.51   18.63
  -2  -1  -4   16.37    3.38
  -2  -1  -4   11.90    2.59
   2   1   4   14.06    2.33
   2   1   4   13.79    3.76
  -2  -1  -5  955.37   21.67
  -2  -1  -5  805.79   16.52
   2   1   5  977.06   17.14
  -2  -1  -6  845.28   22.01
  -2  -1  -6  797.35   17.42
   2   1   6  852.73   18.29
   2   1   6  953.73   26.72
  -2  -1  -7  153.81   10.26
  -2  -1  -7  151.01    8.24
   2   1   7  151.97    8.84
   2   1   7  151.12   11.61
  -2  -1  -8  105.44    9.10
  -2  -1  -8  111.10    7.57
   2   1   8  121.57    8.70
   2   1   8  100.02   10.12
  -2  -1  -9  316.87   16.35
  -2  -1  -9  325.95   13.20
   2   1   9  308.68   14.45
   2   1   9  316.91   18.24
  -2  -1 -10   60.74    9.08
   2   1  10   79.11   11.54
  -2  -1 -11   84.68    9.66
   2   1  11   95.36   11.08
  -2  -1 -12  309.23   18.34
   2   1  12  372.96   21.61
  -2  -1 -13  129.70   12.71
   2   1  13  145.28   14.34
  -2  -1 -14   -0.21    3.38
   2   1  14    0.78    4.19
  -2  -2  12    0.92    3.85
   2   2 -12    1.81    3.36
  -2  -2  11  132.82   12.93
   2   2 -11  131.29   12.86
  -2  -2  10  290.08   18.14
   2   2 -10  291.23   18.06
  -2  -2   9   82.80    9.81
  -2  -2   9   70.08    8.52
   2   2  -9   74.92    9.13
  -2  -2   8   87.29    9.45
  -2  -2   8   95.13    9.31
   2   2  -8   79.41    8.96
  -2  -2   7  281.40   15.68
  -2  -2   7  302.59   15.35
   2   2  -7  279.67   15.52
  -2  -2   6  125.82   10.07
  -2  -2   6  133.20    9.97
   2   2  -6  123.79    9.93
   2   2  -6  131.14    8.04
  -2  -2   5   67.61    7.14
  -2  -2   5   62.90    6.62
  -2  -2   5   65.14    7.00
   2   2  -5   61.29    6.90
   2   2  -5   70.93    6.10
  -2  -2   4  802.60   21.77
  -2  -2   4  888.37   21.38
  -2  -2   4  802.69   21.77
   2   2  -4  832.18   22.30
   2   2  -4  949.28   20.38
  -2  -2   3  898.46   21.17
  -2  -2   3  815.10   18.59
  -2  -2   3  914.47   21.38
   2   2  -3  941.18   22.11
   2   2  -3 1008.90   20.56
  -2  -2   2   35.13    4.15
  -2  -2   2   29.30    4.09
  -2  -2   2   35.47    4.94
   2   2  -2   34.63    5.00
   2   2  -2   37.95    4.45
  -2  -2   1  564.35   13.58
  -2  -2   1  568.60   11.56
  -2  -2   1  568.53   13.65
   2   2  -1  602.74   15.51
   2   2  -1  741.84   16.73
  -2  -2   0 1013.28   15.65
  -2  -2   0 1031.54   15.79
   2   2   0 1065.38   19.60
   2   2   0 1227.01   20.66
   2   2   0 1055.57   13.87
  -2  -2  -1   74.05    3.63
  -2  -2  -1   64.48    5.33
   2   2   1   72.73    5.19
   2   2   1   68.98    4.17
  -2  -2  -2  373.06    5.46
  -2  -2  -2  378.14    5.12
  -2  -2  -2  327.94   11.22
   2   2   2  375.36   11.10
   2   2   2  376.19   11.03
  -2  -2  -3  824.38   18.52
   2   2   3  826.51   16.23
   2   2   3  906.57   19.88
  -2  -2  -4  157.77    8.83
   2   2   4  167.43    4.20
   2   2   4  154.00    7.23
   2   2   4  175.63   10.23
  -2  -2  -5  103.93    7.75
   2   2   5  107.51    4.87
   2   2   5   97.31    5.96
   2   2   5  105.49    8.78
  -2  -2  -6  284.10   13.31
  -2  -2  -6  258.18    9.79
   2   2   6  277.45    9.18
   2   2   6  287.68   15.21
  -2  -2  -7  143.99   10.19
  -2  -2  -7  146.71    7.82
   2   2   7  150.12    7.92
   2   2   7  156.41   12.24
  -2  -2  -8   81.65    8.32
  -2  -2  -8   79.62    6.19
   2   2   8   87.51    6.94
   2   2   8   85.20    9.82
  -2  -2  -9  425.78   19.10
  -2  -2  -9  407.76   13.94
   2   2   9  424.17   15.72
   2   2   9  407.93   21.12
  -2  -2 -10  415.65   19.75
   2   2  10  467.56   23.52
  -2  -2 -11   51.78    8.96
   2   2  11   56.16   10.50
  -2  -2 -12   38.21    8.28
   2   2  12   33.09    8.41
  -2  -2 -13   72.80   11.14
   2   2  13   66.76   11.75
  -2  -2 -14    2.53    4.28
   2   2  14    1.25    4.25
  -2  -3  12   31.92    8.50
  -2  -3  11    6.54    4.56
   2   3 -11    6.39    4.23
  -2  -3  10  108.67   11.67
   2   3 -10  123.18   12.00
  -2  -3   9   48.77    9.04
   2   3  -9   43.48    8.25
  -2  -3   8   21.45    5.90
   2   3  -8   15.44    5.01
  -2  -3   7  262.60   15.75
  -2  -3   7  297.81   14.10
   2   3  -7  262.20   15.31
  -2  -3   6  417.39   15.65
   2   3  -6  425.35   18.56
   2   3  -6  382.08   15.45
  -2  -3   5   39.85    6.85
  -2  -3   5   36.95    5.54
   2   3  -5   28.08    5.68
   2   3  -5   30.56    5.59
  -2  -3   4  269.03   13.54
  -2  -3   4  280.76   10.99
   2   3  -4  272.97   13.49
   2   3  -4  247.07   12.43
  -2  -3   3  297.88   13.26
  -2  -3   3  325.12   10.50
   2   3  -3  330.82   13.96
   2   3  -3  282.38   13.13
  -2  -3   2  139.08    8.48
  -2  -3   2  129.00    5.87
   2   3  -2  142.29    9.32
  -2  -3   1   97.58    6.58
  -2  -3   1  100.58    4.38
   2   3  -1  105.28    7.39
   2   3  -1  120.13    8.46
  -2  -3   0  563.48   13.84
   2   3   0  570.23   16.00
   2   3   0  644.89   18.22
   2   3   0  561.91    8.95
  -2  -3  -1  242.79    8.14
  -2  -3  -1  224.46   10.13
   2   3   1  264.50   11.43
   2   3   1  258.04    7.37
  -2  -3  -2   39.38    3.10
  -2  -3  -2   35.70    5.23
   2   3   2   41.70    4.76
   2   3   2   40.98    4.09
  -2  -3  -3  191.96    4.78
  -2  -3  -3  189.17    9.94
   2   3   3  223.87    9.91
   2   3   3  204.12    9.78
  -2  -3  -4  124.36    3.36
  -2  -3  -4  126.33    8.49
   2   3   4  128.20    7.43
  -2  -3  -5   50.10    2.91
  -2  -3  -5   48.04    5.97
   2   3   5   46.31    4.64
   2   3   5   48.60    7.37
  -2  -3  -6  600.07   19.97
   2   3   6  611.15   11.90
   2   3   6  577.43   15.15
   2   3   6  588.90   11.65
  -2  -3  -7  754.67   23.51
   2   3   7  791.70   15.91
   2   3   7  740.55   17.31
   2   3   7  752.49   26.52
   2   3   7  787.57   15.83
  -2  -3  -8  279.57   15.21
  -2  -3  -8  246.65   10.33
   2   3   8  300.60   11.22
   2   3   8  278.67   17.22
  -2  -3  -9   54.28    8.82
  -2  -3  -9   42.57    4.98
   2   3   9   50.10    9.63
  -2  -3 -10  110.47   10.77
   2   3  10  104.36   11.70
  -2  -3 -11    8.50    4.32
   2   3  11   10.05    5.31
  -2  -3 -12   55.78    9.77
   2   3  12   40.91    9.56
  -2  -3 -13  179.88   14.98
   2   3  13  192.49   16.74
  -2  -3 -14   47.46    9.69
   2   3  14   38.36    9.42
  -2  -4  11   -0.28    2.94
   2   4 -11   -0.48    2.82
  -2  -4  10   77.99   11.80
   2   4 -10   92.61   10.68
  -2  -4   9  186.65   15.05
   2   4  -9  207.11   14.98
  -2  -4   8   43.63    8.42
   2   4  -8   37.80    7.61
  -2  -4   7   92.52    9.98
   2   4  -7   79.26    9.00
  -2  -4   6  237.76   14.93
   2   4  -6  229.76   14.16
   2   4  -6  187.09   12.23
  -2  -4   5   93.94    9.16
  -2  -4   5  106.44    6.79
   2   4  -5   85.09    8.39
   2   4  -5   74.58    8.19
  -2  -4   4   62.03    7.13
  -2  -4   4   75.89    5.18
   2   4  -4   70.40    7.37
   2   4  -4   71.34    7.81
  -2  -4   3  546.25   19.18
  -2  -4   3  627.21   11.69
   2   4  -3  570.57   19.18
   2   4  -3  468.80   18.69
  -2  -4   2  467.64   16.67
  -2  -4   2  532.40    7.91
   2   4  -2  494.16   17.24
   2   4  -2  443.42   18.04
  -2  -4   1   18.77    4.06
   2   4  -1   27.29    4.94
   2   4  -1   19.96    5.05
  -2  -4   0   88.43    6.48
   2   4   0   90.15    7.17
   2   4   0   87.58    8.26
   2   4   0   77.82    2.87
  -2  -4  -1   66.89    5.33
  -2  -4  -1   56.70    5.90
   2   4   1   59.36    6.67
   2   4   1   58.46    3.64
  -2  -4  -2   45.73    4.15
  -2  -4  -2   44.71    6.31
   2   4   2   49.57    6.01
   2   4   2   48.70    4.42
  -2  -4  -3  426.83   10.28
  -2  -4  -3  407.19   15.28
   2   4   3  483.41   16.51
   2   4   3  468.60   14.83
  -2  -4  -4  920.84   12.95
  -2  -4  -4  867.92   22.96
   2   4   4  980.70   22.61
   2   4   4  944.33   23.85
  -2  -4  -5  177.24    5.66
  -2  -4  -5  157.93   10.54
   2   4   5  181.07    9.61
   2   4   5  163.82   11.33
  -2  -4  -6    2.55    1.32
  -2  -4  -6   -0.16    1.82
   2   4   6    0.65    1.54
   2   4   6    3.56    3.12
  -2  -4  -7  113.19    5.84
  -2  -4  -7  101.33    9.19
   2   4   7  103.25    7.17
   2   4   7   99.48   10.18
  -2  -4  -8   44.24    7.77
   2   4   8   43.21    4.50
   2   4   8   37.40    4.61
   2   4   8   40.82    8.45
   2   4   8   52.87    4.80
  -2  -4  -9   76.67    8.89
  -2  -4  -9   72.69    6.14
   2   4   9   87.26   10.70
  -2  -4 -10   92.84    9.93
   2   4  10   99.81   11.78
  -2  -4 -11  130.45   12.09
   2   4  11  170.85   15.51
  -2  -4 -12   31.44    7.71
   2   4  12   19.30    6.92
  -2  -4 -13   20.21    6.58
   2   4  13   15.54    6.84
  -2  -4 -14   30.21    7.82
   2   4  14   32.05    9.29
  -2  -5  10    3.76    3.94
   2   5 -10    7.03    4.64
  -2  -5   9   86.71   10.73
   2   5  -9  100.64   10.94
  -2  -5   8   37.72    8.29
   2   5  -8   32.74    7.17
  -2  -5   7   25.62    6.62
   2   5  -7   29.02    6.62
  -2  -5   6  265.94   16.51
   2   5  -6  244.95   14.96
   2   5  -6  206.03   13.85
  -2  -5   5  205.85   13.91
   2   5  -5  232.47   14.02
   2   5  -5  176.38   12.84
  -2  -5   4   46.88    7.87
   2   5  -4   28.36    5.85
   2   5  -4   32.64    7.05
  -2  -5   3   60.89    7.17
   2   5  -3   55.28    6.64
   2   5  -3   61.29    9.38
  -2  -5   2   72.61    7.35
   2   5  -2   68.79    7.07
   2   5  -2   63.98    9.45
  -2  -5   1    7.63    3.17
   2   5  -1    4.24    2.41
   2   5  -1   10.84    4.50
  -2  -5   0  184.34   10.20
   2   5   0  176.58   10.56
   2   5   0  179.31   12.39
  -2  -5  -1  613.78   17.34
  -2  -5  -1  610.73   19.27
   2   5   1  641.91   10.55
  -2  -5  -2  294.98   11.32
  -2  -5  -2  292.55   13.64
   2   5   2  307.31   15.28
   2   5   2  297.50    9.98
  -2  -5  -3   10.07    2.69
  -2  -5  -3    8.01    3.26
   2   5   3    9.21    3.57
   2   5   3    7.59    2.96
  -2  -5  -4   51.39    4.25
  -2  -5  -4   45.32    7.13
   2   5   4   54.85    6.36
   2   5   4   52.27    6.32
  -2  -5  -5   24.06    3.26
  -2  -5  -5   19.69    5.09
   2   5   5   22.05    4.83
   2   5   5   16.14    4.74
  -2  -5  -6   11.15    2.34
  -2  -5  -6   13.65    4.55
   2   5   6   13.20    3.71
   2   5   6    9.49    4.41
  -2  -5  -7  234.79    8.35
  -2  -5  -7  217.87   13.64
   2   5   7  239.81   11.49
   2   5   7  201.75   14.34
  -2  -5  -8  290.66   16.26
   2   5   8  283.94   12.26
   2   5   8  255.91   17.04
  -2  -5  -9   69.81   10.25
   2   5   9   55.82    5.77
   2   5   9   60.68   10.48
  -2  -5 -10   40.85    8.19
   2   5  10   36.64    8.94
  -2  -5 -11   29.93    7.02
   2   5  11   20.15    6.78
  -2  -5 -12    9.91    4.78
   2   5  12    6.82    4.79
  -2  -5 -13   16.08    5.96
   2   5  13   17.26    6.83
  -2  -5 -14   63.90   11.49
   2   5  14   43.95   10.36
  -2  -6  10    3.84    4.20
   2   6 -10   -1.68    2.87
  -2  -6   9   62.15   10.94
   2   6  -9   55.64    9.68
  -2  -6   8  139.61   13.35
   2   6  -8  124.35   11.76
  -2  -6   7   36.22    8.21
   2   6  -7   26.55    6.57
  -2  -6   6   14.69    5.55
   2   6  -6   13.50    4.76
   2   6  -6   10.77    4.82
  -2  -6   5   39.65    7.98
   2   6  -5   44.26    7.84
   2   6  -5   27.79    6.95
  -2  -6   4    8.38    3.99
   2   6  -4    4.34    3.02
   2   6  -4    8.36    4.34
  -2  -6   3  171.39   12.31
   2   6  -3  195.20   12.48
   2   6  -3  169.74   13.40
  -2  -6   2  370.44   17.14
   2   6  -2  388.40   16.97
   2   6  -2  346.99   18.76
  -2  -6   1  220.89   12.73
   2   6  -1  222.69   12.62
   2   6  -1  222.86   15.09
  -2  -6   0    4.04    2.67
   2   6   0    2.05    2.27
   2   6   0    3.56    3.66
  -2  -6  -1   14.73    3.88
  -2  -6  -1   13.88    4.25
   2   6   1   14.71    5.13
   2   6   1   16.75    2.09
  -2  -6  -2    5.74    2.79
  -2  -6  -2    2.68    2.58
   2   6   2    2.89    3.26
   2   6   2    4.98    2.15
  -2  -6  -3   11.55    3.21
  -2  -6  -3   13.20    4.24
   2   6   3   16.39    5.10
   2   6   3   16.12    3.90
  -2  -6  -4  202.94    9.36
  -2  -6  -4  196.78   12.29
   2   6   4  224.37   13.52
   2   6   4  192.17   11.21
  -2  -6  -5  266.80    9.94
  -2  -6  -5  254.46   14.28
   2   6   5  279.50   14.56
   2   6   5  246.58   13.96
  -2  -6  -6    9.99    2.60
  -2  -6  -6   11.30    4.27
   2   6   6   10.90    3.84
   2   6   6    5.54    3.54
  -2  -6  -7    8.65    2.49
  -2  -6  -7    1.06    2.55
   2   6   7    8.91    3.52
   2   6   7    3.32    3.58
  -2  -6  -8   25.10    6.16
   2   6   8   37.21    6.14
   2   6   8   25.97    6.92
  -2  -6  -9    4.19    3.74
   2   6   9    4.93    2.78
   2   6   9    2.42    3.76
  -2  -6 -10   40.28    8.01
   2   6  10   42.75    9.43
  -2  -6 -11   11.47    5.05
   2   6  11    3.66    3.92
  -2  -6 -12   12.11    5.28
   2   6  12    9.11    5.50
  -2  -6 -13    3.50    3.90
   2   6  13    0.02    3.62
  -2  -6 -14    2.95    3.81
   2   6  14   -0.46    3.80
  -2  -7   9   -0.10    2.89
   2   7  -9    2.04    3.16
  -2  -7   8   17.95    6.35
   2   7  -8    4.29    3.52
  -2  -7   7   -1.06    2.56
   2   7  -7    2.16    3.00
  -2  -7   6   53.23    9.56
   2   7  -6   54.66    8.99
   2   7  -6   43.76    8.95
  -2  -7   5  142.19   12.83
   2   7  -5  145.04   11.87
   2   7  -5  146.52   13.24
  -2  -7   4   36.37    7.65
   2   7  -4   51.60    8.32
   2   7  -4   38.14    8.34
  -2  -7   3   36.25    7.23
   2   7  -3   38.35    7.14
   2   7  -3   34.10    8.20
  -2  -7   2    2.03    2.62
   2   7  -2    0.23    2.26
   2   7  -2    2.00    3.49
  -2  -7   1    2.54    2.62
   2   7  -1    5.30    3.20
   2   7  -1    4.95    4.00
  -2  -7   0    6.86    3.45
   2   7   0   11.41    3.92
   2   7   0    7.16    4.31
  -2  -7  -1   18.35    4.79
  -2  -7  -1   23.52    5.50
   2   7   1   21.25    6.35
  -2  -7  -2  139.87    9.71
  -2  -7  -2  139.55   10.57
   2   7   2  135.34   12.14
   2   7   2  139.73    6.84
  -2  -7  -3   57.51    6.19
  -2  -7  -3   52.15    7.98
   2   7   3   66.20   10.07
   2   7   3   59.44    5.84
  -2  -7  -4   -0.15    1.74
  -2  -7  -4    0.72    2.24
   2   7   4    0.71    2.41
   2   7   4    0.59    2.27
  -2  -7  -5   17.42    3.83
  -2  -7  -5   17.35    5.10
   2   7   5   11.72    4.50
   2   7   5   16.80    4.98
  -2  -7  -6    1.62    1.84
  -2  -7  -6    0.81    2.30
   2   7   6   -1.09    2.23
   2   7   6    2.88    3.08
  -2  -7  -7    5.84    2.41
  -2  -7  -7    6.61    3.88
   2   7   7    6.55    3.51
   2   7   7    3.42    3.50
  -2  -7  -8   30.63    7.03
   2   7   8   36.34    6.53
   2   7   8   27.19    7.31
  -2  -7  -9   31.30    7.21
   2   7   9   19.61    4.75
   2   7   9   22.07    7.02
  -2  -7 -10   -0.59    2.68
   2   7  10    0.46    3.56
  -2  -7 -11    2.47    3.66
   2   7  11    0.02    3.55
  -2  -7 -12    1.28    3.27
   2   7  12    1.44    4.04
  -2  -7 -13    1.17    3.89
   2   7  13    1.20    3.84
  -2  -7 -14    3.31    4.19
   2   7  14    0.09    4.16
  -2  -8   8   10.04    5.19
   2   8  -8    8.99    4.57
  -2  -8   7   38.40    8.74
   2   8  -7   41.80    8.26
  -2  -8   6    8.17    4.64
   2   8  -6   17.61    5.66
   2   8  -6   14.23    6.09
  -2  -8   5    1.36    3.41
   2   8  -5    2.76    3.23
   2   8  -5    1.78    4.10
  -2  -8   4    2.41    3.06
   2   8  -4   -0.10    2.20
   2   8  -4    2.50    3.73
  -2  -8   3    5.77    4.00
   2   8  -3    4.25    3.17
   2   8  -3   -0.08    3.29
  -2  -8   2   44.06    8.32
   2   8  -2   38.59    7.20
   2   8  -2   31.22    8.08
  -2  -8   1   52.06    8.49
   2   8  -1   66.09    7.88
   2   8  -1   51.89    9.90
  -2  -8   0   39.21    7.50
   2   8   0   35.83    8.37
  -2  -8  -1    6.97    3.57
  -2  -8  -1    6.97    3.59
   2   8   1    4.48    3.84
  -2  -8  -2    1.22    2.41
  -2  -8  -2   -1.20    1.86
   2   8   2    0.39    3.05
  -2  -8  -3    0.71    2.01
  -2  -8  -3    3.21    2.82
   2   8   3   -0.28    2.68
   2   8   3    2.62    2.23
  -2  -8  -4   10.72    3.76
  -2  -8  -4   11.24    4.28
   2   8   4    9.01    4.73
   2   8   4   11.21    3.79
  -2  -8  -5   11.77    3.60
  -2  -8  -5   14.76    4.99
   2   8   5   10.62    4.72
   2   8   5    8.98    4.05
  -2  -8  -6    4.09    2.57
  -2  -8  -6    4.33    3.44
   2   8   6    1.69    2.52
   2   8   6    4.35    3.52
  -2  -8  -7   -1.02    2.59
   2   8   7   -0.11    2.63
   2   8   7   -0.06    2.79
  -2  -8  -8   -0.15    2.34
   2   8   8   -0.54    2.31
   2   8   8   -2.36    2.48
  -2  -8  -9    2.46    3.81
   2   8   9    5.38    3.56
   2   8   9    4.14    4.26
  -2  -8 -10   -1.15    2.66
   2   8  10    1.03    3.58
  -2  -8 -11    4.19    3.91
   2   8  11    3.54    4.36
  -2  -8 -12   -0.40    3.31
   2   8  12    1.89    3.86
  -2  -8 -13    3.15    3.97
   2   8  13    4.05    4.74
  -2  -9   7    0.07    3.30
   2   9  -7    1.33    3.33
  -2  -9   6   10.93    5.19
   2   9  -6    3.38    3.70
  -2  -9   5   12.48    5.40
   2   9  -5   15.53    5.38
   2   9  -5    7.62    5.18
  -2  -9   4    6.20    4.56
   2   9  -4    8.17    4.14
   2   9  -4    4.96    4.60
  -2  -9   3    0.16    2.65
   2   9  -3    0.07    2.25
   2   9  -3   -0.71    3.48
  -2  -9   2   12.22    5.07
   2   9  -2   16.57    5.19
   2   9  -2   13.22    6.04
  -2  -9   1    3.28    3.14
   2   9  -1    6.21    3.56
   2   9  -1    9.25    5.20
  -2  -9   0    5.74    3.80
  -2  -9   0    3.19    3.17
   2   9   0    9.03    5.01
  -2  -9  -1    0.45    2.40
  -2  -9  -1   -0.20    2.35
   2   9   1   -1.09    2.72
  -2  -9  -2    2.65    2.91
  -2  -9  -2    6.19    3.54
   2   9   2    6.79    4.40
  -2  -9  -3   -1.17    1.93
  -2  -9  -3   -0.06    2.39
   2   9   3    0.66    3.32
  -2  -9  -4    0.44    2.38
  -2  -9  -4   -0.64    2.21
   2   9   4   -0.78    2.84
  -2  -9  -5   18.94    4.84
  -2  -9  -5   19.62    5.81
   2   9   5   14.61    5.65
   2   9   5   22.63    5.63
  -2  -9  -6    4.99    3.02
  -2  -9  -6    5.00    3.65
   2   9   6    4.53    3.51
   2   9   6    8.36    4.19
  -2  -9  -7    8.25    4.56
   2   9   7    7.82    4.33
   2   9   7   10.57    4.86
  -2  -9  -8    1.17    2.99
   2   9   8    1.61    3.07
   2   9   8    2.26    3.75
  -2  -9  -9    0.40    2.68
   2   9   9   -0.96    2.60
   2   9   9   -0.57    3.17
  -2  -9 -10    2.09    3.48
   2   9  10    4.33    4.23
  -2  -9 -11    6.59    4.62
   2   9  11    6.09    5.24
  -2  -9 -12   21.96    6.81
   2   9  12   26.51    8.31
  -2  -9 -13   25.29    7.69
   2   9  13   31.08    9.19
   2  10  -7    0.27    3.35
  -2 -10   6    1.68    3.75
   2  10  -6    1.42    3.44
  -2 -10   5   -0.12    2.88
   2  10  -5    0.89    3.07
   2  10  -5    2.83    4.37
  -2 -10   4    7.66    4.81
   2  10  -4    7.11    4.27
   2  10  -4    7.17    4.93
  -2 -10   3   13.98    5.52
   2  10  -3   14.00    5.08
   2  10  -3   12.94    6.39
  -2 -10   2   -0.66    2.83
   2  10  -2    0.58    2.43
   2  10  -2   -0.63    3.11
  -2 -10   1   -1.10    2.66
   2  10  -1    5.32    4.52
  -2 -10   0    2.42    3.17
  -2 -10   0    4.67    3.50
   2  10   0    3.04    3.68
  -2 -10  -1   -0.56    2.49
  -2 -10  -1   -0.79    2.23
   2  10   1   -1.96    2.48
  -2 -10  -2    9.74    4.33
  -2 -10  -2    9.32    4.33
   2  10   2    3.98    4.28
  -2 -10  -3   26.37    6.23
  -2 -10  -3   24.93    6.46
   2  10   3   30.03    7.95
  -2 -10  -4   16.80    5.08
  -2 -10  -4   13.63    5.11
   2  10   4   16.55    6.27
  -2 -10  -5   24.73    5.65
  -2 -10  -5   33.46    7.32
   2  10   5   28.37    7.59
  -2 -10  -6    1.59    2.86
   2  10   6    0.52    3.24
  -2 -10  -7    4.69    3.90
   2  10   7    3.22    3.89
   2  10   7    5.85    4.08
  -2 -10  -8    9.02    4.73
   2  10   8    5.97    4.18
   2  10   8    8.04    4.68
  -2 -10  -9   39.94    8.63
   2  10   9   41.49    8.20
   2  10   9   38.27    8.70
  -2 -10 -10   84.34   10.47
   2  10  10   78.79   12.55
  -2 -10 -11   26.37    7.41
   2  10  11   20.20    7.13
  -2 -10 -12   -0.50    2.97
   2  10  12    1.47    3.93
  -2 -10 -13    2.13    3.72
   2  10  13    4.88    5.50
   2  11  -5   13.66    5.44
   2  11  -5   11.80    6.39
  -2 -11   4    0.40    3.19
   2  11  -4    2.55    3.22
   2  11  -4    1.29    4.39
  -2 -11   3   12.48    5.76
   2  11  -3   12.66    5.11
   2  11  -3   23.57    7.81
  -2 -11   2    6.37    4.42
   2  11  -2   14.24    6.27
  -2 -11   1    0.95    3.36
  -2 -11   1    1.99    3.29
   2  11  -1    2.26    3.82
  -2 -11   0   23.05    6.71
  -2 -11   0   13.56    5.20
   2  11   0   20.84    7.26
  -2 -11  -1   87.90   10.16
  -2 -11  -1   82.77    9.56
   2  11   1   95.73   14.29
  -2 -11  -2   20.70    6.11
  -2 -11  -2   14.05    5.32
   2  11   2   22.43    7.48
  -2 -11  -3    0.46    2.78
  -2 -11  -3   -0.20    2.79
   2  11   3    6.73    5.06
  -2 -11  -4   17.15    5.38
  -2 -11  -4   20.41    5.92
   2  11   4   11.93    5.57
  -2 -11  -5    3.43    3.27
  -2 -11  -5    1.30    3.19
   2  11   5    3.29    4.44
  -2 -11  -6   98.78   10.86
   2  11   6   91.26   13.18
  -2 -11  -7   99.33   10.82
   2  11   7  114.10   12.22
  -2 -11  -8   38.39    8.23
   2  11   8   42.42    8.93
  -2 -11  -9   -1.48    2.87
   2  11   9   -1.63    3.33
   2  11   9    4.05    4.14
  -2 -11 -10   11.15    5.25
   2  11  10    7.68    5.00
  -2 -11 -11    8.71    4.90
   2  11  11   10.81    5.90
  -2 -11 -12   10.85    5.38
   2  11  12    4.15    4.91
   2  12  -4    1.77    3.23
   2  12  -4    2.19    4.78
  -2 -12   3   23.74    7.26
   2  12  -3   23.63    7.83
  -2 -12   2   59.75   10.55
  -2 -12   2   70.81   10.92
   2  12  -2   56.00   11.25
  -2 -12   1   24.33    7.26
  -2 -12   1   18.36    6.00
   2  12  -1   27.40    8.24
  -2 -12   0    0.60    3.14
  -2 -12   0    1.37    3.46
   2  12   0    2.37    4.67
  -2 -12  -1   33.57    7.89
  -2 -12  -1   33.51    7.68
   2  12   1   36.53    9.39
  -2 -12  -2    5.93    4.08
  -2 -12  -2    4.26    3.76
   2  12   2    7.77    5.08
  -2 -12  -3   32.54    7.40
  -2 -12  -3   29.03    7.01
   2  12   3   29.99    8.51
  -2 -12  -4  109.72   10.72
  -2 -12  -4  116.18   11.39
   2  12   4  114.06   13.28
  -2 -12  -5   87.79   10.10
   2  12   5   82.19   13.01
  -2 -12  -6   16.70    6.05
   2  12   6   17.99    6.72
  -2 -12  -7   28.05    7.37
   2  12   7   28.34    7.63
  -2 -12  -8   23.15    6.86
   2  12   8   16.54    6.16
  -2 -12  -9   -1.63    2.98
   2  12   9   -1.31    3.46
  -2 -12 -10   53.51   10.33
  -2 -12 -11  129.74   13.35
   2  12  12   28.84    8.52
  -2 -13   1   10.71    5.26
   2  13  -1    6.27    5.39
  -2 -13   0   12.09    5.51
  -2 -13   0    9.35    4.76
   2  13   0    9.42    6.22
  -2 -13  -1   80.71   11.84
  -2 -13  -1   89.70   10.34
   2  13   1   79.48   13.73
  -2 -13  -2  140.33   12.95
  -2 -13  -2  163.29   13.52
   2  13   2  141.33   15.11
  -2 -13  -3   11.69    5.09
  -2 -13  -3   11.42    5.01
   2  13   3   19.80    7.64
  -2 -13  -4   21.01    6.54
   2  13   4   22.64    7.66
  -2 -13  -5   39.75    8.44
   2  13   5   41.95    9.93
  -2 -13  -6    6.43    4.63
   2  13   6    2.77    4.44
  -2 -13  -7   75.22   11.43
   2  13   7   81.47   12.78
  -2 -13  -8  150.92   13.85
   2  13   8  143.94   14.18
  -2 -13  -9   50.09    9.92
   2  13   9   58.29   10.52
  -2 -13 -10    0.32    3.80
  -2 -14  -1    7.05    5.13
  -2 -14  -2   61.23   10.53
  -2 -14  -3    2.59    3.65
   2  14   3    7.52    5.56
  -2 -14  -4   38.32    8.37
   2  14   4   45.27   10.74
  -2 -14  -5  122.03   12.29
   2  14   5  115.31   13.70
  -2 -14  -6   86.73   10.76
   2  14   6   83.55   13.43
  -2 -14  -7   -1.01    3.19
   2  14   7   -0.54    4.31
  -2 -14  -8   52.19    9.88
   2  14   8   51.94   10.55
  -2 -14  -9   40.18    9.19
  -3  14   5   86.50   13.40
   3 -13  -9   20.48    6.84
   3 -13  -8   91.39   11.00
   3 -13  -7   42.08    9.07
   3 -13  -6   10.86    5.52
  -3  13   5  110.11   12.74
   3 -13  -5   91.74   11.33
  -3  13   4   52.30   10.59
   3 -13  -4   48.82    9.74
  -3  13   3    4.33    4.79
   3 -13  -3    2.48    3.91
  -3  13   2   74.96   12.66
   3 -13  -2   94.23   13.62
  -3  13   1   72.09   12.61
   3 -13  -1  106.58   12.59
  -3  12   9    0.48    4.55
   3 -12  -9    2.58    3.83
  -3  12   8  104.12   12.59
   3 -12  -8  113.78   12.09
  -3  12   7   82.26   12.53
   3 -12  -7   88.19   10.86
   3 -12  -6   -2.16    2.80
  -3  12   5  107.85   12.31
   3 -12  -5  115.02   12.38
  -3  12   4  197.59   16.38
   3 -12  -4  196.80   15.89
  -3  12   3   33.18    8.65
   3 -12  -3   26.38    7.34
  -3  12   2   26.45    7.89
   3 -12  -2   30.66    7.97
  -3  12   1  127.22   14.08
   3 -12  -1  127.15   13.44
  -3  12   0   41.10    9.65
   3 -12   0   61.13   11.11
  -3  12  -1   26.72    8.08
   3 -12   1   19.01    7.16
  -3  12  -2   68.96   12.29
   3 -12   2  108.68   13.06
  -3  11  10  100.39   14.84
   3 -11 -10   95.22   10.97
  -3  11   9    0.11    3.99
   3 -11  -9    1.99    3.51
  -3  11   8   78.51   12.67
   3 -11  -8   88.94   10.60
  -3  11   7  224.08   17.25
   3 -11  -7  213.21   15.85
  -3  11   6   78.87   11.89
   3 -11  -6   89.61   10.72
  -3  11   5   23.29    6.99
  -3  11   5   15.27    5.69
   3 -11  -5   22.51    6.80
  -3  11   4  218.35   16.62
   3 -11  -4  217.24   16.21
  -3  11   3   95.83   11.44
   3 -11  -3   92.35   10.97
  -3  11   2    0.92    3.69
   3 -11  -2    0.66    3.24
  -3  11   1  102.75   12.42
   3 -11  -1  106.89   12.22
  -3  11   0  150.85   14.95
   3 -11   0  160.32   14.73
  -3  11  -1    0.50    3.39
   3 -11   1    0.27    3.23
  -3  11  -2  108.55   13.12
   3 -11   2  138.32   14.07
  -3  11  -3  123.53   14.02
   3 -11   3  168.72   15.76
  -3  11  -4   26.46    7.99
   3 -11   4   38.45    9.25
  -3  10  11   29.96    8.71
  -3  10  10  155.02   15.84
   3 -10 -10  171.40   14.03
  -3  10   9   75.77   12.71
   3 -10  -9   81.96   10.07
  -3  10   8    4.88    4.89
   3 -10  -8   12.18    4.86
  -3  10   7  175.58   15.39
   3 -10  -7  158.87   13.43
  -3  10   6  164.38   13.38
  -3  10   6  153.97   14.12
   3 -10  -6  166.13   13.74
  -3  10   5    3.62    3.92
  -3  10   5   -0.57    3.63
   3 -10  -5    1.15    3.03
  -3  10   4  192.53   15.01
  -3  10   4  178.59   13.91
   3 -10  -4  170.03   14.18
  -3  10   3  185.30   15.16
  -3  10   3  176.98   13.32
   3 -10  -3  195.19   15.14
  -3  10   2   11.94    5.40
   3 -10  -2   17.21    6.00
  -3  10   1   53.11    9.98
   3 -10  -1   82.77   12.33
  -3  10   0  225.21   17.29
   3 -10   0  254.57   17.92
  -3  10  -1   67.69   11.45
   3 -10   1   92.84   11.19
  -3  10  -2   25.45    7.55
   3 -10   2   31.39    7.91
  -3  10  -3  154.47   14.92
   3 -10   3  166.48   15.18
  -3  10  -4   86.11   13.35
   3 -10   4   75.96   12.40
  -3  10  -5    7.78    5.29
   3 -10   5   -0.16    2.85
  -3  10  -6  152.14   15.43
   3 -10   6  152.61   15.38
  -3   9  11   -0.73    3.77
   3  -9 -11    1.21    3.48
  -3   9  10   96.07   14.69
   3  -9 -10  121.84   11.80
  -3   9   9  118.90   13.81
   3  -9  -9  144.25   12.65
  -3   9   8   -1.99    3.35
   3  -9  -8    2.77    3.44
  -3   9   7   78.28   12.22
   3  -9  -7  101.68   10.48
  -3   9   6  185.87   13.47
  -3   9   6  163.97   14.53
   3  -9  -6  178.12   13.65
  -3   9   5   49.35    8.79
  -3   9   5   46.25    9.21
   3  -9  -5   43.66    8.30
  -3   9   4   60.03    9.74
  -3   9   4   64.98   10.13
   3  -9  -4   58.95    9.54
  -3   9   3  304.94   18.48
  -3   9   3  288.28   16.72
   3  -9  -3  312.16   18.35
  -3   9   2  116.77   12.09
  -3   9   2  125.19   10.94
   3  -9  -2  142.76   12.76
  -3   9   1    2.23    3.32
  -3   9   1    0.60    2.54
   3  -9  -1    1.52    3.11
  -3   9   0  109.38   12.10
   3  -9   0  132.56   12.72
  -3   9  -1  156.45   14.26
   3  -9   1  198.23   15.70
  -3   9  -2    0.41    3.11
   3  -9   2   -1.96    2.53
  -3   9  -3  160.09   14.92
   3  -9   3  162.70   14.73
  -3   9  -4  151.36   14.64
   3  -9   4  149.38   14.23
  -3   9  -5   19.21    6.66
   3  -9   5   24.83    7.46
  -3   9  -6   49.50   10.48
   3  -9   6   43.63    9.63
   3  -9   7  169.97   15.82
  -3   9  -8   31.19    8.63
   3  -8 -13   57.65   10.60
  -3   8  12  104.24   15.84
   3  -8 -12   99.70   11.54
  -3   8  11   23.63    7.91
   3  -8 -11   23.06    6.52
   3  -8 -11   27.92    7.19
  -3   8  10   29.56    8.85
   3  -8 -10   29.81    7.13
   3  -8 -10   31.66    7.46
  -3   8   9  157.81   15.62
   3  -8  -9  174.96   13.49
   3  -8  -9  177.80   13.28
  -3   8   8   40.51    9.33
   3  -8  -8   49.98    8.67
   3  -8  -8   46.21    8.16
  -3   8   7   46.66    9.78
   3  -8  -7   45.64    8.46
   3  -8  -7   51.41    8.00
  -3   8   6  230.04   13.92
  -3   8   6  199.54   15.89
   3  -8  -6  232.55   15.08
  -3   8   5  210.70   13.92
  -3   8   5  190.96   14.97
   3  -8  -5  225.40   14.82
  -3   8   4    6.25    4.10
  -3   8   4   11.36    5.15
   3  -8  -4    6.92    3.91
  -3   8   3  184.24   13.90
  -3   8   3  184.06   13.44
   3  -8  -3  186.55   13.77
  -3   8   2  188.40   14.33
  -3   8   2  197.81   13.18
   3  -8  -2  209.37   14.73
  -3   8   1    7.41    4.55
  -3   8   1   10.11    4.15
   3  -8  -1   10.35    4.71
  -3   8   0   87.58   10.53
  -3   8   0   92.00    8.60
   3  -8   0  105.34   10.97
  -3   8  -1  270.90   17.71
  -3   8  -1  283.31   13.75
   3  -8   1  261.94   17.23
  -3   8  -2   62.48   10.63
   3  -8   2   47.46    9.05
  -3   8  -3   41.56    8.91
   3  -8   3   44.31    8.99
  -3   8  -4  145.59   13.94
   3  -8   4  169.58   14.64
  -3   8  -5  106.55   12.23
   3  -8   5   94.16   11.39
  -3   8  -6    4.24    4.21
   3  -8   6    2.65    3.68
  -3   8  -7   98.72   12.22
   3  -8   7   78.99   12.54
  -3   8  -8   63.47   11.52
   3  -8   8   72.06   12.37
  -3   8  -9    2.08    4.21
   3  -8   9    1.33    3.88
   3  -7 -13   18.26    6.79
  -3   7  12   80.22   13.80
   3  -7 -12  105.89   11.21
   3  -7 -12  103.91   11.79
  -3   7  11   56.09   11.40
   3  -7 -11   63.02    9.96
   3  -7 -11   75.90   11.24
  -3   7  10    1.13    3.85
   3  -7 -10    4.16    3.53
   3  -7 -10    3.11    3.82
  -3   7   9  189.63   16.84
   3  -7  -9  187.95   13.75
   3  -7  -9  199.63   14.05
  -3   7   8  188.91   16.24
   3  -7  -8  204.55   13.93
   3  -7  -8  208.65   13.65
  -3   7   7    1.00    4.04
   3  -7  -7    5.35    3.46
   3  -7  -7    4.38    3.14
  -3   7   6  113.12    9.35
  -3   7   6   94.38   11.34
   3  -7  -6  106.94   10.05
   3  -7  -6  113.15    9.13
  -3   7   5  228.99   13.46
  -3   7   5  196.10   14.91
   3  -7  -5  218.11   14.16
   3  -7  -5  227.03   11.74
  -3   7   4   38.70    7.38
  -3   7   4   25.71    6.63
   3  -7  -4   32.84    6.73
   3  -7  -4   42.69    5.24
  -3   7   3  103.25    9.99
  -3   7   3   92.09    9.67
   3  -7  -3   77.77    8.76
  -3   7   2  339.46   17.81
  -3   7   2  337.32   16.78
   3  -7  -2  343.51   17.93
  -3   7   1  136.80   11.75
  -3   7   1  148.30   10.82
   3  -7  -1  123.23   11.11
  -3   7   0   10.97    4.69
  -3   7   0   13.92    4.34
   3  -7   0   11.14    4.76
  -3   7  -1  221.49   15.33
   3  -7   1  204.34   14.65
   3  -7   1  229.66   12.16
  -3   7  -2  176.58   14.09
   3  -7   2  188.83   14.48
   3  -7   2  184.37   10.58
  -3   7  -3    2.17    3.40
   3  -7   3    2.96    3.29
   3  -7   3    2.91    2.49
  -3   7  -4   95.04   11.04
   3  -7   4   97.73   10.96
  -3   7  -5  115.01   12.03
   3  -7   5  102.28   11.45
  -3   7  -6   -2.87    2.32
   3  -7   6    2.23    3.38
  -3   7  -7   88.02   12.78
   3  -7   7   76.27   12.15
  -3   7  -8  129.28   13.34
   3  -7   8  142.57   14.21
  -3   7  -9   42.74    9.37
   3  -7   9   54.45   10.60
   3  -7  10    8.02    5.41
   3  -6 -13   -0.07    3.52
  -3   6  12   81.75   13.76
   3  -6 -12  101.46   11.03
   3  -6 -12   77.55   11.74
  -3   6  11  134.81   15.11
   3  -6 -11  146.34   12.65
   3  -6 -11  132.21   12.70
  -3   6  10   11.66    6.25
   3  -6 -10   19.04    5.78
   3  -6 -10   21.21    6.03
  -3   6   9   33.98    8.89
   3  -6  -9   49.28    8.47
   3  -6  -9   39.49    7.88
  -3   6   8  138.97   14.10
   3  -6  -8  140.31   11.40
   3  -6  -8  172.17   12.53
  -3   6   7   34.45    8.56
   3  -6  -7   40.23    7.42
   3  -6  -7   49.98    7.75
  -3   6   6   47.51    9.60
   3  -6  -6   71.08    8.01
   3  -6  -6   71.32    7.59
  -3   6   5  297.61   14.11
  -3   6   5  262.35   16.94
   3  -6  -5  298.94   15.72
   3  -6  -5  341.96   14.15
  -3   6   4  178.02   11.63
  -3   6   4  169.70   13.09
   3  -6  -4  182.18   12.42
   3  -6  -4  194.63    9.86
  -3   6   3   -0.57    2.30
  -3   6   3    0.36    2.70
   3  -6  -3   -0.36    1.92
   3  -6  -3    1.05    1.68
  -3   6   2  299.93   15.53
  -3   6   2  261.87   14.59
   3  -6  -2  294.38   15.78
   3  -6  -2  305.29    9.61
  -3   6   1  408.53   18.56
  -3   6   1  345.99   15.78
   3  -6  -1  346.97   17.40
   3  -6  -1  373.77    9.45
  -3   6   0   29.59    6.46
   3  -6   0   26.16    6.31
   3  -6   0   32.30    5.82
  -3   6  -1   94.15    9.62
   3  -6   1   99.20    9.89
   3  -6   1  102.88    8.15
  -3   6  -2  142.91   11.99
   3  -6   2  131.59   11.62
   3  -6   2  118.75    8.46
  -3   6  -3    2.48    3.22
   3  -6   3    2.30    2.87
   3  -6   3    2.99    2.37
  -3   6  -4   84.49    9.97
   3  -6   4   75.78    9.39
   3  -6   4   76.23    6.91
  -3   6  -5  179.34   14.19
   3  -6   5  177.21   14.23
   3  -6   5  180.54   10.30
  -3   6  -6   71.58   11.10
   3  -6   6   66.32   10.63
  -3   6  -7   15.41    5.91
   3  -6   7   12.35    5.22
  -3   6  -8   77.47   11.71
   3  -6   8   67.99   11.22
  -3   6  -9   55.39   10.24
   3  -6   9   49.04    9.86
   3  -6  10    2.74    4.04
  -3   5  13   32.42    9.48
   3  -5 -13   47.89    9.96
  -3   5  12    7.00    5.51
   3  -5 -12   10.54    5.03
   3  -5 -12   11.10    5.32
  -3   5  11   59.29   12.11
   3  -5 -11   94.40   10.32
   3  -5 -11   62.89   10.26
  -3   5  10   35.54    9.41
   3  -5 -10   28.59    6.74
   3  -5 -10   32.60    7.44
  -3   5   9   15.70    6.57
   3  -5  -9    7.03    3.96
   3  -5  -9   13.79    5.14
  -3   5   8  109.51   12.60
   3  -5  -8  138.01   11.27
   3  -5  -8  136.14   11.25
  -3   5   7  104.71   12.05
   3  -5  -7  121.48   10.20
   3  -5  -7  125.57   10.19
  -3   5   6   -1.14    2.54
   3  -5  -6   -0.77    1.81
   3  -5  -6   -0.62    2.08
  -3   5   5  186.28   10.08
  -3   5   5  166.37   13.53
   3  -5  -5  207.48   12.71
   3  -5  -5  206.92   11.01
  -3   5   4  356.90   14.56
  -3   5   4  351.75   18.40
   3  -5  -4  400.59   17.24
   3  -5  -4  409.51   13.81
  -3   5   3   47.99    6.97
  -3   5   3   46.71    8.02
   3  -5  -3   49.32    7.49
   3  -5  -3   52.92    4.68
  -3   5   2   51.57    7.49
  -3   5   2   42.93    7.29
   3  -5  -2   36.17    6.38
   3  -5  -2   43.32    3.78
  -3   5   1  164.06   11.06
  -3   5   1  128.86    9.71
   3  -5  -1  140.64   10.57
   3  -5  -1  157.47    5.29
  -3   5   0   45.41    7.28
   3  -5   0   44.98    7.37
   3  -5   0   44.59    2.73
   3  -5   0   52.90    5.97
  -3   5  -1   70.87    7.82
   3  -5   1   75.34    8.34
   3  -5   1   80.99    4.04
   3  -5   1   82.03    7.10
  -3   5  -2  220.87    7.44
  -3   5  -2  237.44   14.10
   3  -5   2  215.22   13.87
   3  -5   2  219.09   10.94
  -3   5  -3   47.64    4.19
  -3   5  -3   50.32    8.33
   3  -5   3   36.98    7.33
   3  -5   3   43.08    5.23
  -3   5  -4    0.22    1.47
  -3   5  -4    1.13    2.68
   3  -5   4   -0.36    2.22
   3  -5   4    0.59    1.79
  -3   5  -5   73.63    6.12
  -3   5  -5   82.37    9.54
   3  -5   5   66.88   10.07
   3  -5   5   73.01    6.87
  -3   5  -6  117.43    8.09
  -3   5  -6  124.83   11.72
   3  -5   6  125.32   12.01
   3  -5   6  119.43    8.78
  -3   5  -7   -0.10    1.97
  -3   5  -7   -0.72    3.11
   3  -5   7    1.15    2.96
   3  -5   7    0.60    2.21
  -3   5  -8   38.67    8.37
   3  -5   8   38.78    8.41
  -3   5  -9   36.83    8.30
   3  -5   9   45.41    9.46
   3  -5  10   10.87    5.62
  -3   4  13   18.49    6.38
  -3   4  13   20.38    7.52
  -3   4  13   36.18    8.48
   3  -4 -13   20.16    6.74
  -3   4  12    2.61    4.68
   3  -4 -12   -1.12    3.08
  -3   4  11   27.22    8.58
   3  -4 -11   31.92    7.15
   3  -4 -11   33.59    7.66
  -3   4  10   43.22    9.72
   3  -4 -10   64.85    9.59
   3  -4 -10   55.20    9.39
  -3   4   9    1.39    3.87
   3  -4  -9    2.78    3.01
   3  -4  -9    5.05    3.63
  -3   4   8   63.60   11.14
   3  -4  -8   67.21    7.90
   3  -4  -8   74.46    8.66
  -3   4   7  107.59   11.86
   3  -4  -7  118.03    9.87
   3  -4  -7  125.12   10.20
  -3   4   6   68.16   10.77
   3  -4  -6   91.38    8.45
   3  -4  -6   89.86    8.19
  -3   4   5    3.09    2.16
  -3   4   5    3.96    3.48
   3  -4  -5    3.38    2.49
   3  -4  -5    3.06    2.47
  -3   4   4  204.47    9.84
  -3   4   4  155.10   12.30
   3  -4  -4  188.27   11.32
   3  -4  -4  210.74   10.08
  -3   4   3   30.41    5.03
  -3   4   3   21.76    5.56
   3  -4  -3   30.43    5.64
   3  -4  -3   37.05    4.15
  -3   4   2   29.73    5.26
  -3   4   2   30.09    6.03
   3  -4  -2   23.08    4.88
   3  -4  -2   28.18    3.04
  -3   4   1  101.97    8.01
   3  -4  -1   87.06    7.79
   3  -4  -1   97.82    3.59
  -3   4   0  198.91   11.19
   3  -4   0  190.51   11.59
   3  -4   0  184.79   10.41
  -3   4  -1   10.30    3.62
   3  -4   1    7.78    3.34
   3  -4   1    9.00    1.30
   3  -4   1    8.57    2.95
  -3   4  -2  118.02    4.86
  -3   4  -2  109.16    9.03
   3  -4   2  119.65    8.04
  -3   4  -3   52.53    4.06
  -3   4  -3   54.82    8.09
   3  -4   3   43.94    7.32
   3  -4   3   50.41    5.46
  -3   4  -4    5.66    2.08
  -3   4  -4    7.96    3.61
   3  -4   4    3.77    3.06
   3  -4   4    4.53    2.48
  -3   4  -5    8.06    2.65
  -3   4  -5    5.34    3.53
   3  -4   5    7.62    3.84
   3  -4   5   12.15    3.56
  -3   4  -6   82.92    6.82
  -3   4  -6  103.13   10.14
   3  -4   6   91.38    9.84
   3  -4   6   87.37    7.74
  -3   4  -7   12.30    3.72
  -3   4  -7    7.10    4.24
   3  -4   7   13.06    5.12
   3  -4   7   15.15    4.21
  -3   4  -8   26.18    5.37
  -3   4  -8   23.01    6.45
   3  -4   8   24.10    6.62
   3  -4   8   25.11    5.52
  -3   4  -9   42.27    7.10
  -3   4  -9   45.25    8.62
   3  -4   9   32.51    7.83
   3  -4   9   32.60    6.65
  -3   4 -10   19.83    5.37
   3  -4  10   16.79    6.30
  -3   3  13   33.07    7.95
  -3   3  13   23.02    7.83
  -3   3  13   23.31    6.83
   3  -3 -13   32.72    8.24
  -3   3  12    1.61    3.51
  -3   3  12    2.49    4.54
  -3   3  12    2.30    3.62
   3  -3 -12    8.97    4.93
  -3   3  11    9.96    5.94
   3  -3 -11   14.31    5.71
  -3   3  10   67.09   11.98
   3  -3 -10   69.25   10.05
   3  -3 -10   74.11   10.71
  -3   3   9   47.09    9.84
   3  -3  -9   45.93    7.96
   3  -3  -9   48.76    8.47
  -3   3   8    0.86    3.36
   3  -3  -8    0.80    2.21
   3  -3  -8    1.85    2.55
  -3   3   7    6.70    4.44
   3  -3  -7   10.90    3.97
   3  -3  -7   12.85    4.47
  -3   3   6   11.27    5.15
   3  -3  -6   15.87    4.33
   3  -3  -6   19.39    4.66
  -3   3   5    4.05    1.65
  -3   3   5   -0.30    2.50
   3  -3  -5    1.68    2.08
   3  -3  -5    1.39    2.07
  -3   3   4  106.87    6.19
  -3   3   4   81.15    9.11
   3  -3  -4  100.18    8.00
   3  -3  -4  109.16    7.46
  -3   3   3  154.09    7.81
  -3   3   3  123.87   10.17
   3  -3  -3  134.95    8.97
   3  -3  -3  151.18    7.61
  -3   3   2    0.74    1.78
  -3   3   2    0.74    2.10
   3  -3  -2    0.19    1.60
   3  -3  -2    0.41    1.21
  -3   3   1    6.34    2.44
   3  -3  -1    4.34    2.49
   3  -3  -1    3.31    1.07
   3  -3  -1    1.61    2.05
  -3   3   0   40.72    4.87
   3  -3   0   44.99    5.56
   3  -3   0   45.88    5.46
  -3   3  -1   75.15    6.64
   3  -3   1   82.29    7.32
   3  -3   1   82.81    6.70
  -3   3  -2    4.02    1.18
  -3   3  -2    5.38    2.96
   3  -3   2    4.11    2.61
   3  -3   2    5.55    2.35
  -3   3  -3   27.18    2.86
  -3   3  -3   25.87    5.16
   3  -3   3   27.38    5.65
   3  -3   3   25.55    4.60
  -3   3  -4    2.18    1.53
  -3   3  -4    1.06    2.19
   3  -3   4    3.10    2.82
   3  -3   4    0.91    1.70
  -3   3  -5    0.79    1.45
  -3   3  -5    0.30    2.19
   3  -3   5    0.75    2.29
   3  -3   5    1.01    2.02
  -3   3  -6   27.28    4.73
  -3   3  -6   26.01    5.92
   3  -3   6   23.67    5.89
   3  -3   6   25.67    5.21
  -3   3  -7   50.89    5.85
  -3   3  -7   50.18    8.10
   3  -3   7   51.37    8.58
   3  -3   7   65.17    7.32
  -3   3  -8    2.21    2.41
  -3   3  -8    2.04    3.27
   3  -3   8    3.68    3.61
   3  -3   8    3.34    3.06
  -3   3  -9    2.42    2.60
  -3   3  -9    0.51    3.04
   3  -3   9    0.95    3.02
   3  -3   9    0.22    2.57
  -3   3 -10    1.21    2.46
   3  -3  10    0.24    3.18
   3  -3  10    1.38    2.96
  -3   3 -11    0.88    2.77
  -3   3 -12    3.06    3.45
  -3   2  13   33.30    8.22
  -3   2  13   23.44    8.00
  -3   2  13   30.47    8.20
   3  -2 -13   32.86    8.30
  -3   2  12   10.60    5.30
  -3   2  12   11.21    6.03
  -3   2  12    8.38    4.99
   3  -2 -12   12.76    5.46
  -3   2  11    2.86    3.16
  -3   2  11    7.52    4.90
  -3   2  11    0.73    3.43
   3  -2 -11    2.04    3.45
  -3   2  10   -0.23    3.51
   3  -2 -10    0.01    2.42
  -3   2   9   14.00    6.25
   3  -2  -9   19.34    5.56
   3  -2  -9   15.44    5.04
  -3   2   8   -1.71    3.06
   3  -2  -8    0.09    2.28
   3  -2  -8   -0.28    2.27
  -3   2   7   19.34    6.27
   3  -2  -7   24.10    5.54
   3  -2  -7   28.60    6.16
  -3   2   6    6.71    4.21
   3  -2  -6   13.98    4.12
   3  -2  -6   12.37    4.07
  -3   2   5   13.02    4.83
   3  -2  -5   13.98    3.90
   3  -2  -5   15.95    4.17
  -3   2   4    0.06    1.17
  -3   2   4   -0.34    2.54
   3  -2  -4   -1.08    1.18
   3  -2  -4   -0.52    1.50
  -3   2   3  112.17    5.52
  -3   2   3   94.90    8.78
   3  -2  -3   88.81    6.98
   3  -2  -3  108.38    6.75
  -3   2   2    9.45    2.39
  -3   2   2    9.96    3.57
   3  -2  -2    6.72    2.58
   3  -2  -2    7.67    2.14
  -3   2   1    1.02    1.39
   3  -2  -1    0.72    1.75
   3  -2  -1    0.56    1.05
   3  -2  -1    0.29    1.83
  -3   2   0   13.55    2.92
   3  -2   0   14.13    3.42
   3  -2   0   12.62    3.33
  -3   2  -1    5.60    2.23
   3  -2   1    8.46    2.75
   3  -2   1    9.83    2.88
  -3   2  -2    9.48    1.54
  -3   2  -2    7.08    2.62
   3  -2   2    9.34    3.03
   3  -2   2    8.41    2.75
  -3   2  -3   34.25    3.13
  -3   2  -3   29.06    4.88
   3  -2   3   29.37    5.22
   3  -2   3   39.47    4.89
  -3   2  -4   11.06    2.50
  -3   2  -4   13.32    3.66
   3  -2   4   15.75    4.21
   3  -2   4   10.23    3.15
  -3   2  -5   26.59    4.21
  -3   2  -5   28.94    5.49
   3  -2   5   22.68    5.05
   3  -2   5   28.36    5.23
  -3   2  -6   12.49    3.44
  -3   2  -6   16.52    4.48
   3  -2   6   13.65    4.31
   3  -2   6   14.22    4.12
  -3   2  -7    4.82    2.55
  -3   2  -7    3.90    3.12
   3  -2   7    2.54    2.76
   3  -2   7    4.58    3.05
  -3   2  -8   -0.12    1.85
  -3   2  -8   -2.38    2.07
   3  -2   8    0.84    2.46
   3  -2   8   -1.02    2.08
  -3   2  -9    2.45    2.57
  -3   2  -9    0.87    2.85
   3  -2   9    1.90    2.95
   3  -2   9    0.79    2.63
  -3   2 -10    0.61    2.50
   3  -2  10    1.43    3.04
  -3   2 -11    0.01    2.55
   3  -2  11    0.10    2.85
  -3   2 -12   -0.77    2.80
   3  -2  12   -0.52    3.21
  -3   2 -13    2.66    3.53
  -3   1  13    1.63    3.64
  -3   1  13    4.38    4.85
  -3   1  12    0.51    3.33
  -3   1  12    1.91    4.28
  -3   1  12   -0.74    3.14
   3  -1 -12    0.41    3.24
  -3   1  11    2.60    3.67
  -3   1  11   -0.11    3.84
  -3   1  11   -2.29    2.60
   3  -1 -11   -0.22    2.76
  -3   1  10   -0.74    2.25
  -3   1  10    0.46    3.60
  -3   1  10    0.96    2.91
   3  -1 -10   -0.75    2.33
  -3   1   9   15.86    5.09
  -3   1   9   14.60    5.96
  -3   1   9   12.09    4.60
   3  -1  -9   16.80    5.27
  -3   1   8    7.79    4.68
   3  -1  -8   11.51    4.41
   3  -1  -8   14.24    4.91
  -3   1   7   20.99    6.30
   3  -1  -7   16.22    4.58
   3  -1  -7   18.23    5.01
  -3   1   6    5.24    3.74
   3  -1  -6    3.18    2.50
   3  -1  -6    6.01    3.12
  -3   1   5   -1.05    2.40
   3  -1  -5    0.08    1.68
   3  -1  -5    0.40    1.82
  -3   1   4    2.71    0.97
  -3   1   4    4.37    3.02
   3  -1  -4    2.56    1.96
   3  -1  -4    1.90    1.92
  -3   1   3    7.28    1.56
  -3   1   3    7.77    3.49
   3  -1  -3    6.43    2.45
   3  -1  -3    9.13    2.78
  -3   1   2    3.80    1.43
  -3   1   2    6.97    3.11
   3  -1  -2    3.82    1.98
   3  -1  -2    4.02    1.96
  -3   1   1   38.53    3.34
   3  -1  -1   31.54    3.87
   3  -1  -1   45.33    3.68
   3  -1  -1   49.21    5.49
  -3   1   0    5.28    1.82
   3  -1   0    4.90    2.07
   3  -1   0    7.22    1.65
   3  -1   0    7.70    2.71
  -3   1  -1   22.18    2.17
  -3   1  -1   18.50    3.15
   3  -1   1   17.25    3.29
   3  -1   1   14.21    3.28
  -3   1  -2   56.70    3.42
  -3   1  -2   52.51    4.72
   3  -1   2   55.33    4.95
   3  -1   2   53.68    5.25
  -3   1  -3   18.44    2.83
  -3   1  -3   16.67    3.50
   3  -1   3   12.78    3.15
   3  -1   3   12.16    3.23
  -3   1  -4    7.65    2.24
  -3   1  -4    8.27    2.87
   3  -1   4    5.50    2.54
   3  -1   4    8.23    3.06
  -3   1  -5    1.69    1.63
  -3   1  -5    1.40    1.86
   3  -1   5    1.30    2.04
   3  -1   5    3.06    2.31
  -3   1  -6    0.24    1.52
  -3   1  -6    0.03    1.75
   3  -1   6    0.24    1.87
   3  -1   6    1.59    2.25
  -3   1  -7    4.51    2.59
  -3   1  -7    3.50    2.63
   3  -1   7    3.35    2.86
   3  -1   7    2.24    2.75
  -3   1  -8    6.51    3.16
  -3   1  -8    6.77    3.34
   3  -1   8    6.32    3.45
   3  -1   8    1.86    2.59
  -3   1  -9    1.39    2.37
  -3   1  -9    0.85    2.71
   3  -1   9   -0.37    2.35
   3  -1   9    0.39    2.37
  -3   1 -10   -1.34    2.10
  -3   1 -10   -1.26    2.47
   3  -1  10    2.41    3.27
  -3   1 -11    3.15    3.02
   3  -1  11    1.31    3.23
  -3   1 -12    0.52    2.69
   3  -1  12   -0.84    3.27
  -3   1 -13    7.52    4.48
   3  -1  13    5.19    4.61
  -3   0  13   -0.29    3.73
  -3   0  12    2.14    3.51
   3   0 -12    2.15    3.27
  -3   0  11    2.23    3.46
  -3   0  11    0.43    3.71
   3   0 -11    2.59    3.39
  -3   0  10    1.20    2.93
  -3   0  10    0.75    3.68
  -3   0  10   -0.50    2.78
   3   0 -10   -0.44    2.64
  -3   0   9    0.87    2.61
  -3   0   9    1.09    3.48
  -3   0   9   -0.64    2.08
   3   0  -9   -0.84    2.10
  -3   0   8    0.43    2.31
  -3   0   8   -0.69    2.89
  -3   0   8    0.16    2.19
   3   0  -8   -0.26    2.21
  -3   0   7    3.75    2.80
  -3   0   7    4.13    3.65
  -3   0   7    4.20    3.00
   3   0  -7    6.71    3.41
  -3   0   6    1.92    3.07
   3   0  -6    0.70    1.97
   3   0  -6    1.93    2.32
  -3   0   5   29.15    6.30
   3   0  -5   35.51    5.99
   3   0  -5   38.37    6.25
  -3   0   4   18.98    5.11
   3   0  -4   20.50    4.35
   3   0  -4   19.16    4.30
   3   0  -4   20.10    1.83
  -3   0   3    7.72    3.34
   3   0  -3    4.76    2.30
   3   0  -3    6.93    2.73
   3   0  -3    5.90    1.39
  -3   0   2    0.52    2.03
   3   0  -2    1.27    1.48
   3   0  -2    2.27    1.84
   3   0  -2    1.15    1.05
   3   0  -1    2.20    1.55
   3   0  -1    3.79    1.81
   3   0  -1    2.04    1.25
   3   0  -1    4.35    2.44
   3   0   0    4.01    1.75
   3   0   0    4.86    1.85
   3   0   0    2.94    1.94
  -3   0  -1   36.12    3.43
  -3   0  -1   36.50    3.51
   3   0   1   41.76    3.58
   3   0   1   44.36    4.67
  -3   0  -2   59.90    4.28
  -3   0  -2   50.82    4.44
   3   0   2   56.84    4.07
   3   0   2   57.97    5.25
  -3   0  -3    1.35    1.28
  -3   0  -3    0.14    1.17
   3   0   3   -0.24    1.11
   3   0   3   -0.78    1.41
  -3   0  -4   25.49    4.05
  -3   0  -4   20.60    3.86
   3   0   4   22.65    3.60
   3   0   4   25.47    4.77
  -3   0  -5   53.05    5.30
  -3   0  -5   53.62    5.37
   3   0   5   46.94    4.89
   3   0   5   37.75    6.25
  -3   0  -6   16.81    3.89
  -3   0  -6   20.96    4.18
   3   0   6   14.69    3.66
   3   0   6   21.04    5.09
  -3   0  -7    0.74    1.93
  -3   0  -7    0.74    1.85
   3   0   7    0.13    1.90
   3   0   7    2.17    2.77
  -3   0  -8   35.63    6.27
  -3   0  -8   30.92    5.54
   3   0   8   29.66    5.67
   3   0   8   30.98    6.66
  -3   0  -9    3.64    2.96
  -3   0  -9    4.00    2.97
   3   0   9    4.91    3.27
   3   0   9    4.80    3.64
  -3   0 -10   14.87    4.82
  -3   0 -10   18.43    4.95
   3   0  10   18.78    5.87
  -3   0 -11   31.47    6.93
   3   0  11   18.83    6.19
  -3   0 -12   21.84    6.26
   3   0  12   17.73    6.43
  -3   0 -13   -1.57    2.79
   3   0  13    1.23    3.85
  -3   0 -14   10.37    5.13
   3   0  14   12.02    6.03
  -3  -1  12    0.55    3.72
   3   1 -12    2.99    3.58
  -3  -1  11    1.05    3.23
   3   1 -11    0.88    3.24
  -3  -1  10   -0.01    2.36
  -3  -1  10   -0.76    2.97
   3   1 -10   -1.10    2.64
  -3  -1   9    9.09    4.30
  -3  -1   9    4.04    4.20
  -3  -1   9   10.11    4.50
   3   1  -9   10.66    4.58
  -3  -1   8   35.53    7.09
  -3  -1   8   34.57    7.56
  -3  -1   8   33.61    6.98
   3   1  -8   28.86    6.67
  -3  -1   7   14.02    4.62
  -3  -1   7   17.80    5.53
  -3  -1   7    8.05    3.72
   3   1  -7   14.50    4.84
  -3  -1   6    3.00    2.62
  -3  -1   6    6.69    3.95
  -3  -1   6    2.48    2.56
   3   1  -6    2.96    2.75
  -3  -1   5    3.05    2.30
  -3  -1   5    3.52    3.12
  -3  -1   5    5.82    2.89
   3   1  -5    3.79    2.61
   3   1  -5    5.00    1.59
  -3  -1   4   20.65    4.99
   3   1  -4   21.20    4.44
   3   1  -4   24.36    4.91
   3   1  -4   21.65    2.64
  -3  -1   3   -0.37    1.91
   3   1  -3    3.45    2.07
   3   1  -3    4.68    2.43
   3   1  -3    2.91    1.53
  -3  -1   2   80.82    6.70
   3   1  -2   69.85    5.66
   3   1  -2   87.59    6.67
   3   1  -2   75.52    4.63
   3   1  -1  101.13    6.11
   3   1  -1  113.18    7.02
   3   1  -1  107.06    5.61
   3   1  -1  110.90    7.13
   3   1   0    0.57    1.20
   3   1   0    2.92    1.85
   3   1   0    1.37    1.39
   3   1   0    1.28    1.64
  -3  -1  -1   67.37    5.23
   3   1   1   67.23    3.90
   3   1   1   61.35    4.72
   3   1   1   74.30    5.52
  -3  -1  -2  126.55    7.02
   3   1   2  127.66    4.47
   3   1   2  124.11    6.58
   3   1   2  142.82    7.73
  -3  -1  -3  140.78    7.70
   3   1   3  126.49    4.27
   3   1   3  119.54    6.79
   3   1   3  138.28    8.40
  -3  -1  -4    3.99    2.05
  -3  -1  -4    3.22    1.86
   3   1   4    6.28    1.63
   3   1   4    5.30    2.71
  -3  -1  -5   72.24    6.44
  -3  -1  -5   66.66    5.69
   3   1   5   69.98    4.72
   3   1   5   78.52    7.71
  -3  -1  -6   25.37    4.93
  -3  -1  -6   16.65    3.67
   3   1   6   18.80    3.49
   3   1   6   18.42    4.91
  -3  -1  -7    2.63    2.43
  -3  -1  -7    5.68    2.61
   3   1   7    4.11    2.33
   3   1   7    5.53    3.33
  -3  -1  -8   96.93    8.77
  -3  -1  -8   83.66    7.30
   3   1   8   90.67    7.28
   3   1   8   83.45    9.33
  -3  -1  -9   97.48    9.19
  -3  -1  -9  104.70    8.25
   3   1   9  110.97   11.12
  -3  -1 -10   -0.22    2.21
  -3  -1 -10    1.37    2.45
   3   1  10    1.47    3.18
  -3  -1 -11   33.58    7.11
   3   1  11   46.49    9.16
  -3  -1 -12   34.17    7.54
   3   1  12   28.17    7.65
  -3  -1 -13   10.52    5.03
   3   1  13    4.43    4.61
  -3  -1 -14   13.66    5.62
   3   1  14   12.97    6.33
  -3  -2  12   12.13    5.75
  -3  -2  11   25.30    7.03
   3   2 -11   24.76    6.96
  -3  -2  10   22.30    6.48
   3   2 -10   18.20    6.02
  -3  -2   9   -1.03    2.15
   3   2  -9   -0.10    2.63
  -3  -2   8   16.22    5.20
  -3  -2   8   14.32    5.16
   3   2  -8   13.90    4.98
  -3  -2   7   21.42    5.55
  -3  -2   7   23.37    5.94
  -3  -2   7   27.81    6.43
   3   2  -7   18.99    5.31
  -3  -2   6    0.59    2.13
  -3  -2   6    0.59    2.70
  -3  -2   6    1.91    2.28
   3   2  -6   -0.40    2.03
  -3  -2   5   89.63    8.45
  -3  -2   5  102.74    8.84
  -3  -2   5   88.33    8.37
   3   2  -5  105.90    9.31
   3   2  -5   95.21    6.28
  -3  -2   4   77.04    7.23
  -3  -2   4   80.87    7.47
  -3  -2   4   83.33    7.52
   3   2  -4   91.28    8.15
   3   2  -4  101.65    6.47
  -3  -2   3    3.29    2.14
  -3  -2   3    2.95    2.28
  -3  -2   3    3.98    2.37
   3   2  -3    3.39    2.27
   3   2  -3    6.40    2.43
  -3  -2   2   78.49    6.38
  -3  -2   2   80.00    6.38
  -3  -2   2   89.92    6.74
   3   2  -2  103.30    7.71
   3   2  -2  106.01    6.61
   3   2  -1  373.83   12.08
   3   2  -1  324.91   11.09
   3   2   0   67.03    5.93
   3   2   0   64.16    5.22
   3   2   0   63.73    4.96
  -3  -2  -1   15.71    3.47
   3   2   1   14.68    2.34
   3   2   1   12.70    3.06
   3   2   1   17.16    3.14
  -3  -2  -2   40.73    4.88
   3   2   2   41.29    4.37
   3   2   2   37.96    4.22
  -3  -2  -3  112.43    7.64
   3   2   3  103.17    6.63
   3   2   3  112.63    7.57
  -3  -2  -4    1.36    1.84
   3   2   4   -0.58    1.28
   3   2   4    1.11    1.82
  -3  -2  -5  251.10   12.14
   3   2   5  226.25    4.83
   3   2   5  220.56    9.96
   3   2   5  271.76   13.82
  -3  -2  -6  116.77    8.96
  -3  -2  -6   93.95    6.84
   3   2   6   96.00    4.90
   3   2   6  108.04    9.74
  -3  -2  -7   10.46    3.63
  -3  -2  -7   12.67    3.33
   3   2   7   14.20    3.03
   3   2   7   14.79    5.08
  -3  -2  -8   28.35    5.86
  -3  -2  -8   30.44    5.09
   3   2   8   28.97    7.02
  -3  -2  -9  193.85   13.02
  -3  -2  -9  199.33   10.92
   3   2   9  212.19   15.51
  -3  -2 -10   13.12    4.73
  -3  -2 -10   14.07    4.10
   3   2  10   19.69    6.40
  -3  -2 -11   62.55    9.67
   3   2  11   55.66   10.23
  -3  -2 -12   81.76    9.94
   3   2  12   68.73   11.57
  -3  -2 -13   32.15    7.78
   3   2  13   41.23    9.48
  -3  -2 -14    1.09    3.46
   3   2  14   -0.30    3.76
  -3  -3  11   24.89    7.11
  -3  -3  10   24.99    7.10
   3   3 -10   23.37    6.71
  -3  -3   9    0.66    2.72
   3   3  -9    1.43    3.04
  -3  -3   8   21.86    6.02
   3   3  -8   26.57    6.46
  -3  -3   7  102.64   10.20
   3   3  -7  116.72   10.80
  -3  -3   6   13.09    4.60
  -3  -3   6   13.69    4.25
   3   3  -6   12.50    4.40
  -3  -3   5   78.31    8.19
  -3  -3   5   98.76    7.97
   3   3  -5  102.93    9.45
   3   3  -5  105.33    7.89
  -3  -3   4  161.01   10.86
  -3  -3   4  184.10    9.97
   3   3  -4  176.61   11.55
   3   3  -4  202.02   10.70
  -3  -3   3   63.45    6.55
  -3  -3   3   60.28    5.68
  -3  -3   3   62.62    6.49
   3   3  -3   65.11    6.94
   3   3  -3   70.53    6.60
  -3  -3   2    0.28    1.46
  -3  -3   2   -0.32    1.42
  -3  -3   2    1.28    1.75
   3   3  -2    2.44    2.29
   3   3  -2   -1.51    1.54
  -3  -3   1  223.52   10.05
  -3  -3   1  255.76    9.02
  -3  -3   1  221.67   10.05
   3   3  -1  250.42   12.11
   3   3  -1  291.47   12.49
  -3  -3   0  126.10    6.91
   3   3   0  118.63    8.23
   3   3   0  129.12    8.40
   3   3   0  124.06    6.15
  -3  -3  -1   24.42    2.94
   3   3   1   24.58    4.52
   3   3   1   28.36    3.31
  -3  -3  -2   37.14    3.00
  -3  -3  -2   43.85    5.27
   3   3   2   41.40    5.07
   3   3   2   41.93    4.40
  -3  -3  -3  280.00    5.43
  -3  -3  -3  264.48   12.27
   3   3   3  296.44   12.12
   3   3   3  310.93   12.24
  -3  -3  -4  118.59    8.75
   3   3   4  117.21    7.75
   3   3   4  135.56    9.28
  -3  -3  -5  131.21    9.46
   3   3   5  119.60    7.82
   3   3   5  129.17    9.79
  -3  -3  -6  249.52   13.25
   3   3   6  206.56   10.22
   3   3   6  234.96   14.04
  -3  -3  -7   30.99    6.10
   3   3   7   29.97    5.04
   3   3   7   30.18    6.83
  -3  -3  -8   43.89    7.48
  -3  -3  -8   40.51    5.89
   3   3   8   38.61    7.97
  -3  -3  -9  175.70   12.81
  -3  -3  -9  170.89    9.89
   3   3   9  171.03   14.11
  -3  -3 -10  100.75   10.16
  -3  -3 -10  100.71    8.00
   3   3  10  117.25   12.28
  -3  -3 -11    1.30    2.87
   3   3  11    1.06    3.56
  -3  -3 -12  110.26   11.45
   3   3  12  101.98   12.24
  -3  -3 -13   82.43   10.26
   3   3  13   99.40   14.40
  -3  -3 -14   16.12    6.20
   3   3  14   14.06    6.56
  -3  -4  11   17.46    6.40
  -3  -4  10   70.93   11.40
   3   4 -10   69.12   11.10
  -3  -4   9   19.72    6.18
   3   4  -9   22.61    6.49
  -3  -4   8    8.30    4.44
   3   4  -8    2.64    3.42
  -3  -4   7  120.21   11.48
   3   4  -7  125.26   11.44
  -3  -4   6  132.04   11.32
   3   4  -6  154.32   12.11
  -3  -4   5    5.83    3.50
   3   4  -5    5.54    3.21
   3   4  -5    6.20    3.49
  -3  -4   4  121.58    9.93
  -3  -4   4  141.44    7.80
   3   4  -4  144.96   10.96
   3   4  -4  147.46   10.49
  -3  -4   3   94.23    8.39
  -3  -4   3  118.91    6.61
   3   4  -3  104.21    8.93
   3   4  -3  117.99    9.56
  -3  -4   2   17.19    4.19
  -3  -4   2   16.58    2.95
   3   4  -2   18.51    4.55
   3   4  -2   17.87    4.73
  -3  -4   1  135.45    8.65
  -3  -4   1  125.14    5.71
   3   4  -1  147.73    9.98
   3   4  -1  173.74   11.15
  -3  -4   0  487.94   14.74
   3   4   0  484.37   17.40
   3   4   0  564.91   19.38
   3   4   0  504.42   10.84
  -3  -4  -1  116.20    6.76
   3   4   1  128.49    9.31
   3   4   1  114.42    5.70
  -3  -4  -2   65.24    4.62
  -3  -4  -2   76.06    7.36
   3   4   2   72.28    7.05
   3   4   2   69.00    5.24
  -3  -4  -3  194.30    6.61
  -3  -4  -3  187.78   11.11
   3   4   3  217.57   11.56
   3   4   3  209.50   10.08
  -3  -4  -4  149.33    3.91
  -3  -4  -4  144.79   10.09
   3   4   4  147.50    9.41
   3   4   4  159.43    9.95
  -3  -4  -5   11.10    3.80
   3   4   5   11.20    3.41
   3   4   5   10.49    3.91
  -3  -4  -6  320.32   15.63
   3   4   6  328.33   13.58
   3   4   6  345.42   17.07
  -3  -4  -7  126.77   10.50
   3   4   7  131.19    8.72
   3   4   7  136.94   11.83
  -3  -4  -8    0.05    2.25
   3   4   8    1.36    2.20
   3   4   8    0.94    2.97
  -3  -4  -9  140.53   11.71
  -3  -4  -9  127.85    8.76
   3   4   9  146.69   13.26
  -3  -4 -10  237.62   15.62
  -3  -4 -10  257.77   12.33
   3   4  10  269.96   18.51
  -3  -4 -11   28.17    6.92
   3   4  11   34.51    8.39
  -3  -4 -12   29.73    7.33
   3   4  12   37.56    9.24
  -3  -4 -13   96.78   11.20
   3   4  13   79.40   13.08
  -3  -4 -14   34.94    8.34
   3   4  14   28.81    8.50
  -3  -5  10   83.33   12.62
   3   5 -10   79.61   11.85
  -3  -5   9   94.32   11.38
   3   5  -9  100.80   11.36
  -3  -5   8    2.02    3.27
   3   5  -8    5.87    3.76
  -3  -5   7   37.15    7.80
   3   5  -7   36.41    7.62
  -3  -5   6  158.93   12.91
   3   5  -6  143.86   12.02
  -3  -5   5   34.75    7.02
   3   5  -5   44.65    7.83
   3   5  -5   41.81    7.53
  -3  -5   4  125.44   10.58
   3   5  -4  134.85   11.02
   3   5  -4  136.10   11.09
  -3  -5   3  316.73   15.71
   3   5  -3  349.34   16.77
   3   5  -3  330.87   16.91
  -3  -5   2  128.19    9.68
   3   5  -2  130.05   10.10
   3   5  -2  137.16   10.99
  -3  -5   1   -2.03    1.30
   3   5  -1    0.37    1.89
   3   5  -1    0.37    2.70
  -3  -5   0  409.96   14.91
   3   5   0  434.45   17.50
   3   5   0  485.44   19.95
   3   5   0  426.57    8.58
  -3  -5  -1  301.19   11.98
  -3  -5  -1  286.95   14.19
   3   5   1  328.51   16.23
   3   5   1  288.23    8.25
  -3  -5  -2    2.59    1.74
  -3  -5  -2    0.61    1.95
   3   5   2    3.08    2.78
   3   5   2    3.49    1.88
  -3  -5  -3  163.97    7.51
  -3  -5  -3  148.54   10.65
   3   5   3  158.41   10.95
   3   5   3  172.01    9.06
  -3  -5  -4  348.76    9.27
  -3  -5  -4  360.82   16.45
   3   5   4  378.54   16.29
   3   5   4  374.29   15.01
  -3  -5  -5   33.48    2.56
  -3  -5  -5   39.98    6.99
   3   5   5   33.65    6.03
   3   5   5   40.39    6.86
  -3  -5  -6  262.58    5.33
  -3  -5  -6  235.04   14.03
   3   5   6  271.77   13.39
   3   5   6  245.66   14.58
  -3  -5  -7  378.56   18.20
   3   5   7  388.45   15.64
   3   5   7  393.09   19.51
  -3  -5  -8   67.58    9.85
   3   5   8   81.04    7.37
   3   5   8   69.90   10.54
  -3  -5  -9   24.65    6.24
   3   5   9   26.75    5.14
   3   5   9   26.33    7.29
  -3  -5 -10  189.64   14.29
   3   5  10  187.51   15.69
  -3  -5 -11  110.50   11.39
   3   5  11  119.03   13.22
  -3  -5 -12   -0.36    2.86
   3   5  12    3.21    3.90
  -3  -5 -13  105.31   11.93
   3   5  13   99.11   14.64
  -3  -5 -14  112.04   12.63
   3   5  14  114.70   13.91
  -3  -6   9  120.71   12.99
   3   6  -9  113.91   12.02
  -3  -6   8   24.64    6.85
   3   6  -8   33.85    7.92
  -3  -6   7    9.57    4.53
   3   6  -7   12.20    4.80
  -3  -6   6  216.21   15.56
   3   6  -6  205.69   14.62
  -3  -6   5  199.26   14.35
   3   6  -5  206.41   14.24
   3   6  -5  202.32   14.28
  -3  -6   4    9.99    4.15
   3   6  -4    8.66    3.85
   3   6  -4    8.67    4.54
  -3  -6   3  182.86   12.67
   3   6  -3  194.92   13.11
   3   6  -3  180.21   13.61
  -3  -6   2  226.16   13.37
   3   6  -2  262.22   14.78
   3   6  -2  255.83   15.90
  -3  -6   1   44.57    6.95
   3   6  -1   48.20    7.62
   3   6  -1   49.17    8.70
  -3  -6   0  176.67   10.74
   3   6   0  172.58   11.83
   3   6   0  159.97   12.65
  -3  -6  -1  562.21   17.93
   3   6   1  551.98   22.65
   3   6   1  525.61    9.95
  -3  -6  -2  116.44    7.97
  -3  -6  -2  112.68    9.64
   3   6   2  102.64   10.03
   3   6   2  110.49    6.14
  -3  -6  -3  122.93    7.53
  -3  -6  -3  119.70   10.15
   3   6   3  149.81   11.60
   3   6   3  134.64    8.03
  -3  -6  -4  521.95   13.76
  -3  -6  -4  515.08   20.43
   3   6   4  569.37   21.65
   3   6   4  544.24   17.98
  -3  -6  -5  261.06    8.64
  -3  -6  -5  266.66   15.17
   3   6   5  289.14   15.20
   3   6   5  256.52   13.82
  -3  -6  -6   17.92    5.26
   3   6   6   20.17    5.03
   3   6   6   16.26    5.25
  -3  -6  -7  291.33   16.51
   3   6   7  308.55   15.01
   3   6   7  310.63   17.48
  -3  -6  -8  200.20   14.27
   3   6   8  242.02   13.07
   3   6   8  194.99   14.84
  -3  -6  -9   -0.37    2.46
   3   6   9    1.08    2.42
   3   6   9    0.06    2.65
  -3  -6 -10  205.77   15.24
   3   6  10  237.45   12.56
   3   6  10  213.58   16.72
  -3  -6 -11  183.18   14.68
   3   6  11  173.86   15.80
  -3  -6 -12   27.21    7.33
   3   6  12   23.51    7.37
  -3  -6 -13   37.94    8.59
   3   6  13   41.53   10.05
  -3  -6 -14  172.45   15.53
   3   6  14  138.51   15.12
  -3  -7   8   94.41   11.46
   3   7  -8  112.74   11.81
  -3  -7   7    3.79    3.74
   3   7  -7   -0.96    2.83
  -3  -7   6   88.22   10.64
   3   7  -6   78.01    9.64
  -3  -7   5  164.23   13.58
   3   7  -5  189.48   14.03
   3   7  -5  153.50   13.22
  -3  -7   4   45.01    8.30
   3   7  -4   53.72    8.82
   3   7  -4   39.92    8.30
  -3  -7   3   93.87    9.85
   3   7  -3   88.88    9.38
   3   7  -3   80.22   11.58
  -3  -7   2  327.28   16.97
   3   7  -2  311.48   16.66
   3   7  -2  281.40   17.68
  -3  -7   1  133.02   10.51
   3   7  -1  134.45   11.00
   3   7  -1  136.57   12.45
  -3  -7   0   46.64    7.29
   3   7   0   38.96    7.05
   3   7   0   50.16    9.18
  -3  -7  -1  538.18   19.00
  -3  -7  -1  541.38   21.26
   3   7   1  531.15   23.63
  -3  -7  -2  431.12   16.27
  -3  -7  -2  438.15   19.27
   3   7   2  405.94   20.46
   3   7   2  406.01   10.71
  -3  -7  -3    1.48    1.86
  -3  -7  -3    1.96    2.66
   3   7   3    1.00    2.78
   3   7   3    2.51    2.17
  -3  -7  -4  335.72   12.64
  -3  -7  -4  333.05   17.14
   3   7   4  349.78   18.37
   3   7   4  350.28   14.31
  -3  -7  -5  336.46   11.62
  -3  -7  -5  324.85   17.30
   3   7   5  329.52   17.38
   3   7   5  321.00   15.33
  -3  -7  -6    2.87    2.89
   3   7   6    6.87    3.86
   3   7   6    4.84    3.46
  -3  -7  -7  154.23   12.49
   3   7   7  164.78   11.90
   3   7   7  153.49   12.59
  -3  -7  -8  343.48   18.84
   3   7   8  348.14   16.61
   3   7   8  285.86   17.78
  -3  -7  -9   69.08   10.51
   3   7   9   70.88    7.82
   3   7   9   57.33   10.21
  -3  -7 -10   61.68   10.24
   3   7  10   59.75    7.24
   3   7  10   54.22   10.39
  -3  -7 -11  228.36   16.62
   3   7  11  239.37   18.49
  -3  -7 -12  117.93   12.34
   3   7  12  123.03   13.72
  -3  -7 -13    5.29    4.46
   3   7  13   -1.34    3.63
  -3  -7 -14  136.52   14.10
   3   7  14  127.34   14.79
   3   8  -8  129.17   12.80
  -3  -8   7   34.45    8.30
   3   8  -7   39.58    8.28
  -3  -8   6   15.35    5.85
   3   8  -6   18.95    5.91
  -3  -8   5  147.07   13.40
   3   8  -5  167.16   13.59
   3   8  -5  136.14   13.21
  -3  -8   4   82.45   10.06
   3   8  -4   80.48    9.39
   3   8  -4   76.18   11.80
  -3  -8   3   14.48    5.30
   3   8  -3   17.12    5.50
   3   8  -3   10.28    5.34
  -3  -8   2  289.16   16.80
   3   8  -2  289.21   16.62
   3   8  -2  281.85   18.64
  -3  -8   1  307.33   16.69
   3   8  -1  313.96   17.14
   3   8  -1  300.69   19.18
  -3  -8   0    9.54    3.94
   3   8   0    8.15    3.90
   3   8   0    9.58    4.78
  -3  -8  -1  204.57   12.70
  -3  -8  -1  224.07   14.36
   3   8   1  169.99   14.31
  -3  -8  -2  378.42   16.34
  -3  -8  -2  383.59   18.61
   3   8   2  333.98   19.70
  -3  -8  -3   54.31    6.48
  -3  -8  -3   38.73    7.53
   3   8   3   45.15    8.94
  -3  -8  -4   84.47    7.33
  -3  -8  -4   77.29    8.89
   3   8   4   78.72    9.73
   3   8   4   83.47    7.30
  -3  -8  -5  372.86   13.72
  -3  -8  -5  365.60   18.83
   3   8   5  389.48   20.12
   3   8   5  356.05   15.88
  -3  -8  -6  120.86   11.22
   3   8   6  127.23   11.50
   3   8   6  110.41   10.03
  -3  -8  -7   27.91    6.96
   3   8   7   30.83    6.92
   3   8   7   22.84    6.17
  -3  -8  -8  226.32   15.73
   3   8   8  233.50   14.57
   3   8   8  205.43   15.23
  -3  -8  -9  202.18   15.23
   3   8   9  209.77   13.60
   3   8   9  177.40   14.76
  -3  -8 -10    0.94    2.66
   3   8  10    2.03    2.77
   3   8  10   -0.44    2.86
  -3  -8 -11  204.14   15.92
   3   8  11  181.62   16.20
  -3  -8 -12  130.08   13.28
   3   8  12  125.93   14.10
  -3  -8 -13    7.65    4.98
   3   8  13    4.51    4.75
   3   9  -7   71.96   11.05
  -3  -9   6   -0.75    3.23
   3   9  -6    1.13    3.17
  -3  -9   5  127.98   12.96
   3   9  -5  118.59   11.79
   3   9  -5  105.30   12.11
  -3  -9   4  184.92   14.84
   3   9  -4  169.01   13.64
   3   9  -4  189.44   15.90
  -3  -9   3    8.98    4.39
   3   9  -3    8.61    4.28
   3   9  -3   11.67    5.46
  -3  -9   2   76.92    9.35
   3   9  -2   77.64    9.25
   3   9  -2   64.40   11.15
  -3  -9   1  251.94   15.86
   3   9  -1  237.30   15.45
   3   9  -1  228.69   17.51
  -3  -9   0   84.04    9.23
  -3  -9   0   87.88    9.58
   3   9   0   89.69   13.13
  -3  -9  -1   76.11    8.53
  -3  -9  -1   61.07    9.45
   3   9   1   58.87   10.70
  -3  -9  -2  246.96   14.13
  -3  -9  -2  240.65   15.33
   3   9   2  244.23   17.67
  -3  -9  -3  202.45   12.34
  -3  -9  -3  198.06   14.14
   3   9   3  175.79   14.91
  -3  -9  -4    2.22    2.61
  -3  -9  -4    0.18    2.75
   3   9   4    0.11    2.99
  -3  -9  -5  275.66   12.97
  -3  -9  -5  257.84   16.36
   3   9   5  241.87   16.81
  -3  -9  -6  177.40   13.84
   3   9   6  166.15   13.67
   3   9   6  162.89   11.79
  -3  -9  -7   -0.47    2.42
   3   9   7   -1.43    2.72
   3   9   7    4.02    3.47
  -3  -9  -8   91.99   10.45
   3   9   8   80.45    9.40
   3   9   8   74.00   11.01
  -3  -9  -9  190.00   15.13
   3   9   9  202.41   13.98
   3   9   9  161.15   14.13
  -3  -9 -10   47.74    9.31
   3   9  10   39.04    7.43
   3   9  10   26.25    7.48
  -3  -9 -11   78.12   12.13
   3   9  11   49.96   10.16
  -3  -9 -12  194.71   16.05
   3   9  12  151.14   15.13
  -3  -9 -13   58.25   10.82
   3   9  13   60.22   11.95
   3  10  -6   33.86    8.11
  -3 -10   5   23.23    7.20
   3  10  -5   32.98    7.68
   3  10  -5   30.04    8.29
  -3 -10   4  128.67   13.01
   3  10  -4  134.70   12.59
   3  10  -4  148.78   14.76
  -3 -10   3   57.07   10.14
   3  10  -3   61.54    9.71
   3  10  -3   54.82   10.83
  -3 -10   2    5.57    4.17
   3  10  -2    4.37    3.76
   3  10  -2    4.74    4.59
  -3 -10   1  223.72   15.45
   3  10  -1  230.85   18.19
  -3 -10   0  211.05   14.70
  -3 -10   0  241.03   15.77
   3  10   0  219.92   17.65
  -3 -10  -1    1.06    2.74
  -3 -10  -1   -0.96    2.52
   3  10   1   -1.34    3.43
  -3 -10  -2  154.37   11.87
  -3 -10  -2  145.71   12.42
   3  10   2  120.12   13.15
  -3 -10  -3  203.02   13.06
  -3 -10  -3  177.86   13.70
   3  10   3  163.94   15.09
  -3 -10  -4   31.36    6.32
  -3 -10  -4   29.61    7.12
   3  10   4   33.87    8.29
  -3 -10  -5   40.45    8.23
   3  10   5   36.30    8.69
  -3 -10  -6  197.85   14.98
   3  10   6  193.38   15.37
  -3 -10  -7   36.72    7.97
   3  10   7   36.64    8.33
  -3 -10  -8   28.81    7.37
   3  10   8   23.87    6.74
   3  10   8   25.93    6.94
  -3 -10  -9  142.62   13.47
   3  10   9  157.30   13.04
   3  10   9  162.44   14.04
  -3 -10 -10  147.41   13.79
   3  10  10  128.31   11.56
   3  10  10  121.34   12.91
  -3 -10 -11   -1.43    2.62
   3  10  11    1.36    3.77
  -3 -10 -12   85.11   12.84
   3  10  12   84.40   13.39
   3  10  13   85.65   13.79
   3  11  -5    1.87    3.28
  -3 -11   4  107.36   12.47
   3  11  -4  105.44   11.50
   3  11  -4   94.96   14.10
  -3 -11   3  150.45   14.06
   3  11  -3  120.63   12.05
   3  11  -3  134.15   14.44
  -3 -11   2    1.54    3.46
   3  11  -2    1.52    3.63
  -3 -11   1   80.84   11.62
  -3 -11   1   78.26    9.78
   3  11  -1   72.42   12.55
  -3 -11   0  188.44   14.50
  -3 -11   0  193.98   14.68
   3  11   0  190.87   16.99
  -3 -11  -1   49.06    8.70
  -3 -11  -1   48.23    9.05
   3  11   1   48.15   10.19
  -3 -11  -2   44.44    8.22
  -3 -11  -2   43.47    8.50
   3  11   2   29.97    8.25
  -3 -11  -3  136.77   11.40
  -3 -11  -3  137.17   12.45
   3  11   3  112.68   12.94
  -3 -11  -4   75.11   11.16
   3  11   4   68.64   11.78
  -3 -11  -5    1.98    3.27
   3  11   5    0.33    3.57
  -3 -11  -6  168.69   13.98
   3  11   6  153.83   14.50
  -3 -11  -7  121.83   12.21
   3  11   7  121.03   12.58
  -3 -11  -8   -1.32    2.30
   3  11   8    1.54    3.42
  -3 -11  -9   59.65   10.51
   3  11   9   55.83    9.77
  -3 -11 -10  112.56   12.44
   3  11  10  101.47   10.91
   3  11  10   84.85   12.39
  -3 -11 -11   16.96    6.32
   3  11  11   10.01    5.67
  -3 -11 -12   35.64    8.80
   3  11  12   36.70    9.23
  -3 -12   3  103.35   12.26
   3  12  -3  108.97   13.59
  -3 -12   2   27.32    7.56
  -3 -12   2   20.39    6.31
   3  12  -2   29.12    8.75
  -3 -12   1    2.61    3.93
  -3 -12   1    3.57    3.94
   3  12  -1    5.37    4.82
  -3 -12   0  101.24   11.25
  -3 -12   0  126.33   12.10
   3  12   0  123.54   14.35
  -3 -12  -1  100.90   10.94
  -3 -12  -1   90.87   10.63
   3  12   1   94.80   14.50
  -3 -12  -2    0.47    3.20
  -3 -12  -2    1.77    3.14
   3  12   2   -0.91    3.30
  -3 -12  -3  114.86   10.96
  -3 -12  -3   96.58   10.86
   3  12   3   94.06   14.26
  -3 -12  -4  132.53   12.66
   3  12   4  119.92   13.75
  -3 -12  -5   24.26    6.72
   3  12   5   24.91    7.66
  -3 -12  -6   34.80    8.14
   3  12   6   34.84    8.63
  -3 -12  -7  122.42   12.50
   3  12   7  127.76   13.48
  -3 -12  -8   13.25    5.22
   3  12   8    6.50    4.91
  -3 -12  -9   19.91    6.62
   3  12   9   22.98    7.06
  -3 -12 -10   74.46   11.88
  -3 -12 -11   28.47    7.87
  -3 -13   2   41.61    8.82
  -3 -13   1    1.92    4.05
  -3 -13   1    1.60    3.59
   3  13  -1    0.49    4.48
  -3 -13   0   49.17    9.54
  -3 -13   0   59.36   10.20
   3  13   0   48.73   10.85
  -3 -13  -1  106.11   11.42
  -3 -13  -1  112.91   11.92
   3  13   1  105.60   15.40
  -3 -13  -2   15.71    5.82
  -3 -13  -2   18.52    6.39
   3  13   2   20.75    7.50
  -3 -13  -3   17.81    6.18
   3  13   3   26.16    8.08
  -3 -13  -4   83.22   12.04
   3  13   4   92.68   14.03
  -3 -13  -5   26.54    7.17
   3  13   5   31.08    8.73
  -3 -13  -6    7.94    4.87
   3  13   6    4.50    4.78
  -3 -13  -7   53.95   10.08
   3  13   7   51.83   10.71
  -3 -13  -8   47.86    9.47
   3  13   8   51.85   10.40
  -3 -13  -9    1.00    3.80
   3  13   9    1.24    3.87
  -3 -13 -10   48.41   10.00
  -3 -14   0    4.18    4.16
  -3 -14  -1   34.22    8.19
  -3 -14  -1   33.48    8.17
  -3 -14  -2   25.15    7.11
  -3 -14  -3    0.00    3.49
  -3 -14  -4   31.30    7.88
   3  14   4   15.75    7.04
  -3 -14  -5   32.52    8.19
   3  14   5   28.60    8.71
  -3 -14  -6    0.86    3.55
   3  14   6    6.27    5.83
  -3 -14  -7   22.42    7.07
   3  14   7   14.10    6.46
  -3 -14  -8   42.34    9.41
   3  14   8   39.07    9.76
   3  14   9    1.69    4.76
   4 -13  -5    5.67    4.77
  -4  13   4    3.18    4.94
   4 -13  -4   -1.80    2.95
  -4  13   3    6.38    5.20
   4 -13  -3   16.06    6.40
  -4  13   2   31.69    8.68
  -4  12   8   -0.53    4.28
   4 -12  -8    3.05    4.10
  -4  12   7   -0.11    4.02
   4 -12  -7    0.45    3.63
   4 -12  -6    9.30    5.05
   4 -12  -5   34.05    8.26
  -4  12   4   21.52    7.23
   4 -12  -4   13.89    5.89
  -4  12   3    2.42    4.36
   4 -12  -3    2.35    3.99
  -4  12   2    3.72    4.38
   4 -12  -2    0.22    3.14
  -4  12   1    1.04    3.95
   4 -12  -1    2.36    3.96
  -4  12   0    0.42    3.70
   4 -12   0    3.34    4.41
  -4  12  -1   12.55    6.32
   4 -12   1   14.22    6.19
   4 -11 -10   -0.81    3.40
  -4  11   9    5.95    5.52
   4 -11  -9    9.59    5.00
  -4  11   8    2.29    4.39
   4 -11  -8    2.73    3.80
  -4  11   7    6.22    5.20
   4 -11  -7    8.27    4.85
  -4  11   6    0.49    3.69
   4 -11  -6   -0.13    3.42
  -4  11   5    3.45    3.94
  -4  11   5    0.40    3.70
   4 -11  -5    3.61    4.17
  -4  11   4   -0.32    3.53
  -4  11   4    0.61    3.41
   4 -11  -4    1.14    3.45
  -4  11   3    1.35    3.80
   4 -11  -3    0.30    3.19
  -4  11   2    2.00    3.67
   4 -11  -2    3.55    3.80
  -4  11   1    3.96    4.41
   4 -11  -1   -0.13    3.05
  -4  11   0   -1.37    3.09
   4 -11   0    1.11    3.47
  -4  11  -1    3.04    4.33
   4 -11   1    1.31    3.29
  -4  11  -2    2.16    4.07
   4 -11   2   -1.19    3.15
  -4  11  -3    7.61    5.30
   4 -11   3    5.35    4.96
   4 -10 -11    4.01    4.31
  -4  10  10    2.83    5.03
   4 -10 -10    3.21    3.90
  -4  10   9    1.27    4.29
   4 -10  -9   -0.19    3.32
  -4  10   8    1.90    4.18
   4 -10  -8   -0.30    2.87
  -4  10   7    1.25    3.93
   4 -10  -7    2.11    3.30
  -4  10   6   -1.34    3.33
   4 -10  -6    2.02    3.58
  -4  10   5    2.48    3.65
  -4  10   5    0.33    3.28
   4 -10  -5    4.33    3.68
  -4  10   4    2.07    3.81
  -4  10   4    1.16    3.54
   4 -10  -4    0.09    2.99
  -4  10   3    1.39    3.59
  -4  10   3    2.41    3.72
   4 -10  -3    0.76    3.12
  -4  10   2    0.28    3.79
  -4  10   2    0.54    3.07
   4 -10  -2   -0.15    2.81
  -4  10   1   11.97    5.70
   4 -10  -1   10.01    5.15
  -4  10   0   21.75    7.12
   4 -10   0   22.05    6.53
  -4  10  -1    2.50    4.12
   4 -10   1   -1.70    2.55
  -4  10  -2   -2.51    3.21
   4 -10   2   -2.09    2.50
  -4  10  -3    1.14    4.03
   4 -10   3    1.00    3.29
  -4  10  -4   -2.38    3.12
   4 -10   4    1.87    4.35
  -4  10  -5    6.97    5.15
   4 -10   5   11.91    5.81
   4  -9 -12   -2.48    3.17
  -4   9  11   12.04    6.24
   4  -9 -11   10.99    5.26
  -4   9  10    4.66    5.11
  -4   9   9    1.26    4.36
   4  -9  -9    4.79    4.06
  -4   9   8   -0.54    3.60
   4  -9  -8    0.87    3.17
  -4   9   7    6.75    5.12
   4  -9  -7   10.62    5.12
  -4   9   6    1.52    3.88
   4  -9  -6   -0.15    2.81
  -4   9   5    2.28    3.41
  -4   9   5    0.91    3.62
   4  -9  -5    2.59    3.49
  -4   9   4   60.88    9.87
  -4   9   4   43.06    8.72
   4  -9  -4   65.10   10.33
  -4   9   3   29.45    7.44
  -4   9   3   19.20    6.21
   4  -9  -3   16.99    6.03
  -4   9   2    0.19    3.34
  -4   9   2    1.10    3.19
   4  -9  -2    2.78    3.65
  -4   9   1    6.34    4.49
  -4   9   1    4.54    3.69
   4  -9  -1    1.56    3.04
  -4   9   0    6.26    4.69
  -4   9   0    1.91    2.95
   4  -9   0    4.61    3.91
  -4   9  -1    1.53    3.78
   4  -9   1   -0.96    2.62
  -4   9  -2   30.87    8.20
   4  -9   2   29.25    7.83
  -4   9  -3   56.71   10.64
   4  -9   3   70.59   11.94
  -4   9  -4   40.15    9.27
   4  -9   4   31.93    8.44
  -4   9  -5   -1.95    3.63
   4  -9   5    0.16    3.15
  -4   9  -6    3.18    4.55
   4  -9   6    3.88    4.38
  -4   9  -7    2.29    4.30
   4  -9   7    6.62    4.93
   4  -8 -12    9.28    5.21
  -4   8  11    7.14    5.77
   4  -8 -11    7.19    4.65
  -4   8  10    6.12    5.35
   4  -8 -10    9.34    4.87
  -4   8   9    8.89    5.68
   4  -8  -9   16.98    5.59
  -4   8   8    1.21    3.90
   4  -8  -8    1.12    3.09
  -4   8   7   38.97    9.37
   4  -8  -7   47.27    8.85
  -4   8   6   44.49    9.21
   4  -8  -6   44.43    8.42
  -4   8   5    8.25    4.17
  -4   8   5    8.81    4.68
   4  -8  -5    6.01    4.06
  -4   8   4    0.48    3.05
  -4   8   4    0.56    3.29
   4  -8  -4    6.23    3.66
  -4   8   3   26.57    6.86
  -4   8   3   31.81    7.24
   4  -8  -3   27.22    6.87
  -4   8   2    2.41    3.54
  -4   8   2    0.77    2.92
   4  -8  -2    1.34    2.88
  -4   8   1   53.54    9.57
  -4   8   1   49.43    8.34
   4  -8  -1   51.01    9.20
  -4   8   0  123.40   11.96
  -4   8   0   98.42    9.37
   4  -8   0  110.57   11.63
  -4   8  -1  129.87   12.48
   4  -8   1  133.40   12.72
  -4   8  -2   -0.28    3.21
   4  -8   2    0.25    2.71
   4  -8   2   -0.36    2.27
  -4   8  -3   16.83    6.03
   4  -8   3   29.70    7.63
  -4   8  -4    8.22    5.19
   4  -8   4   11.45    5.35
  -4   8  -5    2.91    3.78
   4  -8   5    0.28    3.40
  -4   8  -6   57.80   10.79
   4  -8   6   46.30    9.75
  -4   8  -7   92.42   13.72
   4  -8   7  115.87   13.02
  -4   8  -8   15.48    6.76
   4  -8   8   28.39    8.06
   4  -7 -12   16.19    6.12
  -4   7  11   -0.43    3.98
   4  -7 -11    1.14    3.23
  -4   7  10   24.75    7.88
   4  -7 -10   34.95    7.66
  -4   7   9   64.05   11.93
   4  -7  -9   66.98   10.13
  -4   7   8   72.81   12.29
   4  -7  -8   62.52    9.77
  -4   7   7    2.06    3.76
   4  -7  -7    1.66    3.11
  -4   7   6   19.88    6.66
   4  -7  -6   34.53    7.23
  -4   7   5   14.39    4.79
  -4   7   5   13.97    5.64
   4  -7  -5   16.68    5.24
  -4   7   4   16.76    5.15
  -4   7   4   13.33    5.26
   4  -7  -4    9.57    4.65
  -4   7   3  390.42   18.49
  -4   7   3  330.15   18.25
   4  -7  -3  331.25   18.14
  -4   7   2  145.03   11.93
  -4   7   2  143.43   11.78
   4  -7  -2  146.04   12.22
  -4   7   1    8.47    4.42
  -4   7   1    7.23    3.75
   4  -7  -1    0.38    2.68
  -4   7   0   41.60    8.16
  -4   7   0   44.93    7.57
   4  -7   0   36.31    7.64
  -4   7  -1   73.42   10.78
   4  -7   1   59.51    9.97
   4  -7   1   55.09    7.90
  -4   7  -2    1.85    3.03
   4  -7   2    2.32    2.94
   4  -7   2    1.17    2.23
  -4   7  -3  108.85   11.32
   4  -7   3  101.98   11.10
   4  -7   3  108.03    8.88
  -4   7  -4  158.34   13.93
   4  -7   4  166.10   14.23
   4  -7   4  166.85   10.78
  -4   7  -5   59.20   10.36
   4  -7   5   70.02   11.31
  -4   7  -6    3.23    3.62
   4  -7   6    0.36    3.19
  -4   7  -7   36.89    8.89
   4  -7   7   56.38   10.73
  -4   7  -8   18.36    6.44
   4  -7   8   27.98    7.92
  -4   7  -9    3.99    4.51
   4  -7   9    1.57    4.09
   4  -6 -13   29.11    7.78
   4  -6 -13   31.09    7.94
  -4   6  12   73.38   13.33
   4  -6 -12   79.12   11.61
   4  -6 -12   65.25   10.92
  -4   6  11   42.27   10.25
   4  -6 -11   55.84    9.55
   4  -6 -11   57.78    9.97
  -4   6  10    2.72    4.37
   4  -6 -10    0.00    2.72
   4  -6 -10    4.29    3.90
  -4   6   9   37.15    9.68
   4  -6  -9   44.92    8.53
   4  -6  -9   29.55    6.91
  -4   6   8   55.11   10.91
   4  -6  -8   52.10    8.91
   4  -6  -8   56.59    8.69
  -4   6   7   13.58    5.85
   4  -6  -7   13.28    4.65
   4  -6  -7   13.66    4.53
  -4   6   6  171.27   14.99
   4  -6  -6  196.56   13.59
   4  -6  -6  214.01   12.17
  -4   6   5  222.39   12.26
  -4   6   5  198.42   15.26
   4  -6  -5  220.85   14.29
   4  -6  -5  234.02   11.54
  -4   6   4   53.15    7.77
  -4   6   4   29.76    7.14
   4  -6  -4   49.81    8.22
  -4   6   3   22.73    5.39
  -4   6   3   21.25    5.92
   4  -6  -3   15.79    4.95
  -4   6   2  229.87   13.74
  -4   6   2  217.76   14.04
   4  -6  -2  220.03   14.19
  -4   6   1   14.51    4.67
  -4   6   1    8.89    4.02
   4  -6  -1   10.39    4.20
  -4   6   0  100.06    9.67
   4  -6   0   94.37    9.70
   4  -6   0  116.44    9.74
  -4   6  -1  335.21   17.62
   4  -6   1  304.65   17.31
   4  -6   1  361.54   16.09
  -4   6  -2  296.83   17.04
   4  -6   2  304.29   17.62
   4  -6   2  313.47   14.68
  -4   6  -3    5.02    3.71
   4  -6   3    1.37    2.97
   4  -6   3    3.96    2.66
  -4   6  -4   76.67    9.41
   4  -6   4   70.66   10.83
   4  -6   4   70.72    7.28
  -4   6  -5  141.51   12.85
   4  -6   5  121.12   12.07
   4  -6   5  143.24   10.19
  -4   6  -6   -0.20    2.88
   4  -6   6    1.20    3.10
   4  -6   6    0.77    2.37
  -4   6  -7  163.33   14.25
   4  -6   7  158.65   14.10
  -4   6  -8  213.32   16.41
   4  -6   8  169.49   14.99
  -4   6  -9   32.64    8.25
   4  -6   9   22.11    6.92
  -4   6 -10   48.91   10.02
   4  -5 -13    4.02    4.05
   4  -5 -13    3.86    4.51
  -4   5  12   43.31   10.61
   4  -5 -12   47.38    9.28
   4  -5 -12   53.23   10.24
  -4   5  11   43.46   10.57
   4  -5 -11   66.37   10.49
   4  -5 -11   61.42   10.32
  -4   5  10    0.81    4.27
   4  -5 -10    2.10    3.12
   4  -5 -10    1.01    2.89
  -4   5   9   89.01   13.83
   4  -5  -9  100.60   10.43
   4  -5  -9   99.59   10.28
  -4   5   8  213.18   17.35
   4  -5  -8  265.74   16.02
   4  -5  -8  265.21   15.41
  -4   5   7  116.19   12.98
   4  -5  -7  146.21   11.79
   4  -5  -7  150.38   11.13
  -4   5   6   30.57    7.73
   4  -5  -6   45.07    7.98
   4  -5  -6   35.39    6.31
  -4   5   5  160.11    9.52
  -4   5   5  144.94   13.05
   4  -5  -5  160.32   11.76
   4  -5  -5  183.00   10.46
  -4   5   4   63.47    6.70
  -4   5   4   48.24    8.80
   4  -5  -4   53.53    8.06
   4  -5  -4   61.65    5.76
  -4   5   3   71.77    7.31
  -4   5   3   59.54    9.24
   4  -5  -3   57.07    8.55
   4  -5  -3   65.54    5.01
  -4   5   2  829.18   23.57
  -4   5   2  786.30   25.81
   4  -5  -2  759.82   24.70
  -4   5   1  483.91   18.57
   4  -5  -1  437.15   18.95
  -4   5   0   15.63    4.66
   4  -5   0   21.60    5.41
   4  -5   0   18.65    4.83
  -4   5  -1  159.61   11.56
   4  -5   1  166.28   12.32
   4  -5   1  167.93   10.82
  -4   5  -2  294.89   15.85
   4  -5   2  245.09   15.01
   4  -5   2  273.85   13.46
  -4   5  -3   19.21    5.52
   4  -5   3   16.76    5.14
   4  -5   3   22.30    4.93
  -4   5  -4  280.57   16.33
   4  -5   4  245.76   15.79
   4  -5   4  266.31   13.28
  -4   5  -5  294.68   17.23
   4  -5   5  292.61   17.55
   4  -5   5  295.78   14.23
  -4   5  -6   86.28   10.02
   4  -5   6   67.53   10.47
   4  -5   6   80.70    7.93
  -4   5  -7   16.75    5.71
   4  -5   7   23.52    6.53
   4  -5   7   15.59    4.64
  -4   5  -8  217.59   15.77
   4  -5   8  179.30   14.82
   4  -5   8  182.18   12.15
  -4   5  -9   79.59   12.07
   4  -5   9   63.05   10.79
  -4   5 -10    2.00    3.98
  -4   4  13    1.08    3.88
  -4   4  13    2.04    4.09
  -4   4  12   84.45   14.03
   4  -4 -12  103.01   11.41
   4  -4 -12   92.16   11.16
  -4   4  11  177.36   16.90
   4  -4 -11  204.56   15.19
   4  -4 -11  198.54   15.55
  -4   4  10   70.56   12.56
   4  -4 -10  107.18   11.05
   4  -4 -10  104.28   10.97
  -4   4   9    0.81    3.89
   4  -4  -9    1.19    2.69
   4  -4  -9    5.68    3.73
  -4   4   8  113.48   12.81
   4  -4  -8  114.64   10.55
   4  -4  -8  134.52   11.37
  -4   4   7   83.05   12.60
   4  -4  -7   96.93    9.54
   4  -4  -7  108.93    9.68
  -4   4   6   53.63   10.02
   4  -4  -6   59.41    8.67
   4  -4  -6   53.39    6.62
  -4   4   5  476.52   13.95
  -4   4   5  364.69   20.11
   4  -4  -5  457.00   18.92
   4  -4  -5  449.10   16.24
  -4   4   4  453.71   14.68
  -4   4   4  370.44   19.28
   4  -4  -4  392.11   17.18
   4  -4  -4  403.12   13.85
  -4   4   3   82.11    6.89
  -4   4   3   64.77    9.54
   4  -4  -3   80.37    8.02
   4  -4  -3   80.13    5.63
  -4   4   2  166.45    9.80
  -4   4   2  156.71   11.59
   4  -4  -2  160.83   10.94
   4  -4  -2  182.36    6.52
  -4   4   1  518.16   17.48
   4  -4  -1  472.97   18.50
   4  -4  -1  512.75   19.58
  -4   4   0   19.85    4.63
   4  -4   0   19.03    4.78
   4  -4   0   21.74    5.17
  -4   4  -1  114.05    9.01
   4  -4   1  104.07    9.17
   4  -4   1   98.43    8.21
  -4   4  -2  584.88   20.52
   4  -4   2  568.92   21.23
   4  -4   2  583.64   19.09
  -4   4  -3  375.67    8.45
  -4   4  -3  398.07   17.51
   4  -4   3  328.15   16.59
   4  -4   3  360.82   15.11
  -4   4  -4    3.97    1.67
  -4   4  -4   -0.39    2.21
   4  -4   4   -0.11    2.06
   4  -4   4    2.24    2.33
  -4   4  -5  210.10    8.90
  -4   4  -5  212.99   13.92
   4  -4   5  198.65   13.78
   4  -4   5  212.33   12.13
  -4   4  -6  338.45   17.74
   4  -4   6  314.41   17.51
   4  -4   6  317.23   15.15
  -4   4  -7    9.08    4.56
   4  -4   7    9.63    4.65
   4  -4   7    9.44    3.92
  -4   4  -8  301.75   17.80
   4  -4   8  297.57   17.99
   4  -4   8  287.04   15.45
  -4   4  -9  316.64   18.59
   4  -4   9  281.45   17.87
   4  -4   9  300.23   16.19
  -4   4 -10   36.24    8.08
  -4   3  13   94.68   11.58
  -4   3  13   82.28   13.96
  -4   3  13   91.99   11.47
  -4   3  12    0.82    3.68
  -4   3  12    1.18    4.64
  -4   3  12    1.06    3.58
   4  -3 -12    1.66    3.70
  -4   3  11   94.63   14.21
   4  -3 -11   99.12   10.86
   4  -3 -11  110.25   11.92
  -4   3  10   59.31   11.28
   4  -3 -10   87.00   10.12
   4  -3 -10   89.88   10.54
  -4   3   9   -3.18    3.46
   4  -3  -9    0.78    2.71
   4  -3  -9    4.31    3.63
  -4   3   8  209.20   16.92
   4  -3  -8  235.72   14.81
   4  -3  -8  240.96   15.06
  -4   3   7  398.65   22.18
   4  -3  -7  484.30   20.38
   4  -3  -7  501.06   20.32
  -4   3   6   76.63   11.57
   4  -3  -6   94.46    8.98
   4  -3  -6  105.23    8.99
  -4   3   5  111.71   11.42
   4  -3  -5  113.31    9.36
   4  -3  -5  130.50    9.23
  -4   3   4  456.59   12.74
  -4   3   4  360.72   18.69
   4  -3  -4  407.08   16.87
   4  -3  -4  457.54   15.29
  -4   3   3   53.72    5.10
  -4   3   3   49.92    8.40
   4  -3  -3   41.08    6.55
   4  -3  -3   49.69    4.80
  -4   3   2  148.12    8.22
  -4   3   2  136.22   10.59
   4  -3  -2  146.79    9.84
   4  -3  -2  153.17    6.61
  -4   3   1  760.04   18.98
   4  -3  -1  734.21   21.38
   4  -3  -1  803.68   10.68
   4  -3  -1  756.32   23.12
  -4   3   0  576.49   17.29
   4  -3   0  549.80   18.95
  -4   3  -1   12.38    3.67
   4  -3   1   11.46    3.80
   4  -3   1   11.42    3.55
  -4   3  -2  417.50   16.02
   4  -3   2  374.76   15.92
   4  -3   2  404.96   15.65
  -4   3  -3  402.23    8.49
  -4   3  -3  421.88   16.72
   4  -3   3  353.17   15.89
   4  -3   3  406.23   15.80
  -4   3  -4    3.43    1.62
  -4   3  -4    5.15    3.12
   4  -3   4    4.86    3.06
   4  -3   4    0.17    1.85
  -4   3  -5  376.69   11.70
  -4   3  -5  395.67   17.45
   4  -3   5  335.38   16.55
   4  -3   5  378.01   16.07
  -4   3  -6  450.62   14.25
  -4   3  -6  444.69   19.12
   4  -3   6  423.14   19.10
   4  -3   6  477.12   18.59
  -4   3  -7  107.88    7.90
  -4   3  -7   99.32    9.81
   4  -3   7  102.65   10.09
   4  -3   7   94.19    9.00
  -4   3  -8   58.80    6.44
  -4   3  -8   65.95    9.75
   4  -3   8   52.23    9.01
   4  -3   8   62.52    9.08
  -4   3  -9  213.18   12.38
  -4   3  -9  227.66   15.17
   4  -3   9  221.26   15.23
   4  -3   9  207.38   13.91
  -4   3 -10   70.14   10.59
   4  -3  10   64.07    9.73
   4  -3  11   14.85    5.51
  -4   2  13   95.89   14.48
  -4   2  12    3.83    4.14
  -4   2  12    2.51    4.60
  -4   2  12    1.44    3.81
   4  -2 -12    3.56    4.09
  -4   2  11  157.66   13.67
  -4   2  11  136.55   14.45
  -4   2  11  162.35   13.88
   4  -2 -11  180.50   15.06
  -4   2  10  295.80   20.34
   4  -2 -10  359.08   20.10
  -4   2   9  109.27   12.61
   4  -2  -9  128.66   11.58
   4  -2  -9  131.35   11.89
  -4   2   8   62.59   11.17
   4  -2  -8   77.36    8.78
   4  -2  -8   81.66    9.29
  -4   2   7  177.50   14.93
   4  -2  -7  198.83   13.15
   4  -2  -7  228.14   14.10
  -4   2   6  102.42   11.07
   4  -2  -6  120.51    9.91
   4  -2  -6  122.15    9.77
  -4   2   5   55.57    9.46
   4  -2  -5   65.39    7.10
   4  -2  -5   56.94    6.58
  -4   2   4  526.66   11.62
  -4   2   4  448.99   20.37
   4  -2  -4  458.61   17.38
   4  -2  -4  490.78   16.41
  -4   2   3  438.73   11.48
  -4   2   3  414.09   18.65
   4  -2  -3  410.38   15.82
   4  -2  -3  469.65   14.47
  -4   2   2   33.32    3.70
  -4   2   2   34.93    6.58
   4  -2  -2   33.03    5.43
   4  -2  -2   37.29    4.05
  -4   2   1  320.23   11.10
   4  -2  -1  328.80   13.34
   4  -2  -1  340.73    9.04
   4  -2  -1  329.32   15.02
  -4   2   0  508.56    8.25
  -4   2   0  543.59   15.17
   4  -2   0  584.61   17.50
   4  -2   0  560.89   18.53
  -4   2  -1   32.58    4.95
   4  -2   1   34.22    5.45
   4  -2   1   29.34    5.31
  -4   2  -2  211.94    5.13
  -4   2  -2  205.23   10.40
   4  -2   2  227.59   11.31
   4  -2   2  202.09   10.89
  -4   2  -3  925.02   13.63
  -4   2  -3  892.75   22.40
   4  -2   3  862.36   22.37
   4  -2   3  869.59   22.63
  -4   2  -4  371.24   10.37
  -4   2  -4  355.02   14.91
   4  -2   4  367.28   15.28
   4  -2   4  354.29   14.98
  -4   2  -5   12.34    2.94
  -4   2  -5   13.55    4.15
   4  -2   5   10.89    3.84
   4  -2   5   11.51    3.80
  -4   2  -6  211.12    9.95
  -4   2  -6  248.57   13.59
   4  -2   6  191.32   12.10
   4  -2   6  238.89   13.44
  -4   2  -7  216.50   10.98
  -4   2  -7  232.77   13.61
   4  -2   7  198.43   12.72
   4  -2   7  230.74   13.85
  -4   2  -8   21.35    4.74
  -4   2  -8   19.93    5.47
   4  -2   8   26.17    6.18
   4  -2   8   17.58    5.05
  -4   2  -9  311.73   14.99
  -4   2  -9  334.93   17.43
   4  -2   9  355.04   18.36
  -4   2 -10  327.18   16.17
  -4   2 -10  335.60   17.93
   4  -2  10  308.82   17.73
  -4   2 -11   48.13    8.16
   4  -2  11   43.85    8.72
  -4   2 -12   35.67    7.38
   4  -2  12   43.43    8.92
  -4   1  12  108.33   11.98
  -4   1  12  106.32   12.84
  -4   1  12  106.33   11.88
   4  -1 -12  114.34   12.76
  -4   1  11   -0.02    3.03
  -4   1  11   12.22    6.01
  -4   1  11    1.99    3.43
   4  -1 -11    4.72    4.08
  -4   1  10  179.65   14.26
  -4   1  10  161.93   15.02
  -4   1  10  188.42   14.57
   4  -1 -10  190.71   14.96
  -4   1   9  145.65   13.82
   4  -1  -9  148.98   12.81
  -4   1   8    5.83    4.87
   4  -1  -8    8.53    4.00
   4  -1  -8    4.61    3.39
  -4   1   7  292.35   18.28
   4  -1  -7  327.66   16.87
   4  -1  -7  346.60   17.52
  -4   1   6  393.37   20.50
   4  -1  -6  482.69   19.39
   4  -1  -6  549.26   20.78
  -4   1   5   69.23   10.20
   4  -1  -5   73.18    7.52
   4  -1  -5   83.88    8.07
  -4   1   4  121.71    4.93
  -4   1   4  110.34   10.34
   4  -1  -4  118.58    8.86
   4  -1  -4  132.85    9.17
  -4   1   3  629.27   12.15
  -4   1   3  624.86   22.15
   4  -1  -3  651.21   19.27
   4  -1  -3  741.23   19.20
  -4   1   2   54.67    4.14
  -4   1   2   54.46    7.87
   4  -1  -2   61.20    6.02
   4  -1  -2   60.58    5.26
  -4   1   1  257.76    9.11
   4  -1  -1  265.98   11.28
   4  -1  -1  312.60   10.17
   4  -1  -1  278.19   13.37
  -4   1   0 1128.32   20.04
   4  -1   0 1260.32   23.32
   4  -1   0 1226.68   17.63
   4  -1   0 1224.41   26.42
  -4   1  -1  752.83   12.64
  -4   1  -1  681.50   16.51
   4  -1   1  783.24   18.10
   4  -1   1  737.72   20.03
  -4   1  -2    8.67    1.89
  -4   1  -2    7.05    2.50
   4  -1   2    6.57    2.47
   4  -1   2    6.99    2.82
  -4   1  -3  634.86   12.87
  -4   1  -3  536.02   16.27
   4  -1   3  628.55   16.83
   4  -1   3  577.06   18.28
  -4   1  -4  433.88   11.97
  -4   1  -4  386.98   14.53
   4  -1   4  414.44   14.29
   4  -1   4  407.85   16.00
  -4   1  -5    7.31    2.44
  -4   1  -5    7.71    3.10
   4  -1   5    6.19    2.83
   4  -1   5    6.77    3.09
  -4   1  -6  306.88   12.32
  -4   1  -6  307.06   14.21
   4  -1   6  265.76   12.84
   4  -1   6  339.89   16.14
  -4   1  -7  517.83   17.14
  -4   1  -7  492.81   18.63
   4  -1   7  427.34   16.94
   4  -1   7  517.95   20.83
  -4   1  -8  152.17   10.20
  -4   1  -8  142.75   10.62
   4  -1   8  108.29    9.33
   4  -1   8  156.31   12.09
  -4   1  -9   63.24    7.33
  -4   1  -9   69.14    7.98
   4  -1   9   63.75    9.80
  -4   1 -10  147.94   11.14
  -4   1 -10  156.18   12.07
   4  -1  10  152.62   13.02
  -4   1 -11   23.95    6.04
   4  -1  11   22.63    6.78
  -4   1 -12   30.75    6.97
   4  -1  12   32.27    7.83
   4  -1  13  266.18   18.29
  -4   0  12  161.12   14.63
   4   0 -12  173.13   15.41
  -4   0  11    1.52    3.20
  -4   0  11    1.63    4.57
  -4   0  11    1.24    3.16
   4   0 -11    1.06    3.33
  -4   0  10  163.01   13.81
  -4   0  10  150.46   14.07
  -4   0  10  153.98   13.42
   4   0 -10  164.79   14.12
  -4   0   9  421.58   20.93
  -4   0   9  382.54   21.27
  -4   0   9  405.04   20.49
   4   0  -9  422.72   21.53
  -4   0   8  154.41   12.30
  -4   0   8  148.05   13.17
  -4   0   8  165.26   12.77
   4   0  -8  160.79   12.94
  -4   0   7   99.77   10.95
   4   0  -7  117.24   10.47
   4   0  -7  128.62   11.24
  -4   0   6  215.94   14.93
   4   0  -6  264.77   14.59
   4   0  -6  277.91   15.26
  -4   0   5  103.57   10.21
   4   0  -5  110.08    9.04
   4   0  -5  130.96   10.00
  -4   0   4   64.11    3.62
  -4   0   4   63.58    9.14
   4   0  -4   59.96    6.42
   4   0  -4   77.97    7.49
  -4   0   3  694.24   12.47
  -4   0   3  708.73   22.89
   4   0  -3  737.08   20.27
   4   0  -3  808.32   21.25
  -4   0   2  735.96   21.85
   4   0  -2  761.76   19.26
   4   0  -2  846.31   20.12
  -4   0   1    0.24    1.10
   4   0  -1    0.26    1.37
   4   0  -1    1.03    1.60
   4   0  -1    1.81    2.29
  -4   0   0  463.84   12.48
   4   0   0  487.43   13.48
   4   0   0  514.58   13.64
   4   0   0  483.87   16.10
  -4   0  -1  631.26   14.38
  -4   0  -1  606.94   15.02
   4   0   1  655.29   14.72
   4   0   1  662.75   18.48
  -4   0  -2   95.96    5.79
  -4   0  -2   86.70    6.22
   4   0   2   99.41    5.79
   4   0   2   93.27    7.27
  -4   0  -3  456.03   12.59
  -4   0  -3  378.14   13.13
   4   0   3  434.01   11.68
   4   0   3  413.72   15.32
  -4   0  -4 1145.53   21.17
  -4   0  -4  976.74   21.91
   4   0   4 1052.56   18.96
   4   0   4 1039.20   25.46
  -4   0  -5  440.65   14.20
  -4   0  -5  394.38   14.62
   4   0   5  393.61   12.53
   4   0   5  403.15   16.89
  -4   0  -6   12.29    3.52
  -4   0  -6   16.95    4.23
   4   0   6   13.01    3.34
   4   0   6   17.56    4.78
  -4   0  -7  186.98   10.77
  -4   0  -7  170.81   10.55
   4   0   7  167.65    9.64
   4   0   7  186.26   12.96
  -4   0  -8   86.01    8.03
  -4   0  -8   79.15    7.65
   4   0   8  101.53   10.08
  -4   0  -9   54.91    8.09
  -4   0  -9   58.20    7.08
   4   0   9   64.29   10.10
  -4   0 -10  360.08   17.47
  -4   0 -10  352.79   16.78
   4   0  10  374.73   20.34
  -4   0 -11  330.23   17.47
   4   0  11  328.25   19.63
  -4   0 -12   41.02    8.08
   4   0  12   29.76    7.87
  -4   0 -13   39.69    8.23
   4   0  13   62.33   10.89
  -4   0 -14  154.96   13.63
  -4  -1  11   61.90   10.63
   4   1 -11   75.42   11.88
  -4  -1  10    9.47    4.93
   4   1 -10    9.45    4.83
  -4  -1   9  158.39   13.33
  -4  -1   9  151.53   13.16
  -4  -1   9  166.19   13.65
   4   1  -9  158.01   13.48
  -4  -1   8  175.48   13.31
  -4  -1   8  163.42   13.39
  -4  -1   8  175.01   13.28
   4   1  -8  183.08   13.94
  -4  -1   7   -0.31    2.00
  -4  -1   7    1.31    3.26
  -4  -1   7    0.78    2.37
   4   1  -7    0.49    2.35
  -4  -1   6  387.69   17.83
  -4  -1   6  383.75   18.87
  -4  -1   6  409.57   18.28
   4   1  -6  461.85   20.11
  -4  -1   5  373.18   17.86
   4   1  -5  402.42   17.26
   4   1  -5  433.50   18.47
  -4  -1   4   69.60    7.80
   4   1  -4   83.91    7.73
   4   1  -4  102.34    8.86
   4   1  -4   96.45    5.03
  -4  -1   3  137.21    9.98
   4   1  -3  139.74    9.10
   4   1  -3  162.78   10.25
   4   1  -3  154.54    6.67
  -4  -1   2  759.22   21.38
   4   1  -2  783.23   19.59
   4   1  -2  871.62   21.91
   4   1  -2  770.92   15.33
   4   1  -1   81.28    6.09
   4   1  -1   77.27    6.59
   4   1  -1   74.51    5.21
   4   1  -1   74.32    6.80
   4   1   0  431.90   12.23
   4   1   0  415.81   13.78
   4   1   0  392.37   11.92
   4   1   0  406.20   14.26
  -4  -1  -1 1870.27   28.17
   4   1   1 2020.19   23.69
   4   1   1 1931.69   27.18
   4   1   1 1976.68   30.63
  -4  -1  -2  605.67   16.01
   4   1   2  659.87   12.24
   4   1   2  638.53   16.27
   4   1   2  683.96   18.50
  -4  -1  -3   -0.74    1.25
   4   1   3    4.16    1.41
   4   1   3    6.27    2.73
  -4  -1  -4  409.71   13.97
  -4  -1  -4  350.84   13.01
   4   1   4  397.12    8.78
   4   1   4  387.25   15.65
  -4  -1  -5  181.13    9.92
  -4  -1  -5  164.83    9.43
   4   1   5  195.83    6.90
   4   1   5  175.37   11.31
  -4  -1  -6   74.97    6.99
  -4  -1  -6   76.63    6.74
   4   1   6   62.82    4.75
   4   1   6   80.56    8.37
  -4  -1  -7  349.69   15.17
  -4  -1  -7  345.85   14.39
   4   1   7  387.17   18.60
  -4  -1  -8  501.85   19.03
  -4  -1  -8  446.42   16.93
   4   1   8  470.58   21.43
  -4  -1  -9   85.68    8.71
  -4  -1  -9  104.48    8.78
   4   1   9   96.28   10.61
  -4  -1 -10   88.07    9.19
  -4  -1 -10   80.69    8.07
   4   1  10   88.05   10.43
  -4  -1 -11  154.79   12.41
   4   1  11  158.08   14.09
  -4  -1 -12   16.67    5.74
   4   1  12   25.93    7.53
  -4  -1 -13   34.37    7.86
   4   1  13   27.33    7.89
  -4  -1 -14  158.03   13.97
   4   1  14  158.03   15.46
  -4  -2  11  131.10   13.31
   4   2 -11  130.26   13.31
  -4  -2  10    3.34    3.50
   4   2 -10    1.63    3.26
  -4  -2   9  137.91   12.59
   4   2  -9  133.36   12.75
  -4  -2   8  275.61   16.96
  -4  -2   8  308.66   17.91
   4   2  -8  319.78   18.53
  -4  -2   7  112.24   10.63
  -4  -2   7  131.10   11.17
  -4  -2   7  119.59   10.98
   4   2  -7  111.75   10.79
  -4  -2   6   67.00    7.93
  -4  -2   6   69.77    8.20
  -4  -2   6   69.24    8.04
   4   2  -6   70.31    8.39
  -4  -2   5  200.13   12.59
  -4  -2   5  177.08   11.95
  -4  -2   5  196.90   12.47
   4   2  -5  223.08   13.78
  -4  -2   4   56.96    6.61
  -4  -2   4   56.99    8.03
  -4  -2   4   50.02    6.21
   4   2  -4   58.82    7.13
   4   2  -4   59.35    4.97
  -4  -2   3  145.63    9.51
  -4  -2   3  120.11    9.02
  -4  -2   3  141.65    9.38
   4   2  -3  157.97   10.70
   4   2  -3  152.86    7.80
  -4  -2   2  780.81   20.72
   4   2  -2  835.59   20.79
   4   2  -2  898.23   23.75
   4   2  -2  917.88   19.13
   4   2  -1  733.75   17.88
   4   2  -1  744.31   20.75
   4   2  -1  783.03   18.00
   4   2  -1  797.58   19.87
   4   2   0    0.78    1.43
   4   2   0    1.02    1.77
   4   2   0    1.55    1.77
   4   2   0   -0.16    1.57
  -4  -2  -1  167.25    9.60
   4   2   1  158.17    6.79
   4   2   1  157.78    8.49
   4   2   1  166.04    8.82
  -4  -2  -2  174.89    9.72
   4   2   2  174.09    6.04
   4   2   2  178.97    9.19
   4   2   2  178.25    9.48
  -4  -2  -3    6.81    2.92
   4   2   3    6.35    1.34
   4   2   3    5.65    2.45
   4   2   3    4.88    2.52
  -4  -2  -4  368.69   14.45
   4   2   4  343.99    4.71
   4   2   4  325.71   12.84
   4   2   4  369.53   15.29
  -4  -2  -5  692.49   20.35
   4   2   5  686.29   22.19
  -4  -2  -6  280.57   13.58
  -4  -2  -6  270.12   12.30
   4   2   6  276.96   15.15
  -4  -2  -7   27.51    5.71
  -4  -2  -7   21.22    4.65
   4   2   7   29.75    6.71
  -4  -2  -8  154.44   11.13
  -4  -2  -8  140.20    9.53
   4   2   8  146.40   12.42
  -4  -2  -9   83.82    8.74
  -4  -2  -9   80.37    7.61
   4   2   9   72.13   10.95
  -4  -2 -10   31.83    6.82
  -4  -2 -10   33.45    6.26
   4   2  10   31.27    7.77
  -4  -2 -11  234.88   15.40
   4   2  11  241.84   17.68
  -4  -2 -12  176.01   13.93
   4   2  12  171.41   15.49
  -4  -2 -13    3.95    3.69
   4   2  13    1.20    3.76
  -4  -2 -14   65.15   10.76
   4   2  14   69.75   12.40
  -4  -3  10   47.88    9.61
   4   3 -10   37.29    8.54
  -4  -3   9    6.86    4.37
   4   3  -9    4.53    3.62
  -4  -3   8   68.92   10.54
   4   3  -8   80.91    9.93
  -4  -3   7   91.26    9.84
   4   3  -7   90.22    9.94
  -4  -3   6   21.09    5.65
   4   3  -6   21.46    5.84
  -4  -3   5  337.43   16.71
  -4  -3   5  356.13   15.58
  -4  -3   5  355.82   17.14
   4   3  -5  368.32   18.10
  -4  -3   4  280.48   14.51
  -4  -3   4  265.69   12.91
  -4  -3   4  251.26   13.75
   4   3  -4  296.82   15.65
   4   3  -4  315.66   12.62
  -4  -3   3  111.96    8.79
  -4  -3   3   94.09    7.59
  -4  -3   3  113.08    8.84
   4   3  -3  117.51    9.71
   4   3  -3  145.81    8.92
  -4  -3   2   50.76    5.63
  -4  -3   2   49.07    5.36
  -4  -3   2   45.35    5.36
   4   3  -2   54.29    6.60
   4   3  -2   60.87    6.01
  -4  -3   1  208.40   10.07
  -4  -3   1  217.00   10.28
   4   3  -1  228.02   12.39
   4   3  -1  260.68   11.93
   4   3  -1  230.72   10.28
  -4  -3   0    3.84    1.98
  -4  -3   0    2.50    1.70
   4   3   0    5.75    2.85
   4   3   0    3.33    2.23
   4   3   0    6.90    2.58
  -4  -3  -1  215.68    8.35
  -4  -3  -1  212.61    8.29
   4   3   1  252.66   11.87
   4   3   1  232.22    9.90
  -4  -3  -2 1057.30   15.67
  -4  -3  -2 1019.17   24.87
  -4  -3  -2 1067.83   15.79
   4   3   2 1126.46   24.66
   4   3   2 1073.36   22.02
  -4  -3  -3  268.76    6.35
  -4  -3  -3  266.45   13.04
   4   3   3  287.84   12.61
   4   3   3  277.59   12.22
  -4  -3  -4    4.31    2.66
   4   3   4    4.81    2.42
   4   3   4    6.60    3.16
  -4  -3  -5  133.61    9.85
   4   3   5  140.28    9.04
   4   3   5  145.11   10.60
  -4  -3  -6  115.11    9.48
   4   3   6  117.12    8.47
   4   3   6  121.42   10.44
  -4  -3  -7   12.31    4.27
   4   3   7    8.88    4.00
  -4  -3  -8  218.32   13.60
  -4  -3  -8  208.81   11.49
   4   3   8  225.27   15.39
  -4  -3  -9  192.74   13.37
  -4  -3  -9  181.75   10.97
   4   3   9  196.46   15.07
  -4  -3 -10   18.40    5.50
  -4  -3 -10   22.36    5.10
   4   3  10   20.91    6.72
  -4  -3 -11   38.13    7.91
   4   3  11   45.85    9.68
  -4  -3 -12   85.86   10.14
   4   3  12   85.61   13.30
  -4  -3 -13    5.00    4.31
   4   3  13    7.65    5.35
  -4  -3 -14    8.06    4.90
   4   3  14   12.12    6.42
  -4  -4  10   62.27   10.97
   4   4 -10   43.77    9.20
  -4  -4   9    7.34    4.40
   4   4  -9    9.04    4.73
  -4  -4   8  140.12   12.85
   4   4  -8  153.06   13.49
  -4  -4   7  226.88   15.57
   4   4  -7  233.25   15.92
  -4  -4   6   90.93    9.72
   4   4  -6  101.85   10.49
  -4  -4   5   13.55    4.64
   4   4  -5   18.91    5.35
  -4  -4   4   75.69    8.11
   4   4  -4   82.99    8.83
   4   4  -4   90.91    8.06
  -4  -4   3   14.72    4.17
  -4  -4   3   11.11    3.27
   4   4  -3   13.11    4.41
   4   4  -3   11.46    3.91
  -4  -4   2  164.26   10.38
  -4  -4   2  140.31    7.93
   4   4  -2  170.54   11.66
   4   4  -2  170.06   10.86
  -4  -4   1  381.47   14.45
  -4  -4   1  392.26   12.25
   4   4  -1  404.13   17.30
   4   4  -1  427.23   16.91
  -4  -4   0  199.91    9.77
   4   4   0  199.63   12.13
   4   4   0  250.38   13.07
   4   4   0  220.62    9.06
  -4  -4  -1    5.03    2.03
   4   4   1    2.06    2.46
   4   4   1    2.02    1.84
  -4  -4  -2   59.99    4.50
  -4  -4  -2   56.34    8.06
   4   4   2   60.51    6.76
   4   4   2   59.36    5.36
  -4  -4  -3   91.80    4.66
  -4  -4  -3   95.03    8.59
   4   4   3  102.55    8.43
   4   4   3  100.09    7.49
  -4  -4  -4   -0.17    1.78
   4   4   4   -0.71    1.53
   4   4   4    0.12    1.77
  -4  -4  -5   76.01    7.96
   4   4   5   73.02    7.07
   4   4   5   75.45    7.75
  -4  -4  -6  221.12   13.37
   4   4   6  218.98   11.96
   4   4   6  223.76   13.86
  -4  -4  -7  112.44   10.09
   4   4   7  133.68    9.46
   4   4   7  136.54   11.78
  -4  -4  -8    7.08    3.73
   4   4   8   11.83    3.86
   4   4   8    7.08    4.16
  -4  -4  -9   40.92    7.90
  -4  -4  -9   40.40    6.49
   4   4   9   42.83    8.92
  -4  -4 -10   53.07    8.98
  -4  -4 -10   49.79    7.35
   4   4  10   68.00   11.49
  -4  -4 -11    7.25    4.33
   4   4  11   17.39    6.48
  -4  -4 -12   85.38   12.05
   4   4  12   87.54   13.57
  -4  -4 -13   62.33   10.60
   4   4  13   64.54   11.86
  -4  -4 -14    4.85    4.29
   4   4  14    6.17    5.49
  -4  -5   9   51.54    9.73
   4   5  -9   45.95    9.29
  -4  -5   8    1.06    3.02
   4   5  -8    4.71    3.72
  -4  -5   7   31.58    7.38
   4   5  -7   33.02    7.63
  -4  -5   6   26.29    6.73
   4   5  -6   29.96    6.95
  -4  -5   5   27.43    6.52
   4   5  -5   19.90    5.73
  -4  -5   4  163.18   12.06
   4   5  -4  180.48   13.25
   4   5  -4  206.47   12.99
  -4  -5   3  141.82   10.83
   4   5  -3  146.50   11.66
   4   5  -3  158.39   11.57
  -4  -5   2   22.60    5.03
   4   5  -2   17.06    4.97
   4   5  -2   18.63    5.24
  -4  -5   1   36.27    5.97
  -4  -5   1   43.22    4.07
   4   5  -1   50.12    8.10
   4   5  -1   45.69    7.68
  -4  -5   0   63.02    6.23
   4   5   0   61.98    7.35
   4   5   0   70.13    8.07
   4   5   0   70.99    5.01
  -4  -5  -1    0.59    1.56
   4   5   1    1.49    2.37
   4   5   1    0.02    1.32
  -4  -5  -2   73.43    5.60
  -4  -5  -2   66.19    7.53
   4   5   2   80.68    8.24
   4   5   2   65.47    5.47
  -4  -5  -3  360.06   10.65
  -4  -5  -3  352.10   16.66
   4   5   3  374.46   16.92
   4   5   3  365.67   13.57
  -4  -5  -4   97.06    4.69
  -4  -5  -4   97.17    9.19
   4   5   4  111.70    9.31
   4   5   4  105.89    8.36
  -4  -5  -5    0.06    2.03
   4   5   5    0.54    2.05
   4   5   5   -0.36    2.32
  -4  -5  -6   64.60    9.42
   4   5   6   68.63    7.32
   4   5   6   65.97    7.96
  -4  -5  -7   47.18    8.38
   4   5   7   56.47    6.79
   4   5   7   57.99    9.27
  -4  -5  -8    3.11    3.02
   4   5   8    2.98    2.73
   4   5   8    1.62    3.44
  -4  -5  -9   95.11   10.21
   4   5   9   99.20    8.61
   4   5   9   92.24   10.80
  -4  -5 -10   42.73    8.51
  -4  -5 -10   44.54    7.11
   4   5  10   47.62    9.66
  -4  -5 -11    1.46    2.88
   4   5  11    1.17    3.35
  -4  -5 -12   -1.97    2.75
   4   5  12   -0.39    3.11
  -4  -5 -13    6.27    4.72
   4   5  13    3.50    4.75
  -4  -5 -14    0.60    3.54
   4   5  14    0.08    3.84
  -4  -6   9   18.58    6.62
   4   6  -9   18.91    6.40
  -4  -6   8    1.50    3.20
   4   6  -8    4.66    4.09
  -4  -6   7   86.71   10.48
   4   6  -7   95.84   11.05
  -4  -6   6   90.82   10.41
   4   6  -6   88.52   10.28
  -4  -6   5   16.90    5.49
   4   6  -5   19.76    5.77
  -4  -6   4   19.47    5.47
   4   6  -4   16.53    5.18
   4   6  -4   15.71    5.30
  -4  -6   3   19.39    5.48
   4   6  -3   13.92    5.01
   4   6  -3   16.52    5.45
  -4  -6   2    0.98    2.35
   4   6  -2   -1.04    2.00
   4   6  -2    0.32    2.71
  -4  -6   1  120.08    9.40
   4   6  -1  112.37   10.17
   4   6  -1  120.37   11.02
  -4  -6   0  121.05    8.92
   4   6   0  126.06   10.63
   4   6   0  118.21   10.76
  -4  -6  -1   23.57    4.66
  -4  -6  -1   19.42    5.47
   4   6   1   22.63    5.95
   4   6   1   22.71    3.43
  -4  -6  -2    9.36    3.02
  -4  -6  -2    7.62    3.88
   4   6   2    7.60    4.12
   4   6   2    5.89    2.32
  -4  -6  -3   50.74    5.02
  -4  -6  -3   52.62    8.50
   4   6   3   51.40    8.38
   4   6   3   47.43    5.29
  -4  -6  -4   55.29    4.59
  -4  -6  -4   52.80    8.37
   4   6   4   49.79    8.14
   4   6   4   45.95    5.72
  -4  -6  -5   16.30    5.08
   4   6   5    8.85    3.88
   4   6   5   13.86    4.52
  -4  -6  -6   17.92    5.45
   4   6   6   21.03    5.41
   4   6   6   21.63    5.58
  -4  -6  -7   28.37    6.61
   4   6   7   34.24    6.55
   4   6   7   35.01    7.60
  -4  -6  -8   30.50    7.35
   4   6   8   22.50    5.36
   4   6   8   21.31    6.29
  -4  -6  -9    0.52    2.52
   4   6   9   -0.53    2.36
   4   6   9    3.01    3.90
  -4  -6 -10    1.29    3.11
   4   6  10    2.79    2.90
   4   6  10    2.01    3.56
  -4  -6 -11   -1.54    2.60
   4   6  11    1.68    3.47
  -4  -6 -12   22.39    7.00
   4   6  12   10.54    5.45
  -4  -6 -13   24.28    7.14
   4   6  13   23.22    7.66
  -4  -6 -14   30.83    7.96
   4   6  14   24.30    8.20
  -4  -7   8   12.81    5.77
   4   7  -8   10.13    5.04
  -4  -7   7   -1.39    2.98
   4   7  -7   -0.57    2.50
  -4  -7   6    4.35    3.79
   4   7  -6    7.97    4.31
  -4  -7   5   -0.09    2.49
   4   7  -5    0.40    2.93
  -4  -7   4    5.97    3.86
   4   7  -4    8.17    4.22
   4   7  -4    4.63    3.81
  -4  -7   3   27.90    6.44
   4   7  -3   21.89    5.99
   4   7  -3   24.32    6.76
  -4  -7   2   27.34    6.10
   4   7  -2   35.23    7.19
   4   7  -2   25.54    6.89
  -4  -7   1    1.80    2.56
   4   7  -1   -0.28    1.98
   4   7  -1   -0.10    2.82
  -4  -7   0   15.98    4.58
   4   7   0   19.00    5.50
   4   7   0    9.92    4.76
  -4  -7  -1   12.34    3.81
  -4  -7  -1   10.46    4.20
   4   7   1    8.20    4.33
  -4  -7  -2    0.56    2.11
  -4  -7  -2    2.40    2.88
   4   7   2    2.48    3.09
  -4  -7  -3   15.25    3.79
  -4  -7  -3   10.28    4.19
   4   7   3   14.48    5.14
   4   7   3   15.86    3.72
  -4  -7  -4   66.69    5.72
  -4  -7  -4   67.69   10.08
   4   7   4   71.74   10.53
   4   7   4   68.72    6.75
  -4  -7  -5   13.28    5.00
   4   7   5    4.68    3.55
   4   7   5    9.40    3.89
  -4  -7  -6    1.61    2.76
   4   7   6   -1.13    2.39
   4   7   6    0.74    2.81
  -4  -7  -7    0.93    2.80
   4   7   7    1.49    2.68
   4   7   7   -0.29    2.61
  -4  -7  -8    9.35    4.74
   4   7   8   12.74    4.59
   4   7   8    4.96    3.81
  -4  -7  -9   37.22    8.22
   4   7   9   31.55    6.52
   4   7   9   34.78    8.14
  -4  -7 -10   28.67    7.21
   4   7  10   32.25    6.66
   4   7  10   30.13    8.03
  -4  -7 -11    6.29    4.42
   4   7  11    6.95    4.87
  -4  -7 -12    2.02    3.48
   4   7  12    3.16    4.21
  -4  -7 -13    5.58    4.82
   4   7  13    2.20    4.43
  -4  -8   7    0.26    3.45
   4   8  -7    1.69    3.49
  -4  -8   6   10.86    5.39
   4   8  -6   10.89    5.00
  -4  -8   5    7.32    4.25
   4   8  -5    0.90    3.18
  -4  -8   4    3.31    3.71
   4   8  -4    3.23    3.45
   4   8  -4    3.17    3.81
  -4  -8   3    2.49    3.09
   4   8  -3   -0.65    2.38
   4   8  -3    3.77    3.87
  -4  -8   2    6.57    3.63
   4   8  -2    6.74    3.85
   4   8  -2    5.84    4.46
  -4  -8   1    2.27    2.76
   4   8  -1   -1.75    2.06
   4   8  -1   -2.19    2.73
  -4  -8   0   15.91    4.97
   4   8   0   16.79    5.33
   4   8   0   15.60    6.30
  -4  -8  -1    4.18    3.03
  -4  -8  -1    9.36    4.28
   4   8   1    4.52    3.91
  -4  -8  -2    0.40    2.28
  -4  -8  -2   -0.88    1.96
   4   8   2    0.49    2.78
  -4  -8  -3   29.03    5.58
  -4  -8  -3   23.54    6.12
   4   8   3   32.46    7.66
  -4  -8  -4   17.01    4.04
  -4  -8  -4   17.94    5.70
   4   8   4   16.86    5.58
  -4  -8  -5   22.69    6.14
   4   8   5   22.32    6.45
   4   8   5   17.66    4.74
  -4  -8  -6   45.03    8.80
   4   8   6   34.93    7.56
   4   8   6   36.83    7.20
  -4  -8  -7   11.08    4.80
   4   8   7    5.39    3.72
   4   8   7    9.91    4.57
  -4  -8  -8   -0.85    2.41
   4   8   8   -1.58    2.51
   4   8   8    0.95    3.24
  -4  -8  -9   13.40    5.47
   4   8   9   14.02    5.08
   4   8   9    5.89    4.39
  -4  -8 -10   13.32    5.60
   4   8  10   23.66    5.96
   4   8  10   16.02    6.30
  -4  -8 -11   40.59    8.78
   4   8  11   27.74    7.98
  -4  -8 -12    9.39    5.11
   4   8  12   15.46    6.48
  -4  -8 -13    7.41    4.86
   4   8  13    0.52    4.11
  -4  -9   6    4.91    4.54
   4   9  -6    2.09    3.67
  -4  -9   5    3.88    4.02
   4   9  -5    5.09    3.87
  -4  -9   4    9.32    4.72
   4   9  -4    6.03    4.28
   4   9  -4    6.26    4.69
  -4  -9   3   -1.76    2.47
   4   9  -3   -0.54    2.73
   4   9  -3    0.47    3.09
  -4  -9   2    8.94    4.38
   4   9  -2    2.72    3.30
   4   9  -2    7.69    4.98
  -4  -9   1    2.56    3.10
   4   9  -1   11.42    4.65
   4   9  -1    7.36    4.52
  -4  -9   0   27.13    6.39
  -4  -9   0   24.57    6.50
   4   9   0   21.65    7.20
  -4  -9  -1   27.93    6.11
  -4  -9  -1   26.98    6.94
   4   9   1   26.26    7.52
  -4  -9  -2   35.43    6.64
  -4  -9  -2   21.37    6.30
   4   9   2   27.31    7.55
  -4  -9  -3   16.33    4.66
  -4  -9  -3   20.83    6.06
   4   9   3   24.92    6.96
  -4  -9  -4   -0.31    2.55
   4   9   4   -1.20    2.70
  -4  -9  -5    9.53    4.53
   4   9   5   11.64    5.16
  -4  -9  -6    5.70    3.68
   4   9   6    4.51    3.63
   4   9   6    0.66    2.67
  -4  -9  -7   33.13    8.05
   4   9   7   23.89    6.62
   4   9   7   36.34    7.50
  -4  -9  -8   49.49    9.27
   4   9   8   62.29   10.00
   4   9   8   60.75   10.04
  -4  -9  -9   35.62    8.22
   4   9   9   27.67    6.66
   4   9   9   37.84    8.47
  -4  -9 -10    7.12    4.63
   4   9  10    4.72    3.71
   4   9  10    5.20    4.50
  -4  -9 -11    2.77    3.89
   4   9  11    5.97    4.76
  -4  -9 -12   -0.10    3.38
   4   9  12    0.66    3.70
  -4  -9 -13   -0.96    3.29
   4   9  13    5.80    5.27
  -4 -10   5   -0.11    3.49
   4  10  -5   -0.75    3.24
  -4 -10   4    0.96    3.26
   4  10  -4    0.32    3.39
   4  10  -4    2.47    4.03
  -4 -10   3    5.93    4.29
   4  10  -3    8.39    4.50
   4  10  -3    6.53    5.00
  -4 -10   2   29.55    7.41
   4  10  -2   21.19    6.49
   4  10  -2   27.15    8.02
  -4 -10   1   62.44    9.94
   4  10  -1   68.24   12.02
  -4 -10   0   16.24    5.53
  -4 -10   0   18.62    5.90
   4  10   0   10.78    5.56
  -4 -10  -1    5.49    3.74
  -4 -10  -1    0.00    3.04
   4  10   1    9.47    5.68
  -4 -10  -2    3.31    2.91
  -4 -10  -2    2.26    3.30
   4  10   2   -0.55    3.08
  -4 -10  -3    1.11    2.81
  -4 -10  -3    0.23    2.60
   4  10   3   -1.85    2.87
  -4 -10  -4   28.83    7.14
   4  10   4   28.16    7.91
  -4 -10  -5   96.83   10.88
   4  10   5   98.11   11.71
  -4 -10  -6   82.27   10.14
   4  10   6   85.96   12.65
  -4 -10  -7    3.23    3.48
   4  10   7    5.25    4.02
  -4 -10  -8    5.70    4.09
   4  10   8    8.11    4.98
   4  10   8    8.09    4.71
  -4 -10  -9   12.52    5.49
   4  10   9   17.53    6.07
   4  10   9   13.97    5.82
  -4 -10 -10    5.16    4.27
   4  10  10    5.87    4.37
   4  10  10    6.58    4.89
  -4 -10 -11   27.88    7.65
   4  10  11   25.68    8.12
  -4 -10 -12   44.26    9.73
   4  10  12   51.20   10.76
   4  10  13    2.17    4.76
  -4 -11   4   72.07   11.85
   4  11  -4   56.61   10.19
   4  11  -4   55.60   11.06
  -4 -11   3   33.46    8.16
   4  11  -3   36.08    8.24
   4  11  -3   27.99    8.20
  -4 -11   2    0.36    3.18
   4  11  -2    1.24    4.21
  -4 -11   1   17.22    5.98
  -4 -11   1    7.16    4.15
   4  11  -1   22.87    7.64
  -4 -11   0    7.73    4.33
  -4 -11   0    3.69    3.75
   4  11   0    6.33    5.24
  -4 -11  -1   23.97    6.29
  -4 -11  -1   18.81    6.10
   4  11   1   27.42    7.99
  -4 -11  -2   97.54    9.97
  -4 -11  -2  106.23   11.23
   4  11   2   92.95   13.91
  -4 -11  -3   87.45   10.55
   4  11   3   91.87   13.58
  -4 -11  -4   28.71    7.44
   4  11   4   25.37    7.66
  -4 -11  -5   18.10    6.17
   4  11   5   11.92    5.55
  -4 -11  -6   11.50    5.10
   4  11   6   10.90    5.65
  -4 -11  -7    0.58    3.08
   4  11   7    3.87    4.25
  -4 -11  -8   36.48    8.57
   4  11   8   30.18    7.58
  -4 -11  -9   85.13   12.70
   4  11   9   65.78   10.84
  -4 -11 -10   34.17    8.42
   4  11  10   34.89    8.16
  -4 -11 -11   -1.01    3.22
   4  11  11    0.78    4.11
   4  11  12   48.76   10.28
   4  12  -3    9.77    5.70
  -4 -12   2    2.37    3.95
  -4 -12   2    4.33    3.76
   4  12  -2    3.18    4.91
  -4 -12   1   48.49    9.41
  -4 -12   1   42.97    8.90
   4  12  -1   46.30   10.38
  -4 -12   0  115.67   11.79
  -4 -12   0   99.15   11.40
   4  12   0  109.16   13.52
  -4 -12  -1   23.46    6.65
  -4 -12  -1   30.39    7.89
   4  12   1   34.06    9.33
  -4 -12  -2    3.20    4.09
   4  12   2    0.17    3.42
  -4 -12  -3   47.06    9.36
   4  12   3   34.10    8.98
  -4 -12  -4   21.00    6.59
   4  12   4   17.38    6.96
  -4 -12  -5   10.79    5.65
   4  12   5   12.83    6.14
  -4 -12  -6  131.64   13.11
   4  12   6  125.23   13.73
  -4 -12  -7  108.13   12.14
   4  12   7   93.33   13.66
  -4 -12  -8    0.25    3.36
   4  12   8    0.32    3.51
  -4 -12  -9   60.94   11.07
   4  12   9   57.93   10.72
  -4 -12 -10   57.73   10.83
   4  12  10   49.26    9.53
  -4 -13   1   -1.45    3.63
  -4 -13   0   37.25    8.40
  -4 -13   0   49.53    9.67
   4  13   0   47.71   10.70
  -4 -13  -1   25.40    7.05
  -4 -13  -1   36.30    8.44
   4  13   1   40.69   10.09
  -4 -13  -2   18.68    6.54
   4  13   2   10.26    5.91
  -4 -13  -3  106.35   11.71
   4  13   3  123.52   14.16
  -4 -13  -4   90.90   12.92
   4  13   4   88.05   14.26
  -4 -13  -5    1.67    3.69
   4  13   5    4.44    4.59
  -4 -13  -6   77.93   11.95
   4  13   6   75.07   12.67
  -4 -13  -7   77.26   12.20
   4  13   7   63.40   11.59
  -4 -13  -8    7.84    4.92
   4  13   8    9.81    5.66
  -4 -13  -9   34.37    8.45
   4  13   9   35.52    9.05
   4  13  10   92.74   13.31
  -4 -14  -3   34.86    8.35
  -4 -14  -4   88.53   12.79
  -4 -14  -5   31.09    8.21
  -4 -14  -6   25.26    7.57
  -4 -14  -7  120.97   13.12
  -5  12   7    0.80    3.99
  -5  12   6   94.47   13.56
   5 -12  -6   99.93   12.04
   5 -12  -5  101.16   12.15
  -5  12   4    1.87    4.36
   5 -12  -4   -1.20    3.19
  -5  12   3   75.67   12.13
   5 -12  -3   77.17   12.46
  -5  12   2   88.58   13.31
   5 -12  -2  111.55   12.94
  -5  12   1    6.93    5.18
   5 -12  -1    8.93    5.32
  -5  12   0   37.99    9.29
  -5  11   8  126.80   14.40
   5 -11  -8  132.79   13.31
  -5  11   7   22.16    7.71
   5 -11  -7   25.15    7.50
  -5  11   6   51.27   10.19
   5 -11  -6   60.81   10.78
  -5  11   5  119.86   12.88
   5 -11  -5  153.66   14.40
  -5  11   4   28.85    7.64
  -5  11   4   25.50    7.03
   5 -11  -4   26.79    7.50
  -5  11   3   34.51    8.58
   5 -11  -3   30.39    8.13
  -5  11   2  159.70   14.72
   5 -11  -2  192.10   16.27
  -5  11   1   83.22   12.64
   5 -11  -1   87.60   13.36
  -5  11   0   -0.55    3.71
   5 -11   0    7.68    4.78
  -5  11  -1   77.24   12.59
   5 -11   1  126.09   13.72
  -5  11  -2  118.65   13.48
   5 -11   2  133.79   14.31
   5 -11   3    6.47    4.92
  -5  10   9   17.59    7.62
   5 -10  -9   37.53    8.60
  -5  10   8  126.16   14.25
   5 -10  -8  158.38   14.30
  -5  10   7   48.09   10.16
   5 -10  -7   62.09   10.59
  -5  10   6    8.94    5.52
   5 -10  -6   13.23    5.56
  -5  10   5  126.72   13.15
   5 -10  -5  170.66   14.84
  -5  10   4  107.95   11.68
  -5  10   4   90.54   11.00
   5 -10  -4   99.74   11.71
  -5  10   3    2.64    3.73
  -5  10   3   -1.05    3.16
   5 -10  -3   -1.32    3.30
  -5  10   2  116.14   12.38
  -5  10   2  136.86   12.40
   5 -10  -2  113.97   12.50
  -5  10   1  157.60   14.47
   5 -10  -1  165.41   14.88
  -5  10   0   14.77    6.03
   5 -10   0   11.62    5.52
  -5  10  -1   57.12   10.62
   5 -10   1   65.02   11.34
  -5  10  -2  145.16   14.39
   5 -10   2  185.01   16.13
  -5  10  -3   43.77    9.80
   5 -10   3   61.01   11.23
  -5  10  -4   31.27    8.41
   5 -10   4   26.50    7.98
   5 -10   5  166.13   15.92
  -5   9  10   56.99   11.35
   5  -9 -10   64.62   10.84
  -5   9   9   -0.03    4.37
   5  -9  -9    2.08    3.64
  -5   9   8  104.53   12.91
   5  -9  -8  124.62   12.69
  -5   9   7  104.10   12.74
   5  -9  -7  133.45   13.02
  -5   9   6    0.91    4.07
   5  -9  -6   12.71    5.47
  -5   9   5   40.40    8.91
   5  -9  -5   62.17   10.36
  -5   9   4  155.29   12.95
  -5   9   4  142.48   13.28
   5  -9  -4  161.15   14.20
  -5   9   3   24.09    6.83
  -5   9   3   21.82    6.45
   5  -9  -3   24.92    6.99
  -5   9   2   42.84    8.79
  -5   9   2   32.08    7.50
   5  -9  -2   35.82    8.13
  -5   9   1  167.17   14.33
  -5   9   1  196.40   14.16
   5  -9  -1  187.99   15.36
  -5   9   0   84.82   12.36
  -5   9   0   73.53    8.94
   5  -9   0   80.96   11.99
  -5   9  -1   27.75    7.71
  -5   9  -1   27.81    6.53
   5  -9   1   23.55    7.07
  -5   9  -2  188.15   15.83
   5  -9   2  173.65   15.25
  -5   9  -3  149.38   14.30
   5  -9   3  171.01   15.47
  -5   9  -4    7.93    5.13
   5  -9   4    9.28    5.43
  -5   9  -5   61.22   11.25
   5  -9   5   70.64   11.85
  -5   9  -6  104.30   12.82
   5  -9   6  112.71   13.14
   5  -8 -11   69.69   11.05
  -5   8  10  131.29   14.83
   5  -8 -10  147.69   13.69
  -5   8   9   25.20    8.21
   5  -8  -9   26.50    7.09
  -5   8   8   25.03    8.11
   5  -8  -8   41.98    8.56
  -5   8   7  139.76   14.31
   5  -8  -7  144.69   13.02
  -5   8   6   50.09   10.15
   5  -8  -6   56.07    9.87
  -5   8   5   13.92    6.04
   5  -8  -5    8.85    4.58
  -5   8   4  124.35   11.21
  -5   8   4  128.83   12.73
   5  -8  -4  145.17   13.10
  -5   8   3   68.51   10.29
  -5   8   3   43.42    8.71
   5  -8  -3   53.24    9.57
  -5   8   2    3.19    3.77
  -5   8   2    2.18    3.37
   5  -8  -2    4.44    3.67
  -5   8   1  169.42   13.76
  -5   8   1  175.96   13.35
   5  -8  -1  171.49   14.22
  -5   8   0  226.29   16.05
  -5   8   0  199.70   13.75
   5  -8   0  223.84   16.37
  -5   8  -1    9.80    5.02
   5  -8   1   15.79    5.74
  -5   8  -2   55.54   10.02
   5  -8   2   57.71   10.17
   5  -8   2   44.94    7.72
  -5   8  -3  134.81   13.14
   5  -8   3  154.88   14.34
   5  -8   3  151.72   11.41
  -5   8  -4   38.43    8.64
   5  -8   4   55.50   10.40
  -5   8  -5   22.99    7.14
   5  -8   5   13.28    5.75
  -5   8  -6  104.30   12.42
   5  -8   6   87.61   13.17
  -5   8  -7   28.51    8.26
   5  -8   7   40.67    9.42
   5  -8   8    2.85    4.64
  -5   7  11   17.21    7.49
   5  -7 -11   17.91    6.25
  -5   7  10  100.92   15.17
   5  -7 -10  115.90   11.98
  -5   7   9   63.25   11.79
   5  -7  -9   73.56   11.01
  -5   7   8    4.64    4.59
   5  -7  -8    0.57    2.80
  -5   7   7   62.99   11.54
   5  -7  -7   82.62    9.82
  -5   7   6   58.01   10.57
   5  -7  -6   84.91   10.01
  -5   7   5   -0.47    3.06
   5  -7  -5   -1.07    2.38
  -5   7   4   97.05    9.43
  -5   7   4   97.65   11.04
   5  -7  -4   91.12   10.12
  -5   7   3  187.48   13.12
  -5   7   3  182.61   14.24
   5  -7  -3  182.31   13.95
  -5   7   2   43.73    8.04
  -5   7   2   45.90    8.59
   5  -7  -2   36.54    7.75
  -5   7   1   32.13    7.05
  -5   7   1   39.16    7.64
   5  -7  -1   29.27    7.04
  -5   7   0  174.77   13.58
   5  -7   0  171.99   13.88
  -5   7  -1   78.19   11.24
   5  -7   1   74.80   11.23
   5  -7   1   73.91    8.42
  -5   7  -2   23.40    6.67
   5  -7   2    9.55    4.72
   5  -7   2   23.41    5.66
  -5   7  -3  152.11   13.48
   5  -7   3  151.85   13.57
   5  -7   3  155.10   11.36
  -5   7  -4   67.57   10.66
   5  -7   4   74.66   11.44
   5  -7   4   84.86    8.59
  -5   7  -5    0.39    3.18
   5  -7   5   -0.19    3.12
   5  -7   5   -0.29    2.27
  -5   7  -6   58.56   10.72
   5  -7   6   52.03    9.93
  -5   7  -7   74.46   11.75
   5  -7   7   75.19   12.03
  -5   7  -8    7.99    5.16
   5  -7   8    8.82    5.09
  -5   7  -9   10.50    6.07
   5  -6 -12   65.09   10.92
  -5   6  11   -1.25    4.08
   5  -6 -11    1.16    3.53
  -5   6  10   58.47   11.95
   5  -6 -10   57.64    9.84
  -5   6   9   86.42   13.79
   5  -6  -9  102.16   11.07
  -5   6   8    1.53    3.99
   5  -6  -8    7.95    4.22
  -5   6   7   55.45   11.08
   5  -6  -7   61.73    9.75
  -5   6   6  138.67   13.75
   5  -6  -6  168.48   13.25
  -5   6   5   78.90   12.10
   5  -6  -5   75.58    8.99
  -5   6   4    9.96    4.14
  -5   6   4    4.90    4.03
   5  -6  -4    8.76    4.01
  -5   6   3  184.44   12.17
  -5   6   3  189.12   14.35
   5  -6  -3  184.26   13.62
  -5   6   2   65.11    7.96
  -5   6   2   71.32   10.39
   5  -6  -2   75.46    8.90
  -5   6   1   10.35    4.45
  -5   6   1   11.83    4.63
   5  -6  -1   11.49    4.40
  -5   6   0  135.42   11.34
   5  -6   0  135.03   11.96
   5  -6   0  130.54   10.98
  -5   6  -1  118.18   10.98
   5  -6   1  122.50   11.58
   5  -6   1  116.81   10.18
  -5   6  -2    1.15    3.14
   5  -6   2   -0.72    2.11
   5  -6   2   -0.45    2.16
  -5   6  -3   71.89   10.52
   5  -6   3   88.70   10.16
   5  -6   3   74.13    8.06
  -5   6  -4   90.27   10.38
   5  -6   4  100.35   11.10
   5  -6   4  111.90    9.62
  -5   6  -5   26.54    7.12
   5  -6   5   32.48    7.78
   5  -6   5   28.97    6.09
  -5   6  -6    8.10    5.02
   5  -6   6   11.97    5.28
   5  -6   6    6.39    3.61
  -5   6  -7   53.68   10.03
   5  -6   7   41.02    9.00
  -5   6  -8   16.49    6.25
   5  -6   8   21.86    6.88
  -5   6  -9    3.28    4.83
  -5   6 -10   54.15   10.52
   5  -5 -12   46.72    9.33
   5  -5 -12   41.30    8.95
  -5   5  11    7.00    6.19
   5  -5 -11    7.20    4.42
   5  -5 -11    3.84    4.02
  -5   5  10   22.63    8.13
   5  -5 -10   27.64    7.11
   5  -5 -10   25.08    6.78
  -5   5   9   95.52   14.30
   5  -5  -9  118.03   11.68
   5  -5  -9  130.15   11.77
  -5   5   8   67.27   12.01
   5  -5  -8   64.49   10.04
   5  -5  -8   66.56    8.28
  -5   5   7    0.20    3.58
   5  -5  -7    1.63    2.87
   5  -5  -7    2.49    3.02
  -5   5   6   65.54   11.15
   5  -5  -6   82.18    9.18
  -5   5   5   71.80   11.34
   5  -5  -5   93.26    9.60
  -5   5   4    0.18    2.35
  -5   5   4   -0.48    2.37
   5  -5  -4    0.32    2.31
  -5   5   3   91.15    8.29
  -5   5   3   97.67   10.41
   5  -5  -3   87.18    9.17
  -5   5   2   96.46    8.60
  -5   5   2   89.34    9.71
   5  -5  -2  107.15    9.94
  -5   5   1    3.51    3.06
   5  -5  -1    5.35    3.24
  -5   5   0   89.76    8.81
   5  -5   0   76.56    8.61
   5  -5   0   75.42    8.48
  -5   5  -1  148.57   11.44
   5  -5   1  162.81   12.39
   5  -5   1  160.61   11.57
  -5   5  -2   49.62    8.24
   5  -5   2   40.76    7.75
   5  -5   2   39.68    6.91
  -5   5  -3    2.12    3.18
   5  -5   3    4.30    3.30
   5  -5   3    8.54    3.64
  -5   5  -4   74.08    8.87
   5  -5   4   80.73    9.54
   5  -5   4   65.25    7.41
  -5   5  -5   25.13    6.62
   5  -5   5   20.74    6.17
   5  -5   5   22.48    5.36
  -5   5  -6    8.23    4.49
   5  -5   6    8.68    4.62
   5  -5   6    5.73    3.65
  -5   5  -7   30.02    7.42
   5  -5   7   42.06    8.44
   5  -5   7   31.11    6.52
  -5   5  -8   52.26    9.57
   5  -5   8   41.35    8.68
   5  -5   8   39.36    7.46
  -5   5  -9    1.09    3.57
  -5   5 -10   24.80    7.41
  -5   4  12   43.81   10.61
   5  -4 -12   49.24    9.64
   5  -4 -12   52.79   10.33
  -5   4  11   23.47    7.94
   5  -4 -11   35.32    8.09
   5  -4 -11   29.17    7.49
  -5   4  10   -0.34    3.67
   5  -4 -10    0.37    3.12
   5  -4 -10   -1.03    3.12
  -5   4   9   34.88    9.30
   5  -4  -9   47.43    8.93
   5  -4  -9   44.10    8.36
  -5   4   8   42.66    9.81
   5  -4  -8   40.59    7.82
   5  -4  -8   52.09    8.61
  -5   4   7    3.62    4.57
   5  -4  -7    5.41    3.35
   5  -4  -7    7.87    4.13
  -5   4   6   21.72    7.03
   5  -4  -6   25.09    6.00
   5  -4  -6   21.05    5.02
  -5   4   5   51.93    9.60
   5  -4  -5   56.33    8.59
   5  -4  -5   66.37    6.88
  -5   4   4   12.25    3.51
  -5   4   4    8.19    4.62
   5  -4  -4   11.00    4.28
   5  -4  -4   11.70    3.52
  -5   4   3    8.75    3.19
  -5   4   3    7.07    3.88
   5  -4  -3    6.65    3.50
   5  -4  -3    8.34    2.57
  -5   4   2  139.20    9.32
  -5   4   2  118.30   10.77
   5  -4  -2  114.59    9.81
  -5   4   1   50.51    6.18
   5  -4  -1   52.76    8.17
   5  -4  -1   54.70    8.66
  -5   4   0    9.06    3.64
   5  -4   0   11.51    3.99
   5  -4   0   17.97    4.93
  -5   4  -1   32.17    6.07
   5  -4   1   33.49    6.59
   5  -4   1   28.45    6.07
  -5   4  -2   10.36    3.94
   5  -4   2    5.70    3.36
   5  -4   2    8.09    3.52
  -5   4  -3    4.19    2.99
   5  -4   3    5.51    3.34
   5  -4   3    2.84    2.60
  -5   4  -4   73.77    8.37
   5  -4   4   61.64    9.16
   5  -4   4   66.87    7.42
  -5   4  -5   41.06    7.78
   5  -4   5   47.00    8.31
   5  -4   5   48.58    7.70
  -5   4  -6   -0.38    2.83
   5  -4   6    0.92    2.92
   5  -4   6    3.33    3.08
  -5   4  -7    1.32    3.37
   5  -4   7    4.65    3.59
   5  -4   7   -0.10    2.50
  -5   4  -8   18.65    6.20
   5  -4   8   12.46    5.13
   5  -4   8   13.48    4.69
  -5   4  -9    7.91    4.77
   5  -4   9    6.61    4.00
  -5   4 -10    0.34    3.62
   5  -4  10    3.76    3.76
  -5   3  12    7.30    4.70
  -5   3  12   10.34    6.14
  -5   3  12    6.25    4.57
   5  -3 -12   11.53    5.84
  -5   3  11   15.32    6.78
   5  -3 -11   17.92    6.27
   5  -3 -11   10.53    5.18
  -5   3  10    0.32    3.66
   5  -3 -10    1.82    3.25
   5  -3 -10    1.52    3.41
  -5   3   9    0.10    3.80
   5  -3  -9   -2.15    1.80
   5  -3  -9   -0.36    2.79
  -5   3   8   12.05    5.89
   5  -3  -8   22.14    6.17
   5  -3  -8   16.48    5.25
  -5   3   7   22.10    6.90
   5  -3  -7   27.77    6.44
   5  -3  -7   27.32    6.22
  -5   3   6    4.84    4.24
   5  -3  -6    0.11    2.14
   5  -3  -6    4.22    3.15
  -5   3   5   23.70    6.82
   5  -3  -5   31.24    6.35
   5  -3  -5   30.47    5.71
  -5   3   4   41.45    4.67
  -5   3   4   29.56    7.08
   5  -3  -4   40.10    6.84
   5  -3  -4   37.90    5.80
  -5   3   3    6.85    2.65
  -5   3   3    6.00    3.69
   5  -3  -3    7.21    3.34
   5  -3  -3    9.82    2.88
  -5   3   2    1.20    1.92
  -5   3   2    0.92    2.37
   5  -3  -2    1.93    2.12
   5  -3  -2    3.85    1.87
  -5   3   1    3.04    2.26
   5  -3  -1    0.41    1.83
   5  -3  -1    1.08    1.20
   5  -3  -1    0.75    2.53
  -5   3   0    6.24    2.69
   5  -3   0    5.27    3.01
   5  -3   0    6.50    3.21
  -5   3  -1   24.71    5.02
   5  -3   1   32.41    6.03
   5  -3   1   25.33    5.53
  -5   3  -2   18.00    4.60
   5  -3   2   25.67    5.46
   5  -3   2   21.96    5.23
  -5   3  -3   12.73    4.05
   5  -3   3   10.55    4.09
   5  -3   3   12.74    4.09
  -5   3  -4   -1.04    1.70
   5  -3   4   -0.91    2.04
   5  -3   4    0.00    1.86
  -5   3  -5   15.65    4.72
   5  -3   5   13.91    4.60
   5  -3   5   14.13    4.62
  -5   3  -6   14.67    4.79
   5  -3   6   10.75    4.35
   5  -3   6   16.61    5.01
  -5   3  -7    3.16    3.39
   5  -3   7    3.38    3.12
   5  -3   7    4.30    3.22
  -5   3  -8   -0.19    2.79
   5  -3   8    0.37    2.67
  -5   3  -9    0.19    3.17
   5  -3   9   -0.08    2.66
  -5   3 -10    1.86    3.67
   5  -3  10    2.50    3.46
  -5   3 -11   12.17    5.45
   5  -3  11    6.91    4.65
  -5   2  12   -0.05    4.23
   5  -2 -12    1.46    3.56
  -5   2  11   -0.29    3.05
  -5   2  11    5.35    5.36
  -5   2  11    2.15    3.61
   5  -2 -11   -1.23    3.30
  -5   2  10    2.33    4.80
   5  -2 -10    5.73    4.02
   5  -2 -10    1.08    2.98
  -5   2   9    0.66    3.49
   5  -2  -9    0.88    2.94
   5  -2  -9   -0.74    2.72
  -5   2   8   10.71    5.71
   5  -2  -8   19.61    5.84
   5  -2  -8   18.33    5.75
  -5   2   7    9.33    5.01
   5  -2  -7   14.77    4.97
   5  -2  -7   14.56    4.91
  -5   2   6    5.42    3.96
   5  -2  -6   13.06    4.65
   5  -2  -6   15.95    4.76
  -5   2   5    2.55    3.48
   5  -2  -5    2.27    2.34
   5  -2  -5    2.56    2.57
  -5   2   4    0.62    1.46
  -5   2   4   -1.54    2.31
   5  -2  -4    0.03    1.97
   5  -2  -4   -0.75    1.86
  -5   2   3    5.61    2.18
  -5   2   3    3.58    3.20
   5  -2  -3    5.58    2.90
   5  -2  -3    3.52    2.36
  -5   2   2    1.15    1.52
  -5   2   2    0.90    2.42
   5  -2  -2   -0.16    1.64
   5  -2  -2   -0.47    1.48
  -5   2   1    1.39    1.60
   5  -2  -1    2.21    2.04
   5  -2  -1    3.58    1.81
   5  -2  -1    3.06    2.78
  -5   2   0    2.46    1.31
  -5   2   0    2.50    1.97
   5  -2   0    2.91    2.36
   5  -2   0    1.15    2.40
  -5   2  -1    0.23    0.77
  -5   2  -1   -0.71    1.16
   5  -2   1    1.49    1.83
   5  -2   1    0.39    1.84
  -5   2  -2    0.86    0.85
  -5   2  -2    1.63    1.94
   5  -2   2    0.20    1.75
   5  -2   2    2.36    2.19
  -5   2  -3    6.80    1.64
  -5   2  -3    3.02    2.32
   5  -2   3    4.67    2.61
   5  -2   3    8.74    3.49
  -5   2  -4   27.09    3.14
  -5   2  -4   24.26    5.15
   5  -2   4   27.40    5.40
   5  -2   4   28.71    5.78
  -5   2  -5    3.55    1.95
  -5   2  -5    5.68    3.13
   5  -2   5    5.66    3.09
   5  -2   5    6.27    3.29
  -5   2  -6   -0.41    1.46
  -5   2  -6    0.11    2.23
   5  -2   6    1.12    2.43
   5  -2   6    0.31    2.10
  -5   2  -7    6.53    2.74
  -5   2  -7    9.61    4.11
   5  -2   7    7.97    3.94
   5  -2   7    4.45    3.19
  -5   2  -8   -0.64    1.78
  -5   2  -8   -0.38    2.22
   5  -2   8   -0.03    2.56
  -5   2  -9   -0.55    2.86
   5  -2   9    1.08    2.98
  -5   2 -10    0.83    3.28
   5  -2  10    0.72    3.38
  -5   2 -11   -2.10    3.14
   5  -2  11    1.49    3.52
   5  -2  12    7.08    4.76
   5  -2  13    0.53    4.08
  -5   1  11    0.54    3.53
  -5   1  11    2.31    4.89
  -5   1  11    1.60    3.61
   5  -1 -11    5.48    4.57
  -5   1  10    3.93    3.44
  -5   1  10    3.02    4.73
  -5   1  10    2.28    3.32
   5  -1 -10    2.50    3.33
  -5   1   9    1.08    4.23
   5  -1  -9    1.06    2.99
  -5   1   8   -0.96    3.58
   5  -1  -8    0.52    2.32
   5  -1  -8   -1.00    2.46
  -5   1   7    1.01    3.84
   5  -1  -7    4.38    3.03
   5  -1  -7    5.58    3.63
  -5   1   6   -2.27    2.80
   5  -1  -6    1.83    2.61
   5  -1  -6   -0.24    2.11
  -5   1   5    2.20    3.17
   5  -1  -5    0.31    2.20
   5  -1  -5    1.63    2.57
  -5   1   4    0.88    1.32
  -5   1   4    0.55    2.48
   5  -1  -4    0.05    1.63
   5  -1  -4   -0.46    1.90
  -5   1   3    7.08    2.20
  -5   1   3    6.19    3.40
   5  -1  -3    9.11    3.27
   5  -1  -3   10.59    3.46
  -5   1   2    1.57    1.42
  -5   1   2   -0.92    1.99
   5  -1  -2   -0.61    1.45
   5  -1  -2    0.22    1.57
  -5   1   1    5.42    2.20
   5  -1  -1    6.00    2.88
   5  -1  -1    5.18    2.26
   5  -1  -1    5.32    3.17
  -5   1   0    2.44    1.75
   5  -1   0    1.91    1.79
   5  -1   0    5.35    2.97
  -5   1  -1    2.97    1.59
  -5   1  -1    3.05    2.06
   5  -1   1    1.23    1.83
   5  -1   1    4.73    2.69
  -5   1  -2   23.70    2.94
  -5   1  -2   20.23    4.23
   5  -1   2   25.37    4.48
   5  -1   2   25.56    5.25
  -5   1  -3   42.87    3.88
  -5   1  -3   34.82    5.71
   5  -1   3   44.51    5.11
   5  -1   3   35.79    6.15
  -5   1  -4    3.06    1.71
  -5   1  -4    0.64    1.65
   5  -1   4    3.92    2.34
   5  -1   4    1.19    1.93
  -5   1  -5    0.49    1.52
  -5   1  -5    0.13    2.02
   5  -1   5   -0.72    1.75
   5  -1   5   -0.42    1.74
  -5   1  -6    5.22    2.38
  -5   1  -6    5.78    3.02
   5  -1   6    5.17    2.90
   5  -1   6    8.00    3.72
  -5   1  -7    2.12    2.08
  -5   1  -7    1.00    2.32
   5  -1   7    0.64    2.37
  -5   1  -8    8.29    3.49
  -5   1  -8   11.17    4.11
   5  -1   8    7.93    3.96
  -5   1  -9   11.21    3.97
  -5   1  -9   15.68    5.15
   5  -1   9    6.21    4.03
  -5   1 -10    8.26    3.87
  -5   1 -10   11.28    4.72
   5  -1  10   10.30    4.97
  -5   1 -11    0.75    2.76
  -5   1 -11    1.00    3.50
   5  -1  11   -0.10    2.83
   5  -1  12    6.18    4.46
   5  -1  13    7.88    5.32
  -5   0  11    1.11    3.57
  -5   0  11   -1.52    3.03
   5   0 -11    2.92    3.94
  -5   0  10    4.44    3.96
  -5   0  10    6.85    5.20
  -5   0  10    7.50    4.63
   5   0 -10    3.13    3.86
  -5   0   9    5.75    3.85
  -5   0   9    5.65    4.67
  -5   0   9    6.50    4.08
   5   0  -9    4.87    4.22
  -5   0   8   -0.42    2.35
  -5   0   8    0.56    3.42
  -5   0   8    1.65    2.69
   5   0  -8    1.68    2.98
  -5   0   7    0.90    3.42
   5   0  -7    3.65    3.03
   5   0  -7    0.36    2.59
  -5   0   6    4.72    3.98
   5   0  -6    4.83    3.17
   5   0  -6    6.91    3.69
  -5   0   5    1.62    3.09
   5   0  -5    2.98    2.49
   5   0  -5    6.24    3.48
  -5   0   4    0.93    1.25
  -5   0   4   -0.50    2.46
   5   0  -4   -0.58    1.68
   5   0  -4    1.83    2.41
  -5   0   3   12.39    2.59
  -5   0   3   14.89    4.80
   5   0  -3   12.50    3.80
   5   0  -3   10.90    3.60
  -5   0   2    0.53    1.21
  -5   0   2    3.12    2.79
   5   0  -2    0.82    1.70
   5   0  -2    1.10    2.03
  -5   0   1   13.16    2.98
   5   0  -1   14.48    3.57
   5   0  -1    9.07    3.16
   5   0  -1   10.20    3.72
  -5   0   0   86.53    6.26
   5   0   0  103.37    7.14
   5   0   0   99.78    6.97
   5   0   0  111.74    9.01
  -5   0  -1   81.54    6.05
  -5   0  -1   77.99    6.22
   5   0   1   83.11    6.19
   5   0   1   84.45    7.79
  -5   0  -2    8.03    2.52
  -5   0  -2    4.06    2.20
   5   0   2    5.19    2.16
   5   0   2    6.74    3.04
  -5   0  -3   20.30    3.67
  -5   0  -3   15.07    3.63
   5   0   3   18.97    3.49
   5   0   3   18.87    4.54
  -5   0  -4   23.83    4.12
  -5   0  -4   19.22    4.29
   5   0   4   15.92    3.19
   5   0   4   13.16    4.12
  -5   0  -5    3.13    2.10
  -5   0  -5    1.66    1.96
   5   0   5    2.84    1.84
   5   0   5    1.64    2.17
  -5   0  -6   47.75    5.49
  -5   0  -6   43.42    6.72
   5   0   6   49.06    5.11
   5   0   6   44.34    7.75
  -5   0  -7   51.22    5.97
  -5   0  -7   45.46    7.06
   5   0   7   40.07    7.63
  -5   0  -8    5.34    2.94
  -5   0  -8    1.81    2.62
   5   0   8    4.18    3.47
  -5   0  -9   14.60    4.60
  -5   0  -9   17.09    5.14
   5   0   9   18.81    5.86
  -5   0 -10   45.16    7.55
  -5   0 -10   45.34    7.79
   5   0  10   46.99    9.00
  -5   0 -11   15.57    5.03
  -5   0 -11   14.22    5.05
   5   0  11    7.59    4.82
  -5   0 -12    5.71    4.02
   5   0  12    4.61    4.40
  -5   0 -13   28.41    7.04
   5   0  13   16.38    6.69
  -5  -1  11   -1.57    2.84
   5   1 -11    1.23    3.95
  -5  -1  10    8.30    4.71
  -5  -1  10    6.87    4.32
   5   1 -10    1.71    3.32
  -5  -1   9   15.37    5.47
  -5  -1   9   13.48    5.18
   5   1  -9   12.86    5.41
  -5  -1   8    2.16    2.94
  -5  -1   8    0.87    3.55
  -5  -1   8    2.01    2.86
   5   1  -8    4.38    3.82
  -5  -1   7    3.35    3.14
  -5  -1   7    0.21    3.19
  -5  -1   7   -0.38    2.39
   5   1  -7   -0.82    2.33
  -5  -1   6   15.95    5.45
   5   1  -6   30.99    6.82
  -5  -1   5   17.20    5.40
   5   1  -5   20.12    5.03
   5   1  -5   21.04    5.53
  -5  -1   4   13.73    4.63
   5   1  -4   12.62    4.12
   5   1  -4   20.24    5.23
   5   1  -4   17.46    3.04
  -5  -1   3   99.18    9.28
   5   1  -3  111.12    8.73
   5   1  -3  118.62    9.55
   5   1  -3  106.14    6.15
  -5  -1   2  122.37    9.71
   5   1  -2  101.88    7.83
   5   1  -2  109.60    8.71
   5   1  -2  108.61    6.57
   5   1  -1    0.44    1.57
   5   1  -1   -0.44    1.74
   5   1  -1    0.89    1.51
   5   1  -1    1.43    2.39
   5   1   0   83.63    6.28
   5   1   0   92.63    7.41
   5   1   0   90.23    6.52
   5   1   0   94.00    7.98
  -5  -1  -1   30.68    5.10
   5   1   1   31.04    3.79
   5   1   1   35.08    5.23
   5   1   1   34.40    5.88
  -5  -1  -2    1.50    1.68
   5   1   2    0.73    1.25
   5   1   2    0.73    1.98
  -5  -1  -3   65.98    6.12
  -5  -1  -3   67.15    6.23
   5   1   3   61.27    4.30
   5   1   3   61.81    6.88
  -5  -1  -4  149.41    9.05
  -5  -1  -4  130.55    8.89
   5   1   4  138.58    5.97
   5   1   4  142.54   10.26
  -5  -1  -5   43.55    5.34
  -5  -1  -5   44.06    5.49
   5   1   5   42.23    3.56
   5   1   5   46.49    7.41
  -5  -1  -6   12.79    3.81
  -5  -1  -6   14.95    4.17
   5   1   6   10.63    4.08
  -5  -1  -7  155.60   10.35
  -5  -1  -7  130.08    9.64
   5   1   7  155.02   12.42
  -5  -1  -8   71.95    7.53
  -5  -1  -8   61.22    7.12
   5   1   8   70.50   10.50
  -5  -1  -9    2.21    2.76
  -5  -1  -9    0.41    2.48
   5   1   9    1.68    2.99
  -5  -1 -10   55.67    8.61
  -5  -1 -10   46.81    7.70
   5   1  10   56.15   10.18
  -5  -1 -11   36.58    7.30
  -5  -1 -11   35.22    7.04
   5   1  11   40.11    8.76
  -5  -1 -12   -1.42    2.27
   5   1  12    2.32    3.87
  -5  -1 -13   92.31   10.61
   5   1  13   66.08   11.58
  -5  -1 -14   47.43    9.19
  -5  -2  10    3.82    3.82
   5   2 -10    1.35    3.09
  -5  -2   9   25.12    6.71
   5   2  -9   21.33    6.55
  -5  -2   8   16.35    5.39
  -5  -2   8   20.40    6.19
   5   2  -8   14.61    5.54
  -5  -2   7   11.63    4.69
  -5  -2   7    1.59    3.52
  -5  -2   7    6.32    3.80
   5   2  -7    4.98    3.74
  -5  -2   6  119.80   10.69
  -5  -2   6  126.51   11.10
  -5  -2   6  100.50    9.84
   5   2  -6  133.67   11.83
  -5  -2   5   67.25    7.77
  -5  -2   5   69.26    8.50
  -5  -2   5   87.84    8.81
   5   2  -5   92.60    9.62
  -5  -2   4    3.97    2.70
  -5  -2   4    1.71    2.59
  -5  -2   4    0.74    1.98
   5   2  -4    2.47    2.65
   5   2  -4    1.69    1.80
  -5  -2   3   46.15    7.29
   5   2  -3   54.06    6.30
   5   2  -3   50.95    7.73
   5   2  -3   51.50    4.96
  -5  -2   2   94.46    8.38
   5   2  -2  105.73    8.09
   5   2  -2  103.57    8.94
   5   2  -2  101.45    6.94
   5   2  -1    1.56    1.83
   5   2  -1    0.74    2.11
   5   2  -1    0.85    1.70
   5   2  -1    0.78    2.21
   5   2   0   55.73    5.13
   5   2   0   59.04    6.54
   5   2   0   57.27    5.55
   5   2   0   63.22    6.55
  -5  -2  -1  218.85   11.72
   5   2   1  197.32    8.46
   5   2   1  199.86   10.22
   5   2   1  211.90   11.25
  -5  -2  -2   84.79    7.42
   5   2   2   85.37    5.14
   5   2   2   93.70    7.32
   5   2   2   99.30    7.93
  -5  -2  -3   38.31    6.11
   5   2   3   35.66    3.05
   5   2   3   31.42    5.36
   5   2   3   33.80    5.80
  -5  -2  -4  215.19   11.64
   5   2   4  206.43    5.68
   5   2   4  186.64   10.61
   5   2   4  238.77   13.15
  -5  -2  -5  181.71   10.96
   5   2   5  183.80   12.21
  -5  -2  -6   11.75    3.89
  -5  -2  -6   10.21    3.44
   5   2   6   13.28    4.81
  -5  -2  -7  117.09    9.45
  -5  -2  -7   98.65    8.50
   5   2   7  108.44   10.47
  -5  -2  -8  159.54   11.33
  -5  -2  -8  136.29   10.01
   5   2   8  129.63   11.87
  -5  -2  -9    1.68    2.50
  -5  -2  -9   -0.36    2.26
   5   2   9    1.45    3.26
  -5  -2 -10   90.79    9.51
  -5  -2 -10   82.56    8.46
   5   2  10   93.34   10.96
  -5  -2 -11  127.78   11.40
  -5  -2 -11  117.32   10.15
   5   2  11  118.62   12.85
  -5  -2 -12   32.44    7.52
   5   2  12   31.28    8.40
  -5  -2 -13   21.81    6.49
   5   2  13   26.42    7.80
  -5  -2 -14   72.26   11.08
  -5  -3  10    4.43    3.82
   5   3 -10    4.67    3.98
  -5  -3   9   59.81   10.22
   5   3  -9   72.53   11.32
  -5  -3   8   95.56   10.81
   5   3  -8   96.78   11.19
  -5  -3   7    1.71    2.74
   5   3  -7    2.63    2.94
  -5  -3   6   34.38    7.19
  -5  -3   6   30.96    6.91
   5   3  -6   29.01    6.85
  -5  -3   5   88.12    9.06
  -5  -3   5  104.80    9.44
  -5  -3   5   97.42    9.49
   5   3  -5  101.25   10.13
  -5  -3   4   20.12    5.13
  -5  -3   4   21.18    5.28
  -5  -3   4   22.66    5.38
   5   3  -4   26.72    6.38
   5   3  -4   29.98    4.94
  -5  -3   3   64.57    7.10
  -5  -3   3   54.38    6.58
  -5  -3   3   60.55    6.98
   5   3  -3   64.92    7.76
   5   3  -3   75.18    6.54
  -5  -3   2  198.08   11.26
  -5  -3   2  226.67   11.96
  -5  -3   2  210.59   11.59
   5   3  -2  245.73   14.08
   5   3  -2  234.35   11.39
  -5  -3   1   65.15    6.24
  -5  -3   1   61.20    6.02
   5   3  -1   68.18    7.50
   5   3  -1   65.40    6.46
   5   3  -1   60.82    6.43
  -5  -3   0   12.73    3.25
  -5  -3   0   11.98    3.18
   5   3   0   14.59    4.37
   5   3   0   20.09    4.40
   5   3   0   18.05    4.22
  -5  -3  -1  209.49    8.91
  -5  -3  -1  213.85   12.38
  -5  -3  -1  204.29    8.83
   5   3   1  223.63   11.72
   5   3   1  233.21   11.38
  -5  -3  -2  283.33    9.15
  -5  -3  -2  308.81   14.72
  -5  -3  -2  275.45    9.05
   5   3   2  315.44   13.93
   5   3   2  297.36   13.08
  -5  -3  -3    3.07    1.35
  -5  -3  -3    2.30    2.25
  -5  -3  -3    3.49    1.40
   5   3   3    6.80    3.09
   5   3   3    7.37    3.17
  -5  -3  -4  122.96    3.88
  -5  -3  -4  135.85    9.97
   5   3   4  131.18    9.32
   5   3   4  123.01    9.55
  -5  -3  -5  145.07   10.58
   5   3   5  129.13    9.36
   5   3   5  146.47   10.85
  -5  -3  -6   17.73    4.85
   5   3   6   12.58    4.00
   5   3   6   22.10    5.60
  -5  -3  -7  133.68   10.57
  -5  -3  -7  125.99    9.60
   5   3   7  131.25   11.46
  -5  -3  -8  256.23   14.90
  -5  -3  -8  234.95   13.12
   5   3   8  274.07   17.12
  -5  -3  -9   58.54    8.88
  -5  -3  -9   59.17    7.12
   5   3   9   58.88   10.20
  -5  -3 -10    8.76    4.26
  -5  -3 -10    9.84    4.04
   5   3  10    4.40    3.82
  -5  -3 -11  140.05   12.36
  -5  -3 -11  135.09   10.67
   5   3  11  132.16   13.54
  -5  -3 -12   81.42    9.94
   5   3  12   75.07   12.35
  -5  -3 -13    0.40    3.17
   5   3  13    2.20    3.99
  -5  -3 -14   82.27   12.09
  -5  -4   9   21.65    6.77
   5   4  -9   19.40    6.42
  -5  -4   8  109.41   11.72
   5   4  -8   87.62   10.80
  -5  -4   7   40.84    8.14
   5   4  -7   35.87    7.77
  -5  -4   6   12.38    4.75
   5   4  -6   23.83    6.31
  -5  -4   5  186.77   13.26
   5   4  -5  178.52   13.80
  -5  -4   4  118.74   10.23
   5   4  -4  125.84   11.30
   5   4  -4  139.10    9.53
  -5  -4   3    3.31    2.56
  -5  -4   3    1.73    2.49
   5   4  -3    7.18    3.69
   5   4  -3    3.25    2.86
  -5  -4   2  213.18   12.05
  -5  -4   2  212.44   10.96
  -5  -4   2  206.82   11.91
   5   4  -2  246.49   14.70
   5   4  -2  261.64   13.23
  -5  -4   1  216.12   11.41
  -5  -4   1  230.05   11.78
   5   4  -1  246.83   14.44
   5   4  -1  268.11   13.56
  -5  -4   0   25.88    4.52
  -5  -4   0   24.74    4.47
   5   4   0   33.89    6.66
   5   4   0   36.79    6.40
   5   4   0   30.47    5.01
  -5  -4  -1   90.80    6.37
  -5  -4  -1   97.26    9.24
   5   4   1  103.55    8.82
   5   4   1   97.06    7.31
  -5  -4  -2  180.58    7.98
  -5  -4  -2  200.80   12.64
   5   4   2  191.84   11.84
   5   4   2  210.77   10.81
  -5  -4  -3   15.55    2.56
  -5  -4  -3   14.99    4.55
   5   4   3   19.15    4.87
   5   4   3   15.92    4.18
  -5  -4  -4   95.30    3.84
  -5  -4  -4   94.56    9.11
   5   4   4   98.46    8.58
   5   4   4   95.90    8.42
  -5  -4  -5  374.72   17.53
   5   4   5  373.05   16.39
   5   4   5  356.18   16.60
  -5  -4  -6  175.48   12.29
   5   4   6  168.16   11.16
   5   4   6  184.96   12.83
  -5  -4  -7    2.64    3.01
   5   4   7    1.70    2.27
   5   4   7    3.86    3.23
  -5  -4  -8  239.47   15.00
   5   4   8  214.13   12.81
   5   4   8  207.55   15.04
  -5  -4  -9  220.47   14.75
  -5  -4  -9  220.87   13.09
   5   4   9  227.95   16.50
  -5  -4 -10    0.60    2.69
  -5  -4 -10    0.00    2.30
   5   4  10    2.29    3.48
  -5  -4 -11   83.46    9.99
  -5  -4 -11   84.17    8.59
   5   4  11   81.59   12.60
  -5  -4 -12   93.57   10.65
   5   4  12  100.84   12.38
  -5  -4 -13   15.04    5.97
   5   4  13   13.18    6.08
  -5  -4 -14   40.26    8.76
  -5  -5   9    3.33    3.86
   5   5  -9    1.23    3.55
  -5  -5   8  116.05   12.40
   5   5  -8  114.11   12.37
  -5  -5   7  117.81   11.92
   5   5  -7  126.98   12.51
  -5  -5   6   -1.96    2.13
   5   5  -6    1.14    2.85
  -5  -5   5  113.11   10.83
   5   5  -5  142.74   12.70
  -5  -5   4  255.19   15.24
   5   5  -4  314.44   18.08
   5   5  -4  335.33   15.86
  -5  -5   3   49.93    7.77
   5   5  -3   59.17    9.34
   5   5  -3   68.00    7.72
  -5  -5   2   30.90    5.98
   5   5  -2   33.54    7.06
   5   5  -2   38.25    7.01
  -5  -5   1  187.12   11.14
  -5  -5   1  193.10    9.36
   5   5  -1  214.34   14.03
   5   5  -1  239.81   14.00
  -5  -5   0   53.55    5.90
   5   5   0   65.34    7.97
   5   5   0   63.78    7.62
   5   5   0   55.17    5.45
  -5  -5  -1   33.76    5.13
  -5  -5  -1   26.69    6.24
   5   5   1   33.67    6.74
   5   5   1   36.02    5.14
  -5  -5  -2  301.45   11.18
  -5  -5  -2  283.19   15.74
   5   5   2  314.77   16.06
   5   5   2  272.02   11.78
  -5  -5  -3  396.32   11.37
  -5  -5  -3  371.78   17.92
   5   5   3  422.13   18.46
   5   5   3  379.60   14.69
  -5  -5  -4    2.30    2.57
   5   5   4    1.04    2.40
   5   5   4   -0.09    2.10
  -5  -5  -5  319.11   16.97
   5   5   5  345.76   16.70
   5   5   5  334.95   16.01
  -5  -5  -6  285.64   16.26
   5   5   6  302.75   15.51
   5   5   6  296.15   16.06
  -5  -5  -7   34.77    7.25
   5   5   7   35.53    6.62
   5   5   7   43.15    8.05
  -5  -5  -8  121.54   11.34
   5   5   8  108.35    9.57
   5   5   8   93.05   10.38
  -5  -5  -9  176.43   13.64
   5   5   9  189.11   12.48
   5   5   9  200.64   15.48
  -5  -5 -10   42.64    8.52
  -5  -5 -10   34.28    6.57
   5   5  10   42.14    8.95
  -5  -5 -11   32.96    7.60
  -5  -5 -11   32.16    6.54
   5   5  11   24.58    7.54
  -5  -5 -12  162.80   14.07
   5   5  12  154.12   15.04
  -5  -5 -13   74.25   11.50
   5   5  13   75.22   12.92
  -5  -5 -14    3.71    4.39
  -5  -6   8   62.23   10.67
   5   6  -8   55.93   10.11
  -5  -6   7  192.56   15.41
   5   6  -7  212.94   16.37
  -5  -6   6   73.64   10.95
   5   6  -6   79.53   11.73
  -5  -6   5   17.57    5.57
   5   6  -5   10.98    4.76
  -5  -6   4  129.58   11.42
   5   6  -4  131.33   12.16
   5   6  -4  142.08   11.51
  -5  -6   3  144.07   11.57
   5   6  -3  155.57   12.85
   5   6  -3  167.15   12.51
  -5  -6   2    0.60    2.10
   5   6  -2    2.24    2.89
   5   6  -2   -1.98    2.40
  -5  -6   1  272.59   14.10
   5   6  -1  269.58   16.25
   5   6  -1  321.09   17.38
  -5  -6   0  264.66   13.19
   5   6   0  294.45   16.74
   5   6   0  327.08   17.51
  -5  -6  -1   20.82    4.43
  -5  -6  -1   15.06    5.21
   5   6   1   22.76    6.05
  -5  -6  -2  253.45   11.27
  -5  -6  -2  253.54   15.46
   5   6   2  266.48   15.71
   5   6   2  253.97   10.93
  -5  -6  -3  458.07   13.71
  -5  -6  -3  420.08   19.81
   5   6   3  520.56   21.74
   5   6   3  461.10   15.70
  -5  -6  -4   55.61    8.91
   5   6   4   70.29    8.30
   5   6   4   72.56    7.30
  -5  -6  -5   78.98    9.17
   5   6   5   91.00    9.49
   5   6   5   89.00    8.59
  -5  -6  -6  349.54   18.60
   5   6   6  349.36   17.60
   5   6   6  368.47   17.80
  -5  -6  -7  143.55   12.32
   5   6   7  148.16   11.60
   5   6   7  145.30   12.09
  -5  -6  -8   30.17    7.11
   5   6   8   21.86    5.53
   5   6   8   26.12    6.92
  -5  -6  -9  240.13   16.41
   5   6   9  264.48   15.08
   5   6   9  258.48   17.51
  -5  -6 -10  168.79   14.03
   5   6  10  172.36   12.29
   5   6  10  145.72   13.99
  -5  -6 -11    9.12    4.85
  -5  -6 -11    5.45    3.62
   5   6  11    7.14    4.70
  -5  -6 -12   81.52   12.11
   5   6  12   69.05   11.99
  -5  -6 -13  134.38   13.37
   5   6  13  115.53   13.57
  -5  -7   7  117.20   12.47
   5   7  -7  119.59   12.71
  -5  -7   6  112.96   11.84
   5   7  -6  110.11   12.10
  -5  -7   5    4.91    3.76
   5   7  -5    1.64    3.31
  -5  -7   4  139.53   12.16
   5   7  -4  142.53   13.04
   5   7  -4  166.00   13.09
  -5  -7   3  293.36   16.84
   5   7  -3  278.82   17.50
   5   7  -3  333.29   18.50
  -5  -7   2   30.55    6.63
   5   7  -2   23.69    6.46
   5   7  -2   34.86    7.73
  -5  -7   1   94.69    9.08
   5   7  -1   82.95    9.55
   5   7  -1  107.64   10.92
  -5  -7   0  356.45   16.11
   5   7   0  362.87   19.25
   5   7   0  366.66   19.67
  -5  -7  -1  125.00    9.27
  -5  -7  -1  122.92   11.38
   5   7   1  128.68   12.00
  -5  -7  -2   34.84    5.64
  -5  -7  -2   25.49    6.42
   5   7   2   39.42    8.16
  -5  -7  -3  349.77   13.22
  -5  -7  -3  356.20   18.90
   5   7   3  372.53   19.55
   5   7   3  343.20   13.16
  -5  -7  -4  203.73   14.53
   5   7   4  243.79   15.79
   5   7   4  224.13   11.83
  -5  -7  -5    9.43    4.34
   5   7   5    9.77    4.42
   5   7   5   14.84    4.61
  -5  -7  -6  284.91   17.45
   5   7   6  317.43   17.64
   5   7   6  301.02   15.94
  -5  -7  -7  361.26   19.75
   5   7   7  402.69   19.61
   5   7   7  385.80   19.18
  -5  -7  -8   17.87    5.99
   5   7   8   29.83    6.73
   5   7   8   22.80    6.59
  -5  -7  -9   83.92   10.32
   5   7   9   92.47    9.66
   5   7   9   94.31   11.05
  -5  -7 -10  181.57   14.83
   5   7  10  207.23   13.88
   5   7  10  195.28   16.02
  -5  -7 -11   47.26    9.57
   5   7  11   45.96    7.96
   5   7  11   33.81    8.57
  -5  -7 -12   49.32    9.68
   5   7  12   52.56   10.72
  -5  -7 -13  151.12   14.37
   5   7  13  148.00   15.28
  -5  -8   6  149.00   13.98
   5   8  -6  159.95   14.55
  -5  -8   5   38.74    8.25
   5   8  -5   37.96    8.61
  -5  -8   4   38.53    8.13
   5   8  -4   34.96    7.86
  -5  -8   3  179.73   13.88
   5   8  -3  191.11   15.10
   5   8  -3  181.19   14.55
  -5  -8   2  135.54   11.52
   5   8  -2  146.42   13.01
   5   8  -2  142.03   13.17
  -5  -8   1    0.97    2.48
   5   8  -1    1.37    3.26
   5   8  -1    1.95    3.42
  -5  -8   0  197.58   12.80
   5   8   0  203.24   15.63
  -5  -8  -1  186.12   11.83
  -5  -8  -1  205.58   15.00
   5   8   1  204.11   15.64
  -5  -8  -2   -0.72    1.95
  -5  -8  -2    1.00    2.78
   5   8   2    0.88    2.74
  -5  -8  -3  242.20   12.04
  -5  -8  -3  252.23   16.51
   5   8   3  236.22   16.52
  -5  -8  -4  367.78   19.89
   5   8   4  406.41   21.31
  -5  -8  -5   56.58    9.55
   5   8   5   79.23    9.67
   5   8   5   61.35    7.06
  -5  -8  -6   81.76   11.85
   5   8   6   82.41    9.92
   5   8   6   78.28    8.38
  -5  -8  -7  261.10   17.31
   5   8   7  280.75   17.26
   5   8   7  261.34   15.79
   5   8   8   92.58   10.06
   5   8   8  100.83   10.56
  -5  -8  -9   27.96    7.43
   5   8   9   27.39    6.68
   5   8   9   33.02    7.88
  -5  -8 -10  168.90   14.64
   5   8  10  170.43   13.07
   5   8  10  166.52   14.76
  -5  -8 -11   84.98   12.50
   5   8  11   95.62    9.94
   5   8  11   75.55   12.18
  -5  -8 -12   -0.68    3.04
   5   8  12    3.88    4.16
  -5  -8 -13  112.38   12.96
   5   8  13   87.69   14.19
  -5  -9   5  105.06   11.92
   5   9  -5   96.29   11.67
  -5  -9   4   -1.17    3.21
   5   9  -4    1.03    3.40
  -5  -9   3   85.13   10.06
   5   9  -3   97.56   11.28
   5   9  -3  105.21   12.07
  -5  -9   2  157.15   12.98
   5   9  -2  157.22   13.87
   5   9  -2  179.44   15.20
  -5  -9   1   15.02    5.00
   5   9  -1   12.01    5.50
   5   9  -1   11.26    5.52
  -5  -9   0  107.03   10.07
  -5  -9   0  102.38   11.12
   5   9   0  100.13   11.84
  -5  -9  -1  241.74   14.12
  -5  -9  -1  232.95   16.21
   5   9   1  264.25   18.46
  -5  -9  -2   82.57    8.26
  -5  -9  -2   86.17   10.18
   5   9   2   88.29   10.92
  -5  -9  -3   37.42    8.27
   5   9   3   46.76    9.60
  -5  -9  -4  262.54   17.30
   5   9   4  258.06   17.96
  -5  -9  -5   67.31   10.59
   5   9   5   66.74   10.90
  -5  -9  -6    3.33    3.77
   5   9   6    5.01    4.20
  -5  -9  -7  128.39   12.78
   5   9   7  132.92   12.64
   5   9   7  129.43   11.09
  -5  -9  -8  194.49   15.50
   5   9   8  195.49   14.89
   5   9   8  178.58   13.79
  -5  -9  -9    1.49    3.24
   5   9   9    1.78    3.60
   5   9   9    0.19    3.15
  -5  -9 -10   75.46   12.01
   5   9  10   79.50    9.66
   5   9  10   85.41   12.54
  -5  -9 -11  153.30   14.40
   5   9  11  176.19   13.59
   5   9  11  131.70   13.77
  -5  -9 -12   38.33    9.10
   5   9  12   36.64    9.36
   5   9  13   26.51    8.06
  -5 -10   4   15.73    5.85
   5  10  -4   17.26    6.19
  -5 -10   3   27.48    7.12
   5  10  -3   32.81    8.24
   5  10  -3   35.55    8.69
  -5 -10   2  213.05   15.48
   5  10  -2  199.41   15.74
   5  10  -2  185.03   16.01
  -5 -10   1   90.33   10.11
   5  10  -1   82.51   12.73
  -5 -10   0    7.16    3.89
  -5 -10   0    3.19    3.61
   5  10   0    3.69    4.36
  -5 -10  -1  109.76   10.23
  -5 -10  -1  101.09   11.25
   5  10   1   97.51   11.86
  -5 -10  -2  101.41   11.27
   5  10   2   75.33   12.09
  -5 -10  -3   -0.42    2.84
   5  10   3    0.53    3.37
  -5 -10  -4  101.77   11.18
   5  10   4   83.80   12.70
  -5 -10  -5  130.85   12.71
   5  10   5  120.86   13.01
  -5 -10  -6   19.13    6.32
   5  10   6   24.02    7.29
  -5 -10  -7   65.97   10.99
   5  10   7   67.85   11.14
  -5 -10  -8  187.38   15.58
   5  10   8  205.46   15.76
  -5 -10  -9   64.66   10.95
   5  10   9   60.03   10.21
   5  10   9   57.59    9.89
  -5 -10 -10   11.52    5.80
   5  10  10    5.08    4.14
   5  10  10    6.88    4.87
  -5 -10 -11  100.39   12.03
   5  10  11   70.12   10.64
   5  10  11   73.03   11.88
  -5 -10 -12   42.04    9.32
   5  10  12   44.24   10.01
  -5 -11   3   -1.41    3.10
   5  11  -3   -0.48    3.41
   5  11  -3   -0.71    3.83
  -5 -11   2   67.27   10.68
   5  11  -2   72.09   12.23
  -5 -11   1   83.74   10.14
  -5 -11   1   93.09   11.04
   5  11  -1   72.23   12.67
  -5 -11   0    8.26    4.52
  -5 -11   0   10.25    5.17
   5  11   0   10.81    5.56
  -5 -11  -1   49.91    8.77
  -5 -11  -1   64.08   10.78
   5  11   1   42.68    9.57
  -5 -11  -2   99.25   11.29
   5  11   2  103.65   12.66
  -5 -11  -3   18.30    6.07
   5  11   3   11.27    5.63
  -5 -11  -4   51.60    9.79
   5  11   4   34.21    8.78
  -5 -11  -5  187.14   15.45
   5  11   5  163.93   15.44
  -5 -11  -6   48.99    9.57
   5  11   6   47.71    9.88
  -5 -11  -7    0.61    3.15
   5  11   7   -0.08    3.64
  -5 -11  -8   72.74   11.66
   5  11   8   75.70   11.95
  -5 -11  -9   79.70   12.43
   5  11   9   80.63   11.97
  -5 -11 -10   -2.02    3.11
   5  11  10    2.44    3.87
  -5 -11 -11   44.65    9.49
   5  11  11   43.25    8.87
   5  11  12   55.13   11.01
  -5 -12   2   16.96    6.25
   5  12  -2   17.11    7.19
  -5 -12   1  106.32   11.56
  -5 -12   1   80.16   11.96
   5  12  -1  113.31   13.40
  -5 -12   0   20.06    6.54
  -5 -12   0   15.41    6.23
   5  12   0   17.68    6.73
  -5 -12  -1   22.24    7.03
   5  12   1   13.39    6.28
  -5 -12  -2   91.39   11.28
   5  12   2   83.05   13.34
  -5 -12  -3   73.52   11.69
   5  12   3   64.73   11.79
  -5 -12  -4   -0.47    2.93
   5  12   4   -0.50    3.65
  -5 -12  -5   59.56   10.55
   5  12   5   46.27   10.29
  -5 -12  -6   62.25   10.92
   5  12   6   75.39   12.53
  -5 -12  -7    5.81    4.31
   5  12   7    0.48    4.11
  -5 -12  -8   32.92    8.34
   5  12   8   34.27    8.70
  -5 -12  -9   89.09   13.24
   5  12   9   77.44   12.18
  -5 -12 -10   14.79    5.97
   5  12  10   16.60    6.48
   5  12  11    5.29    4.86
  -5 -13  -1    2.21    3.85
  -5 -13  -2   10.90    5.60
   5  13   2   18.03    6.97
  -5 -13  -3   45.67    9.56
   5  13   3   39.17    9.38
  -5 -13  -4   -0.59    3.18
   5  13   4   -1.79    3.79
  -5 -13  -5   24.48    7.22
   5  13   5   19.22    7.53
  -5 -13  -6   51.01    9.99
   5  13   6   50.85   10.65
  -5 -13  -7   31.43    8.30
   5  13   7   31.22    8.73
  -5 -13  -8   -0.66    2.99
   5  13   8    2.56    4.60
   5  13   9   48.87   10.22
  -6  12   3    4.45    5.10
  -6  12   2    2.54    4.43
  -6  11   6   -0.65    3.61
  -6  11   5    4.18    4.47
   6 -11  -5    0.38    3.76
  -6  11   4   -0.01    3.82
   6 -11  -4    1.31    3.95
  -6  11   3    6.48    4.86
  -6  11   3    2.45    4.21
   6 -11  -3    7.68    5.24
  -6  11   2    3.19    4.49
   6 -11  -2    0.93    3.19
  -6  11   1    6.91    4.87
   6 -11  -1   12.47    5.91
  -6  11   0   13.74    6.34
   6 -11   0    3.84    4.37
  -6  11  -1   -0.07    3.84
   6 -11   1    3.81    4.38
  -6  10   7   -1.04    3.98
   6 -10  -7   -0.11    3.33
  -6  10   6    8.81    5.35
   6 -10  -6   14.41    6.06
  -6  10   5    9.17    5.45
   6 -10  -5   18.59    6.47
  -6  10   4   10.51    5.58
   6 -10  -4   22.65    7.36
  -6  10   3    6.52    4.85
  -6  10   3    3.62    4.01
   6 -10  -3    2.82    3.97
  -6  10   2    0.09    3.35
  -6  10   2   -0.99    3.15
   6 -10  -2    2.48    3.59
  -6  10   1    1.31    3.35
  -6  10   1    2.17    3.60
   6 -10  -1   -0.75    2.98
  -6  10   0    4.90    4.76
   6 -10   0    9.76    5.21
  -6  10  -1   35.65    8.96
   6 -10   1   31.21    8.43
  -6  10  -2   37.34    9.32
   6 -10   2   33.90    8.65
  -6  10  -3    1.33    3.57
   6 -10   3    0.18    3.63
   6 -10   4    0.66    4.17
   6  -9  -9   21.14    6.90
  -6   9   8   34.76    9.22
   6  -9  -8   38.30    8.90
  -6   9   7    4.03    5.06
   6  -9  -7   11.82    5.33
  -6   9   6   -0.68    3.41
   6  -9  -6   -1.96    2.53
  -6   9   5    7.67    5.35
   6  -9  -5   11.89    5.54
  -6   9   4    1.31    3.72
   6  -9  -4   -2.02    2.97
  -6   9   3    7.61    4.72
  -6   9   3    3.99    4.16
   6  -9  -3    7.81    4.75
  -6   9   2   55.64   10.07
  -6   9   2   50.29    9.50
   6  -9  -2   60.27   10.81
  -6   9   1   62.52   10.59
  -6   9   1   55.36    9.43
   6  -9  -1   56.92   10.59
  -6   9   0    7.89    4.76
  -6   9   0    9.52    4.50
   6  -9   0    7.13    4.59
  -6   9  -1    5.70    4.46
  -6   9  -1    2.49    3.58
   6  -9   1    2.65    3.53
  -6   9  -2   18.50    6.66
   6  -9   2   19.58    6.74
  -6   9  -3   -1.98    3.28
   6  -9   3   -1.38    2.98
  -6   9  -4   24.53    7.47
   6  -9   4   28.70    8.00
  -6   9  -5   44.56    9.82
   6  -9   5   43.98    9.68
   6  -9   6   18.81    7.29
  -6   8   9   -0.90    4.11
   6  -8  -9    0.64    3.48
  -6   8   8    5.49    5.12
   6  -8  -8    5.62    4.38
  -6   8   7    9.05    5.27
   6  -8  -7    6.84    4.23
  -6   8   6    3.89    4.44
   6  -8  -6    3.92    3.76
  -6   8   5   58.20   10.69
   6  -8  -5   65.67   10.73
  -6   8   4   71.37   11.51
   6  -8  -4   78.05   11.70
  -6   8   3   28.51    6.96
  -6   8   3   34.96    8.30
   6  -8  -3   32.78    7.96
  -6   8   2    2.55    3.51
  -6   8   2   11.93    5.25
   6  -8  -2    7.48    4.43
  -6   8   1   48.59    9.15
  -6   8   1   54.62    9.48
   6  -8  -1   60.33   10.19
  -6   8   0    4.49    4.34
  -6   8   0    2.50    3.25
   6  -8   0    7.99    4.68
  -6   8  -1   70.97   11.13
   6  -8   1   53.10    9.86
  -6   8  -2   83.81   12.42
   6  -8   2   81.21   12.14
   6  -8   2   82.40    9.27
  -6   8  -3   42.93    9.10
   6  -8   3   47.84    9.63
   6  -8   3   43.41    7.98
  -6   8  -4    2.17    3.48
   6  -8   4    1.37    3.74
  -6   8  -5   42.00    9.19
   6  -8   5   49.45   10.03
  -6   8  -6   62.90   11.25
   6  -8   6   63.52   11.38
   6  -8   7    2.82    4.19
  -6   7  10    6.86    5.87
   6  -7 -10   19.06    6.70
  -6   7   9    8.37    6.08
   6  -7  -9   -1.04    2.75
  -6   7   8   65.04   11.89
   6  -7  -8   61.93   10.47
  -6   7   7  106.37   13.00
   6  -7  -7  123.68   12.27
  -6   7   6   39.20    9.14
   6  -7  -6   50.54    9.42
  -6   7   5   12.50    5.81
   6  -7  -5    7.08    4.07
  -6   7   4   95.73   11.26
   6  -7  -4  109.34   11.28
  -6   7   3    3.09    3.35
  -6   7   3    2.52    3.52
   6  -7  -3    1.19    2.94
  -6   7   2    6.56    4.25
  -6   7   2    3.59    3.41
   6  -7  -2    9.73    4.64
  -6   7   1  123.07   11.45
  -6   7   1  130.67   12.09
   6  -7  -1  125.63   12.25
  -6   7   0  144.62   12.52
   6  -7   0  123.84   12.13
  -6   7  -1    0.63    3.29
   6  -7   1    1.02    3.02
   6  -7   1    0.16    2.58
  -6   7  -2   65.30   10.49
   6  -7   2   69.51   11.11
   6  -7   2   68.66    9.78
  -6   7  -3   91.89   10.86
   6  -7   3   93.55   11.16
   6  -7   3   97.59    9.89
  -6   7  -4    2.32    3.62
   6  -7   4   10.28    4.98
   6  -7   4    4.99    3.57
  -6   7  -5   51.78   10.12
   6  -7   5   50.08    9.86
   6  -7   5   51.90    8.43
  -6   7  -6  140.43   13.80
   6  -7   6  102.88   11.94
  -6   7  -7   36.06    8.76
   6  -7   7   41.76    9.16
  -6   7  -8    2.09    4.08
  -6   6  10  109.51   16.01
   6  -6 -10  113.34   12.17
  -6   6   9   62.02   12.15
   6  -6  -9   57.89    9.93
  -6   6   8    2.34    4.31
   6  -6  -8    1.86    3.32
  -6   6   7   48.57   10.60
   6  -6  -7   37.58    8.01
  -6   6   6   42.74    9.43
   6  -6  -6   96.27   10.63
  -6   6   5    0.84    3.41
   6  -6  -5    0.98    2.54
  -6   6   4  160.31   14.20
   6  -6  -4  168.33   13.53
  -6   6   3  226.03   13.66
  -6   6   3  177.65   14.48
   6  -6  -3  219.49   15.24
  -6   6   2   35.83    7.09
  -6   6   2   18.49    5.93
   6  -6  -2   27.94    6.88
  -6   6   1   75.97    8.73
  -6   6   1   67.66   10.16
   6  -6  -1   77.30    9.41
  -6   6   0  251.60   15.39
   6  -6   0  230.54   15.67
   6  -6   0  240.28   15.51
  -6   6  -1   47.71    8.58
   6  -6   1   44.41    8.42
   6  -6   1   42.88    7.96
  -6   6  -2  106.44   10.69
   6  -6   2  103.32   10.92
   6  -6   2   96.91    9.90
  -6   6  -3  203.84   14.80
   6  -6   3  172.57   14.09
   6  -6   3  188.80   13.24
  -6   6  -4  122.96   11.92
   6  -6   4  125.03   12.29
   6  -6   4  136.85   11.23
  -6   6  -5    0.12    3.17
   6  -6   5   -2.00    2.67
   6  -6   5   -0.30    2.24
  -6   6  -6  117.94   12.34
   6  -6   6  103.96   11.74
   6  -6   6  116.97   10.62
  -6   6  -7   90.67   11.21
   6  -6   7   80.35   12.09
   6  -6   7   87.79    9.50
  -6   6  -8    1.45    3.87
  -6   6  -9  115.62   12.80
   6  -5 -11    2.39    3.64
  -6   5  10   53.58   11.45
   6  -5 -10   57.77   10.29
  -6   5   9   72.35   12.92
   6  -5  -9   87.83   10.63
  -6   5   8   -1.55    3.32
   6  -5  -8    2.52    3.60
  -6   5   7  101.63   14.70
   6  -5  -7  131.96   12.21
  -6   5   6  185.63   16.06
   6  -5  -6  244.32   16.10
  -6   5   5   82.11   12.37
   6  -5  -5   78.91    9.35
  -6   5   4   79.95   11.94
   6  -5  -4   94.20    9.99
  -6   5   3  370.99   16.11
  -6   5   3  333.01   19.40
   6  -5  -3  345.98   18.25
  -6   5   2   40.33    6.91
  -6   5   2   35.87    7.84
   6  -5  -2   42.99    7.98
  -6   5   1   12.82    4.49
   6  -5  -1    8.69    4.04
  -6   5   0  338.07   16.69
   6  -5   0  319.03   17.45
   6  -5   0  337.99   17.99
  -6   5  -1  288.83   15.83
   6  -5   1  276.59   16.36
   6  -5   1  253.58   15.41
  -6   5  -2    1.92    3.06
   6  -5   2    0.46    2.44
   6  -5   2   -0.23    2.48
  -6   5  -3  118.38   11.09
   6  -5   3  140.92   12.19
   6  -5   3  135.95   11.13
  -6   5  -4  163.36   13.04
   6  -5   4  153.69   12.93
   6  -5   4  153.87   11.91
  -6   5  -5    7.78    4.26
   6  -5   5    3.28    3.41
   6  -5   5    3.86    3.31
  -6   5  -6  121.27   12.00
   6  -5   6  137.27   12.56
   6  -5   6  127.16   11.13
  -6   5  -7  361.28   20.47
   6  -5   7  333.23   19.34
   6  -5   7  380.95   18.85
  -6   5  -8  112.06   12.16
   6  -5   8  115.80   11.00
  -6   5  -9    9.10    5.47
  -6   5 -10  109.75   12.51
  -6   4  11    4.99    5.63
   6  -4 -11   16.04    6.22
  -6   4  10   63.44   12.41
   6  -4 -10   51.07    9.62
  -6   4   9  160.55   15.89
   6  -4  -9  215.67   15.90
  -6   4   8   38.74    9.41
   6  -4  -8   59.71    9.73
  -6   4   7   24.81    7.59
   6  -4  -7   41.90    8.07
  -6   4   6  152.89   14.64
   6  -4  -6  193.13   14.17
  -6   4   5  173.79   14.96
   6  -4  -5  198.83   13.90
  -6   4   4    5.84    4.40
   6  -4  -4    3.48    2.93
  -6   4   3  412.90   15.60
  -6   4   3  372.04   20.22
   6  -4  -3  373.34   18.27
  -6   4   2  415.04   16.27
  -6   4   2  385.02   20.00
   6  -4  -2  425.75   19.29
  -6   4   1   45.10    6.95
   6  -4  -1   41.33    7.45
   6  -4  -1   42.91    8.06
  -6   4   0   89.48    8.34
   6  -4   0   89.30    9.00
   6  -4   0   84.44    9.21
  -6   4  -1  301.25   15.30
   6  -4   1  283.00   15.65
   6  -4   1  281.82   16.02
  -6   4  -2   43.76    7.43
   6  -4   2   38.21    7.42
   6  -4   2   34.52    6.98
  -6   4  -3  213.03   13.67
   6  -4   3  205.37   13.74
   6  -4   3  213.39   13.72
  -6   4  -4  508.04   21.45
   6  -4   4  512.45   21.62
   6  -4   4  513.45   21.09
  -6   4  -5  347.41   18.32
   6  -4   5  289.19   16.66
   6  -4   5  328.11   17.05
  -6   4  -6   26.94    6.63
   6  -4   6   16.10    5.54
   6  -4   6   19.58    5.78
  -6   4  -7  209.69   15.19
   6  -4   7  187.84   14.09
   6  -4   7  192.83   13.72
  -6   4  -8  118.37   12.00
   6  -4   8  131.31   11.78
  -6   4  -9    2.88    4.17
   6  -4   9    4.67    3.87
  -6   4 -10  210.46   16.28
   6  -4  10  233.53   15.91
  -6   4 -11  175.70   15.24
  -6   3  11   72.71   13.21
   6  -3 -11   65.32   11.09
   6  -3 -11   77.51   12.06
  -6   3  10    4.46    4.80
   6  -3 -10    9.74    5.01
   6  -3 -10    9.37    4.95
  -6   3   9  132.00   14.49
   6  -3  -9  155.05   13.69
   6  -3  -9  144.50   12.91
  -6   3   8  132.44   14.07
   6  -3  -8  179.58   14.15
   6  -3  -8  186.38   14.02
  -6   3   7    2.66    4.39
   6  -3  -7    0.94    2.76
   6  -3  -7    6.64    3.97
  -6   3   6  258.97   18.34
   6  -3  -6  302.75   17.23
   6  -3  -6  312.01   15.91
  -6   3   5  350.85   20.73
   6  -3  -5  401.14   19.17
   6  -3  -5  448.73   17.72
  -6   3   4   70.61   11.01
   6  -3  -4   87.65    9.02
   6  -3  -4   87.44    7.61
  -6   3   3   84.40    6.87
  -6   3   3   83.46    9.97
   6  -3  -3   77.53    8.37
  -6   3   2  305.26   12.99
  -6   3   2  292.31   17.22
   6  -3  -2  313.88   15.91
  -6   3   1   48.77    5.81
   6  -3  -1   42.64    7.07
   6  -3  -1   49.96    8.62
  -6   3   0   80.07    7.33
   6  -3   0  105.57    9.17
   6  -3   0   81.92    8.90
  -6   3  -1  613.16   20.32
   6  -3   1  640.95   21.94
   6  -3   1  599.39   22.66
  -6   3  -2  310.59   15.14
   6  -3   2  331.24   15.87
   6  -3   2  330.19   16.80
  -6   3  -3    2.54    2.70
   6  -3   3    0.42    2.14
   6  -3   3    3.94    2.97
  -6   3  -4  188.56   12.62
   6  -3   4  195.91   12.66
   6  -3   4  220.30   13.90
  -6   3  -5  217.15   13.95
   6  -3   5  203.15   13.11
   6  -3   5  225.30   14.25
  -6   3  -6    0.99    2.61
   6  -3   6   -0.95    2.41
   6  -3   6    2.41    2.90
  -6   3  -7  227.70   15.20
   6  -3   7  208.68   14.22
  -6   3  -8  445.39   21.47
   6  -3   8  404.84   20.01
  -6   3  -9  122.02   11.96
   6  -3   9  120.76   11.60
  -6   3 -10   13.13    5.73
   6  -3  10   14.09    5.69
  -6   3 -11  166.58   14.35
   6  -3  11  149.32   13.48
   6  -3  12   25.28    7.23
  -6   2  11   95.03   14.71
  -6   2  11   91.35   11.16
   6  -2 -11  103.50   12.24
  -6   2  10    5.03    5.13
   6  -2 -10    7.09    4.38
   6  -2 -10    2.75    4.06
  -6   2   9  131.86   14.32
   6  -2  -9  148.36   13.37
   6  -2  -9  160.79   13.80
   6  -2  -8  285.42   17.58
   6  -2  -8  292.00   17.56
  -6   2   7   73.29   11.88
   6  -2  -7   95.99   10.26
   6  -2  -7  119.85   11.05
  -6   2   6   37.04    8.64
   6  -2  -6   43.27    7.83
   6  -2  -6   43.58    7.64
  -6   2   5  219.87   16.30
   6  -2  -5  253.76   15.14
   6  -2  -5  274.82   14.57
  -6   2   4  101.12   11.12
   6  -2  -4  128.39   10.53
   6  -2  -4  123.44    9.42
  -6   2   3   24.51    4.25
  -6   2   3   14.91    5.33
   6  -2  -3   23.05    5.52
   6  -2  -3   24.38    4.86
  -6   2   2  507.82   15.57
  -6   2   2  498.74   21.84
   6  -2  -2  550.68   20.07
   6  -2  -2  542.30   15.86
  -6   2   1  475.01   15.77
   6  -2  -1  484.57   18.38
   6  -2  -1  477.09   13.20
   6  -2  -1  473.55   20.74
  -6   2   0   43.70    5.39
   6  -2   0   40.57    6.59
   6  -2   0   45.42    7.76
  -6   2  -1  119.04    8.72
   6  -2   1  115.38    8.97
   6  -2   1  117.36   10.08
  -6   2  -2  234.61   12.56
   6  -2   2  261.98   13.13
   6  -2   2  259.07   14.67
  -6   2  -3    8.59    3.44
   6  -2   3    5.39    3.02
   6  -2   3    8.72    3.81
  -6   2  -4  239.42   13.53
   6  -2   4  275.85   13.66
   6  -2   4  272.76   15.34
  -6   2  -5  656.19   22.95
   6  -2   5  709.36   22.03
   6  -2   5  688.45   24.42
  -6   2  -6  309.28   16.42
   6  -2   6  296.95   14.73
   6  -2   6  310.51   16.93
  -6   2  -7   40.42    7.46
   6  -2   7   54.02    9.19
  -6   2  -8  160.77   12.63
   6  -2   8  175.95   13.67
  -6   2  -9  113.60   11.19
   6  -2   9  120.89   11.68
  -6   2 -10    1.09    3.20
   6  -2  10    0.33    2.98
  -6   2 -11  194.93   15.03
   6  -2  11  210.71   15.95
   6  -2  12  140.13   13.59
   6  -1 -11  206.26   16.81
  -6   1  10   96.97   11.20
  -6   1  10   97.19   14.36
  -6   1  10  104.93   11.82
   6  -1 -10   97.30   11.56
  -6   1   9    2.92    4.46
   6  -1  -9    7.26    4.22
   6  -1  -9   11.04    5.11
  -6   1   8  147.14   14.42
   6  -1  -8  163.51   13.46
   6  -1  -8  194.65   14.76
  -6   1   7  128.46   13.36
   6  -1  -7  159.79   12.85
   6  -1  -7  174.60   13.49
  -6   1   6    7.32    5.03
   6  -1  -6   16.83    5.12
   6  -1  -6   21.83    5.84
  -6   1   5  380.99   20.77
   6  -1  -5  454.67   19.89
   6  -1  -5  481.72   19.84
  -6   1   4  452.90   21.84
   6  -1  -4  529.23   20.60
   6  -1  -4  597.80   20.87
  -6   1   3   66.05    5.39
  -6   1   3   70.85   10.50
   6  -1  -3   64.63    7.24
   6  -1  -3   71.56    7.31
  -6   1   2   43.66    4.76
  -6   1   2   47.93    8.48
   6  -1  -2   52.58    6.46
   6  -1  -2   60.40    6.31
  -6   1   1  254.15   11.13
   6  -1  -1  269.53   13.20
   6  -1  -1  278.74   11.67
   6  -1  -1  280.36   15.82
  -6   1   0   55.08    5.20
  -6   1   0   54.64    5.67
   6  -1   0   70.15    6.89
   6  -1   0   68.28    8.04
  -6   1  -1  201.10    8.44
  -6   1  -1  201.19   10.71
   6  -1   1  225.32   11.44
   6  -1   1  220.73   13.41
  -6   1  -2  815.73   15.84
  -6   1  -2  692.79   20.44
   6  -1   2  793.33   20.69
   6  -1   2  775.47   24.73
  -6   1  -3  264.79    9.14
  -6   1  -3  221.91   12.11
   6  -1   3  250.45   11.68
   6  -1   3  237.99   13.93
  -6   1  -4    1.08    1.59
  -6   1  -4    1.35    2.08
   6  -1   4   -1.08    1.57
   6  -1   4    1.48    2.52
  -6   1  -5  217.95    9.37
  -6   1  -5  209.14   12.69
   6  -1   5  230.14   11.41
   6  -1   5  218.67   14.06
  -6   1  -6  291.78   11.65
  -6   1  -6  283.36   15.08
   6  -1   6  278.51   16.16
  -6   1  -7    1.11    2.62
   6  -1   7    5.00    3.50
  -6   1  -8  198.73   13.48
   6  -1   8  180.24   13.85
  -6   1  -9  244.92   15.34
   6  -1   9  229.81   15.97
  -6   1 -10   75.54   10.65
   6  -1  10   81.54   11.91
  -6   1 -11   19.09    5.99
   6  -1  11   13.43    5.74
   6  -1  12  159.10   14.60
  -6   0  10  103.57   11.66
  -6   0  10  101.19   11.47
   6   0 -10  119.02   12.68
  -6   0   9    0.50    2.86
  -6   0   9    1.68    4.32
  -6   0   9    1.26    3.30
   6   0  -9    0.78    3.06
  -6   0   8  162.53   14.59
   6   0  -8  244.98   16.79
  -6   0   7  222.29   16.50
   6   0  -7  276.69   16.78
   6   0  -7  301.39   17.85
  -6   0   6  147.87   13.40
   6   0  -6  187.07   13.37
   6   0  -6  183.51   13.58
  -6   0   5   24.79    6.77
   6   0  -5   32.48    6.62
   6   0  -5   33.90    6.81
  -6   0   4  254.01   16.17
   6   0  -4  290.12   15.30
   6   0  -4  312.73   15.84
  -6   0   3   87.74    5.99
  -6   0   3   90.70    9.71
   6   0  -3   88.14    8.35
   6   0  -3   96.47    8.71
  -6   0   2   42.47    4.63
  -6   0   2   47.48    8.04
   6   0  -2   49.94    7.14
   6   0  -2   50.90    7.25
  -6   0   1  534.35   15.67
   6   0  -1  548.02   18.08
   6   0  -1  577.30   18.26
   6   0  -1  586.89   22.10
  -6   0   0  542.94   16.49
   6   0   0  611.68   18.15
   6   0   0  616.52   17.88
   6   0   0  618.01   22.14
  -6   0  -1   36.92    5.30
  -6   0  -1   43.01    5.15
   6   0   1   39.20    4.82
   6   0   1   44.57    7.36
  -6   0  -2  325.83   12.06
  -6   0  -2  289.14   13.02
   6   0   2  310.28   11.90
   6   0   2  288.49   14.97
  -6   0  -3  303.30   11.53
  -6   0  -3  260.40   12.85
   6   0   3  305.64   11.42
   6   0   3  296.03   15.33
  -6   0  -4    6.27    2.55
  -6   0  -4    9.55    3.47
   6   0   4    8.84    2.62
   6   0   4    7.74    3.59
  -6   0  -5  230.34   10.64
  -6   0  -5  206.76   12.18
   6   0   5  219.91    9.63
   6   0   5  238.53   14.54
  -6   0  -6  596.31   17.72
  -6   0  -6  522.04   19.82
   6   0   6  549.65   22.47
  -6   0  -7  160.95    9.90
  -6   0  -7  160.63   11.50
   6   0   7  151.24   12.47
  -6   0  -8   54.13    6.47
  -6   0  -8   48.19    7.91
   6   0   8   64.78   10.11
  -6   0  -9  146.40   10.62
  -6   0  -9  136.48   11.34
   6   0   9  151.38   13.38
  -6   0 -10  126.91   10.30
  -6   0 -10  109.83   10.53
   6   0  10  117.27   12.26
  -6   0 -11    2.65    3.45
   6   0  11   -0.44    3.06
   6   0  12  159.99   14.72
  -6  -1  10  213.31   16.65
  -6  -1  10  238.74   17.54
   6   1 -10  239.30   17.90
  -6  -1   9  110.68   11.89
  -6  -1   9  109.36   11.75
   6   1  -9  122.37   12.71
  -6  -1   8    8.22    4.27
  -6  -1   8   10.13    4.74
   6   1  -8   15.26    5.74
  -6  -1   7  145.53   12.43
  -6  -1   7  122.25   12.20
  -6  -1   7  153.08   12.80
   6   1  -7  166.50   13.78
  -6  -1   6   93.04   10.55
   6   1  -6  131.14   11.84
  -6  -1   5   14.01    5.27
   6   1  -5   19.17    5.26
   6   1  -5   16.41    5.11
  -6  -1   4  442.93   20.62
   6   1  -4  496.05   19.88
   6   1  -4  546.51   21.70
  -6  -1   3  556.36   22.27
   6   1  -3  592.54   20.60
   6   1  -3  636.11   22.45
  -6  -1   2   31.63    6.53
   6   1  -2   26.35    5.21
   6   1  -2   40.20    6.81
   6   1  -1   79.90    7.11
   6   1  -1   86.26    7.99
   6   1  -1   90.20    8.94
   6   1   0  437.45   14.91
   6   1   0  456.47   16.85
   6   1   0  437.47   18.26
  -6  -1  -1   51.28    5.98
  -6  -1  -1   54.04    5.74
   6   1   1   48.34    4.97
   6   1   1   48.26    7.58
  -6  -1  -2  230.69   11.44
  -6  -1  -2  212.80   11.22
   6   1   2  228.11    9.53
   6   1   2  224.00   12.97
  -6  -1  -3  576.49   17.73
  -6  -1  -3  526.87   18.06
   6   1   3  560.39   13.77
   6   1   3  543.72   20.34
  -6  -1  -4  124.05    8.62
  -6  -1  -4  104.80    8.57
   6   1   4  122.03    6.23
   6   1   4  127.22   10.36
  -6  -1  -5   13.28    3.77
  -6  -1  -5   10.20    3.66
   6   1   5   11.21    4.40
  -6  -1  -6  195.23   11.09
  -6  -1  -6  171.18   11.31
   6   1   6  189.07   13.47
  -6  -1  -7  234.95   12.63
  -6  -1  -7  211.13   12.95
   6   1   7  218.66   14.98
  -6  -1  -8    8.70    3.70
  -6  -1  -8    4.94    3.00
   6   1   8   10.52    4.69
  -6  -1  -9  184.91   12.27
  -6  -1  -9  180.35   12.68
   6   1   9  177.22   14.43
  -6  -1 -10  195.67   13.09
  -6  -1 -10  190.61   13.30
   6   1  10  203.74   16.00
  -6  -1 -11   52.87    8.64
  -6  -1 -11   41.30    7.95
   6   1  11   45.73    9.67
  -6  -1 -12   22.83    6.30
   6   1  12   20.87    7.11
   6   1  13   91.62   13.85
   6   2 -10   57.16   10.74
  -6  -2   9   67.67   11.04
  -6  -2   9   79.29   11.89
   6   2  -9   58.73   10.61
  -6  -2   8   11.30    5.10
  -6  -2   8   11.09    5.37
   6   2  -8   12.92    5.63
  -6  -2   7  190.52   14.32
  -6  -2   7  188.53   14.23
   6   2  -7  217.48   15.96
  -6  -2   6  157.84   12.55
  -6  -2   6  154.31   12.85
  -6  -2   6  186.91   13.62
   6   2  -6  198.12   14.73
  -6  -2   5  107.04   10.03
  -6  -2   5   98.95   10.24
  -6  -2   5  109.80   10.20
   6   2  -5  116.37   11.15
  -6  -2   4   42.65    7.90
   6   2  -4   58.96    9.12
  -6  -2   3  275.84   15.35
   6   2  -3  264.28   13.97
   6   2  -3  296.60   16.18
   6   2  -3  282.33   11.39
  -6  -2   2   81.93    8.46
   6   2  -2   77.70    7.32
   6   2  -2   96.54    9.21
   6   2  -2   89.42    6.95
   6   2  -1   34.51    5.63
   6   2  -1   38.71    6.83
   6   2  -1   31.31    5.20
   6   2  -1   37.49    6.77
   6   2   0  312.03   12.55
   6   2   0  325.09   15.35
   6   2   0  328.17   13.55
   6   2   0  323.89   15.31
  -6  -2  -1  301.51   14.45
   6   2   1  311.33   11.59
   6   2   1  314.55   13.65
   6   2   1  310.98   14.88
  -6  -2  -2   13.62    4.09
   6   2   2   15.85    3.19
   6   2   2   13.87    4.03
   6   2   2   14.61    4.55
  -6  -2  -3  243.53   12.72
   6   2   3  222.57    8.12
   6   2   3  253.41   12.87
   6   2   3  237.00   13.46
  -6  -2  -4  147.20   10.06
   6   2   4  143.66    5.83
   6   2   4  146.63   10.96
  -6  -2  -5    0.57    1.99
  -6  -2  -5    0.90    1.94
   6   2   5   -0.82    1.88
  -6  -2  -6  228.47   12.84
  -6  -2  -6  185.86   11.84
   6   2   6  262.41   15.70
  -6  -2  -7  380.61   16.85
  -6  -2  -7  340.78   16.23
   6   2   7  357.70   19.07
  -6  -2  -8   98.68    9.26
  -6  -2  -8   80.51    8.26
   6   2   8   92.52   10.33
  -6  -2  -9   35.15    6.78
  -6  -2  -9   29.07    6.31
   6   2   9   30.48    7.54
  -6  -2 -10  102.11   10.07
  -6  -2 -10   91.99    9.35
   6   2  10   93.77   11.36
  -6  -2 -11   55.53    9.11
  -6  -2 -11   55.92    8.86
   6   2  11   40.00    9.30
  -6  -2 -12   20.67    6.21
   6   2  12   14.95    6.20
  -6  -2 -13  121.67   11.93
   6   2  13  117.67   13.56
  -6  -2 -14   79.60   11.71
  -6  -3   9  118.68   12.53
   6   3  -9  155.94   14.62
  -6  -3   8   47.33    9.23
   6   3  -8   56.24   10.15
  -6  -3   7   20.61    5.97
  -6  -3   7   18.97    5.90
   6   3  -7   16.76    5.96
  -6  -3   6  102.56   10.61
  -6  -3   6   88.94    9.97
   6   3  -6  105.55   11.25
  -6  -3   5   68.66    8.32
  -6  -3   5   60.53    9.15
   6   3  -5   80.95    9.77
  -6  -3   4    3.22    2.96
  -6  -3   4    2.90    3.11
  -6  -3   4    3.89    3.00
   6   3  -4    1.90    2.64
  -6  -3   3  256.01   14.01
  -6  -3   3  245.09   13.90
  -6  -3   3  277.80   14.56
   6   3  -3  313.84   17.24
   6   3  -3  284.43   12.44
  -6  -3   2  275.95   13.76
  -6  -3   2  292.97   14.76
  -6  -3   2  269.34   13.57
   6   3  -2  326.64   17.02
   6   3  -2  294.61   13.09
  -6  -3   1   19.77    4.41
  -6  -3   1   21.93    4.68
   6   3  -1   21.18    5.36
   6   3  -1   15.65    4.16
   6   3  -1   18.98    4.93
   6   3   0   46.06    7.44
   6   3   0   43.23    6.48
   6   3   0   47.28    7.18
  -6  -3  -1  158.80   11.38
   6   3   1  189.32   11.23
   6   3   1  175.01   10.98
  -6  -3  -2    1.47    2.24
   6   3   2    1.11    1.47
   6   3   2    1.51    1.90
   6   3   2    1.47    2.34
  -6  -3  -3   91.63    8.58
   6   3   3  105.25    8.80
   6   3   3   97.03    8.77
  -6  -3  -4  239.92   13.63
   6   3   4  248.72   13.40
   6   3   4  251.41   13.98
  -6  -3  -5   75.53    8.06
   6   3   5   68.86    7.40
   6   3   5   67.98    8.09
  -6  -3  -6    8.91    3.84
   6   3   6    3.56    3.16
  -6  -3  -7   74.42    8.30
  -6  -3  -7   70.40    7.80
   6   3   7   79.03   11.12
  -6  -3  -8   71.32    8.35
  -6  -3  -8   62.30    7.38
   6   3   8   79.51   11.49
  -6  -3  -9    4.80    3.56
  -6  -3  -9    5.04    3.16
   6   3   9    8.09    4.68
  -6  -3 -10  104.69   10.45
  -6  -3 -10  100.00    9.66
   6   3  10  101.07   11.61
  -6  -3 -11  128.02   11.72
  -6  -3 -11  124.02   10.83
   6   3  11  128.80   13.40
  -6  -3 -12   25.25    6.88
   6   3  12   17.00    6.64
  -6  -3 -13    4.16    4.31
   6   3  13    6.27    4.76
  -6  -3 -14    7.42    4.85
  -6  -4   8   33.85    8.16
   6   4  -8   36.87    8.45
  -6  -4   7    4.58    3.91
   6   4  -7    4.33    4.02
  -6  -4   6   91.56   10.11
   6   4  -6  102.41   11.37
  -6  -4   5  115.46   10.94
   6   4  -5  116.88   11.76
  -6  -4   4   39.11    7.27
  -6  -4   4   33.38    6.82
   6   4  -4   49.66    9.02
  -6  -4   3   34.90    6.66
  -6  -4   3   23.79    5.62
   6   4  -3   35.16    7.47
   6   4  -3   37.47    6.24
  -6  -4   2   63.27    7.04
  -6  -4   2   75.81    7.57
  -6  -4   2   67.56    7.35
   6   4  -2   74.69    8.76
   6   4  -2   88.26    8.06
  -6  -4   1   21.91    4.79
  -6  -4   1   20.98    4.90
   6   4  -1   28.39    6.57
   6   4  -1   25.14    5.41
  -6  -4   0   15.61    3.81
  -6  -4   0   16.02    3.94
   6   4   0   13.10    4.53
   6   4   0   16.84    4.54
   6   4   0   13.62    4.20
  -6  -4  -1  117.94    7.65
  -6  -4  -1  111.18   10.23
  -6  -4  -1  126.55    7.89
   6   4   1  131.19    9.98
   6   4   1  126.11    9.11
  -6  -4  -2   73.96    5.54
  -6  -4  -2   78.00    8.65
  -6  -4  -2   81.59    5.77
   6   4   2   92.14    8.65
   6   4   2   86.92    7.81
  -6  -4  -3   16.82    2.95
  -6  -4  -3   18.69    5.29
   6   4   3   12.04    4.06
   6   4   3   20.30    4.97
  -6  -4  -4   29.38    6.56
   6   4   4   22.44    5.30
   6   4   4   38.19    6.71
  -6  -4  -5   62.77    9.19
   6   4   5   47.58    7.62
   6   4   5   62.31    9.09
  -6  -4  -6   -1.17    2.05
   6   4   6    0.09    2.04
   6   4   6   -1.47    2.12
  -6  -4  -7  117.11   10.70
   6   4   7  129.10   10.52
   6   4   7  132.51   11.83
  -6  -4  -8  140.92   11.72
   6   4   8  159.25   13.41
  -6  -4  -9   82.96    9.59
  -6  -4  -9   97.67    9.36
   6   4   9   90.53   10.89
  -6  -4 -10    0.17    2.72
  -6  -4 -10    0.04    2.68
   6   4  10    1.11    3.50
  -6  -4 -11   20.10    6.24
  -6  -4 -11   21.62    5.75
   6   4  11   17.49    6.40
  -6  -4 -12    2.19    3.60
  -6  -4 -12    1.43    3.12
   6   4  12    2.24    3.77
  -6  -4 -13   17.33    6.41
   6   4  13   25.94    8.07
  -6  -4 -14   33.16    8.11
  -6  -5   8   52.58    9.81
   6   5  -8   60.72   10.70
  -6  -5   7   25.90    7.18
   6   5  -7   29.77    7.81
  -6  -5   6    8.12    4.61
   6   5  -6    6.51    4.26
  -6  -5   5   35.73    7.48
   6   5  -5   40.70    8.40
  -6  -5   4   26.81    6.46
   6   5  -4   25.11    6.78
  -6  -5   3    8.32    3.73
   6   5  -3   13.59    5.25
   6   5  -3   16.57    4.92
  -6  -5   2   88.16    8.47
   6   5  -2   96.96   10.33
   6   5  -2  122.93   10.11
  -6  -5   1   91.28    8.21
   6   5  -1   88.70    9.65
   6   5  -1  105.38    9.43
  -6  -5   0   11.45    3.58
   6   5   0   18.87    5.45
   6   5   0   20.32    5.49
   6   5   0   16.41    4.15
  -6  -5  -1   10.45    3.26
  -6  -5  -1   10.78    4.47
   6   5   1   18.24    5.35
   6   5   1   12.17    3.75
  -6  -5  -2   25.36    4.28
  -6  -5  -2   24.09    6.11
   6   5   2   24.40    5.73
   6   5   2   23.68    5.06
  -6  -5  -3   24.18    3.82
  -6  -5  -3   19.81    5.63
   6   5   3   18.81    5.36
   6   5   3   23.37    5.15
  -6  -5  -4   16.81    5.39
   6   5   4   25.97    6.18
   6   5   4   28.18    5.86
  -6  -5  -5  124.81   11.09
   6   5   5  127.62   10.67
   6   5   5  134.24   10.65
  -6  -5  -6   70.69    8.65
   6   5   6   82.58    8.95
   6   5   6   81.23    9.03
  -6  -5  -7    0.19    2.49
   6   5   7    1.92    2.58
   6   5   7   -0.40    2.66
  -6  -5  -8    2.20    3.20
   6   5   8    2.13    2.57
   6   5   8   -2.18    2.77
  -6  -5  -9   -0.29    2.55
   6   5   9    0.40    2.94
  -6  -5 -10    3.11    3.58
  -6  -5 -10    8.76    4.13
   6   5  10    9.25    5.27
  -6  -5 -11   18.97    6.10
  -6  -5 -11   18.37    5.65
   6   5  11   19.38    6.77
  -6  -5 -12   54.44    9.89
  -6  -5 -12   44.11    7.96
   6   5  12   48.92   10.75
  -6  -5 -13    4.93    4.62
   6   5  13    8.06    5.48
  -6  -6   7    3.84    4.03
   6   6  -7    3.41    3.75
  -6  -6   6    2.68    3.45
   6   6  -6    0.01    3.17
  -6  -6   5   40.93    8.16
   6   6  -5   45.61    9.00
  -6  -6   4   28.34    6.77
   6   6  -4   40.15    8.38
  -6  -6   3    5.11    3.53
   6   6  -3    8.71    4.63
   6   6  -3    3.69    3.45
  -6  -6   2    8.27    3.78
   6   6  -2    5.83    3.92
   6   6  -2    6.71    3.97
  -6  -6   1    0.05    2.20
   6   6  -1    0.79    2.87
   6   6  -1    2.77    3.21
  -6  -6   0    0.82    2.14
   6   6   0    0.99    2.80
   6   6   0   -0.53    2.35
  -6  -6  -1   14.02    3.92
  -6  -6  -1   15.87    5.32
   6   6   1   20.81    5.84
  -6  -6  -2   87.92    7.00
  -6  -6  -2   91.63   10.09
   6   6   2   97.90   10.04
   6   6   2   93.02    7.59
  -6  -6  -3   21.57    5.92
   6   6   3   25.85    6.36
   6   6   3   25.99    5.24
  -6  -6  -4   19.33    5.78
   6   6   4   27.69    6.70
   6   6   4   26.74    5.64
  -6  -6  -5    7.21    3.93
   6   6   5    4.58    3.54
   6   6   5    7.54    3.52
  -6  -6  -6   -0.20    2.55
   6   6   6   -0.08    2.37
   6   6   6    1.15    2.84
  -6  -6  -7   10.11    4.83
   6   6   7   14.25    5.09
   6   6   7   11.38    4.81
  -6  -6  -8   56.02    9.76
   6   6   8   54.62    9.03
   6   6   8   56.48    9.93
  -6  -6  -9   16.60    5.97
   6   6   9   21.31    5.81
   6   6   9   13.61    5.81
  -6  -6 -10   27.89    7.04
   6   6  10   26.04    6.34
   6   6  10   21.30    6.91
  -6  -6 -11   -0.64    2.84
  -6  -6 -11    1.45    2.86
   6   6  11   -0.24    3.37
  -6  -6 -12    1.25    3.44
  -6  -6 -12   -0.56    2.69
   6   6  12   -1.50    2.99
  -6  -6 -13    0.84    3.73
   6   6  13    3.10    4.44
  -6  -7   6    9.49    4.93
   6   7  -6    7.65    4.99
  -6  -7   5   -0.43    2.95
   6   7  -5   -0.73    2.62
  -6  -7   4    0.12    2.82
   6   7  -4    1.54    3.12
  -6  -7   3    0.15    2.79
   6   7  -3   -1.25    2.29
   6   7  -3   -1.58    2.79
  -6  -7   2   33.91    6.89
   6   7  -2   52.47    9.52
   6   7  -2   43.51    8.42
  -6  -7   1   20.01    5.23
   6   7  -1   33.36    7.75
   6   7  -1   28.06    7.03
  -6  -7   0   33.53    6.34
   6   7   0   30.43    7.14
  -6  -7  -1   25.27    5.24
  -6  -7  -1   18.98    6.08
   6   7   1   23.76    6.40
  -6  -7  -2    1.27    2.13
  -6  -7  -2    2.43    3.02
   6   7   2    1.87    2.81
  -6  -7  -3    8.45    4.28
   6   7   3    6.68    4.25
  -6  -7  -4   44.89    8.72
   6   7   4   45.82    8.49
   6   7   4   54.92    6.72
  -6  -7  -5    5.98    3.96
   6   7   5    8.30    4.13
   6   7   5    6.01    3.61
  -6  -7  -6   21.73    6.37
   6   7   6   19.16    5.83
   6   7   6   24.16    6.08
  -6  -7  -7    3.88    3.75
   6   7   7    8.61    4.49
   6   7   7    1.99    3.17
  -6  -7  -8    1.49    3.07
   6   7   8    1.14    2.85
   6   7   8   -0.06    3.13
  -6  -7  -9   15.56    5.67
   6   7   9   19.26    5.98
   6   7   9   13.51    5.86
  -6  -7 -10   15.69    5.84
   6   7  10   24.42    6.35
   6   7  10   24.64    7.39
  -6  -7 -11    1.29    3.39
   6   7  11   14.72    5.49
   6   7  11    1.97    3.76
  -6  -7 -12   -0.75    2.66
   6   7  12    1.80    3.81
  -6  -7 -13   -1.65    3.31
   6   7  13   -0.66    3.97
  -6  -8   6    8.98    4.99
  -6  -8   5    2.49    3.84
   6   8  -5    6.29    4.39
  -6  -8   4    8.69    4.51
   6   8  -4    9.90    4.93
  -6  -8   3    5.47    3.95
   6   8  -3    2.12    3.22
   6   8  -3    4.23    3.95
  -6  -8   2    6.69    4.07
   6   8  -2    2.70    3.37
   6   8  -2    6.02    4.25
  -6  -8   1    9.86    4.29
   6   8  -1   13.24    5.28
   6   8  -1   19.36    6.40
  -6  -8   0   47.16    7.80
  -6  -8   0   44.00    8.76
   6   8   0   49.04    9.31
  -6  -8  -1    7.12    3.44
  -6  -8  -1    3.77    3.50
   6   8   1    3.27    3.80
  -6  -8  -2   -0.75    2.71
   6   8   2   -0.20    2.60
  -6  -8  -3   11.69    5.14
   6   8   3   10.05    4.92
  -6  -8  -4    1.91    2.98
   6   8   4   -0.74    2.85
  -6  -8  -5   14.91    5.56
   6   8   5   16.62    5.87
  -6  -8  -6   30.23    7.49
   6   8   6   43.65    8.92
   6   8   6   29.64    6.51
  -6  -8  -7   26.77    7.23
   6   8   7   24.00    6.71
   6   8   7   19.52    5.81
  -6  -8  -8    6.80    4.33
   6   8   8   13.04    5.44
   6   8   8   14.36    5.48
  -6  -8  -9   -1.26    2.64
   6   8   9   -0.31    2.66
   6   8   9    0.99    3.32
  -6  -8 -10    3.31    3.85
   6   8  10   11.81    4.99
   6   8  10    5.53    4.20
  -6  -8 -11   -0.97    3.02
   6   8  11    0.23    3.41
   6   8  11    0.64    4.02
  -6  -8 -12   11.51    5.84
   6   8  12    6.11    5.24
   6   8  13   13.00    6.40
  -6  -9   5    4.79    4.31
  -6  -9   4   17.69    6.11
   6   9  -4   19.69    6.75
  -6  -9   3   17.85    6.04
   6   9  -3   23.72    6.93
   6   9  -3   28.64    7.80
  -6  -9   2    5.76    4.08
   6   9  -2   10.90    5.26
   6   9  -2    5.80    4.78
  -6  -9   1    2.83    3.33
   6   9  -1    4.35    4.02
   6   9  -1    5.23    4.49
  -6  -9   0    5.24    3.50
  -6  -9   0    6.79    4.44
   6   9   0    2.21    3.65
  -6  -9  -1    2.00    2.70
  -6  -9  -1    0.17    2.87
   6   9   1    3.00    3.97
  -6  -9  -2   20.84    6.60
   6   9   2   19.54    6.51
  -6  -9  -3   36.95    8.33
   6   9   3   47.87    9.72
  -6  -9  -4   36.85    8.41
   6   9   4   33.28    7.90
  -6  -9  -5   20.54    6.44
   6   9   5   29.79    7.80
  -6  -9  -6    7.85    4.57
   6   9   6    5.67    4.21
  -6  -9  -7   13.07    5.55
   6   9   7    9.10    4.80
  -6  -9  -8    1.39    3.47
   6   9   8    2.14    3.71
   6   9   8    2.80    3.61
  -6  -9  -9   11.87    5.63
   6   9   9    8.30    4.54
   6   9   9    5.99    4.41
  -6  -9 -10   48.38    9.90
   6   9  10   59.88    9.93
   6   9  10   49.95    9.82
  -6  -9 -11   17.31    6.56
   6   9  11   13.04    5.44
   6   9  11   14.41    6.11
  -6  -9 -12    1.21    3.65
   6   9  12    1.23    4.18
  -6 -10   4    1.18    3.79
  -6 -10   3    7.55    4.65
   6  10  -3    3.60    4.28
  -6 -10   2    6.05    4.39
   6  10  -2    9.01    5.44
   6  10  -2   14.69    6.23
  -6 -10   1    8.38    4.51
  -6 -10   1    2.15    3.69
   6  10  -1    1.93    4.25
  -6 -10   0   57.42    9.14
  -6 -10   0   48.41    9.69
   6  10   0   43.63    9.77
  -6 -10  -1   68.71   11.33
   6  10   1   80.10   12.68
  -6 -10  -2   18.21    6.08
   6  10   2   11.40    5.43
  -6 -10  -3    1.34    3.37
   6  10   3   15.29    6.13
  -6 -10  -4   20.14    6.37
   6  10   4   22.36    7.05
  -6 -10  -5   11.99    5.30
   6  10   5   11.61    5.32
  -6 -10  -6   17.47    6.10
   6  10   6   13.29    5.72
  -6 -10  -7   53.22   10.12
   6  10   7   59.94   10.76
  -6 -10  -8   31.11    8.09
   6  10   8   32.50    8.13
  -6 -10  -9    0.01    2.92
   6  10   9    0.39    3.44
  -6 -10 -10   34.12    8.21
   6  10  10   38.12    8.56
  -6 -10 -11   16.21    6.44
   6  10  11   29.19    7.49
   6  10  11   19.63    6.94
   6  10  12    1.93    4.41
  -6 -11   2   70.11   10.96
   6  11  -2   69.61   12.28
  -6 -11   1   13.29    5.57
  -6 -11   1   18.32    6.54
   6  11  -1   21.97    7.46
  -6 -11   0    3.75    3.83
   6  11   0    1.05    4.13
  -6 -11  -1   31.20    7.92
   6  11   1   34.29    8.83
  -6 -11  -2   22.01    6.84
   6  11   2   15.89    6.25
  -6 -11  -3    5.44    4.41
   6  11   3    8.40    5.09
  -6 -11  -4   63.05   11.10
   6  11   4   55.05   10.64
  -6 -11  -5   64.45   11.13
   6  11   5   53.70   10.90
  -6 -11  -6    8.30    4.89
   6  11   6    5.34    4.78
  -6 -11  -7   32.01    8.44
   6  11   7   25.53    7.69
  -6 -11  -8   50.73   10.09
   6  11   8   46.56    9.86
  -6 -11  -9    3.16    3.87
   6  11   9    5.18    4.61
  -6 -11 -10   36.78    8.85
   6  11  10   35.95    8.65
   6  11  11  100.29   11.70
   6  12   0   -1.35    3.79
  -6 -12  -1   42.51    9.27
   6  12   1   27.78    8.38
  -6 -12  -2   91.24   11.34
   6  12   2   84.34   13.56
  -6 -12  -3   19.97    6.70
   6  12   3   23.62    7.80
  -6 -12  -4   35.37    8.79
   6  12   4   20.89    7.57
  -6 -12  -5   88.78   12.98
   6  12   5   90.71   13.95
  -6 -12  -6   17.50    6.34
   6  12   6   13.62    6.15
  -6 -12  -7   44.56    9.74
   6  12   7   35.77    9.04
  -6 -12  -8  120.52   13.21
   6  12   8  113.69   13.13
  -6 -12  -9   87.05   13.24
   6  12   9   65.19   11.53
   6  12  10    0.12    3.84
  -6 -13  -5  134.83   13.88
  -7  11   4   41.02    9.37
  -7  11   3  122.54   13.19
  -7  11   2   39.76    9.01
  -7  11   1    8.53    5.61
  -7  10   6  148.92   15.28
  -7  10   5   51.18   10.46
   7 -10  -5   55.45   10.81
  -7  10   4    3.54    4.62
   7 -10  -4    3.11    4.42
  -7  10   3   83.71   12.58
   7 -10  -3  130.08   13.68
  -7  10   2   95.13   11.44
  -7  10   2   79.30   11.85
   7 -10  -2   84.09   13.00
  -7  10   1   -0.96    3.37
  -7  10   1    0.24    3.68
   7 -10  -1    0.33    3.59
  -7  10   0   83.35   12.56
   7 -10   0   89.67   13.25
  -7  10  -1   93.81   11.69
   7 -10   1  101.57   12.43
   7 -10   2    2.92    4.22
  -7   9   7   -0.01    3.85
   7  -9  -7    0.58    3.39
  -7   9   6   86.32   13.28
   7  -9  -6   98.13   13.88
  -7   9   5   75.12   12.42
   7  -9  -5  103.03   12.00
  -7   9   4    4.09    4.28
   7  -9  -4    1.26    3.42
  -7   9   3   50.35    9.85
   7  -9  -3   48.73    9.74
  -7   9   2  108.34   11.77
  -7   9   2   95.64   11.43
   7  -9  -2  108.61   12.27
  -7   9   1   35.35    8.15
  -7   9   1   33.82    7.93
   7  -9  -1   44.99    9.63
  -7   9   0   38.51    8.73
  -7   9   0   43.75    9.01
   7  -9   0   45.71    9.83
  -7   9  -1  115.47   12.62
  -7   9  -1  110.60   11.39
   7  -9   1  105.05   12.23
  -7   9  -2   61.04   11.04
   7  -9   2   52.78   10.29
  -7   9  -3   -1.00    3.40
   7  -9   3    4.72    4.54
   7  -9   4  110.39   12.88
   7  -9   5   56.58   11.05
  -7   8   8   37.27    9.83
   7  -8  -8   72.83   11.97
  -7   8   7    2.57    4.60
   7  -8  -7   13.37    5.71
  -7   8   6   50.06   10.72
   7  -8  -6   44.91    9.25
  -7   8   5   86.48   13.08
   7  -8  -5  116.17   12.52
  -7   8   4   18.99    6.60
   7  -8  -4   20.98    6.47
  -7   8   3    6.66    4.38
  -7   8   3    5.18    4.52
   7  -8  -3    2.47    3.74
  -7   8   2  122.15   11.83
  -7   8   2  121.34   12.42
   7  -8  -2  133.85   13.18
  -7   8   1  103.14   10.99
  -7   8   1   90.38   10.59
   7  -8  -1  103.88   11.90
  -7   8   0    1.35    3.31
  -7   8   0   -0.12    2.90
   7  -8   0    1.72    3.31
  -7   8  -1   64.57   10.50
   7  -8   1   54.12   10.28
  -7   8  -2   76.75   11.73
   7  -8   2   76.42   11.81
   7  -8   2   76.84   10.99
  -7   8  -3    0.10    3.40
   7  -8   3   -0.87    3.31
   7  -8   3    1.54    3.50
  -7   8  -4   39.85    9.15
   7  -8   4   37.54    8.73
   7  -8   4   51.09    9.10
  -7   8  -5   81.11   12.57
   7  -8   5   81.35   12.63
   7  -8   6   12.04    6.05
  -7   7   8   51.41   11.19
   7  -7  -8   54.41   10.24
  -7   7   7   27.09    8.27
   7  -7  -7   34.92    8.45
  -7   7   6    0.71    3.46
   7  -7  -6    3.08    3.79
  -7   7   5  103.56   12.56
   7  -7  -5   99.96   11.22
  -7   7   4   97.18   13.83
   7  -7  -4  108.41   11.64
  -7   7   3    0.36    3.00
  -7   7   3    1.84    3.75
   7  -7  -3    0.85    2.88
  -7   7   2   52.95    8.91
  -7   7   2   47.97    9.37
   7  -7  -2   45.06    9.11
  -7   7   1   97.20   10.45
  -7   7   1   89.51   10.65
   7  -7  -1   89.76   10.71
  -7   7   0   19.87    6.09
  -7   7   0   16.81    5.75
   7  -7   0   21.64    6.49
  -7   7  -1   41.22    8.57
   7  -7   1   38.46    8.51
   7  -7   1   32.20    7.46
  -7   7  -2   85.40   10.50
   7  -7   2   88.96   10.86
   7  -7   2   82.57    9.71
  -7   7  -3   31.07    7.64
   7  -7   3   34.91    8.15
   7  -7   3   33.93    7.53
  -7   7  -4    3.08    3.78
   7  -7   4   -0.63    2.85
   7  -7   4    1.46    3.19
  -7   7  -5   37.69    8.51
   7  -7   5   32.82    8.29
   7  -7   5   40.95    8.07
  -7   7  -6   30.76    7.94
   7  -7   6   34.62    8.62
  -7   7  -7    1.74    4.17
  -7   6   9    1.64    4.31
   7  -6  -9    3.93    4.06
  -7   6   8   52.04   10.85
   7  -6  -8   53.13    9.91
  -7   6   7   44.62   10.13
   7  -6  -7   61.26   10.31
  -7   6   6    7.87    4.97
   7  -6  -6    7.15    4.20
  -7   6   5   25.27    7.65
   7  -6  -5   24.42    6.55
  -7   6   4   97.56   11.76
   7  -6  -4   84.77   10.13
  -7   6   3   10.62    4.62
  -7   6   3    6.59    4.50
   7  -6  -3   17.65    5.66
  -7   6   2   13.44    4.83
  -7   6   2    3.88    4.09
   7  -6  -2   13.87    5.16
  -7   6   1   94.10    9.82
  -7   6   1  103.80   11.20
   7  -6  -1   96.09   10.62
  -7   6   0   76.14    9.15
   7  -6   0   62.29   10.06
   7  -6   0   68.80   10.75
  -7   6  -1   -0.18    2.95
   7  -6   1    0.04    2.81
   7  -6   1   -1.76    2.56
  -7   6  -2   35.09    7.50
   7  -6   2   37.16    8.08
   7  -6   2   27.43    6.77
  -7   6  -3   36.19    7.93
   7  -6   3   38.31    8.32
   7  -6   3   42.48    8.09
  -7   6  -4    0.44    3.31
   7  -6   4    0.97    2.96
   7  -6   4    4.06    3.50
  -7   6  -5   40.13    8.46
   7  -6   5   32.95    7.92
   7  -6   5   34.87    7.38
  -7   6  -6   29.90    7.77
   7  -6   6   29.10    7.50
   7  -6   6   25.38    6.65
  -7   6  -7    0.79    3.20
   7  -6   7    0.78    3.21
  -7   6  -8   12.30    6.11
  -7   5   9    1.02    4.51
   7  -5  -9   14.44    5.95
  -7   5   8    7.36    5.38
   7  -5  -8    6.15    4.21
  -7   5   7   30.95    8.59
   7  -5  -7   32.16    7.76
  -7   5   6    7.49    4.94
   7  -5  -6   18.60    6.11
  -7   5   5    7.91    5.04
   7  -5  -5   12.30    4.91
  -7   5   4   59.50   10.69
   7  -5  -4   77.62    9.52
  -7   5   3   65.81    7.46
  -7   5   3   72.92   11.65
   7  -5  -3   71.31   10.47
  -7   5   2    8.99    4.10
  -7   5   2    9.56    4.72
   7  -5  -2    6.10    3.83
  -7   5   1   42.46    7.47
  -7   5   1   36.77    7.99
   7  -5  -1   43.18    8.13
  -7   5   0   59.99    8.87
   7  -5   0   77.38    9.36
   7  -5   0   66.40   10.30
  -7   5  -1    1.20    2.89
   7  -5   1    1.44    2.83
   7  -5   1    1.53    2.84
  -7   5  -2   18.75    5.72
   7  -5   2   10.59    4.81
   7  -5   2   11.52    4.79
  -7   5  -3   36.28    7.49
   7  -5   3   27.82    6.95
   7  -5   3   29.63    7.01
  -7   5  -4    1.22    2.97
   7  -5   4    0.44    2.86
   7  -5   4    1.21    2.87
  -7   5  -5   13.82    5.21
   7  -5   5   20.54    6.14
   7  -5   5   26.39    6.56
  -7   5  -6   19.72    6.51
   7  -5   6   12.22    5.24
   7  -5   6   32.89    7.45
  -7   5  -7   24.25    7.11
   7  -5   7   23.15    6.35
  -7   5  -8    1.36    3.66
   7  -5   8    2.31    3.51
  -7   5  -9   11.31    5.81
   7  -5   9    6.53    4.50
  -7   4  10    8.55    5.81
  -7   4   9    2.61    4.78
   7  -4  -9    5.98    4.30
  -7   4   8    0.03    3.71
   7  -4  -8    1.84    3.14
  -7   4   7   21.35    7.20
   7  -4  -7   21.14    6.16
  -7   4   6   28.07    8.10
   7  -4  -6   33.80    7.40
  -7   4   5    0.36    3.27
   7  -4  -5    2.28    2.83
  -7   4   4   16.13    6.11
   7  -4  -4    5.68    3.51
  -7   4   3   46.64    7.02
  -7   4   3   50.21    9.59
   7  -4  -3   47.83    8.31
  -7   4   2    9.41    3.99
  -7   4   2    5.60    4.18
   7  -4  -2   11.02    4.65
  -7   4   1   10.21    3.95
   7  -4  -1   12.74    4.69
   7  -4  -1    5.28    3.73
  -7   4   0   14.90    4.58
   7  -4   0   19.34    5.55
   7  -4   0   25.23    6.67
  -7   4  -1    0.10    2.50
   7  -4   1    0.70    2.26
   7  -4   1    0.30    2.63
  -7   4  -2    5.70    3.62
   7  -4   2    5.88    3.69
   7  -4   2    6.20    3.73
  -7   4  -3   10.07    4.28
   7  -4   3   13.66    4.78
   7  -4   3   16.79    5.32
  -7   4  -4   15.16    5.33
   7  -4   4   14.19    4.91
   7  -4   4   12.57    4.80
  -7   4  -5    3.19    3.16
   7  -4   5   -0.62    2.60
   7  -4   5    1.35    2.95
  -7   4  -6    8.52    4.60
   7  -4   6    5.80    3.96
  -7   4  -7    4.80    4.13
   7  -4   7    3.27    3.45
  -7   4  -8   -1.58    2.99
   7  -4   8    1.52    3.31
  -7   4  -9    0.67    3.44
   7  -4   9   -1.09    3.05
  -7   4 -10    1.29    3.94
   7  -4  10    9.19    5.20
  -7   3  10    5.47    5.57
  -7   3   9    1.80    4.43
   7  -3  -9    8.32    4.92
  -7   3   8    3.02    4.14
   7  -3  -8    4.93    3.84
  -7   3   7    2.04    3.89
   7  -3  -7    3.15    3.23
  -7   3   6   11.41    5.92
   7  -3  -6    8.67    4.05
  -7   3   5    2.11    3.99
   7  -3  -5    2.87    3.20
  -7   3   4    2.92    3.54
   7  -3  -4    0.16    2.39
  -7   3   3    0.62    2.22
  -7   3   3    0.77    2.99
   7  -3  -3    0.62    2.22
  -7   3   2   -0.65    1.85
  -7   3   2    0.31    2.48
   7  -3  -2    0.47    2.44
  -7   3   1    1.90    2.31
   7  -3  -1   -0.45    1.98
   7  -3  -1   -0.05    2.48
  -7   3   0   15.18    4.41
   7  -3   0   13.97    4.50
   7  -3   0   12.34    5.00
  -7   3  -1   10.51    3.95
   7  -3   1   11.78    4.43
   7  -3   1   10.71    4.65
  -7   3  -2   -0.52    2.13
   7  -3   2    0.01    2.38
   7  -3   2   -0.22    2.41
  -7   3  -3    1.84    2.61
   7  -3   3    2.30    2.81
   7  -3   3    3.12    3.23
  -7   3  -4    0.96    2.63
   7  -3   4   -1.68    2.13
   7  -3   4   -0.29    2.21
  -7   3  -5   -0.08    2.33
   7  -3   5    0.36    2.39
   7  -3   5    2.68    3.23
  -7   3  -6    9.68    4.30
   7  -3   6    5.25    3.55
  -7   3  -7    0.95    3.00
   7  -3   7   -1.46    2.37
  -7   3  -8   -0.93    2.43
   7  -3   8    1.05    2.91
  -7   3  -9   -2.15    2.95
   7  -3   9    0.16    2.87
  -7   3 -10   -2.18    3.13
   7  -3  10   -1.07    3.15
  -7   3 -11   -1.16    3.76
   7  -3  11    0.58    3.80
  -7   2  10   -0.66    4.37
   7  -2 -10   -0.67    3.42
  -7   2   9    0.04    3.98
   7  -2  -9    3.66    3.76
   7  -2  -9    4.14    3.96
  -7   2   8   -1.19    3.76
   7  -2  -8   -1.88    2.25
   7  -2  -8    2.65    3.41
  -7   2   7    2.57    4.26
   7  -2  -7    6.89    4.07
   7  -2  -7    3.40    3.50
  -7   2   6    1.90    3.71
   7  -2  -6    2.90    3.06
  -7   2   5    0.14    3.42
   7  -2  -5    1.75    2.72
  -7   2   4    5.75    4.05
   7  -2  -4    6.38    3.69
  -7   2   3    0.30    1.89
  -7   2   3    0.79    3.19
   7  -2  -3   -1.69    1.85
  -7   2   2    0.39    1.79
  -7   2   2    1.73    2.97
   7  -2  -2    0.19    1.97
  -7   2   1    5.13    2.81
   7  -2  -1    4.24    3.20
   7  -2  -1    3.82    3.43
  -7   2   0    3.58    2.58
   7  -2   0    2.92    2.61
   7  -2   0    1.00    2.87
  -7   2  -1    3.22    2.54
   7  -2   1    3.30    2.62
   7  -2   1    4.74    3.58
  -7   2  -2   10.06    3.79
   7  -2   2    5.09    2.89
   7  -2   2    8.66    4.11
  -7   2  -3    2.89    2.82
   7  -2   3    3.23    2.71
   7  -2   3    1.11    2.70
  -7   2  -4    4.91    3.08
   7  -2   4    7.54    3.41
   7  -2   4   12.94    4.61
  -7   2  -5   -1.28    2.02
   7  -2   5   -1.10    2.04
   7  -2   5    1.86    2.95
  -7   2  -6    1.48    2.67
   7  -2   6   -0.95    2.51
  -7   2  -7    5.68    3.90
   7  -2   7    5.13    3.78
  -7   2  -8    1.14    2.64
   7  -2   8   -0.10    2.88
  -7   2  -9   -0.80    2.78
   7  -2   9    2.72    3.25
  -7   2 -10    0.92    3.59
   7  -2  10    3.95    4.11
  -7   2 -11    7.93    5.17
   7  -2  11    8.47    5.22
  -7   2 -12   -0.73    3.76
  -7   1  10   -1.10    4.16
   7  -1 -10    1.44    3.80
  -7   1   9    7.89    5.55
   7  -1  -9    7.41    4.57
   7  -1  -9    4.16    4.21
  -7   1   8    4.47    4.89
   7  -1  -8   12.94    5.14
   7  -1  -8    8.57    4.89
  -7   1   7   -4.99    2.64
   7  -1  -7   -1.66    1.78
   7  -1  -7    0.53    2.98
  -7   1   6    0.68    3.15
   7  -1  -6   -0.23    2.22
   7  -1  -6   -1.46    2.55
  -7   1   5    0.93    3.69
   7  -1  -5    0.78    2.39
   7  -1  -5    0.66    2.74
  -7   1   4   -1.18    2.84
   7  -1  -4    0.48    2.21
   7  -1  -4    0.30    2.47
  -7   1   3    1.38    1.88
  -7   1   3   -1.54    2.49
   7  -1  -3   -0.47    2.07
   7  -1  -3    2.13    2.72
  -7   1   2   20.44    4.17
  -7   1   2   24.80    6.67
   7  -1  -2   28.01    5.93
   7  -1  -2   18.76    4.55
  -7   1   1    8.46    3.15
   7  -1  -1    9.31    3.65
   7  -1  -1   12.24    4.90
  -7   1   0    1.57    2.06
   7  -1   0    0.76    2.04
   7  -1   0    3.48    3.22
  -7   1  -1    8.27    3.24
   7  -1   1    9.81    3.51
   7  -1   1   10.45    4.41
  -7   1  -2   14.17    4.24
   7  -1   2   18.53    4.42
   7  -1   2   21.72    5.88
  -7   1  -3   -0.44    1.77
   7  -1   3   -0.18    1.96
   7  -1   3    0.74    2.53
  -7   1  -4   21.40    5.30
   7  -1   4   18.98    4.41
   7  -1   4   22.96    5.95
  -7   1  -5   19.55    5.17
   7  -1   5   20.70    6.04
  -7   1  -6   -0.07    2.04
   7  -1   6    0.96    2.77
  -7   1  -7   21.66    5.92
   7  -1   7   13.43    5.01
  -7   1  -8   20.13    5.95
   7  -1   8   23.15    6.61
  -7   1  -9   17.57    5.53
   7  -1   9   31.83    7.69
  -7   1 -10    0.74    2.80
   7  -1  10    0.66    3.58
  -7   1 -11   11.45    5.35
   7  -1  11   15.76    6.28
  -7   1 -12    8.80    5.13
   7  -1  12    6.59    4.80
   7   0 -10    1.49    3.91
  -7   0   9   -0.64    2.90
  -7   0   9    0.61    3.16
   7   0  -9   -0.82    3.32
  -7   0   8    4.55    4.80
   7   0  -8    6.29    4.31
  -7   0   7   10.88    5.92
   7   0  -7   10.15    4.76
   7   0  -7    9.70    4.85
  -7   0   6   -0.29    3.25
   7   0  -6    1.11    2.34
   7   0  -6    2.76    3.33
  -7   0   5   19.34    6.42
   7   0  -5   23.04    5.88
   7   0  -5   26.87    6.49
  -7   0   4   21.90    6.40
   7   0  -4   24.74    5.89
   7   0  -4   34.99    6.96
  -7   0   3    8.14    2.86
  -7   0   3    4.51    3.81
   7   0  -3    7.94    3.59
   7   0  -3    9.30    3.96
  -7   0   2   15.77    3.75
  -7   0   2   12.21    4.90
   7   0  -2   17.24    4.69
   7   0  -2   19.27    5.00
  -7   0   1   56.47    5.96
   7   0  -1   66.89    7.00
   7   0  -1   66.72    7.15
   7   0  -1   56.33    8.96
  -7   0   0    4.36    2.76
  -7   0   0    4.95    2.67
   7   0   0    6.77    3.04
   7   0   0    6.84    3.89
  -7   0  -1   30.92    5.11
  -7   0  -1   32.71    5.70
   7   0   1   37.37    5.74
   7   0   1   47.52    8.03
  -7   0  -2   29.64    4.99
  -7   0  -2   28.98    5.57
   7   0   2   33.42    5.29
   7   0   2   35.03    7.04
  -7   0  -3   14.74    3.64
  -7   0  -3    5.10    3.10
   7   0   3    7.60    2.87
   7   0   3    6.30    3.66
  -7   0  -4   14.03    4.41
   7   0   4   21.42    4.08
   7   0   4   19.09    5.50
  -7   0  -5   71.77    7.96
   7   0   5   81.55    9.35
  -7   0  -6   52.58    8.14
   7   0   6   53.95    9.01
  -7   0  -7    5.42    3.56
   7   0   7    5.09    3.77
  -7   0  -8   30.88    6.80
   7   0   8   37.19    8.23
  -7   0  -9   28.69    6.75
   7   0   9   35.37    8.07
  -7   0 -10   -0.75    2.56
   7   0  10    4.90    4.21
  -7   0 -11   26.21    6.89
   7   0  11   26.33    7.65
  -7   0 -12   41.45    8.57
   7   0  12   35.35    8.76
  -7  -1   9   -2.63    2.96
  -7  -1   9    0.68    3.34
   7   1  -9    0.04    3.50
  -7  -1   8   10.57    4.85
  -7  -1   8   16.50    5.91
   7   1  -8   17.54    6.26
  -7  -1   7   45.75    8.58
  -7  -1   7   37.63    8.65
  -7  -1   7   51.38    9.11
   7   1  -7   52.95    9.66
  -7  -1   6    8.95    5.18
   7   1  -6    9.81    4.49
  -7  -1   5   14.54    5.62
   7   1  -5   15.28    4.94
   7   1  -5   22.88    6.07
  -7  -1   4   55.09    9.55
   7   1  -4   65.59    7.86
   7   1  -4   75.96    8.93
  -7  -1   3   28.63    6.87
   7   1  -3   38.71    6.98
   7   1  -3   27.18    6.32
  -7  -1   2   10.78    3.33
  -7  -1   2    9.45    4.35
   7   1  -2    9.58    3.74
   7   1  -2   10.02    4.10
  -7  -1   1   68.12    6.48
   7   1  -1   81.63    7.55
   7   1  -1   80.12    8.19
   7   1  -1   85.97    9.28
  -7  -1   0   17.97    4.24
   7   1   0   16.52    4.07
   7   1   0   23.34    5.86
  -7  -1  -1    1.91    2.37
  -7  -1  -1    2.80    2.31
   7   1   1   -0.41    1.63
   7   1   1    2.68    3.03
  -7  -1  -2  111.69    8.57
  -7  -1  -2  129.59    9.59
   7   1   2  128.10    8.01
   7   1   2  137.63   11.20
  -7  -1  -3  173.39   10.48
  -7  -1  -3  159.45   10.78
   7   1   3  183.43    8.89
   7   1   3  182.35   12.81
  -7  -1  -4   12.63    3.80
  -7  -1  -4    9.68    3.63
   7   1   4   11.49    4.56
  -7  -1  -5   31.65    5.65
  -7  -1  -5   23.50    5.49
   7   1   5   25.35    6.25
  -7  -1  -6  132.93    9.47
  -7  -1  -6  118.63   10.23
   7   1   6  123.02   11.52
  -7  -1  -7   16.63    4.59
  -7  -1  -7   10.68    4.19
   7   1   7    5.75    3.87
  -7  -1  -8   46.54    7.24
  -7  -1  -8   44.01    7.83
   7   1   8   37.03    8.21
  -7  -1  -9   78.85    9.11
   7   1   9   80.82   11.96
  -7  -1 -10   32.77    7.20
   7   1  10   39.62    8.75
  -7  -1 -11    9.24    4.71
   7   1  11    7.88    5.09
  -7  -1 -12   94.75   10.61
   7   1  12   81.15   12.94
   7   2  -9    8.61    5.19
  -7  -2   8    9.99    5.33
  -7  -2   8    9.01    4.78
   7   2  -8   10.37    5.17
  -7  -2   7   67.73   10.45
  -7  -2   7   57.52    9.65
   7   2  -7   70.23   11.20
  -7  -2   6   22.34    6.11
  -7  -2   6   16.52    5.41
   7   2  -6   28.20    7.03
  -7  -2   5    0.41    2.56
  -7  -2   5   -1.59    2.76
  -7  -2   5    1.90    2.64
   7   2  -5   -0.15    2.75
  -7  -2   4   53.65    9.05
   7   2  -4   69.44   10.28
  -7  -2   3   66.20    9.73
   7   2  -3   84.67    8.61
   7   2  -3   91.40    9.80
  -7  -2   2    5.35    3.62
   7   2  -2    2.59    2.44
   7   2  -2    2.04    2.89
   7   2  -2    4.71    2.51
   7   2  -1  137.38    9.68
   7   2  -1  125.64   10.56
   7   2  -1  128.75    8.96
   7   2  -1  123.66   10.74
   7   2   0  231.94   11.68
   7   2   0  239.42   14.00
   7   2   0  240.97   12.42
   7   2   0  209.87   13.54
  -7  -2  -1   62.78    7.36
   7   2   1   59.80    6.01
   7   2   1   53.23    6.28
   7   2   1   56.42    8.39
  -7  -2  -2   74.60    7.74
   7   2   2   71.15    5.88
   7   2   2   70.37    7.24
   7   2   2   69.32    7.97
  -7  -2  -3  143.55   10.42
  -7  -2  -3  139.60   10.24
   7   2   3  139.07    7.35
   7   2   3  165.03   12.04
  -7  -2  -4   46.36    7.29
  -7  -2  -4   36.84    6.55
   7   2   4   40.48    7.46
  -7  -2  -5    9.38    3.77
  -7  -2  -5    8.79    3.73
   7   2   5    8.77    4.25
  -7  -2  -6  154.73   10.96
  -7  -2  -6  151.71   11.35
   7   2   6  146.37   12.41
  -7  -2  -7  109.96    9.62
  -7  -2  -7   94.23    9.41
   7   2   7  106.95   11.00
  -7  -2  -8    8.62    3.99
  -7  -2  -8    5.59    3.50
   7   2   8    4.30    3.81
  -7  -2  -9  163.89   12.06
  -7  -2  -9  137.42   11.60
   7   2   9  142.87   13.42
  -7  -2 -10  139.19   11.43
  -7  -2 -10  111.06   10.68
   7   2  10  123.01   13.09
  -7  -2 -11   11.76    4.91
  -7  -2 -11    5.45    4.03
   7   2  11   10.24    5.30
  -7  -2 -12   48.05    8.83
   7   2  12   64.10   11.54
  -7  -3   8    0.27    3.00
   7   3  -8   -0.54    2.90
  -7  -3   7   43.35    8.78
  -7  -3   7   37.98    8.32
   7   3  -7   43.64    9.02
  -7  -3   6   55.26    9.34
  -7  -3   6   59.00    9.75
   7   3  -6   62.50   10.34
  -7  -3   5    1.51    2.87
  -7  -3   5    0.24    2.81
   7   3  -5   -0.79    2.92
  -7  -3   4  127.62   11.08
  -7  -3   4  117.03   10.65
   7   3  -4  133.88   12.21
  -7  -3   3  212.60   13.40
  -7  -3   3  217.11   14.12
  -7  -3   3  227.57   13.83
   7   3  -3  241.95   15.74
  -7  -3   2   37.66    6.66
  -7  -3   2   34.41    6.86
  -7  -3   2   35.65    6.43
   7   3  -2   32.88    6.90
   7   3  -2   39.51    6.21
   7   3  -1   45.69    8.07
   7   3  -1   49.14    6.11
   7   3  -1   51.08    7.96
   7   3   0  159.50   12.13
   7   3   0  180.67   11.31
   7   3   0  153.62   11.32
  -7  -3  -1   78.71    8.71
   7   3   1   73.96    6.47
   7   3   1   86.84    8.13
   7   3   1   73.93    8.12
  -7  -3  -2    3.63    3.11
   7   3   2    2.97    2.06
   7   3   2    2.87    2.63
   7   3   2    1.60    2.74
  -7  -3  -3  155.61   11.38
   7   3   3  170.25   11.65
   7   3   3  180.55   12.48
  -7  -3  -4  128.29   10.53
   7   3   4  142.92   10.92
   7   3   4  152.65   11.72
  -7  -3  -5    1.14    2.57
   7   3   5    1.79    2.82
  -7  -3  -6  133.47   10.89
  -7  -3  -6  130.80   10.79
   7   3   6  120.20   11.18
  -7  -3  -7  238.53   14.39
  -7  -3  -7  214.57   13.86
   7   3   7  228.85   15.84
  -7  -3  -8   44.24    7.90
  -7  -3  -8   39.73    7.61
   7   3   8   36.30    8.18
  -7  -3  -9   57.76    9.13
  -7  -3  -9   52.43    8.66
   7   3   9   52.15   10.05
  -7  -3 -10  162.43   12.79
  -7  -3 -10  152.32   12.43
   7   3  10  173.54   15.26
  -7  -3 -11   35.61    7.74
  -7  -3 -11   22.82    6.41
   7   3  11   17.92    6.50
  -7  -3 -12   19.01    6.02
  -7  -3 -12   30.76    7.18
   7   3  12   23.66    7.67
  -7  -3 -13  136.08   12.71
   7   4  -8   13.03    5.80
  -7  -4   7   50.19    9.52
   7   4  -7   70.75   11.53
  -7  -4   6  150.57   13.11
   7   4  -6  174.76   14.93
  -7  -4   5   34.38    7.40
  -7  -4   5   35.05    7.46
   7   4  -5   31.57    7.53
  -7  -4   4    9.65    4.22
  -7  -4   4    5.32    3.61
   7   4  -4   13.33    5.21
  -7  -4   3  157.24   11.74
  -7  -4   3  153.40   11.59
   7   4  -3  166.49   13.63
  -7  -4   2  128.33   10.21
  -7  -4   2  135.31   10.48
   7   4  -2  141.79   12.35
   7   4  -2  146.20   10.29
  -7  -4   1    6.39    3.12
  -7  -4   1    4.07    3.12
  -7  -4   1    8.42    3.44
   7   4  -1    4.91    3.29
   7   4  -1    8.19    3.42
  -7  -4   0  134.70    9.25
  -7  -4   0  132.79    9.20
   7   4   0  153.40   12.49
   7   4   0  150.74   10.93
   7   4   0  149.46   10.85
  -7  -4  -1  139.19    8.71
  -7  -4  -1  149.53   12.19
  -7  -4  -1  149.05    9.01
   7   4   1  162.42   11.54
   7   4   1  143.69   10.60
  -7  -4  -2   14.98    3.37
  -7  -4  -2   16.85    5.27
  -7  -4  -2   16.67    3.59
   7   4   2   16.97    4.85
   7   4   2   20.16    5.19
  -7  -4  -3  115.79   10.69
   7   4   3  113.37   10.06
   7   4   3  117.93   10.04
  -7  -4  -4  314.16   17.00
   7   4   4  331.98   16.89
   7   4   4  339.49   17.02
  -7  -4  -5   59.21    9.16
   7   4   5   68.58    8.04
   7   4   5   65.21    9.54
  -7  -4  -6   35.16    7.28
   7   4   6   33.40    6.75
   7   4   6   29.95    6.90
  -7  -4  -7  181.13   13.28
   7   4   7  173.28   13.84
  -7  -4  -8   98.03   10.24
  -7  -4  -8   86.82    9.28
   7   4   8   95.32   10.80
  -7  -4  -9   45.37    8.56
  -7  -4  -9   49.44    8.57
   7   4   9   53.26   10.00
  -7  -4 -10  200.45   14.71
  -7  -4 -10  183.18   13.54
   7   4  10  185.39   15.67
  -7  -4 -11  116.60   11.70
  -7  -4 -11  103.30   10.51
   7   4  11  108.62   12.55
  -7  -4 -12    8.42    4.82
  -7  -4 -12    7.53    4.46
   7   4  12    6.91    4.88
  -7  -5   7    4.18    4.21
   7   5  -7    5.82    4.59
  -7  -5   6  114.21   11.90
   7   5  -6  114.99   12.62
  -7  -5   5   99.49   10.68
   7   5  -5   99.16   11.41
  -7  -5   4   -0.72    2.55
   7   5  -4    5.04    3.90
  -7  -5   3   94.21    9.56
   7   5  -3  103.00   11.13
  -7  -5   2  222.05   13.59
   7   5  -2  229.70   16.14
   7   5  -2  259.45   14.51
  -7  -5   1   21.81    5.10
   7   5  -1   19.14    6.14
   7   5  -1   33.08    6.62
  -7  -5   0  101.86    8.48
   7   5   0  108.75   11.05
   7   5   0  116.04   10.27
  -7  -5  -1  260.66   12.26
  -7  -5  -1  280.43   17.09
   7   5   1  291.23   15.97
   7   5   1  281.27   14.11
  -7  -5  -2  185.94   14.03
   7   5   2  198.76   13.52
   7   5   2  196.25   12.13
  -7  -5  -3    6.22    4.03
   7   5   3   10.53    4.28
   7   5   3   11.35    4.21
  -7  -5  -4  244.12   15.76
   7   5   4  246.42   15.20
   7   5   4  248.39   14.35
  -7  -5  -5   98.89   10.25
   7   5   5  107.81   10.23
   7   5   5  106.75   10.14
  -7  -5  -6    6.59    3.90
   7   5   6   11.75    4.52
   7   5   6    6.99    3.87
  -7  -5  -7  177.27   13.64
   7   5   7  199.57   13.92
   7   5   7  183.00   14.15
  -7  -5  -8  192.89   14.32
   7   5   8  188.66   13.65
   7   5   8  189.20   14.80
  -7  -5  -9   23.86    6.56
  -7  -5  -9   18.67    5.56
   7   5   9   21.83    6.87
  -7  -5 -10   76.25   11.20
  -7  -5 -10   58.51    9.23
   7   5  10   61.25   11.10
  -7  -5 -11  205.82   15.61
  -7  -5 -11  201.87   14.31
   7   5  11  165.28   15.55
  -7  -5 -12   37.88    8.61
  -7  -5 -12   46.21    8.59
   7   5  12   24.16    7.70
  -7  -5 -13   10.54    5.26
  -7  -6   6   56.01   10.07
   7   6  -6   54.13   10.17
  -7  -6   5  152.79   13.23
   7   6  -5  147.19   14.05
  -7  -6   4   46.07    8.45
   7   6  -4   29.87    7.57
  -7  -6   3   31.70    6.86
   7   6  -3   30.93    7.67
  -7  -6   2  276.23   15.52
   7   6  -2  280.88   18.26
   7   6  -2  336.00   17.40
  -7  -6   1  176.81   11.92
   7   6  -1  187.69   14.83
   7   6  -1  219.61   14.40
  -7  -6   0   -0.66    1.91
   7   6   0    3.09    3.27
  -7  -6  -1  189.79   11.02
  -7  -6  -1  171.78   13.93
   7   6   1  205.63   14.22
  -7  -6  -2  179.05   14.20
   7   6   2  194.48   14.06
  -7  -6  -3    5.38    3.94
   7   6   3    0.69    2.98
   7   6   3    3.86    2.95
  -7  -6  -4  116.97   11.49
   7   6   4  146.71   12.37
   7   6   4  122.18   10.12
  -7  -6  -5  346.86   19.40
   7   6   5  349.31   18.78
   7   6   5  326.93   16.75
  -7  -6  -6   54.21    9.51
   7   6   6   49.17    8.75
   7   6   6   51.10    8.78
  -7  -6  -7   76.04   11.38
   7   6   7   77.02    9.19
   7   6   7   75.36   10.87
  -7  -6  -8  233.81   16.31
   7   6   8  236.79   15.62
   7   6   8  234.38   16.43
  -7  -6  -9   93.74   10.77
   7   6   9  105.27   10.77
   7   6   9   96.55   11.17
  -7  -6 -10    7.07    4.82
   7   6  10    6.29    4.79
  -7  -6 -11  124.54   12.76
  -7  -6 -11  127.68   11.81
   7   6  11  121.42   13.44
  -7  -6 -12   74.29   11.86
  -7  -6 -12   72.51   10.51
   7   6  12   73.90   12.44
  -7  -6 -13    2.55    3.92
  -7  -7   6    6.65    4.73
  -7  -7   5  168.11   14.22
   7   7  -5  174.38   15.50
  -7  -7   4  138.94   12.57
   7   7  -4  151.71   14.19
  -7  -7   3    1.43    2.84
   7   7  -3    4.43    3.73
  -7  -7   2   81.59    9.07
   7   7  -2   63.49   10.73
   7   7  -2   90.08    9.96
  -7  -7   1  198.85   13.03
   7   7  -1  205.51   15.88
   7   7  -1  235.91   15.70
  -7  -7   0   25.35    5.69
  -7  -7   0   20.24    6.32
   7   7   0   25.43    6.87
  -7  -7  -1  112.40    9.11
  -7  -7  -1  113.39   11.95
   7   7   1  123.38   11.88
  -7  -7  -2  317.42   19.12
   7   7   2  350.82   19.54
  -7  -7  -3  149.78   13.30
   7   7   3  167.07   13.71
  -7  -7  -4   41.73    8.66
   7   7   4   43.14    8.45
  -7  -7  -5  281.78   18.13
   7   7   5  314.65   18.60
   7   7   5  302.03   15.75
  -7  -7  -6  153.11   13.69
   7   7   6  176.60   14.00
   7   7   6  156.05   12.13
  -7  -7  -7    1.55    3.12
   7   7   7    2.23    3.14
   7   7   7    0.00    2.98
  -7  -7  -8  128.74   12.62
   7   7   8  149.77   13.07
   7   7   8  128.70   12.25
  -7  -7  -9  108.64   12.00
   7   7   9  127.40   12.10
   7   7   9  109.57   11.75
  -7  -7 -10   -0.02    3.36
   7   7  10    0.07    3.08
   7   7  10    3.23    4.19
  -7  -7 -11  111.83   12.26
   7   7  11  105.63   12.43
  -7  -7 -12  170.30   15.09
  -7  -7 -12  177.04   13.96
   7   7  12  180.15   16.61
  -7  -8   5   38.35    8.60
  -7  -8   4   83.44   10.33
   7   8  -4   73.78   11.62
  -7  -8   3   32.46    7.44
   7   8  -3   37.33    8.64
  -7  -8   2   45.00    8.23
   7   8  -2   32.27    8.02
   7   8  -2   47.83    9.14
  -7  -8   1  245.71   15.01
   7   8  -1  243.43   17.54
   7   8  -1  291.96   18.29
  -7  -8   0  106.30    9.65
  -7  -8   0  111.93   12.05
   7   8   0  121.41   12.16
  -7  -8  -1    4.42    4.21
   7   8   1   11.06    5.17
  -7  -8  -2  258.17   17.76
   7   8   2  275.06   18.06
  -7  -8  -3  209.79   16.19
   7   8   3  253.25   17.45
  -7  -8  -4    7.22    4.57
   7   8   4    8.89    4.69
  -7  -8  -5   76.49   11.78
   7   8   5  101.20   11.33
  -7  -8  -6  145.00   13.57
   7   8   6  163.60   14.00
  -7  -8  -7   14.61    5.89
   7   8   7   20.20    6.37
   7   8   7   12.16    4.85
  -7  -8  -8   81.03   12.05
   7   8   8   95.76   10.95
   7   8   8   79.97    9.81
  -7  -8  -9  170.61   14.88
   7   8   9  223.15   16.03
   7   8   9  178.92   14.78
  -7  -8 -10   54.27   10.33
   7   8  10   55.84    9.81
   7   8  10   48.61    9.79
  -7  -8 -11    4.03    4.27
   7   8  11    7.97    4.66
   7   8  11    4.72    4.71
  -7  -8 -12  121.51   13.23
   7   8  12  116.99   13.62
  -7  -9   4  102.58   11.59
  -7  -9   3   90.47   10.42
   7   9  -3   87.17   13.04
  -7  -9   2    2.49    3.61
   7   9  -2    2.15    3.58
   7   9  -2    5.43    4.42
  -7  -9   1  120.86   11.15
   7   9  -1  150.96   13.88
  -7  -9   0  172.84   15.12
   7   9   0  175.12   15.02
  -7  -9  -1   33.50    8.29
   7   9   1   25.22    7.41
  -7  -9  -2   35.24    8.35
   7   9   2   48.91    9.67
  -7  -9  -3  152.95   14.12
   7   9   3  158.36   14.37
  -7  -9  -4   22.66    6.91
   7   9   4   31.18    7.78
  -7  -9  -5   30.99    7.97
   7   9   5   36.54    8.52
  -7  -9  -6  131.73   13.41
   7   9   6  155.14   14.15
  -7  -9  -7  101.38   11.80
   7   9   7  112.56   12.15
  -7  -9  -8    1.37    3.53
   7   9   8    2.05    3.40
  -7  -9  -9  105.38   12.34
   7   9   9  116.63   12.21
   7   9   9   98.28   11.10
  -7  -9 -10  103.86   12.40
   7   9  10  100.14   11.45
   7   9  10   94.41   11.37
  -7  -9 -11    2.07    3.75
   7   9  11   -2.11    3.08
   7   9  11   -0.72    3.80
   7   9  12   74.26   11.45
   7   9  12   59.00   11.23
  -7 -10   3   93.83   10.83
  -7 -10   2   24.53    6.82
   7  10  -2   23.85    7.50
  -7 -10   1   25.20    7.57
   7  10  -1   25.80    7.74
  -7 -10   0   91.87   11.44
   7  10   0  107.88   12.47
  -7 -10  -1   38.58    8.73
   7  10   1   41.20    9.29
  -7 -10  -2    4.23    4.29
   7  10   2    6.47    4.76
  -7 -10  -3  126.88   13.19
   7  10   3  119.97   13.20
  -7 -10  -4  122.39   13.05
   7  10   4  108.45   12.41
  -7 -10  -5   -1.11    3.09
   7  10   5    3.61    3.72
  -7 -10  -6   70.79   11.90
   7  10   6   59.83   10.67
  -7 -10  -7   77.25   12.42
   7  10   7   61.96   11.10
  -7 -10  -8    5.72    4.62
   7  10   8    8.28    5.17
  -7 -10  -9   35.37    8.73
   7  10   9   35.36    8.40
  -7 -10 -10   83.85   12.97
   7  10  10   85.19   12.59
   7  10  11   11.92    5.36
   7  10  12    7.87    5.22
   7  10  12    8.02    5.46
   7  11  -1   -1.03    3.87
  -7 -11   0  110.82   12.66
   7  11   0   82.00   13.08
  -7 -11  -1   88.84   13.58
   7  11   1   76.19   12.73
  -7 -11  -2    1.95    3.58
   7  11   2    3.05    4.36
  -7 -11  -3   35.78    8.54
   7  11   3   25.35    7.65
  -7 -11  -4   86.68   13.10
   7  11   4   93.47   13.92
  -7 -11  -5   10.14    5.48
   7  11   5   11.16    5.61
  -7 -11  -6    9.24    5.35
   7  11   6    4.67    4.11
  -7 -11  -7   49.48   10.08
   7  11   7   37.16    9.09
  -7 -11  -8   34.48    8.94
   7  11   8   34.63    8.51
  -7 -11  -9    5.58    4.80
   7  11   9    5.52    4.86
   7  11  10   72.50   11.86
   7  12   3   -2.22    3.54
  -7 -12  -4   35.57    8.95
   7  12   4   37.29    9.35
  -7 -12  -5   44.41   10.00
   7  12   5   25.32    8.05
  -7 -12  -6    1.67    3.62
   7  12   6   -0.09    4.02
   7  12   7   43.72    9.73
  -8  10   2    1.16    4.27
  -8  10   1    0.95    4.19
  -8  10   1    2.16    4.22
  -8  10   0   13.26    5.91
  -8   9   4    2.24    4.30
   8  -9  -4    1.85    3.83
  -8   9   3   14.56    6.29
   8  -9  -3   26.13    7.58
  -8   9   2    6.33    4.61
  -8   9   2   11.11    5.96
   8  -9  -2   11.70    5.62
  -8   9   1   -2.09    3.08
  -8   9   1    0.96    3.69
   8  -9  -1    0.64    3.55
  -8   9   0   29.08    7.67
  -8   9   0   32.07    8.12
   8  -9   0   29.29    8.14
  -8   9  -1   49.26    9.81
  -8   9  -1   43.04    8.98
   8  -9   1   56.54   10.95
  -8   9  -2    0.67    4.01
  -8   9  -2    1.54    3.89
   8  -9   2   -0.14    3.43
   8  -9   3   18.15    6.70
  -8   8   5   21.83    7.75
   8  -8  -5   19.00    6.70
  -8   8   4    2.80    4.41
   8  -8  -4    0.29    3.01
  -8   8   3   64.94   11.47
   8  -8  -3   60.34   10.71
  -8   8   2   55.64    9.59
  -8   8   2   48.51    9.81
   8  -8  -2   56.01   10.56
  -8   8   1    0.69    3.51
  -8   8   1    0.02    3.30
   8  -8  -1    3.47    3.87
  -8   8   0   30.64    7.78
  -8   8   0   27.69    7.59
   8  -8   0   28.66    7.88
  -8   8  -1   55.74   10.07
  -8   8  -1   50.89    9.74
   8  -8   1   61.34   10.91
  -8   8  -2   11.73    5.63
   8  -8   2    9.46    5.42
   8  -8   2    7.22    4.59
  -8   8  -3   36.45    8.86
   8  -8   3   24.46    7.43
   8  -8   3   30.53    7.70
  -8   8  -4   82.18   12.66
   8  -8   4   76.76   12.38
   8  -8   4   89.84   10.66
   8  -8   5   52.91   10.40
   8  -7  -7    2.46    3.76
  -8   7   6   24.83    7.81
   8  -7  -6   23.05    6.87
  -8   7   5   74.59   12.64
   8  -7  -5   96.20   11.38
  -8   7   4   11.52    5.55
   8  -7  -4   13.51    5.62
  -8   7   3   10.72    5.64
   8  -7  -3   12.81    5.44
  -8   7   2   95.89   10.29
  -8   7   2   91.36   11.41
   8  -7  -2   98.80   11.30
  -8   7   1   23.13    6.61
  -8   7   1   19.73    6.42
   8  -7  -1   28.62    7.43
  -8   7   0   14.50    5.85
  -8   7   0   21.12    6.78
   8  -7   0   11.56    5.14
  -8   7  -1  140.86   13.07
   8  -7   1  127.45   12.78
   8  -7   1  144.34   13.43
  -8   7  -2  141.78   13.35
   8  -7   2  146.95   13.91
   8  -7   2  146.89   13.37
  -8   7  -3    5.99    4.50
   8  -7   3    3.42    3.94
   8  -7   3    3.18    3.82
  -8   7  -4   34.81    8.63
   8  -7   4   33.81    8.38
   8  -7   4   41.79    8.69
  -8   7  -5   43.29    9.32
   8  -7   5   43.86    9.25
   8  -7   5   46.65    9.11
   8  -7   6   -0.78    3.03
  -8   6   7   38.68    9.93
   8  -6  -7   39.31    8.57
  -8   6   6    1.76    4.31
   8  -6  -6    6.99    4.23
  -8   6   5   82.24   13.14
   8  -6  -5  104.92   11.53
  -8   6   4   50.07   10.33
   8  -6  -4   67.49   10.83
  -8   6   3    4.11    4.53
   8  -6  -3    6.23    4.39
  -8   6   2  247.91   15.26
  -8   6   2  225.49   17.13
   8  -6  -2  261.99   17.57
  -8   6   1  211.96   14.44
  -8   6   1  170.80   14.65
   8  -6  -1  187.75   14.90
  -8   6   0   17.42    5.65
   8  -6   0   18.74    6.04
  -8   6  -1   49.61    8.86
   8  -6   1   36.96    8.13
   8  -6   1   50.85    9.40
  -8   6  -2   94.57   10.72
   8  -6   2   93.54   10.89
   8  -6   2   82.39   11.87
  -8   6  -3   15.77    6.00
   8  -6   3   11.36    5.28
   8  -6   3    9.32    4.64
  -8   6  -4   55.12    9.89
   8  -6   4   65.00   10.63
   8  -6   4   77.22   11.37
  -8   6  -5  180.56   15.24
   8  -6   5  175.59   14.64
   8  -6   5  181.88   14.35
  -8   6  -6  103.46   12.10
   8  -6   6   93.27   10.73
   8  -6   7    2.72    3.75
  -8   5   8   60.22   12.03
   8  -5  -8   62.75   10.85
  -8   5   7   76.58   13.17
   8  -5  -7   87.02   10.71
  -8   5   6   -1.20    3.56
   8  -5  -6   -1.36    2.45
  -8   5   5  126.21   13.90
   8  -5  -5  150.02   13.49
  -8   5   4  210.16   17.09
   8  -5  -4  277.13   17.82
  -8   5   3   36.40    8.51
   8  -5  -3   49.87    9.03
  -8   5   2   20.92    5.44
  -8   5   2   11.60    5.42
   8  -5  -2   13.32    5.00
  -8   5   1  198.36   13.48
  -8   5   1  184.46   15.15
   8  -5  -1  185.24   14.21
  -8   5   0   43.40    8.07
   8  -5   0   49.15    8.94
   8  -5   0   54.96    9.86
  -8   5  -1   48.41    8.46
   8  -5   1   47.53    8.68
   8  -5   1   47.18    9.11
  -8   5  -2  282.47   17.02
   8  -5   2  267.23   16.89
   8  -5   2  287.16   18.05
  -8   5  -3  292.37   17.73
   8  -5   3  275.67   17.17
   8  -5   3  271.72   17.44
  -8   5  -4   10.62    5.17
   8  -5   4    7.44    4.34
   8  -5   4    0.04    2.93
  -8   5  -5   75.02   11.41
   8  -5   5   67.07   10.54
  -8   5  -6  130.76   12.94
   8  -5   6  126.16   12.28
  -8   5  -7    0.24    3.60
   8  -5   7    0.46    3.01
  -8   5  -8  128.72   13.52
   8  -5   8  110.38   11.86
   8  -5   9  204.57   15.79
  -8   4   8   67.36   12.63
   8  -4  -8   77.88   11.65
  -8   4   7  161.10   16.06
   8  -4  -7  209.66   16.13
  -8   4   6  105.76   15.19
   8  -4  -6  129.89   12.61
  -8   4   5   10.03    5.70
   8  -4  -5    7.34    4.44
  -8   4   4  164.15   15.26
   8  -4  -4  165.45   13.61
  -8   4   3   63.41   10.99
   8  -4  -3   68.76   10.22
  -8   4   2   26.91    5.97
  -8   4   2   28.90    7.60
   8  -4  -2   30.92    6.93
  -8   4   1  423.67   18.37
   8  -4  -1  413.56   20.24
  -8   4   0  326.55   16.67
   8  -4   0  346.96   18.44
   8  -4   0  333.13   19.63
  -8   4  -1   45.08    8.14
   8  -4   1   38.17    7.50
   8  -4   1   35.43    8.07
  -8   4  -2   89.50    9.48
   8  -4   2   96.07    9.90
   8  -4   2   92.72   10.66
  -8   4  -3  172.88   13.37
   8  -4   3  215.97   14.51
   8  -4   3  189.40   14.69
  -8   4  -4   29.47    7.24
   8  -4   4   31.91    6.94
   8  -4   4   34.36    7.82
  -8   4  -5  120.12   11.81
   8  -4   5  116.59   11.79
  -8   4  -6  261.24   17.23
   8  -4   6  257.96   16.98
  -8   4  -7   91.74   10.77
   8  -4   7  100.62   11.09
  -8   4  -8   17.29    6.36
   8  -4   8   21.59    6.51
  -8   4  -9  144.98   14.14
   8  -4   9  154.73   13.83
  -8   3   9   91.30   14.80
  -8   3   8   -1.57    3.45
   8  -3  -8    0.58    3.11
  -8   3   7   86.51   13.77
   8  -3  -7  127.61   12.68
  -8   3   6   60.02   11.46
   8  -3  -6   63.39   10.27
  -8   3   5    8.69    5.47
   8  -3  -5    6.12    3.89
  -8   3   4  238.85   17.83
   8  -3  -4  269.14   16.75
  -8   3   3  310.23   19.84
   8  -3  -3  317.64   17.74
  -8   3   2   46.43    7.11
  -8   3   2   39.81    8.65
   8  -3  -2   49.98    8.34
  -8   3   1   55.27    7.96
   8  -3  -1   42.48    7.88
   8  -3  -1   34.82    7.91
  -8   3   0  274.82   14.68
   8  -3   0  291.82   16.19
   8  -3   0  269.58   17.65
  -8   3  -1   49.95    7.89
   8  -3   1   54.81    8.46
   8  -3   1   51.12    9.53
  -8   3  -2   45.69    7.82
   8  -3   2   65.00    7.98
   8  -3   2   47.57    8.88
  -8   3  -3  304.99   16.75
   8  -3   3  372.91   17.76
   8  -3   3  326.91   18.89
  -8   3  -4  238.56   15.39
   8  -3   4  255.15   14.76
   8  -3   4  245.25   16.49
  -8   3  -5    2.10    3.22
   8  -3   5    0.56    3.05
  -8   3  -6  135.24   12.34
   8  -3   6  154.51   13.49
  -8   3  -7  223.73   15.90
   8  -3   7  221.19   16.15
  -8   3  -8    4.05    3.93
   8  -3   8   -0.20    3.19
  -8   3  -9  142.19   13.37
   8  -3   9  122.74   12.47
   8  -3  10  184.83   15.52
  -8   2   9   83.72   14.03
  -8   2   8   -1.89    3.93
   8  -2  -8    1.17    2.81
  -8   2   7  105.27   12.85
   8  -2  -7  146.19   13.20
  -8   2   6  224.46   17.85
   8  -2  -6  287.00   17.81
  -8   2   5   94.24   13.67
   8  -2  -5  113.23   11.26
  -8   2   4   23.44    7.22
   8  -2  -4   21.65    5.78
  -8   2   3  192.76   15.68
   8  -2  -3  213.37   14.36
  -8   2   2   75.93    7.39
  -8   2   2   59.15   10.13
   8  -2  -2   67.66    9.64
  -8   2   1   34.70    6.15
   8  -2  -1   34.57    6.95
   8  -2  -1   27.86    7.21
  -8   2   0  357.46   16.09
   8  -2   0  365.69   17.32
   8  -2   0  341.82   19.45
  -8   2  -1  255.40   14.05
   8  -2   1  278.72   14.82
   8  -2   1  262.69   16.99
  -8   2  -2    9.63    4.02
   8  -2   2   10.72    4.11
   8  -2   2    7.24    4.19
  -8   2  -3  183.52   12.77
   8  -2   3  227.18   13.14
   8  -2   3  173.43   13.81
  -8   2  -4  275.69   15.99
   8  -2   4  278.96   17.38
  -8   2  -5   26.33    6.29
   8  -2   5   23.91    6.50
  -8   2  -6  116.07   11.16
   8  -2   6   98.26   10.79
  -8   2  -7  199.78   14.66
   8  -2   7  182.66   14.79
  -8   2  -8   81.89   10.07
   8  -2   8   79.29   11.69
  -8   2  -9   17.70    5.91
   8  -2   9   21.31    7.01
  -8   2 -10  120.94   12.36
   8  -2  10  118.32   12.64
  -8   1   9  174.38   16.36
  -8   1   8  109.21   13.17
   8  -1  -8  141.50   13.34
  -8   1   7   11.54    6.08
   8  -1  -7    5.02    3.64
  -8   1   6  112.05   12.94
   8  -1  -6  130.95   12.24
  -8   1   5   83.22   12.76
   8  -1  -5   93.30   10.20
  -8   1   4    8.05    4.82
   8  -1  -4    6.42    3.73
  -8   1   3  183.47   14.99
   8  -1  -3  223.04   14.35
  -8   1   2  221.81   11.65
  -8   1   2  205.82   15.66
   8  -1  -2  241.46   14.39
  -8   1   1   19.57    4.70
   8  -1  -1   13.42    4.47
   8  -1  -1   14.22    5.41
  -8   1   0  108.27    8.92
   8  -1   0  117.92    9.66
   8  -1   0  117.81   11.53
  -8   1  -1  313.35   15.20
   8  -1   1  351.52   15.79
   8  -1   1  318.76   18.42
  -8   1  -2   69.78    7.75
   8  -1   2   70.30    7.27
   8  -1   2   61.72    9.64
  -8   1  -3   38.63    6.97
   8  -1   3   41.39    6.39
   8  -1   3   39.76    8.00
  -8   1  -4  296.44   16.12
   8  -1   4  326.38   18.58
  -8   1  -5  203.51   13.86
   8  -1   5  171.30   13.88
  -8   1  -6    3.45    2.97
   8  -1   6   -0.80    2.61
  -8   1  -7   94.18   10.07
   8  -1   7  107.89   11.46
  -8   1  -8  137.75   12.40
   8  -1   8  129.89   12.84
  -8   1  -9   -0.10    3.11
   8  -1   9    2.09    3.57
  -8   1 -10  139.26   12.87
   8  -1  10  130.82   13.31
  -8   1 -11  166.81   14.49
   8   0  -9   96.02   11.79
  -8   0   8  108.39   11.86
  -8   0   8  109.22   11.89
   8   0  -8  103.88   11.79
  -8   0   7    6.61    5.59
   8   0  -7    7.23    4.55
   8   0  -7    2.28    3.46
  -8   0   6   95.54   13.58
   8   0  -6  105.40   11.07
   8   0  -6  112.05   11.48
  -8   0   5  173.11   15.04
   8   0  -5  194.76   14.17
   8   0  -5  218.45   15.08
  -8   0   4   51.82    9.85
   8   0  -4   55.71    8.71
   8   0  -4   54.72    8.91
  -8   0   3   48.50    9.50
   8   0  -3   60.71    8.94
  -8   0   2  292.23   13.11
  -8   0   2  313.70   18.79
   8   0  -2  291.85   15.52
  -8   0   1   80.64    7.53
   8   0  -1   88.28    8.42
   8   0  -1   78.33    9.56
  -8   0   0   31.64    5.89
   8   0   0   27.79    5.56
   8   0   0   23.11    6.36
  -8   0  -1  374.18   16.32
   8   0   1  446.28   16.94
   8   0   1  413.59   20.60
  -8   0  -2  292.01   14.86
   8   0   2  305.36   13.51
   8   0   2  287.00   17.13
  -8   0  -3    3.03    2.64
   8   0   3    6.06    3.79
  -8   0  -4  139.23   10.98
   8   0   4  146.96   12.70
  -8   0  -5  152.76   11.93
   8   0   5  186.68   14.29
  -8   0  -6    2.00    2.95
   8   0   6    0.49    2.58
  -8   0  -7  118.31   10.95
   8   0   7  107.01   11.47
  -8   0  -8  177.88   13.68
   8   0   8  173.75   14.72
  -8   0  -9   92.58   10.27
   8   0   9   89.20   13.02
  -8   0 -10   13.14    5.28
   8   0  10   10.58    5.35
  -8   0 -11   65.90   10.72
   8   0  11   83.28   12.90
  -8   0 -12   21.23    7.03
  -8  -1   8  156.78   14.10
  -8  -1   8  150.82   13.91
   8   1  -8  167.18   14.99
  -8  -1   7   70.91   11.09
  -8  -1   7   73.61   11.30
   8   1  -7   67.22   10.93
  -8  -1   6   15.93    6.27
   8   1  -6   26.30    7.15
  -8  -1   5  116.31   12.31
   8   1  -5  125.14   11.48
   8   1  -5  130.26   12.07
  -8  -1   4   87.74   10.66
   8   1  -4  105.26   10.28
   8   1  -4   91.59   10.09
  -8  -1   3    6.31    4.18
   8   1  -3    8.25    3.96
   8   1  -3    8.02    4.24
  -8  -1   2  211.08   11.30
  -8  -1   2  216.98   15.32
   8   1  -2  224.17   13.43
   8   1  -2  231.54   14.37
  -8  -1   1  250.84   12.65
   8   1  -1  288.77   14.60
   8   1  -1  266.82   14.89
   8   1  -1  253.46   16.31
  -8  -1   0   15.23    4.74
  -8  -1   0   14.88    4.26
   8   1   0   17.06    4.55
   8   1   0   18.04    5.69
  -8  -1  -1   97.12    8.69
  -8  -1  -1  100.68    8.67
   8   1   1  104.70    8.20
   8   1   1  101.91   10.49
  -8  -1  -2  190.49   11.45
  -8  -1  -2  193.15   12.15
   8   1   2  224.16   11.07
   8   1   2  239.26   15.52
  -8  -1  -3   23.54    5.57
   8   1   3   19.51    5.74
  -8  -1  -4   77.69    8.41
   8   1   4   86.69    9.71
  -8  -1  -5  279.60   15.74
   8   1   5  311.93   18.26
  -8  -1  -6  155.68   12.15
   8   1   6  156.90   13.35
  -8  -1  -7    1.23    2.81
   8   1   7   -0.98    2.58
  -8  -1  -8   45.73    8.52
   8   1   8   43.34    8.91
  -8  -1  -9   58.11    9.64
   8   1   9   55.69   10.23
  -8  -1 -10    5.87    4.21
   8   1  10    7.23    4.67
  -8  -1 -11  116.18   11.83
   8   1  11  138.79   14.25
  -8  -1 -12  130.30   12.73
   8   2  -8   78.57   12.15
  -8  -2   7   64.02   10.55
  -8  -2   7   72.29   11.33
   8   2  -7   78.43   12.05
  -8  -2   6    6.88    4.09
  -8  -2   6    3.76    3.65
   8   2  -6    0.06    3.25
  -8  -2   5  110.85   11.03
  -8  -2   5  107.31   10.89
   8   2  -5  103.23   11.35
  -8  -2   4  126.23   12.10
   8   2  -4  163.86   13.60
  -8  -2   3   48.16    8.96
   8   2  -3   52.18    8.27
   8   2  -3   40.03    8.06
  -8  -2   2   41.06    6.32
  -8  -2   2   34.93    7.57
   8   2  -2   35.68    6.60
   8   2  -2   33.54    7.02
  -8  -2   1  188.52   11.26
   8   2  -1  169.37   11.21
   8   2  -1  180.44   13.03
   8   2  -1  181.37   13.59
  -8  -2   0   17.98    5.27
  -8  -2   0   23.94    5.39
   8   2   0   24.35    5.12
   8   2   0   23.50    6.43
  -8  -2  -1   51.67    8.13
  -8  -2  -1   47.46    7.32
   8   2   1   63.20    6.35
   8   2   1   57.45    9.30
  -8  -2  -2  342.93   16.41
  -8  -2  -2  382.29   17.15
   8   2   2  370.68   13.67
   8   2   2  390.91   19.34
  -8  -2  -3  215.13   12.93
  -8  -2  -3  188.75   12.44
   8   2   3  205.26   14.32
  -8  -2  -4   10.13    3.92
  -8  -2  -4    6.55    3.43
   8   2   4    7.36    3.97
  -8  -2  -5   62.84    7.34
  -8  -2  -5   63.84    9.27
   8   2   5   65.94   10.27
  -8  -2  -6   51.08    7.77
  -8  -2  -6   37.84    7.13
   8   2   6   47.90    8.90
  -8  -2  -7    6.97    3.95
   8   2   7    9.76    4.91
  -8  -2  -8  102.99   10.32
   8   2   8  111.86   11.95
  -8  -2  -9  134.43   11.88
   8   2   9  147.26   13.85
  -8  -2 -10   43.11    8.26
   8   2  10   35.80    8.54
  -8  -2 -11   14.38    5.43
   8   2  11   15.15    6.33
  -8  -2 -12   36.63    8.16
  -8  -3   7   92.35   10.97
  -8  -3   7   87.56   10.60
   8   3  -7  105.13   12.33
  -8  -3   6   56.11    9.85
  -8  -3   6   40.23    8.46
   8   3  -6   53.76    9.97
  -8  -3   5    9.06    4.53
  -8  -3   5    9.08    4.66
   8   3  -5    3.62    3.81
  -8  -3   4   37.10    7.45
  -8  -3   4   42.17    7.99
   8   3  -4   31.20    7.55
  -8  -3   3   24.09    6.01
  -8  -3   3   25.36    6.18
   8   3  -3   27.86    7.02
  -8  -3   2   29.48    6.32
  -8  -3   2   28.62    6.82
  -8  -3   2   23.89    5.79
   8   3  -2   29.52    7.15
   8   3  -2   24.46    5.24
   8   3  -1  167.09   13.19
   8   3  -1  166.54   11.02
  -8  -3   0  148.58   12.22
   8   3   0  174.99   11.57
   8   3   0  156.58   12.28
  -8  -3  -1    8.74    4.35
   8   3   1   12.60    3.66
   8   3   1   13.49    4.52
   8   3   1   12.56    4.72
  -8  -3  -2   18.21    5.30
   8   3   2   15.40    4.70
   8   3   2    9.85    4.22
  -8  -3  -3   42.56    7.78
   8   3   3   43.70    7.49
   8   3   3   43.61    8.06
  -8  -3  -4    1.55    2.60
   8   3   4   -0.05    2.33
  -8  -3  -5   63.85    9.17
  -8  -3  -5   51.69    8.30
   8   3   5   72.53   10.77
  -8  -3  -6  149.84   11.72
  -8  -3  -6  124.26   10.95
   8   3   6  126.79   11.92
  -8  -3  -7   87.44    9.26
  -8  -3  -7   92.55    9.81
   8   3   7   77.14   11.45
  -8  -3  -8   -0.07    2.63
  -8  -3  -8   -0.36    2.49
   8   3   8    0.06    2.89
  -8  -3  -9   17.40    5.48
  -8  -3  -9   17.38    5.60
   8   3   9   10.81    5.55
  -8  -3 -10   23.12    6.23
   8   3  10   21.92    7.10
  -8  -3 -11    3.47    3.47
   8   3  11    6.67    4.78
  -8  -3 -12   44.36    8.73
   8   4  -7    7.50    5.08
  -8  -4   6   15.27    5.55
   8   4  -6   15.89    6.29
  -8  -4   5   -0.27    2.81
  -8  -4   5   -2.13    2.50
   8   4  -5    1.09    3.46
  -8  -4   4   57.78    9.32
  -8  -4   4   64.41    9.82
   8   4  -4   54.81    9.98
  -8  -4   3   81.36    8.90
  -8  -4   3   81.20    9.06
   8   4  -3   94.31   10.85
  -8  -4   2   39.59    7.15
  -8  -4   2   33.23    6.74
   8   4  -2   42.62    8.62
   8   4  -2   43.22    7.28
  -8  -4   1    1.84    2.44
  -8  -4   1   -0.70    1.96
   8   4  -1    1.77    3.41
   8   4  -1    1.43    2.56
  -8  -4   0   21.91    5.02
  -8  -4   0   24.28    6.80
  -8  -4   0   23.08    5.13
   8   4   0   24.76    5.90
   8   4   0   20.12    5.61
  -8  -4  -1   -1.00    1.65
  -8  -4  -1    1.19    2.97
  -8  -4  -1    0.95    1.93
   8   4   1    0.72    2.73
   8   4   1    1.37    2.96
  -8  -4  -2   32.12    7.23
   8   4   2   34.06    6.95
   8   4   2   33.36    7.00
  -8  -4  -3  147.56   12.27
   8   4   3  145.48   11.59
   8   4   3  157.38   12.27
  -8  -4  -4   86.79    9.64
   8   4   4   84.24    9.10
   8   4   4   72.49    8.93
  -8  -4  -5   12.27    4.95
   8   4   5    7.07    3.91
   8   4   5    7.48    4.09
  -8  -4  -6   10.85    4.66
   8   4   6   13.38    5.20
  -8  -4  -7   12.15    4.77
  -8  -4  -7    9.98    4.39
   8   4   7   11.58    4.84
  -8  -4  -8    0.41    2.75
  -8  -4  -8   -0.65    2.20
   8   4   8   -0.91    3.04
  -8  -4  -9   31.68    7.18
  -8  -4  -9   22.65    6.38
   8   4   9   25.65    7.47
  -8  -4 -10   39.91    8.43
  -8  -4 -10   35.70    7.64
   8   4  10   27.64    7.79
  -8  -4 -11    1.94    3.61
  -8  -4 -11    2.91    3.53
   8   4  11    2.19    3.87
  -8  -4 -12    6.32    4.35
  -8  -5   6   56.00    9.91
   8   5  -6   56.09   10.54
  -8  -5   5   36.67    7.96
   8   5  -5   36.77    8.74
  -8  -5   4   -0.01    2.70
   8   5  -4    2.56    3.51
  -8  -5   3    3.72    3.18
   8   5  -3    0.75    3.07
  -8  -5   2    2.14    2.95
   8   5  -2    2.57    3.39
   8   5  -2   -0.25    2.62
  -8  -5   1   31.30    6.36
   8   5  -1   32.42    7.73
   8   5  -1   22.86    5.75
  -8  -5   0   57.78    6.74
  -8  -5   0   53.89    9.60
   8   5   0   59.21    8.85
  -8  -5  -1   26.26    6.77
   8   5   1   34.22    7.13
  -8  -5  -2    3.19    3.52
   8   5   2    1.36    2.84
   8   5   2    7.61    3.99
  -8  -5  -3    0.79    3.02
   8   5   3    1.12    2.62
   8   5   3   -0.67    2.50
  -8  -5  -4    8.73    4.43
   8   5   4    9.52    4.37
   8   5   4   11.48    4.71
  -8  -5  -5    0.84    2.89
   8   5   5    0.15    2.29
   8   5   5   -0.20    2.86
  -8  -5  -6    1.23    3.20
   8   5   6    2.97    3.13
   8   5   6    0.71    2.82
  -8  -5  -7   11.94    4.82
   8   5   7   14.65    5.48
   8   5   7   13.75    5.60
  -8  -5  -8   29.78    7.35
   8   5   8   28.39    7.69
  -8  -5  -9   -0.35    3.27
  -8  -5  -9    3.17    3.20
   8   5   9    0.90    3.71
  -8  -5 -10    0.96    3.50
  -8  -5 -10   -1.22    2.51
   8   5  10   -0.58    3.07
  -8  -5 -11   -1.44    3.04
  -8  -5 -11    0.43    2.89
   8   5  11   -1.00    3.40
  -8  -5 -12    1.79    3.83
  -8  -5 -12   -1.47    2.97
   8   5  12    3.53    4.89
  -8  -5 -13    4.81    4.76
  -8  -6   5   -0.27    3.29
   8   6  -5   -0.15    3.16
  -8  -6   4    0.43    3.27
   8   6  -4    4.22    4.07
  -8  -6   3   15.87    5.20
   8   6  -3   12.12    5.65
  -8  -6   2    7.91    4.02
   8   6  -2   10.19    5.04
  -8  -6   1    5.32    3.35
   8   6  -1    4.37    4.16
   8   6  -1    8.34    4.18
  -8  -6   0    1.27    2.49
  -8  -6   0    1.54    3.55
   8   6   0   -2.39    2.30
  -8  -6  -1    1.52    3.23
   8   6   1    2.54    3.41
  -8  -6  -2    1.42    2.90
   8   6   2   -0.78    2.33
  -8  -6  -3   -0.38    2.96
   8   6   3    1.76    3.41
  -8  -6  -4   24.00    6.93
   8   6   4   31.78    7.45
   8   6   4   22.10    5.87
  -8  -6  -5   11.07    5.02
   8   6   5    5.34    3.66
   8   6   5    6.31    3.84
  -8  -6  -6    3.50    3.73
   8   6   6    1.54    3.11
   8   6   6    4.68    3.69
  -8  -6  -7    0.15    3.12
   8   6   7   -1.00    2.73
   8   6   7   -0.43    2.96
  -8  -6  -8    2.06    3.24
   8   6   8   -0.41    2.92
   8   6   8    3.10    3.92
  -8  -6  -9    1.95    3.62
   8   6   9    1.66    3.72
  -8  -6 -10   -0.43    3.11
  -8  -6 -10    5.47    3.95
   8   6  10    0.84    3.71
  -8  -6 -11    1.22    3.80
  -8  -6 -11   -1.00    3.07
   8   6  11    0.95    3.93
  -8  -6 -12   -1.14    3.56
  -8  -6 -12    0.34    3.04
   8   6  12   -0.35    3.84
  -8  -7   5    6.50    4.79
  -8  -7   4    3.21    3.82
   8   7  -4    4.98    4.59
  -8  -7   3   -1.24    2.81
   8   7  -3    0.95    3.56
  -8  -7   2    2.91    3.50
   8   7  -2    2.39    3.86
  -8  -7   1    5.02    3.68
   8   7  -1    3.92    3.78
  -8  -7   0   11.10    5.22
   8   7   0   11.81    5.27
  -8  -7  -1   -0.24    2.70
   8   7   1    4.45    4.02
  -8  -7  -2    0.20    2.95
   8   7   2    0.13    3.01
  -8  -7  -3    1.60    3.28
   8   7   3    3.59    3.56
  -8  -7  -4    9.81    5.12
   8   7   4    8.08    4.49
  -8  -7  -5    1.98    3.18
   8   7   5    4.20    3.53
  -8  -7  -6    3.04    3.87
   8   7   6    8.16    4.41
   8   7   6    2.85    3.16
  -8  -7  -7   -0.85    2.98
   8   7   7   -1.84    2.68
   8   7   7    1.69    3.33
  -8  -7  -8    8.30    4.55
   8   7   8    3.77    4.26
   8   7   8    6.95    4.41
  -8  -7  -9   -0.03    2.97
   8   7   9   -0.10    2.84
   8   7   9   -0.46    3.07
  -8  -7 -10   -0.12    3.30
   8   7  10    0.21    3.02
   8   7  10    2.26    4.03
  -8  -7 -11   15.75    6.47
  -8  -7 -11   21.94    6.49
   8   7  11   17.17    6.99
  -8  -7 -12    7.25    5.33
  -8  -7 -12    6.56    4.61
  -8  -8   4    9.08    5.24
  -8  -8   3    0.09    3.05
   8   8  -3   -1.06    3.21
  -8  -8   2    2.75    3.49
   8   8  -2   -0.60    3.26
   8   8  -1    2.24    3.79
  -8  -8   0    3.94    4.14
   8   8   0    1.50    3.39
  -8  -8  -1    6.99    4.59
   8   8   1   11.42    5.40
  -8  -8  -2   12.20    5.53
   8   8   2   20.13    6.52
  -8  -8  -3    8.04    5.05
   8   8   3    5.70    4.49
  -8  -8  -4    2.44    3.66
   8   8   4    2.90    3.51
  -8  -8  -5    0.46    3.30
   8   8   5    1.18    3.28
  -8  -8  -6    4.03    4.13
   8   8   6    4.93    4.08
  -8  -8  -7    3.58    3.85
   8   8   7    0.97    3.48
  -8  -8  -8   28.87    7.86
   8   8   8   37.22    8.41
   8   8   8   30.43    7.50
  -8  -8  -9   24.93    7.66
   8   8   9   28.36    7.86
   8   8   9   28.77    7.71
  -8  -8 -10   11.22    5.83
   8   8  10   11.11    5.34
   8   8  10    8.02    5.35
  -8  -8 -11   -2.09    3.76
   8   8  11    2.05    3.94
   8   8  11    1.33    4.16
  -8  -8 -12   11.92    5.44
  -8  -9   3    0.44    3.43
  -8  -9   1   34.37    8.61
   8   9  -1   42.11    9.14
  -8  -9   0    3.75    4.37
   8   9   0    8.35    5.23
  -8  -9  -1    0.55    3.35
   8   9   1   -0.42    3.29
  -8  -9  -2   15.39    6.14
   8   9   2   17.46    6.50
  -8  -9  -3   10.31    5.27
   8   9   3   13.16    5.79
  -8  -9  -4    4.70    4.64
   8   9   4    0.41    3.60
  -8  -9  -5   39.21    9.08
   8   9   5   38.10    8.76
  -8  -9  -6   59.78   11.22
   8   9   6   58.41   10.70
  -8  -9  -7   15.73    6.33
   8   9   7   14.72    6.19
  -8  -9  -8   10.66    5.44
   8   9   8    4.34    4.22
  -8  -9  -9   25.97    7.89
   8   9   9   13.25    5.97
  -8  -9 -10    3.29    4.43
   8   9  10    0.25    3.52
   8   9  10    1.57    3.92
   8   9  11   13.15    5.83
   8   9  11   21.63    7.46
   8  10  -1   20.91    7.03
  -8 -10   0   16.92    6.49
   8  10   0   17.69    6.89
  -8 -10  -1    2.30    3.83
   8  10   1    5.37    4.89
  -8 -10  -2   49.12   10.24
   8  10   2   55.49   10.77
  -8 -10  -3   55.58   10.88
   8  10   3   71.10   11.82
  -8 -10  -4    9.50    5.30
   8  10   4   13.68    5.98
  -8 -10  -5    6.74    4.82
   8  10   5    3.45    4.01
  -8 -10  -6   14.81    6.51
   8  10   6    4.80    4.69
  -8 -10  -7    0.15    3.81
   8  10   7    3.17    4.29
  -8 -10  -8   21.47    7.17
   8  10   8   28.43    8.29
  -8 -10  -9   74.77   12.31
   8  10   9   88.01   13.14
   8  11   1   28.21    8.19
   8  11   2    1.45    3.91
  -8 -11  -3   25.47    7.93
   8  11   3   29.60    8.16
  -8 -11  -4   13.73    6.22
   8  11   4    9.04    5.36
  -8 -11  -5    9.85    5.56
   8  11   5    7.53    5.30
  -8 -11  -6   95.66   14.32
   8  11   6   95.73   14.11
  -8 -11  -7  100.33   14.39
   8  11   7   86.76   13.29
  -9   9   1   46.58    9.49
  -9   8   2   13.62    5.82
   9  -8  -2    9.90    5.59
  -9   8   1   13.41    5.64
  -9   8   1   12.26    5.75
   9  -8  -1   14.35    5.88
  -9   8   0   45.97    9.39
  -9   8   0   46.14    9.62
   9  -8   0   46.10    9.92
  -9   8  -1   35.96    8.38
  -9   8  -1   36.24    8.91
   9  -8   1   33.22    8.39
   9  -8   2   -0.49    3.78
   9  -8   3   38.18    8.96
   9  -8   3   56.99   10.47
  -9   7   4   -0.05    3.80
   9  -7  -4   -0.61    3.06
  -9   7   3   23.04    7.29
   9  -7  -3   32.82    8.10
  -9   7   2   24.15    7.35
   9  -7  -2   32.48    8.27
  -9   7   1    1.22    3.61
  -9   7   1    1.36    3.80
   9  -7  -1   -0.89    2.79
  -9   7   0   41.23    8.68
  -9   7   0   43.99    9.33
   9  -7   0   45.47    9.52
  -9   7  -1   56.06   10.07
   9  -7   1   45.67    9.31
  -9   7  -2   17.40    6.49
   9  -7   2   17.00    6.22
   9  -7   2   16.03    6.26
  -9   7  -3    5.65    4.80
   9  -7   3    3.39    4.37
   9  -7   3    6.75    5.00
   9  -7   4   36.66    8.64
   9  -7   5   16.44    6.16
  -9   6   5    9.68    5.77
   9  -6  -5   23.07    6.82
  -9   6   4   -0.56    3.72
   9  -6  -4    0.40    2.84
  -9   6   3   10.15    5.47
   9  -6  -3    8.06    4.95
  -9   6   2   52.02   10.27
   9  -6  -2   61.79   10.48
  -9   6   1   16.92    5.84
  -9   6   1   10.19    5.34
   9  -6  -1   17.03    6.06
  -9   6   0    5.91    4.24
  -9   6   0    3.35    3.98
   9  -6   0    7.48    4.48
  -9   6  -1   31.17    7.62
   9  -6   1   35.85    8.38
   9  -6   1   24.78    6.94
  -9   6  -2   18.54    6.38
   9  -6   2   17.19    5.91
   9  -6   2   16.98    6.45
  -9   6  -3    2.59    3.95
   9  -6   3    5.05    4.13
   9  -6   3    2.97    3.97
  -9   6  -4   15.04    6.17
   9  -6   4   18.82    6.52
  -9   6  -5   24.01    7.61
   9  -6   5   15.69    6.23
   9  -6   6    1.00    3.47
  -9   5   6    8.23    5.56
   9  -5  -6    4.69    4.04
  -9   5   5   24.61    7.97
   9  -5  -5   28.96    7.49
  -9   5   4   17.46    6.78
   9  -5  -4   19.63    6.42
  -9   5   3   -1.59    3.59
   9  -5  -3   -0.97    2.42
  -9   5   2   13.90    5.83
   9  -5  -2   21.11    6.50
  -9   5   1    4.72    3.80
  -9   5   1    2.93    3.70
   9  -5  -1    7.93    4.61
  -9   5   0    1.65    3.30
   9  -5   0    0.74    3.03
  -9   5  -1   15.64    5.47
   9  -5   1   15.11    5.57
   9  -5   1   23.95    7.12
  -9   5  -2   15.54    5.56
   9  -5   2    7.26    4.65
   9  -5   2   15.30    5.85
  -9   5  -3    1.51    3.33
   9  -5   3    0.74    3.18
   9  -5   3    1.53    3.46
  -9   5  -4    6.11    4.60
   9  -5   4    2.47    3.64
  -9   5  -5    1.67    3.59
   9  -5   5    4.20    4.28
  -9   5  -6   16.83    6.47
   9  -5   6    5.64    4.51
   9  -5   7    0.87    3.62
  -9   4   7    4.46    5.54
  -9   4   6   -0.25    4.04
   9  -4  -6    0.28    3.01
  -9   4   5    1.40    4.05
   9  -4  -5    1.57    3.45
  -9   4   4    5.06    5.07
   9  -4  -4    8.91    4.55
  -9   4   3    0.27    3.56
   9  -4  -3   -1.13    2.53
  -9   4   2   10.41    5.54
   9  -4  -2    2.43    3.29
  -9   4   1   -0.64    2.70
  -9   4   1    2.46    3.60
   9  -4  -1   -0.07    2.78
  -9   4   0   -0.73    2.50
   9  -4   0    1.91    3.05
   9  -4   0   -0.81    3.04
  -9   4  -1    1.21    3.19
   9  -4   1    3.71    3.34
   9  -4   1   -0.77    3.11
  -9   4  -2   14.54    5.24
   9  -4   2   20.39    5.89
   9  -4   2    8.63    5.17
  -9   4  -3    0.43    2.90
   9  -4   3    1.74    3.25
   9  -4   3    3.98    3.71
  -9   4  -4    1.05    2.91
   9  -4   4    0.42    3.09
  -9   4  -5    0.25    3.37
   9  -4   5   -0.42    3.15
  -9   4  -6   -0.79    2.98
   9  -4   6   -0.15    3.22
  -9   4  -7    0.41    3.50
   9  -4   7   -0.62    3.30
   9  -4   8   -1.43    3.31
  -9   3   7    2.61    4.99
   9  -3  -7    0.08    3.25
  -9   3   6    2.40    4.66
   9  -3  -6    0.97    3.11
  -9   3   5    1.25    3.93
   9  -3  -5    1.39    3.01
  -9   3   4    0.88    4.02
   9  -3  -4   -0.47    2.40
  -9   3   3   -2.33    2.85
   9  -3  -3    2.31    3.25
  -9   3   2   -2.88    2.71
   9  -3  -2   -0.39    2.67
  -9   3   1    1.42    2.79
  -9   3   1    2.66    3.71
   9  -3  -1    4.77    3.45
  -9   3   0    0.35    2.63
   9  -3   0    2.80    2.90
   9  -3   0    0.68    2.77
  -9   3  -1    2.81    2.97
   9  -3   1    0.18    2.64
   9  -3   1    0.05    2.51
  -9   3  -2    2.41    3.26
   9  -3   2    1.81    2.92
   9  -3   2    0.70    3.47
  -9   3  -3   -0.77    2.38
   9  -3   3   -1.51    2.46
  -9   3  -4    4.38    3.73
   9  -3   4    8.23    4.64
  -9   3  -5   -0.49    2.90
   9  -3   5   -1.22    3.10
  -9   3  -6    2.30    3.51
   9  -3   6    2.84    3.62
  -9   3  -7    0.66    3.08
   9  -3   7    5.40    4.16
  -9   3  -8    0.72    3.62
   9  -3   8    2.70    3.91
  -9   2   8   -2.35    4.53
  -9   2   7    2.30    4.20
   9  -2  -7    2.59    3.44
  -9   2   6    0.25    4.06
   9  -2  -6    1.59    3.29
  -9   2   5   -1.48    3.33
   9  -2  -5   -0.63    2.55
  -9   2   4    1.00    4.11
   9  -2  -4    4.21    3.45
  -9   2   3   -1.31    3.30
   9  -2  -3   -0.99    2.18
  -9   2   2    1.60    3.68
   9  -2  -2   -0.37    2.00
  -9   2   1   -0.60    2.28
   9  -2  -1    1.15    2.58
  -9   2   0   31.97    6.40
   9  -2   0   39.46    7.30
   9  -2   0   26.82    7.13
  -9   2  -1    2.91    2.85
   9  -2   1   -0.49    2.17
   9  -2   1    0.35    2.91
  -9   2  -2    8.94    4.00
   9  -2   2    6.37    3.63
   9  -2   2    2.64    3.28
  -9   2  -3   -0.04    2.47
   9  -2   3    3.92    3.53
  -9   2  -4    1.27    3.06
   9  -2   4   -0.02    3.07
  -9   2  -5    1.99    3.45
   9  -2   5    2.96    3.64
  -9   2  -6   18.32    5.92
   9  -2   6   21.99    6.79
  -9   2  -7    5.54    3.93
   9  -2   7    4.30    4.12
  -9   2  -8    0.43    3.33
   9  -2   8   -1.65    3.24
  -9   2  -9    1.36    3.75
   9  -2   9    9.47    5.43
  -9   1   8   -0.42    4.60
  -9   1   7   -0.37    4.27
   9  -1  -7    1.80    3.26
  -9   1   6    5.52    5.46
   9  -1  -6   11.17    5.19
  -9   1   5   -1.30    3.61
   9  -1  -5    1.06    2.59
  -9   1   4   20.49    7.13
   9  -1  -4   17.70    5.55
  -9   1   3   23.67    7.20
   9  -1  -3   20.07    5.73
  -9   1   2    2.62    4.23
   9  -1  -2    8.13    3.93
  -9   1   1    2.19    2.72
   9  -1  -1    0.96    2.67
  -9   1   0   21.76    5.29
   9  -1   0   17.17    4.96
   9  -1   0   16.30    5.89
  -9   1  -1   15.66    4.83
   9  -1   1   11.45    4.26
   9  -1   1   16.51    5.77
  -9   1  -2    3.68    3.01
   9  -1   2    4.26    3.09
   9  -1   2    7.46    4.31
  -9   1  -3   32.87    6.98
   9  -1   3   28.47    7.16
  -9   1  -4   15.57    5.23
   9  -1   4   11.60    4.89
  -9   1  -5    0.29    2.74
   9  -1   5    0.19    2.90
  -9   1  -6   21.85    6.20
   9  -1   6   22.46    6.80
  -9   1  -7   24.48    6.64
   9  -1   7   28.14    7.76
  -9   1  -8   12.86    5.57
   9  -1   8    7.32    4.78
  -9   1  -9    0.47    3.18
   9  -1   9    1.47    4.21
   9   0  -7    6.61    4.41
  -9   0   6   22.84    7.57
   9   0  -6   32.61    7.59
  -9   0   5   11.72    5.66
   9   0  -5   16.81    5.58
  -9   0   4   -0.06    3.54
   9   0  -4    0.13    2.44
  -9   0   3   30.68    7.91
   9   0  -3   35.50    7.23
  -9   0   2   11.83    5.75
   9   0  -2   27.71    6.25
  -9   0   1   -0.08    2.30
   9   0  -1   -0.45    2.35
  -9   0   0   47.28    7.42
   9   0   0   35.68    6.60
   9   0   0   38.71    8.43
  -9   0  -1   61.77    7.51
   9   0   1   63.45    7.17
   9   0   1   48.10    9.26
  -9   0  -2    5.80    3.53
   9   0   2    1.87    3.11
  -9   0  -3   36.41    7.17
   9   0   3   33.70    7.77
  -9   0  -4   69.71    8.50
   9   0   4   82.41   10.27
  -9   0  -5   19.69    5.60
   9   0   5   27.98    7.38
  -9   0  -6    2.79    3.02
   9   0   6    0.62    3.03
  -9   0  -7   51.65    9.01
   9   0   7   61.21   10.76
  -9   0  -8   27.92    7.01
   9   0   8   19.38    6.77
  -9   0  -9   -0.76    2.78
   9   0   9    2.58    4.04
  -9   0 -10   38.44    8.38
   9   0  10   41.54    9.40
  -9  -1   5   33.36    8.64
   9   1  -5   36.98    7.71
  -9  -1   4    6.21    4.68
   9   1  -4    4.07    3.42
  -9  -1   3   26.02    7.43
   9   1  -3   24.58    6.25
  -9  -1   2   63.09   10.66
   9   1  -2   88.23    9.18
  -9  -1   1   16.95    4.69
   9   1  -1   21.73    5.44
  -9  -1   0   14.86    4.45
   9   1   0   16.67    4.66
   9   1   0    8.54    4.71
  -9  -1  -1  117.30    9.95
   9   1   1  135.02    9.72
   9   1   1  108.77   11.42
  -9  -1  -2   81.58    8.69
   9   1   2   85.02   10.21
  -9  -1  -3    1.99    2.76
   9   1   3    4.13    3.72
  -9  -1  -4   64.98    9.58
   9   1   4   63.60   10.31
  -9  -1  -5   72.50    8.77
   9   1   5   67.82   10.81
  -9  -1  -6   -1.88    2.75
   9   1   6   -1.03    2.62
  -9  -1  -7   50.19    8.93
   9   1   7   64.50   10.91
  -9  -1  -8   77.19    9.61
   9   1   8   82.93   12.63
  -9  -1  -9   39.04    8.27
   9   1   9   45.30    9.71
  -9  -1 -10   24.77    7.11
   9   1  10   16.17    6.61
   9   2  -7    6.85    4.98
  -9  -2   6    8.59    5.01
  -9  -2   6    7.56    4.81
   9   2  -6    7.63    4.78
  -9  -2   5   80.42   11.45
  -9  -2   5   74.71   11.07
   9   2  -5   87.83   10.80
  -9  -2   4   41.23    8.00
  -9  -2   4   47.48    8.58
   9   2  -4   36.21    8.06
  -9  -2   3    7.52    4.64
   9   2  -3    8.43    4.13
   9   2  -3    6.26    4.29
  -9  -2   2  107.15   11.50
   9   2  -2  116.95   10.29
   9   2  -2  117.07   11.35
  -9  -2   1  121.94    9.79
   9   2  -1  127.23   10.30
  -9  -2   0    0.36    2.25
   9   2   0    0.18    1.98
   9   2   0   -0.29    2.94
  -9  -2  -1  110.60    9.78
   9   2   1  110.82   11.36
  -9  -2  -2   71.01    8.24
   9   2   2   66.22   10.13
  -9  -2  -3    8.84    4.10
   9   2   3    8.12    4.43
  -9  -2  -4   39.77    7.69
   9   2   4   53.42    9.39
  -9  -2  -5  208.30   14.34
   9   2   5  223.77   16.21
  -9  -2  -6   65.96    9.91
   9   2   6   50.22    9.46
  -9  -2  -7   10.14    4.71
   9   2   7   13.37    5.81
  -9  -2  -8   99.07   10.74
   9   2   8  113.45   12.54
  -9  -2  -9   81.21   11.66
   9   2   9   71.04   11.83
  -9  -2 -10    0.94    3.52
   9   2  10    0.45    3.75
  -9  -2 -11  104.74   11.68
  -9  -3   6    2.17    3.72
  -9  -3   6    5.30    4.35
   9   3  -6   -0.50    3.22
  -9  -3   5  110.36   11.35
  -9  -3   5  119.62   11.80
   9   3  -5  117.51   12.70
  -9  -3   4   96.00   10.31
  -9  -3   4   93.91   10.11
  -9  -3   3    0.96    2.89
  -9  -3   3    1.16    2.74
   9   3  -3    2.99    3.89
  -9  -3   2   45.73    7.97
  -9  -3   2   45.09    7.78
   9   3  -2   51.65    9.27
  -9  -3   1  116.61    9.95
  -9  -3   1  132.84   12.36
  -9  -3   1  115.08    9.86
  -9  -3   0   17.89    5.92
   9   3   0   13.94    5.16
  -9  -3  -1   49.89    8.83
   9   3   1   48.86    8.86
  -9  -3  -2  182.43   13.28
  -9  -3  -2  191.94   13.16
   9   3   2  188.22   14.08
  -9  -3  -3  100.87   10.02
  -9  -3  -3   96.18    9.68
   9   3   3   89.82   10.23
  -9  -3  -4    4.76    3.43
  -9  -3  -4    1.31    2.78
   9   3   4   -0.93    2.53
  -9  -3  -5  132.58   11.84
   9   3   5  143.89   13.02
  -9  -3  -6  147.18   12.50
   9   3   6  173.77   14.36
  -9  -3  -7   -1.48    2.55
   9   3   7    0.59    3.32
  -9  -3  -8  114.86   11.53
   9   3   8  110.37   12.33
  -9  -3  -9  120.54   11.87
   9   3   9  112.23   12.61
  -9  -3 -10   10.82    5.17
   9   3  10    8.99    5.40
  -9  -3 -11   60.56   10.25
   9   4  -6    9.34    5.68
  -9  -4   5   22.04    6.47
  -9  -4   5   25.65    7.17
   9   4  -5   24.94    7.69
  -9  -4   4  130.66   11.96
  -9  -4   4  130.27   12.09
   9   4  -4  122.30   12.95
  -9  -4   3   27.29    6.59
  -9  -4   3   36.17    7.54
   9   4  -3   34.37    8.07
  -9  -4   2   29.70    6.56
  -9  -4   2   31.17    6.66
   9   4  -2   25.42    7.18
  -9  -4   1  153.29   11.35
  -9  -4   1  155.03   11.41
   9   4  -1  150.17   11.37
  -9  -4   0  149.13   13.06
   9   4   0  163.80   12.11
  -9  -4  -1    1.04    3.09
   9   4   1   -0.52    2.51
   9   4   1    0.46    3.16
  -9  -4  -2  156.27   13.07
   9   4   2  167.86   12.76
   9   4   2  152.71   12.58
  -9  -4  -3  109.25   10.97
   9   4   3  119.57   10.99
   9   4   3  106.19   10.82
  -9  -4  -4    4.37    3.77
   9   4   4    2.04    3.57
  -9  -4  -5   75.29    9.24
  -9  -4  -5   68.23   10.08
   9   4   5   59.83    9.98
  -9  -4  -6  211.35   14.72
  -9  -4  -6  203.38   14.75
   9   4   6  224.67   16.14
  -9  -4  -7   26.37    6.74
  -9  -4  -7   29.17    7.10
   9   4   7   36.86    8.40
  -9  -4  -8   63.63   10.08
   9   4   8   58.19   10.62
  -9  -4  -9  140.36   12.91
   9   4   9  141.87   14.20
  -9  -4 -10   94.83   10.97
   9   4  10   74.81   12.24
  -9  -4 -11   -1.52    2.94
   9   4  11    0.92    3.84
  -9  -5   5    1.65    3.62
   9   5  -5    4.59    4.51
  -9  -5   4  164.19   13.41
   9   5  -4  168.57   15.40
  -9  -5   3  124.75   11.47
   9   5  -3  106.25   12.26
  -9  -5   2    3.49    3.12
   9   5  -2    2.18    3.60
  -9  -5   1   70.75    8.17
   9   5  -1   76.38    8.88
  -9  -5   0  136.20   13.01
   9   5   0  169.21   12.76
  -9  -5  -1   33.74    7.86
   9   5   1   39.26    7.89
  -9  -5  -2   61.70   10.26
   9   5   2   77.72    9.30
  -9  -5  -3  163.58   13.70
   9   5   3  174.64   13.47
   9   5   3  173.95   13.13
  -9  -5  -4   35.29    7.86
   9   5   4   47.76    8.74
   9   5   4   41.56    8.21
  -9  -5  -5   14.46    5.42
   9   5   5   17.72    5.63
   9   5   5   23.03    6.58
  -9  -5  -6  217.57   15.47
   9   5   6  241.54   16.38
   9   5   6  211.39   15.51
  -9  -5  -7  176.77   14.19
  -9  -5  -7  168.94   13.82
   9   5   7  173.21   14.52
  -9  -5  -8   -0.57    3.20
  -9  -5  -8    2.22    3.16
   9   5   8   -0.97    2.74
  -9  -5  -9   83.45   11.95
  -9  -5  -9   86.80   10.35
   9   5   9   80.52   12.37
  -9  -5 -10  120.65   12.19
  -9  -5 -10  122.00   12.23
   9   5  10  107.21   12.61
  -9  -5 -11    1.35    3.77
   9   5  11    3.70    4.56
  -9  -6   4   54.59    9.81
   9   6  -4   49.46   10.20
  -9  -6   3  173.23   13.61
   9   6  -3  176.18   15.69
  -9  -6   2   47.55    8.34
   9   6  -2   44.85    9.58
   9   6  -1    7.27    4.07
  -9  -6   0  133.55   13.43
   9   6   0  152.20   12.66
  -9  -6  -1   80.54   12.18
   9   6   1   92.24   10.27
  -9  -6  -2    6.54    4.55
   9   6   2   10.40    4.92
  -9  -6  -3  186.65   15.23
   9   6   3  198.71   14.90
  -9  -6  -4  192.35   15.41
   9   6   4  235.89   16.22
  -9  -6  -5    9.34    5.05
   9   6   5   10.65    4.87
   9   6   5    8.46    4.49
  -9  -6  -6   97.01   11.25
   9   6   6   99.76   11.01
   9   6   6  116.20   11.58
  -9  -6  -7  160.71   14.16
   9   6   7  182.51   14.71
   9   6   7  174.53   14.41
  -9  -6  -8   27.44    7.57
   9   6   8   20.91    6.90
  -9  -6  -9   59.21   10.48
  -9  -6  -9   53.50    9.95
   9   6   9   48.66    9.88
  -9  -6 -10  121.30   12.68
  -9  -6 -10  125.50   12.54
   9   6  10  102.58   12.55
  -9  -6 -11   44.45    9.28
  -9  -6 -11   42.00    9.04
   9   6  11   41.93    9.74
  -9  -7   4   -0.41    3.43
  -9  -7   3   96.13   10.65
   9   7  -3  102.09   12.32
   9   7  -2  118.87   13.27
  -9  -7   1    0.25    3.33
   9   7  -1    1.18    3.29
  -9  -7   0  128.40   13.60
   9   7   0  125.55   12.02
  -9  -7  -1  180.21   15.60
   9   7   1  201.66   15.21
  -9  -7  -2   38.88    8.93
   9   7   2   41.09    8.48
  -9  -7  -3   94.32   11.54
   9   7   3   92.83   10.84
  -9  -7  -4  176.19   15.02
   9   7   4  188.04   15.10
  -9  -7  -5   40.54    8.99
   9   7   5   37.94    8.30
  -9  -7  -6   20.53    6.71
   9   7   6   26.33    7.26
  -9  -7  -7  175.82   15.03
   9   7   7  161.94   14.36
   9   7   7  162.56   13.73
   9   7   8   93.41   11.24
   9   7   8   97.27   11.30
  -9  -7  -9    2.56    3.98
   9   7   9    0.38    3.69
   9   7   9    1.82    4.02
  -9  -7 -10   79.37   12.49
  -9  -7 -10  106.29   11.83
   9   7  10   88.40   13.21
  -9  -7 -11  122.46   13.03
  -9  -8   1   29.72    8.55
  -9  -8   0   22.59    7.42
   9   8   0   17.55    6.36
  -9  -8  -1  133.46   13.74
   9   8   1  154.33   13.94
  -9  -8  -2   48.61    9.98
   9   8   2   61.39   10.56
  -9  -8  -3    6.47    4.68
   9   8   3    7.05    4.46
  -9  -8  -4  126.80   13.26
   9   8   4  145.91   13.79
  -9  -8  -5  170.87   15.25
   9   8   5  155.56   14.24
  -9  -8  -6   -1.06    3.52
   9   8   6   -0.24    2.79
  -9  -8  -7  116.38   12.93
   9   8   7  103.11   12.04
  -9  -8  -8  148.15   14.56
   9   8   8  152.99   14.22
  -9  -8  -9   32.35    8.62
   9   8   9   22.57    7.34
  -9  -8 -10   21.87    7.39
   9   8  10   13.16    6.09
  -9  -9   0    1.78    4.12
   9   9   0   -2.42    3.54
  -9  -9  -1  100.23   14.41
   9   9   1   98.16   11.75
  -9  -9  -2   94.54   13.92
   9   9   2  105.36   12.00
  -9  -9  -3    8.85    5.42
   9   9   3    4.38    4.59
  -9  -9  -4   44.75    9.62
   9   9   4   60.37   10.83
  -9  -9  -5  130.78   13.79
   9   9   5  161.85   15.04
  -9  -9  -6   38.97    9.45
   9   9   6   39.82    9.00
  -9  -9  -7   19.70    7.13
   9   9   7   16.53    6.31
  -9  -9  -8   66.46   11.93
   9   9   8   69.01   11.58
  -9  -9  -9   33.99    8.96
   9  10   1   18.04    7.11
   9  10   2   93.91   13.74
  -9 -10  -3   27.33    8.06
   9  10   3   25.79    7.56
  -9 -10  -4    2.43    4.03
   9  10   4    2.19    4.16
  -9 -10  -5   42.08    9.79
   9  10   5   45.89    9.93
  -9 -10  -6   41.40    9.65
  -9 -10  -7   -1.89    3.42
 -10   7   0   65.46   10.77
  10  -7   0   62.12   11.13
 -10   7  -1   13.35    5.95
  10  -7   1   11.78    5.76
  10  -7   2   17.64    6.75
  10  -6  -2   32.15    7.98
 -10   6   1   11.46    6.18
  10  -6  -1    8.67    5.09
 -10   6   0  139.42   12.88
 -10   6   0  123.40   13.57
  10  -6   0  142.65   13.62
 -10   6  -1  110.80   11.92
  10  -6   1  121.78   12.67
 -10   6  -2    8.99    5.32
  10  -6   2    9.44    5.25
  10  -6   2    9.83    5.57
  10  -5  -4    1.34    3.47
 -10   5   3   90.58   13.88
  10  -5  -3  102.81   11.78
 -10   5   2  195.64   17.21
  10  -5  -2  186.62   15.19
 -10   5   1   51.16   10.71
  10  -5  -1   45.36    9.33
 -10   5   0   41.11    8.43
 -10   5   0   39.85    9.36
  10  -5   0   44.57    8.86
 -10   5  -1  139.30   12.76
  10  -5   1  168.86   14.02
  10  -5   1  147.12   14.43
 -10   5  -2   52.74    9.70
  10  -5   2   36.16    7.98
  10  -5   2   45.29    9.60
 -10   5  -3   17.03    6.28
  10  -5   3   23.83    7.54
 -10   5  -4  132.21   13.08
  10  -5   4  151.68   14.49
 -10   4   4   49.46   10.89
  10  -4  -4   49.57    9.63
 -10   4   3   15.60    6.95
  10  -4  -3   13.79    5.66
 -10   4   2  150.37   15.14
  10  -4  -2  196.74   15.11
 -10   4   1   72.40   12.05
  10  -4  -1   87.59   10.44
 -10   4   0   -1.56    2.78
  10  -4   0    2.06    3.62
 -10   4  -1  154.62   12.96
  10  -4   1  182.56   14.09
  10  -4   1  160.42   15.07
 -10   4  -2  119.17   11.81
  10  -4   2  136.67   13.77
 -10   4  -3    2.38    3.74
  10  -4   3    1.66    3.77
 -10   4  -4   78.05   11.70
  10  -4   4   80.83   12.54
 -10   4  -5  159.12   14.27
  10  -4   5  166.76   15.17
 -10   3   5  127.66   14.63
  10  -3  -5  143.70   13.58
 -10   3   4   94.97   14.11
  10  -3  -4  114.85   11.91
 -10   3   3    0.36    4.08
  10  -3  -3    0.38    2.94
 -10   3   2   94.21   13.85
  10  -3  -2  119.66   11.75
 -10   3   1  188.66   16.34
  10  -3  -1  202.38   14.78
 -10   3   0   25.16    6.42
  10  -3   0   27.95    6.83
  10  -3   0   24.52    7.45
 -10   3  -1   57.07    9.24
  10  -3   1   58.42    9.19
  10  -3   1   58.67   10.77
 -10   3  -2  170.64   13.31
  10  -3   2  173.27   15.32
 -10   3  -3   49.08    9.03
  10  -3   3   42.43    9.07
 -10   3  -4   54.50    9.70
  10  -3   4   42.65    9.07
 -10   3  -5  203.97   15.59
  10  -3   5  218.09   17.03
 -10   3  -6  162.87   14.28
  10  -3   6  172.21   15.40
 -10   2   6    3.93    5.35
 -10   2   5   94.87   14.38
  10  -2  -5  107.24   11.73
 -10   2   4  151.46   15.34
  10  -2  -4  190.07   15.00
 -10   2   3   25.48    7.75
  10  -2  -3   35.71    7.80
 -10   2   2   22.99    7.49
  10  -2  -2   35.08    7.44
 -10   2   1  155.02   14.97
  10  -2  -1  168.77   13.17
 -10   2   0   44.34    7.86
  10  -2   0   35.40    7.31
  10  -2   0   40.26    8.95
 -10   2  -1   11.98    4.81
  10  -2   1    6.76    3.76
  10  -2   1    8.27    4.81
 -10   2  -2  195.47   14.03
  10  -2   2  185.27   15.77
 -10   2  -3  171.56   13.39
  10  -2   3  154.90   14.39
 -10   2  -4    3.30    3.40
  10  -2   4    2.41    3.76
 -10   2  -5   82.21   10.01
  10  -2   5   69.08   11.33
 -10   2  -6  121.41   12.40
  10  -2   6  103.17   12.10
 -10   2  -7    3.21    4.13
  10  -2   7    0.08    3.36
 -10   1   6   40.24    9.96
 -10   1   5    9.77    6.18
  10  -1  -5    8.94    4.91
 -10   1   4   79.68   12.86
  10  -1  -4  111.98   11.59
 -10   1   3   83.35   13.30
  10  -1  -3   87.77   10.15
 -10   1   2    1.52    3.56
  10  -1  -2   -0.76    2.56
 -10   1   1  148.04   14.23
  10  -1  -1  157.28   12.33
 -10   1   0  205.12   13.39
  10  -1   0  205.67   13.69
  10  -1   0  201.31   16.37
 -10   1  -1   25.74    6.32
  10  -1   1   25.14    7.38
 -10   1  -2   26.53    6.47
  10  -1   2   29.98    7.83
 -10   1  -3  113.05   10.99
  10  -1   3  101.73   11.88
 -10   1  -4   15.01    5.34
  10  -1   4   19.02    6.45
 -10   1  -5   99.15   10.68
  10  -1   5  100.17   11.71
 -10   1  -6  207.22   15.53
  10  -1   6  197.27   16.22
 -10   1  -7  128.48   12.70
  10  -1   7  140.79   14.02
 -10   1  -8    0.52    3.43
  10  -1   8   -1.17    3.62
 -10   0   5   -2.37    3.99
  10   0  -5    3.66    3.92
 -10   0   4   90.21   13.25
  10   0  -4  148.96   12.95
 -10   0   3  167.69   15.41
  10   0  -3  195.36   14.39
 -10   0   2   66.53   11.67
  10   0  -2   59.37    9.22
 -10   0   1   12.80    5.83
  10   0  -1   12.66    4.61
 -10   0   0  131.05   10.75
  10   0   0  137.80   10.99
  10   0   0  114.71   12.36
 -10   0  -1    5.07    3.53
  10   0   1    8.78    4.83
 -10   0  -2   32.21    7.00
  10   0   2   21.98    6.75
 -10   0  -3  203.82   14.21
  10   0   3  217.55   16.63
 -10   0  -4  176.88   13.70
  10   0   4  185.40   15.40
 -10   0  -5    0.78    3.02
  10   0   5    1.48    3.39
 -10   0  -6   48.63    9.33
  10   0   6   51.80   10.32
 -10   0  -7   50.84    9.34
  10   0   7   54.37   10.43
 -10   0  -8    1.76    3.28
  10   0   8   -2.86    3.11
 -10  -1   4   14.13    6.44
  10   1  -4    6.77    4.04
 -10  -1   3   46.68    9.58
  10   1  -3   54.48    9.04
 -10  -1   2   41.80    9.18
  10   1  -2   44.15    8.08
 -10  -1   1    4.14    4.35
  10   1  -1    6.38    3.62
 -10  -1   0  197.98   13.05
  10   1   0  194.52   15.60
 -10  -1  -1  160.06   12.08
  10   1   1  164.50   14.53
 -10  -1  -2   25.74    6.27
  10   1   2   22.34    6.63
 -10  -1  -3   21.97    5.95
  10   1   3   15.46    5.87
 -10  -1  -4   81.42    9.47
  10   1   4   88.19   10.87
 -10  -1  -5    5.12    3.99
  10   1   5    5.85    4.59
 -10  -1  -6   79.64    9.92
  10   1   6   76.76   12.05
 -10  -1  -7  125.81   12.33
  10   1   7  123.22   13.05
 -10  -1  -8   60.80   10.29
  10   1   8   74.96   12.28
 -10  -1  -9    2.03    3.45
 -10  -2   5   31.69    7.66
 -10  -2   5   28.71    7.58
 -10  -2   4    1.81    3.65
 -10  -2   4    4.57    3.99
 -10  -2   2  146.39   13.75
  10   2  -2  181.69   13.20
 -10  -2   1   47.12    9.67
  10   2  -1   58.35    8.69
 -10  -2   0    7.32    3.99
  10   2   0    5.88    4.48
 -10  -2  -1   87.49    9.29
  10   2   1   87.24   10.72
 -10  -2  -2    4.05    3.41
  10   2   2   -0.33    3.06
 -10  -2  -3   22.49    6.12
  10   2   3   26.01    7.29
 -10  -2  -4   75.78    9.20
  10   2   4   92.14   11.17
 -10  -2  -5   45.75    8.69
  10   2   5   53.74   10.15
 -10  -2  -6    3.28    3.71
  10   2   6    6.54    4.68
 -10  -2  -7   45.28    8.85
  10   2   7   53.50   10.12
 -10  -2  -8   38.03    8.08
  10   2   8   41.18    9.42
 -10  -2  -9    0.89    3.13
  10   2   9    0.73    3.97
 -10  -3   4   32.23    7.35
 -10  -3   4   38.74    8.18
 -10  -3   3    2.88    3.67
 -10  -3   3    4.32    3.87
 -10  -3   2   16.81    5.49
 -10  -3   2   24.39    6.23
 -10  -3   0    2.34    3.30
  10   3   0    3.07    3.94
 -10  -3  -1   65.21    9.55
  10   3   1   69.70   10.92
 -10  -3  -2   35.92    7.46
  10   3   2   32.91    7.82
 -10  -3  -3    1.80    2.92
  10   3   3    3.52    3.82
 -10  -3  -4    9.73    4.84
  10   3   4   11.25    5.34
 -10  -3  -5   37.45    7.94
  10   3   5   30.09    7.70
 -10  -3  -6   -0.28    2.89
  10   3   6    4.37    4.09
 -10  -3  -7   24.77    6.96
  10   3   7   23.47    7.16
 -10  -3  -8   39.98    8.46
  10   3   8   44.17    9.95
 -10  -3  -9   28.43    7.39
  10   3   9   34.05    8.73
 -10  -4   4   11.58    5.39
 -10  -4   4    7.73    4.62
  10   4  -4   11.03    5.91
 -10  -4   3    1.60    3.27
 -10  -4   3    1.92    3.30
  10   4  -3    0.11    3.52
 -10  -4   2   20.50    5.98
 -10  -4   2   24.04    6.31
 -10  -4   1   43.02    9.33
 -10  -4   0    4.46    4.38
  10   4   2   20.15    6.35
 -10  -4  -3    0.14    2.80
  10   4   3   -1.72    3.09
 -10  -4  -4    1.43    3.26
  10   4   4    4.26    4.19
 -10  -4  -5   19.28    6.21
  10   4   5   22.49    6.76
 -10  -4  -6    5.26    4.07
  10   4   6    9.64    5.30
 -10  -4  -7    0.88    2.91
  10   4   7    0.21    3.39
 -10  -4  -8    3.15    3.96
  10   4   8   -0.25    3.48
 -10  -4  -9    7.92    4.78
  10   4   9    5.38    4.87
 -10  -5   4   11.75    5.26
 -10  -5   3   10.84    4.89
  10   5  -3    3.43    4.20
 -10  -5   1    1.48    3.78
 -10  -5   0    2.10    3.79
  10   5   0    0.76    2.97
 -10  -5  -1    1.51    3.64
  10   5   1   -0.72    2.87
 -10  -5  -2    3.85    4.19
  10   5   2    7.50    4.30
 -10  -5  -3    6.51    4.50
  10   5   3    6.57    4.48
 -10  -5  -4    3.12    3.79
  10   5   4    4.06    3.44
  10   5   4    1.67    3.47
 -10  -5  -5    1.71    3.45
  10   5   5   -1.11    3.32
 -10  -5  -6    2.64    3.57
  10   5   6   -0.50    3.42
 -10  -5  -7    0.05    3.11
  10   5   7   -0.25    3.53
 -10  -5  -8    0.89    3.34
  10   5   8    3.39    4.52
 -10  -5  -9    8.06    4.94
  10   5   9    9.11    5.51
 -10  -6   1   -0.94    3.33
 -10  -6   0    0.87    4.16
  10   6   0    2.09    3.37
 -10  -6  -1    0.43    3.84
  10   6   1    0.03    3.24
 -10  -6  -2   -0.95    3.39
  10   6   2    6.16    4.35
 -10  -6  -3   -0.22    3.25
  10   6   3    4.65    4.01
 -10  -6  -4    3.98    4.30
  10   6   4    7.05    4.18
 -10  -6  -5    3.96    4.14
  10   6   5    0.87    3.24
 -10  -6  -6    3.79    4.21
  10   6   6    3.51    3.67
  10   6   6    2.15    3.80
 -10  -6  -7    0.60    3.79
  10   6   7    3.63    4.09
 -10  -6  -8    9.73    5.30
 -10  -6  -8    8.67    5.17
  10   6   8    2.26    4.17
  10   6   9    6.99    5.16
 -10  -7   1    3.72    4.82
 -10  -7   0    6.75    4.89
  10   7   0    6.80    4.57
 -10  -7  -1   12.12    6.24
  10   7   1   12.46    5.61
 -10  -7  -2    0.98    3.79
  10   7   2    2.45    3.92
 -10  -7  -3    0.53    4.02
  10   7   3    2.85    3.65
 -10  -7  -4    0.06    3.72
  10   7   4    2.14    3.73
 -10  -7  -5    4.99    4.59
  10   7   5    7.83    4.84
 -10  -7  -6   10.95    5.50
  10   7   6   19.50    6.43
 -10  -7  -7   33.52    8.43
  10   7   7   30.26    7.71
 -10  -7  -8   12.36    6.40
  10   7   8   12.97    5.78
 -10  -7  -9    4.67    4.46
  10   7   9    0.65    4.15
 -10  -7 -10    1.50    4.48
 -10  -8  -1    1.21    4.19
  10   8   1    1.22    3.92
 -10  -8  -2   -0.70    3.66
  10   8   2   -2.24    3.27
 -10  -8  -3   34.75    8.74
  10   8   3   35.20    8.40
 -10  -8  -4   43.54    9.51
  10   8   4   49.83    9.79
 -10  -8  -5   23.27    7.59
  10   8   5   22.36    7.15
 -10  -8  -6   -0.13    3.54
  10   8   6    0.51    3.67
 -10  -8  -7    5.68    5.19
 -10  -8  -8    9.09    5.75
 -10  -9  -4   16.52    6.87
 -10  -9  -5   16.32    7.17
 -10  -9  -6    2.59    4.41
  11  -5   0    5.11    4.34
 -11   5  -1    5.66    4.68
  11  -4  -2    4.41    4.20
  11  -4  -1    2.58    3.67
  11  -4   0    0.54    3.50
 -11   4  -1   -0.19    3.29
 -11   4  -2    0.23    3.63
  11  -3  -2   -0.85    3.09
  11  -3  -1    4.61    3.99
 -11   3   0    0.31    4.09
 -11   3  -1    8.85    4.73
  11  -3   1    4.33    4.26
 -11   3  -2   10.07    5.27
  11  -3   2    9.36    5.67
 -11   3  -3   -1.40    3.08
 -11   3  -4    1.88    3.71
  11  -2  -3    1.61    3.46
 -11   2   2    1.57    4.18
  11  -2  -2    8.63    4.76
 -11   2   1    7.94    5.57
  11  -2  -1   12.65    5.14
 -11   2  -1    5.23    3.93
  11  -2   1    3.42    4.20
 -11   2  -2    1.23    3.35
  11  -2   2    6.18    4.73
 -11   2  -3   -0.62    3.29
  11  -2   3    0.22    3.41
 -11   2  -4   14.72    5.76
  11  -2   4   18.24    6.81
 -11   1   3   10.49    5.78
  11  -1  -3    6.58    4.32
 -11   1   2    1.47    4.28
  11  -1  -2    7.20    4.27
 -11   1   1   10.06    5.90
 -11   1  -1   15.31    5.38
  11  -1   1    7.28    4.98
 -11   1  -2   34.88    7.65
  11  -1   2   40.43    9.24
 -11   1  -3   17.61    5.75
  11  -1   3   16.02    6.25
 -11   1  -4   -0.62    2.91
  11  -1   4    1.43    3.68
 -11   1  -5   43.27    9.10
  11  -1   5   36.16    8.79
 -11   0   4   20.96    7.75
 -11   0   3    6.28    5.37
  11   0  -3   10.29    4.88
 -11   0   2    3.82    4.69
  11   0  -2   -0.54    2.81
 -11   0   1   51.47   10.73
 -11   0  -1   -0.97    2.88
  11   0   1   -0.50    3.21
 -11   0  -2   29.80    7.02
  11   0   2   33.66    8.57
 -11   0  -3   50.92    9.06
  11   0   3   46.39    9.57
 -11   0  -4   -0.66    3.02
  11   0   4    4.84    4.48
 -11   0  -5   18.84    6.08
  11   0   5   22.89    7.30
 -11   0  -6   52.81    9.86
  11   0   6   48.06   10.31
 -11  -1   3   39.62    9.42
  11   1  -3   64.05   10.09
 -11  -1   2    3.51    4.80
 -11  -1   1   30.16    8.47
 -11  -1  -1   18.07    5.75
  11   1   1   17.75    6.61
 -11  -1  -2   19.45    6.00
  11   1   2   18.87    6.94
 -11  -1  -3   84.89   10.01
  11   1   3   83.29   12.74
 -11  -1  -4   34.02    7.82
  11   1   4   38.76    9.02
 -11  -1  -5    4.86    4.20
  11   1   5    5.04    4.46
 -11  -1  -6   78.61   11.71
  11   1   6   76.43   12.19
 -11  -2   3   96.42   10.83
 -11  -2   3   95.70   10.75
 -11  -2   1    5.97    5.07
 -11  -2  -1   73.53    9.08
  11   2   1   70.32   11.63
 -11  -2  -2    0.31    3.04
  11   2   2   -0.44    3.54
 -11  -2  -3   68.08   10.36
 -11  -2  -4  121.36   12.02
  11   2   4  113.55   12.82
 -11  -2  -5   11.68    5.17
  11   2   5   11.09    5.30
 -11  -2  -6   32.09    7.93
  11   2   6   19.86    6.91
  11   2   7   98.37   12.19
 -11  -3  -1  154.20   12.69
  11   3   1  157.18   14.30
 -11  -3  -2   39.94    8.23
  11   3   2   40.40    8.96
 -11  -3  -3   34.95    7.87
  11   3   3   32.02    8.08
 -11  -3  -4  110.30   11.61
  11   3   4  102.62   11.84
 -11  -3  -5   36.24    8.02
  11   3   5   46.66    9.62
 -11  -3  -6    8.32    4.99
  11   3   6    8.42    5.31
  11   3   7   85.29   12.97
 -11  -4  -1  120.02   11.48
 -11  -4  -2   59.86    9.95
 -11  -4  -3    0.26    3.21
  11   4   3    2.27    3.91
 -11  -4  -4  108.52   11.48
  11   4   4   89.98   12.86
 -11  -4  -5  126.24   12.65
  11   4   5  118.78   12.81
 -11  -4  -6    8.98    5.12
  11   4   6    2.57    3.83
  11   4   7   52.60   10.50
 -11  -5  -1   65.55   10.14
 -11  -5  -2  115.39   11.80
 -11  -5  -3   27.47    7.10
 -11  -5  -4   38.91    8.43
 -11  -5  -5  139.98   13.45
  11   5   5  142.22   13.67
 -11  -5  -6   50.75    9.86
  11   5   6   46.17    9.44
  11   5   7   16.45    6.57
  11   6   1   22.98    6.98
  11   6   2  129.07   12.64
  11   6   3   91.08   10.85
  11   6   7   -2.32    3.48
 -11  -7  -1    0.04    4.06
  11   7   1   -1.99    3.48
 -11  -7  -2   76.79   12.66
  11   7   2   83.96   12.15
 -11  -7  -3   91.45   13.60
 -11  -7  -4    8.48    5.79
 -12   1  -2  129.66   12.49
 -12   0  -2  108.08   11.40
 -12  -1  -2   95.97   10.82
 -12  -1  -3   86.05   12.23
 -12  -2   0   29.66    8.67
  12   2   1    2.02    4.38
 -12  -2  -2    7.13    4.64
  12   2   2    5.03    4.98
 -12  -2  -3   60.52   10.36
  12   2   3   35.60    8.65
 -12  -3  -2    0.11    3.42
  12   3   2   -0.40    4.02
  12   3   3   41.30    9.54
  12   3   4   27.10    7.85
 -12  -4  -2    1.63    3.89
  12   4   4    2.86    4.40
   0   0   0    0.00    0.00
;
_shelx_hkl_checksum              11980
loop_
_space_group_symop_operation_xyz
'x, y, z'
'-x, -y, -z'
loop_
_atom_site_label
_atom_site_type_symbol
_atom_site_fract_x
_atom_site_fract_y
_atom_site_fract_z
_atom_site_U_iso_or_equiv
_atom_site_adp_type
_atom_site_occupancy
_atom_site_site_symmetry_order
_atom_site_calc_flag
_atom_site_refinement_flags_posn
_atom_site_refinement_flags_adp
_atom_site_refinement_flags_occupancy
C1 C 0.4373(9) 0.6935(8) 0.6111(8) 0.0115(16) Uani 1 1 d . U .
C2 C 0.4452(9) 0.7653(8) 0.4621(8) 0.0113(16) Uani 1 1 d . U .
C3 C 0.4778(11) 0.6998(9) 0.3691(9) 0.0189(19) Uani 1 1 d . . .
H3 H 0.4922 0.6081 0.3953 0.023 Uiso 1 1 calc R U .
C4 C 0.4893(11) 0.7701(9) 0.2365(10) 0.0190(19) Uani 1 1 d . . .
H4 H 0.5121 0.7241 0.1746 0.023 Uiso 1 1 calc R U .
C5 C 0.4209(10) 0.9011(9) 0.4178(9) 0.0187(19) Uani 1 1 d . . .
H5 H 0.3967 0.9490 0.4779 0.022 Uiso 1 1 calc R U .
C6 C 0.4328(12) 0.9647(10) 0.2841(9) 0.022(2) Uani 1 1 d . . .
H6 H 0.4148 1.0560 0.2557 0.026 Uiso 1 1 calc R U .
C7 C -0.0589(9) 0.6864(8) 0.6069(8) 0.0111(16) Uani 1 1 d . U .
C8 C -0.0433(10) 0.7604(9) 0.4593(8) 0.0138(17) Uani 1 1 d . . .
C9 C 0.0453(10) 0.7066(9) 0.3669(9) 0.0161(18) Uani 1 1 d . . .
H9 H 0.0989 0.6251 0.3935 0.019 Uiso 1 1 calc R U .
C10 C 0.0518(11) 0.7783(9) 0.2327(9) 0.0172(18) Uani 1 1 d . . .
H10 H 0.1098 0.7426 0.1699 0.021 Uiso 1 1 calc R U .
C11 C -0.1187(11) 0.8810(10) 0.4159(9) 0.023(2) Uani 1 1 d . . .
H11 H -0.1785 0.9187 0.4764 0.027 Uiso 1 1 calc R U .
C12 C -0.1059(11) 0.9468(9) 0.2823(9) 0.0200(19) Uani 1 1 d . . .
H12 H -0.1570 1.0292 0.2542 0.024 Uiso 1 1 calc R U .
N1 N 0.4690(9) 0.9017(7) 0.1934(7) 0.0151(15) Uani 1 1 d . . .
N2 N -0.0227(9) 0.8964(7) 0.1918(7) 0.0140(15) Uani 1 1 d . . .
O1 O 0.1794(7) 0.3739(6) 0.8482(6) 0.0156(13) Uani 1 1 d . . .
O2 O 0.1193(7) 0.7190(6) 0.8250(6) 0.0136(12) Uani 1 1 d . . .
O3 O 0.6382(7) 0.7241(6) 0.9283(6) 0.0171(13) Uani 1 1 d . . .
O4 O 0.6740(7) 0.4738(6) 0.7699(6) 0.0166(13) Uani 1 1 d . . .
O5 O 0.3819(7) 0.5727(6) 0.9345(6) 0.0152(13) Uani 1 1 d . . .
O6 O 0.1120(6) 0.4760(6) 1.0717(6) 0.0135(12) Uani 1 1 d . . .
O7 O 0.5170(7) 0.7384(6) 0.6722(6) 0.0165(13) Uani 1 1 d . . .
O8 O 0.3537(7) 0.5950(6) 0.6580(6) 0.0158(13) Uani 1 1 d . . .
O9 O 0.0344(7) 0.5877(6) 0.6432(6) 0.0161(13) Uani 1 1 d . . .
O10 O 0.8394(7) 0.7305(6) 0.6782(6) 0.0173(13) Uani 1 1 d . . .
OW1 O 0.0901(7) 1.1422(6) 0.0439(6) 0.0185(13) Uani 1 1 d . U .
Cu1 Cu 0.5000 1.0000 0.0000 0.0151(3) Uani 1 2 d S . P
Cu2 Cu 0.0000 1.0000 0.0000 0.0152(3) Uani 1 2 d S . P
U1 U 0.14254(3) 0.54524(3) 0.84541(3) 0.01207(9) Uani 1 1 d . . .
U2 U 0.65955(3) 0.59655(3) 0.84980(3) 0.01224(9) Uani 1 1 d . . .
Cl1 Cl 0.3086(2) 0.8859(2) -0.0336(2) 0.0178(4) Uani 1 1 d . . .
loop_
_atom_site_aniso_label
_atom_site_aniso_U_11
_atom_site_aniso_U_22
_atom_site_aniso_U_33
_atom_site_aniso_U_23
_atom_site_aniso_U_13
_atom_site_aniso_U_12
C1 0.012(3) 0.012(3) 0.010(3) -0.002(2) -0.002(2) 0.002(2)
C2 0.011(3) 0.012(3) 0.011(3) -0.002(2) -0.003(2) -0.001(2)
C3 0.027(5) 0.011(4) 0.017(4) 0.000(3) -0.006(4) -0.004(4)
C4 0.022(5) 0.010(4) 0.027(5) -0.008(4) -0.004(4) -0.002(4)
C5 0.021(5) 0.016(5) 0.016(4) -0.003(4) -0.001(4) 0.003(4)
C6 0.033(5) 0.020(5) 0.012(4) -0.006(4) -0.001(4) 0.002(4)
C7 0.011(3) 0.012(3) 0.009(3) -0.001(2) -0.003(2) -0.003(2)
C8 0.016(4) 0.015(4) 0.010(4) 0.000(3) -0.004(3) -0.003(3)
C9 0.016(4) 0.015(4) 0.016(4) -0.003(3) -0.002(3) 0.001(3)
C10 0.025(5) 0.010(4) 0.014(4) -0.001(3) -0.002(4) -0.002(4)
C11 0.027(5) 0.021(5) 0.017(5) -0.006(4) 0.000(4) 0.005(4)
C12 0.025(5) 0.016(5) 0.017(4) -0.003(4) -0.004(4) 0.005(4)
N1 0.022(4) 0.012(4) 0.011(3) 0.000(3) -0.005(3) -0.005(3)
N2 0.019(4) 0.013(4) 0.010(3) -0.004(3) -0.002(3) -0.005(3)
O1 0.020(3) 0.009(3) 0.019(3) -0.006(2) -0.006(3) 0.004(2)
O2 0.018(3) 0.008(3) 0.014(3) -0.001(2) -0.003(2) -0.005(2)
O3 0.022(3) 0.014(3) 0.019(3) -0.011(3) -0.003(3) 0.001(3)
O4 0.022(3) 0.014(3) 0.019(3) -0.009(3) -0.008(3) -0.002(3)
O5 0.013(3) 0.022(3) 0.010(3) -0.004(3) -0.002(2) -0.002(2)
O6 0.011(3) 0.018(3) 0.009(3) -0.001(2) -0.003(2) 0.001(2)
O7 0.019(3) 0.016(3) 0.013(3) -0.002(2) -0.004(2) -0.001(3)
O8 0.016(3) 0.019(3) 0.012(3) -0.003(2) -0.003(2) -0.003(3)
O9 0.021(3) 0.017(3) 0.012(3) -0.006(2) -0.003(2) -0.003(3)
O10 0.016(3) 0.020(3) 0.016(3) -0.004(3) -0.004(2) -0.002(3)
OW1 0.027(3) 0.014(3) 0.018(3) -0.010(3) -0.002(3) -0.004(3)
Cu1 0.0232(8) 0.0125(7) 0.0094(7) -0.0011(6) -0.0038(6) -0.0056(6)
Cu2 0.0255(8) 0.0104(7) 0.0101(7) -0.0020(6) -0.0035(6) -0.0052(6)
U1 0.01157(16) 0.01454(17) 0.00879(15) -0.00174(12) -0.00189(11) 0.00020(12)
U2 0.01131(16) 0.01517(17) 0.00883(15) -0.00170(12) -0.00188(11) 0.00018(12)
Cl1 0.0178(10) 0.0187(11) 0.0175(10) -0.0050(8) -0.0041(8) -0.0032(8)
loop_
_atom_type_symbol
_atom_type_description
_atom_type_scat_dispersion_real
_atom_type_scat_dispersion_imag
_atom_type_scat_source
C C 0.0033 0.0016 'International Tables Vol C Tables 4.2.6.8 and 6.1.1.4'
N N 0.0061 0.0033 'International Tables Vol C Tables 4.2.6.8 and 6.1.1.4'
O O 0.0106 0.0060 'International Tables Vol C Tables 4.2.6.8 and 6.1.1.4'
Cu Cu 0.3201 1.2651 'International Tables Vol C Tables 4.2.6.8 and 6.1.1.4'
U U -9.6767 9.6646 'International Tables Vol C Tables 4.2.6.8 and 6.1.1.4'
H H 0.0000 0.0000 'International Tables Vol C Tables 4.2.6.8 and 6.1.1.4'
Cl Cl 0.1484 0.1585 'International Tables Vol C Tables 4.2.6.8 and 6.1.1.4'
loop_
_geom_angle_atom_site_label_1
_geom_angle_atom_site_label_2
_geom_angle_atom_site_label_3
_geom_angle
_geom_angle_site_symmetry_1
_geom_angle_site_symmetry_3
O7 C1 O8 126.9(8) . .
O7 C1 C2 116.3(7) . .
O8 C1 C2 116.8(7) . .
C3 C2 C5 117.6(8) . .
C3 C2 C1 122.4(8) . .
C5 C2 C1 119.9(8) . .
C2 C3 C4 119.8(8) . .
C2 C3 H3 120.1 . .
C4 C3 H3 120.1 . .
N1 C4 C3 122.6(9) . .
N1 C4 H4 118.7 . .
C3 C4 H4 118.7 . .
C6 C5 C2 119.4(9) . .
C6 C5 H5 120.3 . .
C2 C5 H5 120.3 . .
N1 C6 C5 123.0(9) . .
N1 C6 H6 118.5 . .
C5 C6 H6 118.5 . .
O10 C7 O9 126.9(8) 1_455 .
O10 C7 C8 115.9(8) 1_455 .
O9 C7 C8 117.2(7) . .
C11 C8 C9 118.9(8) . .
C11 C8 C7 120.0(8) . .
C9 C8 C7 121.1(8) . .
C8 C9 C10 118.2(8) . .
C8 C9 H9 120.9 . .
C10 C9 H9 120.9 . .
N2 C10 C9 122.2(9) . .
N2 C10 H10 118.9 . .
C9 C10 H10 118.9 . .
C8 C11 C12 119.8(9) . .
C8 C11 H11 120.1 . .
C12 C11 H11 120.1 . .
N2 C12 C11 122.3(9) . .
N2 C12 H12 118.9 . .
C11 C12 H12 118.9 . .
C6 N1 C4 117.5(8) . .
C6 N1 Cu1 121.5(6) . .
C4 N1 Cu1 121.0(6) . .
C12 N2 C10 118.6(8) . .
C12 N2 Cu2 120.5(6) . .
C10 N2 Cu2 120.8(6) . .
U2 O5 U2 111.2(2) . 2_667
U2 O5 U1 136.0(2) . .
U2 O5 U1 99.5(2) 2_667 .
U1 O6 U2 135.7(3) 2_567 2_667
U1 O6 U1 110.0(2) 2_567 .
U2 O6 U1 112.4(2) 2_667 .
C1 O7 U2 123.1(5) . .
C1 O8 U1 130.1(6) . .
C7 O9 U1 120.4(5) . .
C7 O10 U2 123.7(6) 1_655 .
N1 Cu1 N1 180.0 . 2_675
N1 Cu1 Cl1 91.0(2) . .
N1 Cu1 Cl1 89.0(2) 2_675 .
N1 Cu1 Cl1 89.0(2) . 2_675
N1 Cu1 Cl1 91.0(2) 2_675 2_675
Cl1 Cu1 Cl1 180.0 . 2_675
OW1 Cu2 OW1 180.00(18) 2_575 .
OW1 Cu2 N2 88.4(3) 2_575 2_575
OW1 Cu2 N2 91.6(3) . 2_575
OW1 Cu2 N2 91.6(3) 2_575 .
OW1 Cu2 N2 88.4(3) . .
N2 Cu2 N2 180.0 2_575 .
O2 U1 O1 173.7(3) . .
O2 U1 O6 89.6(2) . 2_567
O1 U1 O6 95.1(2) . 2_567
O2 U1 O6 96.8(2) . .
O1 U1 O6 88.8(2) . .
O6 U1 O6 70.0(2) 2_567 .
O2 U1 O9 88.1(2) . .
O1 U1 O9 88.5(2) . .
O6 U1 O9 80.2(2) 2_567 .
O6 U1 O9 149.8(2) . .
O2 U1 O8 87.9(2) . .
O1 U1 O8 85.9(2) . .
O6 U1 O8 151.1(2) 2_567 .
O6 U1 O8 138.84(19) . .
O9 U1 O8 70.9(2) . .
O2 U1 O5 81.0(2) . .
O1 U1 O5 98.6(2) . .
O6 U1 O5 134.5(2) 2_567 .
O6 U1 O5 67.2(2) . .
O9 U1 O5 142.9(2) . .
O8 U1 O5 73.35(19) . .
O2 U1 U1 93.93(19) . 2_567
O1 U1 U1 92.4(2) . 2_567
O6 U1 U1 35.40(14) 2_567 2_567
O6 U1 U1 34.64(14) . 2_567
O9 U1 U1 115.46(15) . 2_567
O8 U1 U1 173.40(14) . 2_567
O5 U1 U1 100.65(13) . 2_567
O2 U1 U2 104.48(18) . 2_667
O1 U1 U2 78.65(19) . 2_667
O6 U1 U2 102.83(14) 2_567 2_667
O6 U1 U2 33.58(14) . 2_667
O9 U1 U2 166.95(15) . 2_667
O8 U1 U2 105.68(14) . 2_667
O5 U1 U2 39.63(13) . 2_667
U1 U1 U2 67.720(13) 2_567 2_667
O4 U2 O3 177.8(3) . .
O4 U2 O6 91.9(3) . 2_667
O3 U2 O6 90.3(3) . 2_667
O4 U2 O10 92.2(3) . .
O3 U2 O10 88.1(3) . .
O6 U2 O10 79.0(2) 2_667 .
O4 U2 O5 95.2(2) . .
O3 U2 O5 83.3(2) . .
O6 U2 O5 136.8(2) 2_667 .
O10 U2 O5 142.8(2) . .
O4 U2 O5 90.3(2) . 2_667
O3 U2 O5 90.7(2) . 2_667
O6 U2 O5 68.7(2) 2_667 2_667
O10 U2 O5 147.7(2) . 2_667
O5 U2 O5 68.8(2) . 2_667
O4 U2 O7 87.4(2) . .
O3 U2 O7 90.6(2) . .
O6 U2 O7 149.6(2) 2_667 .
O10 U2 O7 70.6(2) . .
O5 U2 O7 73.4(2) . .
O5 U2 O7 141.69(19) 2_667 .
O4 U2 U1 107.3(2) . 2_667
O3 U2 U1 74.7(2) . 2_667
O6 U2 U1 33.99(14) 2_667 2_667
O10 U2 U1 108.33(14) . 2_667
O5 U2 U1 104.10(13) . 2_667
O5 U2 U1 40.91(13) 2_667 2_667
O7 U2 U1 165.34(15) . 2_667
O4 U2 U2 93.3(2) . 2_667
O3 U2 U2 86.4(2) . 2_667
O6 U2 U2 102.75(14) 2_667 2_667
O10 U2 U2 174.21(16) . 2_667
O5 U2 U2 34.45(14) . 2_667
O5 U2 U2 34.33(14) 2_667 2_667
O7 U2 U2 107.64(14) . 2_667
U1 U2 U2 71.869(13) 2_667 2_667
loop_
_geom_bond_atom_site_label_1
_geom_bond_atom_site_label_2
_geom_bond_distance
_geom_bond_site_symmetry_2
C1 O7 1.248(10) .
C1 O8 1.254(10) .
C1 C2 1.536(11) .
C2 C3 1.369(12) .
C2 C5 1.382(12) .
C3 C4 1.378(12) .
C3 H3 0.9300 .
C4 N1 1.336(11) .
C4 H4 0.9300 .
C5 C6 1.374(12) .
C5 H5 0.9300 .
C6 N1 1.331(12) .
C6 H6 0.9300 .
C7 O10 1.227(10) 1_455
C7 O9 1.266(10) .
C7 C8 1.523(11) .
C8 C11 1.366(13) .
C8 C9 1.387(12) .
C9 C10 1.399(12) .
C9 H9 0.9300 .
C10 N2 1.338(11) .
C10 H10 0.9300 .
C11 C12 1.377(12) .
C11 H11 0.9300 .
C12 N2 1.332(11) .
C12 H12 0.9300 .
N1 Cu1 1.998(7) .
N2 Cu2 1.997(7) .
O1 U1 1.816(6) .
O2 U1 1.791(6) .
O3 U2 1.794(6) .
O4 U2 1.763(6) .
O5 U2 2.438(6) .
O5 U2 2.445(6) 2_667
O5 U1 2.510(6) .
O6 U1 2.244(6) 2_567
O6 U2 2.262(6) 2_667
O6 U1 2.287(6) .
O7 U2 2.470(6) .
O8 U1 2.443(6) .
O9 U1 2.411(6) .
O10 C7 1.227(10) 1_655
O10 U2 2.383(6) .
OW1 Cu2 1.985(6) .
Cu1 N1 1.998(7) 2_675
Cu1 Cl1 2.290(2) .
Cu1 Cl1 2.290(2) 2_675
Cu2 OW1 1.985(6) 2_575
Cu2 N2 1.997(7) 2_575
U1 O6 2.244(6) 2_567
U1 U1 3.7108(7) 2_567
U1 U2 3.7808(6) 2_667
U2 O6 2.262(6) 2_667
U2 O5 2.445(6) 2_667
U2 U1 3.7809(6) 2_667
U2 U2 4.0292(7) 2_667
loop_
_geom_hbond_atom_site_label_D
_geom_hbond_atom_site_label_H
_geom_hbond_atom_site_label_A
_geom_hbond_distance_DH
_geom_hbond_distance_HA
_geom_hbond_distance_DA
_geom_hbond_angle_DHA
_geom_hbond_site_symmetry_A
C3 H3 O8 0.93 2.60 3.414(12) 146.0 2_666
C4 H4 O4 0.93 2.64 3.104(11) 111.6 2_666
C6 H6 O3 0.93 2.61 3.454(12) 151.1 2_676
C10 H10 Cl1 0.93 2.69 3.280(9) 122.2 .
C12 H12 O2 0.93 2.58 3.380(11) 143.9 2_576
C12 H12 Cl1 0.93 2.77 3.383(9) 124.3 2_575
C3 H3 O8 0.93 2.60 3.414(12) 146.0 2_666
C4 H4 O4 0.93 2.64 3.104(11) 111.6 2_666
C6 H6 O3 0.93 2.61 3.454(12) 151.1 2_676
C10 H10 Cl1 0.93 2.69 3.280(9) 122.2 .
C12 H12 O2 0.93 2.58 3.380(11) 143.9 2_576
C12 H12 Cl1 0.93 2.77 3.383(9) 124.3 2_575
loop_
_geom_torsion_atom_site_label_1
_geom_torsion_atom_site_label_2
_geom_torsion_atom_site_label_3
_geom_torsion_atom_site_label_4
_geom_torsion
_geom_torsion_site_symmetry_1
O7 C1 C2 C3 128.5(9) .
O8 C1 C2 C3 -50.5(11) .
O7 C1 C2 C5 -50.7(11) .
O8 C1 C2 C5 130.4(9) .
C5 C2 C3 C4 1.7(13) .
C1 C2 C3 C4 -177.5(8) .
C2 C3 C4 N1 -0.4(14) .
C3 C2 C5 C6 -1.1(13) .
C1 C2 C5 C6 178.1(8) .
C2 C5 C6 N1 -0.8(15) .
O10 C7 C8 C11 11.6(12) 1_455
O9 C7 C8 C11 -167.6(8) .
O10 C7 C8 C9 -167.5(8) 1_455
O9 C7 C8 C9 13.2(12) .
C11 C8 C9 C10 -0.7(13) .
C7 C8 C9 C10 178.5(8) .
C8 C9 C10 N2 0.8(14) .
C9 C8 C11 C12 0.1(14) .
C7 C8 C11 C12 -179.1(8) .
C8 C11 C12 N2 0.6(15) .
C5 C6 N1 C4 2.1(14) .
C5 C6 N1 Cu1 -175.5(7) .
C3 C4 N1 C6 -1.5(14) .
C3 C4 N1 Cu1 176.1(7) .
C11 C12 N2 C10 -0.6(14) .
C11 C12 N2 Cu2 -177.1(7) .
C9 C10 N2 C12 -0.1(13) .
C9 C10 N2 Cu2 176.3(7) .
O8 C1 O7 U2 37.4(12) .
C2 C1 O7 U2 -141.5(6) .
O7 C1 O8 U1 54.3(12) .
C2 C1 O8 U1 -126.8(7) .
O10 C7 O9 U1 -37.6(11) 1_455
C8 C7 O9 U1 141.5(6) .
