#------------------------------------------------------------------------------
#$Date: 2020-04-20 21:36:47 +0300 (Mon, 20 Apr 2020) $
#$Revision: 250935 $
#$URL: file:///home/coder/svn-repositories/cod/cif/4/51/75/4517589.cif $
#------------------------------------------------------------------------------
#
# This file is available in the Crystallography Open Database (COD),
# http://www.crystallography.net/
#
# All data on this site have been placed in the public domain by the
# contributors.
#
data_4517589
loop_
_publ_author_name
'Shah, Syed Raza'
'Shah, Zarbad'
'Khiat, Mohammed'
'Khan, Ajmal'
'Hill, Leila R.'
'Khan, Shakeel'
'Hussain, Javid'
'Csuk, Ren\'e'
'Anwar, Muhammad U.'
'Al-Harrasi, Ahmed'
_publ_section_title
;
 Complexes of N- and O-Donor Ligands as Potential Urease Inhibitors
;
_journal_name_full               'ACS Omega'
_journal_paper_doi               10.1021/acsomega.0c01089
_journal_year                    2020
_chemical_formula_moiety         'C12 H20 Co N4 O6, 2(C4 H3 N2 O3), 2(H2 O)'
_chemical_formula_sum            'C20 H30 Co N8 O14'
_chemical_formula_weight         665.45
_space_group_crystal_system      triclinic
_space_group_IT_number           2
_space_group_name_Hall           '-P 1'
_space_group_name_H-M_alt        'P -1'
_atom_sites_solution_hydrogens   mixed
_audit_creation_method           SHELXL-2016/6
_cell_angle_alpha                84.616(2)
_cell_angle_beta                 86.409(4)
_cell_angle_gamma                82.067(4)
_cell_formula_units_Z            1
_cell_length_a                   7.1297(6)
_cell_length_b                   7.9881(8)
_cell_length_c                   12.2187(8)
_cell_measurement_reflns_used    9017
_cell_measurement_temperature    296(2)
_cell_measurement_theta_max      26.42
_cell_measurement_theta_min      3.27
_cell_volume                     685.32(10)
_computing_cell_refinement       'Bruker SAINT'
_computing_data_collection       'Bruker APEX2'
_computing_data_reduction        'Bruker SAINT'
_computing_molecular_graphics    'Bruker SHELXTL'
_computing_publication_material  'Bruker SHELXTL'
_computing_structure_refinement  'SHELXL-2014 (Sheldrick 2014)'
_computing_structure_solution    'SHELXS-97 (Sheldrick 2008)'
_diffrn_ambient_temperature      296(2)
_diffrn_measured_fraction_theta_full 0.998
_diffrn_measured_fraction_theta_max 0.997
_diffrn_measurement_device_type  'Bruker APEX-II CCD'
_diffrn_measurement_method       '\f and \w scans'
_diffrn_radiation_type           MoK\a
_diffrn_radiation_wavelength     0.71073
_diffrn_reflns_av_R_equivalents  0.0423
_diffrn_reflns_av_unetI/netI     0.0243
_diffrn_reflns_Laue_measured_fraction_full 0.998
_diffrn_reflns_Laue_measured_fraction_max 0.997
_diffrn_reflns_limit_h_max       8
_diffrn_reflns_limit_h_min       -8
_diffrn_reflns_limit_k_max       10
_diffrn_reflns_limit_k_min       -9
_diffrn_reflns_limit_l_max       15
_diffrn_reflns_limit_l_min       -15
_diffrn_reflns_number            19633
_diffrn_reflns_point_group_measured_fraction_full 0.998
_diffrn_reflns_point_group_measured_fraction_max 0.997
_diffrn_reflns_theta_full        25.242
_diffrn_reflns_theta_max         26.461
_diffrn_reflns_theta_min         2.957
_exptl_absorpt_coefficient_mu    0.711
_exptl_absorpt_correction_T_max  0.7454
_exptl_absorpt_correction_T_min  0.6872
_exptl_absorpt_correction_type   multi-scan
_exptl_absorpt_process_details   sadabs
_exptl_crystal_colour            pink
_exptl_crystal_density_diffrn    1.612
_exptl_crystal_description       plate
_exptl_crystal_F_000             345
_exptl_crystal_size_max          0.14
_exptl_crystal_size_mid          0.04
_exptl_crystal_size_min          0.031
_refine_diff_density_max         0.365
_refine_diff_density_min         -0.537
_refine_diff_density_rms         0.157
_refine_ls_extinction_method     none
_refine_ls_goodness_of_fit_ref   1.234
_refine_ls_hydrogen_treatment    mixed
_refine_ls_matrix_type           full
_refine_ls_number_parameters     220
_refine_ls_number_reflns         2812
_refine_ls_number_restraints     8
_refine_ls_restrained_S_all      1.233
_refine_ls_R_factor_all          0.0357
_refine_ls_R_factor_gt           0.0293
_refine_ls_shift/su_max          0.001
_refine_ls_shift/su_mean         0.000
_refine_ls_structure_factor_coef Fsqd
_refine_ls_weighting_details
'w=1/[\s^2^(Fo^2^)+(0.0526P)^2^+0.0781P] where P=(Fo^2^+2Fc^2^)/3'
_refine_ls_weighting_scheme      calc
_refine_ls_wR_factor_gt          0.0877
_refine_ls_wR_factor_ref         0.0914
_reflns_Friedel_coverage         0.000
_reflns_number_gt                2522
_reflns_number_total             2812
_reflns_threshold_expression     'I > 2\s(I)'
_cod_data_source_file            ao0c01089_si_002.cif
_cod_data_source_block           SR154_0ma_a
_cod_database_code               4517589
_shelx_shelxl_version_number     2016/6
_shelx_space_group_comment
;
The symmetry employed for this shelxl refinement is uniquely defined
by the following loop, which should always be used as a source of
symmetry information in preference to the above space-group names.
They are only intended as comments.
;
_shelx_res_file
;
TITL SR154_0ma_a.res in P-1
    SR154_0ma_a.res
    created by SHELXL-2016/6 at 14:33:02 on 15-Oct-2018
REM Old TITL SR154_0ma in P1
REM SHELXT solution in P-1
REM R1 0.119,  Rweak 0.010,  Alpha 0.039,  Orientation as input
REM Formula found by SHELXT:  C24 Co N4 O14
CELL  0.71073   7.1297   7.9881  12.2187   84.616   86.409   82.067
ZERR    1.000   0.0006   0.0008   0.0008    0.002    0.004    0.004
LATT  1
SFAC C H CO N O
UNIT 20 30 1 8 14
ACTA
TEMP 23.000
L.S. 10
BOND $H
LIST 4
FMAP 2
dfix 0.82 0.01 O2 H2A O2 H2B
dfix 0.82 0.01 O7 H7A O7 H7B
dfix 0.82 0.01 O3 H3C O3 H3D
dfix 0.84 0.01 N3 H3A
dfix 0.84 0.01 N4 H4A
PLAN 10
WGHT    0.052600    0.078100
FVAR       1.29720
CO1   3    1.000000    0.500000    0.500000    10.50000    0.02388    0.02198 =
         0.01326   -0.00038    0.00251    0.00252
O1    5    0.864934    0.265724    1.038262    11.00000    0.07084    0.03981 =
         0.01882    0.00639    0.00627    0.01087
N1    4    0.759485    0.513323    0.945421    11.00000    0.06474    0.03103 =
         0.02006   -0.00189    0.00550    0.01070
AFIX  93
H1A   2    0.711187    0.556585    1.004369    11.00000   -1.20000
H1B   2    0.750414    0.572305    0.882921    11.00000   -1.20000
AFIX   0
C1    1    0.847533    0.356403    0.950870    11.00000    0.03903    0.03018 =
         0.01960    0.00112    0.00032   -0.00032

O2    5    0.761263    0.647578    0.554663    11.00000    0.02757    0.04019 =
         0.01963   -0.00813    0.00030    0.00714
H2A   2    0.725482    0.682243    0.615040    11.00000   -1.20000
H2B   2    0.671587    0.651011    0.515614    11.00000   -1.20000
N2    4    1.004413    0.332813    0.651165    11.00000    0.02731    0.02250 =
         0.01890    0.00065    0.00115    0.00093
C2    1    0.926485    0.287727    0.845001    11.00000    0.02638    0.02453 =
         0.01967    0.00202   -0.00169    0.00082
N3    4    0.531017    0.745259    0.238977    11.00000    0.03609    0.01833 =
         0.01996    0.00139    0.00019    0.00081
H3A   2    0.574617    0.641835    0.236942    11.00000   -1.20000
O3    5    0.830680    0.339945    0.434405    11.00000    0.03156    0.03585 =
         0.02006   -0.00114    0.00061   -0.00522
H3C   2    0.738629    0.324758    0.475310    11.00000   -1.20000
H3D   2    0.793412    0.366985    0.372931    11.00000   -1.20000
C3    1    0.982301    0.114832    0.841339    11.00000    0.04027    0.02487 =
         0.02225    0.00642   -0.00193    0.00118
AFIX  43
H3    2    0.975636    0.041517    0.904831    11.00000   -1.20000
AFIX   0
O4    5    0.472923    0.683428    0.420377    11.00000    0.03531    0.03503 =
         0.02182    0.01169   -0.00097   -0.00292
N4    4    0.463432    1.014423    0.154555    11.00000    0.04306    0.01903 =
         0.01404    0.00124    0.00223    0.00166
H4A   2    0.462108    1.079883    0.096842    11.00000   -1.20000
C4    1    1.047631    0.053255    0.742570    11.00000    0.04387    0.01974 =
         0.03195   -0.00044   -0.00095    0.00364
AFIX  43
H4    2    1.086606   -0.062113    0.738591    11.00000   -1.20000
AFIX   0
O5    5    0.350231    1.240471    0.248657    11.00000    0.04988    0.02168 =
         0.02205   -0.00368    0.00280    0.00627
C5    1    1.054620    0.164620    0.649584    11.00000    0.03253    0.02858 =
         0.02197   -0.00444    0.00177    0.00173
AFIX  43
H5    2    1.095882    0.121448    0.582859    11.00000   -1.20000
AFIX   0
O6    5    0.580707    0.794237    0.054600    11.00000    0.07417    0.02451 =
         0.01725   -0.00366    0.00416    0.00777
C6    1    0.942827    0.391037    0.748059    11.00000    0.02979    0.02236 =
         0.01892   -0.00012    0.00129    0.00180
AFIX  43
H6    2    0.909088    0.507370    0.750495    11.00000   -1.20000
AFIX   0
C7    1    0.528162    0.848583    0.144150    11.00000    0.03551    0.02181 =
         0.01933   -0.00052   -0.00039   -0.00069
O7    5    0.685661    0.391047    1.223336    11.00000    0.04751    0.03019 =
         0.02509   -0.00442    0.00146   -0.00530
H7A   2    0.586084    0.350430    1.224957    11.00000   -1.20000
H7B   2    0.739609    0.346827    1.170448    11.00000   -1.20000
C8    1    0.468348    0.797155    0.341991    11.00000    0.02190    0.02966 =
         0.01737    0.00270   -0.00195   -0.00413
C9    1    0.407048    0.969621    0.347373    11.00000    0.03415    0.03121 =
         0.01512   -0.00250    0.00260    0.00101
AFIX  43
H9    2    0.368148    1.010459    0.415090    11.00000   -1.20000
AFIX   0
C10   1    0.403142    1.081298    0.253349    11.00000    0.02772    0.02512 =
         0.01839   -0.00376    0.00163   -0.00074
HKLF 4




REM  SR154_0ma_a.res in P-1
REM R1 =  0.0293 for    2522 Fo > 4sig(Fo)  and  0.0357 for all    2812 data
REM    220 parameters refined using      8 restraints

END

WGHT      0.0524      0.0781

REM Highest difference peak  0.365,  deepest hole -0.537,  1-sigma level  0.157
Q1    1   0.2705  1.2453  0.2648  11.00000  0.05    0.36
Q2    1   0.5145  0.6592  0.9034  11.00000  0.05    0.34
Q3    1   0.4324  1.3076  0.1806  11.00000  0.05    0.34
Q4    1   0.2620  1.0389  0.4042  11.00000  0.05    0.33
Q5    1   0.3347  1.2632  0.1459  11.00000  0.05    0.31
Q6    1   0.3647  1.2872  0.1942  11.00000  0.05    0.31
Q7    1   0.7686  0.2769  1.2898  11.00000  0.05    0.30
Q8    1   0.8670  0.2983  1.2485  11.00000  0.05    0.30
Q9    1   0.3641  1.3110  0.2755  11.00000  0.05    0.30
Q10   1   1.1368 -0.0682  0.5998  11.00000  0.05    0.30
;
_shelx_res_checksum              64678
_shelx_hkl_file
;
  -2   0   0 9024.20  337.47
  -2   0   0 9206.28  337.27
   2   0   0 7864.91  337.37
  -3   0   0  126.59    8.20
  -3   0   0  107.39    8.30
  -3   0   0  124.19    8.00
  -3   0   0  124.79    7.70
  -3   0   0  119.99    7.40
   3   0   0  122.79    7.00
   3   0   0  118.19    8.30
   3   0   0  117.99    8.30
   3   0   0  119.59    8.20
  -4   0   0 1879.21   72.29
  -4   0   0 1757.42   69.69
  -4   0   0 1705.33   70.49
  -4   0   0 1689.53   71.39
  -4   0   0 1735.53   69.79
   4   0   0 1865.71   70.59
   4   0   0 1667.13   70.39
   4   0   0 1677.03   70.29
  -5   0   0  370.16   18.30
  -5   0   0  360.76   17.60
  -5   0   0  291.47   20.60
  -5   0   0  360.46   18.20
   5   0   0  398.06   19.30
   5   0   0  359.26   19.20
   5   0   0  346.17   18.30
   5   0   0  355.36   19.40
  -6   0   0  313.37   18.80
  -6   0   0  294.37   17.30
  -6   0   0  286.97   16.70
  -6   0   0  336.47   19.60
   6   0   0  289.17   17.70
   6   0   0  328.37   19.10
   6   0   0  295.27   18.70
   6   0   0  270.87   17.10
  -7   0   0   96.49   13.10
  -7   0   0  109.39   13.10
  -7   0   0   88.19   12.90
  -7   0   0   84.19    9.20
   7   0   0   85.49   13.20
   7   0   0   88.59   11.50
   7   0   0   92.89   11.50
   7   0   0   87.99   10.30
  -8   0   0   14.70   11.50
  -8   0   0   51.19   14.80
  -8   0   0   37.40    8.90
   8   0   0   43.30   11.70
   8   0   0   46.70   14.90
   8   0   0   47.80   11.90
   8   0   0   60.89   15.40
   8   1  -1  258.77   22.50
   8   1  -1  305.27   24.90
   8   1  -1  249.48   20.60
   8   1  -1  249.78   22.20
  -8  -1   1  240.28   19.60
  -8  -1   1  257.07   23.50
   7   1  -1   35.80   11.10
   7   1  -1   24.70    8.60
   7   1  -1   22.10    7.70
   7   1  -1   29.10    8.40
  -7  -1   1   20.00    8.10
  -7  -1   1   18.50   10.30
  -7  -1   1   38.90    8.60
   6   1  -1  442.66   23.10
   6   1  -1  443.46   23.60
   6   1  -1  433.76   22.70
   6   1  -1  418.06   21.20
  -6  -1   1  400.76   18.90
  -6  -1   1  450.15   21.70
  -6  -1   1  437.76   22.00
  -6  -1   1  404.46   22.60
   5   1  -1   98.59   10.30
   5   1  -1   89.09    9.10
   5   1  -1  102.09    8.90
   5   1  -1   91.89    8.50
  -5  -1   1  101.89    9.90
  -5  -1   1  107.09   10.40
  -5  -1   1  119.69   10.90
   4   1  -1  220.18   12.30
   4   1  -1  197.88   11.80
   4   1  -1  226.28   12.40
   4   1  -1  224.68   11.70
  -4  -1   1  217.28   10.10
  -4  -1   1  222.88   12.70
   3   1  -1  579.34   25.10
   3   1  -1  601.74   25.00
   3   1  -1  613.24   25.30
   3   1  -1  598.34   24.90
  -3  -1   1  574.54   23.70
  -3  -1   1  591.94   25.10
  -3  -1   1  599.44   25.10
  -3  -1   1  569.54   25.20
   2   1  -1 1620.34   65.69
   2   1  -1 1652.13   65.79
   2   1  -1 1609.24   65.79
   2   1  -1 1672.23   65.89
  -2  -1   1 1671.23   65.79
  -2  -1   1 1797.72   66.09
  -2  -1   1 1635.84   65.69
   1   1  -1  893.91   34.60
   1   1  -1  760.42   34.50
   1   1  -1  838.02   34.40
  -1  -1   1  873.71   34.60
  -1  -1   1  891.21   34.50
  -1  -1   1  939.41   34.50
  -1  -1   1  879.41   34.30
   0   1  -1    8.50    2.00
   0   1  -1   10.60    1.80
   0   1  -1    7.40    2.50
   0  -1   1    5.80    2.00
   0  -1   1    9.10    2.30
   0  -1   1    9.60    2.20
   0  -1   1   10.40    2.30
  -1   1  -1  495.45   18.50
  -1   1  -1  496.15   19.40
  -1   1  -1  446.06   19.50
  -1   1  -1  455.15   19.50
  -1   1  -1  456.25   19.80
   1  -1   1  456.15   19.30
   1  -1   1  468.05   19.30
   1  -1   1  497.95   18.60
   1  -1   1  479.15   20.00
   1  -1   1  419.66   19.40
  -2   1  -1 1044.50   43.60
  -2   1  -1 1123.59   43.40
  -2   1  -1 1067.59   43.30
  -2   1  -1 1141.79   42.40
  -2   1  -1  992.70   43.10
   2  -1   1 1071.89   43.70
   2  -1   1 1085.89   43.50
   2  -1   1 1043.90   43.20
   2  -1   1 1081.69   43.30
  -3   1  -1 1466.35   60.59
  -3   1  -1 1538.95   59.39
  -3   1  -1 1467.95   60.39
  -3   1  -1 1485.75   60.09
  -3   1  -1 1439.66   60.19
   3  -1   1 1597.54   60.49
   3  -1   1 1453.85   60.49
   3  -1   1 1536.95   60.49
   3  -1   1 1489.65   60.59
  -4   1  -1   11.20    4.20
  -4   1  -1   14.20    5.70
  -4   1  -1    5.40    5.80
  -4   1  -1    4.60    4.50
  -4   1  -1    9.80    5.10
   4  -1   1   10.70    4.40
   4  -1   1   13.40    4.30
   4  -1   1   12.00    4.20
   4  -1   1   11.00    4.30
  -5   1  -1 1294.97   53.09
  -5   1  -1 1236.68   52.89
  -5   1  -1 1284.97   53.09
  -5   1  -1 1336.07   53.39
   5  -1   1 1181.78   53.19
   5  -1   1 1283.97   52.59
   5  -1   1 1117.99   52.29
   5  -1   1 1340.27   53.49
  -6   1  -1  337.17   18.30
  -6   1  -1  302.87   18.00
  -6   1  -1  283.67   19.70
  -6   1  -1  308.17   19.20
   6  -1   1  321.67   20.00
   6  -1   1  290.07   18.10
   6  -1   1  312.47   19.60
   6  -1   1  308.17   18.10
  -7   1  -1  352.76   23.20
  -7   1  -1  426.76   23.60
  -7   1  -1  448.86   23.90
  -7   1  -1  383.26   24.10
   7  -1   1  395.46   23.60
   7  -1   1  439.16   25.50
   7  -1   1  410.56   23.50
  -8   1  -1   20.60   12.40
  -8   1  -1   56.99   13.00
  -8   1  -1   16.30   11.60
   8  -1   1   45.10   13.10
   8  -1   1   50.09   17.10
   8  -1   1   32.00   11.70
   8  -1   1   31.20   14.40
   8   2  -2   16.00   10.80
   8   2  -2    0.50   12.40
   8   2  -2   -8.40   13.60
   8   2  -2  -10.70   12.80
  -8  -2   2    4.20   13.80
   7   2  -2   22.40   11.00
   7   2  -2   -9.10   10.20
   7   2  -2  -10.30    9.00
   7   2  -2   10.10    9.90
  -7  -2   2  -24.70    9.30
  -7  -2   2   12.20   10.00
   6   2  -2    6.90    8.50
   6   2  -2   16.30    7.70
   6   2  -2   19.60    6.80
   6   2  -2   11.20    6.90
  -6  -2   2   18.60    8.00
  -6  -2   2   12.20    7.90
   5   2  -2 1050.99   45.60
   5   2  -2 1069.79   45.20
   5   2  -2 1085.99   46.00
   5   2  -2 1098.79   46.30
  -5  -2   2 1076.79   45.60
  -5  -2   2 1060.29   45.40
   4   2  -2  435.66   21.50
   4   2  -2  444.86   20.80
   4   2  -2  457.45   20.90
  -4  -2   2  455.95   20.90
  -4  -2   2  455.75   18.20
  -4  -2   2  444.26   21.40
  -4  -2   2  442.06   18.20
   3   2  -2  119.69    8.10
   3   2  -2  101.19    7.70
   3   2  -2  120.19    7.90
   3   2  -2  115.79    7.80
  -3  -2   2  110.09    7.20
  -3  -2   2  108.29    7.90
  -3  -2   2  126.69    6.40
  -3  -2   2  110.39    7.90
   2   2  -2 1835.02   67.19
   2   2  -2 1630.44   66.69
  -2  -2   2 1567.04   67.09
  -2  -2   2 1679.23   66.39
  -2  -2   2 1799.82   66.89
  -2  -2   2 1577.44   66.69
   1   2  -2 2834.32  106.69
   1   2  -2 2642.84  106.69
   1   2  -2 2589.54  106.49
   1   2  -2 2712.73  106.39
   1   2  -2 2796.42  106.39
  -1  -2   2 2746.03  106.79
  -1  -2   2 2596.14  106.29
  -1  -2   2 2798.22  106.69
   0   2  -2  103.59    8.10
   0   2  -2   95.89    6.90
   0   2  -2  106.59    6.70
   0   2  -2   92.19    5.90
   0  -2   2   91.99    6.60
   0  -2   2  111.39    6.80
   0  -2   2  110.69    7.90
   0  -2   2  108.69    6.90
  -1   2  -2    1.30    4.10
  -1   2  -2    6.80    2.00
  -1   2  -2    6.40    3.50
  -1   2  -2    4.50    3.70
   1  -2   2   10.20    2.80
   1  -2   2   11.70    3.20
   1  -2   2    7.70    3.50
   1  -2   2    8.70    2.80
  -2   2  -2  280.37   14.10
  -2   2  -2  254.37   13.20
  -2   2  -2  272.77   15.10
  -2   2  -2  290.27   11.80
  -2   2  -2  274.87   13.30
   2  -2   2  290.47   14.30
   2  -2   2  277.07   13.50
   2  -2   2  262.27   13.90
  -3   2  -2  611.14   26.60
  -3   2  -2  600.14   28.10
  -3   2  -2  622.34   27.40
  -3   2  -2  593.74   27.10
  -3   2  -2  631.34   25.10
   3  -2   2  606.64   27.30
   3  -2   2  609.44   28.00
   3  -2   2  629.14   26.80
   3  -2   2  602.94   27.20
  -4   2  -2  120.39   11.50
  -4   2  -2  113.69    9.20
  -4   2  -2  107.39    7.80
  -4   2  -2  100.79   10.10
  -4   2  -2  111.49    9.10
   4  -2   2  110.59    9.30
   4  -2   2  107.99    9.30
   4  -2   2   87.99   10.60
   4  -2   2  125.39   11.20
  -5   2  -2  152.98   12.00
  -5   2  -2  141.99   12.30
  -5   2  -2  160.28   14.80
  -5   2  -2  151.88   13.90
  -5   2  -2  150.38   10.50
   5  -2   2  159.78   12.00
   5  -2   2  157.88   12.00
   5  -2   2  166.68   14.30
   5  -2   2  126.99   12.80
  -6   2  -2  123.49   12.70
  -6   2  -2  120.89   12.70
  -6   2  -2  121.89   12.10
  -6   2  -2  117.59   13.00
   6  -2   2  127.39   14.30
   6  -2   2  117.29   13.80
   6  -2   2  125.59   13.50
   6  -2   2  127.29   14.10
  -7   2  -2   -2.40   12.10
  -7   2  -2  -15.00   12.20
  -7   2  -2    7.10    8.40
  -7   2  -2   17.70   13.70
  -7   2  -2    3.70   10.10
   7  -2   2    9.30    9.60
   7  -2   2    0.30    8.90
   7  -2   2    8.20    9.20
   7  -2   2    9.40    8.70
  -8   2  -2  158.08   21.20
  -8   2  -2  146.89   15.40
  -8   2  -2  100.39   17.40
   8  -2   2  119.49   19.50
   8  -2   2  154.88   23.30
   8  -2   2  136.39   19.20
   8   3  -3   33.60   14.10
   8   3  -3   59.79   13.30
   8   3  -3   51.09   15.70
   8   3  -3   38.30   17.80
  -8  -3   3   73.19   15.30
   7   3  -3   56.39   12.60
   7   3  -3   25.80   12.80
   7   3  -3   30.70   10.40
   7   3  -3   45.70   12.90
  -7  -3   3   47.40   12.20
  -7  -3   3   25.70   11.80
   6   3  -3  152.48   14.70
   6   3  -3  186.98   16.90
   6   3  -3  196.08   16.90
   6   3  -3  174.78   15.10
  -6  -3   3  183.98   15.50
  -6  -3   3  158.58   14.70
   5   3  -3 1445.16   61.89
   5   3  -3 1470.25   61.79
   5   3  -3 1445.96   61.19
   5   3  -3 1513.05   61.79
  -5  -3   3 1401.46   57.89
  -5  -3   3 1517.35   62.39
  -5  -3   3 1529.25   61.59
  -5  -3   3 1501.45   58.09
  -5  -3   3 1559.64   61.69
   4   3  -3  185.88   11.90
   4   3  -3  175.68   12.20
   4   3  -3  154.28   13.30
   4   3  -3  179.18   13.50
  -4  -3   3  196.58   12.40
  -4  -3   3  184.38   12.20
  -4  -3   3  191.18   13.70
  -4  -3   3  171.98    9.40
   3   3  -3 3069.49  132.29
   3   3  -3 3533.55  132.29
   3   3  -3 3369.76  132.19
   3   3  -3 3489.05  132.89
  -3  -3   3 3369.86  132.09
  -3  -3   3 3080.69  131.89
  -3  -3   3 3454.65  132.89
  -3  -3   3 3431.66  131.59
   2   3  -3   66.29    6.80
   2   3  -3   74.99    7.10
   2   3  -3   81.09    7.70
   2   3  -3   62.59    6.70
  -2  -3   3   67.09    6.90
  -2  -3   3   69.49    7.70
  -2  -3   3   72.39    7.00
  -2  -3   3   65.89    7.10
   1   3  -3 2959.10  109.19
   1   3  -3 2772.02  108.89
   1   3  -3 2773.32  108.79
   1   3  -3 2693.33  109.59
  -1  -3   3 2563.24  109.09
  -1  -3   3 2784.62  109.49
  -1  -3   3 2656.73  108.69
  -1  -3   3 2862.81  108.89
   0   3  -3  146.09   10.80
   0   3  -3  142.29    8.90
   0   3  -3  124.79    8.80
   0   3  -3  139.99    8.30
   0  -3   3  122.89    6.90
   0  -3   3  132.79    8.20
   0  -3   3  130.99    8.80
   0  -3   3  140.19    9.20
   0  -3   3  135.79    8.80
  -1   3  -3 1398.46   53.29
  -1   3  -3 1243.28   54.19
  -1   3  -3 1283.87   52.99
  -1   3  -3 1275.57   52.79
   1  -3   3 1271.17   53.09
   1  -3   3 1252.77   52.69
   1  -3   3 1336.77   53.09
   1  -3   3 1357.66   54.59
  -2   3  -3 2809.72  112.99
  -2   3  -3 2862.21  113.09
  -2   3  -3 3060.29  110.89
  -2   3  -3 2893.61  114.49
  -2   3  -3 2434.56  115.79
   2  -3   3 2807.42  113.09
   2  -3   3 2792.52  113.99
   2  -3   3 2987.60  112.79
   2  -3   3 2913.41  116.29
  -3   3  -3  504.45   22.50
  -3   3  -3  487.55   22.70
  -3   3  -3  493.55   25.10
  -3   3  -3  480.95   19.90
  -3   3  -3  468.05   19.00
  -3   3  -3  501.85   23.40
   3  -3   3  454.05   22.70
   3  -3   3  449.76   24.40
   3  -3   3  464.15   23.10
   3  -3   3  467.35   22.50
  -4   3  -3  415.36   21.50
  -4   3  -3  467.15   21.50
  -4   3  -3  408.06   18.00
  -4   3  -3  473.25   24.80
  -4   3  -3  407.56   22.40
  -4   3  -3  408.36   18.30
   4  -3   3  402.46   21.40
   4  -3   3  387.56   25.30
   4  -3   3  433.76   22.40
  -5   3  -3  149.59   13.30
  -5   3  -3  153.08   13.10
  -5   3  -3  170.88   17.40
  -5   3  -3  157.08   15.70
  -5   3  -3  146.99   10.30
  -5   3  -3  153.08   10.10
   5  -3   3  148.09   13.70
   5  -3   3  154.88   13.40
   5  -3   3  163.18   13.30
   5  -3   3  153.38   15.50
  -6   3  -3  324.27   20.60
  -6   3  -3  268.97   16.00
  -6   3  -3  277.77   23.60
  -6   3  -3  285.97   22.80
  -6   3  -3  284.67   22.50
   6  -3   3  311.47   22.90
   6  -3   3  283.97   22.90
   6  -3   3  313.67   20.00
   6  -3   3  335.77   22.20
  -7   3  -3  137.29   17.90
  -7   3  -3  103.99   18.30
  -7   3  -3  134.19   12.20
   7  -3   3  139.69   18.80
   7  -3   3  142.09   18.00
   7  -3   3  152.58   16.70
   7  -3   3  132.99   16.00
   8   4  -4   15.40   12.70
   7   4  -4   36.80   13.30
   7   4  -4  -13.50   11.50
   7   4  -4    1.30   14.30
   7   4  -4   -4.10    9.90
  -7  -4   4   -2.50   11.50
  -7  -4   4   -7.50   13.40
   6   4  -4  254.17   20.80
   6   4  -4  254.47   18.20
   6   4  -4  222.48   18.40
   6   4  -4  216.58   20.20
  -6  -4   4  246.08   18.30
  -6  -4   4  227.58   17.20
  -6  -4   4  238.68   17.80
   5   4  -4   60.59    9.10
   5   4  -4   63.79   10.70
   5   4  -4   44.50   10.40
   5   4  -4   46.80    8.90
  -5  -4   4   46.00    8.80
  -5  -4   4   43.70    4.60
  -5  -4   4   61.39    8.80
  -5  -4   4   61.69    9.40
   4   4  -4  284.47   18.30
   4   4  -4  259.27   15.90
   4   4  -4  238.78   15.80
   4   4  -4  257.17   15.90
  -4  -4   4  278.07   16.10
  -4  -4   4  289.97   14.30
  -4  -4   4  262.17   15.70
  -4  -4   4  241.88   17.50
   3   4  -4  110.99    9.70
   3   4  -4  123.09   10.40
  -3  -4   4   98.49    9.80
  -3  -4   4   96.59    9.80
  -3  -4   4  106.89   10.70
  -3  -4   4  115.39    9.70
   2   4  -4 1269.07   54.29
   2   4  -4 1275.77   54.49
   2   4  -4 1254.37   53.69
   2   4  -4 1319.27   53.79
  -2  -4   4 1290.67   54.39
  -2  -4   4 1323.37   53.79
  -2  -4   4 1366.96   53.79
  -2  -4   4 1338.57   54.39
   1   4  -4   71.69    6.80
   1   4  -4   73.39   13.10
   1   4  -4   69.99    8.50
   1   4  -4   69.29    7.60
  -1  -4   4   70.09    7.70
  -1  -4   4   87.09    8.60
  -1  -4   4   66.89    7.80
  -1  -4   4   79.89    8.30
  -1  -4   4   74.99    6.90
   0   4  -4 1220.88   48.70
   0   4  -4 1141.99   48.30
   0   4  -4 1194.18   50.09
   0   4  -4 1203.88   48.70
   0  -4   4 1106.49   46.50
   0  -4   4 1108.49   48.10
   0  -4   4 1219.78   48.40
   0  -4   4 1183.48   49.70
   0  -4   4 1152.28   48.80
   0  -4   4 1145.39   48.30
  -1   4  -4  382.56   26.00
  -1   4  -4  365.16   19.60
  -1   4  -4  383.36   21.00
  -1   4  -4  421.56   19.90
   1  -4   4  392.16   19.40
   1  -4   4  373.76   18.70
   1  -4   4  388.96   21.60
   1  -4   4  395.36   19.50
  -2   4  -4 2169.28   92.79
  -2   4  -4 2289.97   94.69
  -2   4  -4 2291.67   89.99
  -2   4  -4 2399.76   93.19
  -2   4  -4 2161.28   92.99
   2  -4   4 2406.96   92.89
   2  -4   4 2368.06   94.89
   2  -4   4 2272.17   92.59
   2  -4   4 2309.67   92.49
  -3   4  -4 1523.35   57.69
  -3   4  -4 1510.45   61.89
  -3   4  -4 1465.45   63.29
  -3   4  -4 1422.76   63.79
  -3   4  -4 1487.45   61.59
   3  -4   4 1494.65   63.59
   3  -4   4 1429.56   61.49
   3  -4   4 1380.66   60.49
   3  -4   4 1440.66   61.49
  -4   4  -4  384.86   20.60
  -4   4  -4  373.26   24.90
  -4   4  -4  346.67   22.20
  -4   4  -4  380.56   22.20
  -4   4  -4  354.66   16.20
   4  -4   4  369.66   20.50
   4  -4   4  359.56   22.30
   4  -4   4  368.46   20.10
   4  -4   4  392.76   22.60
  -5   4  -4    0.40    8.30
  -5   4  -4    0.40    8.00
  -5   4  -4    0.70   11.10
  -5   4  -4    6.60   10.50
   5  -4   4    3.40    8.60
   5  -4   4   -0.70   10.50
   5  -4   4   21.20   11.70
   5  -4   4    9.20    9.80
  -6   4  -4  215.78   24.30
  -6   4  -4  178.48   17.90
  -6   4  -4  218.98   21.00
  -6   4  -4  189.48   10.80
  -6   4  -4  205.48   21.20
   6  -4   4  219.68   22.30
   6  -4   4  166.08   19.20
   6  -4   4  215.18   21.20
   6  -4   4  270.27   23.90
  -7   4  -4   78.29   20.60
  -7   4  -4   76.49    8.10
  -7   4  -4   99.39   20.40
   7  -4   4  131.59   20.40
   7  -4   4   96.39   15.30
   7  -4   4   71.29   19.10
   7   5  -5   10.10   16.00
   7   5  -5   58.19   15.50
   7   5  -5   21.10   13.60
  -7  -5   5   27.00   13.50
  -7  -5   5   47.00   15.80
   6   5  -5  204.58   21.30
   6   5  -5  222.18   18.70
   6   5  -5  187.78   18.80
   6   5  -5  213.58   19.10
  -6  -5   5  183.58   18.80
  -6  -5   5  207.58   20.60
  -6  -5   5  194.58    9.30
  -6  -5   5  173.08   19.00
   5   5  -5   24.40    8.80
   5   5  -5   26.00   10.00
   5   5  -5   21.60    9.20
   5   5  -5   24.30   11.80
  -5  -5   5   35.40   10.00
  -5  -5   5   16.60    9.00
  -5  -5   5   37.40   10.30
  -5  -5   5   27.60    5.90
   4   5  -5   75.29    9.90
   4   5  -5   77.89   10.50
   4   5  -5   62.89    9.40
   4   5  -5   90.09   10.70
  -4  -5   5   71.79    9.90
  -4  -5   5   61.19   10.10
  -4  -5   5   61.99    7.80
  -4  -5   5   74.49    9.90
   3   5  -5  411.16   23.10
   3   5  -5  421.76   21.80
   3   5  -5  371.66   21.30
  -3  -5   5  407.16   22.20
  -3  -5   5  421.56   23.70
  -3  -5   5  456.05   21.70
  -3  -5   5  377.76   20.90
   2   5  -5  420.96   23.10
   2   5  -5  443.16   22.40
   2   5  -5  450.45   23.90
   2   5  -5  445.66   22.00
  -2  -5   5  415.06   22.70
  -2  -5   5  441.56   22.30
  -2  -5   5  442.66   22.30
  -2  -5   5  439.46   23.20
  -2  -5   5  444.16   21.20
   1   5  -5   18.00    6.80
   1   5  -5   19.50    6.20
   1   5  -5   30.70    8.80
   1   5  -5   20.80    7.10
  -1  -5   5   14.70    6.40
  -1  -5   5   25.90    9.30
  -1  -5   5   11.80    5.00
  -1  -5   5   20.80    5.70
  -1  -5   5   10.40    8.30
   0   5  -5   10.60    7.40
   0   5  -5   15.10    8.90
   0   5  -5   12.60    6.90
   0  -5   5    8.60    3.60
   0  -5   5    5.30    7.20
   0  -5   5   15.00    5.60
   0  -5   5   10.40    7.60
   0  -5   5    3.00    8.50
   0  -5   5    1.70    4.90
  -1   5  -5  327.87   18.30
  -1   5  -5  338.07   19.50
  -1   5  -5  343.77   19.80
  -1   5  -5  332.77   21.10
   1  -5   5  352.96   20.60
   1  -5   5  299.27   19.40
   1  -5   5  365.26   19.70
   1  -5   5  338.57   19.40
  -2   5  -5 1048.80   49.60
  -2   5  -5 1041.40   46.60
  -2   5  -5 1098.99   45.30
  -2   5  -5 1039.90   45.80
   2  -5   5 1023.30   45.70
   2  -5   5  993.00   45.80
   2  -5   5 1083.89   46.50
   2  -5   5 1088.49   49.30
  -3   5  -5  421.36   26.20
  -3   5  -5  444.76   25.20
  -3   5  -5  423.96   23.20
  -3   5  -5  439.36   18.40
  -3   5  -5  463.65   23.80
   3  -5   5  430.36   25.40
   3  -5   5  422.16   24.40
   3  -5   5  450.95   25.00
   3  -5   5  398.36   23.60
  -4   5  -5  893.21   40.60
  -4   5  -5  868.01   40.60
  -4   5  -5  916.51   40.60
  -4   5  -5  832.12   43.30
   4  -5   5  880.41   41.60
   4  -5   5  845.42   41.80
   4  -5   5  836.62   40.60
   4  -5   5  859.21   44.70
  -5   5  -5  144.09   19.30
  -5   5  -5  182.38   19.20
  -5   5  -5  164.58   19.50
  -5   5  -5  165.68   20.10
   5  -5   5  153.98   19.10
   5  -5   5  168.38   17.80
   5  -5   5  175.08   20.40
   5  -5   5  145.59   17.20
  -6   5  -5   -1.10   18.00
  -6   5  -5   25.00   13.90
   6  -5   5   20.30   12.50
   6  -5   5    9.80   14.50
   6   6  -6    2.40   14.10
   6   6  -6  -18.50   15.80
   6   6  -6   -4.60   14.10
  -6  -6   6   30.30   16.50
  -6  -6   6    5.90   14.50
  -6  -6   6   13.20    7.00
  -6  -6   6   29.90   17.30
   5   6  -6   38.80   12.30
   5   6  -6    8.60   11.60
   5   6  -6    4.10   13.80
   5   6  -6    2.90   11.10
  -5  -6   6   13.20   11.40
  -5  -6   6    8.80   10.30
  -5  -6   6   15.50   12.70
  -5  -6   6    5.10   13.40
   4   6  -6    5.90   14.80
   4   6  -6    1.60   11.60
   4   6  -6   -7.30    9.20
  -4  -6   6   19.60   12.80
  -4  -6   6   -4.80    9.50
  -4  -6   6   -4.30    7.90
  -4  -6   6    8.00    9.80
  -4  -6   6  -13.40    9.90
   3   6  -6  908.81   42.00
   3   6  -6  876.11   41.30
   3   6  -6  974.70   43.60
  -3  -6   6  899.51   44.10
  -3  -6   6  947.41   41.90
  -3  -6   6  908.11   41.60
  -3  -6   6  965.60   43.40
  -3  -6   6  886.51   41.00
   2   6  -6  243.68   17.50
   2   6  -6  225.08   18.40
   2   6  -6  206.18   19.50
   2   6  -6  208.28   16.30
  -2  -6   6  209.28   16.90
  -2  -6   6  226.08   16.30
  -2  -6   6  189.28   16.50
  -2  -6   6  203.58   18.80
  -2  -6   6  214.48   14.40
   1   6  -6  245.68   17.00
   1   6  -6  253.07   21.80
   1   6  -6  264.87   18.70
   1   6  -6  257.07   16.20
  -1  -6   6  244.28   14.30
  -1  -6   6  231.18   15.70
  -1  -6   6  248.48   20.40
  -1  -6   6  236.88   17.10
  -1  -6   6  274.67   20.80
   0   6  -6  141.79   13.90
   0   6  -6  124.99   15.90
   0   6  -6  155.98   16.00
   0   6  -6  152.88   15.60
   0  -6   6  132.29   15.20
   0  -6   6  161.98   12.80
   0  -6   6  139.49   12.60
   0  -6   6  133.69   13.90
  -1   6  -6   -3.30    7.20
  -1   6  -6  -12.30    8.00
  -1   6  -6  -13.10    9.40
  -1   6  -6    7.70    9.40
   1  -6   6   -2.80    8.50
   1  -6   6   -6.60    7.30
   1  -6   6   -7.10    8.80
   1  -6   6    2.10    9.40
   1  -6   6   -2.00   10.50
  -2   6  -6  726.93   37.70
  -2   6  -6  759.02   42.70
  -2   6  -6  743.53   31.90
  -2   6  -6  801.72   36.80
  -2   6  -6  792.82   37.90
   2  -6   6  777.72   41.10
   2  -6   6  741.73   37.40
   2  -6   6  780.12   37.10
   2  -6   6  761.72   36.20
  -3   6  -6  560.04   29.60
  -3   6  -6  549.74   22.30
  -3   6  -6  563.84   29.70
  -3   6  -6  543.25   33.30
  -3   6  -6  530.65   31.30
   3  -6   6  548.85   28.90
   3  -6   6  567.54   32.80
   3  -6   6  535.15   28.20
   3  -6   6  496.95   29.10
  -4   6  -6  416.16   30.00
  -4   6  -6  485.05   30.80
  -4   6  -6  450.55   31.40
   4  -6   6  428.26   26.40
   4  -6   6  345.27   30.70
  -5   6  -6   88.29   15.70
  -5   6  -6   73.49   21.50
   5  -6   6   91.79   20.00
   5  -6   6   57.99   15.30
   4   7  -7  214.68   22.50
  -4  -7   7  218.38   19.40
  -4  -7   7  200.48   24.10
  -4  -7   7  155.48   18.50
  -4  -7   7  205.98   21.20
   3   7  -7  150.98   16.90
   3   7  -7  150.88   17.20
   3   7  -7  129.79   16.30
  -3  -7   7  166.98   16.60
  -3  -7   7  154.98   15.30
  -3  -7   7  161.78   16.70
  -3  -7   7  163.68   17.10
  -3  -7   7  156.18   16.60
   2   7  -7   86.99   15.60
   2   7  -7   66.79   13.40
   2   7  -7   64.49   13.10
  -2  -7   7   80.89   13.30
  -2  -7   7   71.49   14.50
  -2  -7   7   78.49   10.80
  -2  -7   7   78.89   13.90
  -2  -7   7   77.39   12.90
   1   7  -7   22.20   12.10
   1   7  -7   -2.20   13.20
   1   7  -7    3.10   12.70
   1   7  -7   -2.80   11.30
  -1  -7   7   25.30   12.70
  -1  -7   7   31.40   11.10
  -1  -7   7   14.30   11.90
  -1  -7   7   20.90    7.40
  -1  -7   7   12.60   12.40
   0   7  -7  425.06   33.00
   0   7  -7  437.56   27.70
   0   7  -7  415.96   27.00
   0   7  -7  438.36   27.60
   0  -7   7  432.06   26.50
   0  -7   7  425.86   32.40
   0  -7   7  427.36   25.90
   0  -7   7  409.26   24.90
  -1   7  -7  -11.80   11.00
  -1   7  -7    3.00   12.20
  -1   7  -7    6.10    8.30
  -1   7  -7   -8.60   11.90
   1  -7   7   -9.50   13.40
   1  -7   7   12.00   11.30
   1  -7   7  -19.80   10.10
   1  -7   7    2.10   11.40
   1  -7   7    1.70   13.00
  -2   7  -7  380.36   27.00
  -2   7  -7  351.26   28.20
  -2   7  -7  315.67   33.70
   2  -7   7  350.26   24.10
   2  -7   7  380.16   27.20
  -3   7  -7   65.19   17.30
  -3   7  -7   51.09   16.10
  -3   7  -7   59.99   21.00
   3  -7   7   78.89   18.00
   3  -7   7   79.99   17.00
  -1  -8   8   10.60   13.90
   2  -7   8    7.60   13.90
   2  -7   8  -12.00   15.30
   2  -7   8    2.00   15.00
  -2   7  -8   26.30   19.90
  -2   7  -8  -15.30   10.50
  -2   7  -8  -14.80   17.30
   1  -7   8   63.39   15.20
   1  -7   8   83.49   16.30
   1  -7   8   94.79   17.40
  -1   7  -8   91.49   10.10
  -1   7  -8   65.59   12.90
  -1   7  -8   44.90   18.00
  -1   7  -8   61.29   16.10
   0  -7   8   13.30   13.00
   0  -7   8    7.30   16.90
   0  -7   8   28.20   14.10
   0   7  -8   33.70   13.60
   0   7  -8   21.40   14.30
   0   7  -8   19.40   14.00
   0   7  -8    8.00   16.30
  -1  -7   8    1.20   12.80
  -1  -7   8   -1.40   12.10
  -1  -7   8    8.60   14.90
  -1  -7   8   22.30   15.50
   1   7  -8   23.60   13.20
   1   7  -8   -1.90   11.70
   1   7  -8  -21.50   16.40
   1   7  -8   14.40   12.50
  -2  -7   8  294.77   23.00
  -2  -7   8  289.77   20.00
  -2  -7   8  278.77   27.40
  -2  -7   8  330.27   27.80
  -2  -7   8  314.77   23.10
   2   7  -8  285.37   23.20
   2   7  -8  326.37   29.80
   2   7  -8  307.47   23.40
   2   7  -8  301.27   27.60
  -3  -7   8   -0.70   15.90
  -3  -7   8    1.90   13.20
  -3  -7   8   20.30   13.70
  -3  -7   8   17.40   12.20
   3   7  -8    5.20   12.50
   3   7  -8   21.40   25.80
  -4  -7   8   14.90   18.40
  -4  -7   8   11.10   14.00
  -4  -7   8   40.90   14.30
  -4  -7   8    5.00   14.50
   4   7  -8   36.60   18.30
   4  -6   7   11.70   14.50
   4  -6   7   -5.10   15.30
  -4   6  -7   -9.20   12.60
  -4   6  -7   -3.30   16.40
  -4   6  -7   16.70   16.50
   3  -6   7  160.28   18.10
   3  -6   7  196.88   22.10
   3  -6   7  189.38   18.70
   3  -6   7  179.38   16.90
  -3   6  -7  212.08   19.70
  -3   6  -7  181.68   19.00
  -3   6  -7  190.48   20.00
  -3   6  -7  165.08   18.80
   2  -6   7   38.40   11.30
   2  -6   7   39.50   11.50
   2  -6   7   35.50   12.40
   2  -6   7   31.80    9.90
  -2   6  -7   34.80   10.00
  -2   6  -7   19.90   13.40
  -2   6  -7   38.20    6.10
  -2   6  -7   29.40   14.60
  -2   6  -7   57.49   12.70
   1  -6   7  215.58   19.50
   1  -6   7  271.07   21.10
   1  -6   7  239.08   17.10
   1  -6   7  295.57   20.00
   1  -6   7  236.78   23.30
  -1   6  -7  250.27   21.70
  -1   6  -7  255.37   17.20
  -1   6  -7  246.08   20.00
  -1   6  -7  248.58   18.00
   0  -6   7  118.69   13.50
   0  -6   7  130.79   12.50
   0  -6   7  102.89   12.50
   0  -6   7  118.29   14.70
   0   6  -7  140.09   12.70
   0   6  -7   84.49   11.70
   0   6  -7  115.19   13.70
   0   6  -7   92.29   15.40
  -1  -6   7  202.98   19.60
  -1  -6   7  133.99   11.80
  -1  -6   7  137.49   15.00
  -1  -6   7  151.38   14.90
  -1  -6   7  154.38   14.40
   1   6  -7  161.78   16.00
   1   6  -7  137.49   15.10
   1   6  -7  180.08   21.00
   1   6  -7  158.48   14.50
  -2  -6   7   65.09   10.70
  -2  -6   7   96.19   10.20
  -2  -6   7   91.89   14.50
  -2  -6   7   72.59   11.50
  -2  -6   7   76.49   11.50
   2   6  -7   71.69   12.20
   2   6  -7   76.89   11.60
   2   6  -7   78.39   12.90
   2   6  -7   65.49   13.90
  -3  -6   7  313.17   21.30
  -3  -6   7  351.76   22.40
  -3  -6   7  351.26   21.20
  -3  -6   7  307.47   22.30
  -3  -6   7  316.47   20.90
   3   6  -7  385.96   24.40
   3   6  -7  343.47   21.50
  -4  -6   7   43.60   12.40
  -4  -6   7   61.59   12.30
  -4  -6   7    5.70   14.70
  -4  -6   7   43.40   11.70
   4   6  -7   53.89   12.50
   4   6  -7   50.79   11.80
   4   6  -7   59.89   12.10
  -5  -6   7  462.15   28.30
  -5  -6   7  502.45   30.10
  -5  -6   7  445.86   27.10
  -5  -6   7  457.35   31.40
   5   6  -7  472.55   27.40
   5   6  -7  411.96   26.80
   5   6  -7  407.66   31.50
   6  -5   6   73.49   20.30
   6  -5   6   67.69   17.80
  -6   5  -6   56.39   15.10
  -6   5  -6   82.99   21.80
   5  -5   6   58.69   16.40
   5  -5   6   57.09   13.30
   5  -5   6   81.59   15.10
   5  -5   6   91.39   17.70
  -5   5  -6   58.79   16.10
  -5   5  -6   42.10   12.90
  -5   5  -6   61.59   17.50
   4  -5   6   91.79   14.40
   4  -5   6  102.29   15.00
   4  -5   6   88.99   12.30
   4  -5   6  103.69   14.00
  -4   5  -6  109.19   14.60
  -4   5  -6  109.09   13.00
   3  -5   6 2507.75  102.29
   3  -5   6 2447.76   98.69
   3  -5   6 2364.46   98.69
   3  -5   6 2396.36   98.59
  -3   5  -6 2209.38   98.49
  -3   5  -6 2441.36   98.89
  -3   5  -6 2378.56  102.59
  -3   5  -6 2505.55   98.99
   2  -5   6  517.75   27.40
   2  -5   6  532.65   30.30
   2  -5   6  534.45   27.30
   2  -5   6  539.05   27.40
  -2   5  -6  529.85   29.40
  -2   5  -6  522.45   27.50
  -2   5  -6  524.55   28.00
   1  -5   6  549.74   27.20
   1  -5   6  533.05   26.80
   1  -5   6  600.64   26.90
   1  -5   6  535.45   30.30
   1  -5   6  556.14   27.20
  -1   5  -6  564.04   26.40
  -1   5  -6  552.14   27.50
  -1   5  -6  506.65   30.70
  -1   5  -6  530.05   27.60
   0  -5   6    1.00    5.60
   0  -5   6   -1.60    4.20
   0  -5   6    4.90    6.20
   0  -5   6    1.10    8.10
   0  -5   6    4.70    7.90
   0  -5   6   12.40    7.30
   0   5  -6   -1.40    7.30
   0   5  -6   -5.90    6.60
   0   5  -6    3.00    8.60
   0   5  -6   -8.20    7.40
  -1  -5   6  117.19   11.60
  -1  -5   6  106.29    9.80
  -1  -5   6  103.09   11.30
  -1  -5   6  118.49   12.70
  -1  -5   6  107.59   10.40
   1   5  -6   96.89   10.10
   1   5  -6  108.29   11.50
   1   5  -6   89.69   12.00
   1   5  -6  115.69   11.50
  -2  -5   6  226.58   15.10
  -2  -5   6  238.08   15.10
  -2  -5   6  227.88   16.80
  -2  -5   6  216.88   15.60
  -2  -5   6  223.38   18.20
   2   5  -6  236.48   15.50
   2   5  -6  246.68   15.20
   2   5  -6  211.38   15.30
   2   5  -6  233.18   17.60
  -3  -5   6  209.08   14.60
  -3  -5   6  192.48   15.00
  -3  -5   6  210.28   15.80
  -3  -5   6  229.58   15.30
  -3  -5   6  161.68   16.30
   3   5  -6  214.58   15.00
   3   5  -6  205.58   14.80
   3   5  -6  201.78   14.80
  -4  -5   6  190.08   14.90
  -4  -5   6  156.68   14.00
  -4  -5   6  165.18   13.70
  -4  -5   6  160.38   16.00
  -4  -5   6  143.89   15.00
   4   5  -6  163.48   14.60
   4   5  -6  159.08   14.60
   4   5  -6  170.88   14.50
   4   5  -6  143.79   14.10
  -5  -5   6   38.60    6.20
  -5  -5   6   44.90   13.30
  -5  -5   6   53.59   11.00
  -5  -5   6   50.59   10.60
  -5  -5   6   54.39   15.90
   5   5  -6   41.60   10.80
   5   5  -6   43.20   10.30
   5   5  -6   37.40   13.00
   5   5  -6   51.59   10.20
   5   5  -6   56.19   13.90
  -6  -5   6   51.69   12.40
  -6  -5   6   48.90   15.60
  -6  -5   6   62.09   14.80
  -6  -5   6   28.40   14.90
   6   5  -6   43.50   14.90
   6   5  -6   31.60   11.90
   6   5  -6   19.50   12.00
   6   5  -6   28.90   16.30
  -7  -5   6   -6.60   12.60
   7   5  -6   -4.20   16.60
   7  -4   5   45.70   19.60
   7  -4   5    1.90   16.80
  -7   4  -5   20.90    5.40
  -7   4  -5   54.69   19.80
  -7   4  -5   13.40   17.30
   6  -4   5  356.36   28.80
   6  -4   5  420.16   26.80
   6  -4   5  424.16   28.30
   6  -4   5  418.46   32.10
  -6   4  -5  335.87   24.60
  -6   4  -5  413.16   32.90
  -6   4  -5  468.95   29.90
  -6   4  -5  384.06   26.20
   5  -4   5  197.68   18.30
   5  -4   5  189.68   16.70
   5  -4   5  221.28   19.30
   5  -4   5  191.68   19.70
  -5   4  -5  203.08   23.70
  -5   4  -5  205.38   20.60
  -5   4  -5  194.98   16.70
  -5   4  -5  209.18   17.30
   4  -4   5  922.51   43.60
   4  -4   5  995.20   45.50
   4  -4   5  957.90   43.30
   4  -4   5  922.41   42.90
  -4   4  -5 1047.10   44.50
  -4   4  -5  981.80   47.30
  -4   4  -5  986.20   44.10
  -4   4  -5  935.81   44.20
   3  -4   5   14.30    8.40
   3  -4   5    5.50    7.80
   3  -4   5   16.90    7.00
   3  -4   5   20.90    7.20
  -3   4  -5   20.60   10.20
  -3   4  -5    8.70    8.70
  -3   4  -5   17.40    8.80
   2  -4   5  155.88   13.40
   2  -4   5  143.89   13.00
   2  -4   5  177.98   12.00
   2  -4   5  150.68   13.10
  -2   4  -5  168.68   14.00
  -2   4  -5  159.78    8.00
  -2   4  -5  143.89   13.20
  -2   4  -5  161.68   13.10
  -2   4  -5  178.68   17.20
   1  -4   5    8.90    5.40
   1  -4   5   19.40    5.30
  -1   4  -5   23.20    6.40
  -1   4  -5   14.90    5.10
  -1   4  -5   17.20    7.90
  -1   4  -5   15.90    6.80
   0  -4   5  276.47   15.10
   0  -4   5  273.37   16.60
   0  -4   5  276.47   15.20
   0  -4   5  279.67   17.10
   0  -4   5  281.57   12.70
   0  -4   5  237.18   14.50
   0   4  -5  278.27   16.50
   0   4  -5  264.87   15.00
   0   4  -5  229.18   14.80
   0   4  -5  275.57   16.10
  -1  -4   5  159.98   10.00
  -1  -4   5  170.28   11.40
  -1  -4   5  167.88   11.90
  -1  -4   5  156.08   18.60
  -1  -4   5  150.38   11.10
   1   4  -5  153.88   11.20
   1   4  -5  170.78   11.10
   1   4  -5  195.88   11.70
   1   4  -5  168.88   14.00
  -2  -4   5  439.66   21.20
  -2  -4   5  426.36   21.10
  -2  -4   5  438.26   22.20
  -2  -4   5  465.05   21.40
  -2  -4   5  462.75   22.20
   2   4  -5  441.26   21.40
   2   4  -5  466.05   24.90
   2   4  -5  465.25   21.30
   2   4  -5  453.35   22.80
  -3  -4   5  889.21   39.40
  -3  -4   5  930.21   38.80
  -3  -4   5  854.91   38.50
  -3  -4   5  909.91   38.60
  -3  -4   5  851.31   40.40
   3   4  -5  928.81   39.70
   3   4  -5  961.70   40.70
   3   4  -5  912.31   38.70
  -4  -4   5  290.97   16.80
  -4  -4   5  285.67   16.90
  -4  -4   5  316.17   20.00
  -4  -4   5  310.47   15.50
   4   4  -5  274.57   16.60
   4   4  -5  292.27   17.10
   4   4  -5  292.17   19.30
   4   4  -5  317.97   20.00
  -5  -4   5  127.79   12.30
  -5  -4   5  139.39   12.90
  -5  -4   5  129.29   14.70
  -5  -4   5  144.99    7.90
   5   4  -5  109.29   11.80
   5   4  -5  115.79   11.80
   5   4  -5  130.69   12.40
   5   4  -5  115.29   13.60
  -6  -4   5  163.58   15.40
  -6  -4   5  126.29   16.90
  -6  -4   5  172.38   17.30
  -6  -4   5  169.58   16.10
   6   4  -5  159.78   22.30
   6   4  -5  155.38   16.10
   6   4  -5  138.99   16.40
   6   4  -5  133.39   14.30
  -7  -4   5  -11.70   12.10
  -7  -4   5   -4.50   15.50
  -7  -4   5   12.20   13.20
   7   4  -5   14.80   12.10
   7   4  -5    5.20   13.50
   7   4  -5    8.00   13.90
   7   4  -5    0.50   15.80
   7  -3   4  348.87   29.80
   7  -3   4  356.96   24.60
   7  -3   4  378.26   25.40
   7  -3   4  422.16   29.90
  -7   3  -4  367.46   31.20
  -7   3  -4  379.46   20.50
  -7   3  -4  325.67   29.30
  -7   3  -4  361.56   25.40
   6  -3   4  125.59   16.20
   6  -3   4  118.09   15.10
   6  -3   4  102.89   13.30
  -6   3  -4   81.39   15.60
  -6   3  -4  100.09   13.30
  -6   3  -4   85.59   13.80
  -6   3  -4   92.39   14.70
   5  -3   4  -17.70    8.80
   5  -3   4    1.90    9.20
   5  -3   4    0.10    8.50
  -5   3  -4  -19.00    8.30
  -5   3  -4   -5.60    9.80
  -5   3  -4   11.00    7.60
  -5   3  -4    9.90    9.90
   4  -3   4  249.38   17.50
   4  -3   4  283.67   19.40
   4  -3   4  255.87   18.20
   4  -3   4  268.97   18.00
  -4   3  -4  276.57   20.40
  -4   3  -4  283.37   18.30
  -4   3  -4  309.97   16.70
  -4   3  -4  286.77   16.70
   3  -3   4  629.44   29.60
   3  -3   4  618.14   28.60
   3  -3   4  590.84   28.50
  -3   3  -4  594.14   30.60
  -3   3  -4  672.63   25.40
  -3   3  -4  605.24   28.10
  -3   3  -4  573.74   27.70
   2  -3   4   45.80    6.80
   2  -3   4   41.20    7.10
   2  -3   4   37.20    6.40
   2  -3   4   50.59    5.90
  -2   3  -4   48.90    3.60
  -2   3  -4   40.20    7.70
  -2   3  -4   47.10    6.70
  -2   3  -4   43.10    5.90
  -2   3  -4   42.90    6.80
   1  -3   4  824.52   35.80
   1  -3   4  806.82   34.60
   1  -3   4  835.42   34.30
   1  -3   4  807.22   34.90
  -1   3  -4  809.82   34.60
  -1   3  -4  824.02   34.70
  -1   3  -4  798.62   34.50
  -1   3  -4  803.72   36.40
   0  -3   4 1456.75   59.49
   0  -3   4 1368.46   58.59
   0  -3   4 1486.35   59.19
   0  -3   4 1421.76   58.79
   0  -3   4 1393.86   57.59
   0  -3   4 1509.45   60.29
   0   3  -4 1498.25   58.79
   0   3  -4 1516.45   59.39
   0   3  -4 1459.45   58.79
   0   3  -4 1473.75   60.49
  -1  -3   4  144.59    9.10
  -1  -3   4  141.89    9.40
  -1  -3   4  128.79   10.60
  -1  -3   4  141.69    8.60
  -1  -3   4  141.19    9.90
   1   3  -4  134.09   10.50
   1   3  -4  143.09   10.40
   1   3  -4  139.99    8.80
   1   3  -4  147.39    9.10
  -2  -3   4  457.75   19.90
  -2  -3   4  421.16   19.80
  -2  -3   4  418.86   21.10
  -2  -3   4  455.35   20.30
   2   3  -4  430.56   20.50
   2   3  -4  460.25   23.10
   2   3  -4  423.76   19.60
   2   3  -4  394.96   19.60
   2   3  -4  478.55   20.80
  -3  -3   4    0.60    4.20
  -3  -3   4    4.80    6.80
  -3  -3   4    1.90    3.10
  -3  -3   4    1.10    4.60
   3   3  -4    1.60    4.50
   3   3  -4    2.80    4.60
   3   3  -4    1.10    4.30
  -4  -3   4    8.00    5.70
  -4  -3   4    7.40    2.80
  -4  -3   4   13.60    5.90
   4   3  -4   16.10    5.90
   4   3  -4    9.80    7.60
   4   3  -4    0.70    6.80
   4   3  -4   10.50    5.20
  -5  -3   4  798.32   37.30
  -5  -3   4  801.02   35.50
  -5  -3   4  785.42   35.60
   5   3  -4  836.62   35.70
   5   3  -4  813.72   35.80
   5   3  -4  867.41   37.40
   5   3  -4  736.23   35.90
  -6  -3   4  131.79   12.90
  -6  -3   4  131.59   14.10
   6   3  -4  144.49   13.90
   6   3  -4  150.88   15.00
   6   3  -4  140.09   13.80
   6   3  -4  144.79   13.40
  -7  -3   4   -7.10   11.20
  -7  -3   4   10.30   10.80
   7   3  -4   16.60   13.60
   7   3  -4   -1.80    9.10
   7   3  -4    6.20   10.10
   7   3  -4    3.70   11.80
  -8  -3   4   24.30   17.70
  -8  -3   4   21.00   15.10
   8   3  -4   37.80   12.90
   8   3  -4   30.30   14.90
   8   3  -4   50.89   15.50
   8  -2   3   51.09   19.20
   8  -2   3   65.99   14.60
   8  -2   3   53.49   17.40
  -8   2  -3   59.29   18.40
  -8   2  -3   59.59   13.30
  -8   2  -3   55.59   15.60
   7  -2   3  168.28   18.40
   7  -2   3  165.18   17.80
   7  -2   3  174.38   19.30
   7  -2   3  154.88   16.00
  -7   2  -3  151.88   17.50
  -7   2  -3  193.98   19.90
  -7   2  -3  193.38   19.00
  -7   2  -3  151.48   17.00
   6  -2   3   59.19   10.30
   6  -2   3   68.89   12.20
   6  -2   3   81.99   13.30
   6  -2   3   76.09   10.80
  -6   2  -3  100.39   12.00
  -6   2  -3   64.79   10.30
  -6   2  -3   96.09   11.50
  -6   2  -3   72.49   11.10
   5  -2   3  261.77   15.80
   5  -2   3  252.57   17.60
   5  -2   3  242.38   15.50
  -5   2  -3  234.68   17.20
  -5   2  -3  256.27   17.90
  -5   2  -3  264.97   15.60
  -5   2  -3  240.28   18.20
   4  -2   3  482.65   22.90
   4  -2   3  472.75   24.50
   4  -2   3  466.45   23.80
   4  -2   3  483.25   23.70
  -4   2  -3  489.45   23.00
  -4   2  -3  464.95   23.10
  -4   2  -3  508.65   23.20
  -4   2  -3  473.25   24.90
   3  -2   3  122.29    9.70
   3  -2   3  109.79    8.60
   3  -2   3  121.69    8.90
   3  -2   3  117.29   11.10
  -3   2  -3  131.19   11.60
  -3   2  -3  121.19   10.40
  -3   2  -3  116.09    8.60
  -3   2  -3  130.19    6.40
   2  -2   3  419.06   18.00
   2  -2   3  382.96   17.90
   2  -2   3  365.46   17.80
   2  -2   3  389.66   19.60
  -2   2  -3  421.46   18.50
  -2   2  -3  406.66   15.60
  -2   2  -3  399.96   19.80
  -2   2  -3  365.56   18.30
  -2   2  -3  371.26   17.80
   1  -2   3 3412.06  144.59
   1  -2   3 3726.13  144.59
   1  -2   3 3699.93  144.59
   1  -2   3 3834.42  145.79
  -1   2  -3 3785.92  145.69
  -1   2  -3 3656.13  144.49
  -1   2  -3 3785.32  144.69
  -1   2  -3 3600.84  143.09
  -1   2  -3 3714.53  144.59
   0  -2   3 3778.12  162.68
   0  -2   3 4218.78  163.28
   0  -2   3 4307.87  163.38
   0  -2   3 3712.13  163.58
   0  -2   3 4269.47  162.98
   0  -2   3 4299.07  163.98
   0   2  -3 4248.67  163.08
   0   2  -3 4204.88  162.98
   0   2  -3 4577.34  163.48
   0   2  -3 4152.58  163.88
  -1  -2   3    1.00    2.60
  -1  -2   3    8.30    3.20
  -1  -2   3    4.50    4.50
  -1  -2   3    0.00    3.20
  -1  -2   3    1.30    2.60
   1   2  -3    2.40    3.00
   1   2  -3    1.40    3.90
   1   2  -3    3.00    2.90
   1   2  -3    3.00    2.50
   1   2  -3    6.60    3.20
  -2  -2   3 2517.85   99.29
  -2  -2   3 2604.44   99.39
  -2  -2   3 2389.66   99.49
  -2  -2   3 2526.65  100.19
   2   2  -3 2599.84   99.49
   2   2  -3 2487.05  100.09
   2   2  -3 2569.94   99.39
  -3  -2   3    8.30    5.60
  -3  -2   3   10.10    3.80
  -3  -2   3   11.40    4.00
  -3  -2   3   13.40    2.10
   3   2  -3   19.50    4.40
   3   2  -3   17.60    4.10
   3   2  -3   20.50    4.40
   3   2  -3    8.90    5.20
  -4  -2   3  267.97   14.40
  -4  -2   3  282.27   15.00
  -4  -2   3  281.07   16.10
   4   2  -3  282.57   14.90
   4   2  -3  301.17   14.70
   4   2  -3  263.77   14.80
   4   2  -3  285.57   14.70
  -5  -2   3 1206.88   50.29
   5   2  -3 1246.18   50.39
   5   2  -3 1188.08   50.69
   5   2  -3 1255.77   50.99
   5   2  -3 1110.89   50.19
  -6  -2   3  132.09   12.50
   6   2  -3  136.69   13.40
   6   2  -3  135.39   13.20
   6   2  -3  129.79   13.20
   6   2  -3  132.39   13.40
  -7  -2   3   76.09   12.80
   7   2  -3   70.49   10.80
   7   2  -3   76.49   12.40
   7   2  -3   73.29   12.70
  -8  -2   3   78.89   17.10
  -8  -2   3   83.19   15.10
   8   2  -3   62.29   17.60
   8   2  -3   82.39   15.70
   8   2  -3  112.39   16.30
   8   2  -3   80.49   15.60
   8  -1   2   44.80   13.00
   8  -1   2   39.60   15.10
   8  -1   2   55.79   15.90
   8  -1   2   60.29   14.00
  -8   1  -2   69.79   15.00
  -8   1  -2   29.40   13.10
   7  -1   2  334.17   21.20
   7  -1   2  337.97   21.60
   7  -1   2  315.47   21.30
  -7   1  -2  344.87   23.60
  -7   1  -2  384.56   24.10
  -7   1  -2  326.37   23.80
  -7   1  -2  357.56   24.70
   6  -1   2    6.10    7.00
   6  -1   2    1.20    7.30
   6  -1   2    0.90    6.00
   6  -1   2   -3.00    8.70
  -6   1  -2   11.70    9.60
  -6   1  -2    1.00    8.40
  -6   1  -2   -9.30    7.50
  -6   1  -2  -10.10    7.10
   5  -1   2  573.34   26.90
   5  -1   2  564.24   27.60
   5  -1   2  502.95   25.90
   5  -1   2  601.44   27.90
  -5   1  -2  589.34   27.10
  -5   1  -2  613.94   27.10
  -5   1  -2  533.05   26.30
  -5   1  -2  554.34   27.30
   4  -1   2  228.88   12.70
   4  -1   2  214.18   13.10
   4  -1   2  210.58   13.70
   4  -1   2  202.88   13.20
  -4   1  -2  204.98   11.90
  -4   1  -2  216.68   13.60
  -4   1  -2  240.18   14.10
  -4   1  -2  203.68   13.30
   3  -1   2  242.78   12.40
   3  -1   2  240.28   13.30
   3  -1   2  254.47   13.00
   3  -1   2  243.98   12.60
  -3   1  -2  248.58   12.20
  -3   1  -2  255.77   12.70
  -3   1  -2  225.08   13.40
  -3   1  -2  245.38   12.40
   2  -1   2  181.38    7.40
   2  -1   2  164.18    8.60
   2  -1   2  155.68    8.70
   2  -1   2  152.08    8.50
   2  -1   2  157.88    9.90
  -2   1  -2  159.48    9.20
  -2   1  -2  146.19    9.00
  -2   1  -2  171.18    7.20
  -2   1  -2  165.68   10.10
  -2   1  -2  156.18    9.40
   1  -1   2 1394.06   57.19
   1  -1   2 1416.46   57.29
   1  -1   2 1479.25   57.89
  -1   1  -2 1488.85   57.19
  -1   1  -2 1461.05   57.29
  -1   1  -2 1387.46   57.99
  -1   1  -2 1499.05   57.29
   0  -1   2 5843.22  217.38
   0  -1   2 5471.65  217.58
   0  -1   2 4902.51  217.58
   0  -1   2 5833.72  217.38
   0   1  -2 5426.06  217.68
   0   1  -2 6143.39  217.18
  -1  -1   2 1027.60   38.40
  -1  -1   2  955.50   38.90
  -1  -1   2  929.51   38.40
  -1  -1   2  986.20   38.70
  -1  -1   2  940.31   38.20
   1   1  -2  972.40   38.30
   1   1  -2  933.21   38.70
   1   1  -2 1010.10   38.30
   1   1  -2  955.70   38.40
  -2  -1   2  115.19    6.80
  -2  -1   2  116.89    5.00
  -2  -1   2  112.59    7.70
  -2  -1   2  100.09    6.40
   2   1  -2  123.79    6.90
   2   1  -2  116.99    6.40
   2   1  -2  114.99    7.70
   2   1  -2  108.09    6.50
  -3  -1   2  426.76   18.70
  -3  -1   2  412.96   18.80
  -3  -1   2  426.76   18.50
  -3  -1   2  428.86   19.30
   3   1  -2  392.86   19.10
   3   1  -2  417.96   18.50
   3   1  -2  430.26   18.50
   3   1  -2  420.16   18.80
  -4  -1   2  373.26   20.00
  -4  -1   2  435.86   19.50
  -4  -1   2  429.76   20.70
   4   1  -2  425.36   19.60
   4   1  -2  420.06   19.50
   4   1  -2  417.76   19.60
   4   1  -2  427.76   19.70
  -5  -1   2 1414.86   58.39
  -5  -1   2 1384.46   57.89
  -5  -1   2 1432.86   58.19
   5   1  -2 1496.95   58.69
   5   1  -2 1335.07   57.89
   5   1  -2 1424.76   58.19
   5   1  -2 1382.56   58.19
  -6  -1   2  105.89   11.50
  -6  -1   2  122.09   12.50
  -6  -1   2  130.89   11.60
   6   1  -2  142.99   13.90
   6   1  -2  104.19   10.70
   6   1  -2  113.89   11.70
  -7  -1   2   -3.40    7.50
  -7  -1   2    3.80   10.60
  -7  -1   2   11.80    9.40
   7   1  -2    9.10    9.80
   7   1  -2   11.80   10.90
   7   1  -2   10.20   10.10
  -8  -1   2  117.09   15.10
  -8  -1   2  127.89   17.10
   8   1  -2  141.59   18.10
   8   1  -2  154.28   18.20
   8   1  -2  129.99   17.30
   8   1  -2  157.38   17.70
   8   0   1   52.99   12.70
   8   0   1   42.20   15.30
   8   0   1   39.50   16.00
   8   0   1   65.09   15.20
  -8   0  -1   57.69   14.40
  -8   0  -1   64.29   16.30
  -8   0  -1   32.50   10.10
   7   0   1    1.90   11.10
   7   0   1   -0.30    7.20
   7   0   1   -7.90    8.30
   7   0   1    4.30    7.90
  -7   0  -1   -1.20    7.10
  -7   0  -1  -14.50    9.90
  -7   0  -1   -1.40    7.80
  -7   0  -1    4.40    7.80
   6   0   1  448.66   22.30
   6   0   1  402.96   22.30
   6   0   1  441.86   22.60
   6   0   1  470.95   24.20
  -6   0  -1  431.26   23.70
  -6   0  -1  456.15   24.40
  -6   0  -1  462.25   22.70
  -6   0  -1  419.96   22.20
   5   0   1  750.12   34.40
   5   0   1  826.62   34.80
   5   0   1  811.12   34.40
  -5   0  -1  790.02   34.80
  -5   0  -1  795.62   34.00
  -5   0  -1  673.33   35.20
   4   0   1  931.31   39.20
   4   0   1  941.61   38.80
   4   0   1  866.31   39.20
  -4   0  -1  929.51   38.70
  -4   0  -1  940.21   39.00
  -4   0  -1  900.81   38.70
  -4   0  -1  968.90   39.70
   3   0   1 1707.13   74.59
   3   0   1 1957.20   74.79
   3   0   1 1998.60   74.99
   3   0   1 1866.81   74.89
  -3   0  -1 2035.50   75.09
  -3   0  -1 1835.12   74.99
  -3   0  -1 1885.91   74.79
  -3   0  -1 1749.62   74.49
   2   0   1   16.10    2.90
   2   0   1   21.40    3.30
   2   0   1   13.40    2.80
   2   0   1   18.10    3.80
  -2   0  -1   22.90    4.10
  -2   0  -1   13.50    3.10
  -2   0  -1   19.40    3.10
  -2   0  -1   17.00    3.40
   1   0   1 2195.48   81.39
   1   0   1 1971.90   81.19
  -1   0  -1 2084.99   81.59
  -1   0  -1 2081.59   81.29
  -1   0   1  158.28    7.30
  -1   0   1  147.69    7.00
  -1   0   1  167.28    6.90
  -1   0   1  157.08    6.90
   1   0  -1  173.88    6.90
   1   0  -1  168.08    7.10
   1   0  -1  132.09    6.30
  -2   0   1 2257.97   86.39
  -2   0   1 2470.75   86.59
  -2   0   1 1985.60   86.19
  -2   0   1 2079.69   85.59
  -2   0   1 2214.68   86.29
   2   0  -1 2100.99   85.59
   2   0  -1 2225.78   86.29
   2   0  -1 2351.76   86.59
   2   0  -1 2124.49   86.29
  -3   0   1  141.49    8.40
  -3   0   1  141.89    8.00
  -3   0   1  138.09    8.10
  -3   0   1  137.49    8.00
  -3   0   1  142.89    7.10
   3   0  -1  130.09    8.50
   3   0  -1  143.19    8.50
   3   0  -1  138.19    8.10
   3   0  -1  130.79    6.80
  -4   0   1 1826.72   72.09
  -4   0   1 1814.32   72.29
  -4   0   1 1781.72   70.99
  -4   0   1 1874.21   73.99
   4   0  -1 1842.92   72.09
   4   0  -1 1803.82   72.19
   4   0  -1 1744.43   72.09
   4   0  -1 1665.53   72.19
  -5   0   1  301.67   17.00
  -5   0   1  310.17   15.90
  -5   0   1  339.27   17.80
  -5   0   1  289.37   14.70
  -5   0   1  340.87   17.00
   5   0  -1  307.77   16.90
   5   0  -1  288.77   17.50
   5   0  -1  287.27   16.80
   5   0  -1  298.07   16.70
  -6   0   1  101.49    9.10
  -6   0   1   98.29   10.10
  -6   0   1  112.49   11.60
  -6   0   1   98.79   11.40
   6   0  -1  113.09   11.20
   6   0  -1  115.79   10.30
   6   0  -1  100.49   10.20
   6   0  -1  100.19   11.30
  -7   0   1  167.68   12.00
  -7   0   1  177.78   14.50
  -7   0   1  164.48   15.20
  -7   0   1  179.18   17.90
   7   0  -1  187.08   17.60
   7   0  -1  170.98   14.80
   7   0  -1  216.18   17.80
   7   0  -1  193.78   15.80
  -8   0   1  126.59   19.80
  -8   0   1  114.39   17.30
   8   0  -1  120.09   16.60
   8   0  -1  108.49   17.20
   8   0  -1  105.99   16.10
   8   0  -1  113.89   15.80
   8   1   0   56.89   15.20
   8   1   0   35.00   11.20
   8   1   0   44.20   11.80
   8   1   0   51.29   12.10
  -8  -1   0   32.90    7.30
  -8  -1   0   36.60   15.20
  -8  -1   0   50.79   15.20
  -8  -1   0   53.89   15.80
   7   1   0    5.70    8.60
   7   1   0    0.20    8.20
   7   1   0   -9.10   10.00
   7   1   0    5.70    9.50
  -7  -1   0   -2.70   10.10
  -7  -1   0   -3.10    7.40
  -7  -1   0    2.00    5.90
  -7  -1   0   -1.10    9.40
   6   1   0  742.63   35.80
   6   1   0  791.02   34.80
   6   1   0  798.12   36.00
   6   1   0  788.92   35.70
  -6  -1   0  723.23   33.10
  -6  -1   0  786.12   35.90
  -6  -1   0  801.32   36.00
  -6  -1   0  797.52   35.10
   5   1   0  445.36   22.00
   5   1   0  453.95   21.20
   5   1   0  481.25   22.10
   5   1   0  451.75   21.00
  -5  -1   0  424.46   22.00
  -5  -1   0  408.06   23.30
  -5  -1   0  456.75   19.90
  -5  -1   0  366.56   23.00
   4   1   0  748.83   34.90
   4   1   0  844.92   34.50
   4   1   0  858.21   35.10
   4   1   0  850.41   34.80
  -4  -1   0  807.22   33.80
  -4  -1   0  845.32   35.00
  -4  -1   0  804.72   35.00
  -4  -1   0  811.92   36.20
   3   1   0  262.97   12.70
   3   1   0  256.17   12.10
   3   1   0  249.38   12.60
   3   1   0  233.48   12.70
  -3  -1   0  265.67   12.90
  -3  -1   0  235.28   11.90
  -3  -1   0  254.07   12.60
   1   1   0 3580.04  132.69
   1   1   0 3764.02  132.79
   1   1   0 2881.51  132.99
  -1  -1   0 3198.18  132.79
  -1  -1   0 3768.02  132.69
  -1  -1   0 3287.77  132.79
  -1   1   0 5272.67  195.48
  -1   1   0 4931.51  195.88
  -1   1   0 4861.81  195.48
  -1   1   0 5169.88  195.48
   1  -1   0 4685.13  195.48
   1  -1   0 5274.97  195.58
  -2   1   0  333.27   15.40
  -2   1   0  364.66   15.20
  -2   1   0  325.37   14.80
  -2   1   0  338.07   14.50
  -2   1   0  344.57   15.40
   2  -1   0  322.77   15.10
   2  -1   0  327.17   15.10
   2  -1   0  344.57   15.30
   2  -1   0  335.47   15.10
  -3   1   0  528.85   22.20
  -3   1   0  518.95   22.90
  -3   1   0  509.05   22.90
  -3   1   0  522.75   22.60
  -3   1   0  505.25   23.10
   3  -1   0  536.25   23.10
   3  -1   0  552.04   23.10
   3  -1   0  500.05   22.60
   3  -1   0  526.05   22.80
  -4   1   0  793.52   36.10
  -4   1   0  871.21   35.60
  -4   1   0  850.71   36.10
  -4   1   0  928.11   36.30
  -4   1   0  865.51   36.10
   4  -1   0  824.52   36.10
   4  -1   0  858.21   36.00
   4  -1   0  810.42   36.00
   4  -1   0  872.21   36.30
  -5   1   0   -0.20    6.90
  -5   1   0    1.70    7.00
  -5   1   0    9.60    5.10
  -5   1   0    3.40    5.30
  -5   1   0    6.70    5.40
   5  -1   0    6.30    6.70
   5  -1   0    5.80    4.20
   5  -1   0    4.00    6.80
  -6   1   0   66.99   10.10
  -6   1   0   79.49    9.70
  -6   1   0   81.09   10.70
  -6   1   0   72.99    8.80
   6  -1   0   76.39   11.00
   6  -1   0   84.99   10.10
   6  -1   0   84.89   10.00
  -7   1   0  265.17   19.00
  -7   1   0  269.67   21.70
  -7   1   0  287.67   21.00
  -7   1   0  257.07   20.90
  -7   1   0  253.07   18.10
   7  -1   0  236.48   18.10
   7  -1   0  291.97   21.80
   7  -1   0  298.37   21.30
  -8   1   0  143.99   19.70
  -8   1   0  105.29   12.80
  -8   1   0  124.39   16.10
   8  -1   0  150.88   17.10
   8  -1   0   99.99   16.70
   8  -1   0  120.99   18.40
   8  -1   0   97.89   16.50
   8   2  -1   27.50   13.50
   8   2  -1  -15.70   12.10
   8   2  -1    5.20   14.70
   8   2  -1    9.90   12.80
  -8  -2   1   -4.30   12.60
  -8  -2   1  -15.30   12.20
   7   2  -1   70.09   11.60
   7   2  -1   77.99   10.70
   7   2  -1   67.59   10.40
   7   2  -1   80.99   12.20
  -7  -2   1   83.39   12.90
  -7  -2   1   55.39   10.00
  -7  -2   1   56.29    5.40
  -7  -2   1  109.09   13.50
   6   2  -1  139.39   13.70
   6   2  -1  116.69   12.30
   6   2  -1  130.49   13.50
   6   2  -1  124.79   11.50
  -6  -2   1  169.68   13.60
  -6  -2   1  160.18   12.50
  -6  -2   1  157.18   14.50
   5   2  -1   65.99    7.50
   5   2  -1   81.89    8.40
   5   2  -1   66.19    8.70
   5   2  -1   72.09    8.50
  -5  -2   1   62.79    6.40
  -5  -2   1   47.80    8.40
  -5  -2   1   53.69    8.00
  -5  -2   1   53.19    7.20
   4   2  -1  325.67   16.70
   4   2  -1  331.07   17.30
   4   2  -1  354.86   16.60
   4   2  -1  347.27   17.00
  -4  -2   1  364.56   16.50
  -4  -2   1  335.07   17.00
  -4  -2   1  347.27   17.20
   3   2  -1  307.07   15.70
   3   2  -1  342.07   15.40
   3   2  -1  348.67   15.60
   3   2  -1  328.67   15.60
  -3  -2   1  324.27   15.20
  -3  -2   1  321.27   15.60
   2   2  -1   62.59    6.10
   2   2  -1   71.99    6.20
   2   2  -1   76.99    6.10
  -2  -2   1   81.79    5.60
  -2  -2   1   67.49    5.30
  -2  -2   1   65.19    5.30
  -2  -2   1   61.19    5.10
   1   2  -1 1555.84   67.69
   1   2  -1 1769.22   67.79
  -1  -2   1 1776.12   67.99
  -1  -2   1 1755.42   68.09
  -1  -2   1 1719.83   67.89
  -1  -2   1 1720.73   67.79
   0   2  -1 2114.49   79.09
   0   2  -1 2068.49   79.79
   0   2  -1 2126.89   79.09
   0   2  -1 1989.40   78.69
   0  -2   1 1956.80   78.99
   0  -2   1 1897.01   78.69
   0  -2   1 2077.29   79.69
   0  -2   1 1835.92   78.99
  -1   2  -1  325.27   15.60
  -1   2  -1  366.56   14.50
  -1   2  -1  328.27   15.50
  -1   2  -1  375.16   15.50
  -1   2  -1  353.76   16.70
   1  -2   1  357.06   15.40
   1  -2   1  337.57   15.60
   1  -2   1  328.37   15.10
   1  -2   1  336.47   16.40
  -2   2  -1  432.46   20.90
  -2   2  -1  474.85   19.50
  -2   2  -1  490.75   20.80
  -2   2  -1  466.15   19.00
  -2   2  -1  524.95   21.10
  -2   2  -1  457.85   21.80
   2  -2   1  458.75   21.10
   2  -2   1  468.25   20.40
   2  -2   1  490.35   21.00
   2  -2   1  440.56   20.50
  -3   2  -1 1348.57   56.69
  -3   2  -1 1416.86   57.39
  -3   2  -1 1504.15   57.49
  -3   2  -1 1392.56   57.99
  -3   2  -1 1421.26   57.19
   3  -2   1 1346.27   56.99
   3  -2   1 1381.26   57.39
   3  -2   1 1421.06   57.89
   3  -2   1 1431.46   57.29
  -4   2  -1  282.27   16.80
  -4   2  -1  291.57   14.30
  -4   2  -1  299.47   15.30
  -4   2  -1  285.87   15.40
  -4   2  -1  296.17   16.70
   4  -2   1  287.37   15.40
   4  -2   1  287.67   16.30
   4  -2   1  290.07   16.50
   4  -2   1  295.77   16.60
  -5   2  -1  240.48   17.20
  -5   2  -1  279.37   16.70
  -5   2  -1  289.37   17.80
  -5   2  -1  262.57   14.90
  -5   2  -1  303.57   18.00
   5  -2   1  296.17   18.10
   5  -2   1  304.97   18.10
   5  -2   1  317.07   17.50
   5  -2   1  266.87   16.30
  -6   2  -1  114.19   12.50
  -6   2  -1  110.99   13.30
  -6   2  -1  121.99   11.70
  -6   2  -1  118.89   11.00
  -6   2  -1  124.19   13.60
  -6   2  -1  101.19   11.30
   6  -2   1  111.59   11.80
   6  -2   1  107.79   13.20
   6  -2   1  107.99   12.70
   6  -2   1  138.59   14.70
  -7   2  -1  222.98   17.60
  -7   2  -1  275.27   22.50
  -7   2  -1  246.18   19.20
  -7   2  -1  244.28   20.20
  -7   2  -1  213.68   18.70
   7  -2   1  251.87   19.90
   7  -2   1  259.07   18.90
   7  -2   1  229.08   21.60
   7  -2   1  231.88   18.50
  -8   2  -1   97.89   14.80
  -8   2  -1  138.59   20.20
  -8   2  -1  102.79   15.60
   8  -2   1   94.29   19.10
   8  -2   1   96.49   15.00
   8  -2   1  111.99   20.40
   8   3  -2   11.00   15.70
   8   3  -2   54.49   15.80
   8   3  -2   17.80   14.30
   8   3  -2   18.20   10.80
  -8  -3   2   42.70   15.20
   7   3  -2   49.00   10.70
   7   3  -2   56.29   12.40
   7   3  -2   87.49   13.10
  -7  -3   2   73.99   13.30
  -7  -3   2   74.79   12.70
   6   3  -2  259.07   17.50
   6   3  -2  243.48   16.60
   6   3  -2  245.28   16.40
   6   3  -2  233.88   15.50
  -6  -3   2  191.28    9.30
  -6  -3   2  247.38   17.10
  -6  -3   2  234.18   17.10
   5   3  -2  333.57   18.00
   5   3  -2  289.47   20.70
   5   3  -2  325.57   18.60
   5   3  -2  338.07   18.80
  -5  -3   2  344.97   15.00
  -5  -3   2  342.47   19.10
  -5  -3   2  354.06   18.80
  -5  -3   2  309.67   17.40
   4   3  -2 2370.36   95.49
   4   3  -2 2372.36   95.19
   4   3  -2 2358.66   95.19
   4   3  -2 2285.67   95.19
  -4  -3   2 2478.65   95.39
  -4  -3   2 2357.36   93.79
  -4  -3   2 2452.05   95.49
  -4  -3   2 2335.87   95.09
   3   3  -2  243.08   13.10
   3   3  -2  257.87   13.40
   3   3  -2  261.37   13.50
   3   3  -2  244.78   13.10
  -3  -3   2  233.88   12.70
  -3  -3   2  232.18   14.80
  -3  -3   2  256.57   12.70
  -3  -3   2  273.67   14.20
   2   3  -2  715.63   30.30
   2   3  -2  667.53   30.00
  -2  -3   2  728.33   30.40
  -2  -3   2  703.63   30.40
  -2  -3   2  708.53   30.40
  -2  -3   2  773.92   30.50
   1   3  -2 3455.05  136.39
   1   3  -2 3280.87  136.29
   1   3  -2 3651.53  136.29
   1   3  -2 3460.85  136.99
  -1  -3   2 3343.87  136.29
  -1  -3   2 3510.05  136.39
  -1  -3   2 3600.44  136.79
  -1  -3   2 3482.45  136.99
   0   3  -2  552.04   23.60
   0   3  -2  500.35   23.30
   0   3  -2  541.05   24.30
   0   3  -2  575.84   23.10
   0  -3   2  537.05   23.50
   0  -3   2  492.95   22.90
   0  -3   2  555.74   24.20
   0  -3   2  555.34   23.50
  -1   3  -2    9.00    3.20
  -1   3  -2   13.60    4.50
  -1   3  -2   15.50    4.00
  -1   3  -2    7.70    3.60
  -1   3  -2   11.50    4.20
   1  -3   2    8.60    4.10
   1  -3   2    9.90    4.50
   1  -3   2    3.80    4.60
   1  -3   2   10.40    3.50
  -2   3  -2 1727.53   73.69
  -2   3  -2 1803.52   70.69
  -2   3  -2 1857.21   72.29
  -2   3  -2 1948.21   72.69
  -2   3  -2 1773.82   72.59
   2  -3   2 1814.42   73.69
   2  -3   2 1676.63   72.29
   2  -3   2 1763.22   72.49
   2  -3   2 1799.32   71.89
  -3   3  -2 2450.65   97.09
  -3   3  -2 2434.86   94.89
  -3   3  -2 2564.54   96.89
  -3   3  -2 2365.66   98.29
  -3   3  -2 2223.98   94.09
  -3   3  -2 2555.04   97.09
   3  -3   2 2409.06   98.09
   3  -3   2 2574.74   97.19
   3  -3   2 2192.78   96.59
  -4   3  -2   14.50    8.20
  -4   3  -2    9.10    7.50
  -4   3  -2    6.20    4.60
  -4   3  -2    9.60    3.60
  -4   3  -2    6.00    7.50
  -4   3  -2   -0.30    6.70
   4  -3   2   14.60    7.10
   4  -3   2   14.40    5.90
   4  -3   2    6.80    5.50
   4  -3   2    0.20    4.90
  -5   3  -2  203.38   12.40
  -5   3  -2  186.68   16.60
  -5   3  -2  194.88   12.00
  -5   3  -2  204.08   18.10
  -5   3  -2  229.58   15.00
  -5   3  -2  209.58   17.10
   5  -3   2  188.88   14.50
   5  -3   2  215.08   16.70
   5  -3   2  213.58   16.90
   5  -3   2  198.68   16.70
  -6   3  -2   57.79   12.00
  -6   3  -2   44.30    8.10
  -6   3  -2   61.09    8.00
  -6   3  -2   73.89   11.40
  -6   3  -2   75.19   10.20
  -6   3  -2   75.29   13.30
   6  -3   2   86.39   11.00
   6  -3   2   47.00   13.20
   6  -3   2   46.20   11.00
   6  -3   2   47.90   12.20
  -7   3  -2  172.08   19.00
  -7   3  -2  210.18   15.90
  -7   3  -2  143.49   17.70
  -7   3  -2  235.68   23.10
  -7   3  -2  156.28   18.30
   7  -3   2  178.58   19.40
   7  -3   2  145.59   19.60
   7  -3   2  172.48   19.70
   7  -3   2  187.18   20.50
  -8   3  -2   92.29   22.20
  -8   3  -2   87.29   17.80
   8  -3   2  116.89   16.50
   8  -3   2  108.29   18.10
   8   4  -3   12.10   13.80
   8   4  -3    1.90   17.10
   8   4  -3   26.70   17.80
   8   4  -3    7.70   11.70
  -8  -4   3   18.80   16.10
   7   4  -3   73.39   12.00
   7   4  -3   69.49   13.60
   7   4  -3   44.10   14.40
   7   4  -3   54.09   13.20
  -7  -4   3   52.59   14.40
  -7  -4   3   51.19   13.20
   6   4  -3   14.00    8.00
   6   4  -3   12.30   10.50
   6   4  -3    8.50    8.90
   6   4  -3   11.50   10.10
  -6  -4   3    5.50    9.60
  -6  -4   3   22.90    8.00
  -6  -4   3   14.00    2.50
  -6  -4   3   15.00    2.40
  -6  -4   3    6.10    9.30
   5   4  -3    2.70    6.50
   5   4  -3    2.00    8.20
   5   4  -3   16.20    9.00
   5   4  -3    2.30    7.90
  -5  -4   3   -1.70    3.40
  -5  -4   3   13.80    8.00
  -5  -4   3    1.20    7.40
  -5  -4   3    8.90    8.70
   4   4  -3  548.25   26.70
   4   4  -3  604.44   26.90
   4   4  -3  508.35   27.20
   4   4  -3  591.14   26.80
  -4  -4   3  553.84   26.60
  -4  -4   3  582.44   25.40
  -4  -4   3  604.24   26.90
  -4  -4   3  534.15   26.50
   3   4  -3   66.19    7.80
  -3  -4   3   58.89    8.00
  -3  -4   3   89.69    8.80
  -3  -4   3   63.09    7.00
  -3  -4   3   67.49    7.90
   2   4  -3 1276.67   52.39
   2   4  -3 1241.78   52.29
   2   4  -3 1259.97   52.19
  -2  -4   3 1304.87   52.69
  -2  -4   3 1315.57   52.09
  -2  -4   3 1224.68   52.19
  -2  -4   3 1237.78   52.89
   1   4  -3  575.94   25.30
   1   4  -3  570.64   26.20
   1   4  -3  605.54   25.40
   1   4  -3  586.04   25.50
  -1  -4   3  521.65   25.90
  -1  -4   3  561.24   26.30
  -1  -4   3  566.04   25.40
  -1  -4   3  525.85   25.20
   0   4  -3   44.00    6.40
   0   4  -3   48.50    6.20
   0   4  -3   45.00    7.50
   0   4  -3   44.70    5.80
   0  -4   3   51.09    6.50
   0  -4   3   49.99    6.00
   0  -4   3   44.20    5.70
   0  -4   3   50.49    5.90
  -1   4  -3  229.98   13.50
  -1   4  -3  257.17   14.60
  -1   4  -3  256.27   17.00
  -1   4  -3  243.28   13.50
   1  -4   3  245.78   14.20
   1  -4   3  252.27   14.90
   1  -4   3  236.68   13.40
   1  -4   3  258.47   13.80
  -2   4  -3 1557.24   70.69
  -2   4  -3 1787.62   71.49
  -2   4  -3 1736.53   71.19
  -2   4  -3 1740.03   72.79
  -2   4  -3 1745.23   68.69
   2  -4   3 1671.53   70.79
   2  -4   3 1727.43   70.49
   2  -4   3 1842.52   73.09
   2  -4   3 1841.72   71.49
  -3   4  -3  473.85   25.00
  -3   4  -3  482.05   21.60
  -3   4  -3  513.05   23.80
  -3   4  -3  476.35   25.60
  -3   4  -3  509.35   26.00
   3  -4   3  510.45   24.80
   3  -4   3  480.35   23.00
   3  -4   3  465.45   25.00
   3  -4   3  488.25   24.90
  -4   4  -3   73.69   10.80
  -4   4  -3   64.19   10.50
  -4   4  -3   62.19    9.90
  -4   4  -3   60.69   11.50
  -4   4  -3   79.19    7.80
   4  -4   3   64.79    9.80
   4  -4   3   77.99   11.10
   4  -4   3   83.89   11.10
   4  -4   3   62.49    9.40
  -5   4  -3  372.86   21.70
  -5   4  -3  348.97   17.60
  -5   4  -3  372.56   26.10
  -5   4  -3  327.77   23.30
  -5   4  -3  368.86   21.60
   5  -4   3  380.56   21.60
   5  -4   3  345.27   21.90
   5  -4   3  363.26   25.20
   5  -4   3  378.96   21.40
  -6   4  -3  202.78   19.50
  -6   4  -3  181.88   17.60
  -6   4  -3  149.39   17.60
  -6   4  -3  161.88   10.70
  -6   4  -3  163.78   18.50
   6  -4   3  158.18   22.10
   6  -4   3  146.29   15.60
   6  -4   3  151.88   17.50
  -7   4  -3   36.30   18.00
  -7   4  -3   41.30    8.00
   7  -4   3   25.10   12.80
   7  -4   3   33.50   15.80
   7  -4   3   33.20   14.00
   7   5  -4   31.80   13.80
   7   5  -4   55.49   15.10
   7   5  -4   46.90   14.30
   7   5  -4   35.80   14.50
  -7  -5   4   56.59   14.60
   6   5  -4   85.49   14.00
   6   5  -4   58.19   14.30
   6   5  -4   74.69   13.40
   6   5  -4   98.59   16.80
  -6  -5   4   70.19   13.40
  -6  -5   4   81.69   14.90
  -6  -5   4   76.69   13.30
  -6  -5   4   76.49    8.10
   5   5  -4  234.08   17.60
   5   5  -4  229.98   19.70
   5   5  -4  223.68   17.30
   5   5  -4  244.28   18.10
  -5  -5   4  251.37   20.30
  -5  -5   4  255.37   14.80
  -5  -5   4  243.88   17.30
  -5  -5   4  250.27   18.20
   4   5  -4  122.19   12.20
   4   5  -4  124.39   12.00
   4   5  -4  108.79   11.70
  -4  -5   4  130.29   13.40
  -4  -5   4  132.09   11.80
  -4  -5   4  121.99   12.20
  -4  -5   4  110.99   11.50
   3   5  -4  265.27   17.70
   3   5  -4  263.07   16.80
   3   5  -4  287.17   17.00
  -3  -5   4  282.87   16.90
  -3  -5   4  263.27   16.60
  -3  -5   4  271.57   18.50
  -3  -5   4  280.57   16.80
   2   5  -4  399.66   21.20
   2   5  -4  428.16   20.30
   2   5  -4  383.96   21.30
  -2  -5   4  419.46   22.00
  -2  -5   4  426.76   21.10
  -2  -5   4  408.56   21.30
  -2  -5   4  387.76   21.00
   1   5  -4   14.90    7.60
   1   5  -4   12.00    5.10
   1   5  -4   16.70    6.80
   1   5  -4    2.10    6.60
  -1  -5   4   16.10    6.80
  -1  -5   4   14.10    6.90
  -1  -5   4    4.10    8.00
  -1  -5   4   10.10    6.30
   0   5  -4   28.20    8.10
   0   5  -4   36.60    9.30
   0   5  -4   32.80    6.80
   0   5  -4   29.40    7.40
   0  -5   4   42.80    6.80
   0  -5   4   35.70    6.10
   0  -5   4   28.90    9.50
   0  -5   4   36.20    7.60
   0  -5   4   32.30    4.20
  -1   5  -4  664.73   31.50
  -1   5  -4  702.23   34.20
  -1   5  -4  656.73   32.40
  -1   5  -4  749.03   32.00
   1  -5   4  716.93   31.80
   1  -5   4  692.93   33.50
   1  -5   4  743.13   32.70
   1  -5   4  688.93   31.50
  -2   5  -4 1720.73   74.59
  -2   5  -4 1876.31   74.69
  -2   5  -4 1796.12   76.69
   2  -5   4 1870.61   74.79
   2  -5   4 1792.52   74.59
   2  -5   4 1730.23   73.59
   2  -5   4 1790.72   76.09
  -3   5  -4    4.90   11.00
  -3   5  -4    3.00    8.80
  -3   5  -4   10.10    7.50
  -3   5  -4  -11.70    8.10
   3  -5   4   -7.40    8.60
   3  -5   4   14.70    7.40
   3  -5   4    3.50    8.40
   3  -5   4   15.10    8.60
  -4   5  -4  124.79   13.20
  -4   5  -4  152.98   14.90
  -4   5  -4  132.39   17.20
  -4   5  -4  150.68   14.60
   4  -5   4  149.39   15.20
   4  -5   4  137.69   16.10
   4  -5   4  138.79   14.40
   4  -5   4  135.49   13.70
  -5   5  -4   18.50   13.30
  -5   5  -4   19.50   13.70
  -5   5  -4    6.40   10.90
  -5   5  -4    8.80   15.40
   5  -5   4   43.70   13.30
   5  -5   4   34.40   14.00
   5  -5   4   26.30   13.00
   5  -5   4   25.20   11.00
  -6   5  -4  -11.30   12.20
  -6   5  -4  -24.20   11.20
   6  -5   4   -2.10   14.00
   6  -5   4  -15.40   16.90
   6  -5   4    4.20   12.00
   6   6  -5   69.69   15.80
   6   6  -5   66.59   15.50
   6   6  -5   66.19   16.10
  -6  -6   5   49.10    8.30
  -6  -6   5   72.19   16.90
  -6  -6   5   71.69   14.60
   5   6  -5   10.10    9.70
   5   6  -5   25.20   10.80
   5   6  -5   14.40   13.10
  -5  -6   5   25.70   12.30
  -5  -6   5   11.90   10.40
  -5  -6   5   17.90   11.90
   4   6  -5   23.70   11.20
   4   6  -5    4.70   11.30
  -4  -6   5   22.70    8.30
  -4  -6   5   20.10   10.30
  -4  -6   5   17.30   12.00
  -4  -6   5    6.90    9.70
   3   6  -5  548.95   26.20
   3   6  -5  525.45   26.60
   3   6  -5  544.15   27.70
  -3  -6   5  528.45   27.00
  -3  -6   5  477.65   29.00
  -3  -6   5  538.65   28.00
  -3  -6   5  503.55   27.10
   2   6  -5  183.98   13.00
   2   6  -5  142.49   14.80
   2   6  -5  180.58   15.30
  -2  -6   5  177.88   14.80
  -2  -6   5  154.08   16.30
  -2  -6   5  148.39   14.80
  -2  -6   5  137.69   12.90
  -2  -6   5  155.88   15.80
   1   6  -5  623.84   30.10
   1   6  -5  539.55   28.70
   1   6  -5  649.64   29.00
   1   6  -5  628.74   32.80
  -1  -6   5  604.64   29.90
  -1  -6   5  604.94   26.80
  -1  -6   5  642.14   29.80
  -1  -6   5  599.24   31.80
  -1  -6   5  606.94   31.30
   0   6  -5  618.64   31.40
   0   6  -5  632.94   29.20
   0   6  -5  560.94   29.00
   0   6  -5  554.44   29.20
   0  -6   5  585.54   29.00
   0  -6   5  585.14   31.90
   0  -6   5  610.84   29.60
   0  -6   5  543.35   28.50
  -1   6  -5 1247.98   53.79
  -1   6  -5 1282.17   57.59
  -1   6  -5 1239.58   53.19
  -1   6  -5 1245.78   50.69
  -1   6  -5 1229.48   53.19
   1  -6   5 1179.38   52.29
   1  -6   5 1185.78   55.19
   1  -6   5 1255.87   53.79
   1  -6   5 1220.28   53.59
  -2   6  -5  931.21   47.30
  -2   6  -5  925.91   43.30
  -2   6  -5  946.41   43.20
  -2   6  -5  932.31   43.50
   2  -6   5  879.81   46.00
   2  -6   5  877.21   42.80
   2  -6   5  909.41   41.90
   2  -6   5  989.40   42.10
  -3   6  -5   96.89   12.80
  -3   6  -5   90.39   14.10
  -3   6  -5   81.19   13.90
  -3   6  -5   84.99   12.40
   3  -6   5   96.19   13.70
   3  -6   5  110.79   12.80
   3  -6   5   93.69   14.30
   3  -6   5  109.79   14.30
  -4   6  -5  144.69   18.60
  -4   6  -5  176.08   19.70
  -4   6  -5  142.89   20.50
  -4   6  -5  189.78   19.00
   4  -6   5  159.38   17.30
   4  -6   5  175.98   18.70
   4  -6   5  195.08   16.20
   4  -6   5  209.08   22.90
  -5   6  -5  157.08   17.90
  -5   6  -5  185.08   19.00
  -5   6  -5  141.29   22.40
   5  -6   5  173.08   18.60
   5  -6   5  166.78   18.80
   5   7  -6   22.50   16.40
   5   7  -6   22.00   13.90
   5   7  -6   19.60   12.80
  -5  -7   6   19.50   11.80
  -5  -7   6    4.00   17.20
  -5  -7   6   28.10   14.30
  -5  -7   6   13.40   14.40
   4   7  -6   17.70   12.60
   4   7  -6   34.00   16.10
  -4  -7   6   35.70   12.90
  -4  -7   6    9.40   12.60
  -4  -7   6   43.50   13.60
  -4  -7   6   12.00   11.50
  -4  -7   6    4.10   11.50
   3   7  -6  249.78   21.00
   3   7  -6  275.77   23.20
   3   7  -6  282.87   22.20
  -3  -7   6  259.57   22.20
  -3  -7   6  265.87   22.90
  -3  -7   6  275.17   24.20
  -3  -7   6  283.07   19.30
  -3  -7   6  278.07   24.80
   2   7  -6  230.28   20.00
   2   7  -6  283.57   21.80
   2   7  -6  223.38   20.30
  -2  -7   6  189.68   19.80
  -2  -7   6  255.47   20.30
  -2  -7   6  235.78   20.50
  -2  -7   6  203.68   16.20
  -2  -7   6  190.68   21.20
   1   7  -6  351.46   22.20
   1   7  -6  288.87   22.30
   1   7  -6  299.07   27.30
   1   7  -6  336.87   22.60
  -1  -7   6  290.47   25.90
  -1  -7   6  305.37   22.60
  -1  -7   6  327.57   17.40
  -1  -7   6  340.97   21.90
  -1  -7   6  352.96   23.00
   0   7  -6    7.20   11.00
   0   7  -6   25.80   11.40
   0   7  -6    1.20   13.40
   0   7  -6   14.00    8.90
   0  -7   6    7.00    9.70
   0  -7   6   36.50   12.30
   0  -7   6   28.00   12.20
   0  -7   6   16.50   11.80
  -1   7  -6   53.59    8.60
  -1   7  -6   46.70   13.50
  -1   7  -6   54.69   12.60
  -1   7  -6   71.39   14.80
   1  -7   6   26.90   11.20
   1  -7   6   46.30   13.70
   1  -7   6   61.29   13.80
   1  -7   6   42.00   13.30
   1  -7   6   59.19   12.30
  -2   7  -6    2.20   15.80
  -2   7  -6   14.80    7.30
  -2   7  -6   -5.40   12.70
  -2   7  -6  -18.80   10.80
  -2   7  -6   13.00   13.50
   2  -7   6  -23.20    9.00
   2  -7   6    9.10   13.60
   2  -7   6    4.20   11.80
   2  -7   6    7.90   10.50
  -3   7  -6   16.10   17.60
  -3   7  -6   56.39   13.10
  -3   7  -6   39.00   14.10
   3  -7   6   55.39   13.60
   3  -7   6   32.60   14.60
  -4   7  -6   97.89   19.00
  -4   7  -6  141.09   21.00
   4  -7   6   99.89   19.30
   4  -7   6  129.59   17.80
   3   8  -7   32.00   18.20
   3   8  -7   46.10   16.40
  -3  -8   7   42.50   19.10
  -3  -8   7   44.00   16.40
  -3  -8   7   16.30   15.70
  -3  -8   7   44.70   13.90
   2   8  -7   45.90   17.40
   2   8  -7   -1.40   17.70
   2   8  -7   35.50   15.30
  -2  -8   7   47.00   18.00
  -2  -8   7   27.80   18.50
  -2  -8   7   69.09   17.60
  -2  -8   7   30.40   10.40
   1   8  -7   95.39   17.10
   1   8  -7   74.09   18.30
   1   8  -7   99.19   17.70
  -1  -8   7   90.39   17.60
  -1  -8   7   64.49    9.20
  -1  -8   7   65.09   17.90
  -1  -8   7   78.59   19.20
   0   8  -7   -8.90   16.10
   0   8  -7  -15.80   12.90
   0   8  -7  -20.70   15.70
   0   8  -7   -1.30   15.60
   0  -8   7    5.90   12.60
   0  -8   7  -11.50   15.80
  -1   8  -7    7.30   13.90
  -1   8  -7   21.30   10.30
  -1   8  -7   25.10   16.30
  -1   8  -7    9.70   16.70
   1  -8   7    9.00   16.50
   1  -8   7   12.50   13.20
   1  -7   9  -10.10   10.70
   1  -7   9  -14.60   16.30
   1  -7   9   17.10   15.10
  -1   7  -9   24.20    9.00
  -1   7  -9    1.30   19.10
  -1   7  -9    1.80   15.00
  -1   7  -9    6.90   15.10
   0  -7   9    9.90   13.70
   0  -7   9   -4.10   14.80
   0   7  -9  -18.10   16.30
   0   7  -9  -16.00   14.50
   0   7  -9  -20.80   12.10
  -1  -7   9    6.60   11.70
  -1  -7   9    1.20   15.70
  -1  -7   9    2.30   12.90
   1   7  -9   13.40   14.10
   1   7  -9  -19.10   15.30
   1   7  -9   36.30   13.50
  -2  -7   9  127.19   16.90
  -2  -7   9   91.59   13.20
  -2  -7   9  120.89   16.40
  -2  -7   9   74.39   18.20
   2   7  -9   96.19   16.00
  -3  -7   9   88.89   15.60
  -3  -7   9   62.19   14.70
  -3  -7   9   47.30   16.60
  -3  -7   9   40.00   19.80
   3   7  -9   71.29   15.80
   3   7  -9   53.49   15.70
   4  -6   8  242.98   21.60
   4  -6   8  254.77   26.30
  -4   6  -8  146.19   25.00
  -4   6  -8  204.38   20.90
  -4   6  -8  213.78   23.90
   3  -6   8   29.50   11.20
   3  -6   8   29.90   13.90
  -3   6  -8    6.30   12.80
  -3   6  -8    9.50   12.70
  -3   6  -8   -7.00   14.90
   2  -6   8  506.45   31.50
   2  -6   8  519.05   29.40
   2  -6   8  525.25   31.60
   2  -6   8  521.35   33.00
  -2   6  -8  481.95   33.10
  -2   6  -8  461.35   36.70
  -2   6  -8  569.24   31.10
  -2   6  -8  581.04   29.10
   1  -6   8   57.99   12.30
   1  -6   8   68.19   13.30
   1  -6   8   90.69   14.20
   1  -6   8   90.39   15.00
   1  -6   8   92.49   13.60
  -1   6  -8   77.79   13.50
  -1   6  -8   78.39   12.60
  -1   6  -8   48.90   23.70
  -1   6  -8   55.79   11.40
   0  -6   8   13.20    9.70
   0  -6   8    6.50   11.80
   0  -6   8    7.70   12.20
   0  -6   8    5.40    9.40
   0   6  -8   -0.40   11.40
   0   6  -8  -11.50   12.00
   0   6  -8    5.50   12.80
   0   6  -8   -4.90    9.30
  -1  -6   8  206.78   22.00
  -1  -6   8  181.28   13.80
  -1  -6   8  171.28   16.50
  -1  -6   8  158.28   16.40
   1   6  -8  161.18   17.80
   1   6  -8  192.38   16.90
   1   6  -8  207.08   20.80
   1   6  -8  181.18   17.50
  -2  -6   8  677.13   32.90
  -2  -6   8  693.23   38.00
  -2  -6   8  762.22   35.20
  -2  -6   8  760.52   35.30
  -2  -6   8  720.93   37.30
   2   6  -8  788.12   38.30
   2   6  -8  697.43   35.30
   2   6  -8  747.63   38.00
   2   6  -8  644.74   37.10
  -3  -6   8  253.07   19.50
  -3  -6   8  203.98   18.20
  -3  -6   8  234.18   21.80
  -3  -6   8  240.98   18.90
  -3  -6   8  208.68   20.70
   3   6  -8  251.67   18.50
   3   6  -8  199.98   19.60
   3   6  -8  226.58   18.80
  -4  -6   8  188.88   19.10
  -4  -6   8  129.39   15.90
  -4  -6   8  169.58   17.00
  -4  -6   8  133.99   19.40
  -4  -6   8  185.28   17.60
   4   6  -8  145.59   15.50
   4   6  -8  153.28   16.20
  -5  -6   8  117.59   17.90
  -5  -6   8  125.39   16.20
  -5  -6   8  149.49   21.40
   5   6  -8  148.59   19.60
   5   6  -8  137.19   19.30
   5   6  -8  113.59   15.90
   5  -5   7  118.79   18.10
   5  -5   7   91.39   15.50
  -5   5  -7  124.29   21.10
  -5   5  -7  105.19   21.10
  -5   5  -7  100.69   15.30
   4  -5   7  519.85   32.50
   4  -5   7  586.44   32.90
   4  -5   7  575.64   34.30
   4  -5   7  571.14   33.40
  -4   5  -7  624.74   33.30
  -4   5  -7  575.34   33.40
  -4   5  -7  568.94   34.90
  -4   5  -7  622.04   34.90
   3  -5   7  112.29   15.80
   3  -5   7  129.99   15.50
   3  -5   7  122.49   14.10
   3  -5   7  140.29   15.40
  -3   5  -7  139.49   14.90
  -3   5  -7  134.89   17.60
  -3   5  -7  120.89   15.20
  -3   5  -7  152.38   14.90
   2  -5   7  335.97   21.40
   2  -5   7  353.06   22.30
   2  -5   7  361.76   19.70
   2  -5   7  326.87   22.40
  -2   5  -7  360.36   21.50
  -2   5  -7  342.57   20.40
  -2   5  -7  334.37   23.70
  -2   5  -7  335.37   14.40
   1  -5   7  694.53   35.10
   1  -5   7  730.63   34.40
   1  -5   7  686.13   34.20
   1  -5   7  735.53   33.50
   1  -5   7  714.23   33.30
  -1   5  -7  716.43   34.80
  -1   5  -7  707.93   37.60
  -1   5  -7  697.63   33.30
  -1   5  -7  697.03   33.40
   0  -5   7    6.20    6.80
   0  -5   7    1.90    8.70
   0  -5   7   11.00    9.00
   0  -5   7   12.90    7.80
   0  -5   7   -1.90    6.60
   0   5  -7   12.60    8.70
   0   5  -7    8.60    8.30
   0   5  -7   12.10    7.10
   0   5  -7   -6.40    6.30
  -1  -5   7  831.12   38.90
  -1  -5   7  798.32   36.60
  -1  -5   7  845.52   39.00
  -1  -5   7  813.12   35.10
  -1  -5   7  814.52   36.50
   1   5  -7  845.92   38.40
   1   5  -7  780.02   36.50
   1   5  -7  798.82   36.30
   1   5  -7  825.52   38.70
  -2  -5   7   40.70    9.20
  -2  -5   7   36.80    9.00
  -2  -5   7   60.99    9.10
  -2  -5   7   62.59    8.60
  -2  -5   7   72.29    8.90
   2   5  -7   66.69    9.20
   2   5  -7   46.40    8.40
   2   5  -7   53.39    9.80
   2   5  -7   60.19   11.00
  -3  -5   7    3.20    7.30
  -3  -5   7    0.50   10.50
  -3  -5   7    7.30    7.70
  -3  -5   7   -2.80    7.40
  -3  -5   7   -3.50    7.50
   3   5  -7   -8.80    7.10
   3   5  -7    3.90    7.60
   3   5  -7  -20.30    8.70
  -4  -5   7  101.19   11.20
  -4  -5   7   91.39   10.90
  -4  -5   7   72.29    9.50
  -4  -5   7   68.49   13.80
  -4  -5   7   75.49   12.20
   4   5  -7   72.39   11.20
   4   5  -7   73.69   12.80
   4   5  -7   77.09   11.00
   4   5  -7   86.59   11.00
  -5  -5   7   50.79   11.50
  -5  -5   7   44.50   11.00
  -5  -5   7   23.50   10.10
  -5  -5   7   11.20   14.30
  -5  -5   7   40.00    6.60
   5   5  -7   45.70   11.40
   5   5  -7   25.90   15.90
   5   5  -7   18.80   16.00
   5   5  -7   58.99   11.40
  -6  -5   7   27.10   11.70
  -6  -5   7   33.00   14.40
  -6  -5   7   29.80   16.40
  -6  -5   7   -1.50   11.10
   6   5  -7   -2.40   12.10
   6   5  -7   28.70   15.60
   6   5  -7   -0.80   18.80
   6  -4   6  250.47   30.50
   6  -4   6  281.37   25.50
   6  -4   6  218.58   20.40
  -6   4  -6  176.38   23.30
  -6   4  -6  275.97   28.30
  -6   4  -6  238.58   25.10
   5  -4   6   39.00   10.60
   5  -4   6   24.70   12.90
   5  -4   6   34.40   13.20
   5  -4   6   24.00    9.70
  -5   4  -6   28.30   12.40
  -5   4  -6   26.20   14.50
  -5   4  -6   35.90   13.30
   4  -4   6  326.17   21.60
   4  -4   6  339.77   24.70
   4  -4   6  313.87   19.30
   4  -4   6  339.37   22.30
  -4   4  -6  316.97   21.80
  -4   4  -6  296.87   22.20
  -4   4  -6  334.37   22.40
  -4   4  -6  304.77   25.70
   3  -4   6  162.68   15.50
   3  -4   6  171.58   16.70
   3  -4   6  213.18   16.30
   3  -4   6  209.98   15.20
  -3   4  -6  185.08   16.60
  -3   4  -6  182.28   13.90
  -3   4  -6  169.68   16.10
   2  -4   6  571.64   28.70
   2  -4   6  602.74   30.90
   2  -4   6  587.04   27.10
   2  -4   6  572.74   27.00
  -2   4  -6  583.74   23.20
  -2   4  -6  573.14   28.20
  -2   4  -6  562.44   23.00
  -2   4  -6  557.74   29.80
  -2   4  -6  599.94   27.70
  -2   4  -6  636.64   30.40
   1  -4   6  139.19   11.40
   1  -4   6  146.39   11.50
   1  -4   6  151.68   11.60
   1  -4   6  140.99   14.70
   1  -4   6  165.98   12.20
  -1   4  -6  136.69   12.20
  -1   4  -6  153.18   13.50
  -1   4  -6  143.59   10.40
  -1   4  -6  145.49   13.20
   0  -4   6  262.87   14.70
   0  -4   6  250.97   14.10
   0  -4   6  199.68   15.50
   0  -4   6  235.18   14.20
   0  -4   6  226.98   16.50
   0  -4   6  227.48   11.90
   0   4  -6  232.38   14.00
   0   4  -6  210.58   14.00
   0   4  -6  257.27   17.80
  -1  -4   6  446.36   22.10
  -1  -4   6  468.05   21.10
  -1  -4   6  460.75   23.00
  -1  -4   6  452.95   20.60
   1   4  -6  412.66   21.70
   1   4  -6  430.26   23.70
   1   4  -6  418.26   21.10
   1   4  -6  419.76   20.90
  -2  -4   6  161.78   11.30
  -2  -4   6  166.28   12.10
  -2  -4   6  151.18   11.30
  -2  -4   6  184.78   12.60
  -2  -4   6  153.88   14.80
   2   4  -6  186.88   12.50
   2   4  -6  191.48   14.10
   2   4  -6  157.08   11.50
   2   4  -6  159.38   11.30
  -3  -4   6   -2.30    5.90
  -3  -4   6   -5.60    7.20
  -3  -4   6    5.70    4.90
  -3  -4   6    4.10    5.70
  -3  -4   6    1.80    8.30
   3   4  -6    6.10    5.90
   3   4  -6    1.20    5.30
   3   4  -6    7.90    8.90
   3   4  -6   -1.00    6.30
  -4  -4   6  704.13   31.90
  -4  -4   6  733.93   31.90
  -4  -4   6  711.63   33.90
  -4  -4   6  720.73   30.80
  -4  -4   6  706.53   34.80
   4   4  -6  726.43   34.90
   4   4  -6  686.53   31.80
   4   4  -6  691.63   31.80
   4   4  -6  710.23   33.40
   4   4  -6  707.53   34.40
  -5  -4   6  254.77   18.30
  -5  -4   6  301.17   18.00
  -5  -4   6  236.48   17.80
  -5  -4   6  254.57   17.70
   5   4  -6  271.17   17.40
   5   4  -6  262.57   17.10
   5   4  -6  224.48   18.10
   5   4  -6  247.98   20.80
  -6  -4   6  224.18   17.60
  -6  -4   6  206.98   19.80
  -6  -4   6  191.08   17.70
   6   4  -6  179.68   19.00
   6   4  -6  222.48   17.80
   6   4  -6  229.58   19.60
  -7  -4   6   10.30   15.50
  -7  -4   6    4.70   12.60
  -7  -4   6   40.60   13.80
   7   4  -6   -2.80   12.60
   7   4  -6   12.60   12.70
   7   4  -6    8.20   11.60
   7  -3   5  188.38   18.20
   7  -3   5  194.78   20.80
   7  -3   5  168.78   20.20
  -7   3  -5  207.18   20.80
  -7   3  -5  143.09   19.50
  -7   3  -5  162.88   14.80
   6  -3   5  153.28   17.60
   6  -3   5  128.29   16.60
   6  -3   5  172.78   16.20
   6  -3   5  131.99   16.20
  -6   3  -5  114.09   16.60
  -6   3  -5  147.09   14.70
  -6   3  -5  136.39   15.40
  -6   3  -5  113.59   16.10
   5  -3   5  343.07   24.10
   5  -3   5  340.47   22.60
   5  -3   5  306.27   20.10
   5  -3   5  368.16   22.50
  -5   3  -5  355.46   20.70
  -5   3  -5  390.86   22.70
  -5   3  -5  356.06   22.90
  -5   3  -5  321.97   22.20
   4  -3   5  775.92   36.30
   4  -3   5  782.62   37.10
   4  -3   5  801.22   36.40
   4  -3   5  826.42   38.30
  -4   3  -5  807.02   38.50
  -4   3  -5  780.92   37.30
  -4   3  -5  806.52   37.20
  -4   3  -5  878.91   37.40
   3  -3   5  246.48   15.90
   3  -3   5  224.78   13.70
   3  -3   5  269.87   14.10
   3  -3   5  216.98   14.00
  -3   3  -5  237.58   16.30
  -3   3  -5  212.68   13.80
  -3   3  -5  203.48   15.40
  -3   3  -5  212.68   13.60
   2  -3   5 1129.89   45.60
   2  -3   5 1105.39   45.80
   2  -3   5 1034.50   45.70
   2  -3   5 1147.39   48.10
  -2   3  -5 1001.90   45.30
  -2   3  -5 1149.58   46.20
  -2   3  -5 1061.39   45.80
  -2   3  -5 1077.59   42.70
  -2   3  -5 1083.19   47.50
   1  -3   5  197.08   10.60
   1  -3   5  176.38   11.40
   1  -3   5  171.18   12.50
   1  -3   5  178.58   12.20
  -1   3  -5  198.08   14.40
  -1   3  -5  170.88   11.40
  -1   3  -5  185.78   11.20
  -1   3  -5  179.08   14.30
   0  -3   5 1945.31   76.59
   0  -3   5 1873.61   77.49
   0  -3   5 1993.40   79.19
   0  -3   5 1910.51   78.29
   0  -3   5 2022.20   78.39
   0  -3   5 2016.80   77.49
   0   3  -5 2034.10   77.69
   0   3  -5 1975.80   79.19
   0   3  -5 1849.31   78.29
   0   3  -5 1777.82   77.39
  -1  -3   5  858.31   35.00
  -1  -3   5  815.92   35.00
  -1  -3   5  838.52   36.40
  -1  -3   5  840.52   36.10
  -1  -3   5  844.42   35.10
   1   3  -5  854.01   35.30
   1   3  -5  824.82   36.60
   1   3  -5  890.11   37.80
   1   3  -5  825.02   35.00
  -2  -3   5  125.69    9.20
  -2  -3   5  141.89   10.30
  -2  -3   5  132.59    8.90
  -2  -3   5  140.59    9.90
  -2  -3   5  136.29   10.20
   2   3  -5  135.09   10.00
   2   3  -5  136.89    9.90
   2   3  -5  139.59    9.40
   2   3  -5  137.19    8.80
   2   3  -5  140.89   10.30
  -3  -3   5   18.40    5.20
  -3  -3   5   17.20    5.30
  -3  -3   5   17.40    3.90
  -3  -3   5   16.10    7.00
  -3  -3   5   17.50    7.90
   3   3  -5   11.30    6.60
   3   3  -5   23.20    5.20
   3   3  -5   20.00    5.60
  -4  -3   5  727.33   33.00
  -4  -3   5  750.12   31.90
  -4  -3   5  733.13   30.00
  -4  -3   5  757.42   34.40
  -4  -3   5  735.13   31.90
   4   3  -5  733.83   32.10
   4   3  -5  756.62   33.40
   4   3  -5  672.33   32.80
   4   3  -5  739.93   32.00
  -5  -3   5  293.97   17.20
  -5  -3   5  329.07   17.60
  -5  -3   5  322.47   20.60
  -5  -3   5  312.47   20.60
   5   3  -5  325.97   18.00
   5   3  -5  293.37   20.00
   5   3  -5  301.97   20.70
   5   3  -5  306.77   17.90
  -6  -3   5   89.09   11.30
  -6  -3   5   94.99   11.10
  -6  -3   5   73.79   11.60
   6   3  -5  100.79   10.90
   6   3  -5   78.89   12.80
   6   3  -5   77.79   10.70
   6   3  -5   78.79   11.30
  -7  -3   5  186.58   18.10
  -7  -3   5  172.58   19.70
  -7  -3   5  182.58   17.70
   7   3  -5  202.38   17.90
   7   3  -5  182.88   16.80
   7   3  -5  197.48   20.70
   7   3  -5  170.68   18.80
  -8  -3   5   34.30   19.10
  -8  -3   5   47.30   16.50
   8   3  -5   34.00   14.80
   8   3  -5   52.79   16.50
   8   3  -5   82.89   19.10
   8  -2   4  152.08   20.70
   8  -2   4  121.79   18.00
  -8   2  -4  138.19   20.10
  -8   2  -4  134.39   21.90
   7  -2   4  373.26   28.30
   7  -2   4  360.86   26.90
   7  -2   4  401.56   26.60
   7  -2   4  325.97   26.30
  -7   2  -4  345.17   23.70
  -7   2  -4  413.66   29.10
  -7   2  -4  341.47   27.40
   6  -2   4  269.77   17.90
   6  -2   4  243.38   17.60
   6  -2   4  246.08   20.60
   6  -2   4  268.67   20.50
  -6   2  -4  226.68   17.10
  -6   2  -4  237.78   17.90
  -6   2  -4  254.37   17.80
  -6   2  -4  267.07   21.20
   5  -2   4  182.28   13.80
   5  -2   4  198.58   16.30
   5  -2   4  187.68   14.40
   5  -2   4  193.68   15.90
  -5   2  -4  159.98   13.90
  -5   2  -4  198.58   16.50
  -5   2  -4  205.18   16.10
  -5   2  -4  208.78   17.70
   4  -2   4 1259.37   54.19
   4  -2   4 1345.77   55.69
   4  -2   4 1222.08   53.69
   4  -2   4 1284.77   53.59
  -4   2  -4 1265.77   54.39
  -4   2  -4 1253.87   54.19
  -4   2  -4 1323.47   54.39
  -4   2  -4 1329.97   55.89
   3  -2   4  958.30   42.60
   3  -2   4  977.80   43.90
   3  -2   4  982.80   42.50
   3  -2   4 1014.20   42.60
  -3   2  -4 1055.89   42.60
  -3   2  -4 1040.80   42.80
  -3   2  -4 1007.20   42.10
  -3   2  -4 1000.30   44.20
   2  -2   4   13.20    4.40
   2  -2   4   15.00    4.80
   2  -2   4   10.90    5.00
   2  -2   4   10.30    5.10
  -2   2  -4   12.90    4.80
  -2   2  -4    8.50    4.80
  -2   2  -4   11.00    4.30
  -2   2  -4   10.40    3.50
   1  -2   4 4611.64  197.28
   1  -2   4 5275.27  197.18
   1  -2   4 5379.96  197.18
   1  -2   4 5163.58  198.48
  -1   2  -4 4905.91  196.98
  -1   2  -4 4993.40  197.48
  -1   2  -4 5238.98  195.58
  -1   2  -4 4952.20  195.88
  -1   2  -4 4816.92  196.98
  -1   2  -4 5120.19  198.58
   0  -2   4 1620.14   62.69
   0  -2   4 1616.04   62.29
   0  -2   4 1563.14   62.09
   0  -2   4 1322.17   61.89
   0  -2   4 1580.34   61.39
   0  -2   4 1531.55   60.99
   0   2  -4 1553.64   62.19
   0   2  -4 1595.44   61.49
   0   2  -4 1471.35   61.39
   0   2  -4 1584.94   62.69
  -1  -2   4 8284.27  312.97
  -1  -2   4 8054.39  312.87
  -1  -2   4 7527.15  311.87
  -1  -2   4 7917.01  312.17
  -1  -2   4 8202.88  311.97
   1   2  -4 8041.50  311.97
   1   2  -4 8020.90  312.87
   1   2  -4 8007.80  311.97
   1   2  -4 8070.79  312.97
   1   2  -4 8225.18  312.87
  -2  -2   4  123.49    7.80
  -2  -2   4  129.69    7.80
  -2  -2   4  138.39    7.70
  -2  -2   4  114.89    8.40
  -2  -2   4  127.89    8.20
   2   2  -4  131.79    9.60
   2   2  -4  131.49    7.40
   2   2  -4  121.39    8.20
  -3  -2   4  861.01   36.00
  -3  -2   4  863.31   37.10
  -3  -2   4  878.21   35.00
  -3  -2   4  859.81   37.00
   3   2  -4  859.01   37.30
   3   2  -4  903.21   36.10
   3   2  -4  939.11   37.30
   3   2  -4  822.92   36.00
  -4  -2   4  621.34   27.90
  -4  -2   4  679.23   28.10
  -4  -2   4  636.44   29.60
   4   2  -4  650.83   27.80
   4   2  -4  641.54   29.90
   4   2  -4  657.43   27.90
   4   2  -4  585.54   28.50
  -5  -2   4  819.02   35.30
  -5  -2   4  834.02   35.30
   5   2  -4  801.62   35.20
   5   2  -4  827.22   36.20
   5   2  -4  775.12   35.30
   5   2  -4  799.02   36.90
  -6  -2   4  221.88   15.90
  -6  -2   4  219.98   16.70
   6   2  -4  244.38   16.20
   6   2  -4  250.27   16.60
   6   2  -4  234.98   16.40
   6   2  -4  250.37   18.90
  -7  -2   4   36.60   11.30
  -7  -2   4   45.70   10.90
   7   2  -4   23.70   12.70
   7   2  -4   36.50   10.60
   7   2  -4   39.60   13.00
  -8  -2   4   11.10   12.40
  -8  -2   4   13.90   13.60
   8   2  -4   10.40   15.20
   8   2  -4   -9.30   14.00
   8   2  -4    1.50   11.50
   8   2  -4    6.00   13.60
   8  -1   3   40.80   12.80
   8  -1   3   29.70   16.50
   8  -1   3   70.39   15.70
   8  -1   3   41.00   16.10
  -8   1  -3   20.80   13.20
  -8   1  -3   25.90   13.00
   7  -1   3   21.10   13.20
   7  -1   3   -0.70    8.20
   7  -1   3  -25.10   11.10
  -7   1  -3  -13.50   10.80
  -7   1  -3  -18.90   12.40
  -7   1  -3    4.10   13.00
  -7   1  -3   -3.40    9.50
   6  -1   3   49.40   11.40
   6  -1   3   34.80   10.30
   6  -1   3   25.30   15.10
   6  -1   3   35.50    8.70
  -6   1  -3   42.40    9.10
  -6   1  -3   46.20   10.50
  -6   1  -3   30.00    7.70
  -6   1  -3   52.79   11.40
   5  -1   3  447.36   22.40
   5  -1   3  452.55   23.10
   5  -1   3  447.36   23.00
   5  -1   3  428.76   22.20
  -5   1  -3  447.26   21.70
  -5   1  -3  452.85   23.80
  -5   1  -3  473.05   22.40
  -5   1  -3  409.36   22.30
   4  -1   3  716.13   31.60
   4  -1   3  669.33   30.50
   4  -1   3  682.23   30.50
   4  -1   3  700.53   30.90
  -4   1  -3  731.63   31.10
  -4   1  -3  688.63   31.60
  -4   1  -3  666.13   29.90
  -4   1  -3  659.73   31.00
   3  -1   3    7.90    5.20
   3  -1   3   12.30    4.80
   3  -1   3    3.10    4.30
   3  -1   3   13.20    3.70
  -3   1  -3   11.40    4.10
  -3   1  -3   12.20    4.30
  -3   1  -3    8.60    4.40
  -3   1  -3    9.60    5.00
   2  -1   3 1274.77   52.29
   2  -1   3 1226.78   51.29
   2  -1   3 1277.27   49.40
   2  -1   3 1244.08   51.19
  -2   1  -3 1247.98   51.39
  -2   1  -3 1260.97   52.19
  -2   1  -3 1348.67   51.29
  -2   1  -3 1297.37   51.29
   1  -1   3 6067.29  260.27
   1  -1   3 6870.11  261.07
   1  -1   3 6783.52  260.07
  -1   1  -3 6783.32  260.47
  -1   1  -3 6704.03  260.07
  -1   1  -3 6736.53  261.07
  -1   1  -3 6907.71  260.07
   0  -1   3   12.80    3.30
   0  -1   3   16.80    2.60
   0  -1   3   16.00    3.20
   0  -1   3   20.50    3.70
   0  -1   3   21.10    2.50
   0  -1   3   17.40    2.90
   0  -1   3   21.30    2.60
   0   1  -3   18.70    2.60
   0   1  -3   15.40    3.30
   0   1  -3   24.30    3.60
   0   1  -3   18.90    2.90
   0   1  -3   14.40    3.00
   0   1  -3   18.10    2.60
  -1  -1   3 1584.24   61.99
  -1  -1   3 1506.25   61.19
  -1  -1   3 1613.94   62.09
  -1  -1   3 1629.54   61.79
  -1  -1   3 1561.24   61.19
  -1  -1   3 1527.95   61.69
   1   1  -3 1601.94   62.09
   1   1  -3 1469.15   62.09
   1   1  -3 1554.54   61.19
   1   1  -3 1575.34   61.19
  -2  -1   3  208.38    9.70
  -2  -1   3  205.38   11.10
  -2  -1   3  205.58    9.00
  -2  -1   3  199.98    9.70
  -2  -1   3  205.68   10.60
  -2  -1   3  205.38   10.70
   2   1  -3  218.78    9.20
   2   1  -3  213.28   11.20
   2   1  -3  215.88    9.60
   2   1  -3  206.38   10.50
   2   1  -3  210.58    9.70
  -3  -1   3  239.88   12.20
  -3  -1   3  223.08   11.60
   3   1  -3  239.38   12.30
   3   1  -3  219.88   11.60
   3   1  -3  267.47   13.10
   3   1  -3  222.38   11.30
  -4  -1   3   -0.90    4.40
  -4  -1   3    5.40    4.20
  -4  -1   3    3.60    3.80
  -4  -1   3   14.10    4.30
   4   1  -3   10.30    4.30
   4   1  -3    0.70    4.00
   4   1  -3    9.50    4.60
   4   1  -3   -5.30    3.90
  -5  -1   3  161.38   11.50
  -5  -1   3  149.39   12.00
  -5  -1   3  158.28   11.70
   5   1  -3  178.68   13.80
   5   1  -3  172.48   11.80
   5   1  -3  153.48   13.60
   5   1  -3  176.58   12.10
  -6  -1   3   11.70    8.60
  -6  -1   3   27.40    8.30
  -6  -1   3   17.30    7.80
  -6  -1   3   12.50    7.30
   6   1  -3   15.60    7.50
   6   1  -3    9.40    8.60
   6   1  -3   18.90    7.30
   6   1  -3   28.60    7.80
  -7  -1   3  150.68   15.80
  -7  -1   3  125.09   14.00
  -7  -1   3  137.79   13.30
  -7  -1   3  132.89   15.60
   7   1  -3  134.39   15.00
   7   1  -3  146.69   14.40
   7   1  -3  113.59   12.90
  -8  -1   3  -11.70   10.70
  -8  -1   3  -15.50   13.30
   8   1  -3    2.90   11.50
   8   1  -3    9.60   14.20
   8   1  -3   15.60   13.80
   8   1  -3  -10.10   11.60
   8   0   2   65.09   15.60
   8   0   2   70.79   12.20
   8   0   2   44.90   12.40
   8   0   2   75.39   12.40
  -8   0  -2   50.29   17.40
  -8   0  -2   32.60   11.50
  -8   0  -2   67.59   14.60
   7   0   2  165.18   16.10
   7   0   2  128.39   12.40
   7   0   2  165.98   14.60
   7   0   2  135.09   15.80
  -7   0  -2  164.88   14.70
  -7   0  -2  207.98   18.40
  -7   0  -2  154.28   14.90
  -7   0  -2  126.79   12.80
   6   0   2    3.40    6.10
   6   0   2  -12.50    5.40
   6   0   2   -3.40    7.70
   6   0   2   -7.30    8.10
  -6   0  -2   -3.80    7.60
  -6   0  -2    5.10    8.10
  -6   0  -2  -12.40    6.40
  -6   0  -2  -10.80    8.50
   5   0   2  765.32   32.80
   5   0   2  736.13   33.00
   5   0   2  752.72   33.50
  -5   0  -2  762.82   33.60
  -5   0  -2  722.03   32.80
  -5   0  -2  656.43   34.80
   4   0   2    6.20    5.40
   4   0   2   -3.30    3.80
   4   0   2    3.50    4.30
  -4   0  -2    1.80    5.50
  -4   0  -2   -7.30    4.60
  -4   0  -2   -5.00    4.40
  -4   0  -2    4.80    4.30
   3   0   2  724.03   30.80
   3   0   2  749.53   31.00
   3   0   2  735.83   31.20
   3   0   2  768.52   31.10
  -3   0  -2  746.13   31.40
  -3   0  -2  698.43   30.90
  -3   0  -2  724.93   30.70
  -3   0  -2  736.53   30.90
   2   0   2 7184.18  289.67
   2   0   2 7246.98  289.27
   2   0   2 7460.15  289.67
   2   0   2 7516.75  290.07
  -2   0  -2 7580.74  289.37
  -2   0  -2 7414.96  290.07
  -2   0  -2 7840.62  289.77
  -2   0  -2 7384.36  289.67
   1   0   2 2501.65   94.09
   1   0   2 2389.86   93.19
   1   0   2 2358.96   93.39
   1   0   2 2339.17   93.39
  -1   0  -2 2377.36   93.39
  -1   0  -2 2373.16   93.99
  -1   0  -2 2347.67   93.19
  -1   0  -2 2445.26   93.39
   0   0   2   32.60    1.90
   0   0   2   33.50    3.00
   0   0   2   32.10    2.90
   0   0   2   35.00    2.70
   0   0  -2   32.50    2.00
   0   0  -2   33.70    2.70
   0   0  -2   34.30    1.90
   0   0  -2   25.40    2.90
  -1   0   2 2241.18   84.59
  -1   0   2 2130.79   84.79
  -1   0   2 2060.49   83.99
  -1   0   2 2362.86   84.79
   1   0  -2 2280.17   84.89
   1   0  -2 2114.79   84.09
   1   0  -2 2062.39   83.99
   1   0  -2 2231.98   84.79
   1   0  -2 1999.70   84.59
  -2   0   2  509.95   21.60
  -2   0   2  523.55   21.30
  -2   0   2  489.65   21.10
  -2   0   2  512.15   20.80
  -2   0   2  491.55   20.70
   2   0  -2  531.05   20.90
   2   0  -2  516.45   21.40
   2   0  -2  461.55   21.10
   2   0  -2  491.95   19.90
   2   0  -2  512.55   20.80
  -3   0   2  978.40   40.20
  -3   0   2 1018.10   40.60
  -3   0   2 1129.59   41.00
  -3   0   2  979.10   40.10
   3   0  -2  929.81   38.70
   3   0  -2  995.40   40.80
   3   0  -2  938.41   40.10
   3   0  -2  957.40   40.20
   3   0  -2  989.50   40.60
  -4   0   2 1457.55   58.29
  -4   0   2 1435.76   58.49
  -4   0   2 1429.56   58.49
  -4   0   2 1601.14   59.59
   4   0  -2 1465.45   58.59
   4   0  -2 1400.56   58.09
   4   0  -2 1358.96   58.19
   4   0  -2 1331.57   58.49
  -5   0   2  332.37   17.40
  -5   0   2  325.87   17.80
  -5   0   2  337.87   19.00
  -5   0   2  342.37   17.30
   5   0  -2  355.36   17.40
   5   0  -2  362.06   19.10
   5   0  -2  355.06   19.10
   5   0  -2  340.77   17.90
  -6   0   2  547.25   26.20
  -6   0   2  508.35   25.70
  -6   0   2  516.25   26.30
  -6   0   2  575.34   27.50
   6   0  -2  548.05   27.40
   6   0  -2  488.75   26.10
   6   0  -2  519.35   26.70
  -7   0   2  331.77   22.70
  -7   0   2  404.46   24.90
  -7   0   2  375.76   22.00
  -7   0   2  419.36   23.80
   7   0  -2  377.96   23.50
   7   0  -2  371.26   27.30
   7   0  -2  406.56   25.10
   7   0  -2  376.96   24.20
  -8   0   2  376.46   26.80
  -8   0   2  396.36   28.30
   8   0  -2  424.66   29.10
   8   0  -2  384.56   24.90
   8   0  -2  360.56   24.40
   8   0  -2  387.66   26.50
   8   1   1   59.09   14.40
   8   1   1   70.79   12.70
   8   1   1   41.30   11.40
   8   1   1   71.19   17.00
  -8  -1  -1   49.90   14.90
  -8  -1  -1   53.09    9.60
  -8  -1  -1   53.79   16.00
  -8  -1  -1   67.19   12.30
   7   1   1   -3.00   10.00
   7   1   1   13.00    7.80
   7   1   1    2.80    8.40
   7   1   1   -7.80    8.00
  -7  -1  -1   -3.60    7.00
  -7  -1  -1   -0.60    9.90
  -7  -1  -1    7.30    8.30
  -7  -1  -1   -4.00    6.50
   6   1   1  892.61   41.10
   6   1   1  943.51   41.00
   6   1   1  902.81   39.30
   6   1   1  876.21   40.40
  -6  -1  -1  958.80   39.60
  -6  -1  -1  916.41   41.40
  -6  -1  -1  881.21   40.30
  -6  -1  -1  942.71   41.00
   5   1   1  392.86   18.90
   5   1   1  426.86   21.30
   5   1   1  413.76   21.00
   5   1   1  399.46   20.60
  -5  -1  -1  403.96   20.50
  -5  -1  -1  370.96   19.40
  -5  -1  -1  404.26   20.90
   4   1   1 9132.39  360.86
   4   1   1 9999.00  362.06
   4   1   1 9011.90  361.76
   4   1   1 8772.02  361.46
  -4  -1  -1 9392.56  361.96
  -4  -1  -1 9213.48  361.46
  -4  -1  -1 9144.79  361.26
  -4  -1  -1 9648.54  361.96
   3   1   1  250.47   13.00
   3   1   1  257.07   11.70
   3   1   1  228.08   12.30
   3   1   1  237.98   12.20
  -3  -1  -1  251.27   12.40
  -3  -1  -1  272.87   13.10
  -3  -1  -1  264.47   12.40
  -3  -1  -1  248.08   12.50
   1   1   1 1727.53   63.69
   1   1   1 1620.34   63.19
   1   1   1 1606.14   63.69
  -1  -1  -1 1593.54   63.19
  -1  -1  -1 1575.94   63.09
  -1  -1  -1 1609.44   63.59
   0  -1  -1    3.40    1.60
  -1   1   1 1171.48   44.60
  -1   1   1 1142.79   44.60
  -1   1   1 1096.69   44.50
  -1   1   1 1150.08   44.60
  -1   1   1 1161.28   44.60
   1  -1  -1 1137.39   44.90
   1  -1  -1 1110.59   44.60
   1  -1  -1 1086.09   44.50
   1  -1  -1 1098.19   44.50
  -2   1   1 2321.17   89.99
  -2   1   1 2459.05   89.89
  -2   1   1 2120.29   89.99
  -2   1   1 2200.78   90.09
  -2   1   1 2245.38   89.89
  -2   1   1 2241.28   89.79
   2  -1  -1 2223.48   89.89
   2  -1  -1 2287.17   89.99
   2  -1  -1 2359.86   89.99
   2  -1  -1 2429.96   90.09
  -3   1   1  235.18   11.80
  -3   1   1  226.78   11.40
  -3   1   1  223.28   12.00
  -3   1   1  233.18   12.10
  -3   1   1  235.88   11.70
  -3   1   1  232.38   11.20
   3  -1  -1  220.08   11.10
   3  -1  -1  217.68   11.80
   3  -1  -1  239.08   11.80
   3  -1  -1  213.38   11.50
  -4   1   1  482.55   22.10
  -4   1   1  465.15   21.00
  -4   1   1  471.55   21.10
  -4   1   1  459.25   21.50
  -4   1   1  440.46   20.90
  -4   1   1  497.85   21.40
   4  -1  -1  465.95   20.90
   4  -1  -1  484.05   22.30
   4  -1  -1  486.95   21.90
   4  -1  -1  443.56   21.60
  -5   1   1   73.49    8.70
  -5   1   1   89.19    9.50
  -5   1   1   85.09    9.00
  -5   1   1   87.59    8.80
  -5   1   1   88.49    9.00
  -5   1   1   93.49    9.10
   5  -1  -1   83.49    9.40
   5  -1  -1   83.99    9.60
   5  -1  -1   92.49    8.30
   5  -1  -1   93.89    9.30
  -6   1   1   23.20    6.90
  -6   1   1   27.00    8.20
  -6   1   1   51.79   10.10
  -6   1   1   34.90    9.80
  -6   1   1   40.00    6.60
  -6   1   1   36.70    8.60
   6  -1  -1   32.30    7.50
   6  -1  -1   36.00    9.00
   6  -1  -1   32.20    9.00
   6  -1  -1   31.90    5.70
  -7   1   1  206.58   17.00
  -7   1   1  231.98   19.90
  -7   1   1  260.67   18.50
  -7   1   1  212.08   15.20
  -7   1   1  196.68   19.30
   7  -1  -1  207.98   17.20
   7  -1  -1  201.08   20.90
   7  -1  -1  238.58   19.20
   7  -1  -1  229.78   16.60
  -8   1   1   39.00   14.80
  -8   1   1   63.09   13.10
   8  -1  -1   64.89   16.50
   8  -1  -1   43.60   14.60
   8  -1  -1   36.50   12.00
   8  -1  -1   46.90   12.60
   8   2   0   22.90   10.60
   8   2   0   10.90   15.10
   8   2   0    7.30   11.80
   8   2   0    1.60   13.60
  -8  -2   0   23.40   15.30
  -8  -2   0   31.20   13.50
  -8  -2   0    8.00    5.80
  -8  -2   0   -7.50   15.20
   7   2   0    7.70   10.60
   7   2   0    0.90   10.10
   7   2   0   -0.50    8.70
   7   2   0    4.00    8.20
  -7  -2   0    2.30    9.90
  -7  -2   0    5.70    7.40
  -7  -2   0    5.80    7.60
  -7  -2   0    3.40    5.40
   6   2   0   38.20    9.20
   6   2   0   29.40    7.80
   6   2   0   22.10    6.70
   6   2   0   34.80    9.70
  -6  -2   0   23.70    8.20
  -6  -2   0   42.20    9.30
  -6  -2   0   22.00    5.00
  -6  -2   0   23.00    9.30
   5   2   0  749.13   40.00
   5   2   0  768.32   34.60
   5   2   0  827.22   34.30
   5   2   0  762.72   34.30
  -5  -2   0  788.32   33.10
  -5  -2   0  849.02   35.20
  -5  -2   0  804.12   36.70
  -5  -2   0  759.62   34.50
   4   2   0  461.75   19.90
   4   2   0  450.45   20.80
   4   2   0  415.46   20.90
   4   2   0  478.45   21.30
  -4  -2   0  433.06   20.50
  -4  -2   0  439.66   20.50
  -4  -2   0  452.05   21.10
   3   2   0   20.30    4.60
   3   2   0    7.80    4.10
   3   2   0   15.60    4.60
   3   2   0   15.90    3.70
  -3  -2   0   17.80    4.10
  -3  -2   0   13.60    4.80
   2   2   0   28.50    4.30
   2   2   0   26.00    3.90
   2   2   0   20.10    3.70
   2   2   0   29.40    4.40
  -2  -2   0   32.30    3.80
  -2  -2   0   27.70    3.70
  -2  -2   0   22.40    3.60
   1   2   0   20.70    3.10
   1   2   0   15.70    3.10
  -1  -2   0   20.50    3.80
  -1  -2   0   16.60    3.90
   0   2   0  944.21   35.10
   0   2   0  843.62   34.30
   0   2   0  808.32   35.10
   0  -2   0  870.51   35.60
   0  -2   0  857.81   34.30
   0  -2   0  899.51   35.20
   0  -2   0  857.31   35.10
  -1   2   0 5626.94  220.88
  -1   2   0 5234.18  220.18
  -1   2   0 5663.13  219.98
  -1   2   0 5877.31  219.78
  -1   2   0 6204.78  220.38
   1  -2   0 5705.53  220.28
   1  -2   0 5240.58  220.08
   1  -2   0 5713.43  220.88
  -2   2   0  187.58   10.90
  -2   2   0  174.48    8.80
  -2   2   0  175.78    9.20
  -2   2   0  147.09    8.60
  -2   2   0  166.88   10.00
  -2   2   0  181.38    9.70
   2  -2   0  159.28    9.90
   2  -2   0  177.38    9.20
   2  -2   0  179.68   10.30
   2  -2   0  168.68    9.80
  -3   2   0 5772.02  234.98
  -3   2   0 5682.93  233.88
  -3   2   0 6534.55  235.38
  -3   2   0 5884.31  235.18
  -3   2   0 6186.28  234.38
  -3   2   0 5960.90  235.58
   3  -2   0 6071.99  235.48
   3  -2   0 5991.50  235.18
   3  -2   0 6222.98  235.28
   3  -2   0 5858.71  234.98
  -4   2   0  606.54   26.60
  -4   2   0  598.84   26.30
  -4   2   0  553.34   25.90
  -4   2   0  561.24   25.10
  -4   2   0  591.24   25.30
  -4   2   0  576.34   26.80
   4  -2   0  566.94   26.00
   4  -2   0  595.74   26.50
   4  -2   0  569.94   26.10
   4  -2   0  567.04   26.00
  -5   2   0  480.85   23.90
  -5   2   0  453.55   23.10
  -5   2   0  454.65   21.50
  -5   2   0  438.26   21.50
  -5   2   0  432.36   23.30
  -5   2   0  474.05   23.50
   5  -2   0  453.25   22.60
   5  -2   0  447.16   23.70
   5  -2   0  439.66   22.40
   5  -2   0  461.55   23.30
  -6   2   0    8.60    7.70
  -6   2   0    3.00    9.10
  -6   2   0   -0.50    6.70
  -6   2   0   -0.90    6.50
  -6   2   0   -1.70    7.10
  -6   2   0   -7.60    8.30
   6  -2   0    1.30    9.20
   6  -2   0    1.90    8.80
   6  -2   0    5.60    6.30
   6  -2   0    1.30    6.50
  -7   2   0  551.94   30.30
  -7   2   0  537.15   32.10
  -7   2   0  530.65   31.40
  -7   2   0  553.74   31.30
  -7   2   0  589.64   29.30
   7  -2   0  559.54   28.20
   7  -2   0  559.34   29.40
   7  -2   0  577.94   31.60
   7  -2   0  561.74   31.70
  -8   2   0   99.89   15.50
  -8   2   0   91.69   14.90
  -8   2   0   70.29   13.10
   8  -2   0   94.99   18.00
   8  -2   0   71.09   14.10
   8  -2   0   81.09   16.60
   8   3  -1    0.60   10.10
   8   3  -1   -1.90   13.80
   8   3  -1  -12.60   13.20
   8   3  -1  -18.00   14.60
  -8  -3   1    7.60   13.10
   7   3  -1   77.39   12.50
   7   3  -1   92.89   14.10
   7   3  -1  123.09   16.20
   7   3  -1  125.49   14.30
  -7  -3   1  115.49   14.00
   6   3  -1   59.09    8.60
   6   3  -1   57.99    9.90
   6   3  -1   79.39    9.60
   6   3  -1   67.69    9.80
  -6  -3   1   51.59   10.70
  -6  -3   1   74.49    7.50
   5   3  -1  134.09   11.70
   5   3  -1  110.99   10.80
   5   3  -1  109.29    9.90
  -5  -3   1  114.39   12.10
  -5  -3   1  105.19   11.10
  -5  -3   1  117.79   11.70
   4   3  -1    4.00    5.20
   4   3  -1    1.80    4.30
   4   3  -1   -6.00    3.90
   4   3  -1    7.70    5.40
  -4  -3   1    3.80    5.60
  -4  -3   1    5.40    5.80
  -4  -3   1    1.50    5.80
   3   3  -1  538.45   24.90
   3   3  -1  576.24   25.30
   3   3  -1  594.14   24.90
   3   3  -1  565.94   25.40
  -3  -3   1  555.24   25.40
  -3  -3   1  595.04   25.10
  -3  -3   1  574.54   25.20
   2   3  -1  187.48   10.60
   2   3  -1  168.08   10.50
  -2  -3   1  180.78   10.50
  -2  -3   1  193.78   10.80
  -2  -3   1  176.38    9.90
  -2  -3   1  184.38   10.50
   1   3  -1    1.70    3.00
   1   3  -1    3.90    3.00
   1   3  -1    0.50    3.10
  -1  -3   1    2.70    2.80
  -1  -3   1   -1.30    3.80
  -1  -3   1    5.70    2.90
   0   3  -1  117.79    7.50
   0   3  -1  121.89    9.80
   0   3  -1  126.19    8.10
   0   3  -1  129.69    7.40
   0  -3   1  118.59    8.30
   0  -3   1  131.59    8.50
   0  -3   1  127.59    7.60
   0  -3   1  108.79    7.00
  -1   3  -1   90.19    7.90
  -1   3  -1   74.19    6.60
  -1   3  -1   88.39    7.50
  -1   3  -1   91.99    6.00
  -1   3  -1   97.59    6.70
   1  -3   1   84.99    7.50
   1  -3   1   90.89    6.60
   1  -3   1   81.39    6.60
   1  -3   1   77.89    6.20
  -2   3  -1 2371.46   97.59
  -2   3  -1 2403.56   96.59
  -2   3  -1 2448.06   96.29
  -2   3  -1 2515.45   95.39
  -2   3  -1 2451.35   96.69
   2  -3   1 2443.56   95.89
   2  -3   1 2403.66   97.39
   2  -3   1 2338.27   96.59
   2  -3   1 2457.15   96.59
  -3   3  -1  123.49   10.40
  -3   3  -1  112.89    8.50
  -3   3  -1  104.79    9.90
  -3   3  -1  110.69   11.70
  -3   3  -1   99.29    6.30
  -3   3  -1  100.69    7.20
   3  -3   1  113.59    8.70
   3  -3   1   98.19    8.50
   3  -3   1  110.39   10.00
   3  -3   1   99.29    9.20
  -4   3  -1  190.68   13.90
  -4   3  -1  195.98   14.70
  -4   3  -1  220.98   14.70
  -4   3  -1  196.98   15.80
  -4   3  -1  206.08   11.90
  -4   3  -1  192.18   10.80
   4  -3   1  195.98   13.00
   4  -3   1  227.38   14.80
   4  -3   1  195.38   14.70
   4  -3   1  205.48   14.40
  -5   3  -1  309.27   20.40
  -5   3  -1  300.37   16.20
  -5   3  -1  341.57   16.60
  -5   3  -1  309.07   18.30
  -5   3  -1  336.07   21.10
  -5   3  -1  351.76   18.50
   5  -3   1  298.97   20.20
   5  -3   1  331.37   20.10
   5  -3   1  309.67   22.30
   5  -3   1  329.87   18.60
  -6   3  -1  120.29   13.40
  -6   3  -1  179.98   17.70
  -6   3  -1   84.99   12.80
  -6   3  -1  113.89   10.80
  -6   3  -1  104.89   14.30
  -6   3  -1  125.99   12.00
   6  -3   1   97.69   12.20
   6  -3   1  126.79   14.30
   6  -3   1   86.79   11.60
   6  -3   1  100.79   14.30
  -7   3  -1   72.99   13.30
  -7   3  -1   85.49   16.80
  -7   3  -1   72.09   14.40
  -7   3  -1   84.39   10.90
  -7   3  -1   83.79   16.50
   7  -3   1   89.49   12.80
   7  -3   1   84.49   16.00
   7  -3   1   87.89   16.40
   7  -3   1   72.79   12.50
  -8   3  -1   34.00   14.70
  -8   3  -1   15.50   13.70
  -8   3  -1   17.50   12.50
   8  -3   1   20.80   14.60
   8  -3   1   12.20   17.40
   8  -3   1   30.70   13.40
   8  -3   1   27.80   23.00
   8   4  -2    3.60   16.40
   8   4  -2   12.00   16.30
   8   4  -2   26.70   11.80
   8   4  -2   11.90   15.50
  -8  -4   2   14.70   16.10
   7   4  -2  378.86   23.10
   7   4  -2  348.27   24.70
   7   4  -2  364.46   25.10
   7   4  -2  406.46   26.00
  -7  -4   2  374.46   24.80
  -7  -4   2  362.06   25.50
   6   4  -2    6.10    9.80
   6   4  -2   11.40    9.80
   6   4  -2  -12.20    8.70
  -6  -4   2    6.80    7.40
  -6  -4   2    6.60    4.10
  -6  -4   2    4.20    6.60
  -6  -4   2   24.20    7.90
   5   4  -2  748.03   34.80
   5   4  -2  760.12   34.50
   5   4  -2  747.03   35.00
   5   4  -2  758.92   34.10
  -5  -4   2  733.83   34.80
  -5  -4   2  760.82   34.80
  -5  -4   2  791.92   32.50
  -5  -4   2  730.23   34.60
   4   4  -2  205.48   12.30
   4   4  -2  193.88   14.10
   4   4  -2  188.28   14.50
   4   4  -2  195.68   13.70
  -4  -4   2  208.88   12.30
  -4  -4   2  195.98   14.40
  -4  -4   2  182.78   13.70
  -4  -4   2  174.58   13.40
   3   4  -2 1219.08   49.90
  -3  -4   2 1187.08   49.90
  -3  -4   2 1146.79   50.09
  -3  -4   2 1188.48   49.99
  -3  -4   2 1244.28   49.90
   2   4  -2  776.12   33.30
   2   4  -2  769.62   33.40
   2   4  -2  737.23   32.60
  -2  -4   2  775.82   33.40
  -2  -4   2  819.72   34.00
  -2  -4   2  781.52   33.10
  -2  -4   2  751.62   33.70
   1   4  -2  905.41   36.40
   1   4  -2  826.42   36.30
   1   4  -2  897.41   36.00
  -1  -4   2  875.61   36.40
  -1  -4   2  837.42   36.50
  -1  -4   2  896.51   37.70
  -1  -4   2  796.02   36.10
   0   4  -2  577.14   23.10
   0   4  -2  491.15   22.20
   0   4  -2  544.95   25.20
   0   4  -2  459.15   23.10
   0  -4   2  502.95   22.80
   0  -4   2  509.85   23.90
   0  -4   2  504.65   23.30
   0  -4   2  463.35   22.10
  -1   4  -2    0.30    3.90
  -1   4  -2    8.90    4.70
  -1   4  -2    3.60    3.80
  -1   4  -2   -3.30    5.60
   1  -4   2    2.30    4.00
   1  -4   2    1.70    4.50
   1  -4   2    7.00    4.30
   1  -4   2   -3.50    9.60
  -2   4  -2 2303.67   92.79
  -2   4  -2 2289.57   94.79
  -2   4  -2 2319.47   93.09
  -2   4  -2 2306.67   91.09
  -2   4  -2 2420.56   93.19
   2  -4   2 2263.47   92.89
   2  -4   2 2366.86   93.19
   2  -4   2 2217.38   91.99
   2  -4   2 2325.67   94.49
  -3   4  -2  684.63   27.30
  -3   4  -2  622.74   31.10
  -3   4  -2  643.04   30.40
  -3   4  -2  701.93   30.20
   3  -4   2  613.54   30.00
   3  -4   2  592.54   31.40
   3  -4   2  624.44   28.70
  -4   4  -2  489.45   22.50
  -4   4  -2  479.45   24.80
  -4   4  -2  515.95   26.70
  -4   4  -2  516.85   25.20
  -4   4  -2  514.35   28.20
   4  -4   2  561.64   26.40
   4  -4   2  463.95   24.90
   4  -4   2  503.25   26.30
   4  -4   2  526.85   27.60
  -5   4  -2   31.20   11.60
  -5   4  -2   41.70    8.40
  -5   4  -2   28.20    4.80
  -5   4  -2   32.00   10.90
  -5   4  -2   32.50    7.00
  -5   4  -2   43.00   10.80
   5  -4   2   41.20    9.30
   5  -4   2   42.20    8.50
   5  -4   2   49.70   11.30
  -6   4  -2  200.28   22.70
  -6   4  -2  189.88   12.60
  -6   4  -2  205.28   19.00
  -6   4  -2  154.08   13.80
  -6   4  -2  222.38   18.10
  -6   4  -2  215.68   21.30
   6  -4   2  221.28   21.60
   6  -4   2  191.68   17.20
   6  -4   2  230.18   21.80
   6  -4   2  149.29   22.40
  -7   4  -2  127.69   19.50
  -7   4  -2  173.08   21.40
  -7   4  -2  175.18   14.70
   7  -4   2  155.38   20.10
   7  -4   2  250.87   25.50
   7  -4   2  144.89   17.50
   7  -4   2  185.48   22.30
   7   5  -3   44.10   15.00
   7   5  -3   58.49   12.00
   7   5  -3    8.10   16.30
   7   5  -3   50.19   16.10
  -7  -5   3   58.19   15.30
   6   5  -3   70.89   13.20
   6   5  -3   84.19   12.70
   6   5  -3   66.49   13.60
  -6  -5   3   76.09   13.10
  -6  -5   3   75.29   12.80
  -6  -5   3   82.29    9.60
  -6  -5   3   65.19   11.00
   5   5  -3   49.10    9.80
   5   5  -3   39.90    8.20
   5   5  -3   25.10   10.10
  -5  -5   3   33.70    9.60
  -5  -5   3   62.69   10.90
  -5  -5   3   40.50    8.60
  -5  -5   3   33.90    6.60
   4   5  -3  475.85   23.40
   4   5  -3  432.26   23.80
   4   5  -3  439.66   23.00
  -4  -5   3  419.96   23.30
  -4  -5   3  455.05   22.40
  -4  -5   3  389.66   22.90
  -4  -5   3  445.06   24.20
   3   5  -3   97.79   10.00
   3   5  -3   75.29    8.40
  -3  -5   3   85.59    9.80
  -3  -5   3   75.59    8.40
  -3  -5   3   92.49   10.70
  -3  -5   3   76.69   10.50
   2   5  -3 1978.80   85.09
   2   5  -3 2012.90   85.29
   2   5  -3 2209.68   85.79
  -2  -5   3 2225.28   86.59
  -2  -5   3 2116.39   86.19
  -2  -5   3 2200.58   85.79
  -2  -5   3 2037.10   85.49
   1   5  -3  597.04   29.50
   1   5  -3  535.45   27.50
   1   5  -3  619.54   27.10
   1   5  -3  611.24   27.70
  -1  -5   3  603.34   27.00
  -1  -5   3  546.45   28.30
  -1  -5   3  628.94   29.20
   0   5  -3  739.43   34.10
   0   5  -3  780.92   36.00
   0   5  -3  823.62   33.80
   0   5  -3  789.92   36.60
   0  -5   3  754.42   34.00
   0  -5   3  798.12   33.60
   0  -5   3  706.83   36.20
   0  -5   3  802.92   35.70
  -1   5  -3  373.06   18.90
  -1   5  -3  372.86   19.10
  -1   5  -3  360.76   19.30
  -1   5  -3  355.46   17.80
  -1   5  -3  364.66   21.30
   1  -5   3  397.76   21.10
   1  -5   3  396.06   20.50
   1  -5   3  402.16   20.60
   1  -5   3  347.87   18.70
  -2   5  -3 1822.12   75.09
  -2   5  -3 1899.61   80.29
  -2   5  -3 1813.32   77.49
  -2   5  -3 1854.21   77.69
   2  -5   3 1894.01   77.89
   2  -5   3 1934.31   79.89
   2  -5   3 1952.80   77.89
   2  -5   3 1929.41   76.79
  -3   5  -3   30.40   10.00
  -3   5  -3   18.50    9.30
  -3   5  -3   16.30    7.20
  -3   5  -3   18.20    8.50
  -3   5  -3   21.20    5.50
   3  -5   3    0.90    8.70
   3  -5   3   10.90    6.90
   3  -5   3   16.40    9.00
   3  -5   3   11.90    7.20
  -4   5  -3  327.37   25.80
  -4   5  -3  346.07   16.90
  -4   5  -3  373.46   22.80
  -4   5  -3  337.77   20.50
  -4   5  -3  332.17   20.10
   4  -5   3  309.97   24.80
   4  -5   3  368.66   22.80
   4  -5   3  336.67   20.50
   4  -5   3  298.37   20.00
  -5   5  -3  217.68   20.80
  -5   5  -3  214.18   24.90
  -5   5  -3  188.48   18.40
  -5   5  -3  214.88   21.90
  -5   5  -3  200.28   13.50
   5  -5   3  199.18   17.60
   5  -5   3  211.98   19.00
   5  -5   3  210.78   19.50
   5  -5   3  228.38   21.90
  -6   5  -3  129.69   16.50
  -6   5  -3  116.19   19.00
  -6   5  -3  102.99   10.60
   6  -5   3  104.59   18.20
   6  -5   3  111.39   17.70
   6  -5   3  119.69   16.60
   6  -5   3   95.89   19.50
   7   6  -4   85.89   16.90
   7   6  -4   52.49   19.50
   7   6  -4   53.19   17.20
  -7  -6   4   84.19   14.40
  -7  -6   4   46.60    5.20
  -7  -6   4   79.29   17.90
   6   6  -4   23.80   13.80
   6   6  -4   27.30   14.70
   6   6  -4   25.80   13.40
  -6  -6   4   21.10   16.30
  -6  -6   4   22.20    7.80
  -6  -6   4   20.80   14.20
  -6  -6   4   38.90   14.30
   5   6  -4   21.60    9.30
   5   6  -4    7.20   13.00
  -5  -6   4   17.00   11.50
  -5  -6   4   -3.20    7.40
  -5  -6   4   14.70   11.20
  -5  -6   4   10.70   12.70
   4   6  -4   54.99    9.50
   4   6  -4   43.90   11.10
   4   6  -4   54.69    9.30
  -4  -6   4   37.90    9.00
  -4  -6   4   61.99   12.10
  -4  -6   4   66.19   11.60
  -4  -6   4   60.29   12.00
   3   6  -4  179.08   15.80
   3   6  -4  189.28   16.00
   3   6  -4  183.78   16.00
  -3  -6   4  164.58   14.60
  -3  -6   4  182.08   15.50
  -3  -6   4  181.48   15.90
   2   6  -4   23.70    6.70
   2   6  -4   14.80    8.10
   2   6  -4   16.70    8.80
  -2  -6   4   21.50    7.20
  -2  -6   4   18.90    7.80
  -2  -6   4   24.50    8.20
  -2  -6   4   16.60    7.70
   1   6  -4 1062.19   52.09
   1   6  -4 1147.19   52.39
   1   6  -4 1252.77   51.49
   1   6  -4 1237.28   51.39
  -1  -6   4 1197.98   52.99
  -1  -6   4 1191.08   51.29
  -1  -6   4 1212.28   51.39
  -1  -6   4 1164.48   50.59
   0   6  -4 2549.24  108.49
   0   6  -4 2781.62  108.29
   0   6  -4 2697.43  110.19
   0   6  -4 2694.23  107.79
   0  -6   4 2661.43  107.69
   0  -6   4 2654.93  109.19
   0  -6   4 2509.35  103.89
   0  -6   4 2689.23  107.69
  -1   6  -4  549.85   24.40
  -1   6  -4  490.65   28.70
  -1   6  -4  538.95   26.20
  -1   6  -4  519.65   27.30
   1  -6   4  536.15   30.20
   1  -6   4  511.75   26.00
   1  -6   4  529.85   27.30
   1  -6   4  519.35   25.90
  -2   6  -4  565.44   25.00
  -2   6  -4  539.15   30.80
  -2   6  -4  560.34   29.40
  -2   6  -4  525.55   27.80
  -2   6  -4  622.14   30.10
   2  -6   4  565.34   30.40
   2  -6   4  574.74   28.10
   2  -6   4  548.75   27.40
   2  -6   4  531.35   29.40
  -3   6  -4  289.47   22.30
  -3   6  -4  307.37   16.00
  -3   6  -4  297.67   22.60
  -3   6  -4  314.37   20.50
  -3   6  -4  321.57   27.60
   3  -6   4  341.37   22.70
   3  -6   4  272.27   21.80
   3  -6   4  330.87   20.00
   3  -6   4  301.67   22.50
  -4   6  -4   17.20   10.50
  -4   6  -4   21.10    6.60
  -4   6  -4   15.90   15.30
  -4   6  -4   -1.30   13.90
   4  -6   4   -3.30   10.40
   4  -6   4  -10.10   13.10
   4  -6   4    9.30   13.90
   4  -6   4   21.40   12.80
  -5   6  -4  223.58   14.40
  -5   6  -4  230.78   24.80
  -5   6  -4  260.47   21.80
  -5   6  -4  271.47   27.00
   5  -6   4  200.68   25.20
   5  -6   4  250.77   22.30
   5  -6   4  212.48   20.80
   5   7  -5  105.69   19.60
   5   7  -5  168.08   18.60
   5   7  -5  104.79   17.20
   5   7  -5  141.89   15.90
  -5  -7   5  166.98   20.00
  -5  -7   5  124.19   19.30
  -5  -7   5  149.29   18.10
   4   7  -5   92.09   14.60
   4   7  -5   78.49   15.10
  -4  -7   5   77.39   13.70
  -4  -7   5   81.69   13.50
  -4  -7   5   71.49   14.10
  -4  -7   5   74.79   11.90
   3   7  -5   88.29   13.90
   3   7  -5   79.49   13.60
   3   7  -5   67.59   13.30
  -3  -7   5   97.19   12.40
  -3  -7   5   84.39   13.50
  -3  -7   5   85.39   15.20
  -3  -7   5   94.99   13.40
   2   7  -5  229.88   19.60
   2   7  -5  256.77   19.80
   2   7  -5  244.78   20.30
  -2  -7   5  244.38   19.00
  -2  -7   5  245.28   19.90
  -2  -7   5  223.38   18.70
  -2  -7   5  224.38   19.90
  -2  -7   5  254.07   16.40
   1   7  -5   28.10   10.50
   1   7  -5   40.10    9.30
   1   7  -5    2.50   10.70
  -1  -7   5   20.30   10.20
  -1  -7   5   33.10   13.10
  -1  -7   5   10.00   11.50
  -1  -7   5   25.20    6.20
  -1  -7   5   16.60   11.00
   0   7  -5  213.88   19.50
   0   7  -5  243.78   18.30
   0   7  -5  218.98   24.20
   0   7  -5  177.18   16.10
   0  -7   5  205.68   10.70
   0  -7   5  190.88   22.60
   0  -7   5  194.18   18.70
   0  -7   5  193.18   17.50
   0  -7   5  206.98   18.90
  -1   7  -5  550.44   27.00
  -1   7  -5  582.24   36.50
  -1   7  -5  585.74   32.10
   1  -7   5  547.15   35.10
   1  -7   5  572.54   31.20
   1  -7   5  587.74   29.40
   1  -7   5  590.44   31.50
  -2   7  -5  351.16   25.80
  -2   7  -5  346.37   18.30
  -2   7  -5  343.67   22.70
  -2   7  -5  294.67   26.60
  -2   7  -5  351.96   30.70
   2  -7   5  312.57   25.80
   2  -7   5  315.47   25.10
   2  -7   5  431.86   23.30
   2  -7   5  344.07   22.50
  -3   7  -5   11.60   11.40
  -3   7  -5    0.00    7.30
  -3   7  -5  -18.40   23.20
  -3   7  -5   -0.10   12.20
  -3   7  -5    1.10   15.10
   3  -7   5    4.70   13.90
   3  -7   5    4.30   20.20
   3  -7   5    1.40   10.60
  -4   7  -5  304.37   29.10
  -4   7  -5  303.97   24.40
   4  -7   5  310.47   28.90
   4   8  -6   15.50   17.40
  -4  -8   6    7.50   15.40
  -4  -8   6   53.19   18.20
  -4  -8   6   39.70   17.10
   3   8  -6   -1.50   14.20
   3   8  -6  -32.80   13.00
   3   8  -6    1.80   16.70
  -3  -8   6    0.80   15.60
  -3  -8   6    0.30   15.00
  -3  -8   6    7.20   12.40
  -3  -8   6  -17.50   10.70
   2   8  -6  279.17   24.70
   2   8  -6  276.87   22.20
   2   8  -6  287.17   21.50
  -2  -8   6  306.47   29.70
  -2  -8   6  252.27   19.00
  -2  -8   6  278.47   22.70
  -2  -8   6  291.27   24.80
   1   8  -6   28.50   15.20
   1   8  -6   20.30   13.20
   1   8  -6   45.60   14.60
  -1  -8   6   27.50    7.20
  -1  -8   6   19.10   13.40
  -1  -8   6   21.30   11.60
  -1  -8   6   21.70   14.90
   0   8  -6  215.98   23.40
   0   8  -6  261.97   25.40
   0   8  -6  257.97   26.60
   0   8  -6  287.07   25.00
   0  -8   6  278.87   34.10
   0  -8   6  270.57   21.30
   0  -8   6  250.37   26.30
  -1   8  -6  117.79   18.00
  -1   8  -6  141.89   19.20
  -1   8  -6  145.79   17.30
  -1   8  -6  149.19   15.00
   1  -8   6  147.89   19.90
   1  -8   6  125.39   16.20
  -2   8  -6   42.60   16.40
  -2   8  -6   51.09   20.10
  -2   8  -6   58.59   16.60
  -2   8  -6   48.50   10.10
   2  -8   6   39.60   18.80
   3  -6   9  112.69   17.10
   3  -6   9   97.39   15.00
   3  -6   9   94.79   16.40
  -3   6  -9  115.29   19.80
  -3   6  -9   68.79   20.70
  -3   6  -9  118.59   18.40
   2  -6   9   99.79   16.20
   2  -6   9   93.69   15.70
   2  -6   9  103.09   15.10
  -2   6  -9   59.59   17.70
  -2   6  -9   77.99   12.20
  -2   6  -9   94.49   17.00
   1  -6   9   29.90   12.90
   1  -6   9   12.80   12.90
   1  -6   9   15.50   13.50
   1  -6   9   50.29   16.80
   1  -6   9   23.10   10.50
  -1   6  -9   20.00   12.00
  -1   6  -9   10.30   12.50
  -1   6  -9   36.50   12.40
  -1   6  -9    9.60   15.20
   0  -6   9  163.38   15.70
   0  -6   9  139.19   17.00
   0  -6   9  124.69   15.20
   0  -6   9  162.18   15.90
   0   6  -9  135.19   15.80
   0   6  -9  184.48   17.90
   0   6  -9  147.49   15.70
  -1  -6   9    9.20   10.00
  -1  -6   9   -8.80   11.40
  -1  -6   9   29.10   11.20
  -1  -6   9   -0.40   10.30
   1   6  -9    2.40   13.50
   1   6  -9   -5.60   10.50
   1   6  -9   -7.70   11.00
   1   6  -9   12.00   11.00
  -2  -6   9   81.49   14.10
  -2  -6   9   60.19   10.90
  -2  -6   9   36.90   11.70
  -2  -6   9   48.30   14.70
  -2  -6   9   59.59   12.50
   2   6  -9   65.79   12.00
   2   6  -9   89.49   12.30
   2   6  -9   74.49   17.40
   2   6  -9   72.19   13.90
  -3  -6   9   23.40   12.40
  -3  -6   9  -12.50   10.70
  -3  -6   9    9.80   15.50
  -3  -6   9   -3.40   11.40
  -3  -6   9    2.80   10.90
   3   6  -9   -5.40   10.00
   3   6  -9  -35.40   10.00
  -4  -6   9  103.49   15.80
  -4  -6   9  140.39   20.50
  -4  -6   9  142.19   16.00
  -4  -6   9  188.68   21.00
  -4  -6   9   93.79   15.10
   4   6  -9  107.69   15.30
   4   6  -9  117.69   14.50
   5  -5   8   23.70   15.50
   5  -5   8   15.30   29.50
  -5   5  -8   38.40   16.70
  -5   5  -8   43.30   20.00
  -5   5  -8   34.10   15.30
   4  -5   8   -3.20   10.20
   4  -5   8   -8.60    9.80
  -4   5  -8    6.30   14.80
  -4   5  -8    2.20   12.10
  -4   5  -8   18.70   12.70
  -4   5  -8    3.50   10.10
   3  -5   8  243.28   20.70
   3  -5   8  230.78   21.80
   3  -5   8  230.08   25.90
   3  -5   8  277.97   21.20
  -3   5  -8  214.18   21.20
  -3   5  -8  267.27   20.00
  -3   5  -8  271.37   23.20
  -3   5  -8  232.28   20.60
   2  -5   8  464.85   25.10
   2  -5   8  385.46   23.90
   2  -5   8  417.66   26.60
   2  -5   8  438.46   24.70
   2  -5   8  457.75   25.70
  -2   5  -8  450.15   28.00
  -2   5  -8  431.96   24.50
  -2   5  -8  429.46   25.20
   1  -5   8  306.07   21.80
   1  -5   8  268.77   18.20
   1  -5   8  312.27   18.70
   1  -5   8  279.57   18.80
   1  -5   8  279.57   23.20
  -1   5  -8  281.37   19.40
  -1   5  -8  278.07   21.10
  -1   5  -8  279.27   18.80
  -1   5  -8  288.47   25.40
   0  -5   8   29.10    8.30
   0  -5   8   20.70   11.10
   0  -5   8   43.10    8.90
   0  -5   8   35.20    8.80
   0  -5   8   52.09    9.10
   0   5  -8   16.00    8.30
   0   5  -8   20.50    8.10
   0   5  -8   35.30    8.60
   0   5  -8   26.10    8.90
  -1  -5   8  473.75   27.00
  -1  -5   8  435.56   22.60
  -1  -5   8  439.46   26.40
  -1  -5   8  429.86   23.20
  -1  -5   8  500.85   24.40
   1   5  -8  472.25   23.50
   1   5  -8  442.86   27.60
   1   5  -8  480.05   26.60
   1   5  -8  481.65   24.10
  -2  -5   8   44.40    8.90
  -2  -5   8   28.70   11.70
  -2  -5   8   28.30    8.90
  -2  -5   8   28.50    8.60
  -2  -5   8   33.70    8.10
   2   5  -8   26.10    9.70
   2   5  -8   40.80   11.60
   2   5  -8   40.10    8.40
   2   5  -8   27.70    8.80
  -3  -5   8  800.22   36.80
  -3  -5   8  853.61   37.20
  -3  -5   8  811.62   38.20
  -3  -5   8  828.32   39.80
  -3  -5   8  811.42   41.10
   3   5  -8  864.81   40.00
   3   5  -8  827.32   37.40
   3   5  -8  863.81   41.00
  -4  -5   8   79.29   10.80
  -4  -5   8   48.10   11.30
  -4  -5   8   75.39   13.10
  -4  -5   8   70.39   10.90
  -4  -5   8   55.59   10.60
   4   5  -8   78.89   11.00
   4   5  -8   63.09   11.30
   4   5  -8   59.59   15.20
   4   5  -8   70.09   11.20
  -5  -5   8  553.34   34.40
  -5  -5   8  595.74   31.20
  -5  -5   8  596.74   36.80
  -5  -5   8  597.14   31.40
   5   5  -8  624.84   31.80
   5   5  -8  649.74   30.90
   5   5  -8  671.33   33.60
  -6  -5   8   65.49   14.20
  -6  -5   8   71.99   19.90
  -6  -5   8   68.89   14.70
  -6  -5   8   84.09   17.70
   6   5  -8   72.69   15.00
   6   5  -8   81.59   18.10
   6   5  -8   82.19   21.20
   6  -4   7   30.20   16.30
   6  -4   7    1.80   15.60
  -6   4  -7  -12.80   13.50
  -6   4  -7   25.40   12.30
  -6   4  -7   -8.20   18.20
   5  -4   7  995.80   46.80
   5  -4   7  941.81   45.20
   5  -4   7  897.81   46.10
   5  -4   7  922.41   47.90
  -5   4  -7  955.30   51.19
  -5   4  -7  997.10   45.40
  -5   4  -7  995.90   47.00
  -5   4  -7  970.30   46.80
   4  -4   7   73.59   11.50
   4  -4   7   71.79   13.80
   4  -4   7   85.49   13.90
   4  -4   7   84.39   11.20
  -4   4  -7   84.59   11.60
  -4   4  -7   99.99   13.20
  -4   4  -7   86.49   15.90
  -4   4  -7   66.39   10.60
   3  -4   7  227.48   16.90
   3  -4   7  219.18   18.00
   3  -4   7  242.78   17.90
   3  -4   7  224.28   16.20
  -3   4  -7  242.28   18.80
  -3   4  -7  244.58   19.50
  -3   4  -7  255.87   16.20
   2  -4   7  138.49   11.80
   2  -4   7  149.79   14.50
   2  -4   7  159.38   13.40
   2  -4   7  160.88   15.70
   2  -4   7  156.28   13.60
  -2   4  -7  169.28   13.80
  -2   4  -7  145.29   15.30
  -2   4  -7  174.08   15.70
  -2   4  -7  133.49   14.90
   1  -4   7   62.19    9.10
   1  -4   7   79.29   10.50
   1  -4   7   77.79    9.00
   1  -4   7   81.39    8.60
   1  -4   7   71.39    9.30
  -1   4  -7   75.19    8.30
  -1   4  -7   76.49   10.30
  -1   4  -7   73.19    8.80
  -1   4  -7   66.09   11.20
   0  -4   7  209.78   13.70
   0  -4   7  184.48   15.80
   0  -4   7  201.98   13.20
   0  -4   7  213.88   16.10
   0  -4   7  183.58   16.40
   0   4  -7  247.58   16.40
   0   4  -7  202.78   13.20
   0   4  -7  220.18   15.70
   0   4  -7  207.98   13.70
  -1  -4   7  572.04   28.50
  -1  -4   7  591.04   28.50
  -1  -4   7  593.34   25.90
  -1  -4   7  543.15   25.50
  -1  -4   7  575.74   26.10
   1   4  -7  586.44   29.00
   1   4  -7  559.54   25.80
   1   4  -7  540.05   26.10
   1   4  -7  560.74   28.20
  -2  -4   7  116.59   11.40
  -2  -4   7  130.19   11.20
  -2  -4   7  125.89   12.00
  -2  -4   7  118.69   10.40
  -2  -4   7  112.49   11.30
   2   4  -7  130.39   12.80
   2   4  -7  105.49   10.20
   2   4  -7  111.89    9.80
   2   4  -7  110.69   12.90
  -3  -4   7   28.20    6.20
  -3  -4   7   35.20    7.00
  -3  -4   7   18.60    7.50
  -3  -4   7   29.40    7.10
  -3  -4   7   29.60    8.70
   3   4  -7   30.40   10.20
   3   4  -7   27.60    7.10
   3   4  -7   34.90    7.90
   3   4  -7   33.60    6.80
  -4  -4   7  263.07   19.40
  -4  -4   7  293.87   15.90
  -4  -4   7  292.77   21.30
  -4  -4   7  288.87   17.20
  -4  -4   7  313.07   17.30
   4   4  -7  285.27   16.90
   4   4  -7  296.17   20.80
   4   4  -7  289.17   21.80
   4   4  -7  296.77   17.40
   4   4  -7  245.78   18.10
  -5  -4   7   48.30   13.00
  -5  -4   7   76.69    9.90
  -5  -4   7   56.39    9.80
   5   4  -7   59.19   13.20
   5   4  -7   60.09   10.70
   5   4  -7   83.09    9.90
   5   4  -7   51.69   11.50
  -6  -4   7  114.09   13.50
  -6  -4   7   98.39   16.90
  -6  -4   7   89.19   13.40
   6   4  -7   85.79   13.60
   6   4  -7  120.89   13.50
   6   4  -7   84.49   18.30
   6   4  -7  102.19   13.70
  -7  -4   7   -9.10   13.00
  -7  -4   7   -7.30   11.90
   7   4  -7   16.70   15.90
   7   4  -7    7.70   16.70
   7   4  -7  -14.30   12.70
   7  -3   6    5.80   16.10
   7  -3   6    0.10   17.60
   7  -3   6   -6.00   12.10
  -7   3  -6    4.80   15.50
  -7   3  -6   56.49   18.70
   6  -3   6  462.45   30.20
   6  -3   6  463.65   30.30
   6  -3   6  490.95   30.00
   6  -3   6  458.65   28.60
  -6   3  -6  434.66   32.00
  -6   3  -6  394.86   29.40
  -6   3  -6  457.75   30.60
  -6   3  -6  511.65   30.50
   5  -3   6    5.10   10.80
   5  -3   6   -1.40    7.50
   5  -3   6   -5.00    7.10
   5  -3   6    5.40   10.00
  -5   3  -6   26.00   10.60
  -5   3  -6   -8.80   11.10
  -5   3  -6   11.20   11.30
  -5   3  -6  -13.00   10.40
   4  -3   6   47.10    9.70
   4  -3   6   44.70    8.80
   4  -3   6   65.79    9.50
   4  -3   6   49.20   10.60
  -4   3  -6   68.09   10.30
  -4   3  -6   48.80   11.80
  -4   3  -6   62.99   10.80
  -4   3  -6   80.19   11.50
   3  -3   6   -6.70    7.10
   3  -3   6    6.90    7.00
   3  -3   6    2.40    7.80
   3  -3   6   10.20    6.30
  -3   3  -6   22.30    7.10
  -3   3  -6    5.00    2.80
  -3   3  -6    9.80    7.70
  -3   3  -6    8.70    7.50
  -3   3  -6    4.00    5.30
   2  -3   6  602.64   29.00
   2  -3   6  583.64   27.10
   2  -3   6  604.34   27.60
   2  -3   6  601.74   26.80
  -2   3  -6  579.84   27.50
  -2   3  -6  585.24   26.80
  -2   3  -6  566.14   29.10
  -2   3  -6  614.64   24.30
   1  -3   6  302.27   15.90
   1  -3   6  293.87   16.40
   1  -3   6  306.67   17.40
   1  -3   6  334.07   17.00
   1  -3   6  324.57   16.00
  -1   3  -6  299.17   17.70
  -1   3  -6  314.27   15.80
  -1   3  -6  275.07   15.70
  -1   3  -6  319.57   16.60
   0  -3   6 1279.47   48.30
   0  -3   6 1072.69   48.90
   0  -3   6 1184.18   48.20
   0  -3   6 1118.99   48.70
   0  -3   6 1240.28   50.69
   0   3  -6 1156.68   48.10
   0   3  -6 1187.38   48.20
   0   3  -6 1141.89   49.40
   0   3  -6 1164.28   50.39
  -1  -3   6 2661.13   98.19
  -1  -3   6 2429.16   98.09
  -1  -3   6 2504.65   98.49
  -1  -3   6 2379.86   96.99
  -1  -3   6 2175.58   97.49
   1   3  -6 2428.96   96.89
   1   3  -6 2619.24   98.69
   1   3  -6 2475.25   98.69
   1   3  -6 2340.07   96.89
  -2  -3   6   98.09    9.30
  -2  -3   6   79.69   10.10
  -2  -3   6  104.69    8.10
  -2  -3   6   88.89    8.20
  -2  -3   6   94.19    9.70
   2   3  -6  101.59    8.10
   2   3  -6  102.59   10.30
   2   3  -6   77.69    8.30
   2   3  -6   93.79   10.30
  -3  -3   6   68.49    8.60
  -3  -3   6   92.79    9.30
  -3  -3   6   93.39    8.40
  -3  -3   6   83.49    8.10
  -3  -3   6   75.49   10.60
   3   3  -6   89.39    8.10
   3   3  -6   85.29    9.00
   3   3  -6   83.89    8.90
   3   3  -6   80.39    7.90
   3   3  -6   77.89    9.50
  -4  -3   6  392.96   22.70
  -4  -3   6  414.66   19.80
  -4  -3   6  389.36   23.30
  -4  -3   6  423.26   20.20
   4   3  -6  394.56   22.60
   4   3  -6  432.36   19.70
   4   3  -6  415.36   21.60
   4   3  -6  389.26   20.10
  -5  -3   6  262.17   15.40
  -5  -3   6  258.07   17.40
  -5  -3   6  272.27   15.50
  -5  -3   6  261.07   19.60
   5   3  -6  247.78   15.40
   5   3  -6  249.78   17.00
   5   3  -6  243.18   15.60
   5   3  -6  257.57   17.50
  -6  -3   6   31.30   10.00
  -6  -3   6   33.40    9.90
  -6  -3   6   36.70   13.10
   6   3  -6   36.90   12.50
   6   3  -6   32.40    9.10
   6   3  -6   37.30   10.10
   6   3  -6    7.50    9.00
  -7  -3   6  107.49   17.50
  -7  -3   6  125.19   15.10
  -7  -3   6  134.99   14.70
   7   3  -6  108.99   14.50
   7   3  -6  125.99   14.60
   7   3  -6  106.49   14.30
   8  -2   5   78.09   15.60
  -8   2  -5  110.09   20.90
  -8   2  -5   59.69   19.10
   7  -2   5    7.90   13.80
   7  -2   5   -2.90   10.10
   7  -2   5   18.80   12.40
   7  -2   5    4.50   12.20
  -7   2  -5    5.70   12.10
  -7   2  -5   18.00   15.30
  -7   2  -5   19.60   14.20
  -7   2  -5   11.50   14.30
   6  -2   5   90.09   13.20
   6  -2   5   98.29   14.80
   6  -2   5   84.99   13.70
   6  -2   5   85.49   14.30
  -6   2  -5   84.59   13.60
  -6   2  -5   71.29   13.70
  -6   2  -5   95.99   14.20
  -6   2  -5   90.39   11.10
   5  -2   5  420.66   23.70
   5  -2   5  399.56   24.80
   5  -2   5  437.36   23.10
  -5   2  -5  417.86   23.30
  -5   2  -5  397.56   22.00
  -5   2  -5  385.76   23.30
  -5   2  -5  397.26   22.10
   4  -2   5  133.49   14.20
   4  -2   5  128.69   12.60
   4  -2   5  116.89   11.10
   4  -2   5  126.09   13.00
  -4   2  -5  137.69   15.40
  -4   2  -5  114.29   12.10
  -4   2  -5  150.18   10.90
  -4   2  -5  137.49   11.00
   3  -2   5  338.77   17.10
   3  -2   5  309.67   16.60
   3  -2   5  301.47   16.00
   3  -2   5  313.67   18.90
  -3   2  -5  296.57   16.80
  -3   2  -5  302.77   19.40
  -3   2  -5  316.87   16.30
  -3   2  -5  301.07   16.80
   2  -2   5  210.08   13.60
   2  -2   5  226.38   12.60
   2  -2   5  234.38   13.70
   2  -2   5  236.48   13.30
  -2   2  -5  217.08   12.90
  -2   2  -5  201.48   14.80
  -2   2  -5  199.88   12.50
  -2   2  -5  218.88   12.40
   1  -2   5 1222.68   50.39
   1  -2   5 1245.38   52.29
   1  -2   5 1258.47   51.49
   1  -2   5 1249.28   50.69
   1  -2   5 1219.98   50.39
  -1   2  -5 1193.48   50.39
  -1   2  -5 1282.77   51.19
  -1   2  -5 1277.07   50.49
  -1   2  -5 1262.47   49.50
  -1   2  -5 1236.98   52.39
   0  -2   5 1476.55   57.59
   0  -2   5 1428.36   58.49
   0  -2   5 1425.76   57.39
   0  -2   5 1456.25   58.99
   0  -2   5 1474.35   58.19
   0   2  -5 1418.66   57.49
   0   2  -5 1441.06   57.39
   0   2  -5 1499.25   58.59
   0   2  -5 1414.56   59.19
   0   2  -5 1368.86   57.49
  -1  -2   5 1684.93   65.69
  -1  -2   5 1615.64   64.89
  -1  -2   5 1682.83   66.29
  -1  -2   5 1611.74   64.89
  -1  -2   5 1618.04   66.09
   1   2  -5 1651.63   64.99
   1   2  -5 1655.13   65.99
   1   2  -5 1596.24   66.29
   1   2  -5 1696.63   66.59
   1   2  -5 1586.54   64.99
  -2  -2   5  498.35   22.80
  -2  -2   5  517.05   21.40
  -2  -2   5  515.75   22.50
  -2  -2   5  526.45   22.10
  -2  -2   5  499.35   21.30
   2   2  -5  485.45   21.30
   2   2  -5  497.65   24.90
   2   2  -5  493.85   22.20
   2   2  -5  497.25   27.40
  -3  -2   5  231.48   12.10
  -3  -2   5  219.98   14.90
  -3  -2   5  243.58   11.30
  -3  -2   5  251.37   12.20
  -3  -2   5  240.38   14.70
   3   2  -5  239.48   12.40
   3   2  -5  252.77   15.00
   3   2  -5  249.08   13.60
   3   2  -5  261.77   12.30
   3   2  -5  235.78   12.50
  -4  -2   5  805.52   36.90
  -4  -2   5  848.82   34.50
  -4  -2   5  780.92   36.70
  -4  -2   5  764.52   35.70
   4   2  -5  857.61   34.70
   4   2  -5  837.02   36.20
   4   2  -5  870.51   36.20
   4   2  -5  790.52   34.80
  -5  -2   5  165.28   11.70
  -5  -2   5  140.89   11.50
  -5  -2   5  123.29   12.10
   5   2  -5  148.49   12.20
   5   2  -5  119.79   10.90
   5   2  -5  119.39   11.50
   5   2  -5  110.59   10.90
  -6  -2   5  176.48   14.40
  -6  -2   5  160.98   16.80
  -6  -2   5  197.68   14.50
   6   2  -5  137.79   14.70
   6   2  -5  206.28   18.00
   6   2  -5  159.68   14.10
   6   2  -5  159.78   13.60
  -7  -2   5  213.08   19.70
  -7  -2   5  268.07   21.00
  -7  -2   5  260.57   19.20
   7   2  -5  242.48   19.40
   7   2  -5  246.28   20.20
   7   2  -5  212.68   19.50
   7   2  -5  271.87   19.80
  -8  -2   5   91.59   15.80
  -8  -2   5   75.49   15.20
   8   2  -5   85.69   17.80
   8   2  -5   87.39   15.10
   8  -1   4   42.60   17.80
   8  -1   4   27.70   12.10
   8  -1   4   46.30   13.10
  -8   1  -4   54.59   14.40
  -8   1  -4   41.40   14.50
   7  -1   4   50.29   13.60
   7  -1   4   69.19   14.30
   7  -1   4   51.39   14.90
  -7   1  -4   62.59   13.80
  -7   1  -4   51.29   15.00
  -7   1  -4   62.89   14.40
  -7   1  -4   45.90   12.60
   6  -1   4  147.39   14.30
   6  -1   4  194.18   17.20
   6  -1   4  173.48   14.50
  -6   1  -4  161.48   15.90
  -6   1  -4  145.39   14.10
  -6   1  -4  172.88   16.90
  -6   1  -4  155.58   16.90
   5  -1   4  436.86   23.20
   5  -1   4  423.66   22.80
   5  -1   4  431.16   22.90
   5  -1   4  445.56   23.70
  -5   1  -4  467.15   23.90
  -5   1  -4  437.66   21.60
  -5   1  -4  440.86   24.50
  -5   1  -4  410.76   22.00
   4  -1   4  893.61   39.00
   4  -1   4  886.51   39.80
   4  -1   4  941.11   39.10
   4  -1   4  946.81   39.80
  -4   1  -4  918.41   40.80
  -4   1  -4  898.61   38.90
  -4   1  -4  854.11   39.00
  -4   1  -4  931.41   39.50
   3  -1   4  214.28   13.20
   3  -1   4  234.58   14.50
   3  -1   4  230.78    9.80
   3  -1   4  219.28   12.90
   3  -1   4  214.78   12.90
  -3   1  -4  228.68   14.70
  -3   1  -4  238.38   12.10
  -3   1  -4  239.68   13.50
  -3   1  -4  226.98   13.00
   2  -1   4  683.13   28.40
   2  -1   4  662.03   28.40
   2  -1   4  689.53   29.50
   2  -1   4  667.73   28.60
  -2   1  -4  681.33   30.00
  -2   1  -4  645.34   28.20
  -2   1  -4  659.43   28.20
  -2   1  -4  670.03   28.10
   1  -1   4  227.88    9.00
   1  -1   4  196.78   11.70
   1  -1   4  201.18   10.30
   1  -1   4  210.18   12.40
   1  -1   4  202.48   11.20
   1  -1   4  225.38   10.60
  -1   1  -4  250.37   12.10
  -1   1  -4  206.68   10.60
  -1   1  -4  222.08    9.00
  -1   1  -4  217.88   12.70
  -1   1  -4  221.68   10.50
   0  -1   4 6810.92  264.27
   0  -1   4 6960.60  262.97
   0  -1   4 6300.87  263.77
   0  -1   4 6744.93  263.47
   0   1  -4 6666.93  263.47
   0   1  -4 6861.51  262.97
   0   1  -4 6733.33  264.27
   0   1  -4 6692.53  263.27
   0   1  -4 7234.18  263.97
  -1  -1   4 1543.95   60.99
  -1  -1   4 1589.34   61.29
  -1  -1   4 1476.45   60.79
  -1  -1   4 1511.75   59.89
  -1  -1   4 1565.84   60.89
   1   1  -4 1588.34   61.39
   1   1  -4 1555.34   60.99
   1   1  -4 1518.55   61.09
   1   1  -4 1497.25   59.89
   1   1  -4 1456.95   59.89
   1   1  -4 1526.55   60.99
  -2  -1   4  130.99    8.10
  -2  -1   4  139.69    8.40
  -2  -1   4  136.89    7.10
  -2  -1   4  143.09    8.60
  -2  -1   4  141.79    7.00
   2   1  -4  132.09    6.80
   2   1  -4  125.29    8.00
   2   1  -4  138.59    7.00
   2   1  -4  131.99    7.20
   2   1  -4  128.09    8.30
  -3  -1   4  993.20   39.30
  -3  -1   4  986.50   40.70
  -3  -1   4  945.41   40.50
  -3  -1   4  994.90   39.30
   3   1  -4  970.60   40.40
   3   1  -4  929.51   40.50
   3   1  -4  940.91   39.30
   3   1  -4  988.00   39.30
  -4  -1   4  255.37   14.20
  -4  -1   4  255.57   14.60
  -4  -1   4  253.07   13.60
   4   1  -4  250.47   13.10
   4   1  -4  275.67   13.70
   4   1  -4  253.37   14.10
   4   1  -4  257.97   14.50
  -5  -1   4  420.76   20.80
  -5  -1   4  420.46   23.00
  -5  -1   4  392.26   20.30
  -5  -1   4  442.46   22.60
   5   1  -4  448.56   21.00
   5   1  -4  450.25   23.00
   5   1  -4  439.76   20.70
   5   1  -4  393.66   22.50
  -6  -1   4  218.08   15.70
  -6  -1   4  219.88   14.90
  -6  -1   4  189.88   14.90
   6   1  -4  228.88   15.50
   6   1  -4  186.08   17.50
   6   1  -4  212.28   15.40
   6   1  -4  219.08   15.00
  -7  -1   4  325.17   20.90
  -7  -1   4  330.67   21.10
   7   1  -4  327.37   23.60
   7   1  -4  308.17   20.40
   7   1  -4  327.27   24.40
   7   1  -4  313.47   21.90
  -8  -1   4    6.10   13.50
  -8  -1   4    7.90   15.10
   8   1  -4   -3.90   12.80
   8   1  -4   -9.20   12.70
   8   1  -4  -14.60   18.70
   8   1  -4   22.10   11.60
   8   0   3  -13.90    9.30
   8   0   3   -4.00   11.70
   8   0   3  -21.00   12.80
   8   0   3   17.90   11.70
  -8   0  -3   24.60   14.10
  -8   0  -3  -16.70   17.50
  -8   0  -3  -28.70   11.00
   7   0   3   53.69   12.10
   7   0   3   52.79   13.20
   7   0   3   56.69    9.90
  -7   0  -3   47.60   11.60
  -7   0  -3   44.90   12.40
  -7   0  -3   32.80   10.50
  -7   0  -3   59.19   11.10
   6   0   3    7.30    8.50
   6   0   3   18.50    7.30
   6   0   3   21.40    9.10
  -6   0  -3   -1.40    7.00
  -6   0  -3   12.20    5.80
  -6   0  -3   11.80    7.40
  -6   0  -3    5.40    9.80
   5   0   3  643.14   29.00
   5   0   3  662.83   29.70
  -5   0  -3  580.54   32.00
  -5   0  -3  659.13   29.80
  -5   0  -3  673.53   30.50
   4   0   3  939.31   42.10
   4   0   3 1018.20   42.50
   4   0   3 1026.30   42.80
  -4   0  -3 1001.10   42.10
  -4   0  -3  991.30   43.10
  -4   0  -3 1036.20   42.90
  -4   0  -3 1051.99   43.00
   3   0   3   47.30    5.80
   3   0   3   45.00    5.30
   3   0   3   40.50    4.50
   3   0   3   52.89    5.90
  -3   0  -3   43.10    5.10
  -3   0  -3   41.70    5.90
  -3   0  -3   46.10    5.20
  -3   0  -3   36.30    5.80
   2   0   3  215.48   10.60
   2   0   3  209.48   11.60
   2   0   3  198.98   10.10
   2   0   3  200.58   10.10
  -2   0  -3  191.88   11.50
  -2   0  -3  216.88   10.70
  -2   0  -3  204.38   10.10
  -2   0  -3  203.68    9.60
   1   0   3  395.16   16.70
   1   0   3  391.56   16.70
   1   0   3  392.56   17.40
   1   0   3  387.66   17.60
   1   0   3  423.06   16.10
  -1   0  -3  410.26   16.70
  -1   0  -3  373.76   16.70
  -1   0  -3  403.86   16.60
  -1   0  -3  404.96   18.10
   0   0   3  459.75   19.60
   0   0   3  462.05   18.60
   0   0   3  508.65   19.30
   0   0  -3  469.35   20.10
   0   0  -3  454.55   18.70
   0   0  -3  466.65   19.30
   0   0  -3  471.65   19.90
   0   0  -3  475.65   19.70
   0   0  -3  472.25   18.70
  -1   0   3   18.40    2.90
  -1   0   3   18.90    1.40
  -1   0   3   16.00    3.80
  -1   0   3   17.00    1.40
   1   0  -3   12.10    3.60
   1   0  -3   14.90    3.90
   1   0  -3   14.10    1.40
   1   0  -3   15.10    3.00
   1   0  -3   17.70    1.70
  -2   0   3  766.72   30.30
  -2   0   3  756.92   31.20
  -2   0   3  782.92   31.50
  -2   0   3  745.93   30.30
  -2   0   3  720.63   31.20
   2   0  -3  725.83   31.00
   2   0  -3  780.22   31.40
   2   0  -3  774.22   30.40
   2   0  -3  752.62   30.30
  -3   0   3 2150.68   86.89
  -3   0   3 2244.48   87.09
  -3   0   3 2262.87   87.89
  -3   0   3 2145.59   87.79
  -3   0   3 2271.77   87.79
   3   0  -3 2234.68   88.09
   3   0  -3 2237.88   86.99
   3   0  -3 2135.09   86.99
   3   0  -3 2178.38   87.79
  -4   0   3 1150.58   41.60
  -4   0   3  980.20   42.00
  -4   0   3  995.10   41.70
  -4   0   3  916.11   41.60
  -4   0   3  953.10   41.10
   4   0  -3 1038.10   41.20
   4   0  -3  960.70   41.60
   4   0  -3  959.50   41.20
   4   0  -3  990.00   41.90
  -5   0   3  266.47   14.90
  -5   0   3  266.07   15.50
  -5   0   3  245.98   14.90
  -5   0   3  233.58   15.90
  -5   0   3  246.78   14.30
   5   0  -3  244.78   14.70
   5   0  -3  267.67   16.60
   5   0  -3  248.38   14.70
   5   0  -3  247.28   14.50
  -6   0   3  600.24   30.20
  -6   0   3  610.04   29.10
  -6   0   3  621.04   28.80
  -6   0   3  574.24   28.50
  -6   0   3  649.34   30.60
   6   0  -3  594.24   28.50
   6   0  -3  592.34   28.80
   6   0  -3  558.54   28.80
   6   0  -3  667.33   30.60
  -7   0   3   -0.60    7.80
  -7   0   3   -2.50    9.70
  -7   0   3   -3.20    8.40
  -7   0   3    5.20    9.10
   7   0  -3   10.10    9.70
   7   0  -3    2.70    9.80
   7   0  -3   -8.70    8.40
  -8   0   3  160.68   18.20
  -8   0   3  134.19   17.70
   8   0  -3  155.98   19.00
   8   0  -3  137.59   20.70
   8   0  -3  140.89   17.60
   8   0  -3  163.48   17.30
   8   1   2   95.19   14.00
   8   1   2   97.49   16.80
   8   1   2   88.89   12.10
   8   1   2   77.09   15.10
  -8  -1  -2  100.39   16.40
  -8  -1  -2   70.09   12.70
  -8  -1  -2   89.79   14.10
  -8  -1  -2   49.99   11.40
   7   1   2   84.29   10.50
   7   1   2  110.59   12.20
   7   1   2   82.09   13.80
   7   1   2   88.99   16.40
  -7  -1  -2   70.19    9.90
  -7  -1  -2   82.99   13.40
  -7  -1  -2   78.19   12.80
  -7  -1  -2   98.69   12.00
   6   1   2  327.37   20.90
   6   1   2  337.37   18.90
   6   1   2  345.97   19.90
  -6  -1  -2  425.36   21.30
  -6  -1  -2  287.97   17.70
  -6  -1  -2  319.17   19.30
  -6  -1  -2  313.37   18.90
   5   1   2 1738.63   68.09
   5   1   2 1588.24   69.39
   5   1   2 1669.63   68.99
   5   1   2 1755.82   69.89
  -5  -1  -2 1748.93   69.39
  -5  -1  -2 1656.43   69.19
  -5  -1  -2 1717.03   69.99
   4   1   2 3448.05  139.09
   4   1   2 3484.75  139.59
   4   1   2 3409.96  138.19
   4   1   2 3673.83  139.89
  -4  -1  -2 3704.13  139.29
  -4  -1  -2 3353.76  139.49
  -4  -1  -2 3432.66  139.49
  -4  -1  -2 3764.52  139.79
   3   1   2   22.90    4.00
   3   1   2   18.60    2.90
   3   1   2   23.60    4.80
   3   1   2   26.70    4.30
  -3  -1  -2   17.50    4.00
  -3  -1  -2   34.10    5.20
  -3  -1  -2   21.50    4.10
  -3  -1  -2   23.50    3.90
   2   1   2 1593.34   62.39
   2   1   2 1499.45   61.69
   2   1   2 1645.14   62.99
   2   1   2 1629.94   62.99
  -2  -1  -2 1597.24   62.89
  -2  -1  -2 1549.54   62.89
  -2  -1  -2 1573.64   62.29
   1   1   2   32.60    3.30
   1   1   2   29.40    3.00
   1   1   2   32.00    2.40
  -1  -1  -2   26.80    3.30
  -1  -1  -2   32.40    2.40
  -1  -1  -2   36.60    3.30
   0   1   2 5888.21  228.48
  -1   1   2 2386.86   85.79
  -1   1   2 2112.79   85.19
  -1   1   2 2181.98   85.39
  -1   1   2 2186.58   85.19
  -1   1   2 2140.89   85.59
   1  -1  -2 2144.09   85.29
   1  -1  -2 2178.28   85.29
   1  -1  -2 2138.09   85.79
   1  -1  -2 2199.48   85.69
  -2   1   2 3272.07  130.69
  -2   1   2 3360.36  130.79
  -2   1   2 3367.26  130.49
  -2   1   2 3164.08  130.69
  -2   1   2 3218.68  130.49
   2  -1  -2 3525.95  130.79
   2  -1  -2 3331.67  130.49
   2  -1  -2 3459.15  130.59
   2  -1  -2 3378.36  130.49
  -3   1   2  890.51   37.90
  -3   1   2  905.81   38.30
  -3   1   2  902.21   38.10
  -3   1   2  954.70   38.60
  -3   1   2  968.30   38.50
   3  -1  -2  908.91   38.30
   3  -1  -2  919.51   38.20
   3  -1  -2  948.31   37.60
   3  -1  -2  950.90   38.10
  -4   1   2  107.29    9.60
  -4   1   2  121.69   10.10
  -4   1   2  125.19    9.50
  -4   1   2  113.19    9.60
  -4   1   2  105.89    8.60
   4  -1  -2  107.19    7.50
   4  -1  -2  110.89    9.20
   4  -1  -2  118.69   10.00
   4  -1  -2  101.89    7.60
  -5   1   2    1.30    6.10
  -5   1   2   -6.90    5.70
  -5   1   2   -3.00    4.90
  -5   1   2    3.20    5.50
  -5   1   2    6.30    5.00
   5  -1  -2    4.10    5.30
   5  -1  -2    5.10    3.40
   5  -1  -2   -2.50    5.20
   5  -1  -2   10.10    5.90
  -6   1   2  111.79   10.60
  -6   1   2  107.49   11.90
  -6   1   2  128.39   12.70
  -6   1   2  117.19   12.60
  -6   1   2  130.49   12.80
   6  -1  -2  128.99   13.60
   6  -1  -2  132.09   13.20
   6  -1  -2  131.49   12.20
   6  -1  -2  126.49    9.40
  -7   1   2  162.28   15.10
  -7   1   2  164.58   16.20
  -7   1   2  193.48   18.00
  -7   1   2  198.48   18.80
  -7   1   2  204.18   16.80
   7  -1  -2  219.88   20.00
   7  -1  -2  225.28   18.80
   7  -1  -2  225.38   25.90
  -8   1   2  271.37   22.60
  -8   1   2  234.68   22.30
   8  -1  -2  232.88   23.00
   8  -1  -2  223.48   22.30
   8  -1  -2  269.07   25.50
   8  -1  -2  239.88   23.10
   8   2   1   83.89   15.90
   8   2   1   94.89   14.40
   8   2   1   91.69   13.10
   8   2   1   86.69   15.50
  -8  -2  -1   85.79   17.00
  -8  -2  -1   89.49   15.50
  -8  -2  -1   91.29   16.10
  -8  -2  -1   75.89   10.00
   7   2   1   23.30    8.80
   7   2   1   12.10   11.50
   7   2   1   24.70   10.70
   7   2   1   26.40   10.40
  -7  -2  -1   35.60    8.80
  -7  -2  -1   37.20    7.50
  -7  -2  -1   35.40   10.70
  -7  -2  -1   31.40   10.80
   6   2   1   13.50    6.40
   6   2   1   18.50    7.00
   6   2   1   19.40    6.30
   6   2   1   20.80    8.80
  -6  -2  -1   24.00    9.50
  -6  -2  -1    9.20    5.60
  -6  -2  -1   13.30    9.00
  -6  -2  -1   24.30    6.40
   5   2   1 1193.98   48.50
   5   2   1 1127.89   49.10
   5   2   1 1190.58   47.60
   5   2   1 1096.39   48.40
  -5  -2  -1 1188.18   49.10
  -5  -2  -1 1155.38   47.80
  -5  -2  -1 1148.99   49.00
  -5  -2  -1 1104.49   48.30
   4   2   1 1737.43   74.29
   4   2   1 1792.42   74.29
   4   2   1 1836.52   73.39
   4   2   1 1796.22   73.99
  -4  -2  -1 2012.50   75.09
  -4  -2  -1 1873.21   74.09
  -4  -2  -1 1857.21   74.59
   3   2   1 1113.29   45.40
   3   2   1 1031.60   46.10
   3   2   1 1081.49   45.80
   3   2   1 1228.58   46.50
  -3  -2  -1 1131.69   45.90
  -3  -2  -1 1218.78   46.60
  -3  -2  -1 1111.89   45.40
  -3  -2  -1 1153.28   46.50
   2   2   1  894.91   37.70
   2   2   1  928.91   37.30
   2   2   1  870.11   37.80
  -2  -2  -1  906.71   37.10
  -2  -2  -1 1002.00   37.90
  -2  -2  -1  962.40   38.00
   1   2   1 3063.69  126.79
   1   2   1 3373.26  126.89
  -1  -2  -1 3148.19  126.89
  -1  -2  -1 3396.06  126.99
   0   2   1  104.89    6.90
   0   2   1  135.69    6.50
   0   2   1  118.89    6.80
   0  -2  -1  106.99    6.90
   0  -2  -1  112.99    6.30
  -1   2   1  451.35   19.20
  -1   2   1  437.36   19.10
  -1   2   1  461.45   19.40
  -1   2   1  432.76   19.00
   1  -2  -1  467.25   19.40
   1  -2  -1  455.15   19.40
   1  -2  -1  455.25   19.10
   1  -2  -1  459.65   20.20
   1  -2  -1  455.75   18.70
  -2   2   1 3888.11  150.58
  -2   2   1 3742.83  150.68
  -2   2   1 3907.51  150.48
  -2   2   1 3723.13  149.99
  -2   2   1 3699.13  150.68
  -2   2   1 3722.63  151.08
   2  -2  -1 3879.41  150.68
   2  -2  -1 3916.61  150.78
   2  -2  -1 4141.09  150.88
   2  -2  -1 3883.31  151.28
  -3   2   1  247.68   12.40
  -3   2   1  251.87   12.30
  -3   2   1  230.58   13.50
  -3   2   1  241.48   12.60
  -3   2   1  251.47   13.00
  -3   2   1  214.58   12.00
   3  -2  -1  225.88   13.00
   3  -2  -1  245.48   12.90
   3  -2  -1  239.88   12.90
   3  -2  -1  225.98   12.70
  -4   2   1  112.79    9.30
  -4   2   1  119.59   10.00
  -4   2   1  100.29    8.60
  -4   2   1  131.69   10.30
  -4   2   1   84.09    8.50
  -4   2   1  114.69    8.90
   4  -2  -1  114.09    9.70
   4  -2  -1  116.19    8.60
   4  -2  -1  115.39   10.30
   4  -2  -1  103.49    8.90
  -5   2   1   99.89   10.60
  -5   2   1   93.89   11.30
  -5   2   1   85.49    9.00
  -5   2   1   83.29   10.00
  -5   2   1   90.39    9.90
  -5   2   1   93.49    9.10
   5  -2  -1   87.69    9.00
   5  -2  -1   89.19    9.30
   5  -2  -1   92.49   10.00
  -6   2   1  140.49   13.70
  -6   2   1  139.29   12.60
  -6   2   1  159.38   13.50
  -6   2   1  148.39   13.20
  -6   2   1  132.59   13.90
  -6   2   1  139.89   13.70
   6  -2  -1  118.59   13.40
   6  -2  -1  177.48   15.20
   6  -2  -1  120.89   18.00
   6  -2  -1  134.29   12.70
  -7   2   1  353.66   21.70
  -7   2   1  355.66   23.00
  -7   2   1  390.66   25.20
  -7   2   1  400.86   25.40
  -7   2   1  344.07   22.30
   7  -2  -1  360.16   25.10
   7  -2  -1  368.46   21.10
   7  -2  -1  382.96   25.80
   7  -2  -1  388.56   24.70
  -8   2   1   43.10   17.10
  -8   2   1   47.50   14.60
   8  -2  -1   57.49   17.10
   8  -2  -1   33.20   16.40
   8  -2  -1   11.20   12.70
   8  -2  -1   26.10   13.70
   8   3   0   40.70   16.30
   8   3   0   54.09   12.90
   8   3   0   19.00   14.50
   8   3   0   33.70   12.30
  -8  -3   0   13.80   14.80
  -8  -3   0   19.30    6.40
   7   3   0   -5.10   10.50
   7   3   0  -17.50    7.60
   7   3   0    1.60    7.40
   7   3   0   -8.70   11.20
  -7  -3   0    7.90   11.20
  -7  -3   0    0.50    5.70
   6   3   0    2.30    6.10
   6   3   0   22.80    9.10
   6   3   0   15.70    7.00
  -6  -3   0    9.70    9.40
  -6  -3   0   18.40    5.40
   5   3   0  394.76   19.40
   5   3   0  369.46   19.40
   5   3   0  396.26   21.00
   5   3   0  377.76   20.20
  -5  -3   0  368.96   20.50
   4   3   0   48.90    6.90
   4   3   0   70.09    7.10
   4   3   0   57.99    6.30
   4   3   0   62.99    7.00
  -4  -3   0   71.89    7.10
  -4  -3   0   71.19    7.20
  -4  -3   0   57.29    7.80
   3   3   0 1088.59   44.30
   3   3   0 1109.29   44.20
   3   3   0 1047.10   44.50
   3   3   0 1036.60   44.60
  -3  -3   0 1057.39   44.50
  -3  -3   0 1055.39   44.10
  -3  -3   0 1154.88   44.70
   2   3   0 2693.83  109.09
   2   3   0 2743.73  109.09
  -2  -3   0 2834.52  109.29
  -2  -3   0 2787.12  108.79
  -2  -3   0 2759.02  109.19
   1   3   0   35.10    5.00
   1   3   0   26.00    3.80
  -1  -3   0   26.70    4.70
  -1  -3   0   27.10    4.70
  -1  -3   0   25.10    4.00
   0   3   0 1095.59   44.80
   0   3   0 1103.29   45.80
   0   3   0 1148.29   45.90
   0  -3   0 1094.79   46.80
   0  -3   0 1079.59   45.90
   0  -3   0 1269.67   46.10
  -1   3   0  322.17   16.70
  -1   3   0  369.76   16.30
  -1   3   0  362.36   18.10
  -1   3   0  361.36   16.30
  -1   3   0  327.67   16.70
   1  -3   0  365.56   15.40
   1  -3   0  340.67   16.60
   1  -3   0  394.56   17.60
   1  -3   0  347.87   16.20
  -2   3   0    8.70    3.40
  -2   3   0   15.30    5.30
  -2   3   0    6.50    3.50
  -2   3   0   15.70    5.40
  -2   3   0    6.40    3.90
   2  -3   0    9.70    4.80
   2  -3   0   10.80    4.00
   2  -3   0   12.20    5.00
   2  -3   0   17.30    3.80
  -3   3   0 1044.10   41.00
  -3   3   0  924.01   40.50
  -3   3   0  935.21   41.10
  -3   3   0  906.41   39.20
  -3   3   0  983.30   38.50
  -3   3   0  980.20   40.40
   3  -3   0  941.51   40.70
   3  -3   0  998.50   41.50
   3  -3   0  930.91   40.40
   3  -3   0  912.51   40.50
  -4   3   0  603.34   26.40
  -4   3   0  586.34   28.40
  -4   3   0  599.34   28.00
  -4   3   0  605.14   28.00
  -4   3   0  568.64   28.70
  -4   3   0  577.14   25.70
   4  -3   0  583.14   28.20
   4  -3   0  618.24   28.00
   4  -3   0  624.24   28.90
   4  -3   0  646.14   28.40
  -5   3   0    8.20    8.00
  -5   3   0   17.20    6.10
  -5   3   0   23.40    8.60
  -5   3   0    9.40    6.30
  -5   3   0   13.70    6.10
  -5   3   0   23.30    8.00
   5  -3   0   11.80    6.70
   5  -3   0   11.90    8.50
   5  -3   0   17.30    8.10
  -6   3   0  108.29   13.40
  -6   3   0   90.09   12.50
  -6   3   0   91.09   11.00
  -6   3   0   98.19    9.80
  -6   3   0   86.89   11.70
  -6   3   0   79.59   10.00
   6  -3   0   85.79   12.60
   6  -3   0   71.39   10.60
   6  -3   0   57.29   12.20
   6  -3   0   89.79   13.00
  -7   3   0  115.49   16.90
  -7   3   0  116.69   18.00
  -7   3   0  124.79   13.20
  -7   3   0  131.99   13.20
  -7   3   0  107.49   14.50
  -7   3   0  120.69   14.60
   7  -3   0  163.28   18.90
   7  -3   0  116.79   16.10
   7  -3   0  145.89   17.70
   7  -3   0  108.59   16.00
  -8   3   0   54.19   20.20
  -8   3   0   44.30   13.80
   8  -3   0   49.90   21.10
   8  -3   0   67.29   14.30
   8  -3   0   23.80   17.90
   8  -3   0   34.10   17.70
   8   4  -1  110.39   19.50
   8   4  -1  116.29   17.60
   8   4  -1  119.99   18.00
   8   4  -1  124.29   15.10
  -8  -4   1  127.39   16.10
   7   4  -1  163.58   17.00
   7   4  -1  196.48   20.30
   7   4  -1  171.68   17.50
   7   4  -1  164.38   16.00
  -7  -4   1  124.99   16.40
  -7  -4   1  152.98   16.90
  -7  -4   1  145.99   11.10
  -7  -4   1  166.78   11.50
   6   4  -1  462.45   25.90
   6   4  -1  448.96   25.60
   6   4  -1  459.45   25.60
   6   4  -1  480.65   24.70
  -6  -4   1  500.25   25.60
  -6  -4   1  440.86   26.10
  -6  -4   1  448.56   21.80
   5   4  -1  169.98   14.60
   5   4  -1  164.18   14.70
   5   4  -1  151.78   15.90
   5   4  -1  175.78   12.60
  -5  -4   1  195.88   12.60
  -5  -4   1  185.08   14.30
  -5  -4   1  196.48   13.20
  -5  -4   1  167.38   14.70
   4   4  -1   68.29    7.30
   4   4  -1   50.59    8.60
   4   4  -1   84.59    9.00
   4   4  -1   60.99    8.90
  -4  -4   1   60.49    9.00
  -4  -4   1   65.19    8.30
  -4  -4   1   62.09    8.80
  -4  -4   1   72.79    8.90
   3   4  -1 1898.41   76.69
  -3  -4   1 1983.50   76.79
  -3  -4   1 1888.51   76.59
  -3  -4   1 1890.51   76.49
  -3  -4   1 1803.92   76.59
   2   4  -1 2838.52  109.39
   2   4  -1 2768.52  109.19
  -2  -4   1 2666.93  109.09
  -2  -4   1 2781.12  109.69
  -2  -4   1 2846.62  109.69
  -2  -4   1 2578.04  109.09
   1   4  -1    3.90    3.80
   1   4  -1   17.10    3.70
   1   4  -1   -2.60    4.50
  -1  -4   1    8.90    4.00
  -1  -4   1    1.50    3.50
  -1  -4   1   24.40    5.80
   0   4  -1   46.30    6.50
   0   4  -1   36.70    6.00
   0   4  -1   33.60    5.80
   0   4  -1   40.70    4.50
   0  -4   1   34.30    5.50
   0  -4   1   51.39    5.80
   0  -4   1   37.30    5.30
   0  -4   1   40.50    4.60
  -1   4  -1 3218.08  123.79
  -1   4  -1 3092.29  124.89
  -1   4  -1 3349.06  124.59
  -1   4  -1 3115.09  124.69
  -1   4  -1 3132.79  125.99
   1  -4   1 2983.60  123.49
   1  -4   1 3290.27  126.09
   1  -4   1 3041.70  124.69
   1  -4   1 3112.89  124.69
  -2   4  -1  210.08   11.30
  -2   4  -1  197.88   13.80
  -2   4  -1  218.68   13.70
  -2   4  -1  248.68   12.50
  -2   4  -1  212.38   15.90
   2  -4   1  191.88   12.10
   2  -4   1  216.58   13.80
   2  -4   1  219.58   15.10
  -3   4  -1 1589.74   65.09
  -3   4  -1 1602.14   62.99
  -3   4  -1 1593.24   66.59
   3  -4   1 1581.84   64.99
   3  -4   1 1475.25   63.49
   3  -4   1 1573.04   65.79
   3  -4   1 1544.15   64.59
  -4   4  -1  301.87   15.50
  -4   4  -1  306.47   20.70
  -4   4  -1  297.67   18.80
  -4   4  -1  293.57   17.50
  -4   4  -1  278.87   16.80
   4  -4   1  288.27   20.00
   4  -4   1  309.97   17.30
   4  -4   1  275.67   18.70
  -5   4  -1   92.29    8.80
  -5   4  -1   97.19   12.50
  -5   4  -1   96.99   12.30
  -5   4  -1  107.89   13.30
  -5   4  -1   87.99   12.40
  -5   4  -1  111.19   11.10
   5  -4   1   82.69   10.60
   5  -4   1   82.39   11.60
   5  -4   1   89.69   10.90
   5  -4   1  102.89   11.60
  -6   4  -1  280.47   23.10
  -6   4  -1  237.08   16.90
  -6   4  -1  256.47   15.60
  -6   4  -1  271.07   23.20
  -6   4  -1  261.57   21.70
  -6   4  -1  259.27   19.70
   6  -4   1  255.17   22.20
   6  -4   1  264.67   27.90
   6  -4   1  268.67   22.30
   6  -4   1  275.27   22.40
  -7   4  -1   76.59   16.10
  -7   4  -1   92.59   11.00
  -7   4  -1   78.89   14.90
  -7   4  -1   89.69   11.20
   7  -4   1   65.29   16.20
   7  -4   1   67.39   14.90
   7  -4   1  129.49   20.20
   7  -4   1   69.29   14.00
   8   5  -2   63.89   16.50
   8   5  -2   69.99   20.00
   8   5  -2   67.39   17.20
   8   5  -2   -0.60   19.30
  -8  -5   2   50.59   18.80
   7   5  -2    3.90    9.60
   7   5  -2   37.30   14.50
   7   5  -2   15.30   12.70
   7   5  -2  -34.90   13.30
  -7  -5   2   29.70   11.00
  -7  -5   2   11.70    5.30
  -7  -5   2   -2.80    5.20
  -7  -5   2   13.60   15.80
   6   5  -2  216.58   19.20
   6   5  -2  200.18   19.20
   6   5  -2  200.08   18.40
   6   5  -2  171.88   16.20
  -6  -5   2  199.28   13.80
  -6  -5   2  200.28   15.90
  -6  -5   2  147.99   14.70
  -6  -5   2  181.48   15.80
   5   5  -2  -11.10    8.00
   5   5  -2    9.30    6.50
   5   5  -2   14.10   10.30
  -5  -5   2   13.20    8.60
  -5  -5   2    2.80    9.30
  -5  -5   2   10.50    5.80
  -5  -5   2   14.10    8.90
   4   5  -2  269.17   16.90
   4   5  -2  232.68   15.20
   4   5  -2  281.47   17.50
  -4  -5   2  277.87   17.70
  -4  -5   2  241.08   17.00
  -4  -5   2  238.58   17.30
  -4  -5   2  270.47   16.00
   3   5  -2  692.43   33.40
  -3  -5   2  753.22   33.00
  -3  -5   2  760.02   32.90
  -3  -5   2  747.13   33.40
  -3  -5   2  720.13   33.30
   2   5  -2  770.32   37.20
   2   5  -2  858.11   37.30
   2   5  -2  887.61   36.50
  -2  -5   2  921.01   40.60
  -2  -5   2  813.42   37.20
  -2  -5   2  849.32   37.70
   1   5  -2  594.44   28.00
   1   5  -2  563.54   27.10
   1   5  -2  618.74   26.70
  -1  -5   2  626.24   28.00
  -1  -5   2  600.04   29.20
  -1  -5   2  621.04   27.50
   0   5  -2  371.86   23.80
   0   5  -2  344.87   19.10
   0   5  -2  356.06   21.00
   0   5  -2  359.66   17.10
   0  -5   2  357.36   19.20
   0  -5   2  348.37   19.30
   0  -5   2  340.27   17.80
  -1   5  -2  700.63   31.00
  -1   5  -2  639.14   32.00
  -1   5  -2  685.73   31.20
  -1   5  -2  677.83   28.80
   1  -5   2  658.63   30.20
   1  -5   2  673.53   30.50
   1  -5   2  656.83   29.00
  -2   5  -2  204.58   15.90
  -2   5  -2  211.38   12.00
  -2   5  -2  192.08   15.50
  -2   5  -2  204.58   13.30
  -2   5  -2  196.48   15.50
   2  -5   2  196.78   12.90
   2  -5   2  204.38   15.30
   2  -5   2  195.38   15.00
   2  -5   2  213.68   13.70
  -3   5  -2  846.52   36.10
  -3   5  -2  846.62   41.80
  -3   5  -2  878.51   38.70
  -3   5  -2  902.91   40.00
  -3   5  -2  908.21   38.40
   3  -5   2  852.71   41.30
   3  -5   2  878.11   39.30
   3  -5   2  815.02   39.10
   3  -5   2  824.92   37.40
  -4   5  -2  533.45   27.30
  -4   5  -2  538.55   27.10
  -4   5  -2  562.14   31.60
  -4   5  -2  553.74   24.60
  -4   5  -2  522.45   29.00
   4  -5   2  520.95   27.40
   4  -5   2  559.44   27.50
   4  -5   2  525.45   26.70
   4  -5   2  541.75   30.80
  -5   5  -2    5.90    8.80
  -5   5  -2    0.70    7.00
  -5   5  -2   -4.90    8.70
  -5   5  -2    9.30    8.30
  -5   5  -2    6.40   12.50
   5  -5   2  -20.10   10.90
   5  -5   2   -8.30   11.00
   5  -5   2    8.40    9.80
   5  -5   2   18.40   12.10
  -6   5  -2  118.29   11.50
  -6   5  -2  132.29   21.50
  -6   5  -2   83.89   17.90
   6  -5   2  111.69   17.50
   6  -5   2  101.79   17.60
   6  -5   2  131.39   15.80
   6  -5   2  118.69   16.10
   7   6  -3  153.08   20.40
   7   6  -3  197.68   20.60
   7   6  -3  163.28   18.50
  -7  -6   3  200.38   19.90
  -7  -6   3  160.38   17.30
   6   6  -3   33.60   13.00
   6   6  -3   27.10   14.70
   6   6  -3   32.90   13.90
  -6  -6   3   19.30   11.10
  -6  -6   3   30.60    8.10
  -6  -6   3   50.99   11.10
   5   6  -3   15.40   11.60
   5   6  -3  -12.10   10.00
   5   6  -3    3.50   10.50
  -5  -6   3    9.90   11.50
  -5  -6   3  -12.20   10.60
  -5  -6   3    3.20    6.90
  -5  -6   3   -8.90    7.60
   4   6  -3   14.70    9.00
   4   6  -3   14.40   11.30
   4   6  -3   14.50    7.30
  -4  -6   3    6.80    9.60
  -4  -6   3    5.30   10.40
  -4  -6   3    9.90    7.20
  -4  -6   3    0.50    9.50
   3   6  -3   19.60    7.50
   3   6  -3   31.20    9.30
   3   6  -3   20.00    8.00
  -3  -6   3   27.70    7.10
  -3  -6   3   42.00    9.70
  -3  -6   3   16.90    7.40
  -3  -6   3   17.40    9.10
   2   6  -3   30.40    9.00
   2   6  -3   40.50    9.30
   2   6  -3   32.00    7.80
  -2  -6   3   31.90    9.90
  -2  -6   3   31.20    7.60
  -2  -6   3   16.30    6.60
  -2  -6   3   39.70    8.60
   1   6  -3  335.77   20.00
   1   6  -3  312.77   17.60
   1   6  -3  318.07   20.00
  -1  -6   3  326.37   20.10
  -1  -6   3  325.97   18.80
  -1  -6   3  356.26   21.60
  -1  -6   3  313.97   19.70
   0   6  -3  187.78   18.90
   0   6  -3  207.48   14.40
   0   6  -3  184.68   21.00
   0   6  -3  199.48   15.90
   0  -6   3  174.58   15.80
   0  -6   3  181.68   15.20
   0  -6   3  180.68   13.50
  -1   6  -3   59.39    8.60
  -1   6  -3   52.69    7.60
  -1   6  -3   32.30   10.60
  -1   6  -3   51.99   10.70
   1  -6   3   33.10    8.10
   1  -6   3   67.79    8.60
   1  -6   3   37.10    7.90
   1  -6   3   52.69   10.10
  -2   6  -3   -7.70    9.80
  -2   6  -3   -6.80    5.00
  -2   6  -3   11.00   10.20
  -2   6  -3    7.20    6.50
  -2   6  -3    6.80    6.60
   2  -6   3   -9.70    6.30
   2  -6   3   -2.00    9.10
   2  -6   3   -3.90    6.70
   2  -6   3    4.70    8.90
  -3   6  -3   34.30   11.10
  -3   6  -3   35.30    6.90
  -3   6  -3   32.70   12.50
  -3   6  -3   30.60   11.10
  -3   6  -3   27.80   10.40
   3  -6   3   16.90    8.70
   3  -6   3   18.90   11.00
   3  -6   3   42.30   11.30
   3  -6   3   18.20    8.90
  -4   6  -3  -11.30   12.70
  -4   6  -3   -5.30    9.70
  -4   6  -3    6.40   12.80
  -4   6  -3   -0.10    7.00
  -4   6  -3    5.50   12.10
   4  -6   3    6.20    9.00
   4  -6   3   -4.80   12.40
   4  -6   3  -12.20   12.00
   4  -6   3   -1.00   12.90
  -5   6  -3  135.19   16.20
  -5   6  -3  146.59   13.40
  -5   6  -3  129.69   21.10
  -5   6  -3  126.79   16.50
   5  -6   3  132.69   15.30
   5  -6   3  147.09   17.30
   5  -6   3  143.29   15.80
   5  -6   3  108.29   16.70
  -6   6  -3  109.19   22.30
  -6   6  -3  131.49   12.40
  -6   6  -3  121.69   21.10
   6  -6   3  176.48   19.50
   6  -6   3  151.78   19.20
   6   7  -4    0.00   12.80
   6   7  -4   26.50   15.90
   6   7  -4  -26.80   10.90
  -6  -7   4   14.40   16.60
  -6  -7   4   19.70   16.90
  -6  -7   4   -7.60   10.60
   5   7  -4  174.68   18.70
   5   7  -4  161.88   18.50
   5   7  -4  172.98   18.40
   5   7  -4  172.78   17.10
  -5  -7   4  167.28   18.40
  -5  -7   4  135.79   14.70
  -5  -7   4  170.08   16.90
   4   7  -4  102.19   14.10
   4   7  -4   86.59   14.90
  -4  -7   4   60.29   12.10
  -4  -7   4  106.09   14.80
  -4  -7   4   79.29   12.80
  -4  -7   4   87.89   14.50
   3   7  -4  227.18   19.40
   3   7  -4  208.28   18.40
   3   7  -4  193.38   18.70
  -3  -7   4  186.08   18.70
  -3  -7   4  217.08   19.40
  -3  -7   4  191.38   19.90
  -3  -7   4  188.48   17.20
   2   7  -4 1330.67   56.59
   2   7  -4 1293.47   56.29
   2   7  -4 1272.37   55.19
  -2  -7   4 1302.37   55.59
  -2  -7   4 1250.07   56.99
  -2  -7   4 1202.38   56.19
  -2  -7   4 1279.47   56.89
   1   7  -4  554.84   27.40
   1   7  -4  579.54   29.10
   1   7  -4  553.04   29.40
  -1  -7   4  502.85   30.00
  -1  -7   4  515.15   31.40
  -1  -7   4  553.24   29.50
  -1  -7   4  554.74   29.50
   0   7  -4 1338.97   53.89
   0   7  -4 1253.67   55.19
   0   7  -4 1236.58   54.59
   0  -7   4 1212.38   56.49
   0  -7   4 1298.87   54.69
   0  -7   4 1213.38   49.90
   0  -7   4 1201.98   54.29
  -1   7  -4   77.69    9.80
  -1   7  -4   96.29   14.60
  -1   7  -4   76.49   13.10
  -1   7  -4   55.59   14.50
   1  -7   4   64.39   12.40
   1  -7   4   64.99   10.60
   1  -7   4   58.19   13.60
   1  -7   4   72.69   10.10
  -2   7  -4   63.19   16.60
  -2   7  -4   70.99   12.10
  -2   7  -4   58.49   10.90
  -2   7  -4   71.69    9.10
   2  -7   4   33.40   13.60
   2  -7   4   85.39   11.30
   2  -7   4   58.49   12.30
   2  -7   4   75.09   11.90
  -3   7  -4   65.99   13.00
  -3   7  -4  125.49   15.00
  -3   7  -4   54.89   13.00
  -3   7  -4   95.39    9.60
  -3   7  -4   70.09   17.80
   3  -7   4   75.49   16.20
   3  -7   4   90.79   16.40
   3  -7   4   60.99   13.90
   3  -7   4   79.99   12.40
  -4   7  -4  -10.60   16.40
  -4   7  -4   29.80   12.30
  -4   7  -4    9.70   16.70
  -4   7  -4   17.70    8.30
   4  -7   4   31.20   12.40
   4  -7   4   14.10   15.90
   4   8  -5   45.00   17.60
   4   8  -5   68.19   14.20
  -4  -8   5   97.49   15.60
  -4  -8   5   51.59   15.60
  -4  -8   5   72.79   17.50
   3   8  -5   81.19   16.50
   3   8  -5  106.39   17.40
   3   8  -5   84.89   15.90
  -3  -8   5   84.29   16.60
  -3  -8   5   87.19   16.70
  -3  -8   5   83.99   16.00
   2   8  -5   66.39   16.10
   2   8  -5   46.80   13.40
   2   8  -5   43.70   14.10
  -2  -8   5   35.80   10.00
  -2  -8   5   57.19   17.10
  -2  -8   5   42.70   13.80
  -2  -8   5   53.99   15.30
   1   8  -5   46.30   11.70
   1   8  -5    2.80   12.80
   1   8  -5   42.50   14.10
  -1  -8   5   51.49   16.00
  -1  -8   5   18.80    7.00
  -1  -8   5   34.10   15.40
  -1  -8   5   17.60   10.00
  -1  -8   5   43.60   15.80
   0   8  -5   84.29   16.50
   0   8  -5   92.39   14.60
   0   8  -5  169.78   18.70
   0  -8   5   96.29   19.50
   0  -8   5   97.09   17.30
   0  -8   5  137.59   17.60
  -1   8  -5  202.28   16.00
  -1   8  -5  238.48   22.00
  -1   8  -5  186.48   20.60
  -1   8  -5  155.58   19.20
   1  -8   5  202.48   21.40
  -2   8  -5   95.89   20.70
  -2   8  -5   72.39   16.00
  -2   8  -5  105.59   18.40
  -2   8  -5   91.29   11.20
   2  -8   5   94.19   14.40
   2  -8   5  110.19   19.70
  -3   8  -5   57.39   19.00
  -3   8  -5   45.10   10.00
  -3   8  -5   40.80   21.10
   3  -8   5   61.99   15.10
   3  -8   5   35.70   14.10
   2  -6  10   90.49   16.60
   2  -6  10   83.99   16.70
   2  -6  10   64.39   17.40
  -2   6 -10   45.20   15.60
  -2   6 -10   53.19   15.40
  -2   6 -10   93.59   21.40
   1  -6  10   10.00   14.20
   1  -6  10   29.70   15.70
   1  -6  10   11.70   12.60
  -1   6 -10   10.90   12.50
  -1   6 -10    4.70   13.60
  -1   6 -10    6.00   12.40
   0  -6  10   67.59   13.70
   0  -6  10   69.79   15.60
   0  -6  10   66.39   18.00
   0  -6  10   78.29   14.20
   0   6 -10   41.00   13.70
   0   6 -10   47.20   12.50
  -1  -6  10   23.40   12.80
  -1  -6  10   10.60   15.40
  -1  -6  10   43.30   15.40
  -1  -6  10   29.90   11.50
   1   6 -10   20.80   12.40
   1   6 -10   25.00   12.10
  -2  -6  10   57.89   12.30
  -2  -6  10   28.50   14.10
  -2  -6  10   46.00   12.60
  -2  -6  10   45.60   12.60
  -2  -6  10   26.50   16.60
   2   6 -10   41.00   15.00
   2   6 -10   44.80   11.80
   2   6 -10   49.60   12.00
  -3  -6  10  253.57   20.90
  -3  -6  10  249.28   23.60
  -3  -6  10  295.77   27.50
  -3  -6  10  226.08   22.60
  -3  -6  10  207.68   18.70
   3   6 -10  256.67   26.80
   3   6 -10  244.68   19.40
   4  -5   9  112.89   18.70
   4  -5   9   80.99   15.50
   4  -5   9  114.89   16.60
  -4   5  -9   80.19   20.30
  -4   5  -9  101.89   17.40
  -4   5  -9   93.79   19.00
   3  -5   9  204.78   20.80
   3  -5   9  192.48   19.80
   3  -5   9  192.88   20.00
   3  -5   9  193.08   18.40
   3  -5   9  192.08   21.60
  -3   5  -9  212.28   21.60
  -3   5  -9  172.48   22.10
  -3   5  -9  213.28   19.40
  -3   5  -9  177.78   17.80
   2  -5   9   75.99   14.70
   2  -5   9  108.99   12.80
   2  -5   9   75.39   13.10
   2  -5   9   67.79   12.40
  -2   5  -9   56.99   12.10
  -2   5  -9   62.19   15.90
  -2   5  -9   50.69   13.80
   1  -5   9  297.47   22.10
   1  -5   9  297.27   19.60
   1  -5   9  312.37   19.50
   1  -5   9  277.27   23.20
   1  -5   9  275.07   24.80
  -1   5  -9  298.87   20.20
  -1   5  -9  260.57   22.50
  -1   5  -9  325.67   19.50
  -1   5  -9  253.87   20.70
   0  -5   9  813.82   38.20
   0  -5   9  796.52   35.60
   0  -5   9  749.53   35.30
   0  -5   9  722.43   36.80
   0  -5   9  805.82   40.30
   0   5  -9  762.52   36.00
   0   5  -9  786.92   40.80
   0   5  -9  789.92   39.00
   0   5  -9  721.53   35.40
  -1  -5   9  741.03   36.20
  -1  -5   9  721.83   32.20
  -1  -5   9  697.03   32.60
  -1  -5   9  697.73   33.80
   1   5  -9  688.03   31.80
   1   5  -9  631.14   35.50
   1   5  -9  641.94   32.10
   1   5  -9  648.34   34.60
  -2  -5   9    6.70    8.60
  -2  -5   9   12.50    8.30
  -2  -5   9   21.60   10.00
  -2  -5   9   27.70    9.70
  -2  -5   9   11.00    9.00
   2   5  -9    9.10    8.90
   2   5  -9   10.80    8.00
   2   5  -9   -9.20    9.90
   2   5  -9   10.10    9.00
  -3  -5   9  387.26   22.10
  -3  -5   9  438.36   25.30
  -3  -5   9  366.56   23.80
  -3  -5   9  389.46   22.50
  -3  -5   9  375.06   27.40
   3   5  -9  375.96   22.00
   3   5  -9  410.26   28.20
   3   5  -9  442.56   26.30
  -4  -5   9   37.20    9.70
  -4  -5   9   39.60    9.30
  -4  -5   9   32.70   10.90
  -4  -5   9   24.30   14.20
   4   5  -9   29.40    9.40
   4   5  -9   41.70   14.70
   4   5  -9   13.00   11.10
  -5  -5   9  203.18   20.70
  -5  -5   9  231.58   21.10
  -5  -5   9  222.98   20.40
  -5  -5   9  227.98   20.80
   5   5  -9  212.58   20.20
   5   5  -9  214.78   18.00
   5   5  -9  269.27   22.00
   6  -4   8  323.67   30.10
   6  -4   8  302.57   29.50
  -6   4  -8  297.27   30.00
  -6   4  -8  273.67   28.10
  -6   4  -8  275.27   29.40
   5  -4   8   88.69   16.40
   5  -4   8   71.59   15.70
   5  -4   8  107.99   19.80
  -5   4  -8  120.39   17.00
  -5   4  -8  143.89   18.20
  -5   4  -8  121.09   15.70
  -5   4  -8  112.09   20.50
   4  -4   8   31.70   11.00
   4  -4   8   43.90   12.80
   4  -4   8   33.40   12.20
   4  -4   8   23.20   11.80
  -4   4  -8   30.50   12.80
  -4   4  -8   27.00   12.50
  -4   4  -8   26.50   11.50
  -4   4  -8   41.00   11.90
   3  -4   8  655.13   31.70
   3  -4   8  611.34   33.20
   3  -4   8  641.14   34.00
   3  -4   8  642.94   31.00
   3  -4   8  651.73   31.60
  -3   4  -8  640.74   37.10
  -3   4  -8  622.74   31.30
  -3   4  -8  633.94   32.30
   2  -4   8   79.09   10.70
   2  -4   8   65.89   10.00
   2  -4   8   91.69   10.90
   2  -4   8   88.69    9.40
   2  -4   8   68.19   10.40
  -2   4  -8   77.99   12.40
  -2   4  -8   67.39   11.60
  -2   4  -8   82.09   13.50
  -2   4  -8   79.79   10.70
   1  -4   8  524.75   29.40
   1  -4   8  530.05   25.60
   1  -4   8  551.34   27.10
   1  -4   8  530.25   25.60
   1  -4   8  522.45   26.60
  -1   4  -8  537.65   25.70
  -1   4  -8  498.95   25.80
  -1   4  -8  554.14   26.90
  -1   4  -8  525.65   28.50
   0  -4   8  285.47   19.60
   0  -4   8  321.37   17.10
   0  -4   8  311.27   18.60
   0  -4   8  322.77   17.10
   0  -4   8  327.27   21.20
   0   4  -8  313.37   19.90
   0   4  -8  331.77   18.80
   0   4  -8  305.37   17.50
   0   4  -8  299.87   17.00
  -1  -4   8   10.30    7.60
  -1  -4   8   19.90    6.30
  -1  -4   8    6.10    6.60
  -1  -4   8   17.20    6.80
  -1  -4   8   13.40    5.90
   1   4  -8   23.40    9.20
   1   4  -8   18.40    8.20
   1   4  -8   19.30    6.80
   1   4  -8   29.50    6.30
  -2  -4   8   15.40    6.60
  -2  -4   8   18.20    6.70
  -2  -4   8   29.00   10.90
  -2  -4   8   13.20    7.00
  -2  -4   8   22.60    6.00
   2   4  -8   13.70    8.30
   2   4  -8   16.90    6.50
   2   4  -8   19.70    7.30
   2   4  -8   11.20    6.20
  -3  -4   8   -4.10    8.20
  -3  -4   8    2.00    5.90
  -3  -4   8    9.40    8.10
   3   4  -8   -0.40    5.70
   3   4  -8   -0.80    7.40
   3   4  -8    1.90    7.30
   3   4  -8  -27.70    9.20
  -4  -4   8   18.00   12.40
  -4  -4   8   42.10    8.30
  -4  -4   8   32.70    9.30
   4   4  -8   43.60    9.60
   4   4  -8   47.70   10.30
   4   4  -8   39.10    7.50
   4   4  -8   29.80    8.30
   4   4  -8   45.40   12.40
  -5  -4   8  444.36   23.70
  -5  -4   8  419.26   23.00
  -5  -4   8  440.46   25.10
  -5  -4   8  416.56   29.00
   5   4  -8  383.56   28.20
   5   4  -8  422.16   23.50
   5   4  -8  419.16   30.30
   5   4  -8  442.86   22.90
   5   4  -8  492.75   31.50
  -6  -4   8  193.98   18.60
  -6  -4   8  180.38   20.50
  -6  -4   8  187.58   18.50
   6   4  -8  170.18   15.30
   6   4  -8  165.28   15.60
   6   4  -8  156.18   16.60
   7  -3   7   28.10   18.40
   7  -3   7   -2.40   17.30
  -7   3  -7   45.50   19.20
  -7   3  -7   -5.40   16.80
   6  -3   7   19.60   12.50
   6  -3   7  -19.50   14.40
   6  -3   7   16.90   14.90
   6  -3   7    1.00   14.90
  -6   3  -7   -0.30   15.00
  -6   3  -7   27.40   15.10
  -6   3  -7  -12.20   10.40
  -6   3  -7   -5.30   15.00
   5  -3   7   41.30   11.80
   5  -3   7   68.99   13.90
   5  -3   7   87.09   11.70
   5  -3   7   67.59   11.60
  -5   3  -7   62.09   10.90
  -5   3  -7   63.39   10.20
  -5   3  -7   51.99   11.80
  -5   3  -7   78.09   13.20
   4  -3   7  380.76   23.50
   4  -3   7  386.36   25.80
   4  -3   7  443.16   24.00
   4  -3   7  389.56   22.50
  -4   3  -7  412.46   22.20
  -4   3  -7  448.96   24.10
  -4   3  -7  384.76   23.70
  -4   3  -7  411.56   25.30
   3  -3   7  162.68   17.10
   3  -3   7  105.59   12.60
   3  -3   7  158.88   13.20
   3  -3   7  130.29   12.40
  -3   3  -7  129.19    7.70
  -3   3  -7  148.99   14.60
  -3   3  -7  139.09   12.90
  -3   3  -7  128.49   11.20
  -3   3  -7  135.69   11.80
   2  -3   7  123.69   11.20
   2  -3   7  103.89   11.70
   2  -3   7  110.39   11.80
   2  -3   7  120.89   10.80
   2  -3   7  122.09   10.70
  -2   3  -7  121.59    7.70
  -2   3  -7  104.39   12.70
  -2   3  -7  118.79   10.90
  -2   3  -7  120.79   11.10
  -2   3  -7  115.39   10.90
   1  -3   7  381.86   19.40
   1  -3   7  426.06   20.80
   1  -3   7  404.86   20.70
   1  -3   7  404.56   23.00
  -1   3  -7  393.46   19.50
  -1   3  -7  404.86   22.00
  -1   3  -7  409.76   20.70
  -1   3  -7  407.36   18.10
  -1   3  -7  389.66   19.90
   0  -3   7 1270.67   52.99
   0  -3   7 1244.18   54.79
   0  -3   7 1328.17   52.89
   0  -3   7 1337.37   55.49
   0  -3   7 1277.67   54.19
   0   3  -7 1239.08   54.69
   0   3  -7 1301.87   53.09
   0   3  -7 1292.37   55.29
   0   3  -7 1351.26   53.09
  -1  -3   7   39.30   12.30
  -1  -3   7   54.09    6.10
  -1  -3   7   63.79    7.70
  -1  -3   7   45.30    6.90
  -1  -3   7   49.00    5.70
   1   3  -7   51.19    6.50
   1   3  -7   49.20    7.50
   1   3  -7   57.69    6.00
   1   3  -7   49.30    7.70
  -2  -3   7  420.76   18.90
  -2  -3   7  405.56   20.80
  -2  -3   7  438.16   19.00
  -2  -3   7  430.16   21.00
  -2  -3   7  375.36   20.80
   2   3  -7  416.86   21.00
   2   3  -7  413.16   21.10
   2   3  -7  403.26   20.80
   2   3  -7  410.86   18.90
   2   3  -7  395.86   19.00
  -3  -3   7   55.49    6.60
  -3  -3   7   47.40    6.30
  -3  -3   7   48.40    6.40
  -3  -3   7   53.09    8.80
  -3  -3   7   65.59   10.30
   3   3  -7   57.59    7.00
   3   3  -7   55.69    8.60
   3   3  -7   69.49    6.90
   3   3  -7   54.49    6.80
   3   3  -7   51.99   10.50
  -4  -3   7  408.36   23.10
  -4  -3   7  362.46   21.60
  -4  -3   7  410.06   19.40
  -4  -3   7  390.16   19.30
   4   3  -7  401.96   23.60
   4   3  -7  383.26   22.60
   4   3  -7  404.66   21.60
   4   3  -7  385.06   19.50
   4   3  -7  390.96   19.30
  -5  -3   7    4.00    7.00
  -5  -3   7   13.20    9.10
  -5  -3   7   -7.70   11.10
   5   3  -7   11.60    7.40
   5   3  -7   16.70    6.80
   5   3  -7    1.70   10.50
   5   3  -7  -19.10   10.30
  -6  -3   7   43.50   10.40
  -6  -3   7   39.20    9.80
  -6  -3   7    3.10   13.80
   6   3  -7   17.80   10.10
   6   3  -7   21.30   14.90
   6   3  -7   34.80    9.90
   6   3  -7   30.40    9.40
  -7  -3   7   49.40   16.60
  -7  -3   7   36.10   13.70
  -7  -3   7   69.79   13.20
   7   3  -7   61.39   12.60
   7   3  -7   80.19   13.10
   7   3  -7   53.39   16.40
   7  -2   6   65.19   16.90
  -7   2  -6   89.19   16.90
  -7   2  -6   98.79   16.00
  -7   2  -6   38.20   29.40
  -7   2  -6  103.29   15.30
   6  -2   6  260.67   23.60
   6  -2   6  255.97   22.10
   6  -2   6  282.07   25.30
   6  -2   6  266.77   19.10
  -6   2  -6  259.17   22.40
  -6   2  -6  278.17   18.80
  -6   2  -6  226.98   22.10
  -6   2  -6  270.97   25.20
   5  -2   6  221.48   15.50
   5  -2   6  235.68   18.30
   5  -2   6  241.08   20.00
   5  -2   6  220.68   19.00
  -5   2  -6  214.38   18.20
  -5   2  -6  215.88   18.40
  -5   2  -6  195.98   17.40
  -5   2  -6  247.38   20.80
   4  -2   6  502.35   25.10
   4  -2   6  499.85   26.90
   4  -2   6  526.45   27.10
   4  -2   6  527.85   26.00
  -4   2  -6  515.65   24.80
  -4   2  -6  533.55   26.20
  -4   2  -6  509.15   25.20
  -4   2  -6  531.55   29.00
   3  -2   6  638.94   29.60
   3  -2   6  690.43   32.90
   3  -2   6  698.23   31.60
   3  -2   6  653.23   29.70
  -3   2  -6  677.83   30.60
  -3   2  -6  699.03   30.50
  -3   2  -6  663.33   30.50
  -3   2  -6  635.84   33.00
   2  -2   6  275.77   17.00
   2  -2   6  297.17   15.60
   2  -2   6  309.07   18.10
   2  -2   6  321.17   15.50
  -2   2  -6  290.87   15.60
  -2   2  -6  278.47   18.40
  -2   2  -6  299.57   16.00
  -2   2  -6  294.77   15.40
   1  -2   6 1254.17   51.49
   1  -2   6 1275.97   51.39
   1  -2   6 1274.57   51.69
   1  -2   6 1260.27   52.49
   1  -2   6 1308.07   59.79
  -1   2  -6 1207.48   52.29
  -1   2  -6 1291.77   50.69
  -1   2  -6 1286.37   53.99
  -1   2  -6 1256.77   51.39
  -1   2  -6 1247.48   51.49
   0  -2   6 1448.85   60.59
   0  -2   6 1525.25   61.39
   0  -2   6 1510.85   60.29
   0  -2   6 1463.95   59.19
   0  -2   6 1494.25   59.29
   0   2  -6 1399.86   59.19
   0   2  -6 1519.45   59.39
   0   2  -6 1489.25   59.49
   0   2  -6 1497.95   61.49
  -1  -2   6  716.03   30.50
  -1  -2   6  708.53   28.40
  -1  -2   6  693.83   28.40
  -1  -2   6  691.33   29.70
  -1  -2   6  690.63   30.00
   1   2  -6  690.03   30.70
   1   2  -6  660.73   28.50
   1   2  -6  671.73   28.60
   1   2  -6  685.83   30.40
   1   2  -6  712.23   30.00
  -2  -2   6  266.57   14.30
  -2  -2   6  303.17   13.30
  -2  -2   6  276.27   12.80
  -2  -2   6  274.47   14.20
  -2  -2   6  278.87   16.10
  -2  -2   6  273.47   14.90
   2   2  -6  281.07   16.00
   2   2  -6  276.27   12.90
   2   2  -6  270.47   14.60
   2   2  -6  270.87   14.70
  -3  -2   6  296.37   17.90
  -3  -2   6  300.97   15.90
  -3  -2   6  305.17   14.20
  -3  -2   6  287.97   13.90
  -3  -2   6  294.67   17.60
   3   2  -6  288.67   17.80
   3   2  -6  321.97   16.90
   3   2  -6  305.17   14.70
   3   2  -6  283.77   17.10
   3   2  -6  301.07   14.40
   3   2  -6  315.87   14.30
  -4  -2   6  231.88   12.40
  -4  -2   6  236.28   12.70
  -4  -2   6  218.28   16.20
  -4  -2   6  210.18   14.50
   4   2  -6  220.58   12.80
   4   2  -6  211.68   16.60
   4   2  -6  225.88   12.50
   4   2  -6  212.08   15.80
  -5  -2   6  579.94   25.60
  -5  -2   6  570.04   25.70
  -5  -2   6  526.15   28.80
   5   2  -6  545.55   28.60
   5   2  -6  578.44   25.70
   5   2  -6  570.64   29.40
   5   2  -6  543.95   26.00
  -6  -2   6  549.05   31.10
  -6  -2   6  550.64   27.50
  -6  -2   6  554.14   27.30
   6   2  -6  603.24   28.30
   6   2  -6  582.34   31.40
   6   2  -6  571.14   27.60
   6   2  -6  586.24   29.40
  -7  -2   6  174.08   17.70
  -7  -2   6  199.88   18.80
  -7  -2   6  187.48   18.80
   7   2  -6  178.88   17.90
   7   2  -6  198.58   18.50
   7   2  -6  175.88   20.30
   7   2  -6  176.58   18.20
   8  -1   5   86.09   15.80
   8  -1   5   72.79   12.70
   8  -1   5   79.19   14.50
  -8   1  -5   61.99   17.30
  -8   1  -5   95.59   15.80
   7  -1   5   21.30   14.40
   7  -1   5   21.30   13.30
  -7   1  -5   22.90   11.40
  -7   1  -5   18.90   14.90
  -7   1  -5   31.50   13.20
   6  -1   5  318.67   19.00
   6  -1   5  342.87   22.50
   6  -1   5  261.37   21.20
  -6   1  -5  306.77   20.50
  -6   1  -5  303.07   21.80
  -6   1  -5  318.17   22.10
  -6   1  -5  340.57   23.50
   5  -1   5 1460.55   62.29
   5  -1   5 1489.85   63.69
   5  -1   5 1487.55   62.69
   5  -1   5 1355.46   61.29
  -5   1  -5 1521.75   62.89
  -5   1  -5 1507.65   64.29
  -5   1  -5 1471.85   61.49
  -5   1  -5 1576.14   63.19
   4  -1   5  230.68   14.50
   4  -1   5  232.98   14.80
   4  -1   5  224.08   16.50
   4  -1   5  213.18   14.90
  -4   1  -5  199.98   15.10
  -4   1  -5  217.18   13.30
  -4   1  -5  251.67   14.40
  -4   1  -5  220.98   16.90
   3  -1   5 1198.68   52.49
   3  -1   5 1321.17   53.19
   3  -1   5 1304.47   52.59
   3  -1   5 1291.97   53.89
  -3   1  -5 1281.17   54.49
  -3   1  -5 1314.87   52.39
  -3   1  -5 1323.67   52.69
  -3   1  -5 1167.48   52.29
   2  -1   5  293.57   13.70
   2  -1   5  288.47   14.70
   2  -1   5  303.17   16.50
   2  -1   5  274.27   14.00
  -2   1  -5  288.57   13.80
  -2   1  -5  277.47   14.20
  -2   1  -5  295.47   13.80
  -2   1  -5  271.57   16.40
   1  -1   5 3949.60  154.48
   1  -1   5 4101.19  155.58
   1  -1   5 3763.32  154.48
   1  -1   5 4033.30  156.28
   1  -1   5 3993.40  153.48
   1  -1   5 3974.30  154.48
  -1   1  -5 3960.10  155.38
  -1   1  -5 4013.40  156.38
  -1   1  -5 3734.73  154.48
  -1   1  -5 4027.00  154.48
   0  -1   5 3310.27  136.69
   0  -1   5 3513.45  135.49
   0  -1   5 3642.44  137.39
   0  -1   5 3381.36  135.49
   0  -1   5 3556.44  136.29
   0  -1   5 3680.73  135.69
   0   1  -5 3370.86  136.79
   0   1  -5 3241.88  135.49
   0   1  -5 3466.65  136.29
   0   1  -5 3593.64  136.19
   0   1  -5 3453.95  135.49
   0   1  -5 3528.55  137.39
  -1  -1   5 3207.28  127.79
  -1  -1   5 3468.15  128.99
  -1  -1   5 3342.17  129.39
  -1  -1   5 3361.76  129.29
  -1  -1   5 3156.28  129.19
   1   1  -5 3311.87  129.39
   1   1  -5 3225.18  127.89
   1   1  -5 3080.09  127.89
   1   1  -5 3273.57  129.59
   1   1  -5 3380.06  129.19
   1   1  -5 3370.56  129.29
  -2  -1   5  105.79    5.60
  -2  -1   5  105.69    9.00
  -2  -1   5  104.59    7.50
  -2  -1   5   96.99    7.80
   2   1  -5  108.09    5.70
   2   1  -5  106.29    7.80
   2   1  -5  106.49    5.90
   2   1  -5   89.89    7.20
   2   1  -5   98.09    7.10
   2   1  -5  109.19    9.30
  -3  -1   5 1373.96   55.59
  -3  -1   5 1359.16   53.79
  -3  -1   5 1347.37   53.79
  -3  -1   5 1315.17   55.59
   3   1  -5 1334.47   53.89
   3   1  -5 1402.06   55.39
   3   1  -5 1368.26   55.69
   3   1  -5 1333.67   53.89
   3   1  -5 1335.67   53.19
  -4  -1   5  414.66   18.30
  -4  -1   5  397.66   21.20
  -4  -1   5  442.16   18.50
  -4  -1   5  385.76   19.70
   4   1  -5  369.66   19.50
   4   1  -5  385.36   18.50
   4   1  -5  398.06   18.10
   4   1  -5  379.36   20.00
  -5  -1   5    6.30    6.00
  -5  -1   5    9.00    6.60
  -5  -1   5    3.70    5.70
   5   1  -5    0.70    5.40
   5   1  -5   13.10    8.90
   5   1  -5    4.30    7.70
   5   1  -5    7.00    5.20
  -6  -1   5   96.99   10.70
  -6  -1   5   96.79   13.30
   6   1  -5  102.49   10.20
   6   1  -5   91.09   10.40
   6   1  -5  100.19   13.00
   6   1  -5   87.89   12.80
  -7  -1   5  100.69   15.70
  -7  -1   5  101.69   13.20
   7   1  -5  101.69   16.30
   7   1  -5  107.59   12.80
   7   1  -5  117.69   15.70
  -8  -1   5  108.29   20.00
  -8  -1   5  128.89   17.20
   8   1  -5  115.59   16.20
   8   1  -5  152.58   17.00
   8   1  -5  142.79   16.80
   8   0   4    6.90    9.50
   8   0   4   -8.60   13.80
   8   0   4   -1.30   15.90
   8   0   4  -14.70   12.80
  -8   0  -4   -4.40   11.70
  -8   0  -4   33.20   16.90
  -8   0  -4   -1.80   14.90
   7   0   4   -4.20    7.90
   7   0   4    5.60    7.00
   7   0   4   29.60   10.10
   7   0   4   22.60   13.20
  -7   0  -4   24.30   10.30
  -7   0  -4   11.60   12.80
  -7   0  -4    7.10    9.50
  -7   0  -4   14.30    8.30
   6   0   4  188.88   14.70
   6   0   4  204.78   16.30
   6   0   4  181.48   16.70
  -6   0  -4  218.48   17.30
  -6   0  -4  201.18   16.30
  -6   0  -4  180.68   14.60
  -6   0  -4  207.68   17.40
   5   0   4  838.42   37.80
   5   0   4  891.81   39.30
   5   0   4  931.81   39.30
  -5   0  -4  798.32   40.60
  -5   0  -4  866.81   39.30
  -5   0  -4  932.21   40.10
   4   0   4    8.00    4.50
   4   0   4   12.00    4.40
   4   0   4    7.00    5.90
  -4   0  -4    2.60    5.90
  -4   0  -4   11.80    5.90
  -4   0  -4    8.00    6.10
  -4   0  -4   12.10    6.50
   3   0   4 3039.80  116.49
   3   0   4 2860.91  116.39
   3   0   4 2904.31  115.89
  -3   0  -4 3016.20  116.49
  -3   0  -4 2817.22  115.79
  -3   0  -4 3019.50  116.59
  -3   0  -4 2944.31  117.59
   2   0   4  166.88    9.70
   2   0   4  176.08    8.90
  -2   0  -4  166.78   10.20
  -2   0  -4  173.08    9.50
  -2   0  -4  178.28    9.00
  -2   0  -4  165.08    8.90
   1   0   4  227.48   10.20
   1   0   4  235.98   10.70
   1   0   4  228.98   11.30
   1   0   4  239.88   10.70
   1   0   4  241.38   10.10
  -1   0  -4  218.08   12.60
  -1   0  -4  224.48   10.60
  -1   0  -4  242.18   10.70
  -1   0  -4  247.28   12.00
   0   0   4 2330.07   84.19
   0   0   4 2022.10   83.39
   0   0   4 2083.09   84.19
   0   0   4 2188.48   84.59
   0   0  -4 2040.00   83.49
   0   0  -4 2190.68   84.49
   0   0  -4 2103.79   83.49
   0   0  -4 2217.98   84.69
   0   0  -4 2182.38   84.19
   0   0  -4 2111.09   85.09
  -1   0   4  865.41   35.10
  -1   0   4  900.31   35.10
   1   0  -4  770.62   33.40
   1   0  -4  886.21   35.10
   1   0  -4  877.61   34.90
   1   0  -4  855.21   34.90
   1   0  -4  887.41   35.30
   1   0  -4  840.72   33.40
  -2   0   4  139.99    9.00
  -2   0   4  134.79    9.10
   2   0  -4  123.69    6.30
   2   0  -4  131.99    8.20
   2   0  -4  116.39    6.20
   2   0  -4  128.49    8.00
   2   0  -4  132.39    6.80
   2   0  -4  132.69    8.20
  -3   0   4  317.07   16.40
  -3   0   4  340.67   16.40
  -3   0   4  324.17   14.30
  -3   0   4  338.57   14.30
  -3   0   4  314.67   15.30
   3   0  -4  319.67   14.50
   3   0  -4  305.27   15.70
   3   0  -4  309.77   15.30
   3   0  -4  322.37   13.10
   3   0  -4  316.17   13.00
   3   0  -4  307.27   14.30
  -4   0   4  122.39   10.00
  -4   0   4  125.19   11.30
  -4   0   4  125.89   11.00
  -4   0   4  126.79    9.80
  -4   0   4  128.09    8.70
   4   0  -4  118.49    8.40
   4   0  -4  107.99   10.50
   4   0  -4  131.49    8.80
   4   0  -4  143.49   11.10
  -5   0   4   11.00    5.80
  -5   0   4   15.80    8.50
  -5   0   4   11.90    5.50
  -5   0   4   12.80    7.70
  -5   0   4   21.80    7.70
   5   0  -4    8.80    7.40
   5   0  -4    9.50    5.80
   5   0  -4   11.70    6.10
   5   0  -4    1.60    5.00
  -6   0   4   41.70    8.10
  -6   0   4   59.49   10.70
  -6   0   4   46.20    8.80
  -6   0   4   37.20    8.80
  -6   0   4   45.50   10.90
   6   0  -4   29.70    8.10
   6   0  -4   43.00    8.30
   6   0  -4   47.90    8.60
   6   0  -4   42.10    8.20
  -7   0   4  127.99   13.60
  -7   0   4  122.69   13.80
  -7   0   4  130.09   14.00
  -7   0   4  128.49   13.60
   7   0  -4  127.69   13.30
   7   0  -4  119.19   15.40
   7   0  -4  117.09   13.10
   7   0  -4  121.49   15.20
  -8   0   4   59.19   14.40
  -8   0   4   43.70   15.90
   8   0  -4   77.59   15.00
   8   0  -4   54.79   16.20
   8   0  -4  108.29   15.90
   8   1   3   -9.90   13.70
   8   1   3   15.20   14.90
   8   1   3    4.40    9.40
   8   1   3   13.50   12.30
  -8  -1  -3  -20.50   10.20
  -8  -1  -3   19.30   15.00
  -8  -1  -3   -0.50   10.30
   7   1   3   12.00    7.60
   7   1   3   10.80    7.70
   7   1   3   -0.40    7.90
   7   1   3   13.90   11.20
  -7  -1  -3   11.80    8.50
  -7  -1  -3    5.20    8.40
  -7  -1  -3   -6.00    8.30
  -7  -1  -3   22.80    9.80
   6   1   3   46.20    8.70
   6   1   3   43.10    6.60
   6   1   3   65.79    8.20
   6   1   3   55.19    9.20
  -6  -1  -3   52.39    8.90
  -6  -1  -3   62.49    9.20
  -6  -1  -3   54.79    9.70
  -6  -1  -3   48.80    8.50
   5   1   3  146.29   12.20
   5   1   3  150.28   11.20
   5   1   3  121.29    9.90
   5   1   3  143.99    8.90
  -5  -1  -3  145.79   10.10
  -5  -1  -3  127.09   11.90
  -5  -1  -3  136.89   11.10
   4   1   3 1014.30   41.60
   4   1   3 1042.30   43.10
   4   1   3 1095.39   45.50
   4   1   3  979.70   43.40
  -4  -1  -3 1057.49   44.00
  -4  -1  -3 1045.30   43.90
  -4  -1  -3 1033.90   42.70
  -4  -1  -3 1042.10   43.90
   3   1   3  976.10   41.10
   3   1   3 1042.30   41.50
   3   1   3 1019.30   40.60
   3   1   3  958.30   39.40
  -3  -1  -3  983.20   41.80
  -3  -1  -3 1030.00   40.60
  -3  -1  -3 1001.90   41.40
  -3  -1  -3  982.90   41.20
   2   1   3    6.10    2.60
   2   1   3    1.80    3.50
   2   1   3    8.20    2.70
  -2  -1  -3    9.40    2.30
  -2  -1  -3    7.90    2.90
  -2  -1  -3   12.80    3.00
   1   1   3   40.70    4.30
   1   1   3   43.50    3.50
   1   1   3   40.00    3.60
  -1  -1  -3   41.50    4.00
  -1  -1  -3   41.00    2.70
  -1  -1  -3   38.00    4.00
   0   1   3 1973.20   79.19
   0   1   3 1963.50   79.59
   0   1   3 2248.77   79.99
   0  -1  -3 2057.79   79.59
   0  -1  -3 2024.10   79.29
   0  -1  -3 1963.40   79.29
   0  -1  -3 2017.40   78.99
  -1   1   3 2373.56   92.19
  -1   1   3 2397.36   92.59
   1  -1  -3 2411.26   93.19
   1  -1  -3 2292.47   92.19
   1  -1  -3 2381.86   92.59
   1  -1  -3 2359.96   92.29
  -2   1   3 3490.25  131.09
  -2   1   3 3420.16  131.39
  -2   1   3 3377.76  131.39
  -2   1   3 3270.57  130.49
  -2   1   3 3348.26  130.49
   2  -1  -3 3259.97  130.99
   2  -1  -3 3181.68  130.49
   2  -1  -3 3401.96  131.39
   2  -1  -3 3374.86  130.59
  -3   1   3 5365.16  208.18
  -3   1   3 5025.80  207.28
  -3   1   3 5278.77  208.08
  -3   1   3 5812.22  208.18
   3  -1  -3 4999.90  207.38
   3  -1  -3 5360.36  207.98
   3  -1  -3 5242.68  207.08
   3  -1  -3 5480.55  207.48
  -4   1   3  606.24   25.20
  -4   1   3  560.64   26.10
  -4   1   3  586.94   26.10
  -4   1   3  571.24   25.30
  -4   1   3  550.24   25.40
   4  -1  -3  564.14   25.30
   4  -1  -3  544.55   25.30
   4  -1  -3  570.24   24.00
   4  -1  -3  575.64   26.20
  -5   1   3  257.17   15.50
  -5   1   3  269.87   15.90
  -5   1   3  263.57   17.00
  -5   1   3  315.27   17.60
  -5   1   3  285.07   15.70
   5  -1  -3  285.27   16.00
   5  -1  -3  292.07   16.30
   5  -1  -3  261.57   15.50
   5  -1  -3  293.27   13.20
  -6   1   3  563.04   28.10
  -6   1   3  590.74   29.50
  -6   1   3  550.34   28.50
  -6   1   3  522.55   27.80
  -6   1   3  575.24   27.70
   6  -1  -3  603.44   28.10
   6  -1  -3  606.94   28.20
   6  -1  -3  560.44   27.60
   6  -1  -3  550.94   27.90
  -7   1   3  173.58   16.80
  -7   1   3  239.18   21.80
  -7   1   3  217.48   18.10
  -7   1   3  205.28   18.90
  -7   1   3  174.98   17.50
   7  -1  -3  205.98   20.60
   7  -1  -3  213.68   20.50
   7  -1  -3  210.18   18.50
  -8   1   3  114.19   17.50
  -8   1   3  120.79   17.00
   8  -1  -3  138.79   18.00
   8  -1  -3  146.39   23.30
   8  -1  -3  112.39   17.90
   8  -1  -3  150.18   18.50
   8   2   2  362.46   28.40
   8   2   2  322.77   22.30
   8   2   2  336.57   21.20
   8   2   2  313.87   23.20
  -8  -2  -2  332.77   27.70
  -8  -2  -2  355.96   27.30
  -8  -2  -2  328.97   27.00
  -8  -2  -2  349.07   23.10
   7   2   2  -11.60   10.30
   7   2   2    7.90   10.60
   7   2   2   -0.30    8.90
   7   2   2    1.60    6.90
  -7  -2  -2   -4.90   10.50
  -7  -2  -2    8.60    7.30
  -7  -2  -2    3.90    9.40
  -7  -2  -2   -3.10   11.60
   6   2   2 1877.11   76.49
   6   2   2 1786.92   78.39
   6   2   2 1946.81   78.19
   6   2   2 1909.91   78.99
  -6  -2  -2 1877.11   78.89
  -6  -2  -2 1861.11   77.79
  -6  -2  -2 1926.21   78.49
  -6  -2  -2 2026.70   78.39
   5   2   2  105.69   10.90
   5   2   2  120.99   11.30
   5   2   2  115.59    9.20
   5   2   2  110.59    8.90
  -5  -2  -2  113.29   11.00
  -5  -2  -2  118.99   11.60
  -5  -2  -2  130.99    9.30
  -5  -2  -2  111.89   10.00
   4   2   2 6969.40  267.67
   4   2   2 7158.68  266.97
   4   2   2 6601.14  266.07
   4   2   2 6834.92  267.67
  -4  -2  -2 6817.52  267.57
  -4  -2  -2 6677.93  266.77
   3   2   2 2235.78   88.69
   3   2   2 2247.18   89.59
   3   2   2 2413.96   89.69
   3   2   2 2190.98   88.09
  -3  -2  -2 2269.47   89.59
  -3  -2  -2 2191.88   89.39
  -3  -2  -2 2358.76   88.79
  -3  -2  -2 2092.19   88.09
   2   2   2 2081.99   78.29
   2   2   2 2028.40   79.19
   2   2   2 2009.70   79.09
  -2  -2  -2 1755.22   78.39
  -2  -2  -2 2109.19   79.19
   1   2   2   23.40    3.70
  -1  -2  -2   15.40    3.60
  -1  -2  -2   17.90    3.00
   0   2   2  133.59    7.30
   0   2   2  143.89    7.70
   0   2   2  137.59    7.40
   0   2   2  143.79    6.50
   0  -2  -2  146.39    7.20
   0  -2  -2  143.29    7.50
  -1   2   2  104.69    5.80
  -1   2   2  103.39    6.40
  -1   2   2   92.59    6.10
  -1   2   2  107.09    6.20
   1  -2  -2   87.99    6.20
   1  -2  -2   98.69    6.30
   1  -2  -2   92.59    6.20
   1  -2  -2  100.39    5.90
  -2   2   2 2079.79   81.19
  -2   2   2 2129.39   81.49
  -2   2   2 1952.00   80.99
  -2   2   2 2073.59   81.29
  -2   2   2 2179.68   81.29
   2  -2  -2 1977.20   81.19
   2  -2  -2 2086.89   81.09
   2  -2  -2 1929.51   81.09
   2  -2  -2 2109.89   81.89
   2  -2  -2 2018.30   81.19
  -3   2   2 3129.79  116.19
  -3   2   2 2971.90  116.09
  -3   2   2 3040.60  116.29
  -3   2   2 2888.91  115.79
  -3   2   2 2937.81  116.19
   3  -2  -2 2954.30  116.29
   3  -2  -2 2750.42  116.09
   3  -2  -2 3098.99  116.29
   3  -2  -2 2699.03  116.09
  -4   2   2   12.20    4.80
  -4   2   2   -5.80    5.20
  -4   2   2    5.60    5.60
  -4   2   2    8.10    5.60
  -4   2   2   11.00    5.50
   4  -2  -2    3.20    5.70
   4  -2  -2    7.80    5.40
   4  -2  -2    4.60    4.90
   4  -2  -2    8.20    4.20
  -5   2   2   96.69    9.80
  -5   2   2  103.19   10.60
  -5   2   2  103.69   10.00
  -5   2   2   86.59    9.80
  -5   2   2   88.99    9.70
   5  -2  -2   94.59   10.40
   5  -2  -2   94.69    9.70
   5  -2  -2  106.49    9.80
   5  -2  -2   91.39    9.30
  -6   2   2   38.60    9.40
  -6   2   2   39.30    9.90
  -6   2   2   30.70    9.00
  -6   2   2   31.60    8.70
  -6   2   2   37.60    8.70
   6  -2  -2   37.00    8.20
   6  -2  -2   52.79    9.90
   6  -2  -2   37.40   10.20
   6  -2  -2   26.20    6.20
  -7   2   2  250.97   19.80
  -7   2   2  213.38   17.80
  -7   2   2  257.67   21.60
  -7   2   2  303.77   24.20
  -7   2   2  220.38   17.70
   7  -2  -2  248.48   19.00
   7  -2  -2  261.57   20.90
   7  -2  -2  253.27   20.60
   7  -2  -2  252.57   16.70
  -8   2   2   38.30   15.50
   8  -2  -2   29.20   12.60
   8  -2  -2   44.60   15.60
   8  -2  -2   75.89   17.10
   8   3   1   11.20   15.70
   8   3   1   33.80   14.80
   8   3   1   24.00   11.00
   8   3   1   32.70   12.40
  -8  -3  -1   24.10    8.50
  -8  -3  -1   30.00   15.60
   7   3   1  101.49   12.70
   7   3   1   82.29   10.90
   7   3   1   84.79   12.20
   7   3   1   75.39   12.30
  -7  -3  -1   95.19   14.20
  -7  -3  -1   98.29   11.90
  -7  -3  -1   96.09   11.70
   6   3   1  216.58   17.00
   6   3   1  199.68   15.40
   6   3   1  206.48   14.50
   6   3   1  195.88   17.00
  -6  -3  -1  202.58   13.90
  -6  -3  -1  195.58   14.60
  -6  -3  -1  220.38   17.50
   5   3   1   12.80    6.60
   5   3   1    7.70    5.50
   5   3   1   13.30    5.30
   5   3   1    8.60    6.10
  -5  -3  -1   10.30    7.40
   4   3   1   -0.80    4.30
   4   3   1    4.30    4.80
   4   3   1    9.20    5.10
   4   3   1    4.10    4.30
  -4  -3  -1    3.50    4.60
  -4  -3  -1    2.50    5.90
   3   3   1  692.83   29.80
   3   3   1  696.73   29.40
   3   3   1  678.03   28.80
  -3  -3  -1  630.04   29.20
  -3  -3  -1  709.23   29.90
  -3  -3  -1  688.83   28.70
   2   3   1  551.04   23.80
  -2  -3  -1  528.75   22.90
  -2  -3  -1  517.95   23.70
  -2  -3  -1  562.94   23.90
   1   3   1 6074.89  227.68
   1   3   1 5815.72  227.58
  -1  -3  -1 6274.07  227.78
  -1  -3  -1 5183.78  227.48
   0   3   1  940.81   39.00
   0   3   1  978.30   37.50
   0   3   1  950.40   39.10
   0  -3  -1  994.00   40.00
   0  -3  -1  912.71   39.10
   0  -3  -1  947.91   39.00
  -1   3   1 6377.36  243.38
  -1   3   1 6456.05  242.88
  -1   3   1 5773.32  243.18
  -1   3   1 5999.10  242.98
   1  -3  -1 6411.06  243.38
   1  -3  -1 6460.95  244.38
   1  -3  -1 6214.08  243.38
  -2   3   1 2082.69   79.39
  -2   3   1 2098.99   79.29
  -2   3   1 1928.71   78.79
  -2   3   1 1802.62   78.59
   2  -3  -1 1931.41   77.89
   2  -3  -1 1959.30   79.29
   2  -3  -1 2025.90   78.99
   2  -3  -1 2003.00   79.99
   2  -3  -1 2003.30   79.29
  -3   3   1 3334.17  133.39
  -3   3   1 3563.64  132.79
  -3   3   1 3444.96  136.79
  -3   3   1 3365.56  132.69
  -3   3   1 3177.28  131.09
  -3   3   1 3291.07  131.89
   3  -3  -1 3444.46  133.39
   3  -3  -1 3211.38  132.19
   3  -3  -1 3425.86  132.59
   3  -3  -1 3252.47  132.59
  -4   3   1   44.80    7.60
  -4   3   1   51.09    6.30
  -4   3   1   59.99    6.90
  -4   3   1   49.00    7.60
  -4   3   1   50.19    8.00
  -4   3   1   61.19    8.60
   4  -3  -1   48.40    6.80
   4  -3  -1   55.19    7.40
   4  -3  -1   50.39    7.50
   4  -3  -1   45.80    8.10
  -5   3   1  241.48   16.40
  -5   3   1  245.38   16.30
  -5   3   1  237.78   14.30
  -5   3   1  222.68   14.80
  -5   3   1  222.08   14.50
  -5   3   1  217.18   14.10
   5  -3  -1  252.27   15.70
   5  -3  -1  194.68   14.50
   5  -3  -1  212.38   16.20
   5  -3  -1  212.58   16.10
  -6   3   1  205.28   15.10
  -6   3   1  211.18   18.90
  -6   3   1  209.68   19.20
  -6   3   1  200.28   17.30
  -6   3   1  204.28   15.70
   6  -3  -1  199.28   16.70
   6  -3  -1  193.88   16.00
   6  -3  -1  205.48   17.30
   6  -3  -1  220.78   18.10
  -7   3   1   -0.80    9.30
  -7   3   1   29.50   13.70
  -7   3   1    4.60   13.90
  -7   3   1    7.50   10.30
  -7   3   1    9.70    9.50
   7  -3  -1   -1.40    8.60
   7  -3  -1    8.80   12.30
   7  -3  -1    7.30   14.10
   7  -3  -1   21.40    9.40
  -8   3   1    1.30   15.70
  -8   3   1   20.50   10.90
  -8   3   1   15.80   13.70
   8  -3  -1  -17.00   11.70
   8  -3  -1  -31.60   16.80
   8  -3  -1  -20.10   12.90
   8  -3  -1    0.30   16.90
   8   4   0   69.49   16.00
   8   4   0   82.19   18.40
   8   4   0   52.99   16.60
   8   4   0   64.99   14.70
  -8  -4   0   57.19   16.40
  -8  -4   0   53.69    8.20
   7   4   0   34.50   12.30
   7   4   0   35.30   10.40
   7   4   0   45.20   13.70
   7   4   0   51.99   13.10
  -7  -4   0   44.80   13.80
  -7  -4   0   44.50    7.30
  -7  -4   0   57.89   14.60
   6   4   0   -3.90    8.90
   6   4   0   20.30    6.90
   6   4   0    1.30    7.70
   6   4   0   15.30    8.00
  -6  -4   0   12.00    9.50
  -6  -4   0   21.70    7.80
   5   4   0   11.10    6.30
   5   4   0   19.40    7.00
   5   4   0   10.10    6.80
   5   4   0    4.40    6.70
  -5  -4   0   19.10    8.60
  -5  -4   0    8.90    7.30
  -5  -4   0   15.40    8.50
   4   4   0   -1.80    5.80
   4   4   0   -6.80    5.10
   4   4   0   -2.90    5.70
  -4  -4   0   -8.70    4.80
  -4  -4   0    0.30    5.70
  -4  -4   0    1.10    5.10
   3   4   0  365.86   17.90
   3   4   0  352.96   17.80
   3   4   0  383.96   18.90
  -3  -4   0  364.56   18.00
  -3  -4   0  388.36   18.90
  -3  -4   0  346.67   17.90
   2   4   0 1721.33   67.19
   2   4   0 1585.94   67.09
  -2  -4   0 1684.43   67.39
  -2  -4   0 1676.93   67.89
  -2  -4   0 1714.23   67.49
  -2  -4   0 1575.14   66.89
   1   4   0   10.50    5.20
   1   4   0    6.50    3.20
   1   4   0    5.70    3.70
  -1  -4   0    5.00    3.60
  -1  -4   0   12.50    5.20
  -1  -4   0    8.10    5.10
   0   4   0  486.55   22.60
   0   4   0  453.85   22.80
   0   4   0  504.25   21.20
   0  -4   0  532.45   24.60
   0  -4   0  537.15   23.20
   0  -4   0  528.15   22.70
  -1   4   0  788.62   34.80
  -1   4   0  853.51   34.70
  -1   4   0  899.41   34.50
  -1   4   0  759.22   35.10
   1  -4   0  834.72   35.30
   1  -4   0  779.62   33.40
   1  -4   0  832.62   36.70
   1  -4   0  832.92   35.20
  -2   4   0  363.36   20.00
  -2   4   0  381.66   20.00
  -2   4   0  412.46   17.80
  -2   4   0  377.46   18.50
  -2   4   0  386.36   19.60
   2  -4   0  374.36   16.00
   2  -4   0  371.66   17.20
   2  -4   0  358.26   18.40
   2  -4   0  398.06   19.20
   2  -4   0  391.86   20.70
  -3   4   0   20.40    6.10
  -3   4   0   33.80    7.50
  -3   4   0   23.70    6.10
  -3   4   0   21.40    5.60
   3  -4   0   36.30    7.80
   3  -4   0   30.90    6.00
   3  -4   0   29.40    7.20
  -4   4   0  185.58   11.90
  -4   4   0  161.58   15.10
  -4   4   0  196.68   16.80
  -4   4   0  153.88   14.50
  -4   4   0  204.68   14.70
   4  -4   0  154.48   14.50
   4  -4   0  186.28   12.90
   4  -4   0  175.88   14.70
  -5   4   0  117.39   13.20
  -5   4   0  120.09   11.20
  -5   4   0   95.49   13.20
  -5   4   0   88.79   11.90
  -5   4   0  110.69    9.70
  -5   4   0  125.09   12.40
   5  -4   0  110.99   12.00
   5  -4   0  111.49   12.80
   5  -4   0  111.89   13.40
   5  -4   0  117.09   12.40
  -6   4   0   69.69   10.20
  -6   4   0   73.49   13.40
  -6   4   0   71.09    8.90
  -6   4   0   72.89   13.70
  -6   4   0   53.29   13.40
  -6   4   0   61.89   13.10
   6  -4   0   75.29   12.20
   6  -4   0   48.80   13.70
   6  -4   0   64.99   14.00
  -7   4   0    6.90    9.00
  -7   4   0   29.00   10.60
  -7   4   0   29.60   16.10
   7  -4   0   16.30   11.00
   7  -4   0    4.10   15.10
   7  -4   0    3.20   11.90
   7  -4   0   -3.30   14.60
   8   5  -1   43.70   16.10
   8   5  -1   47.50   15.90
   8   5  -1    6.00   16.20
   8   5  -1   36.70   19.70
  -8  -5   1   18.80    5.80
  -8  -5   1   46.20   19.30
  -8  -5   1   13.60    6.10
   7   5  -1  228.48   22.30
   7   5  -1  266.27   19.90
   7   5  -1  283.37   24.30
   7   5  -1  308.97   25.00
  -7  -5   1  290.47   17.40
  -7  -5   1  290.57   23.60
  -7  -5   1  274.17   24.90
  -7  -5   1  235.18   17.50
   6   5  -1  135.19   14.30
   6   5  -1  146.59   15.40
   6   5  -1  139.69   15.20
  -6  -5   1  144.59   14.30
  -6  -5   1  164.58   13.60
  -6  -5   1  138.99   15.20
  -6  -5   1  136.59   13.50
   5   5  -1   82.99   10.50
   5   5  -1   87.79   11.20
   5   5  -1  103.89   12.30
  -5  -5   1   74.69   11.50
  -5  -5   1   71.89    9.00
  -5  -5   1  114.69   11.60
  -5  -5   1   70.99    8.80
   4   5  -1    6.50    7.20
   4   5  -1    9.50    7.80
   4   5  -1    2.60    5.90
  -4  -5   1    3.30    5.90
  -4  -5   1    0.80    7.10
  -4  -5   1   -0.20    5.50
  -4  -5   1   10.30    8.20
   3   5  -1  720.83   31.50
  -3  -5   1  630.84   31.30
  -3  -5   1  660.53   30.50
  -3  -5   1  713.73   32.20
  -3  -5   1  684.33   30.80
   2   5  -1 1644.34   78.59
   2   5  -1 1892.01   73.99
   2   5  -1 1828.12   75.19
  -2  -5   1 1974.20   78.09
  -2  -5   1 1900.71   74.99
  -2  -5   1 1843.12   74.99
  -2  -5   1 1780.72   74.79
   1   5  -1   63.69    7.40
   1   5  -1   77.99   10.40
   1   5  -1   74.39    7.10
  -1  -5   1   71.89    8.50
  -1  -5   1   70.59    8.60
  -1  -5   1   76.29    9.10
   0   5  -1 1069.89   44.90
   0   5  -1 1068.99   46.70
   0   5  -1 1157.98   46.80
   0  -5   1 1101.09   48.20
   0  -5   1 1109.89   46.70
   0  -5   1 1094.69   46.40
  -1   5  -1  188.08   13.00
  -1   5  -1  210.18   12.50
  -1   5  -1  231.88   14.40
  -1   5  -1  212.58   15.10
  -1   5  -1  231.58   14.00
   1  -5   1  222.18   12.20
   1  -5   1  242.98   14.70
   1  -5   1  206.38   14.20
   1  -5   1  226.48   14.80
  -2   5  -1  477.45   22.70
  -2   5  -1  502.85   25.50
  -2   5  -1  533.55   27.80
  -2   5  -1  498.95   24.30
   2  -5   1  513.75   24.50
   2  -5   1  503.95   25.70
   2  -5   1  498.95   23.00
   2  -5   1  485.25   24.00
  -3   5  -1  115.49   11.40
  -3   5  -1  133.79   12.40
  -3   5  -1  119.09   11.40
  -3   5  -1  109.69   13.60
  -3   5  -1  121.69    9.70
   3  -5   1  133.49   13.80
   3  -5   1  107.49   12.50
   3  -5   1  123.39   11.60
   3  -5   1  114.79   10.80
  -4   5  -1  355.66   20.00
  -4   5  -1  332.67   20.30
  -4   5  -1  339.27   18.20
  -4   5  -1  359.86   24.50
  -4   5  -1  391.66   22.30
   4  -5   1  346.27   20.10
   4  -5   1  379.06   22.60
   4  -5   1  316.87   23.70
   4  -5   1  341.47   22.00
  -5   5  -1  368.16   24.80
  -5   5  -1  323.27   21.40
  -5   5  -1  380.46   25.30
  -5   5  -1  357.26   26.70
  -5   5  -1  375.06   20.10
   5  -5   1  379.26   22.40
   5  -5   1  390.66   24.60
   5  -5   1  376.76   21.90
   5  -5   1  361.76   26.10
  -6   5  -1  521.65   33.50
  -6   5  -1  532.35   34.90
  -6   5  -1  539.65   26.70
  -6   5  -1  544.25   33.00
  -6   5  -1  493.65   34.60
   6  -5   1  523.05   29.70
   6  -5   1  539.65   33.80
   6  -5   1  545.35   33.20
  -7   5  -1   24.70   11.20
  -7   5  -1   10.60   18.60
   7  -5   1   -6.10   17.50
   7  -5   1   33.00   15.10
   7   6  -2   11.40   15.20
   7   6  -2   31.20   17.20
   7   6  -2   36.70   16.30
  -7  -6   2   16.70    8.40
  -7  -6   2   41.90   17.50
  -7  -6   2   17.50   13.60
   6   6  -2  245.08   21.30
   6   6  -2  206.78   21.40
  -6  -6   2  172.38   16.70
  -6  -6   2  175.88   19.70
  -6  -6   2  182.58   17.80
  -6  -6   2  196.58   19.20
   5   6  -2   20.40   10.30
   5   6  -2    5.10    8.00
   5   6  -2    1.90    9.90
  -5  -6   2  -10.80   10.70
  -5  -6   2    1.00    7.90
  -5  -6   2   -0.40   10.60
  -5  -6   2    9.60    7.90
   4   6  -2  345.27   21.30
   4   6  -2  305.97   21.40
   4   6  -2  325.67   19.20
  -4  -6   2  364.46   21.30
  -4  -6   2  357.76   21.70
  -4  -6   2  375.86   20.30
  -4  -6   2  341.67   21.80
   3   6  -2  266.67   26.20
   3   6  -2  250.57   18.30
  -3  -6   2  286.17   19.40
  -3  -6   2  284.57   18.80
  -3  -6   2  294.17   18.90
  -3  -6   2  263.67   18.70
   2   6  -2 1322.47   64.89
   2   6  -2 1648.73   66.19
   2   6  -2 1552.44   64.49
  -2  -6   2 1613.04   65.69
  -2  -6   2 1584.94   66.19
  -2  -6   2 1697.23   66.19
  -2  -6   2 1594.64   67.09
   1   6  -2   21.00    6.20
   1   6  -2   25.30    7.00
   1   6  -2   25.70    7.20
  -1  -6   2   24.50    8.50
  -1  -6   2   34.70    9.10
  -1  -6   2   38.40    9.00
   0   6  -2 2116.29   88.39
   0   6  -2 2250.17   86.99
   0   6  -2 1948.80   90.19
   0  -6   2 2338.87   88.99
   0  -6   2 2203.18   90.09
   0  -6   2 2122.99   88.69
  -1   6  -2   16.80    5.90
  -1   6  -2   19.20    6.70
  -1   6  -2   14.30    7.60
  -1   6  -2    3.20    6.50
  -1   6  -2   13.10    6.30
   1  -6   2    5.40    6.60
   1  -6   2   12.50    6.60
   1  -6   2   16.90    6.60
   1  -6   2   16.50    6.40
  -2   6  -2   34.10    7.60
  -2   6  -2   47.60   10.70
  -2   6  -2   47.10   11.20
  -2   6  -2   40.60    7.50
  -2   6  -2   32.50   11.20
   2  -6   2   35.40    6.90
   2  -6   2   16.40   10.00
   2  -6   2   36.00   10.00
   2  -6   2   26.60    9.80
  -3   6  -2  413.76   19.80
  -3   6  -2  352.76   24.00
  -3   6  -2  379.36   22.00
  -3   6  -2  383.96   23.50
  -3   6  -2  395.86   24.90
   3  -6   2  380.16   22.10
   3  -6   2  376.86   23.80
   3  -6   2  399.26   20.70
   3  -6   2  367.56   23.80
  -4   6  -2  124.19   16.30
  -4   6  -2   67.49   12.60
  -4   6  -2   95.69   13.40
  -4   6  -2  102.49   10.30
   4  -6   2  132.69   15.60
   4  -6   2  115.89   12.50
   4  -6   2   89.39   14.90
   4  -6   2  106.49   15.20
  -5   6  -2  201.88   21.00
  -5   6  -2  174.38   20.60
  -5   6  -2  201.08   15.30
  -5   6  -2  191.48   20.70
   5  -6   2  180.98   21.40
   5  -6   2  182.48   18.90
   5  -6   2  213.38   21.70
   5  -6   2  188.98   18.70
  -6   6  -2   -4.20   18.30
  -6   6  -2   11.80    9.90
  -6   6  -2    6.40   13.40
   6  -6   2   13.10   12.80
   6   7  -3  -10.10   15.10
   6   7  -3   21.50   14.90
   6   7  -3   23.50   17.00
  -6  -7   3   38.20   14.40
  -6  -7   3   -5.50   16.00
   5   7  -3  171.78   17.40
   5   7  -3  159.38   18.20
   5   7  -3  202.88   20.70
   5   7  -3  149.88   18.00
  -5  -7   3  132.99   15.10
  -5  -7   3  136.39   15.10
  -5  -7   3  144.39   16.00
  -5  -7   3  174.98   17.00
   4   7  -3   48.00   12.10
   4   7  -3   86.79   14.30
  -4  -7   3   74.49   11.80
  -4  -7   3   48.10   13.90
  -4  -7   3   60.79   11.80
  -4  -7   3   86.29   14.40
   3   7  -3  980.90   43.70
   3   7  -3  919.91   45.40
   3   7  -3 1034.60   45.70
  -3  -7   3  996.20   45.70
  -3  -7   3 1055.29   46.80
  -3  -7   3  893.81   44.30
  -3  -7   3  978.60   45.30
   2   7  -3 1093.29   47.70
   2   7  -3 1019.70   47.60
   2   7  -3 1089.49   47.30
  -2  -7   3 1078.39   48.20
  -2  -7   3 1099.19   49.30
  -2  -7   3 1050.09   47.70
  -2  -7   3 1111.49   47.80
   1   7  -3  352.06   20.50
   1   7  -3  324.97   22.50
  -1  -7   3  338.27   22.40
  -1  -7   3  352.66   21.10
  -1  -7   3  332.97   22.00
  -1  -7   3  370.96   22.80
   0   7  -3    7.80    7.40
   0   7  -3   -6.20   10.30
   0   7  -3    4.20    7.50
   0  -7   3    8.60    7.80
   0  -7   3   -2.20    9.50
   0  -7   3   -6.40    9.20
  -1   7  -3  391.76   25.90
  -1   7  -3  432.26   27.10
  -1   7  -3  466.05   22.90
  -1   7  -3  467.05   26.90
   1  -7   3  468.75   25.10
   1  -7   3  494.15   27.10
   1  -7   3  500.35   24.10
   1  -7   3  444.66   27.20
  -2   7  -3    3.80   13.00
  -2   7  -3   -3.40   11.40
  -2   7  -3  -12.70   12.00
  -2   7  -3   -8.50   10.70
  -2   7  -3    4.10    7.60
   2  -7   3   12.50    9.30
   2  -7   3   15.60    8.80
   2  -7   3    5.80    8.80
   2  -7   3  -11.70   11.60
  -3   7  -3  198.78   14.90
  -3   7  -3  252.37   19.30
  -3   7  -3  213.78   19.70
  -3   7  -3  164.18   20.50
   3  -7   3  221.18   17.20
   3  -7   3  212.08   20.50
   3  -7   3  225.18   22.50
   3  -7   3  231.98   22.10
  -4   7  -3   -4.20   16.80
  -4   7  -3   39.70   13.50
  -4   7  -3   37.80   16.60
  -4   7  -3   45.30    9.30
   4  -7   3   33.10   15.80
   4  -7   3   31.30   12.50
   4  -7   3   25.20   11.60
  -5   7  -3  191.38   16.80
  -5   7  -3  152.38   20.60
  -5   7  -3  178.78   20.30
   5  -7   3  188.88   19.70
   5  -7   3  180.08   19.00
   5   8  -4   73.89   18.10
   5   8  -4   53.09   13.90
   5   8  -4   43.10   17.30
   5   8  -4   53.09   19.70
  -5  -8   4   26.40   15.60
  -5  -8   4   48.00   17.10
  -5  -8   4   30.60   17.50
   4   8  -4   53.19   14.60
   4   8  -4   32.90   16.70
  -4  -8   4   32.70   14.30
  -4  -8   4   35.40   12.50
  -4  -8   4   27.20   12.30
   3   8  -4   29.10   11.70
   3   8  -4   22.70   12.40
   3   8  -4    2.60   13.80
  -3  -8   4   -6.50   11.90
  -3  -8   4   22.90   14.70
  -3  -8   4   27.50   15.20
   2   8  -4   31.30   12.90
   2   8  -4    6.00   12.00
   2   8  -4   19.70   10.90
  -2  -8   4   18.40   14.60
  -2  -8   4    8.40   13.50
  -2  -8   4   12.80   10.80
  -2  -8   4  -20.90   12.40
   1   8  -4  323.57   21.20
   1   8  -4  325.77   24.30
   1   8  -4  257.37   24.90
  -1  -8   4  306.87   21.70
  -1  -8   4  303.37   24.70
  -1  -8   4  306.07   23.90
  -1  -8   4  293.67   26.00
  -1  -8   4  291.77   16.80
   0   8  -4  579.94   29.80
   0   8  -4  592.04   33.60
   0   8  -4  609.54   33.30
   0  -8   4  604.74   33.90
   0  -8   4  551.04   24.00
   0  -8   4  542.85   31.00
   0  -8   4  577.74   31.40
   0  -8   4  595.24   34.50
  -1   8  -4    1.10   14.30
  -1   8  -4    4.40   11.00
  -1   8  -4    0.30   14.10
  -1   8  -4   13.20    9.40
   1  -8   4   14.20   13.10
   1  -8   4    8.10   12.80
   1  -8   4    6.80   15.30
  -2   8  -4  200.08   16.20
  -2   8  -4  202.38   20.00
  -2   8  -4  196.48   22.80
   2  -8   4  194.38   21.20
   2  -8   4  167.08   17.80
  -3   8  -4    2.30    9.70
  -3   8  -4  -20.50   16.70
  -3   8  -4    5.70   13.50
   3  -8   4   29.60   13.70
   3  -8   4    5.80   12.60
   2   9  -5   37.10   14.90
   2   9  -5  -10.30   18.50
   2   9  -5   37.00   13.80
  -2  -9   5   36.90   10.70
  -2  -9   5   50.39   19.30
  -2  -9   5   21.30   19.00
   1   9  -5   70.99   20.40
   1   9  -5   55.99   18.40
   1   9  -5   42.40   15.60
  -1  -9   5   52.29   18.90
  -1  -9   5   53.79    8.60
   0   9  -5   80.69   24.20
   0   9  -5  105.89   14.40
   0   9  -5  107.39   20.10
   0  -9   5  111.99   16.60
   0  -9   5   76.99   19.80
   1  -6  11   50.99   15.10
   1  -6  11   51.59   18.70
   1  -6  11   75.19   17.10
  -1   6 -11   66.69   17.30
  -1   6 -11   48.20   15.20
  -1   6 -11   66.69   20.50
   0  -6  11   59.99   13.40
   0  -6  11   64.19   14.00
   0   6 -11   17.90   17.90
   0   6 -11   42.90   13.80
   0   6 -11   98.29   14.80
  -1  -6  11   38.00   16.70
  -1  -6  11   26.00   13.10
  -1  -6  11   26.50   13.10
  -1  -6  11   30.10   17.80
   1   6 -11   -2.20   16.60
   1   6 -11   21.50   12.90
   1   6 -11    8.10   12.90
  -2  -6  11   71.69   18.40
  -2  -6  11   59.89   15.20
  -2  -6  11   72.59   12.80
  -2  -6  11   69.99   14.20
   2   6 -11   59.29   13.60
   4  -5  10   37.80   15.70
   4  -5  10   40.40   17.20
   4  -5  10   39.10   17.50
  -4   5 -10   40.50   16.00
  -4   5 -10   24.80   16.10
  -4   5 -10   59.99   18.70
   3  -5  10   59.09   13.60
   3  -5  10   40.30   13.20
   3  -5  10   47.00   13.60
  -3   5 -10   33.20   13.60
  -3   5 -10   35.00   14.20
  -3   5 -10   84.59   15.20
   2  -5  10  187.48   18.40
   2  -5  10  210.58   19.30
   2  -5  10  226.18   26.50
   2  -5  10  209.78   18.80
   2  -5  10  199.68   19.40
  -2   5 -10  241.08   21.70
  -2   5 -10  177.08   18.20
  -2   5 -10  238.48   23.70
   1  -5  10   -5.00    9.70
   1  -5  10   13.60   10.20
   1  -5  10    4.60   13.20
   1  -5  10    0.20   10.00
   1  -5  10  -11.90   11.50
  -1   5 -10    4.80    9.90
  -1   5 -10   -9.80   13.30
  -1   5 -10   -5.50   10.90
  -1   5 -10   -3.40   15.00
   0  -5  10  164.78   18.10
   0  -5  10  228.78   17.80
   0  -5  10  205.28   20.90
   0  -5  10  195.08   17.70
   0   5 -10  217.28   17.00
   0   5 -10  200.08   20.70
   0   5 -10  197.58   16.20
   0   5 -10  175.38   19.80
  -1  -5  10   31.50    9.70
  -1  -5  10   19.50    8.90
  -1  -5  10   21.90   12.70
  -1  -5  10   31.10   12.50
   1   5 -10   34.60    9.90
   1   5 -10   30.20    9.40
   1   5 -10   29.10   14.30
   1   5 -10   18.10   12.60
  -2  -5  10  121.19   17.40
  -2  -5  10  120.69   12.80
  -2  -5  10  144.29   14.10
  -2  -5  10  113.59   14.40
  -2  -5  10  128.79   12.00
   2   5 -10  104.09   15.60
   2   5 -10  122.99   12.50
   2   5 -10  121.89   11.80
   2   5 -10  107.89   18.00
  -3  -5  10    2.40    9.80
  -3  -5  10    2.30   10.80
  -3  -5  10    4.30    8.60
  -3  -5  10  -10.00   14.10
  -3  -5  10   -8.20   10.30
   3   5 -10    9.20   11.40
   3   5 -10   -2.50    8.40
  -4  -5  10  143.69   20.50
  -4  -5  10  136.09   13.30
  -4  -5  10  121.59   12.90
  -4  -5  10  150.28   17.00
   4   5 -10  131.19   13.20
   4   5 -10  150.78   19.20
   4   5 -10  148.59   14.10
   5  -4   9  101.99   18.90
   5  -4   9   95.29   16.40
  -5   4  -9   79.29   16.40
  -5   4  -9   94.89   16.40
  -5   4  -9   85.99   15.40
   4  -4   9   91.29   15.20
   4  -4   9  119.79   16.10
   4  -4   9  113.59   14.10
   4  -4   9  117.39   17.40
   4  -4   9  117.29   15.80
  -4   4  -9  140.99   17.10
  -4   4  -9  105.09   14.00
  -4   4  -9  115.49   18.50
  -4   4  -9  109.59   15.00
   3  -4   9  345.77   20.70
   3  -4   9  377.36   21.50
   3  -4   9  329.87   21.60
   3  -4   9  294.47   22.90
   3  -4   9  308.87   20.90
  -3   4  -9  302.37   24.70
  -3   4  -9  265.77   20.10
  -3   4  -9  240.28   32.80
   2  -4   9  108.89   12.70
   2  -4   9  118.99   12.10
   2  -4   9  104.89   12.90
   2  -4   9  127.99   12.50
   2  -4   9  115.59   12.00
  -2   4  -9  141.79   22.40
  -2   4  -9  106.19   15.30
  -2   4  -9  109.59   14.00
  -2   4  -9  108.19   12.10
   1  -4   9  421.96   23.70
   1  -4   9  434.96   25.50
   1  -4   9  449.16   27.20
   1  -4   9  399.66   21.80
   1  -4   9  411.06   21.70
  -1   4  -9  416.46   27.70
  -1   4  -9  420.26   22.00
  -1   4  -9  395.06   22.20
  -1   4  -9  384.36   24.80
   0  -4   9  441.46   24.10
   0  -4   9  453.85   22.20
   0  -4   9  448.26   21.70
   0  -4   9  416.96   26.30
   0  -4   9  461.45   23.30
   0   4  -9  443.46   25.90
   0   4  -9  442.16   22.00
   0   4  -9  419.46   26.80
   0   4  -9  422.66   22.70
  -1  -4   9 1082.89   47.60
  -1  -4   9  998.80   45.90
  -1  -4   9 1035.40   43.70
  -1  -4   9 1038.60   44.00
   1   4  -9 1066.49   44.40
   1   4  -9 1008.60   43.90
   1   4  -9 1012.70   47.50
   1   4  -9 1045.40   47.50
  -2  -4   9   36.80    9.50
  -2  -4   9   33.80    9.40
  -2  -4   9   41.50    9.00
  -2  -4   9   40.20    7.20
  -2  -4   9   43.80    7.60
   2   4  -9   43.50    9.80
   2   4  -9   34.50    7.50
   2   4  -9   38.60    7.00
   2   4  -9   42.50   12.30
  -3  -4   9  400.86   20.50
  -3  -4   9  404.46   26.30
  -3  -4   9  413.16   20.50
  -3  -4   9  382.36   21.90
  -3  -4   9  457.55   23.30
   3   4  -9  417.16   26.30
   3   4  -9  390.36   23.80
   3   4  -9  435.96   20.80
   3   4  -9  426.46   24.00
  -4  -4   9   76.09    8.90
  -4  -4   9   84.59   13.90
  -4  -4   9   64.59   15.10
  -4  -4   9   90.19    9.30
   4   4  -9   54.29   13.60
   4   4  -9   72.19   13.20
   4   4  -9   69.49    9.60
   4   4  -9   57.79    8.90
   4   4  -9   80.79   15.60
  -5  -4   9  208.58   19.40
  -5  -4   9  195.88   16.10
  -5  -4   9  194.48   15.50
  -5  -4   9  160.88   18.70
   5   4  -9  197.98   20.50
   5   4  -9  206.98   16.40
   5   4  -9  186.68   15.40
  -6  -4   9   12.60   13.10
  -6  -4   9   23.10   10.60
  -6  -4   9   47.20   11.40
   6   4  -9   28.60   11.30
   6   4  -9    3.90   12.00
   6   4  -9    9.30   11.60
   6  -3   8   79.39   14.50
   6  -3   8   66.69   17.50
  -6   3  -8   53.59   18.70
  -6   3  -8   91.69   18.70
  -6   3  -8   87.49   17.20
  -6   3  -8   86.69   26.00
   5  -3   8   98.39   16.80
   5  -3   8   80.59   13.70
   5  -3   8   86.99   14.60
   5  -3   8   79.69   15.60
  -5   3  -8   75.39   14.60
  -5   3  -8   60.79   13.50
  -5   3  -8   79.99   12.20
  -5   3  -8  103.69   14.60
   4  -3   8  171.08   17.00
   4  -3   8  158.98   15.00
   4  -3   8  168.28   16.40
   4  -3   8  205.78   21.60
  -4   3  -8  165.28   17.30
  -4   3  -8  167.78   18.40
  -4   3  -8  171.48   14.90
  -4   3  -8  177.48   10.50
  -4   3  -8  176.28   17.30
   3  -3   8   15.10    7.50
   3  -3   8   21.70    7.40
   3  -3   8    6.50    7.70
   3  -3   8    6.60    9.80
   3  -3   8   29.50    8.40
  -3   3  -8    4.00    8.00
  -3   3  -8   14.20    8.50
  -3   3  -8   12.90    4.30
  -3   3  -8    5.10   10.60
  -3   3  -8   21.60    9.00
   2  -3   8   -8.00    8.60
   2  -3   8    0.50    6.70
   2  -3   8   -0.30    7.30
   2  -3   8    9.80    6.60
   2  -3   8   -1.50    6.50
  -2   3  -8    7.30    4.50
  -2   3  -8   -1.50    5.30
  -2   3  -8    3.50    6.40
  -2   3  -8   -1.20    6.60
  -2   3  -8    0.90    7.20
   1  -3   8  718.93   33.80
   1  -3   8  730.43   32.50
   1  -3   8  704.93   30.90
   1  -3   8  658.63   30.80
   1  -3   8  681.93   33.60
  -1   3  -8  740.73   33.90
  -1   3  -8  688.43   31.40
  -1   3  -8  720.73   30.20
  -1   3  -8  714.53   35.40
  -1   3  -8  715.93   31.30
   0  -3   8 1226.88   51.99
   0  -3   8 1206.98   49.99
   0  -3   8 1247.88   51.29
   0  -3   8 1232.78   50.09
   0  -3   8 1084.59   54.89
   0   3  -8 1226.48   51.89
   0   3  -8 1244.08   49.99
   0   3  -8 1247.08   53.59
   0   3  -8 1204.08   50.19
  -1  -3   8  219.28   12.20
  -1  -3   8  206.48   11.80
  -1  -3   8  214.58   13.70
  -1  -3   8  202.68   15.10
  -1  -3   8  214.48   15.70
   1   3  -8  211.18   14.50
   1   3  -8  197.58   12.40
   1   3  -8  223.38   11.90
   1   3  -8  219.98   15.60
  -2  -3   8  307.47   18.00
  -2  -3   8  331.77   20.00
  -2  -3   8  333.67   20.00
  -2  -3   8  310.17   15.10
  -2  -3   8  326.57   15.40
   2   3  -8  317.67   18.40
   2   3  -8  310.47   18.20
   2   3  -8  316.47   15.50
   2   3  -8  311.17   15.90
   2   3  -8  318.37   19.90
  -3  -3   8   25.40    5.30
  -3  -3   8   13.10    8.50
  -3  -3   8   13.80    4.90
  -3  -3   8   13.00    9.40
   3   3  -8   20.40    5.40
   3   3  -8   22.50    5.00
   3   3  -8    5.30    6.90
   3   3  -8   20.80    7.30
   3   3  -8   17.80    6.30
  -4  -3   8  263.07   18.30
  -4  -3   8  284.27   14.60
  -4  -3   8  261.67   17.80
  -4  -3   8  262.77   14.90
   4   3  -8  274.67   18.50
   4   3  -8  281.27   20.60
   4   3  -8  289.07   15.50
   4   3  -8  301.87   20.70
   4   3  -8  276.97   15.00
  -5  -3   8   -3.70   10.20
  -5  -3   8    1.40    6.80
  -5  -3   8    2.00    6.60
   5   3  -8   -4.00    9.40
   5   3  -8    7.30    6.40
   5   3  -8    2.20    7.20
   5   3  -8    1.90    9.00
  -6  -3   8 1082.89   46.70
  -6  -3   8 1114.59   52.19
  -6  -3   8 1088.09   46.90
   6   3  -8 1097.19   47.00
   6   3  -8  991.10   49.50
   6   3  -8 1112.19   47.40
   7   3  -8  -22.50   14.90
   7  -2   7  -17.40   11.00
   7  -2   7   -6.10   16.20
  -7   2  -7    6.50   16.40
  -7   2  -7  -16.80   16.30
  -7   2  -7   -2.00   19.40
   6  -2   7   44.90   11.40
   6  -2   7   38.80   13.60
   6  -2   7   35.60   13.20
   6  -2   7   49.00   14.20
  -6   2  -7   12.90   14.30
  -6   2  -7   48.30   11.80
  -6   2  -7   48.90   13.20
  -6   2  -7   60.09   14.80
   5  -2   7   74.99   13.30
   5  -2   7   79.49   10.30
   5  -2   7   92.39   11.20
   5  -2   7   88.09   12.10
  -5   2  -7   80.39   10.80
  -5   2  -7   74.39   11.80
  -5   2  -7   76.09   10.70
  -5   2  -7   73.49   11.80
   4  -2   7  756.82   36.40
   4  -2   7  861.21   40.20
   4  -2   7  810.72   38.50
   4  -2   7  827.92   37.20
  -4   2  -7  821.52   36.40
  -4   2  -7  801.52   37.30
  -4   2  -7  793.42   40.50
  -4   2  -7  849.61   37.70
   3  -2   7   31.10    9.10
   3  -2   7   28.90    9.00
   3  -2   7   45.80    6.60
   3  -2   7   45.00    7.50
  -3   2  -7   42.10    6.70
  -3   2  -7   35.10    7.80
  -3   2  -7   29.70    9.70
  -3   2  -7   47.60    8.30
   2  -2   7   24.30    7.80
   2  -2   7   44.80    6.80
   2  -2   7   37.10    6.20
   2  -2   7   35.20    9.00
   2  -2   7   45.10    6.80
  -2   2  -7   46.20    7.00
  -2   2  -7   47.00    6.60
  -2   2  -7   35.60    6.40
  -2   2  -7   32.80    7.30
  -2   2  -7   50.09    5.20
   1  -2   7 1451.95   58.39
   1  -2   7 1437.66   60.19
   1  -2   7 1460.65   58.99
   1  -2   7 1483.55   61.29
   1  -2   7 1391.66   58.39
  -1   2  -7 1493.75   59.99
  -1   2  -7 1383.46   58.59
  -1   2  -7 1469.75   58.59
  -1   2  -7 1419.76   60.99
  -1   2  -7 1462.85   58.09
   0  -2   7 1456.65   58.69
   0  -2   7 1481.65   58.79
   0  -2   7 1427.36   60.09
   0  -2   7 1426.86   60.99
   0   2  -7 1487.35   60.69
   0   2  -7 1472.85   58.99
   0   2  -7 1481.55   58.79
   0   2  -7 1479.85   61.59
   0   2  -7 1505.65   59.49
  -1  -2   7   39.80    6.50
  -1  -2   7   33.90    3.90
  -1  -2   7   22.40    6.90
  -1  -2   7   21.50    5.50
  -1  -2   7   45.10    6.20
   1   2  -7   30.70    6.00
   1   2  -7   34.10    6.80
   1   2  -7   34.50    6.00
   1   2  -7   30.20    3.90
   1   2  -7   37.30    4.50
  -2  -2   7  179.88   10.60
  -2  -2   7  164.38   13.40
  -2  -2   7  149.09   10.70
  -2  -2   7  173.58    8.60
  -2  -2   7  182.78   10.80
   2   2  -7  165.68   11.90
   2   2  -7  154.08    8.70
   2   2  -7  155.58   13.10
   2   2  -7  150.78   13.50
  -3  -2   7  343.67   19.20
  -3  -2   7  363.46   16.20
  -3  -2   7  378.66   19.80
  -3  -2   7  332.57   20.00
   3   2  -7  350.96   17.50
   3   2  -7  349.17   16.70
   3   2  -7  365.16   16.30
   3   2  -7  383.56   20.00
   3   2  -7  378.26   20.70
   3   2  -7  395.36   19.50
  -4  -2   7    0.00    5.50
  -4  -2   7    8.90    7.00
  -4  -2   7    4.20    4.40
   4   2  -7    6.40    6.80
   4   2  -7    0.60    5.60
   4   2  -7    0.30    5.00
   4   2  -7   -3.10    4.10
  -5  -2   7  565.34   23.90
  -5  -2   7  485.35   23.70
  -5  -2   7  450.35   26.20
   5   2  -7  543.45   24.20
   5   2  -7  528.45   23.90
   5   2  -7  506.75   28.70
   5   2  -7  497.05   26.20
  -6  -2   7   30.90   10.20
  -6  -2   7   29.80   10.30
  -6  -2   7   47.70    9.00
   6   2  -7   26.20    8.20
   6   2  -7   38.50    8.80
   6   2  -7   51.69   11.50
   6   2  -7   30.00   12.30
  -7  -2   7   72.09   13.90
  -7  -2   7   84.49   13.00
  -7  -2   7   81.69   12.40
   7   2  -7   76.79   11.10
   7   2  -7   76.19   13.00
   7   2  -7   61.19   15.30
   8  -1   6   18.20   15.80
   8  -1   6   17.80   10.80
   8  -1   6   23.00   18.20
  -8   1  -6   25.00   19.80
  -8   1  -6   10.60   17.80
   7  -1   6   24.90   12.60
   7  -1   6   25.80   14.50
   7  -1   6   41.50   13.10
  -7   1  -6   36.80   15.90
  -7   1  -6   23.90   16.10
  -7   1  -6   38.30   11.50
  -7   1  -6   44.70   13.80
   6  -1   6   52.39   11.60
   6  -1   6   76.89   12.50
   6  -1   6   70.39   12.70
  -6   1  -6   75.99   11.80
  -6   1  -6   77.39   13.20
  -6   1  -6   73.89   13.60
  -6   1  -6   67.89   12.70
   5  -1   6 1054.19   47.00
   5  -1   6 1116.49   47.80
  -5   1  -6 1068.29   47.70
  -5   1  -6 1062.69   47.70
  -5   1  -6 1080.69   49.70
  -5   1  -6 1090.29   47.00
   4  -1   6  344.37   18.60
   4  -1   6  309.77   18.90
   4  -1   6  361.26   19.10
   4  -1   6  346.97   19.60
  -4   1  -6  329.27   18.40
  -4   1  -6  332.17   19.10
  -4   1  -6  311.77   21.40
  -4   1  -6  362.46   19.30
   3  -1   6 1175.58   49.80
   3  -1   6 1211.78   51.49
   3  -1   6 1218.78   49.80
   3  -1   6 1160.38   50.19
  -3   1  -6 1156.28   51.59
  -3   1  -6 1254.47   54.59
  -3   1  -6 1233.68   49.99
  -3   1  -6 1171.78   49.70
   2  -1   6   68.99    6.80
   2  -1   6   65.89    8.30
   2  -1   6   65.29    6.00
   2  -1   6   60.79    7.80
   2  -1   6   71.39    3.30
   2  -1   6   66.29    7.00
  -2   1  -6   60.39    7.30
  -2   1  -6   64.09    6.50
  -2   1  -6   56.99    6.30
  -2   1  -6   76.29    7.40
   1  -1   6 1577.04   64.39
   1  -1   6 1645.04   65.79
   1  -1   6 1649.83   63.39
   1  -1   6 1656.53   66.59
   1  -1   6 1589.44   64.19
   1  -1   6 1639.04   64.29
  -1   1  -6 1673.53   65.79
  -1   1  -6 1543.75   66.29
  -1   1  -6 1541.95   64.29
  -1   1  -6 1639.14   64.29
  -1   1  -6 1607.64   64.39
   0  -1   6   34.80    5.40
   0  -1   6   40.70    5.50
   0  -1   6   21.20    5.20
   0  -1   6   36.90    3.80
   0   1  -6   37.80    3.80
   0   1  -6   30.40    5.40
   0   1  -6   35.90    3.50
   0   1  -6   42.10    4.40
   0   1  -6   34.00    4.20
   0   1  -6   37.70    6.30
  -1  -1   6  389.46   17.40
  -1  -1   6  352.36   18.00
  -1  -1   6  361.96   18.10
  -1  -1   6  390.86   15.50
  -1  -1   6  377.96   15.40
   1   1  -6  399.56   17.70
   1   1  -6  385.96   15.80
   1   1  -6  368.26   17.50
   1   1  -6  369.66   18.10
   1   1  -6  395.16   15.80
   1   1  -6  379.86   18.70
  -2  -1   6 2012.40   82.09
  -2  -1   6 1971.20   79.49
  -2  -1   6 2054.09   81.69
  -2  -1   6 1959.90   79.39
  -2  -1   6 2043.10   81.89
   2   1  -6 2070.19   81.09
   2   1  -6 2078.09   83.59
   2   1  -6 1956.90   79.69
   2   1  -6 1992.30   79.69
   2   1  -6 2284.47   83.69
  -3  -1   6  413.46   20.60
  -3  -1   6  419.86   20.30
  -3  -1   6  445.96   18.00
   3   1  -6  402.16   19.90
   3   1  -6  436.76   20.90
   3   1  -6  434.06   18.20
   3   1  -6  416.56   20.60
   3   1  -6  414.26   18.30
  -4  -1   6   45.70    9.00
  -4  -1   6   42.20    5.10
  -4  -1   6   46.70    5.30
  -4  -1   6   27.90    9.20
   4   1  -6   42.90    5.50
   4   1  -6   56.69    7.80
   4   1  -6   48.10    5.20
   4   1  -6   37.80    6.50
  -5  -1   6  512.85   26.90
  -5  -1   6  510.75   28.70
  -5  -1   6  592.04   25.50
  -5  -1   6  619.14   25.90
   5   1  -6  534.65   28.30
   5   1  -6  551.84   25.20
   5   1  -6  592.34   29.20
   5   1  -6  573.54   25.80
  -6  -1   6   44.70   12.70
  -6  -1   6   36.00    9.10
  -6  -1   6   57.59    8.60
  -6  -1   6   39.10    8.80
   6   1  -6   31.70   12.40
   6   1  -6   45.50    8.70
   6   1  -6   48.10    8.00
   6   1  -6   42.20    9.20
  -7  -1   6  310.97   25.90
  -7  -1   6  264.57   20.70
   7   1  -6  309.77   22.20
   7   1  -6  307.87   19.60
   7   1  -6  224.38   24.00
   7   1  -6  267.97   20.90
   8   0   5   41.60   14.60
   8   0   5  103.19   17.30
  -8   0  -5   54.99   14.50
  -8   0  -5   77.49   17.70
  -8   0  -5   44.10   14.90
   7   0   5   -5.50   10.90
   7   0   5    9.60   13.90
   7   0   5    1.40   12.90
   7   0   5    6.60    7.50
  -7   0  -5   -1.50    9.70
  -7   0  -5    6.90   13.60
  -7   0  -5    3.90    8.00
  -7   0  -5   -3.90   13.30
   6   0   5  276.67   20.40
   6   0   5  285.17   19.00
   6   0   5  309.67   20.40
  -6   0  -5  291.57   19.30
  -6   0  -5  283.47   18.30
  -6   0  -5  283.37   18.40
  -6   0  -5  302.17   21.00
   5   0   5  403.06   21.30
   5   0   5  387.16   22.50
   5   0   5  414.26   21.10
  -5   0  -5  420.06   21.40
  -5   0  -5  438.06   21.50
  -5   0  -5  347.07   24.10
  -5   0  -5  436.46   24.10
   4   0   5  730.23   31.30
   4   0   5  674.83   31.30
   4   0   5  726.43   32.20
  -4   0  -5  732.63   31.70
  -4   0  -5  675.33   31.40
  -4   0  -5  752.12   33.00
  -4   0  -5  712.93   32.80
   3   0   5   -0.10    9.10
   3   0   5    3.60    4.70
   3   0   5    5.80    4.00
  -3   0  -5    3.10    5.00
  -3   0  -5   -4.30    5.30
  -3   0  -5   -2.50    4.50
  -3   0  -5    2.40    3.90
   2   0   5  619.34   24.20
   2   0   5  558.94   24.30
   2   0   5  611.84   25.60
   2   0   5  597.14   26.50
   2   0   5  577.64   25.60
  -2   0  -5  597.24   25.70
  -2   0  -5  620.94   25.20
  -2   0  -5  626.44   25.50
  -2   0  -5  600.74   27.10
   1   0   5 1160.98   48.90
   1   0   5 1189.08   47.80
   1   0   5 1266.27   47.80
   1   0   5 1207.08   48.00
   1   0   5 1212.98   48.10
  -1   0  -5 1195.18   49.80
  -1   0  -5 1222.18   48.10
  -1   0  -5 1166.58   48.10
  -1   0  -5 1240.68   49.20
   0   0   5   58.49    5.10
   0   0   5   53.09    3.20
   0   0   5   62.29    5.60
   0   0   5   55.09    3.20
   0   0  -5   60.69    6.30
   0   0  -5   68.39    5.20
   0   0  -5   59.49    3.50
   0   0  -5   54.89    3.50
   0   0  -5   45.70    5.60
   0   0  -5   57.19    5.00
  -1   0   5  910.31   38.40
  -1   0   5  933.21   38.10
   1   0  -5  935.71   38.20
   1   0  -5  898.31   38.20
   1   0  -5  973.40   38.40
   1   0  -5  927.71   38.10
  -2   0   5  679.63   29.80
  -2   0   5  683.53   27.50
  -2   0   5  712.73   29.70
  -2   0   5  699.33   27.50
   2   0  -5  707.93   29.50
   2   0  -5  740.33   29.90
   2   0  -5  674.73   27.80
   2   0  -5  672.13   28.90
   2   0  -5  702.83   27.80
   2   0  -5  724.63   29.90
  -3   0   5 3052.69  120.19
  -3   0   5 3123.09  120.09
  -3   0   5 2866.91  118.09
   3   0  -5 2981.70  118.39
   3   0  -5 2935.41  117.99
   3   0  -5 3137.39  119.89
   3   0  -5 3008.60  118.29
   3   0  -5 3118.99  120.29
  -4   0   5   28.30    4.60
  -4   0   5   36.90    8.10
  -4   0   5   17.60    7.20
  -4   0   5   21.20    4.80
   4   0  -5   23.70    4.90
   4   0  -5   19.40    7.20
   4   0  -5   24.50    4.50
   4   0  -5   22.30    6.60
  -5   0   5  367.26   18.20
  -5   0   5  348.47   21.30
  -5   0   5  368.56   20.80
  -5   0   5  370.36   18.80
  -5   0   5  359.16   19.40
   5   0  -5  339.07   18.00
   5   0  -5  375.16   20.90
   5   0  -5  360.96   18.20
   5   0  -5  385.36   20.10
  -6   0   5   31.70   11.30
  -6   0   5   30.10    8.10
  -6   0   5   25.60   10.10
  -6   0   5   27.10   10.30
  -6   0   5   23.10    7.50
   6   0  -5   38.80    8.00
   6   0  -5   32.00    8.30
   6   0  -5   21.30    8.20
   6   0  -5   24.00    8.00
  -7   0   5  269.17   19.00
  -7   0   5  222.78   18.50
  -7   0   5  246.28   24.90
  -7   0   5  278.47   20.30
  -7   0   5  263.47   19.90
   7   0  -5  244.88   23.00
   7   0  -5  278.27   21.00
   7   0  -5  281.27   20.20
  -8   0   5   89.49   16.20
  -8   0   5   76.89   18.30
   8   0  -5   68.49   14.70
   8   0  -5   88.19   15.30
   8   0  -5   84.79   17.80
   8   1   4   -1.20   13.90
   8   1   4   -8.00   12.30
   8   1   4   16.30   11.70
  -8  -1  -4    1.10   11.70
  -8  -1  -4  -22.50   12.40
  -8  -1  -4  -12.70   15.50
  -8  -1  -4    2.60   13.10
   7   1   4  -11.90   10.00
   7   1   4    8.60   11.70
   7   1   4   -7.70    9.00
  -7  -1  -4  -13.00    9.00
  -7  -1  -4    7.40    9.00
  -7  -1  -4  -23.50   11.40
  -7  -1  -4   -6.50    9.00
   6   1   4  159.38   14.40
   6   1   4  145.49   13.10
   6   1   4  149.88   14.80
   6   1   4  137.29   10.10
  -6  -1  -4  156.08   16.20
  -6  -1  -4  164.38   14.50
  -6  -1  -4  160.78   15.10
  -6  -1  -4  139.69   13.20
   5   1   4   13.70    3.80
   5   1   4   10.00    5.60
   5   1   4   13.50    6.50
   5   1   4    9.50    6.00
  -5  -1  -4   15.20    8.10
  -5  -1  -4   17.50    6.10
  -5  -1  -4   10.20    7.10
   4   1   4  141.19    9.40
   4   1   4  141.09    9.70
   4   1   4  132.29    6.80
   4   1   4  139.39    9.70
  -4  -1  -4  138.79   11.10
  -4  -1  -4  132.89    9.30
  -4  -1  -4  120.89   10.80
  -4  -1  -4  110.39    9.60
   3   1   4  649.74   26.70
   3   1   4  718.43   29.40
   3   1   4  685.93   28.40
   3   1   4  696.63   29.20
  -3  -1  -4  690.03   29.10
  -3  -1  -4  681.13   28.30
  -3  -1  -4  663.43   29.30
  -3  -1  -4  665.23   30.30
   2   1   4  265.87   11.80
   2   1   4  260.07   12.50
   2   1   4  273.17   12.90
  -2  -1  -4  253.27   12.20
  -2  -1  -4  253.17   12.70
  -2  -1  -4  259.47   11.60
   1   1   4    0.80    2.70
   1   1   4    2.10    3.20
   1   1   4   -0.20    2.50
   1   1   4    4.60    2.40
  -1  -1  -4    0.90    2.40
  -1  -1  -4    3.50    2.30
  -1  -1  -4    0.00    1.40
  -1  -1  -4   -0.80    1.40
   0   1   4  905.81   35.70
   0   1   4  881.61   35.60
   0   1   4  866.71   34.70
   0  -1  -4  880.01   34.80
   0  -1  -4  892.51   35.60
   0  -1  -4  867.41   34.80
  -1   1   4  710.03   28.70
  -1   1   4  674.43   27.00
  -1   1   4  674.43   27.00
   1  -1  -4  699.73   28.20
   1  -1  -4  680.63   27.80
   1  -1  -4  698.53   27.10
   1  -1  -4  694.23   28.60
   1  -1  -4  664.03   27.10
  -2   1   4 6449.55  245.18
  -2   1   4 6555.74  245.68
  -2   1   4 6450.45  245.68
  -2   1   4 6012.60  244.28
   2  -1  -4 6374.16  244.38
   2  -1  -4 6351.96  245.58
   2  -1  -4 6093.89  245.08
   2  -1  -4 6096.59  244.38
  -3   1   4   -1.90    5.10
  -3   1   4    3.20    2.70
  -3   1   4    4.30    3.30
  -3   1   4   -4.00    3.10
  -3   1   4    5.70    5.20
   3  -1  -4    0.10    2.70
   3  -1  -4    5.90    3.50
   3  -1  -4    1.90    2.90
   3  -1  -4   -0.20    4.30
  -4   1   4 1043.70   43.40
  -4   1   4  979.50   43.50
  -4   1   4 1016.30   43.10
  -4   1   4 1019.60   42.30
  -4   1   4 1032.40   42.20
   4  -1  -4 1009.40   43.30
   4  -1  -4 1018.10   42.30
   4  -1  -4 1038.40   42.20
   4  -1  -4 1024.30   41.10
  -5   1   4   91.39   10.40
  -5   1   4   98.39    9.60
  -5   1   4   98.29    9.40
  -5   1   4   83.39    9.40
  -5   1   4  107.09   11.60
   5  -1  -4  105.49    9.70
   5  -1  -4   94.79   11.50
   5  -1  -4   95.99    9.60
   5  -1  -4   95.89   10.40
   5  -1  -4  108.49    6.40
  -6   1   4  155.18   12.70
  -6   1   4  140.49   14.20
  -6   1   4  135.99   13.20
  -6   1   4  154.78   13.10
  -6   1   4  173.58   16.80
   6  -1  -4  149.49   13.70
   6  -1  -4  151.78   13.40
   6  -1  -4  169.08   14.00
   6  -1  -4  123.99   13.90
  -7   1   4   89.09   15.40
  -7   1   4  120.19   15.40
  -7   1   4   83.69   12.70
  -7   1   4   90.99   13.00
  -7   1   4   97.79   13.20
   7  -1  -4   90.09   16.20
   7  -1  -4  114.89   13.90
   7  -1  -4  125.89   16.10
   7  -1  -4   94.09   15.40
  -8   1   4  191.88   19.80
  -8   1   4  159.28   18.90
   8  -1  -4  142.39   19.20
   8  -1  -4  136.79   17.70
   8  -1  -4  162.68   18.50
   8   2   3  249.58   25.80
   8   2   3  265.47   19.90
   8   2   3  258.57   26.80
   8   2   3  220.08   17.80
  -8  -2  -3  259.07   24.80
  -8  -2  -3  252.87   22.30
  -8  -2  -3  313.07   25.20
   7   2   3  146.79   15.80
   7   2   3  159.98   16.10
   7   2   3  134.29   11.70
   7   2   3  105.29   13.10
  -7  -2  -3   99.89   12.90
  -7  -2  -3   94.49   11.60
  -7  -2  -3  127.69   16.30
  -7  -2  -3   90.79   11.90
   6   2   3 1932.11   80.89
   6   2   3 1933.21   80.79
   6   2   3 2037.20   80.29
   6   2   3 1919.41   78.29
  -6  -2  -3 1976.30   80.69
  -6  -2  -3 2044.40   81.49
  -6  -2  -3 1884.31   80.69
  -6  -2  -3 1932.11   79.69
   5   2   3   84.99    9.20
   5   2   3   70.39    6.80
   5   2   3   80.49    8.10
   5   2   3   80.89   10.80
  -5  -2  -3   73.09    8.40
  -5  -2  -3   81.19   10.40
  -5  -2  -3   86.89    9.10
  -5  -2  -3   81.39    7.90
   4   2   3 1191.38   53.19
   4   2   3 1344.17   53.49
   4   2   3 1331.87   51.39
   4   2   3 1298.97   52.59
  -4  -2  -3 1321.17   52.39
  -4  -2  -3 1267.87   55.39
  -4  -2  -3 1279.87   53.39
   3   2   3  549.05   23.20
   3   2   3  519.15   22.30
   3   2   3  503.55   23.50
  -3  -2  -3  518.05   22.10
  -3  -2  -3  533.55   23.50
  -3  -2  -3  513.45   23.40
   2   2   3 4044.50  162.38
   2   2   3 4342.37  163.38
   2   2   3 4157.18  163.28
  -2  -2  -3 4154.18  163.28
  -2  -2  -3 4282.17  162.28
  -2  -2  -3 4023.90  161.88
  -2  -2  -3 4222.88  163.38
   1   2   3 2306.97   96.09
   1   2   3 2408.86   95.89
  -1  -2  -3 2553.64   96.09
  -1  -2  -3 2502.25   95.99
   0   2   3  160.08    8.10
   0   2   3  166.78    8.20
   0   2   3  153.48    7.00
   0   2   3  164.48    8.40
   0   2   3  159.48    6.80
   0  -2  -3  148.79    7.90
   0  -2  -3  167.48    7.00
   0  -2  -3  159.08    8.00
  -1   2   3  248.08   11.20
  -1   2   3  252.27   11.40
  -1   2   3  249.28   11.50
  -1   2   3  249.88   12.00
   1  -2  -3  256.27   11.50
   1  -2  -3  263.97   11.90
   1  -2  -3  266.77   11.30
   1  -2  -3  231.68   11.50
  -2   2   3 1480.35   58.89
  -2   2   3 1455.25   58.79
  -2   2   3 1542.75   59.09
  -2   2   3 1456.95   59.19
  -2   2   3 1530.55   59.39
   2  -2  -3 1442.56   58.79
   2  -2  -3 1450.25   58.89
   2  -2  -3 1505.55   59.59
   2  -2  -3 1443.86   59.19
   2  -2  -3 1457.65   58.99
  -3   2   3  470.25   21.00
  -3   2   3  475.55   21.00
  -3   2   3  480.45   21.20
  -3   2   3  472.35   20.90
  -3   2   3  465.45   21.20
   3  -2  -3  462.85   20.80
   3  -2  -3  439.16   20.90
   3  -2  -3  509.85   21.50
   3  -2  -3  461.85   21.40
  -4   2   3  149.49   11.40
  -4   2   3  139.19   10.40
  -4   2   3  132.29   10.50
  -4   2   3  144.39   11.70
  -4   2   3  149.99   11.60
   4  -2  -3  151.08   10.10
   4  -2  -3  126.59   10.30
   4  -2  -3  152.48   11.50
   4  -2  -3  141.69    9.90
  -5   2   3  102.59   10.00
  -5   2   3   93.19   10.10
  -5   2   3   92.59   10.10
  -5   2   3   92.39    9.60
  -5   2   3   71.59   10.20
   5  -2  -3  102.99   10.10
   5  -2  -3   78.99   10.20
   5  -2  -3   90.49    9.10
   5  -2  -3   93.99    9.90
  -6   2   3  287.77   20.10
  -6   2   3  255.47   16.60
  -6   2   3  278.07   18.30
  -6   2   3  254.27   18.60
  -6   2   3  279.67   17.00
   6  -2  -3  272.37   18.40
   6  -2  -3  306.07   20.60
   6  -2  -3  309.27   16.00
   6  -2  -3  285.27   18.10
  -7   2   3  360.26   21.90
  -7   2   3  392.96   24.80
  -7   2   3  400.36   25.60
  -7   2   3  432.26   25.10
  -7   2   3  384.86   28.00
   7  -2  -3  438.66   25.80
   7  -2  -3  382.06   24.50
   7  -2  -3  397.86   20.40
   7  -2  -3  387.56   24.20
  -8   2   3   16.90   12.10
  -8   2   3   25.40   14.20
  -8   2   3   21.50   15.80
   8  -2  -3   38.80   15.40
   8  -2  -3   20.60   12.30
   8  -2  -3   31.80   16.90
   8   3   2    8.90   13.20
   8   3   2   28.80   11.00
   8   3   2   15.10   11.40
   8   3   2   26.90   12.70
  -8  -3  -2   17.20   15.70
  -8  -3  -2   24.80   14.40
  -8  -3  -2   16.20   10.00
   7   3   2  408.56   26.00
   7   3   2  430.86   24.90
   7   3   2  446.46   26.70
   7   3   2  388.26   22.00
  -7  -3  -2  438.66   25.90
  -7  -3  -2  414.66   24.30
  -7  -3  -2  361.26   23.40
  -7  -3  -2  393.86   22.90
   6   3   2  182.78   12.60
   6   3   2  144.09   14.50
   6   3   2  160.18   16.20
   6   3   2  171.98   12.00
  -6  -3  -2  160.08   15.90
  -6  -3  -2  168.18   14.00
  -6  -3  -2  154.88   14.30
  -6  -3  -2  184.68   16.10
   5   3   2   37.50    6.60
   5   3   2   37.30    5.60
   5   3   2   36.60    7.20
  -5  -3  -2   41.20    7.00
  -5  -3  -2   32.40    8.30
  -5  -3  -2   41.80    7.10
   4   3   2   96.79    8.90
   4   3   2  106.49    8.80
   4   3   2  100.79    7.90
   4   3   2  100.89    8.60
  -4  -3  -2  101.39    8.10
  -4  -3  -2  104.99    9.00
   3   3   2 3280.17  129.39
   3   3   2 3174.98  129.39
   3   3   2 3253.87  128.39
  -3  -3  -2 3444.06  129.59
  -3  -3  -2 3391.76  129.59
  -3  -3  -2 3111.19  128.19
   2   3   2 1178.08   47.30
   2   3   2 1158.18   47.30
   2   3   2 1157.48   46.10
  -2  -3  -2 1139.99   47.10
  -2  -3  -2 1184.68   47.20
  -2  -3  -2 1115.69   46.20
   1   3   2  964.20   41.90
   1   3   2 1124.19   41.90
  -1  -3  -2 1019.70   42.00
  -1  -3  -2  994.80   41.90
   0   3   2  631.14   25.00
   0   3   2  581.14   25.00
   0   3   2  581.54   24.90
   0   3   2  599.84   23.90
   0  -3  -2  571.44   25.00
   0  -3  -2  553.34   24.90
  -1   3   2  137.29    9.20
  -1   3   2  152.58    8.20
  -1   3   2  145.19    9.00
  -1   3   2  165.18    8.70
   1  -3  -2  153.68    9.70
   1  -3  -2  138.89    8.30
   1  -3  -2  161.78    9.10
  -2   3   2  919.11   40.70
  -2   3   2 1008.10   40.70
  -2   3   2  965.00   40.40
  -2   3   2 1026.70   40.40
   2  -3  -2 1005.90   40.50
   2  -3  -2  968.50   39.90
   2  -3  -2 1001.40   40.80
   2  -3  -2  972.00   40.50
   2  -3  -2  980.90   41.50
  -3   3   2 1512.45   62.29
  -3   3   2 1508.95   62.09
  -3   3   2 1495.15   61.39
  -3   3   2 1456.15   62.09
  -3   3   2 1678.93   63.59
   3  -3  -2 1540.35   62.39
   3  -3  -2 1493.95   62.09
   3  -3  -2 1564.14   63.09
   3  -3  -2 1527.15   62.19
  -4   3   2  202.88   12.30
  -4   3   2  202.88   12.40
  -4   3   2  205.48   13.40
  -4   3   2  207.58   14.20
   4  -3  -2  197.28   14.20
   4  -3  -2  237.78   13.70
   4  -3  -2  208.78   13.90
   4  -3  -2  204.28   13.70
  -5   3   2  541.15   27.20
  -5   3   2  593.34   28.20
  -5   3   2  554.54   26.70
  -5   3   2  550.04   27.40
  -5   3   2  579.44   27.60
   5  -3  -2  601.94   28.90
   5  -3  -2  612.54   28.40
   5  -3  -2  579.64   28.30
   5  -3  -2  628.14   30.20
  -6   3   2   75.19   10.50
  -6   3   2   90.79   12.00
  -6   3   2   98.79   13.20
  -6   3   2   97.99   13.20
  -6   3   2   91.59   10.60
   6  -3  -2   73.89   10.10
   6  -3  -2   83.59   12.80
   6  -3  -2   90.49   13.00
   6  -3  -2   80.09   12.00
  -7   3   2   14.20   13.50
  -7   3   2    7.60   10.00
  -7   3   2    1.40   10.80
  -7   3   2   -5.80   14.10
  -7   3   2   -3.20    9.60
   7  -3  -2   16.20    9.00
   7  -3  -2    4.30   13.20
   7  -3  -2   43.20   13.70
   7  -3  -2   22.80   13.10
   8   4   1   18.10   11.60
   8   4   1   11.50   12.10
   8   4   1    4.90   12.50
   8   4   1  -11.00   16.20
  -8  -4  -1    6.90    8.60
  -8  -4  -1   21.70   15.50
   7   4   1  260.37   19.10
   7   4   1  259.07   19.10
   7   4   1  211.58   22.80
   7   4   1  242.38   17.50
  -7  -4  -1  211.98   22.80
  -7  -4  -1  265.17   22.80
  -7  -4  -1  267.77   17.90
   6   4   1   63.89    9.30
   6   4   1   70.39    8.70
   6   4   1   53.49   11.60
   6   4   1   57.59   12.40
  -6  -4  -1   66.99   11.70
  -6  -4  -1   61.99    9.70
   5   4   1    8.70    6.80
   5   4   1   -0.40    6.10
   5   4   1   -2.10    8.20
  -5  -4  -1    8.10    6.20
  -5  -4  -1   21.10    8.90
  -5  -4  -1    4.30    6.40
   4   4   1  107.49    9.90
   4   4   1  123.59   10.90
   4   4   1   96.69    9.40
  -4  -4  -1  104.89   10.80
  -4  -4  -1  118.49    9.60
   3   4   1  117.39   10.90
   3   4   1  109.19    8.80
   3   4   1  138.49   10.90
  -3  -4  -1  128.59    9.40
  -3  -4  -1  123.89    9.40
  -3  -4  -1  127.89    9.30
   2   4   1  144.19   10.70
   2   4   1  131.99    9.20
  -2  -4  -1  153.08    9.90
  -2  -4  -1  158.48    9.70
  -2  -4  -1  137.09   10.60
   1   4   1   28.40    4.90
   1   4   1   25.70    3.30
  -1  -4  -1   23.30    5.60
  -1  -4  -1   22.50    4.70
   0   4   1  130.69    8.60
   0   4   1  142.89    8.40
   0   4   1  101.39    9.20
   0   4   1  121.69    6.40
   0  -4  -1  130.99    8.60
   0  -4  -1  140.19   11.40
   0  -4  -1  112.89    8.20
  -1   4   1  124.19    8.90
  -1   4   1  131.29    8.50
  -1   4   1  114.29    9.40
  -1   4   1  114.49    8.40
   1  -4  -1  116.79    9.80
   1  -4  -1  101.19    6.90
   1  -4  -1  118.09    9.60
   1  -4  -1  128.19    9.70
  -2   4   1 1995.60   81.49
  -2   4   1 2021.60   82.19
  -2   4   1 2084.49   82.39
  -2   4   1 2067.89   81.49
   2  -4  -1 2230.38   90.59
   2  -4  -1 2003.30   80.29
   2  -4  -1 1998.40   80.49
   2  -4  -1 2019.70   82.09
   2  -4  -1 1972.20   82.19
  -3   4   1  107.19    9.50
  -3   4   1  109.99    9.00
  -3   4   1  116.59   12.10
  -3   4   1  124.89    9.90
   3  -4  -1  110.59   10.70
   3  -4  -1  132.49   12.90
   3  -4  -1  103.49    9.40
   3  -4  -1  103.69    9.00
  -4   4   1   16.40    7.70
  -4   4   1   22.00    8.60
  -4   4   1   22.10    6.00
  -4   4   1   24.80    6.60
   4  -4  -1   28.90    6.50
   4  -4  -1   28.10    8.60
   4  -4  -1   28.90    8.40
   4  -4  -1   24.80    7.40
  -5   4   1  467.65   23.00
  -5   4   1  419.66   22.00
  -5   4   1  457.85   24.80
  -5   4   1  415.16   22.70
   5  -4  -1  413.56   22.70
   5  -4  -1  430.66   24.10
   5  -4  -1  428.26   24.70
   5  -4  -1  426.86   22.90
  -6   4   1  252.17   21.20
  -6   4   1  177.58   15.60
  -6   4   1  196.08   17.00
  -6   4   1  192.98   15.60
  -6   4   1  214.48   20.20
   6  -4  -1  219.48   19.30
   6  -4  -1  230.98   20.50
   6  -4  -1  215.98   16.70
  -7   4   1   33.70   10.60
  -7   4   1   41.80   15.60
  -7   4   1    3.40   10.80
   7  -4  -1   13.00   13.20
   7  -4  -1   -2.70   15.60
   7  -4  -1   -0.90   14.90
   7  -4  -1    6.30   12.10
   8   5   0  143.09   20.70
   8   5   0  120.39   18.40
   8   5   0  146.29   21.90
  -8  -5   0  140.99   25.60
  -8  -5   0  134.49   15.70
   7   5   0  262.67   25.20
   7   5   0  278.97   20.40
   7   5   0  253.17   25.70
  -7  -5   0  304.47   24.00
  -7  -5   0  246.48   25.90
  -7  -5   0  261.77   20.40
   6   5   0   58.99   13.20
   6   5   0   58.29   10.90
   6   5   0   66.89   10.60
  -6  -5   0   80.19   12.90
  -6  -5   0   62.89   10.80
  -6  -5   0   63.19   10.50
   5   5   0  105.39   11.10
   5   5   0   96.89   11.10
   5   5   0  100.99   10.80
  -5  -5   0  113.99   11.80
  -5  -5   0  121.69   11.50
  -5  -5   0  107.39   10.60
   4   5   0  165.48   12.90
   4   5   0  189.28   14.90
   4   5   0  168.08   14.20
  -4  -5   0  192.58   15.20
  -4  -5   0  144.89   11.30
  -4  -5   0  160.38   12.40
   3   5   0  309.57   17.40
  -3  -5   0  280.27   16.50
  -3  -5   0  274.37   16.90
  -3  -5   0  278.27   16.10
   2   5   0   81.69    9.50
   2   5   0   95.89    8.80
  -2  -5   0   88.09    9.40
  -2  -5   0  114.69   10.90
  -2  -5   0   90.79    9.60
  -2  -5   0   91.09    8.70
   1   5   0 3088.19  122.09
   1   5   0 2997.60  123.89
   1   5   0 2971.60  123.79
  -1  -5   0 3274.77  125.39
  -1  -5   0 3022.90  123.89
  -1  -5   0 3313.27  124.09
   0   5   0  241.28   12.00
   0   5   0  270.77   14.90
   0   5   0  242.78   15.10
   0  -5   0  230.48   15.10
   0  -5   0  245.78   15.00
   0  -5   0  250.27   15.40
  -1   5   0  943.91   39.90
  -1   5   0  947.41   39.50
  -1   5   0  988.00   40.40
  -1   5   0  895.01   40.60
   1  -5   0  983.50   40.90
   1  -5   0  955.30   41.80
   1  -5   0  898.61   38.10
   1  -5   0  895.41   40.10
  -2   5   0  606.64   27.40
  -2   5   0  556.04   26.00
  -2   5   0  590.14   27.20
  -2   5   0  521.15   27.00
   2  -5   0  606.04   24.00
   2  -5   0  601.24   28.10
   2  -5   0  579.54   25.50
   2  -5   0  620.94   28.20
   2  -5   0  596.64   29.90
  -3   5   0   44.90    7.20
  -3   5   0   43.30    7.60
  -3   5   0   34.30    8.40
  -3   5   0   55.89    9.80
   3  -5   0   50.39    8.10
   3  -5   0   50.99    9.70
   3  -5   0   56.59    6.80
  -4   5   0  452.35   25.40
  -4   5   0  394.06   24.60
  -4   5   0  439.46   22.40
  -4   5   0  454.65   25.60
  -4   5   0  459.15   24.80
   4  -5   0  467.15   23.00
   4  -5   0  474.45   23.80
   4  -5   0  455.95   25.30
   4  -5   0  459.45   27.00
  -5   5   0  392.46   23.70
  -5   5   0  440.26   24.10
  -5   5   0  417.16   22.70
  -5   5   0  459.75   24.80
   5  -5   0  443.26   24.30
   5  -5   0  427.26   24.50
   5  -5   0  443.26   27.40
  -6   5   0   89.79   13.90
  -6   5   0   97.59   16.50
  -6   5   0  114.09   12.40
  -6   5   0   78.39   18.90
   6  -5   0  100.69   13.90
   6  -5   0  107.99   15.50
   6  -5   0  121.19   18.10
   6  -5   0   91.29   15.50
  -7   5   0   -6.00   11.00
  -7   5   0    6.20   19.30
   7  -5   0   -1.80   16.90
   7  -5   0   22.30   19.50
   7  -5   0   15.70   16.20
   7  -5   0   -4.70   12.40
   7   6  -1   25.00   14.40
   7   6  -1   63.99   17.20
   7   6  -1   31.90   17.10
  -7  -6   1    2.50    9.00
  -7  -6   1   27.90   12.60
  -7  -6   1   43.60   17.20
   6   6  -1  236.88   19.40
   6   6  -1  268.87   22.80
   6   6  -1  254.27   21.30
  -6  -6   1  251.47   22.20
  -6  -6   1  268.37   21.20
  -6  -6   1  253.17   19.90
  -6  -6   1  249.97   19.80
   5   6  -1  219.98   16.20
   5   6  -1  212.88   19.10
   5   6  -1  186.78   17.90
  -5  -6   1  210.98   17.80
  -5  -6   1  176.18   18.80
  -5  -6   1  202.08   15.90
  -5  -6   1  207.98   16.90
   4   6  -1  199.18   15.10
   4   6  -1  226.38   16.50
   4   6  -1  210.98   17.40
  -4  -6   1  220.18   17.00
  -4  -6   1  246.68   18.20
  -4  -6   1  207.58   17.20
  -4  -6   1  237.48   18.10
   3   6  -1  693.43   34.10
   3   6  -1  725.23   33.30
   3   6  -1  789.42   34.40
  -3  -6   1  724.93   35.10
  -3  -6   1  778.42   39.00
  -3  -6   1  753.52   34.90
  -3  -6   1  788.02   35.50
   2   6  -1  343.77   18.70
   2   6  -1  327.27   17.90
   2   6  -1  361.66   20.80
  -2  -6   1  370.76   20.40
  -2  -6   1  316.27   21.40
  -2  -6   1  337.07   20.20
  -2  -6   1  329.57   18.60
   1   6  -1  824.52   34.80
   1   6  -1  844.22   37.40
  -1  -6   1  780.62   37.70
  -1  -6   1  851.11   37.30
  -1  -6   1  794.12   36.40
   0   6  -1  672.03   30.70
   0   6  -1  623.34   30.40
   0   6  -1  683.93   28.90
   0  -6   1  654.03   30.70
   0  -6   1  675.83   32.50
   0  -6   1  668.23   30.70
  -1   6  -1  649.43   32.00
  -1   6  -1  717.53   31.00
  -1   6  -1  656.73   30.70
  -1   6  -1  664.43   29.70
   1  -6   1  647.34   33.80
   1  -6   1  641.54   28.60
   1  -6   1  664.93   30.80
   1  -6   1  629.64   31.60
  -2   6  -1  462.45   25.00
  -2   6  -1  514.35   25.80
  -2   6  -1  547.35   25.50
  -2   6  -1  490.55   23.40
   2  -6   1  492.25   26.50
   2  -6   1  423.36   24.60
   2  -6   1  526.35   27.20
   2  -6   1  522.95   23.30
  -3   6  -1   59.69    9.80
  -3   6  -1   32.80    9.60
  -3   6  -1   37.90    8.30
  -3   6  -1   47.40    8.30
  -3   6  -1   45.60   11.10
   3  -6   1   44.60    7.60
   3  -6   1   38.10    8.90
   3  -6   1   55.19    9.60
   3  -6   1   66.49   10.20
  -4   6  -1   29.40   10.00
  -4   6  -1   24.40    8.60
  -4   6  -1   14.70    9.10
  -4   6  -1   25.30   12.00
  -4   6  -1   20.20    8.40
   4  -6   1   28.20    8.80
   4  -6   1   11.90   11.60
   4  -6   1   36.10   11.50
   4  -6   1   20.30   12.20
  -5   6  -1  376.36   27.50
  -5   6  -1  278.37   27.40
  -5   6  -1  318.97   27.20
  -5   6  -1  335.17   19.90
   5  -6   1  302.47   22.50
   5  -6   1  330.77   22.90
   5  -6   1  354.46   22.00
   5  -6   1  349.47   29.00
  -6   6  -1   34.50   17.00
  -6   6  -1   17.10   10.20
   6  -6   1    2.80   13.20
   6  -6   1  -33.80   19.10
   6  -6   1    0.80   16.10
   6  -6   1   -6.00   12.10
   6   7  -2   12.80   16.90
   6   7  -2   -7.20   13.50
   6   7  -2    0.20   13.90
  -6  -7   2   23.20   14.00
  -6  -7   2   22.50   12.70
  -6  -7   2    3.40   11.00
   5   7  -2   13.90   12.40
   5   7  -2   -3.90   14.20
   5   7  -2    5.60   12.60
  -5  -7   2   15.70    9.90
  -5  -7   2   31.00   12.80
  -5  -7   2   39.40   16.20
  -5  -7   2    9.70   10.60
   4   7  -2   24.30   10.20
   4   7  -2   60.29   10.90
  -4  -7   2   32.30   10.10
  -4  -7   2   55.19   13.30
  -4  -7   2   46.20   10.10
  -4  -7   2   31.20   10.90
   3   7  -2    4.40    7.90
   3   7  -2   34.30    8.80
   3   7  -2    6.60    8.20
  -3  -7   2   13.10   10.10
  -3  -7   2   20.80    8.80
  -3  -7   2   18.60    9.60
  -3  -7   2   22.70   11.70
   2   7  -2  135.89   11.80
   2   7  -2  149.99   15.00
   2   7  -2  169.18   16.40
  -2  -7   2  136.79   14.60
  -2  -7   2  145.19   13.40
  -2  -7   2  116.99   14.60
  -2  -7   2  138.09   14.50
   1   7  -2  250.67   15.40
   1   7  -2  246.28   18.40
   1   7  -2  232.68   16.30
  -1  -7   2  235.18   19.20
  -1  -7   2  238.38   18.40
  -1  -7   2  210.88   18.80
   0   7  -2   31.70    7.30
   0   7  -2   21.40    8.70
   0   7  -2   53.89   10.80
   0  -7   2   18.40   10.60
   0  -7   2   34.40   11.20
   0  -7   2   36.50    8.40
  -1   7  -2  103.49   13.80
  -1   7  -2  118.49   10.90
  -1   7  -2  107.59   12.90
  -1   7  -2  110.89   12.50
   1  -7   2   87.59   13.20
   1  -7   2   89.59   14.00
   1  -7   2   96.39    9.30
   1  -7   2  112.59   13.70
  -2   7  -2    7.90    8.50
  -2   7  -2    4.40    6.90
  -2   7  -2    0.20   11.20
  -2   7  -2   12.60   10.30
   2  -7   2    4.70    7.40
   2  -7   2   15.10   12.10
   2  -7   2    4.10    8.40
   2  -7   2   -9.00   10.80
  -3   7  -2   30.00   14.00
  -3   7  -2   33.00    8.20
  -3   7  -2   10.40    9.10
  -3   7  -2   62.99   13.90
   3  -7   2   27.30   11.20
   3  -7   2   33.60   13.50
   3  -7   2   31.20    9.50
   3  -7   2   39.50   13.80
  -4   7  -2  225.88   16.80
  -4   7  -2  256.27   25.80
  -4   7  -2  281.87   24.00
  -4   7  -2  234.48   22.40
   4  -7   2  212.88   24.40
   4  -7   2  242.88   22.50
   4  -7   2  249.28   25.00
   4  -7   2  269.77   19.00
  -5   7  -2  228.38   24.50
  -5   7  -2  260.67   18.80
   5  -7   2  259.67   22.80
   5  -7   2  249.48   23.80
   5   8  -3   46.70   16.70
   5   8  -3   74.79   19.30
   5   8  -3   49.40   12.70
   5   8  -3   59.99   16.70
  -5  -8   3   59.59   14.90
  -5  -8   3   25.50   14.60
  -5  -8   3   32.00   12.80
   4   8  -3  781.32   39.80
   4   8  -3  815.62   40.20
  -4  -8   3  859.11   42.20
  -4  -8   3  768.62   39.50
  -4  -8   3  773.52   42.20
   3   8  -3   78.09   15.90
   3   8  -3  119.89   13.80
   3   8  -3  137.99   17.20
  -3  -8   3  108.19   17.10
  -3  -8   3  104.19   15.80
  -3  -8   3   82.49   17.00
  -3  -8   3  122.89   17.40
   2   8  -3  309.27   20.10
   2   8  -3  281.37   24.10
   2   8  -3  300.17   21.20
  -2  -8   3  309.87   25.00
  -2  -8   3  318.27   27.10
  -2  -8   3  277.97   24.20
  -2  -8   3  287.87   24.00
   1   8  -3   31.50   14.00
   1   8  -3   13.20   13.70
   1   8  -3   11.70    9.10
  -1  -8   3   36.20   14.00
  -1  -8   3   18.00   13.00
  -1  -8   3   34.40   12.30
  -1  -8   3    5.70   13.30
   0   8  -3  166.78   15.20
   0   8  -3  209.28   17.50
   0   8  -3  180.48   16.70
   0   8  -3  173.28   17.00
   0  -8   3  161.68   10.00
   0  -8   3  173.18   18.40
   0  -8   3  212.78   19.60
   0  -8   3  175.18   19.70
  -1   8  -3   88.79   16.00
  -1   8  -3  108.79   14.00
  -1   8  -3  100.99   15.90
  -1   8  -3  103.49   11.20
   1  -8   3   87.89   18.50
   1  -8   3   87.49   15.10
   1  -8   3  145.69   17.80
  -2   8  -3   -0.20   16.60
  -2   8  -3    3.30   11.10
  -2   8  -3   -3.60    8.90
  -2   8  -3   -9.20   15.70
   2  -8   3   -4.40    9.20
   2  -8   3   -1.60   14.20
   2  -8   3   21.40   14.80
  -3   8  -3   71.59   11.10
  -3   8  -3   46.80   14.30
   3  -8   3   56.89   12.50
   3  -8   3   69.39   14.30
   3   9  -4   16.20   15.10
   3   9  -4  -14.50   14.80
   3   9  -4  -10.90   16.90
  -3  -9   4   57.09   18.80
  -3  -9   4  -32.00   17.90
  -3  -9   4   19.50   18.00
   2   9  -4   -3.40   11.90
   2   9  -4   20.80   14.10
   2   9  -4    3.30   14.60
  -2  -9   4    2.40   13.20
  -2  -9   4  -19.40   15.50
   1   9  -4  154.08   20.90
   1   9  -4  186.78   17.40
   1   9  -4  223.98   23.20
  -1  -9   4  192.18   22.00
  -1  -9   4  168.38   14.00
   0   9  -4  298.17   29.10
   0   9  -4  293.87   21.20
   0   9  -4  292.27   28.20
   0  -9   4  291.57   24.40
   0  -9   4  298.77   29.50
  -1   9  -4  107.49   21.60
  -1   9  -4  148.79   14.60
   1  -9   4  172.18   19.20
   3  -5  11  -12.00   13.90
   3  -5  11   10.20   22.60
   3  -5  11   25.10   17.40
  -3   5 -11   -1.60   15.80
  -3   5 -11   -4.50   13.90
  -3   5 -11  -14.00   18.80
   2  -5  11   24.00   12.70
   2  -5  11   33.90   13.00
  -2   5 -11    4.50   17.40
  -2   5 -11   47.20   14.00
   1  -5  11   87.39   14.20
   1  -5  11   72.79   14.40
   1  -5  11  108.09   13.70
   1  -5  11   73.89   13.40
   1  -5  11   81.59   14.90
  -1   5 -11   90.19   13.20
  -1   5 -11   51.79   16.70
   0  -5  11   61.89   15.90
   0  -5  11   64.99   11.50
   0  -5  11   61.99   15.20
   0  -5  11   75.79   12.20
   0   5 -11   70.49   16.60
   0   5 -11   78.69   12.20
   0   5 -11   65.59   11.80
  -1  -5  11  357.66   27.50
  -1  -5  11  358.56   21.00
  -1  -5  11  345.17   28.10
  -1  -5  11  350.76   22.20
   1   5 -11  323.47   28.10
   1   5 -11  338.37   21.10
  -2  -5  11   28.60   15.40
  -2  -5  11    9.60    9.50
  -2  -5  11   36.50   13.50
  -2  -5  11   26.50    9.40
   2   5 -11    3.10    8.20
   2   5 -11   16.90   13.70
  -3  -5  11    3.10   11.80
  -3  -5  11    2.90   15.00
  -3  -5  11    9.10    9.40
   3   5 -11    0.60   12.50
   3   5 -11   -3.00    8.80
   5  -4  10  152.08   16.20
   5  -4  10  124.69   17.60
   5  -4  10  161.58   19.00
  -5   4 -10  157.58   18.80
  -5   4 -10   96.39   23.20
  -5   4 -10  143.99   19.30
   4  -4  10   98.09   14.30
   4  -4  10   89.59   15.50
   4  -4  10   81.19   14.40
  -4   4 -10  121.19   15.10
  -4   4 -10   57.19   12.90
  -4   4 -10  116.79   18.00
  -4   4 -10   69.89   15.20
   3  -4  10  263.57   30.30
   3  -4  10  255.97   20.00
   3  -4  10  225.78   23.70
   3  -4  10  247.08   19.00
   3  -4  10  255.47   20.50
  -3   4 -10  248.78   29.00
  -3   4 -10  239.48   19.70
  -3   4 -10  234.08   22.70
  -3   4 -10  209.48   19.30
   2  -4  10  216.78   17.20
   2  -4  10  211.08   17.00
   2  -4  10  225.38   22.50
   2  -4  10  214.48   18.20
   2  -4  10  225.38   20.00
  -2   4 -10  229.58   19.20
  -2   4 -10  198.28   18.10
   1  -4  10 1486.55   65.09
   1  -4  10 1441.46   61.79
   1  -4  10 1483.55   66.79
   1  -4  10 1437.86   61.69
   1  -4  10 1478.35   63.29
  -1   4 -10 1438.26   62.09
  -1   4 -10 1499.95   65.19
  -1   4 -10 1564.24   67.59
  -1   4 -10 1476.35   62.19
   0  -4  10   32.90    9.00
   0  -4  10   42.60   13.40
   0  -4  10   37.00    9.10
   0  -4  10   51.59    9.70
   0  -4  10   34.70    8.20
   0   4 -10   34.00    9.00
   0   4 -10   44.60   12.00
   0   4 -10   57.69    8.20
   0   4 -10   38.40   13.00
  -1  -4  10 1006.10   48.00
  -1  -4  10 1039.00   43.50
  -1  -4  10 1051.19   46.50
  -1  -4  10 1033.70   43.80
   1   4 -10 1020.80   48.60
   1   4 -10 1028.80   48.40
   1   4 -10 1007.80   43.80
   1   4 -10 1046.30   44.20
  -2  -4  10   15.70   11.90
  -2  -4  10    5.20    5.80
  -2  -4  10    7.00    8.10
  -2  -4  10    7.20    6.30
  -2  -4  10    9.20    9.30
   2   4 -10    7.70    5.70
   2   4 -10    7.30    9.00
   2   4 -10   -2.80    6.60
   2   4 -10    8.60    9.80
  -3  -4  10   93.29    8.30
  -3  -4  10  102.59   16.00
  -3  -4  10   74.59   12.80
   3   4 -10   86.79   13.10
   3   4 -10   76.89   12.20
   3   4 -10   83.39    8.60
   3   4 -10   98.79    9.60
  -4  -4  10  193.78   13.70
  -4  -4  10  171.48   18.00
  -4  -4  10  199.28   20.70
  -4  -4  10  188.48   15.20
   4   4 -10  193.68   15.00
   4   4 -10  196.68   18.80
   4   4 -10  213.18   14.00
  -5  -4  10  293.67   26.50
  -5  -4  10  249.18   15.30
  -5  -4  10  246.58   22.40
   5   4 -10  250.27   18.40
   5   4 -10  272.07   27.20
   5   4 -10  248.28   16.50
   6  -3   9    3.40   12.30
   6  -3   9   -0.30   11.90
  -6   3  -9   22.70   15.50
  -6   3  -9  -20.80   18.70
  -6   3  -9   13.00   13.70
   5  -3   9  350.56   27.60
   5  -3   9  339.57   25.40
   5  -3   9  333.57   25.60
   5  -3   9  352.36   26.80
  -5   3  -9  331.97   23.30
  -5   3  -9  354.16   31.80
  -5   3  -9  340.47   23.00
  -5   3  -9  353.86   26.10
   4  -3   9  270.47   18.20
   4  -3   9  258.87   21.80
   4  -3   9  248.88   20.00
   4  -3   9  263.97   20.00
  -4   3  -9  251.87   20.80
  -4   3  -9  269.67   14.00
  -4   3  -9  265.97   21.30
   3  -3   9   55.99   10.10
   3  -3   9   28.80    9.50
   3  -3   9   52.89    8.90
   3  -3   9   45.40    9.90
   3  -3   9   39.10    8.40
  -3   3  -9   43.50    6.10
  -3   3  -9   24.00    9.30
  -3   3  -9   38.20   10.40
  -3   3  -9   41.90   10.60
  -3   3  -9   56.99    9.50
   2  -3   9    8.30    6.70
   2  -3   9   -1.00   10.10
   2  -3   9    1.80    9.70
   2  -3   9   15.60    8.00
   2  -3   9    5.70    7.20
  -2   3  -9    2.80    7.00
  -2   3  -9    8.50    9.70
  -2   3  -9    7.80    7.40
  -2   3  -9   12.90    5.50
  -2   3  -9   -1.20    6.00
   1  -3   9    9.60    9.80
   1  -3   9   18.10    6.20
   1  -3   9    3.80    8.70
   1  -3   9    7.20    5.70
   1  -3   9   11.40    5.90
  -1   3  -9    8.70    6.90
  -1   3  -9   13.60    9.30
  -1   3  -9   14.10    6.00
  -1   3  -9   26.00    8.20
  -1   3  -9   20.10    6.20
   0  -3   9  360.26   21.50
   0  -3   9  301.27   17.60
   0  -3   9  323.97   19.60
   0  -3   9  331.97   16.60
   0  -3   9  325.17   19.20
   0   3  -9  329.67   19.30
   0   3  -9  313.47   16.70
   0   3  -9  330.97   17.30
   0   3  -9  336.47   21.80
  -1  -3   9  163.78   10.30
  -1  -3   9  143.09   10.00
  -1  -3   9  156.88   15.00
   1   3  -9  173.88   16.20
   1   3  -9  174.68   15.80
   1   3  -9  166.88   10.50
   1   3  -9  161.28   11.20
  -2  -3   9  104.99   11.00
  -2  -3   9  100.69    8.00
  -2  -3   9   92.39   10.70
  -2  -3   9   85.39    9.90
   2   3  -9  101.89   10.70
   2   3  -9   93.69    8.00
   2   3  -9   76.09    9.80
   2   3  -9   84.59   12.50
   2   3  -9   91.19    7.80
  -3  -3   9  341.97   15.50
  -3  -3   9  328.97   19.10
  -3  -3   9  317.87   20.30
   3   3  -9  325.57   19.60
   3   3  -9  370.06   20.80
   3   3  -9  325.37   16.70
   3   3  -9  341.47   16.30
   3   3  -9  317.57   22.70
  -4  -3   9  456.05   27.70
  -4  -3   9  472.45   27.20
  -4  -3   9  518.85   22.20
   4   3  -9  494.95   22.80
   4   3  -9  497.55   23.60
   4   3  -9  449.46   29.10
   4   3  -9  526.45   23.50
   4   3  -9  536.65   27.50
   4   3  -9  525.75   29.00
  -5  -3   9  349.67   19.70
  -5  -3   9  296.47   21.70
  -5  -3   9  353.16   17.80
   5   3  -9  324.07   18.60
   5   3  -9  318.07   27.70
   5   3  -9  336.37   17.90
   5   3  -9  344.37   23.10
   5   3  -9  314.37   25.30
  -6  -3   9   57.29   16.70
  -6  -3   9   51.59    9.80
   6   3  -9   36.00    9.30
   6   3  -9   21.40   10.80
   6   3  -9   41.10   12.70
   7  -2   8    4.30   18.10
   7  -2   8    2.00   17.50
  -7   2  -8   12.40   14.80
  -7   2  -8    7.60   12.90
  -7   2  -8  -12.00   11.80
   6  -2   8  184.38   19.40
   6  -2   8  168.88   18.60
   6  -2   8  203.88   19.20
  -6   2  -8  181.88   18.70
  -6   2  -8  131.79   17.20
  -6   2  -8  188.28   19.60
  -6   2  -8  225.18   19.40
   5  -2   8  391.76   28.00
   5  -2   8  421.86   22.60
   5  -2   8  388.26   27.10
   5  -2   8  373.36   22.70
  -5   2  -8  416.36   24.30
  -5   2  -8  381.26   24.70
  -5   2  -8  388.36   24.50
  -5   2  -8  397.36   29.40
   4  -2   8  452.35   26.30
   4  -2   8  462.85   23.50
   4  -2   8  491.95   24.90
   4  -2   8  458.85   26.80
  -4   2  -8  457.75   27.00
  -4   2  -8  475.15   25.20
  -4   2  -8  472.05   25.50
  -4   2  -8  460.15   25.40
   3  -2   8   87.79    9.50
   3  -2   8   80.39   11.50
   3  -2   8   60.69    9.70
   3  -2   8   93.59    9.30
   3  -2   8   88.69    9.00
  -3   2  -8   79.49   10.60
  -3   2  -8   84.69    9.50
  -3   2  -8  103.09    9.90
  -3   2  -8   69.49    9.70
   2  -2   8  135.29   13.20
   2  -2   8  147.79   10.80
   2  -2   8  141.39   15.50
   2  -2   8  160.08   10.70
   2  -2   8  128.69   10.70
  -2   2  -8  113.39   12.20
  -2   2  -8  134.29   16.10
  -2   2  -8  121.49    9.70
  -2   2  -8  150.08   11.40
  -2   2  -8  123.69   11.60
   1  -2   8   45.80    5.90
   1  -2   8   46.80   10.10
   1  -2   8   46.60    6.20
   1  -2   8   38.50    7.50
   1  -2   8   48.30    7.20
  -1   2  -8   50.69    7.60
  -1   2  -8   41.80    6.60
  -1   2  -8   52.99    6.00
  -1   2  -8   45.30    9.00
  -1   2  -8   53.79    6.60
   0  -2   8 1174.48   46.50
   0  -2   8 1159.08   48.30
   0  -2   8 1024.50   48.50
   0  -2   8 1177.48   49.90
   0  -2   8 1155.78   49.40
   0   2  -8 1167.68   47.60
   0   2  -8 1182.18   49.70
   0   2  -8 1135.69   49.30
   0   2  -8 1128.99   46.70
   0   2  -8 1162.98   46.60
  -1  -2   8  225.38   21.80
  -1  -2   8  249.78   11.30
  -1  -2   8  211.78   12.70
  -1  -2   8  264.87   15.70
  -1  -2   8  244.78   13.70
   1   2  -8  248.98   11.80
   1   2  -8  260.07   15.70
   1   2  -8  227.68   12.00
   1   2  -8  236.18   16.30
   1   2  -8  256.57   14.80
   1   2  -8  235.88   15.50
  -2  -2   8  367.86   20.50
  -2  -2   8  370.46   19.50
  -2  -2   8  373.16   16.10
  -2  -2   8  398.66   20.00
   2   2  -8  406.26   21.40
   2   2  -8  381.96   16.80
   2   2  -8  376.96   20.00
   2   2  -8  376.16   19.60
  -3  -2   8  -12.00    5.60
  -3  -2   8   10.20    6.60
  -3  -2   8   -1.80    7.30
  -3  -2   8    6.40    2.70
  -3  -2   8    4.00    3.00
   3   2  -8    0.90    3.70
   3   2  -8    0.70    3.60
   3   2  -8   25.50    8.00
   3   2  -8   12.50    8.50
   3   2  -8    5.10    6.10
   3   2  -8    1.10    5.00
  -4  -2   8  153.28   13.40
  -4  -2   8  146.09   12.20
  -4  -2   8  152.68    9.30
  -4  -2   8  157.58    8.70
   4   2  -8  144.29    9.70
   4   2  -8  156.48   13.60
   4   2  -8  148.99   12.70
   4   2  -8  154.78   13.30
   4   2  -8  149.49   10.30
  -5  -2   8   41.30   12.20
  -5  -2   8   49.99    6.60
   5   2  -8   44.90    9.40
   5   2  -8   57.09   10.60
   5   2  -8   53.79    7.50
   5   2  -8   43.70    6.70
  -6  -2   8   86.79    9.90
  -6  -2   8  106.99   10.00
  -6  -2   8   78.89   12.80
   6   2  -8   90.29   15.40
   6   2  -8  123.49   15.30
   6   2  -8  113.99   10.50
   6   2  -8   84.89   10.60
  -7  -2   8  111.19   14.00
  -7  -2   8  166.88   20.80
  -7  -2   8  108.99   16.40
   7   2  -8   93.49   19.30
   7   2  -8  124.19   14.00
   7   2  -8  113.59   13.10
   7  -1   7  -31.00   24.20
  -7   1  -7   -2.10   16.40
  -7   1  -7   -1.00   14.70
  -7   1  -7    1.80   12.90
  -7   1  -7   -3.50   10.50
   6  -1   7   74.89   11.90
   6  -1   7   70.99   10.90
  -6   1  -7   80.89   12.50
  -6   1  -7   68.69   17.10
  -6   1  -7   61.69   11.70
  -6   1  -7   81.39   13.90
   5  -1   7   31.20    9.20
   5  -1   7   19.10   10.40
   5  -1   7    8.80    7.40
  -5   1  -7   19.90    7.90
  -5   1  -7   16.00    9.30
  -5   1  -7    7.40    8.40
  -5   1  -7   16.10    7.80
   4  -1   7  557.24   26.30
   4  -1   7  522.25   27.50
   4  -1   7  523.65   27.70
   4  -1   7  522.35   26.20
  -4   1  -7  549.65   26.30
  -4   1  -7  534.05   25.90
  -4   1  -7  524.45   27.90
  -4   1  -7  519.75   25.40
   3  -1   7  347.37   16.20
   3  -1   7  328.47   21.10
   3  -1   7  306.07   19.70
   3  -1   7  346.17   17.80
   3  -1   7  351.36   18.00
  -3   1  -7  369.86   18.00
  -3   1  -7  348.17   21.60
  -3   1  -7  366.06   18.00
  -3   1  -7  321.17   17.90
   2  -1   7   13.50    2.40
   2  -1   7   14.80    5.30
   2  -1   7    3.90    3.90
   2  -1   7    8.10    4.90
   2  -1   7   14.20    4.60
   2  -1   7    7.30    5.30
  -2   1  -7    8.30    7.20
  -2   1  -7   16.90    4.10
  -2   1  -7    9.80    5.20
  -2   1  -7   11.90    4.90
   1  -1   7 1522.95   60.59
   1  -1   7 1502.15   61.09
   1  -1   7 1557.34   63.59
   1  -1   7 1541.25   62.69
   1  -1   7 1539.05   60.09
   1  -1   7 1539.15   60.69
  -1   1  -7 1527.05   62.49
  -1   1  -7 1486.95   61.09
  -1   1  -7 1537.55   60.79
  -1   1  -7 1464.15   60.69
  -1   1  -7 1490.45   63.29
   0  -1   7  597.24   27.80
   0  -1   7  643.34   26.50
   0  -1   7  618.84   27.20
   0  -1   7  644.34   25.60
   0   1  -7  620.74   28.40
   0   1  -7  639.24   27.40
   0   1  -7  623.84   25.90
   0   1  -7  638.44   27.20
   0   1  -7  615.74   25.70
   0   1  -7  634.54   29.10
  -1  -1   7  491.35   23.00
  -1  -1   7  507.15   20.30
  -1  -1   7  506.35   20.30
  -1  -1   7  507.95   22.80
   1   1  -7  502.75   20.80
   1   1  -7  513.85   23.50
   1   1  -7  510.35   20.80
   1   1  -7  526.85   23.60
   1   1  -7  545.45   24.00
   1   1  -7  512.05   23.80
  -2  -1   7 1107.29   46.90
  -2  -1   7 1074.79   47.00
  -2  -1   7 1140.49   46.30
   2   1  -7 1113.99   46.60
   2   1  -7 1072.49   43.90
   2   1  -7 1147.39   46.30
   2   1  -7 1103.19   44.00
   2   1  -7 1110.19   46.60
   2   1  -7 1162.48   47.30
  -3  -1   7  973.70   42.80
  -3  -1   7  982.90   38.90
  -3  -1   7  993.20   42.50
  -3  -1   7  937.71   38.90
   3   1  -7  981.10   42.30
   3   1  -7 1074.99   43.20
   3   1  -7  966.20   39.40
   3   1  -7  975.90   39.40
   3   1  -7  967.70   41.70
   3   1  -7  994.20   40.30
  -4  -1   7 1150.08   51.49
  -4  -1   7 1156.88   48.70
  -4  -1   7 1274.37   48.90
  -4  -1   7 1237.78   52.59
   4   1  -7 1217.18   49.10
   4   1  -7 1298.17   52.39
   4   1  -7 1210.58   49.30
   4   1  -7 1190.08   51.89
  -5  -1   7  126.09   13.10
  -5  -1   7  134.39   12.40
  -5  -1   7  129.49   10.40
  -5  -1   7  141.89   10.10
   5   1  -7  139.19   11.20
   5   1  -7  146.49   10.20
   5   1  -7  144.39   12.80
   5   1  -7  144.09   15.00
  -6  -1   7  388.06   20.90
  -6  -1   7  419.26   20.50
  -6  -1   7  368.06   23.90
  -6  -1   7  374.46   26.20
   6   1  -7  303.87   27.80
   6   1  -7  399.56   20.90
   6   1  -7  430.46   27.20
   6   1  -7  371.76   20.20
  -7  -1   7  315.27   27.90
  -7  -1   7  372.06   22.30
  -7  -1   7  330.57   21.80
   7   1  -7  315.87   20.90
   7   1  -7  352.36   26.90
   7   1  -7  325.57   21.40
   8   0   6   30.00   18.60
   8   0   6   36.60    9.40
   8   0   6   28.60   15.50
  -8   0  -6   48.10   18.30
  -8   0  -6   29.70   17.50
   7   0   6  116.79   14.30
   7   0   6  128.69   11.10
   7   0   6  116.99   17.00
   7   0   6  108.39   15.20
  -7   0  -6  110.79   15.80
  -7   0  -6   99.09   14.50
  -7   0  -6  109.49   16.90
  -7   0  -6  121.19   12.70
   6   0   6  133.09   14.60
   6   0   6  111.89   14.50
   6   0   6  112.19   12.10
  -6   0  -6  133.49   13.80
  -6   0  -6  151.08   14.90
  -6   0  -6  133.69   14.80
  -6   0  -6  107.69   14.30
   5   0   6  454.35   23.10
   5   0   6  506.25   25.80
   5   0   6  508.35   25.60
  -5   0  -6  482.45   25.70
  -5   0  -6  456.05   25.30
  -5   0  -6  496.25   23.10
  -5   0  -6  482.55   25.70
   4   0   6 1195.58   52.09
   4   0   6 1313.07   52.69
  -4   0  -6 1278.37   54.69
  -4   0  -6 1132.49   51.99
  -4   0  -6 1297.57   53.09
  -4   0  -6 1285.77   51.69
   3   0   6 1148.79   44.40
   3   0   6 1098.49   46.90
   3   0   6 1107.19   46.40
   3   0   6 1143.49   46.60
  -3   0  -6 1127.99   46.30
  -3   0  -6 1142.89   45.90
  -3   0  -6 1088.99   46.60
  -3   0  -6 1082.89   48.60
   2   0   6 1315.97   52.69
   2   0   6 1327.47   51.59
   2   0   6 1255.77   51.59
   2   0   6 1352.86   50.39
   2   0   6 1252.47   50.29
  -2   0  -6 1232.28   53.69
  -2   0  -6 1294.77   51.19
  -2   0  -6 1165.68   51.39
  -2   0  -6 1256.17   51.49
   1   0   6 3233.48  127.09
   1   0   6 3174.28  127.09
   1   0   6 3202.18  127.19
   1   0   6 3257.77  128.49
   1   0   6 3394.86  127.09
  -1   0  -6 3149.88  127.29
  -1   0  -6 3308.67  129.59
  -1   0  -6 3244.38  127.29
  -1   0  -6 3243.38  127.09
  -1   0  -6 3331.17  128.49
   0   0   6  117.89    7.70
   0   0   6  125.79    7.70
   0   0   6  121.09    8.10
   0   0   6  121.19    5.50
   0   0   6  114.79    5.50
   0   0  -6  116.89    5.80
   0   0  -6  107.49    9.40
   0   0  -6  116.09    5.80
   0   0  -6  122.09    8.00
   0   0  -6  120.69    7.30
   0   0  -6  118.39    7.70
  -1   0   6  838.62   34.10
   1   0  -6  830.42   34.50
   1   0  -6  827.72   34.80
   1   0  -6  819.12   34.40
   1   0  -6  789.92   34.60
  -2   0   6 2925.71  111.29
  -2   0   6 2775.22  111.49
   2   0  -6 3081.59  113.39
   2   0  -6 2829.32  110.69
   2   0  -6 2908.61  111.39
   2   0  -6 2585.84  108.89
   2   0  -6 2804.72  111.19
   2   0  -6 2740.13  110.79
   2   0  -6 2639.34  108.89
  -3   0   6  211.18   14.30
  -3   0   6  212.58    9.70
  -3   0   6  199.48   12.50
  -3   0   6  222.48    9.70
   3   0  -6  211.28   10.10
   3   0  -6  210.18   10.70
   3   0  -6  234.88   13.10
   3   0  -6  210.18   10.00
   3   0  -6  214.18   14.40
  -4   0   6  404.86   17.10
  -4   0   6  329.97   18.70
  -4   0   6  338.97   19.50
   4   0  -6  333.47   16.50
   4   0  -6  359.56   16.30
   4   0  -6  366.06   19.00
   4   0  -6  339.57   19.10
  -5   0   6   43.90    8.50
  -5   0   6   83.09    8.00
  -5   0   6   51.79    6.60
  -5   0   6   26.80    9.50
   5   0  -6   50.29    7.40
   5   0  -6   63.59   10.80
   5   0  -6   54.89    6.80
   5   0  -6   42.80    9.40
  -6   0   6  146.79   13.80
  -6   0   6  129.19   15.40
  -6   0   6  152.78   13.50
  -6   0   6  170.08   13.20
   6   0  -6  125.59   14.20
   6   0  -6  141.99   13.00
   6   0  -6  114.19   12.40
   6   0  -6  173.38   15.40
  -7   0   6  179.78   16.40
  -7   0   6  205.68   20.40
  -7   0   6  190.38   18.00
  -7   0   6  195.08   17.00
   7   0  -6  183.68   18.70
   7   0  -6  202.78   19.10
   7   0  -6  155.98   16.60
   7   0  -6  225.98   18.10
   8   1   5   45.50    8.80
   8   1   5   53.69   14.80
   8   1   5   40.20   17.20
  -8  -1  -5   34.50   14.00
  -8  -1  -5   46.60   17.40
  -8  -1  -5   14.70   16.20
   7   1   5  190.38   18.70
   7   1   5  205.88   17.40
   7   1   5  217.58   17.40
   7   1   5  192.28   12.40
  -7  -1  -5  172.88   17.40
  -7  -1  -5  172.68   17.10
  -7  -1  -5  165.28   15.80
  -7  -1  -5  213.68   21.90
   6   1   5   20.70   10.80
   6   1   5   25.50    8.90
   6   1   5   39.20    8.70
   6   1   5   36.40    5.00
  -6  -1  -5   36.10    8.10
  -6  -1  -5   34.30   11.00
  -6  -1  -5   29.90    9.60
  -6  -1  -5   43.30    9.00
   5   1   5  670.23   33.20
   5   1   5  735.23   30.10
   5   1   5  746.13   33.00
   5   1   5  730.13   34.20
  -5  -1  -5  776.82   32.90
  -5  -1  -5  779.52   34.40
  -5  -1  -5  747.43   35.30
   4   1   5   96.29    4.90
   4   1   5   91.69    9.40
   4   1   5   98.29    8.50
   4   1   5  102.39   10.10
  -4  -1  -5   94.29    9.60
  -4  -1  -5  103.19    8.20
  -4  -1  -5   89.89    9.60
  -4  -1  -5   94.79    9.70
   3   1   5  233.08   13.20
   3   1   5  260.27   12.30
   3   1   5  232.28   17.90
  -3  -1  -5  231.68   14.90
  -3  -1  -5  224.98   13.00
  -3  -1  -5  226.28   13.00
  -3  -1  -5  245.18   11.90
   2   1   5 1748.13   68.19
   2   1   5 1689.73   68.59
   2   1   5 1644.04   68.09
   2   1   5 1805.42   67.69
  -2  -1  -5 1681.33   68.19
  -2  -1  -5 1745.23   68.29
  -2  -1  -5 1659.93   69.79
  -2  -1  -5 1702.53   67.29
   1   1   5 1084.99   42.10
   1   1   5 1044.00   41.70
   1   1   5 1038.70   42.50
   1   1   5 1057.49   41.70
  -1  -1  -5 1031.60   41.20
  -1  -1  -5 1035.30   41.80
  -1  -1  -5 1017.80   41.80
  -1  -1  -5 1039.90   41.20
   0   1   5 2373.46   95.19
   0   1   5 2611.34   96.49
   0   1   5 2457.65   96.39
   0  -1  -5 2364.46   95.29
   0  -1  -5 2351.26   95.29
   0  -1  -5 2486.15   96.09
   0  -1  -5 2499.65   96.39
  -1   1   5  888.01   35.80
   1  -1  -5  886.11   35.40
   1  -1  -5  866.51   35.30
   1  -1  -5  866.71   35.70
   1  -1  -5  878.41   34.70
   1  -1  -5  818.02   33.70
   1  -1  -5  833.82   33.70
  -2   1   5  620.74   27.90
  -2   1   5  660.63   25.80
  -2   1   5  653.03   25.80
  -2   1   5  664.53   28.20
   2  -1  -5  622.54   26.00
   2  -1  -5  684.03   28.50
   2  -1  -5  652.73   26.10
   2  -1  -5  625.24   27.20
   2  -1  -5  640.44   27.80
  -3   1   5    3.20    4.60
  -3   1   5    5.40    2.90
  -3   1   5   -0.80    5.50
  -3   1   5    2.60    4.30
  -3   1   5    4.90    2.90
   3  -1  -5    1.90    5.80
   3  -1  -5    5.30    3.10
   3  -1  -5    6.60    2.80
   3  -1  -5    4.90    4.80
  -4   1   5  538.05   24.50
  -4   1   5  513.45   22.40
  -4   1   5  482.65   24.90
  -4   1   5  495.45   24.80
  -4   1   5  504.75   22.70
   4  -1  -5  504.45   24.30
   4  -1  -5  529.15   21.70
   4  -1  -5  503.35   22.50
   4  -1  -5  501.95   22.30
   4  -1  -5  506.25   24.30
  -5   1   5   -3.50    6.10
  -5   1   5   11.70    7.50
  -5   1   5    4.00    7.10
  -5   1   5   -0.90    8.80
  -5   1   5    6.90    5.20
   5  -1  -5   -1.20    4.90
   5  -1  -5   -0.10    6.10
   5  -1  -5   -3.30    6.20
   5  -1  -5    1.20    1.90
   5  -1  -5   -1.50    7.80
  -6   1   5   28.60    7.80
  -6   1   5   32.50    8.80
  -6   1   5   13.80    9.90
  -6   1   5   27.70   10.40
  -6   1   5   26.00   10.30
   6  -1  -5   32.40    8.40
   6  -1  -5   31.90   11.90
   6  -1  -5   29.50   10.80
   6  -1  -5   31.80    7.90
  -7   1   5   25.60   11.60
  -7   1   5   64.59   10.70
  -7   1   5   72.79   15.00
  -7   1   5   71.89   12.40
  -7   1   5   65.19   15.20
   7  -1  -5   50.39   11.50
   7  -1  -5   67.59   16.70
   7  -1  -5   53.89   12.10
   7  -1  -5   40.30   14.30
  -8   1   5   -7.90   13.60
  -8   1   5   30.10   12.70
  -8   1   5   31.90   14.70
   8  -1  -5   41.00   17.80
   8  -1  -5   52.89   14.20
   8   2   4    9.00    8.30
   8   2   4   16.40   12.40
   8   2   4   10.40    9.30
   8   2   4    7.20   14.30
  -8  -2  -4   13.70   11.60
  -8  -2  -4   31.20   15.20
  -8  -2  -4   14.90   15.40
   7   2   4   76.99    8.20
   7   2   4   60.49   11.80
   7   2   4   71.59   14.70
   7   2   4   62.59   11.60
  -7  -2  -4   79.69   12.10
  -7  -2  -4   91.59   14.20
  -7  -2  -4   63.89   11.20
  -7  -2  -4   65.29    9.30
   6   2   4   66.79    9.90
   6   2   4   72.99    9.90
   6   2   4   65.59    6.40
   6   2   4   67.89   11.70
  -6  -2  -4   64.29    9.40
  -6  -2  -4   87.19   12.10
  -6  -2  -4   67.29    9.60
  -6  -2  -4   59.39    8.90
   5   2   4    8.80    3.40
   5   2   4   17.80    6.60
   5   2   4   12.10    5.80
   5   2   4   -1.30    5.70
  -5  -2  -4   -0.10    5.20
  -5  -2  -4    5.30    5.40
  -5  -2  -4   11.60    6.40
   4   2   4  124.89    9.50
   4   2   4  136.19   11.50
   4   2   4  131.19    9.50
   4   2   4  131.79    6.60
  -4  -2  -4  141.09   11.20
  -4  -2  -4  135.79    8.70
  -4  -2  -4  127.59   11.60
  -4  -2  -4  115.99    9.50
   3   2   4  173.88    9.20
   3   2   4  163.58   10.70
   3   2   4  176.48   10.20
  -3  -2  -4  152.58    9.80
  -3  -2  -4  175.68   10.90
  -3  -2  -4  181.78    9.10
   2   2   4 4514.05  178.08
   2   2   4 4529.65  178.08
  -2  -2  -4 4614.14  178.08
  -2  -2  -4 4568.94  178.08
  -2  -2  -4 4545.65  176.78
   1   2   4   60.49    5.40
   1   2   4   50.79    5.20
   1   2   4   47.80    4.90
   1   2   4   50.89    5.50
  -1  -2  -4   54.79    5.10
  -1  -2  -4   60.79    5.10
   0   2   4   90.19    6.40
   0   2   4  105.29    5.90
   0   2   4   94.99    6.00
   0  -2  -4   95.29    5.90
   0  -2  -4   97.09    5.60
   0  -2  -4   96.39    4.40
   0  -2  -4   98.79    6.00
  -1   2   4 4619.54  188.48
  -1   2   4 4912.61  189.58
  -1   2   4 4732.03  188.48
  -1   2   4 4853.81  188.48
   1  -2  -4 4578.24  188.48
   1  -2  -4 4774.42  188.38
   1  -2  -4 5010.60  188.48
   1  -2  -4 4929.51  188.58
   1  -2  -4 5223.98  189.58
  -2   2   4 2448.56   96.39
  -2   2   4 2556.74   97.19
  -2   2   4 2477.35   95.99
  -2   2   4 2403.46   96.09
   2  -2  -4 2527.75   97.09
   2  -2  -4 2323.27   96.29
   2  -2  -4 2376.76   96.09
   2  -2  -4 2451.85   96.09
  -3   2   4 1382.36   58.59
  -3   2   4 1532.45   57.99
  -3   2   4 1476.65   58.39
  -3   2   4 1392.76   58.79
   3  -2  -4 1413.26   57.99
   3  -2  -4 1477.35   58.69
   3  -2  -4 1435.06   58.59
   3  -2  -4 1401.36   57.89
   3  -2  -4 1463.45   58.89
  -4   2   4 1062.69   43.80
  -4   2   4  995.10   44.40
  -4   2   4 1033.00   44.50
  -4   2   4 1092.89   44.70
  -4   2   4 1127.59   43.90
   4  -2  -4 1073.69   43.70
   4  -2  -4 1029.70   44.20
   4  -2  -4 1012.00   43.80
   4  -2  -4 1016.60   43.70
  -5   2   4   92.39   10.90
  -5   2   4   78.09    9.50
  -5   2   4  101.89   10.80
  -5   2   4   80.49    9.50
  -5   2   4   96.79    9.50
   5  -2  -4  100.49    9.10
   5  -2  -4  108.79   11.20
   5  -2  -4   96.99   10.50
   5  -2  -4   97.69    9.60
  -6   2   4   72.39   10.70
  -6   2   4   58.39   10.40
  -6   2   4   65.39    9.50
  -6   2   4   56.99    9.80
  -6   2   4   63.79   11.20
   6  -2  -4   52.19    6.30
   6  -2  -4   64.99   12.30
   6  -2  -4   71.39   11.10
   6  -2  -4   53.29    9.50
  -7   2   4   23.00   12.70
  -7   2   4   11.60   12.30
  -7   2   4   23.30   11.20
  -7   2   4   21.30   10.80
  -7   2   4   -9.00   10.10
   7  -2  -4   26.50   12.10
   7  -2  -4   23.30   15.10
   7  -2  -4   29.10   10.60
   7  -2  -4   16.50    9.90
   7  -2  -4    9.40    5.00
  -8   2   4   85.89   17.20
  -8   2   4   45.90   16.50
   8  -2  -4   61.69   18.10
   8  -2  -4   67.39   17.30
   8  -2  -4   60.79   17.70
   8   3   3  316.67   27.50
   8   3   3  290.47   29.70
   8   3   3  255.77   23.80
  -8  -3  -3  294.47   25.80
  -8  -3  -3  292.77   22.90
  -8  -3  -3  279.67   22.90
   7   3   3  320.67   18.20
   7   3   3  349.17   24.70
   7   3   3  304.27   21.20
   7   3   3  309.17   21.60
  -7  -3  -3  309.17   21.10
  -7  -3  -3  315.17   21.70
  -7  -3  -3  366.36   24.30
  -7  -3  -3  334.47   21.70
   6   3   3  884.11   39.10
   6   3   3  822.42   36.90
   6   3   3  851.11   37.90
   6   3   3  769.72   34.70
  -6  -3  -3  783.22   38.50
  -6  -3  -3  817.62   37.90
  -6  -3  -3  808.82   36.00
  -6  -3  -3  828.42   38.50
   5   3   3  179.28   10.20
   5   3   3  173.38   12.50
   5   3   3  159.18   11.90
   5   3   3  155.38   12.40
  -5  -3  -3  158.58   12.30
  -5  -3  -3  180.08   12.10
  -5  -3  -3  168.38   12.40
   4   3   3   24.80    6.70
   4   3   3   26.10    6.00
   4   3   3   34.40    5.30
  -4  -3  -3   27.60    4.20
  -4  -3  -3   27.30    4.90
  -4  -3  -3   31.70    5.80
   3   3   3   99.49    9.50
   3   3   3  110.69    9.20
   3   3   3  102.29    7.10
  -3  -3  -3   95.59    6.60
  -3  -3  -3  106.79    8.00
  -3  -3  -3   97.89    8.10
   2   3   3 2137.69   85.39
   2   3   3 2253.47   86.89
   2   3   3 2038.80   86.59
  -2  -3  -3 2232.78   86.79
  -2  -3  -3 2245.68   86.99
   1   3   3  265.37   12.90
   1   3   3  258.07   13.00
  -1  -3  -3  261.07   12.90
  -1  -3  -3  255.17   12.80
   0   3   3    6.40    3.20
   0   3   3    4.00    3.40
   0   3   3    3.90    1.80
   0   3   3   -1.40    4.20
   0  -3  -3    7.60    2.70
   0  -3  -3    5.40    3.20
  -1   3   3 2147.69   86.49
  -1   3   3 2398.76   87.29
  -1   3   3 2277.37   87.49
  -1   3   3 2174.08   87.19
   1  -3  -3 2080.99   87.09
   1  -3  -3 2194.98   87.19
   1  -3  -3 2142.19   86.49
  -2   3   3  213.58   11.80
  -2   3   3  243.18   11.70
  -2   3   3  231.98   12.20
  -2   3   3  223.28   12.10
   2  -3  -3  230.88   11.80
   2  -3  -3  221.68   12.10
   2  -3  -3  233.48   12.20
   2  -3  -3  231.48   12.00
   2  -3  -3  240.48   12.90
  -3   3   3  743.53   31.20
  -3   3   3  709.73   30.90
  -3   3   3  724.33   30.90
  -3   3   3  723.33   31.10
   3  -3  -3  724.73   32.00
   3  -3  -3  712.73   30.90
   3  -3  -3  713.33   31.10
   3  -3  -3  703.73   31.10
   3  -3  -3  703.23   30.70
  -4   3   3  114.89   10.50
  -4   3   3   97.39   10.50
  -4   3   3  122.79    9.80
  -4   3   3  137.59   10.70
   4  -3  -3  112.49    9.80
   4  -3  -3  125.39   11.70
   4  -3  -3  135.69   10.70
   4  -3  -3  105.79   10.60
  -5   3   3  661.43   29.60
  -5   3   3  666.73   30.00
  -5   3   3  583.94   29.00
  -5   3   3  579.44   29.50
  -5   3   3  675.33   30.60
   5  -3  -3  621.74   29.50
   5  -3  -3  596.34   29.40
   5  -3  -3  631.24   29.30
   5  -3  -3  587.34   29.00
  -6   3   3  237.48   18.00
  -6   3   3  263.77   20.90
  -6   3   3  264.77   19.60
  -6   3   3  281.07   19.20
  -6   3   3  242.28   17.90
   6  -3  -3  307.47   21.40
   6  -3  -3  267.17   19.20
   6  -3  -3  255.87   19.70
   6  -3  -3  263.77   17.80
  -7   3   3  764.92   37.40
  -7   3   3  806.42   38.70
  -7   3   3  728.03   39.40
  -7   3   3  797.42   39.60
  -7   3   3  743.93   40.40
   7  -3  -3  751.32   38.80
   7  -3  -3  826.82   36.50
   7  -3  -3  756.82   39.30
   7  -3  -3  781.82   40.40
   8   4   2   61.79   19.10
   8   4   2   59.09   15.50
   8   4   2  125.99   19.10
   8   4   2   77.59   12.90
  -8  -4  -2   65.59   12.00
  -8  -4  -2  104.59   15.90
   7   4   2  145.79   14.30
   7   4   2  176.28   18.60
  -7  -4  -2  191.88   17.40
  -7  -4  -2  176.38   16.80
  -7  -4  -2  174.68   17.50
   6   4   2   34.70    9.10
   6   4   2   29.70    8.00
   6   4   2   22.90    8.60
  -6  -4  -2   34.40   10.70
  -6  -4  -2   36.70   11.40
   5   4   2   22.50    9.00
   5   4   2   23.60    8.70
   5   4   2   15.30    6.50
  -5  -4  -2   19.00    9.20
  -5  -4  -2   10.30    8.60
  -5  -4  -2   15.40    5.90
   4   4   2    2.70    4.70
   4   4   2    2.30    5.60
   4   4   2   -7.40    6.80
  -4  -4  -2   -6.00    6.80
  -4  -4  -2   -7.80    4.90
  -4  -4  -2   -0.30    4.30
   3   4   2 3349.66  135.89
   3   4   2 3571.24  136.09
   3   4   2 3474.55  134.79
  -3  -4  -2 3699.53  138.09
  -3  -4  -2 3246.98  135.89
  -3  -4  -2 3257.97  134.69
   2   4   2   50.69    5.90
   2   4   2   59.39    6.40
  -2  -4  -2   55.89    7.20
  -2  -4  -2   52.79    7.30
   1   4   2 6129.09  234.18
   1   4   2 5887.91  234.08
  -1  -4  -2 6317.77  234.28
  -1  -4  -2 5618.44  234.08
   0   4   2  347.17   16.50
   0   4   2  351.16   15.50
   0   4   2  344.07   16.80
   0   4   2  372.66   16.60
   0  -4  -2  350.16   17.10
   0  -4  -2  312.77   16.70
  -1   4   2 2107.69   85.09
  -1   4   2 2022.10   84.99
  -1   4   2 2153.98   84.39
  -1   4   2 2294.57   85.29
   1  -4  -2 1979.50   82.89
   1  -4  -2 2179.48   86.59
   1  -4  -2 2170.68   85.29
   1  -4  -2 2140.99   85.29
  -2   4   2   37.90    6.40
  -2   4   2   41.90    6.50
  -2   4   2   40.70    5.40
  -2   4   2   23.10    6.50
   2  -4  -2   39.80    5.60
   2  -4  -2   30.00    4.40
   2  -4  -2   36.90    5.50
  -3   4   2   23.90    6.60
  -3   4   2   17.70    4.50
  -3   4   2   23.70    7.30
  -3   4   2   18.80    5.90
   3  -4  -2   28.40    5.30
   3  -4  -2   22.70    5.50
   3  -4  -2   23.00    6.90
   3  -4  -2   24.30    6.60
  -4   4   2  473.75   24.30
  -4   4   2  493.35   23.30
  -4   4   2  465.35   23.40
  -4   4   2  482.05   24.10
   4  -4  -2  461.15   24.40
   4  -4  -2  475.35   24.50
   4  -4  -2  486.15   25.20
   4  -4  -2  496.65   24.30
  -5   4   2  249.38   16.50
  -5   4   2  251.67   17.70
  -5   4   2  225.88   17.80
  -5   4   2  243.78   16.00
   5  -4  -2  242.38   18.60
   5  -4  -2  230.78   17.90
   5  -4  -2  241.08   17.60
   5  -4  -2  235.48   18.10
  -6   4   2   -1.40    8.80
  -6   4   2    4.30    8.70
  -6   4   2   -0.20   10.90
  -6   4   2   27.80   11.20
  -6   4   2   -0.60   11.50
   6  -4  -2   12.40    9.10
   6  -4  -2    3.70   11.40
   6  -4  -2   13.30   11.50
  -7   4   2    7.40   13.30
  -7   4   2    0.00   10.10
  -7   4   2   -2.30   10.00
   7  -4  -2   20.50   14.20
   7  -4  -2   28.80   15.40
   7  -4  -2    9.70   12.40
   7  -4  -2    4.10   11.10
   8   5   1    4.00   17.80
   8   5   1   22.00   11.20
   8   5   1   46.30   20.70
  -8  -5  -1   24.70   11.00
  -8  -5  -1   19.60   18.30
   7   5   1  104.89   12.40
   7   5   1  133.59   17.80
   7   5   1  131.69   18.50
  -7  -5  -1  125.89   19.10
  -7  -5  -1  125.19   14.90
   6   5   1   47.80   10.40
   6   5   1   45.40   12.80
   6   5   1   64.89   12.60
  -6  -5  -1   72.19   12.80
  -6  -5  -1   61.09    9.70
  -6  -5  -1   63.59   12.60
   5   5   1   13.00    9.50
   5   5   1   -2.50   10.00
   5   5   1   13.20    7.50
  -5  -5  -1    1.70    6.50
  -5  -5  -1    8.40    9.00
  -5  -5  -1    3.20    7.20
   4   5   1  297.77   17.70
   4   5   1  362.56   18.80
   4   5   1  298.97   18.10
  -4  -5  -1  369.26   18.90
  -4  -5  -1  346.87   20.30
  -4  -5  -1  362.16   18.20
   3   5   1   26.80    7.90
  -3  -5  -1   32.50    6.70
  -3  -5  -1   29.80    7.90
  -3  -5  -1   36.10    9.70
   2   5   1  318.07   19.50
   2   5   1  425.56   19.10
  -2  -5  -1  381.76   19.90
  -2  -5  -1  384.76   19.00
   1   5   1    3.60    2.90
   1   5   1    3.50    6.40
   1   5   1  -10.40    5.50
  -1  -5  -1    1.70    6.10
  -1  -5  -1    9.20    4.90
  -1  -5  -1   12.00   11.90
   0   5   1  162.78   10.40
   0   5   1  136.69   10.20
   0   5   1  135.29    9.70
   0  -5  -1  146.89   11.90
   0  -5  -1  147.29   11.60
   0  -5  -1  163.98   12.10
  -1   5   1    4.70    5.30
  -1   5   1   10.30    6.40
  -1   5   1    2.80    6.40
  -1   5   1    0.70    4.50
   1  -5  -1    2.80    5.40
   1  -5  -1   11.00    3.20
   1  -5  -1   -1.70    5.80
   1  -5  -1   16.00    7.50
  -2   5   1  234.88   15.60
  -2   5   1  224.98   13.80
  -2   5   1  239.88   13.40
  -2   5   1  221.88   14.20
   2  -5  -1  237.78   11.80
   2  -5  -1  236.18   12.20
   2  -5  -1  278.47   15.90
   2  -5  -1  255.37   15.40
  -3   5   1  -10.70    6.50
  -3   5   1   -4.90    5.00
  -3   5   1    1.20    6.20
  -3   5   1    7.00    8.00
   3  -5  -1   -4.30    4.50
   3  -5  -1  -11.70    7.10
   3  -5  -1    7.10    7.80
   3  -5  -1   -0.10    5.50
  -4   5   1  142.09   14.10
  -4   5   1  157.88   13.60
  -4   5   1  148.39   12.40
  -4   5   1  116.89   12.60
   4  -5  -1  145.29   15.10
   4  -5  -1  150.38   15.00
   4  -5  -1  140.79   16.20
  -5   5   1  342.87   23.20
  -5   5   1  357.46   20.60
  -5   5   1  362.96   23.50
  -5   5   1  327.17   19.80
   5  -5  -1  308.97   23.20
   5  -5  -1  336.87   22.60
   5  -5  -1  320.67   23.50
   5  -5  -1  360.26   23.60
  -6   5   1  106.69   12.90
  -6   5   1   96.59   14.20
  -6   5   1   95.49   17.40
  -6   5   1  111.89   17.70
   6  -5  -1  108.59   13.40
   6  -5  -1   74.69   14.20
   6  -5  -1  134.19   17.40
   6  -5  -1  112.49   16.50
  -7   5   1   81.59   13.40
  -7   5   1   75.09   20.60
   7  -5  -1   64.09   18.10
   7  -5  -1   81.89   17.10
   7  -5  -1   58.49   17.40
   7  -5  -1   54.89   15.90
   7   6   0  139.19   17.20
   7   6   0  133.29   16.70
   7   6   0  121.99   19.10
  -7  -6   0  108.89   15.30
  -7  -6   0  141.99   20.30
  -7  -6   0  105.99   13.80
   6   6   0   23.10   10.30
   6   6   0   72.39   12.00
   6   6   0   31.00    9.00
  -6  -6   0   36.00   13.00
  -6  -6   0   59.59   12.20
  -6  -6   0   66.29   11.50
   5   6   0   72.69   10.90
   5   6   0   64.49   10.70
   5   6   0   78.99   11.00
  -5  -6   0  100.69   13.70
  -5  -6   0   73.59   13.00
  -5  -6   0   61.89   17.40
  -5  -6   0   68.39   10.70
   4   6   0  624.34   29.10
   4   6   0  534.55   28.30
   4   6   0  512.25   26.50
  -4  -6   0  491.45   26.90
  -4  -6   0  517.45   26.90
  -4  -6   0  589.44   27.40
   3   6   0   64.99   10.40
   3   6   0   72.69    9.10
  -3  -6   0   61.09   10.20
  -3  -6   0   65.29   10.60
  -3  -6   0   63.39    8.40
   2   6   0  242.58   13.80
   2   6   0  282.87   15.90
   2   6   0  264.17   17.40
  -2  -6   0  269.27   17.40
  -2  -6   0  282.97   17.80
  -2  -6   0  236.18   15.60
  -2  -6   0  268.87   18.80
   1   6   0  344.47   21.00
   1   6   0  378.86   17.60
   1   6   0  367.36   20.00
  -1  -6   0  369.76   21.50
  -1  -6   0  403.16   21.30
  -1  -6   0  397.56   20.20
   0   6   0  930.21   36.80
   0   6   0  798.12   35.90
   0   6   0  776.62   36.20
   0   6   0  839.02   33.80
   0  -6   0  803.52   36.40
   0  -6   0  745.63   36.70
   0  -6   0  808.02   38.90
  -1   6   0  293.97   19.40
  -1   6   0  305.87   17.10
  -1   6   0  312.17   18.90
   1  -6   0  285.97   17.30
   1  -6   0  317.07   19.60
   1  -6   0  331.57   17.90
   1  -6   0  304.27   14.80
  -2   6   0  294.37   19.00
  -2   6   0  278.07   16.10
  -2   6   0  274.27   18.50
  -2   6   0  286.27   18.00
   2  -6   0  264.57   14.60
   2  -6   0  260.87   16.80
   2  -6   0  279.17   12.50
   2  -6   0  271.37   20.60
   2  -6   0  306.47   19.10
  -3   6   0   54.39   11.10
  -3   6   0   51.99    9.50
  -3   6   0   50.69    8.40
  -3   6   0   37.00    7.80
   3  -6   0   53.09    7.10
   3  -6   0   59.49   11.30
   3  -6   0   45.00   10.50
   3  -6   0   53.19   11.40
  -4   6   0  742.93   33.60
  -4   6   0  787.02   37.70
  -4   6   0  700.23   37.10
  -4   6   0  718.53   36.90
   4  -6   0  786.02   38.00
   4  -6   0  705.73   35.60
   4  -6   0  779.02   37.40
   4  -6   0  735.63   34.10
  -5   6   0  309.57   19.40
  -5   6   0  284.17   25.80
  -5   6   0  252.67   25.30
  -5   6   0  319.37   26.10
   5  -6   0  269.77   26.60
   5  -6   0  305.37   25.00
   5  -6   0  326.57   25.30
   5  -6   0  304.17   19.80
  -6   6   0  153.68   14.20
   6  -6   0  151.98   20.60
   6  -6   0  167.68   22.20
   6  -6   0  167.28   22.00
   6  -6   0  162.08   16.60
   7   7  -1    5.90   14.30
  -7  -7   1   -7.00   13.90
   6   7  -1  146.49   17.10
   6   7  -1  193.28   21.20
   6   7  -1  145.59   17.30
  -6  -7   1  128.69   15.40
  -6  -7   1  211.38   21.30
  -6  -7   1  177.08   17.90
   5   7  -1   60.19   15.00
   5   7  -1   35.70   11.10
   5   7  -1   14.30   11.20
  -5  -7   1   40.60   11.80
  -5  -7   1   34.60   11.10
  -5  -7   1   63.99   14.60
  -5  -7   1   15.50   10.50
   4   7  -1  858.21   41.30
   4   7  -1  874.01   40.40
  -4  -7   1  867.11   43.40
  -4  -7   1  887.31   40.80
  -4  -7   1  963.80   43.30
  -4  -7   1  943.31   43.40
   3   7  -1   36.50   11.60
   3   7  -1   20.80    8.60
   3   7  -1   28.40    8.40
  -3  -7   1   14.20   10.50
  -3  -7   1   18.20    8.50
  -3  -7   1   31.50   11.50
  -3  -7   1   22.50    8.20
   2   7  -1  461.15   22.80
   2   7  -1  465.65   25.00
   2   7  -1  520.05   27.00
  -2  -7   1  429.06   24.50
  -2  -7   1  487.95   26.80
  -2  -7   1  511.85   25.30
  -2  -7   1  483.55   26.60
   1   7  -1   78.59   10.50
   1   7  -1   79.49   12.50
   1   7  -1   83.19    8.40
  -1  -7   1   91.89   11.00
  -1  -7   1   90.29   12.50
  -1  -7   1   78.39   10.20
   0   7  -1   54.89    9.60
   0   7  -1   62.79    7.40
   0   7  -1   64.39    9.60
   0   7  -1   57.29   11.90
   0  -7   1   47.20   10.80
   0  -7   1   40.00   10.80
   0  -7   1   59.09   10.40
  -1   7  -1 1003.20   41.90
  -1   7  -1  903.91   42.60
  -1   7  -1  905.31   42.40
  -1   7  -1  905.01   40.00
   1  -7   1  869.11   42.20
   1  -7   1  840.82   44.70
   1  -7   1  932.11   42.50
  -2   7  -1   89.69    9.70
  -2   7  -1   85.09   11.50
  -2   7  -1   77.79   13.80
  -2   7  -1   83.79   10.10
   2  -7   1   92.19    8.80
   2  -7   1   50.69   13.60
   2  -7   1   64.29   12.60
   2  -7   1   65.89   13.20
  -3   7  -1   -7.70   10.60
  -3   7  -1    3.70    7.60
  -3   7  -1   14.00    9.70
  -3   7  -1   -9.10   10.60
   3  -7   1    0.00   12.20
   3  -7   1    7.80    9.60
   3  -7   1   -1.00    7.50
   3  -7   1  -13.00    8.30
  -4   7  -1   63.49   13.40
  -4   7  -1   85.49   13.90
  -4   7  -1   86.49   14.20
  -4   7  -1   75.19   11.10
   4  -7   1   63.79   11.10
   4  -7   1   62.49   15.50
   4  -7   1   47.40   17.40
   4  -7   1   71.99   16.90
  -5   7  -1   18.60   10.60
  -5   7  -1   29.10   17.90
   5  -7   1   31.40   12.60
   5  -7   1   27.50   16.80
   5  -7   1   33.60   16.00
   5   8  -2  545.75   33.40
   5   8  -2  449.26   30.90
   5   8  -2  504.25   35.10
   5   8  -2  537.95   32.20
  -5  -8   2  549.35   32.70
  -5  -8   2  470.15   32.80
  -5  -8   2  494.85   30.30
   4   8  -2   47.70   11.90
   4   8  -2   30.40   15.60
  -4  -8   2   50.69   14.50
  -4  -8   2   20.30   12.50
  -4  -8   2   46.80   14.00
  -4  -8   2   54.69   15.70
   3   8  -2   43.80   10.00
   3   8  -2   40.50   14.70
   3   8  -2   43.80   13.40
  -3  -8   2   20.30   14.20
  -3  -8   2   25.40   13.60
  -3  -8   2   36.40   15.80
   2   8  -2    5.50    8.50
   2   8  -2    1.10    9.20
  -2  -8   2   -5.50    9.00
  -2  -8   2   17.10   13.20
  -2  -8   2    6.80   13.00
  -2  -8   2   17.30   15.30
   1   8  -2  321.37   25.20
   1   8  -2  297.27   21.40
   1   8  -2  360.16   20.10
  -1  -8   2  309.07   24.50
  -1  -8   2  353.56   22.20
  -1  -8   2  355.16   24.30
   0   8  -2   86.49   11.50
   0   8  -2  110.39   16.20
   0   8  -2   96.39   14.40
   0  -8   2   83.09   15.40
   0  -8   2  128.89   15.90
   0  -8   2   78.69   15.60
  -1   8  -2  443.06   29.20
  -1   8  -2  513.65   27.90
  -1   8  -2  529.45   26.30
   1  -8   2  448.06   30.50
   1  -8   2  510.95   30.50
   1  -8   2  481.45   30.50
  -2   8  -2   14.00    9.20
  -2   8  -2   13.90   15.00
  -2   8  -2   24.70   14.60
  -2   8  -2    1.50   11.80
   2  -8   2    1.70   14.30
   2  -8   2   29.70    8.70
   2  -8   2   29.90   12.50
   2  -8   2   12.10   11.80
  -3   8  -2   39.50   18.10
  -3   8  -2   59.79   10.30
  -3   8  -2   69.79   14.40
   3  -8   2   56.69   13.60
   3  -8   2   44.30   10.90
   3  -8   2   46.80   19.10
  -4   8  -2   78.69   12.10
  -4   8  -2   75.69   20.30
   4  -8   2   72.79   18.50
   4  -8   2   66.19   14.00
   3   9  -3   74.89   18.10
   3   9  -3   86.39   16.00
   3   9  -3   70.59   16.80
  -3  -9   3   55.29   20.00
  -3  -9   3  112.09   19.00
   2   9  -3  178.78   20.60
   2   9  -3  209.78   19.10
   2   9  -3  157.38   19.40
  -2  -9   3  167.18   18.50
  -2  -9   3  169.48   22.40
  -2  -9   3  179.18   29.90
   1   9  -3  -15.60   10.70
   1   9  -3   -6.50   15.40
   1   9  -3  -21.70   12.80
  -1  -9   3    4.20   12.00
  -1  -9   3   -0.50   15.80
   0   9  -3  210.18   25.40
   0   9  -3  278.27   27.90
   0   9  -3  254.37   20.80
   0  -9   3  263.37   22.20
  -1   9  -3   -4.60   10.90
  -1   9  -3   21.20   16.40
   1  -9   3   17.20   12.60
   1  -5  12   25.50   21.80
   1  -5  12   35.90   16.50
   1  -5  12   40.00   12.60
   1  -5  12   23.90   15.30
  -1   5 -12   43.30   14.80
  -1   5 -12   29.80   13.10
  -1   5 -12   38.70   13.30
   0  -5  12  197.18   20.20
   0  -5  12  173.18   22.40
   0  -5  12  245.28   24.80
   0  -5  12  226.58   18.80
   0   5 -12  212.68   24.10
   0   5 -12  179.28   19.20
   0   5 -12  241.58   20.80
  -1  -5  12   17.50   10.30
  -1  -5  12    9.80   11.00
  -1  -5  12   19.40   16.10
  -1  -5  12   18.20   16.60
   1   5 -12   45.10   10.50
   1   5 -12   12.90   10.60
   1   5 -12   25.40   15.60
  -2  -5  12   42.30   15.40
  -2  -5  12   47.40   16.90
  -2  -5  12   28.60    9.80
   2   5 -12    0.90   15.70
   2   5 -12   11.60    9.60
   2   5 -12   17.50   10.50
   4  -4  11  220.08   23.80
   4  -4  11  256.17   21.50
   4  -4  11  289.37   28.30
  -4   4 -11  232.48   26.20
  -4   4 -11  247.78   24.30
  -4   4 -11  245.78   22.60
   3  -4  11    0.00   14.80
   3  -4  11    9.50   12.00
   3  -4  11  -13.80   11.20
   3  -4  11   16.50   13.30
  -3   4 -11   17.00   13.60
  -3   4 -11   19.50   12.70
  -3   4 -11   13.00   16.70
  -3   4 -11   16.00   11.30
   2  -4  11   79.39   13.10
   2  -4  11   62.89   12.70
   2  -4  11   63.09   16.30
   2  -4  11   53.39   13.60
   2  -4  11   64.89   11.70
  -2   4 -11   27.80   14.50
  -2   4 -11   61.09   12.40
  -2   4 -11   74.09   16.60
   1  -4  11   12.80   13.30
   1  -4  11   -1.80    9.00
   1  -4  11   11.30    9.20
   1  -4  11   17.90   11.60
   1  -4  11    7.00   12.10
  -1   4 -11   11.40    9.20
  -1   4 -11   -7.50   11.10
  -1   4 -11   -2.60    8.70
   0  -4  11  310.47   18.00
   0  -4  11  331.17   26.60
   0  -4  11  328.37   21.90
   0  -4  11  281.47   24.60
   0  -4  11  301.87   20.00
   0   4 -11  285.27   26.60
   0   4 -11  318.47   27.10
   0   4 -11  305.77   18.70
   0   4 -11  299.17   19.50
  -1  -4  11  251.97   15.40
  -1  -4  11  284.17   23.00
  -1  -4  11  259.47   22.20
  -1  -4  11  235.68   14.70
   1   4 -11  235.28   21.70
   1   4 -11  234.78   15.30
   1   4 -11  229.38   22.60
   1   4 -11  257.27   16.80
  -2  -4  11   62.59    7.30
  -2  -4  11   65.49    7.20
  -2  -4  11   93.29   14.90
   2   4 -11   51.29    7.90
   2   4 -11   49.90    8.80
   2   4 -11   54.59   12.40
   2   4 -11   49.50   16.50
  -3  -4  11   72.79   15.60
  -3  -4  11   30.10   15.40
  -3  -4  11   45.50    6.40
  -3  -4  11   49.80    6.50
   3   4 -11   46.40   10.70
   3   4 -11   55.19    7.20
   3   4 -11   49.99    8.30
  -4  -4  11   11.20   14.20
  -4  -4  11    7.00    5.90
  -4  -4  11   -8.50   16.30
  -4  -4  11    7.00    5.80
   4   4 -11   -1.00    9.60
   4   4 -11   10.50    8.20
   4   4 -11    6.50   15.60
   4   4 -11   14.60    7.40
   5  -3  10  416.16   28.70
   5  -3  10  488.95   25.80
   5  -3  10  457.65   30.50
  -5   3 -10  460.85   33.30
  -5   3 -10  492.35   30.50
  -5   3 -10  533.45   38.40
  -5   3 -10  431.56   30.70
   4  -3  10   10.70   12.10
   4  -3  10   -3.10    8.80
   4  -3  10   -7.50   10.10
   4  -3  10    0.50   15.20
   4  -3  10   17.40   11.30
  -4   3 -10   -7.40   11.50
  -4   3 -10  -14.30   12.10
  -4   3 -10   -1.10    6.20
  -4   3 -10    2.90   11.20
  -4   3 -10  -15.30   13.90
   3  -3  10   26.60    9.50
   3  -3  10   40.50    9.00
   3  -3  10   25.50   13.30
   3  -3  10   26.40    9.50
  -3   3 -10   30.60    6.70
  -3   3 -10   20.40   10.10
  -3   3 -10   29.80   10.00
  -3   3 -10   22.70    8.50
   2  -3  10  147.09   13.30
   2  -3  10  152.28   14.10
   2  -3  10  132.59   16.20
   2  -3  10  152.98   15.20
   2  -3  10  156.68   14.20
  -2   3 -10  139.49   13.00
  -2   3 -10  156.08   13.80
  -2   3 -10  110.79   15.70
  -2   3 -10  133.69   11.60
  -2   3 -10  137.59   13.80
   1  -3  10  526.95   31.10
   1  -3  10  584.34   28.80
   1  -3  10  556.14   27.30
   1  -3  10  598.64   27.10
   1  -3  10  583.14   32.60
  -1   3 -10  582.74   33.20
  -1   3 -10  592.14   27.80
  -1   3 -10  615.84   27.30
  -1   3 -10  565.24   29.60
  -1   3 -10  621.94   27.50
   0  -3  10  212.68   17.30
   0  -3  10  233.48   13.70
   0  -3  10  234.18   13.40
   0  -3  10  260.77   19.40
   0  -3  10  212.48   19.10
   0   3 -10  224.28   16.80
   0   3 -10  221.88   13.50
   0   3 -10  200.48   19.80
   0   3 -10  241.88   14.60
  -1  -3  10 1027.10   44.30
  -1  -3  10 1003.20   45.00
   1   3 -10  960.00   45.60
   1   3 -10  947.11   40.70
   1   3 -10  959.60   40.40
   1   3 -10  950.30   45.00
  -2  -3  10   24.50   10.70
  -2  -3  10   31.90    9.10
  -2  -3  10   14.50    3.90
  -2  -3  10   15.20    4.00
   2   3 -10    5.30    8.30
   2   3 -10    9.90   10.80
   2   3 -10   17.30    4.70
   2   3 -10   18.20    5.50
   2   3 -10   14.90    8.30
  -3  -3  10  107.79   12.90
  -3  -3  10  111.19    7.50
  -3  -3  10  118.49    7.40
  -3  -3  10  120.79   13.80
   3   3 -10  110.49    9.40
   3   3 -10  107.69   12.00
   3   3 -10  114.19    9.70
   3   3 -10  124.09   15.20
   3   3 -10  142.89   14.40
   3   3 -10  109.89   11.50
  -4  -3  10    6.90    4.10
  -4  -3  10    2.00   12.70
   4   3 -10   -8.50    9.80
   4   3 -10   -4.20    6.50
   4   3 -10    7.70    9.00
   4   3 -10    8.20    6.10
   4   3 -10    7.20    5.80
   4   3 -10  -25.30   13.30
  -5  -3  10   70.59    6.50
  -5  -3  10   82.79   15.60
  -5  -3  10   72.79    6.90
   5   3 -10   99.79   17.00
   5   3 -10   71.49    8.70
   5   3 -10   91.19    9.80
   6  -2   9   53.59   13.80
   6  -2   9   29.70   16.30
  -6   2  -9   29.80   15.40
  -6   2  -9   53.99   15.80
  -6   2  -9   40.40   17.20
  -6   2  -9   21.70   17.10
   5  -2   9  182.88   19.50
   5  -2   9  213.68   22.40
   5  -2   9  239.68   15.50
   5  -2   9  224.28   17.80
  -5   2  -9  214.08   20.40
  -5   2  -9  199.48   20.90
  -5   2  -9  232.68   20.50
  -5   2  -9  238.88   21.40
   4  -2   9  207.48   17.40
   4  -2   9  233.28   14.20
   4  -2   9  212.98   20.40
   4  -2   9  254.27   23.20
   4  -2   9  195.88   17.70
  -4   2  -9  203.68   19.40
  -4   2  -9  214.98   18.00
  -4   2  -9  233.08   18.40
  -4   2  -9  209.88   15.10
   3  -2   9  203.48   14.10
   3  -2   9  177.68   17.60
   3  -2   9  183.98   16.30
   3  -2   9  181.78   14.20
   3  -2   9  200.48   12.50
  -3   2  -9  196.28   17.10
  -3   2  -9  166.68   12.10
  -3   2  -9  183.58   13.10
  -3   2  -9  178.18   14.10
  -3   2  -9  173.78   14.10
   2  -2   9  505.05   28.40
   2  -2   9  509.75   24.20
   2  -2   9  522.45   24.10
   2  -2   9  482.85   25.50
   2  -2   9  507.75   23.80
  -2   2  -9  510.75   29.30
  -2   2  -9  483.95   25.10
  -2   2  -9  514.95   24.10
  -2   2  -9  512.85   24.30
  -2   2  -9  520.65   23.20
   1  -2   9   49.50    8.50
   1  -2   9   60.49    8.30
   1  -2   9   35.30    8.20
  -1   2  -9   48.10    7.00
  -1   2  -9   66.49   12.80
  -1   2  -9   57.79   10.40
  -1   2  -9   34.80    9.60
  -1   2  -9   60.99    7.00
   0  -2   9  633.24   30.30
   0  -2   9  706.73   30.00
   0  -2   9  629.14   32.60
   0  -2   9  653.73   27.90
   0  -2   9  679.23   31.20
   0   2  -9  689.03   29.90
   0   2  -9  652.73   32.70
   0   2  -9  648.44   28.50
   0   2  -9  656.23   28.10
   0   2  -9  703.93   32.40
  -1  -2   9    1.20    2.70
  -1  -2   9    0.20    6.10
  -1  -2   9    4.60    5.60
  -1  -2   9    7.60    2.70
   1   2  -9   -4.70    5.00
   1   2  -9    0.80    3.40
   1   2  -9    2.50    3.90
   1   2  -9   -3.20    5.80
   1   2  -9   -1.60    5.60
  -2  -2   9  624.14   25.00
  -2  -2   9  633.54   29.20
  -2  -2   9  583.44   28.80
  -2  -2   9  561.14   29.20
  -2  -2   9  634.34   25.00
   2   2  -9  657.93   29.60
   2   2  -9  688.53   30.70
   2   2  -9  650.03   26.10
   2   2  -9  597.94   30.80
  -3  -2   9   57.89    8.30
  -3  -2   9   56.79    3.50
  -3  -2   9   67.09    3.70
  -3  -2   9   59.99    9.20
  -3  -2   9   35.10    9.80
   3   2  -9   55.39    7.30
   3   2  -9   66.29   10.30
   3   2  -9   65.59   11.70
   3   2  -9   64.49    6.20
   3   2  -9   69.59    6.60
   3   2  -9   47.90    8.90
  -4  -2   9 2478.45  103.39
  -4  -2   9 2618.34  104.39
  -4  -2   9 2581.24   99.29
   4   2  -9 2543.05  104.19
   4   2  -9 2445.16  103.29
   4   2  -9 2514.65  100.19
   4   2  -9 2588.54  104.29
   4   2  -9 2549.15  100.19
  -5  -2   9   67.99   13.80
  -5  -2   9   68.79    7.20
  -5  -2   9   59.39    6.00
   5   2  -9   60.49   11.80
   5   2  -9   68.09    7.50
   5   2  -9   69.19    8.00
   5   2  -9   66.09   12.40
  -6  -2   9  422.76   26.20
  -6  -2   9  379.86   19.80
   6   2  -9  395.96   22.00
   6   2  -9  373.56   25.20
   6   2  -9  422.96   20.80
   7  -1   8    3.60   15.80
  -7   1  -8    8.80   14.30
  -7   1  -8   18.00   20.20
  -7   1  -8   -4.30   16.20
  -7   1  -8   33.60   16.80
   6  -1   8  237.88   18.00
   6  -1   8  201.68   20.40
   6  -1   8  211.78   21.80
  -6   1  -8  188.78   23.60
  -6   1  -8  222.48   17.90
  -6   1  -8  208.28   19.80
  -6   1  -8  194.18   19.40
   5  -1   8  134.09   12.90
   5  -1   8  124.39   13.20
   5  -1   8  124.09   14.70
  -5   1  -8  103.39   10.70
  -5   1  -8  118.79   14.00
  -5   1  -8  109.99   15.40
  -5   1  -8  115.79   12.00
   4  -1   8  323.57   18.80
   4  -1   8  270.87   18.50
   4  -1   8  304.97   15.40
   4  -1   8  334.17   19.10
  -4   1  -8  303.47   20.70
  -4   1  -8  322.57   18.70
  -4   1  -8  314.47   17.60
  -4   1  -8  332.47   18.70
   3  -1   8  243.48   12.90
   3  -1   8  253.47   15.20
   3  -1   8  255.77   15.80
   3  -1   8  248.78   14.80
  -3   1  -8  240.78   14.00
  -3   1  -8  266.67   14.10
  -3   1  -8  225.78   14.70
  -3   1  -8  229.28   19.70
   2  -1   8  567.44   25.90
   2  -1   8  611.84   26.00
   2  -1   8  566.04   27.30
   2  -1   8  585.24   25.40
   2  -1   8  588.74   23.70
  -2   1  -8  615.34   26.80
  -2   1  -8  571.44   30.10
  -2   1  -8  568.04   25.90
  -2   1  -8  577.44   26.10
   1  -1   8   26.50    5.10
   1  -1   8   22.40    5.60
   1  -1   8   23.40    4.40
   1  -1   8   16.80    6.10
  -1   1  -8   22.10    6.10
  -1   1  -8   21.80    4.90
  -1   1  -8   32.40    8.00
  -1   1  -8   11.40    5.60
  -1   1  -8   22.70    4.50
   0  -1   8    7.40    2.40
   0  -1   8    3.30    5.00
   0  -1   8    2.70    2.50
   0  -1   8   10.70    5.60
   0  -1   8    7.60    4.70
   0   1  -8    0.30    5.40
   0   1  -8    3.90    5.20
   0   1  -8    4.00    3.30
   0   1  -8    5.70    2.90
   0   1  -8    2.80   10.30
   0   1  -8    3.80    7.00
  -1  -1   8  931.21   39.00
  -1  -1   8  920.71   39.80
   1   1  -8  953.60   39.90
   1   1  -8  899.71   40.20
   1   1  -8  974.40   40.20
   1   1  -8  957.10   39.80
   1   1  -8  875.21   36.70
   1   1  -8  924.21   36.80
  -2  -1   8  202.98   14.60
  -2  -1   8  226.78   15.10
  -2  -1   8  210.78   12.50
   2   1  -8  213.38   13.00
   2   1  -8  198.78   13.30
   2   1  -8  198.78    8.90
   2   1  -8  240.78   15.30
  -3  -1   8 1544.55   64.99
  -3  -1   8 1548.74   64.59
   3   1  -8 1558.74   62.79
   3   1  -8 1576.34   64.69
   3   1  -8 1518.25   61.09
   3   1  -8 1525.25   61.09
   3   1  -8 1647.34   64.79
   3   1  -8 1509.45   63.89
  -4  -1   8   49.60    4.60
  -4  -1   8   38.80    8.20
  -4  -1   8   47.40    8.50
  -4  -1   8   52.49    4.70
   4   1  -8   58.29    9.00
   4   1  -8   43.10    7.30
   4   1  -8   56.39    8.80
   4   1  -8   51.69    5.40
   4   1  -8   59.09    5.60
  -5  -1   8   17.40    9.90
  -5  -1   8   16.60    4.30
  -5  -1   8   25.20    9.20
  -5  -1   8   21.70    7.40
   5   1  -8   16.90    5.10
   5   1  -8   34.30   11.70
   5   1  -8   18.40    9.10
   5   1  -8   17.40    5.80
  -6  -1   8    5.40   11.60
  -6  -1   8   20.40    7.20
  -6  -1   8   29.10   13.70
   6   1  -8   32.50   15.40
   6   1  -8   32.80    9.60
   6   1  -8   12.50    7.90
  -7  -1   8  123.09   12.70
  -7  -1   8  120.29   13.10
  -7  -1   8  110.39   19.90
   7   1  -8  153.38   16.00
   7   1  -8  127.79   14.10
   7   1  -8  153.08   15.90
   8   0   7    8.50   14.80
   8   0   7   22.70   14.60
   8   0   7    6.40    8.50
  -8   0  -7   -5.50   17.70
  -8   0  -7  -18.90   15.80
   7   0   7  243.08   19.30
   7   0   7  267.37   15.00
   7   0   7  285.47   21.80
   7   0   7  343.87   25.90
  -7   0  -7  280.77   21.70
  -7   0  -7  257.07   23.50
  -7   0  -7  309.37   27.80
  -7   0  -7  315.07   26.10
   6   0   7   54.79   12.10
   6   0   7   33.20   11.20
   6   0   7   40.70   10.20
  -6   0  -7   26.70    9.20
  -6   0  -7   28.80   12.70
  -6   0  -7   16.40   11.80
  -6   0  -7   25.00    9.10
   5   0   7  815.12   38.10
   5   0   7  807.72   38.50
  -5   0  -7  843.72   38.80
  -5   0  -7  843.62   41.00
  -5   0  -7  875.41   37.20
  -5   0  -7  831.92   37.90
   4   0   7   21.20    3.50
   4   0   7   20.20    7.60
   4   0   7   30.80    7.60
   4   0   7   31.20    4.30
   4   0   7   25.40    9.10
  -4   0  -7   33.40    7.90
  -4   0  -7   24.50    8.80
  -4   0  -7   16.50    5.90
  -4   0  -7   27.00    6.20
   3   0   7  658.43   30.60
   3   0   7  704.63   27.60
   3   0   7  699.53   30.10
   3   0   7  656.33   27.60
   3   0   7  683.93   30.10
  -3   0  -7  676.63   33.20
  -3   0  -7  694.93   30.10
  -3   0  -7  618.04   29.90
  -3   0  -7  729.43   29.40
   2   0   7  424.56   20.20
   2   0   7  484.65   22.30
   2   0   7  437.46   19.00
   2   0   7  461.05   19.00
  -2   0  -7  456.35   20.00
  -2   0  -7  453.25   20.40
  -2   0  -7  441.16   23.40
  -2   0  -7  435.36   20.30
   1   0   7  274.67   15.50
   1   0   7  250.87   12.90
   1   0   7  274.37   12.80
   1   0   7  266.07   12.70
   1   0   7  272.57   12.60
  -1   0  -7  288.37   12.80
  -1   0  -7  283.87   15.30
  -1   0  -7  264.37   16.30
  -1   0  -7  277.67   13.00
  -1   0  -7  287.17   12.90
   0   0   7  569.24   24.40
   0   0   7  579.24   22.60
   0   0   7  561.94   25.20
   0   0   7  552.24   24.50
   0   0   7  563.64   22.60
   0   0  -7  564.44   24.90
   0   0  -7  562.44   26.30
   0   0  -7  559.84   22.90
   0   0  -7  560.44   25.10
   0   0  -7  574.14   23.00
   0   0  -7  593.04   24.50
  -1   0   7  441.76   20.30
   1   0  -7  440.76   20.30
   1   0  -7  437.36   21.00
   1   0  -7  419.66   20.20
   1   0  -7  461.75   22.90
  -2   0   7  121.79    9.90
  -2   0   7  145.09   10.80
   2   0  -7  139.09   11.10
   2   0  -7  134.59    9.70
   2   0  -7  121.29    9.50
   2   0  -7  139.19    9.50
   2   0  -7  130.59   10.00
  -3   0   7 2506.35   98.79
  -3   0   7 2372.76   98.69
  -3   0   7 2459.35  102.09
  -3   0   7 2609.24  102.59
   3   0  -7 2519.25   99.49
   3   0  -7 2620.24  102.49
   3   0  -7 2701.73  102.59
   3   0  -7 2509.05   99.49
   3   0  -7 2581.94  100.69
   3   0  -7 2630.64  101.99
  -4   0   7  142.09    7.70
  -4   0   7  117.39   10.30
  -4   0   7  144.59   12.00
  -4   0   7  139.69   11.30
   4   0  -7  137.49    8.80
   4   0  -7  128.39   12.80
   4   0  -7  164.88   15.10
   4   0  -7  137.29    7.30
   4   0  -7  127.89    8.20
  -5   0   7   42.10    9.20
  -5   0   7   38.10   10.50
   5   0  -7   40.70   11.00
   5   0  -7   41.60    6.10
   5   0  -7   43.20    9.40
   5   0  -7   51.69    7.00
  -6   0   7  197.28   17.60
  -6   0   7  185.18   14.70
   6   0  -7  209.08   18.10
   6   0  -7  172.88   14.10
   6   0  -7  203.78   19.70
   6   0  -7  203.28   14.90
  -7   0   7  137.79   14.10
  -7   0   7  131.39   18.80
   7   0  -7  125.29   13.30
   7   0  -7  103.39   14.10
   7   0  -7  127.49   13.50
   8   1   6   47.70   18.20
   8   1   6   55.09   15.50
   8   1   6   60.99    8.50
  -8  -1  -6   59.99   16.20
  -8  -1  -6   63.39   17.40
  -8  -1  -6   65.39   14.90
   7   1   6   94.09   13.60
   7   1   6  132.49   16.60
   7   1   6  123.39    9.50
   7   1   6  147.99   17.00
  -7  -1  -6  120.09   17.30
  -7  -1  -6  121.19   14.40
  -7  -1  -6  134.49   15.70
  -7  -1  -6  115.49   14.70
   6   1   6   44.20    9.30
   6   1   6   55.79   12.30
   6   1   6   54.99    5.70
   6   1   6   64.19   11.50
  -6  -1  -6   50.09   11.00
  -6  -1  -6   47.60   11.60
  -6  -1  -6   78.29   10.60
  -6  -1  -6   59.79    8.10
   5   1   6    5.90    6.20
   5   1   6   23.40    7.00
   5   1   6   20.20    2.40
   5   1   6   14.00    7.10
  -5  -1  -6   16.90    6.10
  -5  -1  -6   19.20    6.80
  -5  -1  -6    3.00    7.50
   4   1   6   67.59    6.90
   4   1   6   62.69    8.90
   4   1   6   65.79    8.40
  -4  -1  -6   48.60    8.80
  -4  -1  -6   62.19    6.60
  -4  -1  -6   73.79    9.30
  -4  -1  -6   63.99    8.70
   3   1   6  824.72   35.70
   3   1   6  816.32   35.80
   3   1   6  880.61   34.40
   3   1   6  871.61   35.70
  -3  -1  -6  792.12   37.70
  -3  -1  -6  814.02   35.70
  -3  -1  -6  821.22   35.70
  -3  -1  -6  868.11   34.50
   2   1   6  623.14   26.00
   2   1   6  616.94   26.40
   2   1   6  616.24   27.00
   2   1   6  622.64   26.50
  -2  -1  -6  603.14   26.50
  -2  -1  -6  642.74   26.50
  -2  -1  -6  601.04   28.30
  -2  -1  -6  634.44   25.60
   1   1   6  982.00   39.90
   1   1   6 1021.60   40.30
   1   1   6 1005.70   39.90
   1   1   6 1001.70   41.10
  -1  -1  -6  964.90   39.90
  -1  -1  -6  990.30   39.60
  -1  -1  -6  968.60   40.00
  -1  -1  -6 1015.20   40.80
   0   1   6  660.63   27.00
   0   1   6  625.14   25.10
   0   1   6  617.34   27.00
   0   1   6  620.64   25.10
   0  -1  -6  607.24   25.30
   0  -1  -6  632.14   26.40
   0  -1  -6  653.53   25.40
   0  -1  -6  653.73   27.00
  -1   1   6 2638.94  103.49
   1  -1  -6 2580.44  103.19
   1  -1  -6 2626.34  103.19
   1  -1  -6 2545.85  102.39
   1  -1  -6 2663.33  103.59
  -2   1   6   49.40    6.20
  -2   1   6   46.40    6.10
   2  -1  -6   44.50    6.00
   2  -1  -6   38.70    4.90
   2  -1  -6   47.80    3.40
   2  -1  -6   40.00    5.80
   2  -1  -6   43.40    3.30
   2  -1  -6   45.30    6.60
  -3   1   6 1988.40   80.49
  -3   1   6 1933.61   77.69
  -3   1   6 2025.50   77.69
  -3   1   6 1913.31   80.09
   3  -1  -6 2062.09   80.59
   3  -1  -6 1953.10   77.99
   3  -1  -6 1912.01   79.49
   3  -1  -6 1980.10   77.99
   3  -1  -6 2059.59   80.59
  -4   1   6   26.00    9.00
  -4   1   6   37.70    8.40
  -4   1   6   25.10    8.10
  -4   1   6   29.50    4.70
  -4   1   6   26.20    4.70
   4  -1  -6   33.80    4.20
   4  -1  -6   28.00    5.00
   4  -1  -6   35.90    7.10
   4  -1  -6   29.20    4.70
   4  -1  -6   25.00    5.80
  -5   1   6   57.39   11.00
  -5   1   6   69.29    7.40
  -5   1   6   54.39   10.50
  -5   1   6   70.79    7.90
  -5   1   6   67.79   10.30
   5  -1  -6   74.19    8.00
   5  -1  -6   64.89    3.90
   5  -1  -6   67.99   11.30
   5  -1  -6   88.89    9.20
   5  -1  -6   53.29    9.60
  -6   1   6  184.68   14.80
  -6   1   6  168.28   14.20
  -6   1   6  158.68   15.10
  -6   1   6  146.69   13.90
  -6   1   6  152.38   15.40
   6  -1  -6  169.38   14.80
   6  -1  -6  173.58   17.30
   6  -1  -6  144.19   15.00
   6  -1  -6  141.69   13.50
  -7   1   6   22.30   11.20
  -7   1   6    8.10   10.50
  -7   1   6   15.80   11.10
  -7   1   6   31.50   12.50
  -7   1   6   26.70   11.00
   7  -1  -6   36.30   10.10
   7  -1  -6   16.70   10.30
   7  -1  -6   14.30    9.80
   8   2   5   13.90   17.00
   8   2   5    9.10    7.40
   8   2   5   -5.20   11.80
  -8  -2  -5   27.10   15.20
  -8  -2  -5   21.60   16.80
  -8  -2  -5    8.40   12.80
   7   2   5   76.29   14.90
   7   2   5   75.19    7.10
   7   2   5   64.29   15.50
   7   2   5   68.99   11.50
  -7  -2  -5   64.39   14.60
  -7  -2  -5   53.99   14.30
  -7  -2  -5   69.59   12.20
  -7  -2  -5   61.59   10.70
   6   2   5   14.80   10.60
   6   2   5    6.30    7.40
   6   2   5    5.50    3.60
   6   2   5   -4.40    7.30
  -6  -2  -5   16.90    8.00
  -6  -2  -5   -1.70    7.80
  -6  -2  -5   -0.60    6.90
  -6  -2  -5    0.30    9.00
   5   2   5   56.59    9.90
   5   2   5   60.49    7.70
   5   2   5   58.19    9.20
   5   2   5   60.69    4.50
  -5  -2  -5   48.30    7.80
  -5  -2  -5   75.69   10.30
  -5  -2  -5   50.49    7.10
   4   2   5   23.80    4.80
   4   2   5   25.00    6.00
   4   2   5   23.40    6.20
  -4  -2  -5   21.20    5.60
  -4  -2  -5   19.50    6.90
  -4  -2  -5   29.20    5.80
  -4  -2  -5   28.90    5.00
   3   2   5   51.79    6.00
   3   2   5   61.19    6.70
   3   2   5   53.99    4.90
  -3  -2  -5   53.59    5.40
  -3  -2  -5   55.59    7.00
  -3  -2  -5   63.79    7.00
   2   2   5 5361.46  211.48
   2   2   5 5705.13  211.48
   2   2   5 5258.97  211.48
  -2  -2  -5 5637.74  211.58
  -2  -2  -5 5309.17  211.48
  -2  -2  -5 5233.58  210.08
   1   2   5 1158.88   46.90
   1   2   5 1182.68   46.80
   1   2   5 1171.58   46.80
   1   2   5 1174.68   47.30
  -1  -2  -5 1185.48   46.90
  -1  -2  -5 1131.79   46.80
   0   2   5 1669.03   64.29
   0   2   5 1559.24   63.19
   0   2   5 1600.54   63.29
   0   2   5 1583.94   63.49
   0  -2  -5 1652.33   63.49
   0  -2  -5 1532.35   62.59
   0  -2  -5 1601.04   63.39
   0  -2  -5 1656.93   63.39
  -1   2   5   73.99    6.30
  -1   2   5   65.29    4.90
  -1   2   5   66.09    4.60
   1  -2  -5   66.19    4.80
   1  -2  -5   58.79    4.70
   1  -2  -5   63.59    5.00
   1  -2  -5   71.09    6.60
   1  -2  -5   69.49    5.80
  -2   2   5 1642.74   64.69
  -2   2   5 1621.64   64.89
  -2   2   5 1639.34   66.49
  -2   2   5 1682.03   65.39
   2  -2  -5 1579.24   64.89
   2  -2  -5 1713.93   66.39
   2  -2  -5 1581.34   64.79
   2  -2  -5 1661.03   65.39
  -3   2   5   16.80    4.00
  -3   2   5   26.60    5.80
  -3   2   5   15.00    5.10
  -3   2   5   15.80    6.60
  -3   2   5   27.90    4.60
   3  -2  -5   20.20    4.00
   3  -2  -5   13.20    4.90
   3  -2  -5   17.60    4.30
   3  -2  -5   35.10    5.00
   3  -2  -5   26.90    5.40
  -4   2   5  575.24   27.30
  -4   2   5  576.94   26.10
  -4   2   5  576.94   28.00
  -4   2   5  562.54   28.90
  -4   2   5  620.04   26.00
   4  -2  -5  608.54   26.20
   4  -2  -5  607.34   26.30
   4  -2  -5  587.84   25.80
   4  -2  -5  564.64   27.40
  -5   2   5  112.29   11.20
  -5   2   5  113.59   11.60
  -5   2   5   96.89   11.50
  -5   2   5  113.49   10.50
  -5   2   5  126.69   11.30
   5  -2  -5  100.09    9.80
   5  -2  -5   94.99    9.20
   5  -2  -5  114.09   10.40
   5  -2  -5  106.79   10.40
  -6   2   5  457.15   22.20
  -6   2   5  382.76   23.50
  -6   2   5  401.36   22.90
  -6   2   5  401.66   22.30
  -6   2   5  411.76   24.50
   6  -2  -5  414.06   25.00
   6  -2  -5  387.96   21.70
   6  -2  -5  360.26   22.90
   6  -2  -5  367.76   22.10
   6  -2  -5  404.66   18.70
  -7   2   5   35.20   12.30
  -7   2   5   25.50   12.00
  -7   2   5   49.60   14.20
  -7   2   5   34.90   13.40
  -7   2   5   31.90   11.60
   7  -2  -5   50.19   12.40
   7  -2  -5   29.80   12.10
   7  -2  -5   58.69   12.20
   7  -2  -5   47.30   11.30
   8   3   4  800.62   42.70
   8   3   4  737.03   34.90
   8   3   4  748.53   44.10
   8   3   4  765.52   39.80
  -8  -3  -4  815.92   39.90
  -8  -3  -4  789.32   40.20
  -8  -3  -4  798.22   42.60
   7   3   4   55.29   11.30
   7   3   4   33.30   14.10
   7   3   4   29.50    6.80
   7   3   4   25.70    9.90
  -7  -3  -4   26.10   13.00
  -7  -3  -4   37.20   13.70
  -7  -3  -4   29.80    9.60
  -7  -3  -4   45.00   10.60
   6   3   4  446.16   25.90
   6   3   4  427.36   24.20
   6   3   4  444.36   20.70
   6   3   4  487.75   23.80
  -6  -3  -4  513.05   26.20
  -6  -3  -4  441.86   24.40
  -6  -3  -4  497.05   23.50
  -6  -3  -4  467.25   25.40
   5   3   4   27.70    7.10
   5   3   4   30.10    7.30
   5   3   4   27.50    6.30
  -5  -3  -4   14.10    8.60
  -5  -3  -4   41.20    6.40
  -5  -3  -4   41.30    9.70
   4   3   4  163.98   13.20
   4   3   4  183.18   10.60
   4   3   4  162.08   12.90
  -4  -3  -4  180.58   11.60
  -4  -3  -4  179.28   10.10
  -4  -3  -4  163.98   11.40
   3   3   4  913.91   39.40
   3   3   4  963.30   37.60
   3   3   4 1003.70   39.50
  -3  -3  -4  978.40   39.60
  -3  -3  -4  791.62   38.30
   2   3   4 2420.06   96.69
   2   3   4 2468.15   98.49
   2   3   4 2502.45   98.39
  -2  -3  -4 2442.96   98.39
  -2  -3  -4 2580.14   98.69
   1   3   4   37.70    2.00
   1   3   4   40.60    5.10
   1   3   4   39.00    2.00
   1   3   4   43.70    6.00
  -1  -3  -4   32.80    4.90
  -1  -3  -4   42.90    5.30
   0   3   4   11.40    3.70
   0   3   4   12.60    1.90
   0   3   4   17.60    4.10
   0   3   4   14.20    3.60
   0  -3  -4    8.30    3.70
   0  -3  -4    9.20    3.70
  -1   3   4  376.06   16.50
  -1   3   4  383.76   17.20
  -1   3   4  355.46   15.70
   1  -3  -4  354.36   16.70
   1  -3  -4  368.46   15.10
   1  -3  -4  356.56   16.50
   1  -3  -4  366.86   15.80
   1  -3  -4  354.26   16.60
  -2   3   4  192.68   11.70
  -2   3   4  221.88   11.50
  -2   3   4  202.98   11.80
  -2   3   4  223.18   11.30
   2  -3  -4  208.28   11.30
   2  -3  -4  215.38   11.70
   2  -3  -4  224.98   11.50
   2  -3  -4  222.68   12.30
  -3   3   4  269.87   16.50
  -3   3   4  317.47   17.10
  -3   3   4  305.07   15.70
  -3   3   4  321.57   15.30
   3  -3  -4  313.27   15.40
   3  -3  -4  309.87   17.20
   3  -3  -4  289.07   15.40
   3  -3  -4  272.97   15.50
   3  -3  -4  330.07   18.10
  -4   3   4  605.64   31.00
  -4   3   4  595.64   28.60
  -4   3   4  622.44   28.90
  -4   3   4  651.93   28.70
  -4   3   4  660.03   29.00
   4  -3  -4  621.64   29.20
   4  -3  -4  666.53   28.60
   4  -3  -4  667.93   29.70
   4  -3  -4  581.24   28.40
  -5   3   4 1955.00   78.99
  -5   3   4 1888.01   78.69
  -5   3   4 1850.71   78.89
  -5   3   4 1930.51   78.49
  -5   3   4 1956.10   78.79
   5  -3  -4 1972.10   78.69
   5  -3  -4 1928.51   78.59
   5  -3  -4 1914.31   79.39
   5  -3  -4 1883.21   78.69
  -6   3   4    5.40    9.80
  -6   3   4    8.30    9.50
  -6   3   4   18.10   10.00
  -6   3   4   16.00    9.20
  -6   3   4    6.00   10.40
   6  -3  -4   12.70    7.50
   6  -3  -4   10.70    9.70
   6  -3  -4  -12.10    8.50
   6  -3  -4   -4.20   10.60
  -7   3   4  375.06   25.10
  -7   3   4  338.47   24.20
  -7   3   4  304.97   22.80
  -7   3   4  384.16   36.10
  -7   3   4  346.67   24.70
   7  -3  -4  329.17   24.30
   7  -3  -4  358.26   25.40
   7  -3  -4  355.16   27.00
   8   4   3    0.00   15.40
   8   4   3  -17.60   12.20
   8   4   3  -10.30   13.90
  -8  -4  -3   15.10   16.30
  -8  -4  -3    0.00   11.30
   7   4   3  188.48   17.30
   7   4   3  181.08   17.70
   7   4   3  163.78   18.60
  -7  -4  -3  172.18   18.40
  -7  -4  -3  186.58   17.60
   6   4   3  113.79   11.50
   6   4   3  176.08   17.10
   6   4   3  135.39   14.40
  -6  -4  -3  119.39   12.80
   5   4   3  629.94   31.30
   5   4   3  636.84   28.80
   5   4   3  650.23   30.20
  -5  -4  -3  661.83   31.40
  -5  -4  -3  608.64   27.70
  -5  -4  -3  661.33   31.30
   4   4   3   29.10    8.40
   4   4   3   30.00    5.30
   4   4   3   22.20    7.80
  -4  -4  -3   26.40    7.70
  -4  -4  -3   30.40    5.20
  -4  -4  -3   26.10    6.20
   3   4   3  698.03   31.60
   3   4   3  696.43   29.60
   3   4   3  734.63   31.90
  -3  -4  -3  715.93   29.90
  -3  -4  -3  712.73   31.40
  -3  -4  -3  720.63   32.20
   2   4   3 1435.56   56.29
  -2  -4  -3 1420.16   58.19
  -2  -4  -3 1399.06   57.89
   1   4   3  137.69   10.10
   1   4   3  136.79    8.50
  -1  -4  -3  129.59    8.60
  -1  -4  -3  124.99    9.70
   0   4   3  289.87   14.30
   0   4   3  290.87   13.20
   0   4   3  280.47   15.30
   0   4   3  304.57   15.10
   0  -4  -3  308.47   15.10
   0  -4  -3  282.77   14.90
  -1   4   3 2606.04  101.89
  -1   4   3 2595.74  102.99
  -1   4   3 2572.34  102.89
   1  -4  -3 2505.05  102.89
   1  -4  -3 2588.04  102.89
   1  -4  -3 2665.53  104.49
  -2   4   3   77.99    8.30
  -2   4   3   62.89    7.80
  -2   4   3   75.59    7.60
  -2   4   3   70.09    6.60
   2  -4  -3   77.99    7.10
   2  -4  -3   74.59    7.90
   2  -4  -3   69.39    7.80
   2  -4  -3   70.99    9.90
   2  -4  -3   71.99    7.40
  -3   4   3  140.89    9.50
  -3   4   3  118.79   11.40
  -3   4   3  161.88   11.20
  -3   4   3  134.69   11.60
   3  -4  -3  138.09   10.10
   3  -4  -3  146.69   11.50
   3  -4  -3  128.99   11.20
   3  -4  -3  140.89   10.90
   3  -4  -3  146.89   12.90
  -4   4   3  294.57   16.60
  -4   4   3  282.97   15.50
  -4   4   3  284.17   17.10
  -4   4   3  221.18   16.30
   4  -4  -3  251.67   16.50
   4  -4  -3  261.67   16.80
   4  -4  -3  270.77   17.50
   4  -4  -3  273.17   16.90
  -5   4   3   25.60    8.50
  -5   4   3   23.00   10.00
  -5   4   3    6.80    8.80
  -5   4   3   23.20    6.90
   5  -4  -3   33.10    9.70
   5  -4  -3  -15.90   13.70
   5  -4  -3   16.70    8.00
   5  -4  -3   28.10    9.90
  -6   4   3  182.68   17.00
  -6   4   3  159.68   15.60
  -6   4   3  150.28   16.30
  -6   4   3  183.88   16.60
   6  -4  -3  201.58   17.60
   6  -4  -3  156.48   16.30
   6  -4  -3  135.09   14.30
  -7   4   3    5.30    9.70
  -7   4   3    1.40   13.40
  -7   4   3  -12.40   11.00
   7  -4  -3   10.60   13.30
   7  -4  -3  -20.60   14.70
   7  -4  -3   10.40   11.30
   7  -4  -3   15.50   15.50
   8   5   2   62.99   19.70
   8   5   2   40.70   14.10
   8   5   2    8.00   15.00
  -8  -5  -2   31.80   11.60
  -8  -5  -2   33.90   19.30
   7   5   2   56.49   15.60
   7   5   2   63.09   12.90
   7   5   2   64.49   12.30
  -7  -5  -2   69.69   18.30
  -7  -5  -2   60.29   15.10
   6   5   2   73.19   10.30
   6   5   2   89.59   14.70
   6   5   2   84.49   11.40
  -6  -5  -2   88.19   14.00
  -6  -5  -2   75.19    9.40
  -6  -5  -2   74.49   13.80
   5   5   2    1.80    9.20
   5   5   2   -9.90    9.70
   5   5   2    8.40    6.80
  -5  -5  -2    8.90    6.00
  -5  -5  -2   16.50    7.60
  -5  -5  -2   -1.90    9.10
   4   5   2   22.10    7.10
   4   5   2   22.40    6.80
   4   5   2   31.90    6.20
  -4  -5  -2   24.20    7.50
  -4  -5  -2   33.10    9.40
  -4  -5  -2   23.70    6.80
   3   5   2  108.79    8.90
   3   5   2  123.69   12.80
   3   5   2  108.89   11.20
  -3  -5  -2  123.29   12.30
  -3  -5  -2  129.09   10.10
  -3  -5  -2  128.69   12.80
   2   5   2  116.89    9.80
   2   5   2  124.69    9.70
  -2  -5  -2  130.39   11.70
  -2  -5  -2  112.69   11.30
   1   5   2  175.58   11.30
   1   5   2  181.78   11.50
   1   5   2  190.28    8.60
  -1  -5  -2  180.78   11.60
  -1  -5  -2  177.08   12.70
   0   5   2 2336.07   95.89
   0   5   2 2325.47   94.49
   0   5   2 2556.14   96.09
   0   5   2 2489.35   95.79
   0  -5  -2 2223.28   95.69
   0  -5  -2 2413.56   95.99
   0  -5  -2 2371.76   97.59
  -1   5   2  831.62   37.70
  -1   5   2  915.21   37.90
  -1   5   2  872.11   37.80
  -1   5   2  883.41   36.90
   1  -5  -2  892.21   37.90
   1  -5  -2  857.11   37.80
   1  -5  -2  902.91   39.70
  -2   5   2  150.18   11.70
  -2   5   2  176.88   13.00
  -2   5   2  183.28   11.90
  -2   5   2  180.28   13.60
   2  -5  -2  161.78    9.20
   2  -5  -2  161.68   11.60
   2  -5  -2  138.49    9.70
   2  -5  -2  193.88   13.30
  -3   5   2   42.00    7.50
  -3   5   2   48.20    7.80
  -3   5   2   47.50    7.70
  -3   5   2   42.00    6.90
   3  -5  -2   36.50    7.80
   3  -5  -2   39.50    5.80
   3  -5  -2   45.40    8.60
   3  -5  -2   67.29    9.40
  -4   5   2  596.94   29.10
  -4   5   2  582.04   28.10
  -4   5   2  607.14   28.10
  -4   5   2  589.54   29.70
   4  -5  -2  597.34   30.50
   4  -5  -2  559.84   28.10
   4  -5  -2  552.84   31.00
   4  -5  -2  567.14   29.10
  -5   5   2  109.19   13.90
  -5   5   2  137.89   13.00
  -5   5   2   88.89   13.80
  -5   5   2  133.89   14.70
   5  -5  -2  112.59   13.80
   5  -5  -2  120.99   14.00
   5  -5  -2  105.09   13.90
   5  -5  -2  168.38   16.90
  -6   5   2  302.97   28.30
  -6   5   2  306.37   21.80
  -6   5   2  311.47   25.10
   6  -5  -2  321.57   25.60
   6  -5  -2  310.97   25.00
   6  -5  -2  332.97   25.40
   6  -5  -2  344.07   25.80
   7   6   1   55.39   13.30
   7   6   1   70.59   17.80
  -7  -6  -1   88.39   20.80
   6   6   1   47.50   14.50
   6   6   1   27.40   16.40
   6   6   1   35.20   11.40
  -6  -6  -1   32.40   11.00
  -6  -6  -1   49.90   10.60
  -6  -6  -1   48.90   11.70
   5   6   1  173.98   17.00
   5   6   1  168.88   14.70
   5   6   1  182.48   18.20
  -5  -6  -1  160.88   16.60
  -5  -6  -1  182.18   15.90
  -5  -6  -1  163.08   15.20
   4   6   1   81.89   11.80
   4   6   1   92.29    9.60
   4   6   1   98.79   12.20
  -4  -6  -1   76.69   10.30
  -4  -6  -1   89.49   12.60
  -4  -6  -1   94.79   10.10
   3   6   1  575.54   27.80
  -3  -6  -1  597.84   28.10
  -3  -6  -1  548.35   27.60
  -3  -6  -1  560.04   27.60
  -3  -6  -1  611.04   30.60
   2   6   1   79.59   10.80
   2   6   1  102.09   10.30
   2   6   1   99.69    8.40
  -2  -6  -1  106.59   11.30
  -2  -6  -1  106.39   10.40
  -2  -6  -1   81.09    9.70
   1   6   1  376.36   18.90
   1   6   1  350.36   15.80
   1   6   1  340.27   19.90
  -1  -6  -1  315.47   19.80
  -1  -6  -1  347.57   20.40
   0   6   1 1265.37   55.29
   0   6   1 1357.46   55.89
   0   6   1 1235.18   54.99
   0  -6  -1 1303.27   55.89
   0  -6  -1 1341.97   55.69
   0  -6  -1 1390.96   58.19
  -1   6   1  525.55   25.80
  -1   6   1  476.15   23.70
  -1   6   1  526.05   24.30
  -1   6   1  505.85   23.30
   1  -6  -1  467.05   25.90
   1  -6  -1  500.55   27.90
   1  -6  -1  436.96   23.80
  -2   6   1  204.88   14.10
  -2   6   1  186.28   16.20
  -2   6   1  204.18   13.80
  -2   6   1  227.58   15.10
   2  -6  -1  195.58   16.10
   2  -6  -1  203.48   19.20
   2  -6  -1  175.78   13.70
   2  -6  -1  202.58   10.80
   2  -6  -1  190.68   11.20
  -3   6   1   77.09    9.90
  -3   6   1   62.89   11.20
  -3   6   1   60.99    9.90
  -3   6   1   70.59    9.10
   3  -6  -1   63.49    9.60
   3  -6  -1   59.09    9.30
   3  -6  -1   54.09   11.40
   3  -6  -1   73.99    7.60
  -4   6   1  481.55   27.40
  -4   6   1  503.55   27.70
  -4   6   1  456.05   24.50
  -4   6   1  468.25   28.00
   4  -6  -1  455.75   27.20
   4  -6  -1  495.85   23.80
   4  -6  -1  493.55   28.00
   4  -6  -1  444.26   27.50
  -5   6   1   12.10    9.10
  -5   6   1   20.40   10.50
  -5   6   1   15.90   10.10
  -5   6   1   15.20   14.10
   5  -6  -1   42.40   15.30
   5  -6  -1   25.80   13.60
   5  -6  -1   25.50   10.20
   5  -6  -1    1.80    9.80
  -6   6   1  493.35   33.10
  -6   6   1  481.95   26.80
   6  -6  -1  457.25   33.90
   6  -6  -1  462.85   28.70
   6  -6  -1  424.46   28.80
   6  -6  -1  501.15   37.00
   7   7   0  125.99   17.50
   7   7   0   88.39   21.40
   7   7   0  116.99   17.30
  -7  -7   0  113.09   17.30
  -7  -7   0   72.19   16.10
  -7  -7   0   96.19   19.40
   6   7   0  186.68   20.50
   6   7   0  119.59   18.90
   6   7   0  127.49   15.70
  -6  -7   0  113.09   15.10
  -6  -7   0  134.39   15.90
  -6  -7   0  145.49   19.00
   5   7   0  504.45   31.90
   5   7   0  552.54   29.20
   5   7   0  532.55   31.70
  -5  -7   0  565.44   29.40
  -5  -7   0  547.75   32.50
  -5  -7   0  507.55   31.10
  -5  -7   0  528.45   29.40
   4   7   0  484.85   26.50
   4   7   0  487.75   26.20
   4   7   0  520.35   29.10
  -4  -7   0  513.95   29.90
  -4  -7   0  495.75   28.90
  -4  -7   0  512.15   27.00
  -4  -7   0  469.05   27.00
   3   7   0  109.89   12.30
   3   7   0  135.19   12.70
   3   7   0  130.79   13.40
  -3  -7   0  128.09   14.50
  -3  -7   0  107.49   12.70
  -3  -7   0  131.69   14.60
  -3  -7   0  120.99   14.50
   2   7   0  140.89   14.50
   2   7   0  143.09   14.60
   2   7   0  137.99   10.90
  -2  -7   0  137.39   13.10
  -2  -7   0  126.69   14.50
  -2  -7   0  154.88   15.60
  -2  -7   0  142.19   13.10
   1   7   0  236.48   12.90
   1   7   0  226.98   16.00
   1   7   0  194.38   17.60
  -1  -7   0  226.28   18.00
  -1  -7   0  251.97   18.30
  -1  -7   0  226.48   16.20
   0   7   0  662.93   33.30
   0   7   0  778.02   35.20
   0   7   0  675.23   32.00
   0  -7   0  675.53   33.30
   0  -7   0  786.42   35.10
   0  -7   0  696.03   36.80
  -1   7   0   79.89   10.10
  -1   7   0   73.89   12.50
  -1   7   0   71.89    9.20
  -1   7   0   66.29   10.30
   1  -7   0   54.49   10.60
   1  -7   0   83.29   12.40
   1  -7   0   51.49    9.90
  -2   7   0   60.59    9.90
  -2   7   0   88.19   13.60
  -2   7   0   70.29   11.20
  -2   7   0   64.79   12.80
   2  -7   0   60.49   13.90
   2  -7   0   88.49   11.40
   2  -7   0   74.99    5.70
   2  -7   0   79.39    7.70
   2  -7   0   44.30   10.00
  -3   7   0  190.68   18.80
  -3   7   0  178.48   14.90
  -3   7   0  193.18   16.90
  -3   7   0  173.68   16.40
   3  -7   0  182.28   14.10
   3  -7   0  200.18   20.40
   3  -7   0  219.58   17.40
   3  -7   0  224.78   19.30
  -4   7   0    5.00   14.00
  -4   7   0    1.60    8.60
  -4   7   0   14.00   10.70
  -4   7   0   18.50   14.50
   4  -7   0  -14.60    9.40
   4  -7   0    5.60   14.00
   4  -7   0   14.30    8.90
   4  -7   0    1.10   10.70
  -5   7   0   85.79   19.10
  -5   7   0  119.29   13.80
   5  -7   0   91.19   13.70
   5  -7   0  128.09   17.80
   5  -7   0  105.09   19.20
   6   8  -1  108.29   17.20
   6   8  -1   98.39   25.70
   6   8  -1  139.29   18.80
  -6  -8   1  131.59   17.60
  -6  -8   1  112.79   20.60
  -6  -8   1   73.69   17.70
   5   8  -1   76.59   19.40
   5   8  -1   86.69   14.60
   5   8  -1   82.99   14.80
   5   8  -1  113.89   14.90
  -5  -8   1  102.79   15.60
  -5  -8   1  104.59   16.40
  -5  -8   1  100.89   16.70
   4   8  -1   44.60   11.60
   4   8  -1   39.20   14.90
  -4  -8   1   52.19   12.10
  -4  -8   1   20.40   13.00
  -4  -8   1   27.50   16.50
   3   8  -1   73.19   10.30
   3   8  -1   92.19   16.00
   3   8  -1   76.09   16.10
  -3  -8   1   83.69   15.10
  -3  -8   1   71.09   15.00
  -3  -8   1   47.60   14.70
  -3  -8   1   96.39   12.50
   2   8  -1   -7.00    8.70
   2   8  -1   -0.90    6.60
   2   8  -1    0.10   12.10
  -2  -8   1    4.80   12.80
  -2  -8   1    0.90   11.70
  -2  -8   1    6.80   12.70
  -2  -8   1   -1.80    8.30
   1   8  -1   38.20    9.20
   1   8  -1   42.30   14.00
   1   8  -1   44.00   13.70
  -1  -8   1   39.50   12.90
  -1  -8   1   44.90   13.40
   0   8  -1   67.49   11.80
   0   8  -1   60.59   10.60
   0   8  -1   58.99   14.60
   0  -8   1   65.19   11.40
   0  -8   1   40.10   13.70
   0  -8   1   25.70   13.50
  -1   8  -1  240.78   21.50
  -1   8  -1  247.68   23.00
  -1   8  -1  263.97   23.10
  -1   8  -1  229.98   16.80
   1  -8   1  196.18   21.60
   1  -8   1  239.88   22.40
   1  -8   1  228.28   11.00
   1  -8   1  254.37   22.80
  -2   8  -1  220.78   18.40
  -2   8  -1  192.48   21.00
  -2   8  -1  207.28   21.50
  -2   8  -1  163.48   15.50
   2  -8   1  193.28   18.60
   2  -8   1  159.78   19.10
   2  -8   1  169.68   18.80
   2  -8   1  196.68   14.30
  -3   8  -1  347.27   28.90
  -3   8  -1  335.97   30.10
  -3   8  -1  354.26   20.80
   3  -8   1  324.47   20.50
   3  -8   1  380.66   28.30
   3  -8   1  313.77   25.90
  -4   8  -1   52.79   11.10
  -4   8  -1  109.49   18.70
   4  -8   1   62.69   18.60
   4  -8   1   85.49   12.80
   4   9  -2  173.18   18.60
   4   9  -2  181.68   26.30
  -4  -9   2  151.18   20.70
  -4  -9   2  222.08   24.30
  -4  -9   2  167.48   23.40
   3   9  -2    3.60   12.00
   3   9  -2   -5.10   14.00
   3   9  -2    9.10   11.00
  -3  -9   2  -26.30   17.40
  -3  -9   2   10.60   16.40
  -3  -9   2   -6.20   11.50
   2   9  -2   49.20   17.80
   2   9  -2   31.10   13.60
   2   9  -2   35.90   10.70
  -2  -9   2   17.50   15.30
  -2  -9   2   29.60   18.90
  -2  -9   2   13.20   14.40
   1   9  -2  -13.30   10.90
   1   9  -2    6.50   13.30
   1   9  -2   -9.40    9.60
  -1  -9   2   -7.10   17.60
  -1  -9   2   -6.50   15.10
  -1  -9   2   23.40   17.00
   0   9  -2   -1.70   10.20
   0   9  -2  -32.70   14.80
   0   9  -2   -5.80   11.30
   0   9  -2   -2.60   19.00
   0  -9   2   12.80   14.50
  -1   9  -2   71.29   12.30
  -1   9  -2   63.39   14.70
  -1   9  -2   50.69   13.30
   1  -9   2   63.39   17.40
  -2   9  -2   31.90   18.80
  -2   9  -2   16.70   11.30
   2  -9   2   27.00   18.50
   3  -4  12   16.70   14.00
   3  -4  12   -2.70   13.40
   3  -4  12   24.90   13.20
  -3   4 -12   22.60   13.80
  -3   4 -12   10.80   18.40
  -3   4 -12   -2.40   14.30
   2  -4  12   -0.10   16.10
   2  -4  12  -10.10   11.30
   2  -4  12   15.10   12.40
   2  -4  12   -0.30   11.40
  -2   4 -12   -0.20   10.60
  -2   4 -12   27.20   11.70
  -2   4 -12   25.50   16.50
  -2   4 -12    3.80   14.10
   1  -4  12  125.39   13.10
   1  -4  12  117.29   18.90
   1  -4  12  123.99   19.70
   1  -4  12  129.39   15.80
   1  -4  12  136.49   13.10
  -1   4 -12   98.79   18.90
  -1   4 -12  117.79   13.50
  -1   4 -12  134.79   13.50
   0  -4  12  158.28   14.80
   0  -4  12  177.38   20.30
   0  -4  12  163.88   14.90
   0   4 -12  159.78   14.70
   0   4 -12  148.79   22.60
   0   4 -12  174.48   15.80
  -1  -4  12   -2.20    6.80
  -1  -4  12    7.10   10.10
  -1  -4  12    2.60   13.40
   1   4 -12    2.60    7.00
   1   4 -12   10.50    8.10
   1   4 -12  -15.20   13.20
  -2  -4  12    8.70   15.00
  -2  -4  12   16.10    5.80
  -2  -4  12    7.80    5.40
   2   4 -12   -6.70   11.30
   2   4 -12    3.10    6.40
  -3  -4  12   24.40   12.40
  -3  -4  12   13.20    4.10
   3   4 -12   -6.60   12.30
   3   4 -12   11.10    8.20
   3   4 -12   16.30    7.80
   5  -3  11  499.25   35.40
   5  -3  11  540.15   32.00
   5  -3  11  483.45   27.20
  -5   3 -11  510.35   32.20
  -5   3 -11  457.35   35.10
  -5   3 -11  502.85   41.00
   4  -3  11  182.58   21.50
   4  -3  11  187.98   17.30
   4  -3  11  191.58   18.30
  -4   3 -11  163.88   22.10
  -4   3 -11  173.78   18.80
  -4   3 -11  183.38   18.20
  -4   3 -11  170.98   19.90
   3  -3  11  951.10   46.80
   3  -3  11 1024.90   53.09
   3  -3  11  989.00   44.20
   3  -3  11  962.50   44.90
   3  -3  11 1006.00   45.20
  -3   3 -11 1047.30   42.80
  -3   3 -11  982.60   45.70
  -3   3 -11 1018.80   45.40
  -3   3 -11 1052.19   52.69
  -3   3 -11  977.70   46.80
   2  -3  11   16.60    9.90
   2  -3  11   10.60    9.20
   2  -3  11   19.10    9.00
   2  -3  11    8.40    9.30
   2  -3  11    9.70    9.20
  -2   3 -11   -5.20   11.30
  -2   3 -11   16.90    8.60
  -2   3 -11    6.80    7.70
  -2   3 -11    9.10    9.20
   1  -3  11  603.44   29.60
   1  -3  11  553.84   27.20
   1  -3  11  569.14   32.80
   1  -3  11  565.54   33.80
   1  -3  11  564.44   26.70
  -1   3 -11  569.64   27.50
  -1   3 -11  539.65   26.50
  -1   3 -11  599.54   32.40
  -1   3 -11  566.84   34.20
   0  -3  11  151.68   11.20
   0  -3  11  124.89   16.10
   0  -3  11  138.99   15.80
   0  -3  11  122.89   14.10
   0  -3  11  141.19   11.00
   0   3 -11  153.78   12.60
   0   3 -11  173.08   20.20
   0   3 -11  137.89   11.30
   0   3 -11  124.69   15.90
  -1  -3  11  186.58   14.00
  -1  -3  11  204.18   16.10
  -1  -3  11  237.38   11.80
   1   3 -11  229.08   13.70
   1   3 -11  214.78   12.70
   1   3 -11  233.98   19.90
   1   3 -11  226.58   18.20
  -2  -3  11  309.07   13.10
  -2  -3  11  317.67   23.40
  -2  -3  11  300.87   13.20
   2   3 -11  288.27   21.40
   2   3 -11  304.87   15.40
   2   3 -11  298.37   20.20
   2   3 -11  293.07   24.70
  -3  -3  11  279.57   21.20
  -3  -3  11  337.27   23.40
   3   3 -11  293.57   26.80
   3   3 -11  339.47   21.90
   3   3 -11  323.27   15.70
   3   3 -11  286.57   25.80
  -4  -3  11  160.78   18.70
   4   3 -11  182.58   11.40
   4   3 -11  141.09   16.00
  -5  -3  11   61.79   17.60
   5   3 -11   64.79    8.50
   5   3 -11   80.29   16.90
   6  -2  10   89.69   10.50
   6  -2  10   99.69   19.10
   6  -2  10   58.59   14.70
  -6   2 -10   64.59   16.40
  -6   2 -10   80.29   20.50
  -6   2 -10   83.39   21.00
  -6   2 -10   76.19   17.70
   5  -2  10  106.29   15.80
   5  -2  10  113.59   18.10
   5  -2  10  115.69   15.40
   5  -2  10  109.19   10.40
  -5   2 -10  106.49   13.00
  -5   2 -10  117.49   16.60
  -5   2 -10  105.19   16.20
  -5   2 -10   99.39   15.70
   4  -2  10   93.79    9.50
   4  -2  10   70.69   12.10
   4  -2  10   73.19   17.10
   4  -2  10   79.69   11.20
  -4   2 -10   65.79   15.80
  -4   2 -10   91.99   12.90
  -4   2 -10  107.69   13.20
  -4   2 -10   79.19   15.20
   3  -2  10   20.30    8.30
   3  -2  10   10.00    9.10
   3  -2  10   20.30    8.60
   3  -2  10    1.20    7.00
  -3   2 -10   13.90    8.80
  -3   2 -10   19.30    6.80
  -3   2 -10   14.10    9.00
  -3   2 -10   11.80    9.40
  -3   2 -10   -0.50    7.70
   2  -2  10  123.99   12.30
   2  -2  10  147.29   12.10
   2  -2  10  146.09   15.10
   2  -2  10  112.89   11.70
   2  -2  10  117.39   14.20
  -2   2 -10  131.49   11.80
  -2   2 -10  122.69   15.00
  -2   2 -10  124.59   11.40
  -2   2 -10  115.59   11.80
  -2   2 -10  116.69   11.60
   1  -2  10   83.09    8.70
   1  -2  10   75.89   12.60
   1  -2  10   67.99    9.60
   1  -2  10   97.19    9.60
  -1   2 -10   84.79    9.20
  -1   2 -10   79.29   10.20
  -1   2 -10   74.29   12.20
  -1   2 -10   82.49    8.50
  -1   2 -10   86.09    8.40
   0  -2  10  469.75   24.60
   0  -2  10  469.85   23.70
   0  -2  10  476.45   20.50
   0   2 -10  512.95   26.40
   0   2 -10  445.36   21.20
   0   2 -10  478.35   26.70
   0   2 -10  456.85   20.80
   0   2 -10  464.25   23.60
  -1  -2  10  588.64   28.90
  -1  -2  10  581.94   23.70
  -1  -2  10  580.34   23.60
  -1  -2  10  589.14   27.10
   1   2 -10  595.44   24.70
   1   2 -10  599.24   28.70
   1   2 -10  589.04   28.90
   1   2 -10  593.94   30.50
   1   2 -10  570.44   24.60
   1   2 -10  567.94   28.80
  -2  -2  10 1561.84   67.09
  -2  -2  10 1616.84   65.79
   2   2 -10 1548.45   62.39
   2   2 -10 1578.94   66.99
   2   2 -10 1594.44   66.49
   2   2 -10 1595.24   67.09
  -3  -2  10  840.22   38.90
  -3  -2  10  822.52   38.00
  -3  -2  10  785.42   37.20
   3   2 -10  756.82   37.80
   3   2 -10  837.42   36.50
   3   2 -10  786.92   37.00
   3   2 -10  836.42   39.20
   3   2 -10  824.52   32.80
  -4  -2  10  213.18   21.90
  -4  -2  10  169.78   14.90
   4   2 -10  206.68   17.30
   4   2 -10  199.18   13.70
   4   2 -10  213.28   21.60
   4   2 -10  202.08   11.00
   4   2 -10  208.28   18.80
  -5  -2  10   15.00   14.10
   5   2 -10   31.00   11.60
   5   2 -10   11.80    6.00
   5   2 -10   23.60   10.70
   5   2 -10    6.70   11.30
  -6  -2  10  221.28   23.10
   6   2 -10  216.98   15.90
   6   2 -10  216.98   20.90
   7  -1   9   18.40   17.80
   7  -1   9   46.40   19.20
  -7   1  -9   10.30   15.80
  -7   1  -9   29.20   18.20
  -7   1  -9   27.40   18.10
  -7   1  -9   16.20   16.10
   6  -1   9  171.88   16.80
   6  -1   9  127.49   18.70
   6  -1   9  124.39   10.80
   6  -1   9  112.99   17.90
  -6   1  -9  141.69   19.20
  -6   1  -9  117.19   15.00
  -6   1  -9  101.39   17.90
  -6   1  -9  123.79   16.80
   5  -1   9  169.58   17.10
   5  -1   9  158.28   15.70
   5  -1   9  126.59   16.90
   5  -1   9  160.78   10.90
  -5   1  -9  159.98   18.60
  -5   1  -9  157.28   19.50
  -5   1  -9  162.78   14.80
  -5   1  -9  159.38   15.80
   4  -1   9  161.88   11.00
   4  -1   9  181.68   14.60
   4  -1   9  177.98   14.40
   4  -1   9  152.38   14.80
  -4   1  -9  157.38   16.90
  -4   1  -9  181.38   14.30
  -4   1  -9  166.68   14.90
  -4   1  -9  184.38   14.80
   3  -1   9   52.69    8.00
   3  -1   9   53.99    9.20
   3  -1   9   60.49    8.10
   3  -1   9   56.59    6.30
  -3   1  -9   56.79    8.50
  -3   1  -9   46.20   11.00
  -3   1  -9   45.60    8.50
   2  -1   9  709.23   31.00
   2  -1   9  709.53   34.00
   2  -1   9  693.93   31.00
   2  -1   9  726.03   29.10
   2  -1   9  735.83   30.80
  -2   1  -9  713.93   31.30
  -2   1  -9  698.43   31.50
  -2   1  -9  713.23   35.90
  -2   1  -9  701.93   31.70
  -2   1  -9  754.52   31.60
   1  -1   9  103.09   11.10
   1  -1   9   82.89    7.60
   1  -1   9   81.09    7.30
   1  -1   9   80.39    7.00
   1  -1   9   85.29    8.00
  -1   1  -9   71.29    6.90
  -1   1  -9   77.39    8.20
  -1   1  -9   94.09    9.40
  -1   1  -9   76.79    7.10
  -1   1  -9   71.39    9.40
   0  -1   9    5.20    2.30
   0  -1   9    2.00    5.50
   0  -1   9   -9.90    7.60
   0  -1   9    1.30    4.60
   0  -1   9    0.30    2.20
   0   1  -9    0.00    6.00
   0   1  -9   -5.50    7.00
   0   1  -9    1.90    2.80
   0   1  -9    2.10    6.10
   0   1  -9    8.30    5.50
   0   1  -9    1.90    3.60
  -1  -1   9   45.60    7.00
  -1  -1   9   52.69    8.40
   1   1  -9   44.00    3.80
   1   1  -9   55.49    8.90
   1   1  -9   37.40    7.80
   1   1  -9   31.70    7.00
   1   1  -9   45.60    8.90
  -2  -1   9 1054.89   46.20
   2   1  -9 1067.89   46.10
   2   1  -9 1078.19   46.90
   2   1  -9 1105.29   46.60
   2   1  -9 1080.19   46.90
   2   1  -9 1126.09   47.40
  -3  -1   9  251.27   16.10
  -3  -1   9  255.57   16.70
   3   1  -9  242.48   10.20
   3   1  -9  246.68   14.90
   3   1  -9  243.58   14.80
   3   1  -9  240.68   10.20
   3   1  -9  241.28   16.00
   3   1  -9  255.77   16.20
  -4  -1   9  358.46   21.00
  -4  -1   9  371.36   20.20
   4   1  -9  345.27   20.70
   4   1  -9  337.97   19.70
   4   1  -9  371.56   21.20
   4   1  -9  350.46   15.70
   4   1  -9  357.26   16.90
  -5  -1   9   35.00    3.90
  -5  -1   9   66.49   10.80
  -5  -1   9   38.80    4.00
  -5  -1   9   61.99   11.80
   5   1  -9   35.00    9.60
   5   1  -9   51.89   14.70
   5   1  -9   44.80    6.40
   5   1  -9   43.00    6.40
   5   1  -9   41.10   11.60
  -6  -1   9   11.40    5.40
  -6  -1   9    7.50    5.60
  -6  -1   9    3.30   13.70
   6   1  -9   10.00    6.30
   6   1  -9   -5.30    7.40
   6   1  -9    3.00   12.40
   7   0   8    6.90   11.70
   7   0   8    6.80    4.40
   7   0   8   23.40   12.30
  -7   0  -8   -0.80   13.90
  -7   0  -8    9.40   15.90
  -7   0  -8   24.10   14.80
  -7   0  -8  -23.70   12.50
   6   0   8   38.00   13.00
   6   0   8   43.50    4.40
   6   0   8   49.60   15.70
   6   0   8   69.99   11.20
  -6   0  -8   79.09   11.40
  -6   0  -8   41.10   12.20
  -6   0  -8   47.10   13.50
  -6   0  -8   44.40   10.60
   5   0   8    5.80    4.40
   5   0   8   11.60    7.80
   5   0   8   15.30    9.60
   5   0   8    0.20    6.50
  -5   0  -8    5.50    9.80
  -5   0  -8    6.90    6.30
  -5   0  -8   -4.00   10.60
  -5   0  -8    0.20    9.80
   4   0   8  -14.60    8.50
   4   0   8    1.10    6.60
   4   0   8    8.80    7.00
   4   0   8    8.60    4.00
  -4   0  -8    1.00    5.60
  -4   0  -8    2.90    9.20
  -4   0  -8    0.60    7.60
  -4   0  -8   12.20    6.00
   3   0   8 1402.16   55.69
   3   0   8 1404.56   57.89
   3   0   8 1404.26   58.09
   3   0   8 1446.56   59.59
   3   0   8 1410.46   55.79
  -3   0  -8 1419.56   57.49
  -3   0  -8 1358.06   60.59
  -3   0  -8 1390.66   58.09
  -3   0  -8 1434.76   58.09
   2   0   8 1596.74   64.99
   2   0   8 1601.74   63.89
   2   0   8 1585.34   64.79
   2   0   8 1656.23   66.79
   2   0   8 1507.35   65.59
  -2   0  -8 1571.24   64.99
  -2   0  -8 1676.73   64.99
  -2   0  -8 1631.14   67.99
  -2   0  -8 1690.13   65.09
   1   0   8  150.48    9.40
   1   0   8  148.89   12.20
   1   0   8  145.09    8.30
   1   0   8  159.38    8.90
   1   0   8  146.59    8.30
  -1   0  -8  150.08    9.10
  -1   0  -8  140.99   12.00
  -1   0  -8  147.39   11.50
  -1   0  -8  146.49    8.40
  -1   0  -8  137.99    8.60
   0   0   8  329.57   17.60
   0   0   8  324.77   13.00
   0   0   8  315.77   13.00
   0   0   8  322.17   15.70
   0   0   8  299.87   15.70
   0   0  -8  313.97   13.60
   0   0  -8  341.97   16.30
   0   0  -8  336.67   16.60
   0   0  -8  326.47   18.20
   0   0  -8  303.67   13.60
   0   0  -8  325.27   15.70
  -1   0   8  358.86   17.70
   1   0  -8  363.56   18.50
   1   0  -8  343.07   17.50
   1   0  -8  333.27   18.30
  -2   0   8 1628.54   67.69
   2   0  -8 1662.53   67.49
   2   0  -8 1623.44   66.99
   2   0  -8 1702.83   67.79
   2   0  -8 1654.33   68.09
  -3   0   8 1672.93   68.49
  -3   0   8 1647.84   68.79
   3   0  -8 1660.53   67.09
   3   0  -8 1775.12   68.69
   3   0  -8 1595.54   64.79
   3   0  -8 1641.14   64.79
   3   0  -8 1660.53   68.09
  -4   0   8  552.74   27.30
  -4   0   8  547.15   22.00
  -4   0   8  523.75   22.00
  -4   0   8  543.25   27.70
   4   0  -8  550.84   23.30
   4   0  -8  541.55   23.40
   4   0  -8  647.74   27.90
   4   0  -8  538.45   26.60
   4   0  -8  559.84   26.20
   4   0  -8  539.35   23.20
  -5   0   8  203.18   10.50
  -5   0   8  193.38   17.70
  -5   0   8  193.78   16.00
   5   0  -8  175.78   11.20
   5   0  -8  214.48   17.70
   5   0  -8  204.48   16.30
   5   0  -8  187.78   12.00
  -6   0   8  116.49   15.10
  -6   0   8  130.69   11.90
  -6   0   8  110.69   16.10
   6   0  -8  121.39   11.20
   6   0  -8  115.29   11.00
   6   0  -8  119.19   13.10
   6   0  -8  127.89   15.60
  -7   0   8   98.39   12.50
  -7   0   8   89.29   11.10
  -7   0   8   88.89   15.50
  -7   0   8   92.49   15.10
   7   0  -8  115.39   12.50
   7   0  -8   94.69   17.00
   7   0  -8   97.29   12.60
   8   1   7   71.89   15.60
   8   1   7   97.39    8.80
   8   1   7   75.79   16.30
  -8  -1  -7   78.79   17.50
  -8  -1  -7   80.69   17.80
  -8  -1  -7   77.49   19.50
   7   1   7  108.19   18.00
   7   1   7  121.89   17.20
   7   1   7   85.89    6.30
   7   1   7   94.19   13.60
  -7  -1  -7  112.49   15.90
  -7  -1  -7   92.29   13.90
  -7  -1  -7   93.49   13.70
  -7  -1  -7   91.49   14.40
   6   1   7  491.15   27.50
   6   1   7  491.95   25.60
   6   1   7  445.26   25.40
  -6  -1  -7  484.35   28.00
  -6  -1  -7  496.95   27.70
  -6  -1  -7  486.55   26.10
  -6  -1  -7  479.65   24.80
   5   1   7  151.78   14.40
   5   1   7  173.38   12.70
   5   1   7  149.79   14.50
  -5  -1  -7  162.18   12.10
  -5  -1  -7  118.39   12.00
  -5  -1  -7  122.29   14.00
   4   1   7   91.79    9.70
   4   1   7   89.29   10.00
   4   1   7   85.89    8.30
   4   1   7  111.59   10.50
  -4  -1  -7   88.09    9.90
  -4  -1  -7   87.89    8.80
  -4  -1  -7  101.89    8.60
  -4  -1  -7   58.59   10.30
   3   1   7 2304.67   92.99
   3   1   7 2347.07   91.69
   3   1   7 2315.07   92.89
   3   1   7 2368.16   93.79
  -3  -1  -7 2376.36   93.09
  -3  -1  -7 2258.07   92.99
  -3  -1  -7 2327.07   91.89
  -3  -1  -7 2296.77   95.19
   2   1   7  755.32   30.50
   2   1   7  736.83   31.10
   2   1   7  775.52   31.20
   2   1   7  722.93   31.80
  -2  -1  -7  697.53   33.30
  -2  -1  -7  725.73   30.10
  -2  -1  -7  724.23   31.10
  -2  -1  -7  740.13   31.10
   1   1   7  518.85   21.50
   1   1   7  487.05   22.00
   1   1   7  496.85   20.60
   1   1   7  479.15   20.60
  -1  -1  -7  474.85   20.50
  -1  -1  -7  488.05   20.80
  -1  -1  -7  509.15   22.40
  -1  -1  -7  476.75   20.70
  -1  -1  -7  471.75   23.30
   0   1   7 1409.36   57.19
   0   1   7 1384.16   54.79
   0   1   7 1336.67   54.79
   0   1   7 1483.45   56.89
   0  -1  -7 1384.06   58.89
   0  -1  -7 1414.96   57.09
   0  -1  -7 1451.55   56.49
   0  -1  -7 1372.46   55.09
   0  -1  -7 1413.86   55.09
  -1   1   7    2.50    5.10
   1  -1  -7    9.60    6.30
   1  -1  -7   -0.60    4.70
   1  -1  -7    0.00    4.40
   1  -1  -7   -0.80    3.30
  -2   1   7  760.92   33.00
   2  -1  -7  731.13   29.20
   2  -1  -7  807.82   33.10
   2  -1  -7  732.93   31.60
   2  -1  -7  756.42   32.50
   2  -1  -7  788.72   33.00
   2  -1  -7  698.83   29.20
  -3   1   7 1401.36   58.59
  -3   1   7 1369.66   54.49
  -3   1   7 1326.17   58.19
   3  -1  -7 1380.26   55.09
   3  -1  -7 1405.56   57.29
   3  -1  -7 1481.45   58.29
   3  -1  -7 1342.07   54.99
   3  -1  -7 1465.05   58.59
  -4   1   7  416.36   23.10
  -4   1   7  394.06   23.60
  -4   1   7  461.65   20.10
   4  -1  -7  448.26   24.20
   4  -1  -7  434.66   19.50
   4  -1  -7  434.96   19.10
   4  -1  -7  438.26   19.50
   4  -1  -7  415.46   22.10
  -5   1   7  258.17   18.60
  -5   1   7  258.87   14.50
  -5   1   7  291.17   14.50
  -5   1   7  295.47   20.40
   5  -1  -7  263.87   11.20
   5  -1  -7  265.17   14.90
   5  -1  -7  273.97   18.40
   5  -1  -7  266.07   14.30
   5  -1  -7  260.37   11.10
   5  -1  -7  271.17   17.90
  -6   1   7  229.38   14.90
  -6   1   7  216.48   15.80
  -6   1   7  216.18   16.30
   6  -1  -7  198.58   14.70
   6  -1  -7  214.18   16.90
   6  -1  -7  217.18   16.00
   6  -1  -7  208.58   18.50
  -7   1   7  191.68   18.40
  -7   1   7  176.18   18.30
  -7   1   7  182.48   20.70
  -7   1   7  187.48   19.60
   7  -1  -7  222.78   17.90
   7  -1  -7  218.18   19.00
   7  -1  -7  223.68   20.40
   8   2   6   45.40   14.60
   8   2   6   53.39    6.90
   8   2   6   50.99   17.90
  -8  -2  -6   40.60   14.00
  -8  -2  -6   46.20   15.90
  -8  -2  -6   69.99   15.20
   7   2   6  307.67   25.90
   7   2   6  333.97   21.30
   7   2   6  296.97   14.20
   7   2   6  335.17   25.70
  -7  -2  -6  289.37   21.20
  -7  -2  -6  327.57   25.70
  -7  -2  -6  369.36   25.30
  -7  -2  -6  287.47   21.50
   6   2   6   72.79   13.50
   6   2   6   97.79   10.70
   6   2   6   96.19   13.50
  -6  -2  -6   93.69   11.70
  -6  -2  -6  129.09   13.70
  -6  -2  -6   87.19   12.30
  -6  -2  -6  109.29   10.30
   5   2   6   -4.70    8.90
   5   2   6   -4.60    5.10
   5   2   6   -5.70    8.40
  -5  -2  -6   -3.50    8.20
  -5  -2  -6   -5.30    5.40
  -5  -2  -6   -1.00    7.70
   4   2   6    8.70    7.30
   4   2   6    2.60    6.30
   4   2   6    6.00    4.50
  -4  -2  -6   15.30    5.40
  -4  -2  -6   -4.80    6.50
  -4  -2  -6    0.50    5.30
  -4  -2  -6    6.50    4.40
   3   2   6  730.83   32.20
   3   2   6  720.43   30.40
   3   2   6  761.02   32.20
  -3  -2  -6  764.22   32.30
  -3  -2  -6  758.62   30.40
  -3  -2  -6  719.83   32.30
   2   2   6  256.07   12.90
   2   2   6  226.58   12.90
   2   2   6  256.07   13.40
   2   2   6  262.87   12.30
  -2  -2  -6  242.88   10.00
  -2  -2  -6  241.88   12.70
  -2  -2  -6  257.97   10.70
  -2  -2  -6  255.67   12.90
   1   2   6 1308.27   51.09
   1   2   6 1239.68   51.39
   1   2   6 1325.87   51.79
   1   2   6 1307.07   50.99
  -1  -2  -6 1300.37   51.09
  -1  -2  -6 1264.97   51.09
  -1  -2  -6 1195.58   49.50
  -1  -2  -6 1262.77   50.49
   0   2   6  746.53   31.60
   0   2   6  770.72   32.50
   0   2   6  765.82   30.90
   0  -2  -6  782.92   31.70
   0  -2  -6  787.32   31.10
   0  -2  -6  760.82   30.40
   0  -2  -6  752.22   31.00
  -1   2   6 1019.70   39.10
  -1   2   6  987.90   41.30
   1  -2  -6  989.30   39.30
   1  -2  -6  987.90   39.60
   1  -2  -6  990.30   41.90
   1  -2  -6  977.50   40.20
   1  -2  -6  959.10   39.30
  -2   2   6 1385.86   55.19
  -2   2   6 1329.27   54.09
  -2   2   6 1476.45   56.79
  -2   2   6 1384.36   54.09
   2  -2  -6 1365.86   55.39
   2  -2  -6 1284.47   54.29
   2  -2  -6 1318.07   54.29
   2  -2  -6 1379.46   55.29
   2  -2  -6 1441.36   56.79
  -3   2   6  104.49   10.70
  -3   2   6  122.09    7.30
  -3   2   6  102.19    9.40
   3  -2  -6  109.19    7.20
   3  -2  -6   93.39    9.20
   3  -2  -6  116.19    8.00
   3  -2  -6  107.89   12.10
  -4   2   6   33.70    7.50
  -4   2   6   22.10    6.70
  -4   2   6   32.10    5.60
  -4   2   6   22.40    7.00
  -4   2   6   21.80    5.70
   4  -2  -6   33.00    5.30
   4  -2  -6   31.80    7.30
   4  -2  -6   26.50    5.90
   4  -2  -6   26.20    5.40
  -5   2   6  220.38   14.50
  -5   2   6  237.48   14.20
  -5   2   6  218.38   17.30
  -5   2   6  230.88   18.00
  -5   2   6  219.38   17.20
   5  -2  -6  232.98   13.00
   5  -2  -6  219.28   14.60
   5  -2  -6  216.78   14.10
   5  -2  -6  234.88   16.40
   5  -2  -6  243.18   15.20
  -6   2   6  137.09   15.30
  -6   2   6  192.08   15.10
  -6   2   6  150.68   14.50
  -6   2   6  104.29   14.10
  -6   2   6  140.39   13.80
   6  -2  -6  139.39   14.10
   6  -2  -6  156.38   18.00
   6  -2  -6  169.98   15.90
   6  -2  -6  148.39    9.50
   6  -2  -6  125.79   14.90
  -7   2   6   13.70   12.80
  -7   2   6   -1.80   10.50
  -7   2   6  -12.20   13.90
  -7   2   6   -4.80   11.80
   7  -2  -6   -9.90   11.60
   7  -2  -6  -10.40   12.60
   7  -2  -6   -9.20   10.20
   8   3   5   46.00   18.90
  -8  -3  -5   23.30   18.40
  -8  -3  -5   45.00   15.00
  -8  -3  -5   31.90   13.80
   7   3   5   67.39   10.80
   7   3   5   68.59   12.20
   7   3   5   72.49   16.30
  -7  -3  -5   54.29   11.60
  -7  -3  -5   83.99   11.80
  -7  -3  -5   38.30   13.80
  -7  -3  -5   53.59   12.20
   6   3   5  236.88   19.10
   6   3   5  243.38   15.90
   6   3   5  233.68   16.70
  -6  -3  -5  202.48   19.20
  -6  -3  -5  230.28   18.90
  -6  -3  -5  207.58   15.20
  -6  -3  -5  257.27   17.10
   5   3   5    4.40    6.80
   5   3   5   -2.80    5.80
   5   3   5    1.30    5.20
  -5  -3  -5    3.90    8.60
  -5  -3  -5    2.80    5.20
  -5  -3  -5   -7.10    7.50
  -5  -3  -5   -6.00    8.90
   4   3   5  273.67   16.70
   4   3   5  269.77   14.00
   4   3   5  265.87   15.50
  -4  -3  -5  274.87   16.40
  -4  -3  -5  291.87   14.00
  -4  -3  -5  305.17   16.80
   3   3   5  233.08   11.00
   3   3   5  243.08   13.50
   3   3   5  237.58   13.90
  -3  -3  -5  232.38   12.80
  -3  -3  -5  226.58    9.80
   2   3   5  289.57   12.00
   2   3   5  292.57   14.30
   2   3   5  299.87   14.30
   2   3   5  296.77   14.50
  -2  -3  -5  290.57   14.30
  -2  -3  -5  289.07   14.20
   1   3   5 3250.37  121.59
   1   3   5 2947.10  120.09
   1   3   5 2962.10  120.79
   1   3   5 3078.49  120.89
  -1  -3  -5 3133.19  121.09
  -1  -3  -5 3080.19  120.99
   0   3   5 1753.62   68.39
   0   3   5 1639.24   66.89
   0   3   5 1847.62   69.29
   0   3   5 1665.63   68.19
   0  -3  -5 1680.13   68.29
   0  -3  -5 1732.03   68.39
  -1   3   5  673.13   27.10
  -1   3   5  666.13   27.80
  -1   3   5  636.04   27.60
  -1   3   5  679.13   29.30
   1  -3  -5  657.43   27.20
   1  -3  -5  641.24   27.80
   1  -3  -5  702.03   29.20
   1  -3  -5  658.23   26.90
   1  -3  -5  670.33   27.80
  -2   3   5  495.15   21.60
  -2   3   5  501.55   21.50
  -2   3   5  509.35   21.40
  -2   3   5  459.65   22.40
   2  -3  -5  468.85   21.60
   2  -3  -5  488.95   21.60
   2  -3  -5  492.35   21.50
  -3   3   5   22.60    5.20
  -3   3   5   23.00    6.10
  -3   3   5   27.50    5.20
   3  -3  -5   25.40    4.70
   3  -3  -5   16.00    5.10
   3  -3  -5   18.80    6.20
   3  -3  -5   18.70    6.70
   3  -3  -5   19.90    5.20
  -4   3   5   10.50    6.00
  -4   3   5    6.20    5.60
  -4   3   5   12.80    6.70
  -4   3   5    7.30    6.20
   4  -3  -5    8.70    5.10
   4  -3  -5   22.70    6.10
   4  -3  -5   16.80    6.00
   4  -3  -5   14.00    6.30
  -5   3   5    6.20    8.90
  -5   3   5  -12.60    7.40
  -5   3   5   -5.50    6.10
  -5   3   5    3.70    8.80
  -5   3   5    8.20    7.30
   5  -3  -5   -4.00    6.70
   5  -3  -5    2.70    5.90
   5  -3  -5    8.90    7.20
   5  -3  -5    1.60    8.00
  -6   3   5  247.38   21.40
  -6   3   5  263.97   20.00
  -6   3   5  269.97   19.60
  -6   3   5  252.97   19.70
  -6   3   5  229.88   18.20
   6  -3  -5  255.27   18.50
   6  -3  -5  229.98   21.00
   6  -3  -5  271.47   17.40
   6  -3  -5  266.47   18.60
  -7   3   5    5.40   14.50
  -7   3   5   20.30   12.50
  -7   3   5   -4.10   12.20
  -7   3   5  -13.60   14.80
   7  -3  -5   -5.30   14.10
   7  -3  -5    2.90   12.10
   7  -3  -5   15.50   12.60
   7  -3  -5    5.10    7.20
   8   4   4  117.89   20.60
   8   4   4   99.69   18.30
  -8  -4  -4  102.99   20.40
  -8  -4  -4  106.59   15.10
   7   4   4  219.38   22.20
   7   4   4  230.38   23.10
   7   4   4  232.18   18.60
  -7  -4  -4  216.28   20.50
  -7  -4  -4  247.18   23.10
   6   4   4   52.79    9.00
   6   4   4   71.99   12.70
   6   4   4   72.89   12.70
  -6  -4  -4   45.10   12.40
   5   4   4    0.10    8.50
   5   4   4   17.60    6.10
   5   4   4   -0.40    9.30
  -5  -4  -4   -3.10    6.80
  -5  -4  -4    4.60    6.90
   4   4   4  112.59    8.90
   4   4   4  143.69   12.60
   4   4   4  116.59   11.60
  -4  -4  -4   96.69   10.00
  -4  -4  -4  126.19   10.80
  -4  -4  -4  112.69    7.70
   3   4   4  250.17   13.40
   3   4   4  240.98   14.60
   3   4   4  219.58   11.10
  -3  -4  -4  224.38   11.60
  -3  -4  -4  239.28   14.50
  -3  -4  -4  216.88   13.30
   2   4   4  123.09    6.80
   2   4   4  127.89    9.00
   2   4   4  147.59   10.20
  -2  -4  -4  136.99    9.10
  -2  -4  -4  127.89   10.50
   1   4   4 1493.55   60.59
   1   4   4 1476.45   58.49
   1   4   4 1361.56   63.59
   1   4   4 1567.74   60.99
  -1  -4  -4 1527.85   60.69
  -1  -4  -4 1517.05   60.69
   0   4   4  655.83   26.70
   0   4   4  660.33   28.60
   0   4   4  661.33   28.50
   0   4   4  632.44   28.60
   0  -4  -4  700.43   28.70
   0  -4  -4  642.94   28.50
  -1   4   4 1430.96   60.69
  -1   4   4 1523.45   59.79
  -1   4   4 1508.05   61.19
  -1   4   4 1471.65   60.69
   1  -4  -4 1570.54   60.99
   1  -4  -4 1496.65   60.89
  -2   4   4   18.00    6.50
  -2   4   4   10.50    4.70
  -2   4   4    3.50    4.70
  -2   4   4   10.80    4.20
   2  -4  -4   11.90    4.50
   2  -4  -4   11.90    5.30
   2  -4  -4    7.10    5.10
   2  -4  -4    6.50    4.90
   2  -4  -4   11.40    5.10
  -3   4   4  195.18   12.20
  -3   4   4  189.88   13.00
  -3   4   4  162.88   12.00
  -3   4   4  175.98   13.10
   3  -4  -4  173.18   12.30
   3  -4  -4  185.08   12.10
   3  -4  -4  165.48   14.40
   3  -4  -4  185.58   12.50
   3  -4  -4  188.48   12.50
  -4   4   4  907.81   40.00
  -4   4   4  960.20   40.80
  -4   4   4  935.61   39.80
  -4   4   4  923.61   40.10
   4  -4  -4  904.81   41.20
   4  -4  -4  832.12   39.60
   4  -4  -4  910.51   40.20
   4  -4  -4  927.61   40.20
  -5   4   4 1693.63   69.09
  -5   4   4 1554.74   68.99
  -5   4   4 1717.63   69.59
  -5   4   4 1601.94   69.09
   5  -4  -4 1571.14   68.69
   5  -4  -4 1728.13   70.19
   5  -4  -4 1665.13   69.19
  -6   4   4 1104.59   49.80
  -6   4   4 1140.49   49.30
  -6   4   4 1021.70   48.00
  -6   4   4 1038.70   48.20
   6  -4  -4 1028.80   50.19
   6  -4  -4 1056.89   48.60
   6  -4  -4 1056.89   48.30
  -7   4   4   -3.00   13.90
  -7   4   4   49.20   14.70
   7  -4  -4   36.50   14.80
   7  -4  -4   46.60   16.20
   7  -4  -4   21.00   11.20
   7  -4  -4   22.30   12.90
   8   5   3   15.70   14.10
   8   5   3   -6.10   17.90
  -8  -5  -3   46.10   18.50
  -8  -5  -3   32.10   13.40
   7   5   3   51.39   11.20
   7   5   3   35.90   15.30
   7   5   3   54.49   15.60
  -7  -5  -3   48.00   11.00
  -7  -5  -3   16.10   13.10
   6   5   3   40.50   13.00
   6   5   3   35.40    9.10
   6   5   3   17.60    9.60
  -6  -5  -3   17.00   11.30
  -6  -5  -3   37.20   13.70
   5   5   3  995.30   42.90
   5   5   3  974.20   44.60
   5   5   3 1039.70   45.90
  -5  -5  -3  979.40   42.40
  -5  -5  -3 1014.20   44.80
  -5  -5  -3 1049.30   45.80
   4   5   3   13.00    5.40
   4   5   3   15.40    8.60
   4   5   3   26.70    8.60
  -4  -5  -3   17.00    8.40
  -4  -5  -3    4.70    6.40
  -4  -5  -3   17.50    5.70
   3   5   3 1369.56   58.39
   3   5   3 1443.66   58.99
   3   5   3 1346.87   56.59
  -3  -5  -3 1522.15   59.39
  -3  -5  -3 1438.16   59.19
  -3  -5  -3 1331.47   57.29
   2   5   3   84.19    9.60
   2   5   3  106.29   10.90
  -2  -5  -3  120.39   16.90
  -2  -5  -3   95.19    9.00
   1   5   3  375.76   19.10
   1   5   3  391.16   19.90
   1   5   3  398.06   16.00
   1   5   3  379.96   19.30
  -1  -5  -3  409.06   19.40
  -1  -5  -3  414.06   20.30
   0   5   3  411.76   18.10
   0   5   3  373.96   19.90
   0   5   3  384.86   19.10
   0   5   3  405.16   20.20
   0  -5  -3  416.26   20.30
   0  -5  -3  399.86   19.30
  -1   5   3  284.27   13.70
  -1   5   3  227.18   16.60
  -1   5   3  248.58   14.30
  -1   5   3  270.57   15.50
   1  -5  -3  287.57   18.50
   1  -5  -3  264.77   15.40
   1  -5  -3  234.08   15.20
  -2   5   3   73.29    9.10
  -2   5   3   57.09    7.60
  -2   5   3   88.09    9.20
  -2   5   3   82.79    9.20
   2  -5  -3   68.69    6.20
   2  -5  -3   65.89   12.00
   2  -5  -3   70.19    9.00
   2  -5  -3   87.09    7.30
   2  -5  -3   73.09    9.20
  -3   5   3  139.19   12.30
  -3   5   3  133.39   13.30
  -3   5   3  107.59   11.20
   3  -5  -3  106.29   10.60
   3  -5  -3  127.99   15.30
   3  -5  -3  115.19   17.40
   3  -5  -3  117.59   12.30
  -4   5   3   -2.30    7.10
  -4   5   3    6.90    8.50
  -4   5   3  -10.80    7.40
  -4   5   3  -13.60    7.30
   4  -5  -3    2.20    8.50
   4  -5  -3   -3.50    6.20
   4  -5  -3   -5.20    7.30
   4  -5  -3   -8.50    5.40
  -5   5   3  149.49   14.20
  -5   5   3  145.89   14.50
  -5   5   3  177.08   16.70
  -5   5   3  150.78   15.10
   5  -5  -3  149.69   14.10
   5  -5  -3  131.79   14.30
   5  -5  -3  164.68   18.40
  -6   5   3   -2.30   11.90
  -6   5   3   15.70   15.60
  -6   5   3   -5.60   10.30
   6  -5  -3  -15.60   11.40
   6  -5  -3   -5.40   10.10
   6  -5  -3   -6.70   12.30
   6  -5  -3    3.20   11.40
   7   6   2    6.80   10.90
   7   6   2   12.30   18.20
   7   6   2    2.20   16.20
  -7  -6  -2  -10.10   12.00
   6   6   2  118.99   16.10
   6   6   2   96.89   21.20
   6   6   2  145.29   13.20
  -6  -6  -2  115.99   17.10
  -6  -6  -2  137.49   13.30
  -6  -6  -2  113.09   14.50
   5   6   2  215.58   19.60
   5   6   2  185.28   19.70
   5   6   2  202.18   14.90
  -5  -6  -2  181.48   17.40
  -5  -6  -2  176.78   15.50
  -5  -6  -2  192.08   19.00
   4   6   2   71.29   10.30
   4   6   2   70.89    8.70
   4   6   2   90.09   12.10
  -4  -6  -2   93.19   10.70
  -4  -6  -2   68.99    9.20
  -4  -6  -2   75.29   11.90
   3   6   2   82.79   11.10
  -3  -6  -2   51.19    8.80
  -3  -6  -2   59.59    9.20
  -3  -6  -2   53.39   10.60
   2   6   2    6.20    7.90
   2   6   2   12.40    4.00
   2   6   2   11.60    6.40
  -2  -6  -2   13.10    6.80
  -2  -6  -2   11.30    8.50
   1   6   2   16.40    8.00
   1   6   2   11.00    6.30
   1   6   2    8.50    3.00
  -1  -6  -2    7.40    8.70
  -1  -6  -2   -1.30    8.10
  -1  -6  -2   14.30    6.20
   0   6   2 1491.95   62.89
   0   6   2 1597.14   61.79
   0   6   2 1420.46   62.39
   0   6   2 1541.95   63.49
   0  -6  -2 1455.15   63.29
   0  -6  -2 1553.84   65.19
   0  -6  -2 1544.35   63.19
  -1   6   2  363.96   17.60
  -1   6   2  324.67   19.20
  -1   6   2  291.07   18.30
  -1   6   2  328.37   19.60
   1  -6  -2  357.96   20.90
   1  -6  -2  315.37   18.00
   1  -6  -2  337.87   19.90
  -2   6   2   -1.00    6.40
  -2   6   2    0.10    5.00
  -2   6   2    0.80    5.90
   2  -6  -2    0.60    3.50
   2  -6  -2    6.20    6.20
   2  -6  -2    2.70    4.60
   2  -6  -2    1.40    6.70
   2  -6  -2    2.80    8.20
  -3   6   2  190.68   14.70
  -3   6   2  184.08   14.60
  -3   6   2  193.28   14.40
  -3   6   2  184.18   15.10
   3  -6  -2  179.18   16.40
   3  -6  -2  180.78   11.50
   3  -6  -2  193.18   19.90
   3  -6  -2  188.78   11.70
   3  -6  -2  184.48   16.20
  -4   6   2   62.29    8.80
  -4   6   2   68.99   11.90
  -4   6   2   49.00   12.30
  -4   6   2   79.29   13.30
   4  -6  -2   72.29   12.90
   4  -6  -2   65.89   12.40
   4  -6  -2   61.99   12.20
   4  -6  -2   66.09    8.60
  -5   6   2  218.08   21.70
  -5   6   2  177.28   17.60
  -5   6   2  188.98   17.80
  -5   6   2  184.08   18.90
   5  -6  -2  181.68   18.50
   5  -6  -2  215.48   19.70
   5  -6  -2  185.08   18.80
   5  -6  -2  227.68   16.80
  -6   6   2   39.50   13.40
  -6   6   2   23.10   11.80
   6  -6  -2   35.90   15.90
   6  -6  -2    4.90   15.40
   6  -6  -2   33.60   17.40
   7   7   1   -4.70   18.20
   7   7   1   11.20   14.50
  -7  -7  -1    9.20   13.40
  -7  -7  -1    0.00   13.90
  -7  -7  -1  -16.90   14.40
   6   7   1  143.39   14.50
   6   7   1  122.09   19.00
   6   7   1  110.39   15.80
  -6  -7  -1  110.59   14.50
  -6  -7  -1   90.59   15.80
  -6  -7  -1  126.39   23.20
   5   7   1   23.10    9.40
   5   7   1   48.40   14.10
   5   7   1   44.20   17.50
  -5  -7  -1   49.10   15.40
  -5  -7  -1   29.00   10.40
  -5  -7  -1   22.10   11.10
  -5  -7  -1   55.49   10.20
   4   7   1  195.98   16.50
   4   7   1  184.98   15.30
   4   7   1  171.68   16.20
  -4  -7  -1  230.28   20.40
  -4  -7  -1  180.98   20.90
  -4  -7  -1  241.48   20.50
  -4  -7  -1  195.08   17.00
   3   7   1  168.48   14.40
   3   7   1  177.98   17.50
  -3  -7  -1  156.48   16.10
  -3  -7  -1  177.58   13.40
  -3  -7  -1  138.39   13.90
  -3  -7  -1  162.68   19.20
   2   7   1   95.19    8.80
   2   7   1   86.89   10.90
   2   7   1   82.89   12.60
  -2  -7  -1   92.69   13.20
  -2  -7  -1   75.79   12.40
  -2  -7  -1  124.29   12.50
   1   7   1   46.30    8.90
   1   7   1   33.40   10.50
   1   7   1   32.60    5.00
  -1  -7  -1   19.60   10.60
  -1  -7  -1   34.70    8.40
  -1  -7  -1   47.20    8.80
   0   7   1  873.41   37.10
   0   7   1  772.32   37.30
   0   7   1  793.82   37.60
   0   7   1  854.31   37.50
   0  -7  -1  852.91   39.10
   0  -7  -1  782.02   41.00
   0  -7  -1  829.62   38.60
  -1   7   1  310.97   18.20
  -1   7   1  268.47   20.40
  -1   7   1  279.97   19.70
  -1   7   1  280.17   17.80
   1  -7  -1  313.87   20.00
   1  -7  -1  300.47   18.40
   1  -7  -1  247.78   22.40
  -2   7   1  206.78   16.50
  -2   7   1  215.98   15.50
  -2   7   1  203.58   18.30
  -2   7   1  237.48   17.70
   2  -7  -1  216.98   11.90
   2  -7  -1  210.68   22.40
   2  -7  -1  208.08   11.60
   2  -7  -1  228.08   19.40
   2  -7  -1  194.68   17.90
  -3   7   1  526.45   29.50
  -3   7   1  467.55   28.20
  -3   7   1  531.85   26.00
  -3   7   1  492.25   29.70
   3  -7  -1  494.45   32.20
   3  -7  -1  497.05   23.40
   3  -7  -1  505.25   29.40
  -4   7   1   33.60   10.00
  -4   7   1   -9.10    9.90
  -4   7   1   40.70   15.20
  -4   7   1   33.70   13.50
   4  -7  -1   -5.20   14.70
   4  -7  -1   38.70    9.10
   4  -7  -1   10.30   13.60
   4  -7  -1   24.40   11.50
  -5   7   1   89.99   13.50
  -5   7   1   72.09   15.00
   5  -7  -1   38.70   18.20
   5  -7  -1   67.79   14.30
   5  -7  -1  102.69   20.80
   5  -7  -1   67.89   12.40
   6   8   0  219.28   24.30
   6   8   0  200.38   24.20
   6   8   0  155.38   18.60
  -6  -8   0  170.28   20.00
  -6  -8   0  130.79   20.00
  -6  -8   0  168.38   19.10
   5   8   0   30.50   18.30
   5   8   0   43.50   17.00
   5   8   0   12.80   12.80
  -5  -8   0   -4.70   13.90
  -5  -8   0   -6.60   13.90
   4   8   0  216.38   19.20
   4   8   0  223.28   17.40
  -4  -8   0  208.38   22.00
  -4  -8   0  217.18   21.20
  -4  -8   0  173.08   19.60
  -4  -8   0  186.88   19.80
   3   8   0   97.29   13.30
   3   8   0   77.39   12.50
   3   8   0   83.49   10.20
  -3  -8   0   83.79   13.30
  -3  -8   0   66.19   12.50
  -3  -8   0  105.19   13.30
  -3  -8   0   77.49   11.90
   2   8   0   44.80   10.30
   2   8   0    9.00    9.50
  -2  -8   0    6.10   12.60
  -2  -8   0   11.10    9.10
  -2  -8   0   25.50   10.30
  -2  -8   0   22.40   12.30
   1   8   0  244.88   14.50
   1   8   0  267.67   18.70
   1   8   0  210.98   17.90
  -1  -8   0  213.58   24.50
  -1  -8   0  288.77   19.50
  -1  -8   0  223.48   18.20
   0   8   0  319.27   20.40
   0   8   0  335.17   24.30
   0   8   0  319.67   21.60
   0   8   0  322.97   21.20
   0  -8   0  300.97   23.50
   0  -8   0  337.77   24.80
   0  -8   0  317.87   23.60
  -1   8   0    3.00    8.90
  -1   8   0   -0.50    8.50
  -1   8   0    3.40   12.60
  -1   8   0   13.90   10.10
   1  -8   0   15.20    4.60
   1  -8   0   -9.90   12.70
   1  -8   0    8.30    9.70
   1  -8   0   -0.40    9.60
  -2   8   0  103.99   15.10
  -2   8   0   83.39   14.10
  -2   8   0   84.89   11.60
  -2   8   0   95.29   16.70
   2  -8   0   75.89   16.00
   2  -8   0   74.09   17.30
   2  -8   0   79.79   13.30
  -3   8   0   70.79   13.20
  -3   8   0   79.69   12.00
   3  -8   0   89.69   10.00
   3  -8   0   74.59   16.80
   3  -8   0   85.19   19.90
  -4   8   0   24.40   11.70
  -4   8   0   24.50   18.50
   4  -8   0    1.00   13.30
   4  -8   0    9.10   10.40
   4  -8   0   19.80   17.10
   4   9  -1   53.39   20.50
   4   9  -1   34.10   13.30
  -4  -9   1   15.50   11.80
  -4  -9   1    0.50   17.30
  -4  -9   1   28.10   18.90
   3   9  -1  173.78   19.80
   3   9  -1  221.98   19.00
   3   9  -1  185.78   21.70
  -3  -9   1  157.48   18.10
  -3  -9   1  158.28   17.10
  -3  -9   1  117.29   22.30
   2   9  -1   32.70   12.00
   2   9  -1   14.50   13.20
  -2  -9   1   24.10   15.10
  -2  -9   1   -8.00   14.00
  -2  -9   1    4.40   13.70
   1   9  -1  207.58   21.60
   1   9  -1  159.48   15.10
   1   9  -1  226.48   23.80
   1   9  -1  203.38   19.10
  -1  -9   1  186.78   21.10
  -1  -9   1  218.58   20.80
  -1  -9   1  123.59   18.00
   0   9  -1  -17.40   14.70
   0   9  -1    2.00   13.40
   0   9  -1   16.50   10.70
   0   9  -1   15.50   16.50
   0  -9   1  -11.10   10.90
   0  -9   1   18.70   16.30
  -1   9  -1   -4.30   14.70
  -1   9  -1   -4.50   10.30
  -1   9  -1    8.20   17.40
   1  -9   1    0.90   16.80
  -2   9  -1   93.69   13.50
  -2   9  -1   97.09   16.50
   2  -9   1  112.89   16.50
   1  -4  13    3.70   11.40
   1  -4  13   27.80   11.50
   1  -4  13   23.20   13.50
   1  -4  13   23.10   16.90
  -1   4 -13   18.30   18.20
  -1   4 -13   52.39   11.70
  -1   4 -13   10.10   11.30
   0  -4  13  163.78   18.20
   0  -4  13  167.98   15.20
   0   4 -13  136.79   21.00
   0   4 -13  148.59   15.30
   0   4 -13  183.78   17.10
  -1  -4  13  200.48   20.20
   1   4 -13  159.48   13.50
   1   4 -13  149.99   21.00
   1   4 -13  195.48   15.70
  -2  -4  13   82.59   17.70
   2   4 -13   21.10   14.90
   4  -3  12  143.59   17.80
   4  -3  12  143.79   17.40
   4  -3  12  122.79   13.90
  -4   3 -12  136.19   17.50
  -4   3 -12  137.09   18.30
  -4   3 -12  127.29   12.40
  -4   3 -12   97.69   18.40
  -4   3 -12  100.59   21.70
   3  -3  12   -8.70   14.30
   3  -3  12   18.10   13.60
   3  -3  12   -3.80   10.70
   3  -3  12   27.20    9.90
  -3   3 -12   18.00   11.60
  -3   3 -12   -1.90   14.80
  -3   3 -12   27.80   12.30
  -3   3 -12   11.80   11.90
   2  -3  12   34.20   10.20
   2  -3  12   41.20   15.60
   2  -3  12   27.50    9.90
   2  -3  12   29.60   10.40
  -2   3 -12   27.10   15.70
  -2   3 -12   25.80   10.10
  -2   3 -12   32.10   10.70
  -2   3 -12   24.20    9.60
   1  -3  12  282.77   16.90
   1  -3  12  279.17   20.10
   1  -3  12  271.87   24.80
   1  -3  12  254.17   17.80
  -1   3 -12  263.37   18.10
  -1   3 -12  274.47   17.40
  -1   3 -12  243.18   19.40
  -1   3 -12  268.37   27.40
   0  -3  12  158.58   15.40
   0  -3  12  134.39   15.40
   0  -3  12  146.49   13.80
   0  -3  12  131.59   10.90
   0   3 -12  114.69   16.90
   0   3 -12  128.79   18.90
   0   3 -12  128.29   10.90
   0   3 -12  135.39   13.00
  -1  -3  12  109.99   14.40
  -1  -3  12  104.19    7.40
   1   3 -12  108.19   14.60
   1   3 -12   87.39   14.10
   1   3 -12  114.29   10.80
   1   3 -12   99.59   10.00
  -2  -3  12   13.80    9.80
   2   3 -12    3.30    9.80
   2   3 -12    9.10   11.70
  -3  -3  12  429.46   29.10
   3   3 -12  384.96   17.20
   3   3 -12  330.37   32.10
   3   3 -12  369.76   24.10
   3   3 -12  381.46   25.90
  -4  -3  12   36.10   16.50
   4   3 -12   -5.70   10.00
   4   3 -12   24.90    4.50
   4   3 -12   18.30    3.80
   4   3 -12   20.10   14.40
   5  -2  11   60.09   13.60
   5  -2  11   21.70    8.40
   5  -2  11   22.60   14.10
  -5   2 -11   28.70   13.80
  -5   2 -11   52.49   15.30
  -5   2 -11   50.69   15.40
  -5   2 -11   36.80   15.00
   4  -2  11  240.08   19.00
   4  -2  11  241.88   20.80
   4  -2  11  198.28   19.40
   4  -2  11  220.88   15.20
  -4   2 -11  241.78   23.20
  -4   2 -11  228.48   19.70
  -4   2 -11  224.48   20.10
  -4   2 -11  236.28   21.20
   3  -2  11  379.76   21.70
   3  -2  11  385.96   20.50
   3  -2  11  401.66   21.40
   3  -2  11  383.36   23.80
  -3   2 -11  356.36   22.80
  -3   2 -11  361.06   22.00
  -3   2 -11  338.77   29.60
  -3   2 -11  377.96   22.00
   2  -2  11   60.49    9.30
   2  -2  11   70.79    9.90
   2  -2  11   53.99    8.50
   2  -2  11   65.09   11.50
  -2   2 -11   62.59    9.40
  -2   2 -11   32.90   13.60
  -2   2 -11   49.80    8.60
  -2   2 -11   50.99    9.80
  -2   2 -11   35.70   10.40
   1  -2  11  656.13   27.90
   1  -2  11  603.74   27.80
   1  -2  11  634.24   29.80
   1  -2  11  630.54   33.40
  -1   2 -11  596.94   33.00
  -1   2 -11  634.94   35.20
  -1   2 -11  604.74   28.00
  -1   2 -11  635.54   28.60
  -1   2 -11  663.73   29.90
   0  -2  11    6.20    4.00
   0  -2  11    6.00    7.40
   0  -2  11   -7.70    9.70
   0  -2  11    1.20    3.50
   0   2 -11    5.30    4.60
   0   2 -11   12.30    8.50
   0   2 -11   -7.70   10.40
   0   2 -11    4.40    7.00
   0   2 -11   -1.30    5.20
  -1  -2  11   68.19   11.50
  -1  -2  11   73.89    9.70
   1   2 -11   51.29   12.10
   1   2 -11   63.49   11.20
   1   2 -11   60.29   10.30
   1   2 -11   72.09   11.60
   1   2 -11   71.89    7.20
   1   2 -11   78.49    6.90
  -2  -2  11   12.90   10.70
  -2  -2  11   31.60    8.10
   2   2 -11    1.80   10.80
   2   2 -11   19.90    2.70
   2   2 -11   32.90    8.90
   2   2 -11   29.70   11.80
   2   2 -11   21.00    3.00
  -3  -2  11  556.64   28.70
   3   2 -11  518.45   27.70
   3   2 -11  579.64   31.70
   3   2 -11  530.15   30.50
   3   2 -11  539.85   29.60
  -4  -2  11  115.99   16.50
   4   2 -11   70.69    4.40
   4   2 -11   70.89    4.30
   4   2 -11   67.69   13.60
   4   2 -11   50.29    8.30
   4   2 -11   50.89   17.10
   4   2 -11   49.30   15.10
  -5  -2  11  141.99   19.10
   5   2 -11  128.39    8.90
   5   2 -11  146.09   15.70
   5   2 -11  134.09    8.90
   6  -1  10  110.29   19.90
   6  -1  10  115.59   16.80
   6  -1  10   90.89    9.00
  -6   1 -10  127.19   17.50
  -6   1 -10  103.99   18.00
  -6   1 -10   74.49   14.90
  -6   1 -10   88.39   15.50
   5  -1  10  105.89    9.30
   5  -1  10  126.89   15.40
   5  -1  10   88.39   13.60
   5  -1  10  117.99   15.20
  -5   1 -10   86.19   12.10
  -5   1 -10   75.89   17.30
  -5   1 -10   84.29   14.40
  -5   1 -10  103.79   14.80
   4  -1  10  325.47   16.60
   4  -1  10  318.77   20.70
   4  -1  10  349.37   21.80
   4  -1  10  361.26   20.80
  -4   1 -10  320.97   20.60
  -4   1 -10  388.96   21.20
  -4   1 -10  344.47   21.20
  -4   1 -10  298.57   23.50
   3  -1  10   68.49    9.00
   3  -1  10   58.39    8.70
   3  -1  10   48.40    9.70
   3  -1  10   63.09    6.70
  -3   1 -10   51.99   10.10
  -3   1 -10   56.29    9.00
  -3   1 -10   55.39    8.90
  -3   1 -10   49.50    9.30
   2  -1  10  542.45   29.80
   2  -1  10  570.14   25.80
   2  -1  10  557.24   26.00
   2  -1  10  597.14   26.20
  -2   1 -10  607.54   30.60
  -2   1 -10  597.64   27.50
  -2   1 -10  552.34   26.80
  -2   1 -10  595.24   26.40
  -2   1 -10  566.34   26.30
   1  -1  10   57.99    5.90
   1  -1  10   51.19    7.80
   1  -1  10   60.29    6.00
   1  -1  10   62.89   10.90
   1  -1  10   69.09    7.00
  -1   1 -10   58.39    6.20
  -1   1 -10   66.19   11.00
  -1   1 -10   57.29    6.70
   0  -1  10  266.67   17.10
   0  -1  10  300.87   16.20
   0  -1  10  298.27   12.90
   0  -1  10  344.37   20.20
   0  -1  10  317.47   13.00
   0   1 -10  293.27   14.10
   0   1 -10  316.67   20.60
   0   1 -10  308.27   16.80
   0   1 -10  284.07   19.80
   0   1 -10  307.77   17.10
   0   1 -10  283.57   13.70
  -1  -1  10  693.93   32.10
  -1  -1  10  724.43   31.90
   1   1 -10  736.93   32.60
   1   1 -10  698.43   34.10
   1   1 -10  763.82   33.00
   1   1 -10  698.43   28.20
   1   1 -10  689.53   33.00
  -2  -1  10 3888.61  161.68
   2   1 -10 4220.18  162.78
   2   1 -10 4089.29  162.38
   2   1 -10 4041.80  161.78
   2   1 -10 4166.78  162.58
   2   1 -10 4075.99  162.98
  -3  -1  10   87.39   11.00
  -3  -1  10  120.59   13.70
   3   1 -10  117.49   12.60
   3   1 -10  105.89   11.80
   3   1 -10  122.79   11.70
   3   1 -10  119.79   14.00
  -4  -1  10  232.18   18.20
  -4  -1  10  229.68   19.00
   4   1 -10  275.47   21.00
   4   1 -10  240.08   18.70
   4   1 -10  239.78   13.90
   4   1 -10  234.08    9.80
   4   1 -10  239.68    9.80
   4   1 -10  235.78   18.00
  -5  -1  10   21.80   12.20
  -5  -1  10   15.20   13.90
   5   1 -10   15.90   13.90
   5   1 -10   19.50    5.20
   5   1 -10   16.40   13.90
   5   1 -10   20.60    4.90
   5   1 -10   34.80   14.50
  -6  -1  10   -1.20   12.20
  -6  -1  10    6.70   13.80
   6   1 -10   31.20   14.90
   6   1 -10   23.70    7.40
   6   1 -10   18.60    9.70
   7   0   9   11.50   12.30
   7   0   9   10.40   12.60
  -7   0  -9    4.70   12.10
  -7   0  -9   17.50   18.50
  -7   0  -9    4.90   12.40
  -7   0  -9   -8.70   14.20
   6   0   9  106.09   14.60
   6   0   9  136.39   17.20
   6   0   9  134.39   17.10
  -6   0  -9  131.29   14.70
  -6   0  -9  107.19   17.30
  -6   0  -9  124.59   15.60
  -6   0  -9  133.39   17.40
   5   0   9   21.70    4.30
   5   0   9   15.30   12.40
   5   0   9   28.30    8.40
   5   0   9   20.20   10.60
  -5   0  -9    3.20   12.40
  -5   0  -9   18.60   11.10
  -5   0  -9   17.60    8.70
  -5   0  -9   12.40   10.40
   4   0   9   50.89    9.20
   4   0   9   48.00   11.80
   4   0   9   66.29    6.10
   4   0   9   63.99    9.80
  -4   0  -9   50.59    9.60
  -4   0  -9   58.69    8.00
  -4   0  -9   40.30   11.00
  -4   0  -9   46.60    9.60
   3   0   9  215.98   11.00
   3   0   9  219.18   14.30
   3   0   9  238.18   17.50
   3   0   9  228.18   14.00
   3   0   9  223.48   11.40
  -3   0  -9  236.58   14.50
  -3   0  -9  222.38   13.40
  -3   0  -9  217.88   17.00
  -3   0  -9  250.87   14.50
   2   0   9  234.48   13.90
   2   0   9  280.07   12.80
   2   0   9  234.88   13.60
   2   0   9  244.28   17.00
   2   0   9  251.97   12.50
  -2   0  -9  251.17   13.90
  -2   0  -9  257.07   13.80
  -2   0  -9  251.37   13.80
  -2   0  -9  232.78   16.80
   1   0   9 1096.49   44.60
   1   0   9 1129.49   44.00
   1   0   9 1042.30   46.40
   1   0   9 1077.69   44.90
  -1   0  -9 1085.89   44.20
  -1   0  -9 1119.59   48.10
  -1   0  -9 1105.39   46.20
  -1   0  -9 1076.49   44.30
   0   0   9  256.87   16.60
   0   0   9  255.87   14.20
   0   0  -9  266.77   15.30
   0   0  -9  264.27   14.30
   0   0  -9  258.57   11.70
   0   0  -9  257.37   11.70
   0   0  -9  278.37   17.40
   0   0  -9  282.17   16.10
  -1   0   9  273.27   15.60
   1   0  -9  279.97   16.70
   1   0  -9  268.17   15.70
   1   0  -9  271.27   17.10
  -2   0   9 1000.10   44.50
   2   0  -9 1031.30   45.10
   2   0  -9 1059.39   45.50
   2   0  -9 1008.70   43.70
   2   0  -9 1030.80   44.30
   2   0  -9 1089.29   45.10
  -3   0   9   87.09   10.60
  -3   0   9   65.39   11.10
   3   0  -9   70.39    7.60
   3   0  -9   76.49    8.20
   3   0  -9   78.09    9.10
   3   0  -9   68.69   10.10
  -4   0   9   33.10   10.40
  -4   0   9   38.10    9.00
   4   0  -9   50.19    9.20
   4   0  -9   36.50    3.80
   4   0  -9   32.10    3.50
   4   0  -9   41.50   11.20
   4   0  -9   20.20    9.50
   4   0  -9   33.80    5.00
  -5   0   9  260.77   22.30
  -5   0   9  277.87   20.70
   5   0  -9  306.47   15.00
   5   0  -9  276.17   20.40
   5   0  -9  283.77   14.50
   5   0  -9  279.67   21.50
   5   0  -9  255.77   18.40
  -6   0   9    3.50   10.80
  -6   0   9    4.90    5.30
  -6   0   9   -0.70    4.80
   6   0  -9   -6.60    7.00
   6   0  -9    8.10    6.20
   6   0  -9  -12.10   11.40
   7   1   8  316.97   27.20
   7   1   8  319.67   23.60
  -7  -1  -8  304.67   29.20
  -7  -1  -8  311.17   25.90
  -7  -1  -8  302.37   22.90
  -7  -1  -8  306.47   28.50
   6   1   8  105.29   15.10
   6   1   8  152.78   16.10
  -6  -1  -8   99.79   13.40
  -6  -1  -8  126.39   11.90
  -6  -1  -8  145.59   16.30
   5   1   8   21.00    8.50
   5   1   8   22.10    6.40
   5   1   8   22.30   10.80
   5   1   8   41.60   10.60
  -5  -1  -8   16.00    7.30
  -5  -1  -8   24.70    9.10
  -5  -1  -8   22.70   10.80
   4   1   8   22.90    7.20
   4   1   8   18.20    7.10
   4   1   8   25.80    5.50
   4   1   8   30.90    7.50
  -4  -1  -8    9.40    6.70
  -4  -1  -8   20.00    6.20
  -4  -1  -8    3.50    7.20
  -4  -1  -8   18.90    5.20
   3   1   8  805.52   35.70
   3   1   8  803.32   36.50
   3   1   8  842.62   34.40
   3   1   8  877.41   35.90
  -3  -1  -8  838.02   34.60
  -3  -1  -8  826.12   35.90
  -3  -1  -8  829.72   38.50
  -3  -1  -8  807.92   35.80
   2   1   8 1352.06   56.19
   2   1   8 1419.76   54.69
   2   1   8 1383.66   54.39
   2   1   8 1304.47   54.49
  -2  -1  -8 1294.87   54.69
  -2  -1  -8 1362.36   53.89
  -2  -1  -8 1319.57   57.59
  -2  -1  -8 1339.37   54.69
   1   1   8  991.50   37.70
   1   1   8  892.61   38.10
   1   1   8  907.01   36.20
   1   1   8  899.11   37.30
  -1  -1  -8  864.21   40.00
  -1  -1  -8  888.11   36.50
  -1  -1  -8  779.32   42.80
  -1  -1  -8  873.81   36.30
  -1  -1  -8  917.41   36.60
   0   1   8   21.60    6.30
   0   1   8   18.40    1.70
   0   1   8   20.40    1.60
   0   1   8   20.00    5.70
   0  -1  -8   12.30    4.70
   0  -1  -8   22.80    2.70
   0  -1  -8   25.60    5.70
   0  -1  -8   14.80    5.10
   0  -1  -8   20.20    4.60
   0  -1  -8   20.30    2.60
  -1   1   8  810.32   35.80
   1  -1  -8  840.22   34.80
   1  -1  -8  846.52   36.50
   1  -1  -8  856.41   36.30
   1  -1  -8  812.92   36.80
   1  -1  -8  893.11   36.70
  -2   1   8  542.05   25.20
   2  -1  -8  545.75   25.40
   2  -1  -8  564.24   25.20
   2  -1  -8  563.14   25.80
   2  -1  -8  513.45   24.10
  -3   1   8  255.87   14.80
   3  -1  -8  227.78   10.30
   3  -1  -8  230.48   13.70
   3  -1  -8  251.27   17.50
   3  -1  -8  238.18   15.00
   3  -1  -8  269.97   15.70
   3  -1  -8  233.78   10.40
   3  -1  -8  245.88   14.60
  -4   1   8  238.28   10.60
  -4   1   8  236.78   10.60
  -4   1   8  272.77   18.80
  -4   1   8  237.28   15.50
   4  -1  -8  255.87   16.10
   4  -1  -8  234.98   12.00
   4  -1  -8  243.28   12.10
   4  -1  -8  248.78   13.20
   4  -1  -8  229.98   16.20
  -5   1   8  330.37   20.00
  -5   1   8  300.57   20.80
  -5   1   8  303.17   14.60
   5  -1  -8  303.67   13.00
   5  -1  -8  347.67   23.30
   5  -1  -8  296.77   13.20
   5  -1  -8  301.47   16.20
   5  -1  -8  311.07   20.30
   5  -1  -8  303.47   15.50
  -6   1   8  242.88   18.70
  -6   1   8  280.77   24.30
   6  -1  -8  292.37   16.10
   6  -1  -8  265.57   21.10
   6  -1  -8  275.07   17.70
   6  -1  -8  207.68   21.90
  -7   1   8    9.30    9.40
  -7   1   8   16.00   12.40
  -7   1   8   26.70   15.90
   7  -1  -8   22.40   11.10
   7  -1  -8    7.60    9.60
   7  -1  -8    6.10   14.50
   8   2   7    5.00   12.80
   8   2   7    0.10   12.70
  -8  -2  -7   15.60   16.20
  -8  -2  -7   23.60   17.50
  -8  -2  -7   23.00   15.90
   7   2   7  130.19   14.30
   7   2   7  133.29   18.40
   7   2   7  106.59   15.20
  -7  -2  -7  119.29   18.30
  -7  -2  -7  131.99   14.20
  -7  -2  -7  152.58   18.20
  -7  -2  -7  128.09   16.60
   6   2   7   85.59   10.70
   6   2   7   85.19   13.50
   6   2   7   95.19   13.50
  -6  -2  -7   89.39   13.60
  -6  -2  -7   90.89   11.70
  -6  -2  -7   86.39    9.40
  -6  -2  -7   82.29   11.40
   5   2   7   13.70    6.10
   5   2   7   12.10    6.50
   5   2   7   15.90    7.30
  -5  -2  -7   10.20    5.50
  -5  -2  -7   32.30    9.40
  -5  -2  -7   19.90    7.40
   4   2   7   11.00    7.00
   4   2   7    8.10    6.70
   4   2   7   10.50    4.90
  -4  -2  -7   20.70    7.30
  -4  -2  -7   16.20    4.20
  -4  -2  -7   15.60    6.40
  -4  -2  -7    2.80    6.70
   3   2   7  936.41   37.90
   3   2   7  920.21   38.80
   3   2   7  891.71   38.60
   3   2   7  936.61   38.80
  -3  -2  -7  900.61   36.70
  -3  -2  -7  902.61   40.80
  -3  -2  -7  885.21   38.60
  -3  -2  -7  874.31   38.50
   2   2   7   20.50    4.70
   2   2   7   26.20    6.00
   2   2   7   22.20    5.20
   2   2   7   22.30    4.70
  -2  -2  -7   13.70    4.80
  -2  -2  -7   21.40    2.00
  -2  -2  -7   19.50    2.50
  -2  -2  -7   16.60    4.60
   1   2   7 1966.80   77.59
   1   2   7 2015.50   78.49
   1   2   7 2028.10   77.59
   1   2   7 1972.20   78.49
  -1  -2  -7 1977.60   77.69
  -1  -2  -7 1950.60   77.59
  -1  -2  -7 1944.61   77.29
  -1  -2  -7 1851.81   76.39
   0   2   7   19.10    4.50
   0   2   7   20.20    2.70
   0   2   7   20.80    2.70
   0   2   7   18.50    5.60
   0  -2  -7   19.30    3.00
   0  -2  -7   17.50    4.60
   0  -2  -7   16.80    3.00
   0  -2  -7   12.80    3.90
  -1   2   7  563.24   22.50
  -1   2   7  566.24   22.50
  -1   2   7  522.85   25.50
   1  -2  -7  543.45   23.60
   1  -2  -7  604.54   24.80
   1  -2  -7  577.94   25.70
   1  -2  -7  562.44   22.90
   1  -2  -7  574.14   23.00
   1  -2  -7  572.84   24.80
  -2   2   7   14.60    1.90
  -2   2   7   13.00    2.00
  -2   2   7    9.30    6.70
   2  -2  -7   10.60    4.80
   2  -2  -7    5.30    8.00
   2  -2  -7   16.20    2.80
   2  -2  -7   15.90    2.90
   2  -2  -7   17.00    4.20
  -3   2   7   16.60    3.00
  -3   2   7   11.50    3.00
  -3   2   7    8.70    5.90
   3  -2  -7    6.80    5.70
   3  -2  -7   10.00    5.60
   3  -2  -7   12.60    3.40
   3  -2  -7   11.00    7.40
   3  -2  -7   11.90    4.00
  -4   2   7  402.16   17.90
  -4   2   7  374.36   22.10
  -4   2   7  370.26   20.60
  -4   2   7  394.06   22.60
   4  -2  -7  390.76   22.70
   4  -2  -7  382.16   18.40
   4  -2  -7  394.56   19.70
   4  -2  -7  417.96   21.00
   4  -2  -7  390.86   18.00
  -5   2   7  127.89   11.30
  -5   2   7  129.39   13.20
  -5   2   7  150.38   14.30
  -5   2   7  144.79   11.20
  -5   2   7  168.38   16.40
   5  -2  -7  135.19   10.80
   5  -2  -7  144.49   10.80
   5  -2  -7  128.79   11.70
   5  -2  -7  121.59   14.70
   5  -2  -7  126.99   12.70
  -6   2   7  215.78   15.90
  -6   2   7  206.28   18.60
  -6   2   7  194.98   19.10
  -6   2   7  218.08   21.70
  -6   2   7  194.28   21.80
   6  -2  -7  217.58   16.70
   6  -2  -7  222.68   20.10
   6  -2  -7  190.08   17.00
   6  -2  -7  228.38   15.80
   6  -2  -7  213.48   10.60
  -7   2   7   20.50   12.40
  -7   2   7   -7.30   13.10
  -7   2   7   16.80   11.00
  -7   2   7   39.00   15.50
   7  -2  -7   -2.20   10.20
   7  -2  -7   22.30   11.90
   7  -2  -7   25.00   15.20
   8   3   6   -8.60   17.70
  -8  -3  -6    8.90   16.40
  -8  -3  -6   38.70   14.40
  -8  -3  -6   14.00   14.50
   7   3   6  162.48   18.10
   7   3   6  146.49   18.20
   7   3   6  117.39   13.10
  -7  -3  -6  127.59   16.60
  -7  -3  -6  144.19   13.40
  -7  -3  -6  166.28   16.10
  -7  -3  -6  137.79   15.90
   6   3   6  258.07   17.30
   6   3   6  240.88   17.70
   6   3   6  265.47   20.80
  -6  -3  -6  249.28   21.30
  -6  -3  -6  266.17   16.90
  -6  -3  -6  276.27   18.00
  -6  -3  -6  236.78   20.10
   5   3   6   17.70    6.50
   5   3   6   19.00    9.80
   5   3   6   29.80    7.50
  -5  -3  -6   23.40    9.50
  -5  -3  -6   30.20    7.00
  -5  -3  -6   26.80    7.30
  -5  -3  -6   22.70    8.60
   4   3   6  951.30   40.10
   4   3   6  950.00   42.40
   4   3   6  993.60   42.70
  -4  -3  -6  960.40   42.50
  -4  -3  -6  993.10   40.10
  -4  -3  -6 1018.50   42.70
   3   3   6  968.40   40.00
   3   3   6  950.30   37.50
   3   3   6  939.61   40.00
  -3  -3  -6  883.01   39.40
  -3  -3  -6  931.51   37.40
   2   3   6  952.50   40.30
   2   3   6  952.80   39.90
   2   3   6  963.20   40.00
   2   3   6  957.60   39.70
  -2  -3  -6  948.61   40.00
  -2  -3  -6  975.20   40.20
   1   3   6  164.98    9.70
   1   3   6  160.18    9.50
   1   3   6  162.48   11.10
   1   3   6  168.78    9.30
  -1  -3  -6  178.38    9.90
  -1  -3  -6  166.88    9.70
   0   3   6 1369.86   55.29
   0   3   6 1379.66   56.39
   0  -3  -6 1381.16   55.39
   0  -3  -6 1393.06   55.39
  -1   3   6   29.60    6.90
  -1   3   6   33.20    4.00
  -1   3   6   33.60    3.60
  -1   3   6   35.50    4.30
   1  -3  -6   32.30    4.20
   1  -3  -6   36.10    3.80
   1  -3  -6   43.50    7.00
   1  -3  -6   39.70    4.40
   1  -3  -6   29.30    4.30
  -2   3   6  721.63   29.70
  -2   3   6  681.03   31.40
  -2   3   6  748.03   30.10
  -2   3   6  712.03   29.80
   2  -3  -6  706.03   31.30
   2  -3  -6  710.13   30.00
   2  -3  -6  726.93   30.30
   2  -3  -6  706.83   29.90
   2  -3  -6  713.53   29.90
  -3   3   6   10.30    5.00
  -3   3   6    8.30    4.30
  -3   3   6   16.40    7.80
  -3   3   6   13.40    5.40
   3  -3  -6   12.50    4.70
   3  -3  -6   19.10    7.70
   3  -3  -6   12.10    5.40
   3  -3  -6   11.70    4.40
  -4   3   6  597.54   28.60
  -4   3   6  565.24   26.30
  -4   3   6  568.54   25.80
  -4   3   6  534.85   27.20
   4  -3  -6  574.24   27.30
   4  -3  -6  591.04   27.40
   4  -3  -6  591.34   25.90
   4  -3  -6  569.04   26.30
  -5   3   6  267.27   16.50
  -5   3   6  289.47   17.90
  -5   3   6  290.17   19.30
  -5   3   6  309.57   17.30
  -5   3   6  262.17   17.50
   5  -3  -6  283.57   16.90
   5  -3  -6  272.97   17.60
   5  -3  -6  274.37   17.00
   5  -3  -6  280.57   19.50
  -6   3   6  316.97   21.00
  -6   3   6  327.97   19.80
  -6   3   6  301.07   22.50
  -6   3   6  304.77   20.90
  -6   3   6  282.67   21.50
   6  -3  -6  307.77   18.60
   6  -3  -6  310.87   22.10
   6  -3  -6  302.97   23.30
   6  -3  -6  297.17   20.40
  -7   3   6   33.20   14.10
  -7   3   6   16.20   14.30
  -7   3   6    2.80   11.40
   7  -3  -6   16.40   12.80
   7  -3  -6    8.60   14.50
   7  -3  -6   11.40    7.00
   7  -3  -6   21.20   13.20
   8   4   5   55.49   14.80
   8   4   5   80.19   23.20
  -8  -4  -5   60.09   15.70
  -8  -4  -5   72.39   16.10
   7   4   5   92.99   17.80
   7   4   5  101.09   17.10
   7   4   5   70.59   11.40
  -7  -4  -5   99.99   16.50
  -7  -4  -5  106.49   13.90
   6   4   5  128.49   15.00
   6   4   5  112.69   10.70
   6   4   5  136.89   14.80
  -6  -4  -5   85.99   12.70
  -6  -4  -5  126.99   15.70
   5   4   5   83.39   12.10
   5   4   5   74.69    8.20
   5   4   5   75.69   11.60
  -5  -4  -5   81.79   10.20
  -5  -4  -5   88.29   10.40
   4   4   5  464.75   24.20
   4   4   5  463.65   23.10
   4   4   5  479.05   21.10
  -4  -4  -5  464.45   24.00
  -4  -4  -5  487.35   24.60
  -4  -4  -5  462.95   19.90
   3   4   5   -3.40    7.30
   3   4   5   -7.90    6.00
   3   4   5    1.40    2.80
  -3  -4  -5    1.20    6.60
  -3  -4  -5    7.10    3.50
  -3  -4  -5   -2.60    4.70
   2   4   5   39.10    3.20
   2   4   5   41.90    7.00
   2   4   5   43.40    6.40
   2   4   5   46.50    6.80
  -2  -4  -5   43.10    6.70
  -2  -4  -5   43.10    5.90
   1   4   5  583.84   26.10
   1   4   5  578.24   25.80
   1   4   5  580.04   22.90
   1   4   5  576.04   22.90
  -1  -4  -5  580.84   26.00
  -1  -4  -5  611.04   26.00
   0   4   5 1255.17   51.49
   0   4   5 1381.16   53.69
   0   4   5 1364.06   54.09
   0   4   5 1283.87   53.39
   0  -4  -5 1282.27   53.39
   0  -4  -5 1302.37   53.49
  -1   4   5 1412.86   57.09
  -1   4   5 1447.76   58.19
  -1   4   5 1440.46   57.09
  -1   4   5 1421.46   55.89
   1  -4  -5 1341.17   54.69
   1  -4  -5 1373.86   57.09
   1  -4  -5 1392.86   57.09
  -2   4   5  311.77   18.50
  -2   4   5  316.37   16.00
  -2   4   5  363.26   17.00
  -2   4   5  337.67   17.00
   2  -4  -5  345.67   16.70
   2  -4  -5  335.97   17.00
   2  -4  -5  351.56   17.20
   2  -4  -5  355.46   18.00
  -3   4   5 2921.51  112.59
  -3   4   5 2770.02  113.69
  -3   4   5 2672.93  112.39
  -3   4   5 2844.02  112.49
   3  -4  -5 2767.42  112.39
   3  -4  -5 2870.71  112.69
   3  -4  -5 2762.02  112.69
   3  -4  -5 2950.30  113.09
   3  -4  -5 2886.81  114.49
  -4   4   5   63.49    9.20
  -4   4   5   69.99    9.20
  -4   4   5   69.09   10.10
  -4   4   5   84.19    9.40
   4  -4  -5   73.69    9.80
   4  -4  -5   87.59    9.80
   4  -4  -5   81.59    9.30
   4  -4  -5   88.99    9.90
  -5   4   5 1950.10   77.89
  -5   4   5 1917.21   78.69
  -5   4   5 1802.52   78.79
  -5   4   5 1848.72   78.09
   5  -4  -5 1940.51   78.89
   5  -4  -5 1884.31   78.29
   5  -4  -5 1934.91   77.99
   5  -4  -5 1811.12   77.89
  -6   4   5    1.70   10.00
  -6   4   5   13.70   11.50
  -6   4   5   14.10   10.10
  -6   4   5   15.70   11.50
   6  -4  -5   -0.30   10.20
   6  -4  -5   -6.60   10.60
   6  -4  -5    7.70   13.30
  -7   4   5  299.67   27.50
   7  -4  -5  316.57   27.60
   7  -4  -5  314.57   27.60
   7  -4  -5  277.67   24.60
   8   5   4   25.10   13.90
   8   5   4   42.00   15.50
  -8  -5  -4   38.20   14.60
  -8  -5  -4   33.80   14.70
   7   5   4  257.27   20.20
   7   5   4  270.97   28.70
   7   5   4  299.97   22.50
  -7  -5  -4  241.78   25.00
  -7  -5  -4  323.17   23.90
  -7  -5  -4  289.67   22.20
   6   5   4   62.49   13.30
   6   5   4   38.30    8.50
   6   5   4   39.20   10.50
  -6  -5  -4   44.00   10.50
  -6  -5  -4   40.30   11.20
   5   5   4  506.05   26.40
   5   5   4  529.55   24.40
   5   5   4  506.75   28.10
  -5  -5  -4  521.35   27.90
  -5  -5  -4  488.05   23.20
  -5  -5  -4  541.55   28.70
   4   5   4  416.16   22.10
   4   5   4  438.46   23.90
   4   5   4  434.36   20.00
  -4  -5  -4  390.26   21.90
  -4  -5  -4  478.45   24.20
  -4  -5  -4  421.76   19.90
   3   5   4  262.87   15.90
   3   5   4  240.08   15.80
   3   5   4  220.38   11.70
  -3  -5  -4  237.08   13.30
  -3  -5  -4  198.38   15.50
  -3  -5  -4  230.78   15.70
   2   5   4   37.70    7.70
  -2  -5  -4   46.50    6.90
  -2  -5  -4   44.40    8.30
   1   5   4 1119.89   49.30
   1   5   4 1208.68   50.19
   1   5   4 1223.08   49.60
  -1  -5  -4 1168.28   49.80
  -1  -5  -4 1216.88   49.99
   0   5   4 1166.48   46.60
   0   5   4 1114.79   48.90
   0   5   4 1216.08   48.70
   0   5   4 1093.39   48.40
   0  -5  -4 1203.98   48.50
   0  -5  -4 1155.38   48.70
  -1   5   4  194.48   13.50
  -1   5   4  211.78   11.50
  -1   5   4  225.88   14.10
  -1   5   4  206.48   12.30
   1  -5  -4  203.98   13.40
   1  -5  -4  207.08   12.30
  -2   5   4   60.39    7.80
  -2   5   4   52.19    6.70
  -2   5   4   63.19    8.20
  -2   5   4   52.89    8.20
   2  -5  -4   69.29   13.90
   2  -5  -4   51.99    7.80
   2  -5  -4   43.20    8.10
   2  -5  -4   55.19    4.40
   2  -5  -4   58.59    8.50
  -3   5   4  411.16   21.50
  -3   5   4  431.26   22.20
  -3   5   4  408.86   22.60
  -3   5   4  446.36   22.60
   3  -5  -4  408.86   22.00
   3  -5  -4  427.36   21.00
   3  -5  -4  441.36   25.20
   3  -5  -4  426.36   21.40
   3  -5  -4  432.16   22.50
  -4   5   4   -4.90    8.20
  -4   5   4    9.90    8.40
  -4   5   4   -2.30    8.50
  -4   5   4  -10.10    7.60
   4  -5  -4   -0.30    7.80
   4  -5  -4   -3.40    8.40
   4  -5  -4   -5.30    7.50
   4  -5  -4    2.80    7.80
  -5   5   4  147.19   13.30
  -5   5   4  154.08   15.00
  -5   5   4  162.78   15.80
  -5   5   4  131.89   14.20
   5  -5  -4  141.49   14.80
   5  -5  -4  121.09   14.40
   5  -5  -4  116.09   17.50
   5  -5  -4  139.29   14.60
  -6   5   4   21.00   14.00
  -6   5   4   27.40   11.30
  -6   5   4   17.30   16.40
   6  -5  -4   33.60   12.40
   6  -5  -4   32.70   14.90
   6  -5  -4   -0.90   13.30
   6  -5  -4   20.30   12.70
   7   6   3   31.30   11.90
   7   6   3   36.70   16.70
   7   6   3   63.59   15.30
  -7  -6  -3    0.60   17.40
   6   6   3   55.19   14.40
   6   6   3   36.80   11.60
   6   6   3   52.99   10.20
  -6  -6  -3   51.59   15.70
  -6  -6  -3   50.89   11.70
  -6  -6  -3   40.30    9.70
   5   6   3    0.10    7.40
   5   6   3    2.60   11.10
   5   6   3  -14.40    7.40
  -5  -6  -3   -5.50    8.50
  -5  -6  -3   13.50   10.80
  -5  -6  -3   10.00    7.50
   4   6   3  323.17   17.60
   4   6   3  335.27   21.90
   4   6   3  365.26   21.90
  -4  -6  -3  343.87   18.70
  -4  -6  -3  329.67   21.90
  -4  -6  -3  324.07   19.80
   3   6   3   45.00    8.40
   3   6   3   50.19    8.40
   3   6   3   45.40    6.50
  -3  -6  -3   56.19   10.30
  -3  -6  -3   40.30    9.90
  -3  -6  -3   30.60    7.40
   2   6   3   90.69   11.20
   2   6   3   97.29    9.70
  -2  -6  -3   66.89   10.50
  -2  -6  -3   94.19   11.60
   1   6   3  382.16   15.50
   1   6   3  388.86   20.10
   1   6   3  397.26   21.60
   1   6   3  355.06   19.80
  -1  -6  -3  416.16   21.50
  -1  -6  -3  412.46   20.40
   0   6   3   98.79    9.10
   0   6   3   86.19   10.40
   0   6   3   75.79   10.20
   0   6   3   71.19   10.10
   0  -6  -3   84.49   11.50
   0  -6  -3   87.99   10.10
   0  -6  -3   80.69   10.60
  -1   6   3   88.99   10.90
  -1   6   3   66.59   13.00
  -1   6   3   83.79    9.10
  -1   6   3   70.79    9.90
   1  -6  -3   93.29   12.40
   1  -6  -3   84.09    9.10
   1  -6  -3  106.19   10.00
  -2   6   3  691.83   30.70
  -2   6   3  666.93   31.80
  -2   6   3  606.24   29.80
  -2   6   3  695.53   30.00
   2  -6  -3  643.84   28.60
   2  -6  -3  675.43   33.10
   2  -6  -3  651.53   26.20
   2  -6  -3  620.94   31.30
   2  -6  -3  644.54   30.50
  -3   6   3    5.10    7.80
  -3   6   3    7.30    7.80
  -3   6   3   13.90    9.50
  -3   6   3   -4.90    7.80
   3  -6  -3   24.90    9.70
   3  -6  -3   -3.90    6.40
   3  -6  -3    1.90    9.90
   3  -6  -3    9.90    4.80
  -4   6   3  278.97   21.60
  -4   6   3  325.77   21.20
  -4   6   3  309.87   19.30
  -4   6   3  282.97   19.30
   4  -6  -3  301.07   17.20
   4  -6  -3  328.27   22.00
   4  -6  -3  292.17   31.10
   4  -6  -3  344.67   25.00
  -5   6   3  117.49   15.10
  -5   6   3  102.89   14.90
  -5   6   3   86.59   15.50
  -5   6   3   89.09   13.40
   5  -6  -3  123.09   16.60
   5  -6  -3  110.09   16.20
   5  -6  -3  102.39   16.00
  -6   6   3   -0.90   14.10
  -6   6   3   36.70   12.10
   6  -6  -3   16.40   15.60
   6  -6  -3   35.70   18.70
   6  -6  -3   -3.20   15.80
   7   7   2    5.90   13.70
   7   7   2    0.50   13.80
  -7  -7  -2   -6.30   12.70
  -7  -7  -2    3.40   18.70
   6   7   2   64.29   17.50
   6   7   2   52.09   11.60
   6   7   2   11.90   16.50
  -6  -7  -2   38.20   10.50
  -6  -7  -2   16.00   15.50
  -6  -7  -2   60.49   16.50
   5   7   2  269.27   18.10
   5   7   2  247.88   19.70
   5   7   2  226.98   19.20
  -5  -7  -2  283.67   23.50
  -5  -7  -2  221.78   18.20
  -5  -7  -2  259.37   20.10
   4   7   2  280.17   17.10
   4   7   2  256.97   18.80
   4   7   2  265.07   21.90
  -4  -7  -2  263.07   18.80
  -4  -7  -2  254.27   18.40
  -4  -7  -2  305.77   23.00
   3   7   2  156.58   15.20
  -3  -7  -2  167.48   17.10
  -3  -7  -2  165.58   16.20
  -3  -7  -2  156.48   14.50
  -3  -7  -2  119.09   15.30
   2   7   2  108.79   13.10
   2   7   2  101.09   12.80
   2   7   2   98.59    8.10
  -2  -7  -2  102.99   12.80
  -2  -7  -2  123.99   12.30
  -2  -7  -2   84.99   11.40
   1   7   2  193.58   16.50
   1   7   2  187.78    9.00
   1   7   2  144.99   15.00
   1   7   2  165.78   15.80
  -1  -7  -2  151.48   13.80
  -1  -7  -2  163.18   16.20
  -1  -7  -2  185.78   17.10
   0   7   2  775.32   35.50
   0   7   2  819.72   37.50
   0   7   2  736.73   35.60
   0   7   2  829.02   37.60
   0  -7  -2  801.62   37.70
   0  -7  -2  838.72   37.80
   0  -7  -2  763.62   38.90
  -1   7   2   78.49   11.50
  -1   7   2   84.39   12.60
  -1   7   2   67.19   10.40
  -1   7   2   70.59    9.40
   1  -7  -2   60.59   11.30
   1  -7  -2   72.39   11.40
   1  -7  -2   65.69   12.80
  -2   7   2  887.31   41.50
  -2   7   2  895.61   41.10
  -2   7   2  878.61   40.30
  -2   7   2  919.51   42.90
   2  -7  -2  938.21   42.80
   2  -7  -2  903.81   38.40
   2  -7  -2  981.50   46.40
   2  -7  -2  926.61   41.90
  -3   7   2    4.30   11.20
  -3   7   2   19.70   12.70
  -3   7   2   18.20   10.60
  -3   7   2    5.20    8.20
   3  -7  -2    8.50   12.20
   3  -7  -2   14.70    5.40
   3  -7  -2   22.50   13.70
  -4   7   2  668.53   32.90
  -4   7   2  711.33   37.30
  -4   7   2  625.24   33.80
  -4   7   2  676.13   33.60
   4  -7  -2  655.03   40.30
   4  -7  -2  635.64   30.30
   4  -7  -2  693.63   36.50
   4  -7  -2  720.83   37.30
  -5   7   2   75.69   13.70
  -5   7   2   77.59   17.50
  -5   7   2  105.79   25.60
   5  -7  -2   81.19   12.40
   5  -7  -2   75.39   18.60
   5  -7  -2   53.69   17.10
   5  -7  -2   66.99   16.00
   6   8   1  162.18   23.20
   6   8   1  174.28   21.20
  -6  -8  -1  194.78   23.40
  -6  -8  -1  185.28   22.10
  -6  -8  -1  171.68   20.70
   5   8   1   43.10   14.50
   5   8   1   75.99   12.80
   5   8   1   41.60   12.80
  -5  -8  -1   62.79   17.30
  -5  -8  -1   54.49   13.80
  -5  -8  -1   50.49   16.50
   4   8   1  183.48   15.00
   4   8   1  170.98   19.30
   4   8   1  155.78   19.00
   4   8   1  191.68   16.50
  -4  -8  -1  210.58   21.50
  -4  -8  -1  134.89   17.60
  -4  -8  -1  131.59   16.30
  -4  -8  -1  156.78   19.20
   3   8   1  142.39   12.90
   3   8   1  123.39   17.30
   3   8   1  169.58   16.90
  -3  -8  -1  133.39   16.70
  -3  -8  -1  134.09   17.40
  -3  -8  -1  141.59   18.00
  -3  -8  -1  153.58   15.40
   2   8   1   31.00    6.40
   2   8   1   60.29   13.90
   2   8   1   27.80   12.80
  -2  -8  -1   58.49   14.40
  -2  -8  -1   23.80   13.10
  -2  -8  -1   27.20   12.60
   1   8   1   37.10    5.80
   1   8   1   43.10   10.70
   1   8   1   38.20   12.20
   1   8   1   61.19   11.50
  -1  -8  -1   44.70   13.20
  -1  -8  -1   58.89   13.70
  -1  -8  -1   67.49   11.20
   0   8   1   45.40    9.90
   0   8   1   30.10   12.40
   0   8   1   38.30    9.80
   0   8   1   33.70   13.00
   0  -8  -1   32.80   10.50
   0  -8  -1   33.80    9.70
   0  -8  -1   47.70   10.30
  -1   8   1   73.69   11.90
  -1   8   1   58.09   11.10
  -1   8   1   79.79   15.00
  -1   8   1   58.59   11.10
   1  -8  -1   54.79   12.50
   1  -8  -1   52.39   15.80
   1  -8  -1   72.09   12.40
  -2   8   1   30.60   14.60
  -2   8   1   25.00   10.10
  -2   8   1    4.20    8.80
  -2   8   1   28.30   14.40
   2  -8  -1   19.10   10.70
   2  -8  -1   26.40   13.80
   2  -8  -1    4.40   15.50
   2  -8  -1   15.00    5.20
  -3   8   1  175.58   18.10
  -3   8   1  188.68   18.60
  -3   8   1  163.88   15.30
   3  -8  -1  105.99   16.40
   3  -8  -1  191.08   19.70
   3  -8  -1  172.18   12.60
   3  -8  -1  168.38   18.80
  -4   8   1   11.60   10.50
  -4   8   1   21.90   15.90
   4  -8  -1   11.20    9.20
   4  -8  -1   46.90   21.00
   4  -8  -1   -7.70   15.40
   4   9   0   32.90   12.30
   4   9   0   20.00   19.30
  -4  -9   0   22.90   15.50
  -4  -9   0   -6.80   18.70
  -4  -9   0   61.89   14.40
   3   9   0  111.59   15.70
   3   9   0   95.29   20.30
   3   9   0   90.39   13.10
  -3  -9   0   63.79   15.80
  -3  -9   0   97.59   18.20
  -3  -9   0   76.49   13.70
   2   9   0   37.40   16.30
   2   9   0   21.30    8.10
   2   9   0   20.80   17.70
  -2  -9   0    8.70   17.00
  -2  -9   0   29.50   16.40
  -2  -9   0   42.10   18.40
  -2  -9   0   17.90   14.30
   1   9   0  206.38   19.10
   1   9   0  224.28   23.40
   1   9   0  217.18   20.20
  -1  -9   0  203.68   23.40
  -1  -9   0  232.28   20.90
  -1  -9   0  249.58   24.00
   0   9   0   91.39   12.90
   0   9   0   58.89   14.30
   0   9   0   70.79   17.60
   0   9   0   84.59   14.50
   0  -9   0  116.79   16.60
   0  -9   0   76.29   16.30
  -1   9   0  141.29   15.20
  -1   9   0  160.58   17.80
  -1   9   0  179.18   18.10
   1  -9   0  148.09   10.40
   1  -9   0  158.18   19.60
   1  -9   0  143.29   21.70
  -2   9   0   74.29   12.70
  -2   9   0   96.79   19.70
  -2   9   0   68.99   17.50
   2  -9   0   70.69   17.60
   3  -3  13    1.20   12.30
   3  -3  13    9.10   12.20
   3  -3  13   29.00   11.70
  -3   3 -13   28.20   11.60
  -3   3 -13   24.20   14.70
  -3   3 -13   14.20   13.10
  -3   3 -13   24.00   12.20
  -3   3 -13   25.90   15.80
   2  -3  13   49.00   12.20
   2  -3  13   49.40   11.10
   2  -3  13   33.70   13.10
   2  -3  13   22.70   17.10
  -2   3 -13   32.50   11.00
  -2   3 -13   52.49   14.60
  -2   3 -13   35.40   16.20
  -2   3 -13   43.80   12.00
  -2   3 -13   35.20   10.60
   1  -3  13   17.80    8.10
   1  -3  13    8.80    8.50
   1  -3  13   -1.80   15.50
   1  -3  13    0.20   11.30
  -1   3 -13    8.70    8.90
  -1   3 -13   -0.10    8.30
  -1   3 -13   -8.30   11.00
  -1   3 -13   -0.30   11.40
   0  -3  13    4.50    5.80
   0  -3  13    2.20    5.40
   0  -3  13  -13.40   12.10
   0   3 -13   -2.30    7.50
   0   3 -13    4.50    6.50
   0   3 -13    2.00   13.60
  -1  -3  13   15.10   13.50
   1   3 -13   23.40   12.70
   1   3 -13   14.60    6.50
  -2  -3  13  139.39   18.60
   2   3 -13   96.19   15.00
   2   3 -13  105.69    7.70
   2   3 -13  111.29    7.70
   3   3 -13  -21.40   12.30
   3   3 -13   10.30   13.70
   5  -2  12  535.45   33.30
   5  -2  12  525.45   34.30
  -5   2 -12  539.15   33.10
  -5   2 -12  580.04   36.40
  -5   2 -12  545.75   37.60
  -5   2 -12  523.05   29.00
   4  -2  12   -8.50   12.10
   4  -2  12    2.60   11.30
   4  -2  12   18.90    8.70
   4  -2  12   22.20   11.60
  -4   2 -12   26.00   12.90
  -4   2 -12   12.50   10.30
  -4   2 -12   12.70   12.60
  -4   2 -12   37.20   14.50
  -4   2 -12  -27.70   12.60
   3  -2  12  324.27   20.30
   3  -2  12  315.87   26.80
   3  -2  12  298.77   20.20
   3  -2  12  310.97   19.20
  -3   2 -12  307.37   19.20
  -3   2 -12  295.37   22.40
  -3   2 -12  312.57   20.30
  -3   2 -12  307.87   30.30
  -3   2 -12  274.47   21.00
   2  -2  12  104.29   16.30
   2  -2  12  131.19   12.00
   2  -2  12  111.39   12.00
   2  -2  12  119.29   11.10
  -2   2 -12   92.99   14.90
  -2   2 -12  124.59   11.90
  -2   2 -12  127.79   12.50
  -2   2 -12  119.09   12.00
  -2   2 -12  138.09   13.90
   1  -2  12  169.98   15.30
   1  -2  12  196.18   12.20
   1  -2  12  156.28   18.50
  -1   2 -12  155.78   12.00
  -1   2 -12  199.48   16.40
  -1   2 -12  167.68   18.20
  -1   2 -12  173.18   17.40
  -1   2 -12  179.68   13.70
   0  -2  12  125.89   13.10
   0  -2  12   99.79    7.30
   0  -2  12  118.89    7.40
   0   2 -12  123.69    9.50
   0   2 -12  119.39   13.00
   0   2 -12  116.49   10.00
   0   2 -12  106.99   15.20
   0   2 -12  149.29   16.50
  -1  -2  12   83.29   11.90
  -1  -2  12   77.69   10.60
   1   2 -12   76.89    6.70
   1   2 -12   85.69   12.30
   1   2 -12   69.09    6.30
   1   2 -12   61.59   14.80
   1   2 -12   60.39   12.10
  -2  -2  12  493.85   26.60
  -2  -2  12  487.95   26.10
   2   2 -12  502.15   28.30
   2   2 -12  460.45   28.90
   2   2 -12  515.75   30.80
  -3  -2  12  249.18   19.10
   3   2 -12  205.88   21.40
   3   2 -12  231.98   24.40
   3   2 -12  236.68   23.70
   3   2 -12  251.97   19.90
   4   2 -12  129.09   12.20
   4   2 -12  150.38   15.00
   6  -1  11   28.70   16.90
   6  -1  11   35.80   18.90
   6  -1  11   28.70    3.90
  -6   1 -11   33.20   17.20
  -6   1 -11   47.10   17.90
  -6   1 -11   37.50   19.20
  -6   1 -11   51.69   16.80
   5  -1  11    6.10   11.30
   5  -1  11   18.20   12.00
   5  -1  11    4.20   12.80
   5  -1  11    4.90    4.60
  -5   1 -11    1.70   11.20
  -5   1 -11   -0.80   11.20
  -5   1 -11    1.10   16.20
  -5   1 -11   22.30   13.40
   4  -1  11  172.28   17.20
   4  -1  11  166.78   16.20
   4  -1  11  163.18   15.80
   4  -1  11  137.39   10.50
  -4   1 -11  129.29   18.80
  -4   1 -11  146.59   14.20
  -4   1 -11  145.79   15.00
   3  -1  11  170.78   12.40
   3  -1  11  218.38   14.90
   3  -1  11  162.58   15.30
   3  -1  11  179.38   17.70
  -3   1 -11  200.98   14.80
  -3   1 -11  216.48   15.90
  -3   1 -11  167.38   14.40
  -3   1 -11  194.38   15.20
  -3   1 -11  199.08   23.00
   2  -1  11 1154.58   48.70
   2  -1  11 1190.78   49.70
   2  -1  11 1295.37   49.99
   2  -1  11 1151.18   52.49
  -2   1 -11 1209.08   50.89
  -2   1 -11 1205.38   56.19
  -2   1 -11 1168.48   49.99
  -2   1 -11 1183.48   50.19
  -2   1 -11 1204.08   50.89
   1  -1  11  640.64   28.10
   1  -1  11  610.84   26.90
   1  -1  11  586.64   30.00
  -1   1 -11  610.14   26.50
  -1   1 -11  595.44   26.80
  -1   1 -11  659.63   29.30
  -1   1 -11  589.54   30.10
  -1   1 -11  576.04   31.30
   0  -1  11 1681.73   68.59
   0  -1  11 1559.74   65.29
   0  -1  11 1526.75   62.19
   0  -1  11 1643.14   66.29
   0  -1  11 1542.55   62.19
   0   1 -11 1669.43   66.39
   0   1 -11 1655.53   68.49
   0   1 -11 1631.54   66.99
   0   1 -11 1598.24   69.19
   0   1 -11 1590.74   63.49
   0   1 -11 1541.05   63.49
  -1  -1  11  123.99   12.30
   1   1 -11  133.39   13.20
   1   1 -11  119.19   12.30
   1   1 -11  129.09   12.70
   1   1 -11  154.88   16.60
  -2  -1  11 1020.90   47.40
   2   1 -11 1133.29   48.00
   2   1 -11 1140.89   49.10
   2   1 -11 1096.29   49.80
   2   1 -11 1124.79   48.70
   2   1 -11 1080.99   49.30
  -3  -1  11   95.89   12.40
   3   1 -11   82.29   10.10
   3   1 -11  107.09   12.70
   3   1 -11  115.69   14.50
   3   1 -11   84.19   11.60
  -4  -1  11  483.65   29.50
  -4  -1  11  485.95   26.90
   4   1 -11  458.15   27.10
   4   1 -11  437.36   22.90
   4   1 -11  457.55   30.70
   4   1 -11  463.95   30.00
  -5  -1  11   79.99   17.40
   5   1 -11   99.79   15.60
   6   0  10   61.99   14.20
   6   0  10   85.09   16.60
  -6   0 -10   91.29   15.50
  -6   0 -10   88.69   14.00
  -6   0 -10   76.39   16.10
  -6   0 -10   72.59   17.10
   5   0  10  -17.30   13.30
   5   0  10    5.30    9.60
   5   0  10  -20.30   10.20
  -5   0 -10    2.10    9.40
  -5   0 -10    7.90   10.90
  -5   0 -10    3.50   10.90
  -5   0 -10   -2.10    8.70
   4   0  10   56.99   10.10
   4   0  10   75.09    6.80
   4   0  10   74.59   10.20
   4   0  10   73.09   11.10
  -4   0 -10   72.29    8.70
  -4   0 -10   51.79   11.40
  -4   0 -10   65.59   12.80
  -4   0 -10   62.29   10.30
   3   0  10  284.07   16.10
   3   0  10  261.27   17.40
   3   0  10  265.47   15.80
  -3   0 -10  296.27   16.20
  -3   0 -10  272.57   16.20
  -3   0 -10  244.68   16.20
  -3   0 -10  265.57   22.00
   2   0  10    3.40    5.30
   2   0  10   -4.90    8.30
   2   0  10   -8.30    6.30
   2   0  10    5.00    5.30
  -2   0 -10    5.50    9.40
  -2   0 -10   -5.20    8.70
  -2   0 -10    4.60    4.90
  -2   0 -10   -4.50    5.20
   1   0  10  678.43   27.20
   1   0  10  648.84   31.50
   1   0  10  640.24   28.30
  -1   0 -10  626.84   32.70
  -1   0 -10  668.53   30.40
  -1   0 -10  661.33   30.30
  -1   0 -10  630.04   27.30
  -1   0 -10  619.94   27.40
   0   0  10 3518.25  142.89
   0   0  10 3603.94  141.39
   0   0 -10 3392.36  139.19
   0   0 -10 3603.54  144.19
   0   0 -10 3649.44  142.49
   0   0 -10 3635.84  141.59
   0   0 -10 3644.94  142.79
  -1   0  10   37.50    7.40
   1   0 -10   23.20    6.60
   1   0 -10   30.00    7.30
   1   0 -10   19.40    8.00
  -2   0  10  101.09   10.20
   2   0 -10  135.19   11.40
   2   0 -10  134.09   12.70
   2   0 -10  130.09   12.70
   2   0 -10  102.89   11.80
   2   0 -10  115.69   11.30
  -3   0  10  240.48   16.00
   3   0 -10  319.37   20.20
   3   0 -10  272.27   16.60
   3   0 -10  248.28   18.50
   3   0 -10  249.08   16.40
  -4   0  10   21.70   10.30
  -4   0  10   48.00   13.30
   4   0 -10   35.20   10.10
   4   0 -10   31.60    8.00
   4   0 -10   29.50    6.20
   4   0 -10   37.20   12.30
  -5   0  10   88.39   15.80
  -5   0  10   67.19   14.10
   5   0 -10   71.69    6.40
   5   0 -10   62.69   16.80
   5   0 -10   54.69   14.20
   5   0 -10   51.69   12.20
   5   0 -10   69.19    6.10
  -6   0  10  178.38   20.70
  -6   0  10  117.29   17.80
   6   0 -10  168.68   12.40
   6   0 -10  193.88   18.90
   7   1   9  146.09   20.20
   7   1   9  178.28   21.30
  -7  -1  -9  148.19   21.70
  -7  -1  -9  150.28   21.10
  -7  -1  -9  147.39   16.50
  -7  -1  -9  176.68   21.10
   6   1   9    9.00    6.90
   6   1   9   39.00   13.70
   6   1   9    7.40   14.10
   6   1   9   18.60   12.40
  -6  -1  -9    7.40    9.50
  -6  -1  -9   10.30   12.70
  -6  -1  -9   21.10   10.30
   5   1   9   72.39   11.70
   5   1   9  100.09    8.70
   5   1   9   88.39   10.70
   5   1   9   82.29   10.50
  -5  -1  -9   85.19    9.60
  -5  -1  -9   81.79   12.50
  -5  -1  -9   81.79   12.60
  -5  -1  -9  102.69   15.20
   4   1   9  357.96   19.50
   4   1   9  353.96   19.60
   4   1   9  336.27   21.90
   4   1   9  341.87   16.90
  -4  -1  -9  314.77   19.40
  -4  -1  -9  328.97   24.10
  -4  -1  -9  341.67   17.60
  -4  -1  -9  359.46   19.90
   3   1   9  120.89   10.30
   3   1   9  122.29    9.50
   3   1   9  117.49   11.40
   3   1   9  117.39   12.30
  -3  -1  -9   86.19   11.00
  -3  -1  -9  102.79   10.50
  -3  -1  -9  133.59    9.20
  -3  -1  -9  118.89   11.50
   2   1   9  645.24   31.10
   2   1   9  684.73   29.00
   2   1   9  651.23   28.70
  -2  -1  -9  666.33   28.40
  -2  -1  -9  690.63   32.80
  -2  -1  -9  693.03   29.00
  -2  -1  -9  673.83   29.30
   1   1   9 1017.80   40.70
   1   1   9  995.30   43.40
   1   1   9  996.50   41.90
  -1  -1  -9 1016.50   41.10
  -1  -1  -9 1011.90   45.50
  -1  -1  -9  995.90   40.90
  -1  -1  -9 1008.10   41.30
  -1  -1  -9 1038.90   43.40
   0   1   9  157.18   10.20
   0   1   9  147.39   12.80
   0  -1  -9  168.28   11.70
   0  -1  -9  160.78   14.20
   0  -1  -9  169.58    7.90
   0  -1  -9  159.58    7.80
   0  -1  -9  167.28   10.60
   0  -1  -9  185.18   11.30
  -1   1   9 1156.88   48.70
   1  -1  -9 1164.88   48.80
   1  -1  -9 1195.38   50.09
   1  -1  -9 1154.48   49.99
   1  -1  -9 1194.98   49.20
   1  -1  -9 1138.59   47.70
  -2   1   9  811.12   36.40
   2  -1  -9  840.92   37.10
   2  -1  -9  813.22   36.80
   2  -1  -9  817.52   35.30
   2  -1  -9  841.92   36.80
   2  -1  -9  851.61   37.00
  -3   1   9   90.89   11.00
   3  -1  -9   93.19   10.10
   3  -1  -9   94.09   10.40
   3  -1  -9   98.99   10.50
   3  -1  -9  103.29    9.20
   3  -1  -9   92.79   10.50
  -4   1   9  252.57   16.80
  -4   1   9  244.58   17.70
   4  -1  -9  272.67   12.10
   4  -1  -9  242.08   17.10
   4  -1  -9  265.17   18.20
   4  -1  -9  282.57   15.20
   4  -1  -9  245.98   11.80
   4  -1  -9  297.17   21.10
  -5   1   9  191.68    8.60
  -5   1   9  180.58   18.10
  -5   1   9  163.68    9.70
  -5   1   9  179.48   17.90
   5  -1  -9  174.88   15.00
   5  -1  -9  211.78   17.90
   5  -1  -9  187.98    9.60
   5  -1  -9  177.98   11.70
   5  -1  -9  198.58   17.80
   5  -1  -9  194.28   12.00
  -6   1   9   22.60    6.20
  -6   1   9   19.60   11.90
  -6   1   9   27.80    6.00
  -6   1   9   34.30   12.90
   6  -1  -9   28.70    7.00
   6  -1  -9   24.00   12.60
   6  -1  -9   29.10    8.20
   7   2   8  252.97   25.10
   7   2   8  219.98   19.90
  -7  -2  -8  319.07   27.00
  -7  -2  -8  183.48   24.40
  -7  -2  -8  260.17   24.90
  -7  -2  -8  183.08   17.10
   6   2   8   82.69   10.80
   6   2   8  118.89   14.80
   6   2   8  116.09   14.50
  -6  -2  -8  107.29   14.70
  -6  -2  -8  104.69   15.10
  -6  -2  -8   94.99   10.70
   5   2   8  184.58   17.00
   5   2   8  186.48   16.70
  -5  -2  -8  195.18   14.50
  -5  -2  -8  215.78   13.40
  -5  -2  -8  166.28   16.90
  -5  -2  -8  210.28   20.40
   4   2   8  107.59   10.20
   4   2   8  108.69   10.60
   4   2   8  108.59   10.00
   4   2   8   97.29   11.70
  -4  -2  -8  110.19   11.00
  -4  -2  -8  109.99   11.50
  -4  -2  -8  110.99    8.70
  -4  -2  -8   91.19   10.90
   3   2   8  320.67   16.10
   3   2   8  310.67   16.50
   3   2   8  304.87   18.00
   3   2   8  290.57   16.70
  -3  -2  -8  281.67   20.40
  -3  -2  -8  307.27   14.00
  -3  -2  -8  309.57   16.50
  -3  -2  -8  323.87   16.50
   2   2   8 1650.03   63.29
   2   2   8 1585.54   63.39
   2   2   8 1626.74   64.29
   2   2   8 1561.24   63.19
  -2  -2  -8 1552.44   63.29
  -2  -2  -8 1526.35   63.29
  -2  -2  -8 1523.35   61.29
  -2  -2  -8 1514.85   61.49
   1   2   8  642.34   28.60
   1   2   8  651.93   28.30
   1   2   8  632.64   26.90
   1   2   8  669.23   27.10
  -1  -2  -8  643.34   25.90
  -1  -2  -8  645.24   27.20
  -1  -2  -8  655.23   26.90
  -1  -2  -8  632.14   27.10
   0   2   8  195.68    8.70
   0   2   8  194.18    8.60
   0   2   8  186.98   12.40
   0   2   8  169.38   11.90
   0  -2  -8  188.88    9.30
   0  -2  -8  188.38   11.20
   0  -2  -8  179.88    9.00
   0  -2  -8  180.38    9.10
   0  -2  -8  194.88   11.70
  -1   2   8 1813.42   74.09
   1  -2  -8 1808.72   73.19
   1  -2  -8 1807.42   72.09
   1  -2  -8 1720.43   70.99
   1  -2  -8 1884.91   74.39
   1  -2  -8 1947.01   75.19
   1  -2  -8 1778.42   71.09
  -2   2   8  711.03   33.60
   2  -2  -8  745.83   32.60
   2  -2  -8  739.43   31.70
   2  -2  -8  799.62   33.70
   2  -2  -8  738.23   29.70
  -3   2   8   54.59    3.30
  -3   2   8   45.30    9.10
  -3   2   8   48.80    3.10
   3  -2  -8   58.89    8.30
   3  -2  -8   53.89    5.60
   3  -2  -8   50.69    6.90
   3  -2  -8   51.59    7.90
   3  -2  -8   44.60   10.00
   3  -2  -8   54.29    4.80
  -4   2   8  267.47   12.60
  -4   2   8  259.77   16.90
  -4   2   8  264.77   12.60
   4  -2  -8  264.87   13.40
   4  -2  -8  301.97   20.10
   4  -2  -8  269.97   13.90
   4  -2  -8  266.87   17.00
   4  -2  -8  294.07   16.10
  -5   2   8 1028.40   41.60
  -5   2   8 1001.20   42.30
  -5   2   8  993.50   46.90
  -5   2   8  934.71   45.90
   5  -2  -8 1009.40   42.10
   5  -2  -8 1020.30   47.30
   5  -2  -8 1059.69   45.70
   5  -2  -8  999.80   42.50
   5  -2  -8 1012.50   42.30
  -6   2   8  131.79   14.60
  -6   2   8  108.09   15.50
  -6   2   8  115.99   10.80
  -6   2   8  134.09   14.50
   6  -2  -8  115.99   11.90
   6  -2  -8   95.09   15.10
   6  -2  -8  125.09   11.10
   6  -2  -8  114.49    5.90
   8   3   7   19.40   18.90
   8   3   7   25.70   17.00
  -8  -3  -7   37.10   14.70
  -8  -3  -7    7.80   15.50
  -8  -3  -7   58.39   15.50
   7   3   7   57.99   11.40
   7   3   7   82.49   15.40
   7   3   7   35.00   15.50
  -7  -3  -7   79.39   11.50
  -7  -3  -7   45.00   15.40
  -7  -3  -7   51.49   14.60
  -7  -3  -7   63.29   13.40
   6   3   7   47.00   10.80
   6   3   7   55.29    9.80
   6   3   7   75.99   13.70
  -6  -3  -7   51.99   10.70
  -6  -3  -7   68.09    9.10
  -6  -3  -7   60.29   13.60
  -6  -3  -7   64.59   12.40
   5   3   7   35.50    8.50
   5   3   7   24.00   10.40
   5   3   7   32.00    6.60
  -5  -3  -7   30.20    9.50
  -5  -3  -7   39.50   10.20
  -5  -3  -7   23.70    6.10
  -5  -3  -7   30.40    8.00
   4   3   7  243.38   12.90
   4   3   7  245.58   16.30
   4   3   7  230.28   14.50
  -4  -3  -7  262.17   16.40
  -4  -3  -7  243.98   14.70
  -4  -3  -7  240.48   12.50
   3   3   7  584.44   27.50
   3   3   7  615.14   27.80
   3   3   7  619.54   27.60
   3   3   7  621.04   27.50
  -3  -3  -7  623.34   24.70
  -3  -3  -7  574.74   27.50
   2   3   7  890.91   37.80
   2   3   7  919.91   38.10
   2   3   7  933.71   38.00
   2   3   7  886.91   38.30
  -2  -3  -7  857.51   37.80
  -2  -3  -7  916.01   38.00
   1   3   7  142.09   10.10
   1   3   7  152.98   11.20
   1   3   7  162.58    9.50
   1   3   7  137.69   13.20
  -1  -3  -7  162.78    9.40
  -1  -3  -7  143.99    9.20
   0   3   7 1557.34   61.39
   0   3   7 1576.14   63.19
   0   3   7 1507.15   61.29
   0  -3  -7 1532.65   61.59
   0  -3  -7 1479.95   59.99
   0  -3  -7 1541.95   61.59
   0  -3  -7 1608.44   61.59
  -1   3   7  855.71   32.90
  -1   3   7  745.03   34.70
   1  -3  -7  784.92   32.70
   1  -3  -7  834.22   35.90
   1  -3  -7  807.72   33.30
   1  -3  -7  800.52   33.10
   1  -3  -7  802.22   33.10
  -2   3   7    1.90    6.70
  -2   3   7   -4.00    2.90
  -2   3   7    4.10    3.50
   2  -3  -7    0.40    3.10
   2  -3  -7    4.20    4.40
   2  -3  -7    3.90    3.60
   2  -3  -7    6.70    4.30
   2  -3  -7    3.00    5.20
  -3   3   7   -4.90    4.90
  -3   3   7    5.60    4.60
  -3   3   7    7.70    5.60
  -3   3   7   -4.10    3.90
   3  -3  -7   -1.70    3.60
   3  -3  -7    0.00    7.60
   3  -3  -7    5.70    4.80
   3  -3  -7    4.50    4.90
   3  -3  -7   15.80    5.30
  -4   3   7  187.58   14.40
  -4   3   7  230.78   13.40
  -4   3   7  245.08   13.30
  -4   3   7  203.28   15.20
   4  -3  -7  204.68   15.30
   4  -3  -7  228.78   15.80
   4  -3  -7  214.08   13.70
   4  -3  -7  262.17   15.70
   4  -3  -7  217.78   13.00
  -5   3   7  174.98   17.20
  -5   3   7  219.18   14.30
  -5   3   7  164.98   14.60
   5  -3  -7  174.38   13.50
   5  -3  -7  170.18   15.10
   5  -3  -7  184.08   14.70
   5  -3  -7  181.08   17.00
  -6   3   7   44.70   13.60
  -6   3   7   18.90   12.30
  -6   3   7   28.30   10.10
  -6   3   7   23.60   10.30
   6  -3  -7   14.70    7.20
   6  -3  -7   19.30    9.10
   8   4   6   55.79   19.10
   8   4   6   49.40   14.50
  -8  -4  -6   73.89   20.60
  -8  -4  -6   51.59   17.50
   7   4   6   61.19   11.60
   7   4   6   78.79   17.50
   7   4   6   67.19   16.70
  -7  -4  -6   55.39   12.80
  -7  -4  -6   38.90   12.50
   6   4   6   97.19   14.80
   6   4   6  112.69   14.80
   6   4   6  124.19   12.50
  -6  -4  -6  125.09   14.60
  -6  -4  -6  122.29   14.90
   5   4   6  165.98   13.50
   5   4   6  147.59   14.30
   5   4   6  148.49   11.30
  -5  -4  -6  132.39   12.70
   4   4   6  212.98   15.20
   4   4   6  175.58   10.60
   4   4   6  198.18   15.20
  -4  -4  -6  202.98   15.30
  -4  -4  -6  174.48   15.10
   3   4   6  521.75   22.70
   3   4   6  556.44   25.30
   3   4   6  502.35   25.10
  -3  -4  -6  539.25   25.40
  -3  -4  -6  553.54   25.40
  -3  -4  -6  511.45   21.90
   2   4   6  206.48   13.60
   2   4   6  238.68   12.50
   2   4   6  247.98   14.20
   2   4   6  239.78   13.50
  -2  -4  -6  245.78   14.10
  -2  -4  -6  242.38   13.90
   1   4   6  283.27   14.10
   1   4   6  264.67   12.20
   1   4   6  245.88   13.80
   1   4   6  262.87   15.50
  -1  -4  -6  262.57   14.10
  -1  -4  -6  256.07   13.90
   0   4   6  652.13   27.90
   0   4   6  619.54   25.50
   0   4   6  629.24   27.90
   0   4   6  659.93   29.40
   0  -4  -6  679.93   28.20
   0  -4  -6  634.14   27.90
  -1   4   6  450.55   21.20
  -1   4   6  427.56   21.90
  -1   4   6  464.45   19.70
  -1   4   6  489.95   21.20
   1  -4  -6  461.35   21.30
   1  -4  -6  473.55   19.80
   1  -4  -6  461.55   22.80
   1  -4  -6  454.55   21.20
   1  -4  -6  467.25   19.00
  -2   4   6   99.49    9.60
  -2   4   6  110.09    9.30
  -2   4   6   87.09    9.40
  -2   4   6  103.29    8.40
   2  -4  -6   98.09   10.50
   2  -4  -6  101.49    8.90
   2  -4  -6  117.09    9.00
   2  -4  -6   96.19    9.20
   2  -4  -6   95.09    7.00
  -3   4   6  265.77   15.90
  -3   4   6  253.07   16.00
  -3   4   6  288.47   16.00
  -3   4   6  305.67   15.30
   3  -4  -6  286.27   16.10
   3  -4  -6  287.57   18.60
   3  -4  -6  266.97   14.90
   3  -4  -6  249.97   15.60
   3  -4  -6  272.27   17.70
  -4   4   6  122.59   12.10
  -4   4   6  111.39   10.40
  -4   4   6   98.39   11.00
  -4   4   6   98.89   10.20
   4  -4  -6   92.59   10.30
   4  -4  -6  107.09   10.00
   4  -4  -6   95.99   11.50
   4  -4  -6  116.29   11.30
   4  -4  -6   94.19   11.80
  -5   4   6  201.28   16.30
  -5   4   6  183.08   16.30
  -5   4   6  146.39   14.10
  -5   4   6  155.08   14.10
   5  -4  -6  181.68   17.10
   5  -4  -6  156.08   14.30
   5  -4  -6  159.48   14.00
   5  -4  -6  177.68   16.10
  -6   4   6   15.30   13.90
  -6   4   6   36.30   11.20
  -6   4   6   29.40   13.60
  -6   4   6   21.10   12.50
   6  -4  -6   16.40   12.70
   6  -4  -6   43.60   11.90
   6  -4  -6   39.10   12.30
   7   5   5   17.70    9.60
   7   5   5   -5.80   11.50
   7   5   5   19.10   15.00
  -7  -5  -5    8.20   12.30
  -7  -5  -5   15.20   13.40
  -7  -5  -5   -5.80   15.00
   6   5   5   49.10    9.20
   6   5   5   40.60   10.60
   6   5   5   57.09   11.70
  -6  -5  -5   48.20   13.70
  -6  -5  -5   23.20   13.50
   5   5   5  198.18   18.30
   5   5   5  192.68   13.20
   5   5   5  179.68   17.80
  -5  -5  -5  199.68   11.80
  -5  -5  -5  222.28   15.90
  -5  -5  -5  200.68   15.80
   4   5   5  373.76   20.20
   4   5   5  363.86   19.80
   4   5   5  365.86   17.10
  -4  -5  -5  385.06   21.50
  -4  -5  -5  327.87   21.10
  -4  -5  -5  349.47   17.10
   3   5   5  335.07   15.30
   3   5   5  314.77   18.10
   3   5   5  363.06   19.80
  -3  -5  -5  346.57   16.70
  -3  -5  -5  317.77   18.30
  -3  -5  -5  408.16   20.10
   2   5   5    4.10    4.90
   2   5   5    9.40    3.00
   2   5   5   14.00    7.80
   2   5   5    8.60    7.00
  -2  -5  -5   10.30    5.20
  -2  -5  -5    3.00    6.80
   1   5   5  621.74   31.90
   1   5   5  715.83   30.80
   1   5   5  684.93   27.50
   1   5   5  721.83   31.60
  -1  -5  -5  704.83   30.40
  -1  -5  -5  646.14   30.60
   0   5   5  682.63   30.20
   0   5   5  650.73   30.90
   0   5   5  684.23   27.60
   0  -5  -5  693.23   30.30
   0  -5  -5  650.53   30.10
  -1   5   5  326.07   17.30
  -1   5   5  314.57   14.90
  -1   5   5  325.87   16.80
  -1   5   5  289.57   17.80
   1  -5  -5  328.27   17.20
   1  -5  -5  308.97   16.20
  -2   5   5 1761.72   71.19
  -2   5   5 1699.03   72.79
  -2   5   5 1869.51   72.39
  -2   5   5 1726.93   72.29
   2  -5  -5 1782.02   72.39
   2  -5  -5 1816.62   74.99
   2  -5  -5 1866.01   72.29
   2  -5  -5 1658.33   68.99
   2  -5  -5 1757.62   72.39
  -3   5   5  309.97   19.10
  -3   5   5  340.77   20.20
  -3   5   5  362.86   18.80
  -3   5   5  312.57   18.90
   3  -5  -5  353.26   18.60
   3  -5  -5  360.46   19.10
   3  -5  -5  355.36   19.30
   3  -5  -5  351.86   22.50
  -4   5   5 2111.09   86.09
  -4   5   5 2087.09   86.29
  -4   5   5 2105.19   86.69
  -4   5   5 2180.58   86.29
   4  -5  -5 1967.40   86.09
   4  -5  -5 2191.38   86.69
   4  -5  -5 2040.30   85.99
   4  -5  -5 2149.69   88.29
  -5   5   5   25.30   11.50
  -5   5   5   35.10   11.00
  -5   5   5   46.10    9.30
  -5   5   5   41.10   12.10
   5  -5  -5   32.60   11.00
   5  -5  -5   28.70   11.50
   5  -5  -5   26.10   11.00
   5  -5  -5   55.99   11.20
  -6   5   5  211.18   18.20
  -6   5   5  216.28   22.70
  -6   5   5  237.18   24.10
   6  -5  -5  292.17   23.00
   6  -5  -5  249.28   23.60
   6  -5  -5  207.08   19.50
   6  -5  -5  267.97   22.30
   7   6   4   83.29   13.30
   7   6   4  104.09   16.70
  -7  -6  -4  106.59   16.60
   6   6   4   12.70   13.80
   6   6   4   25.30    8.70
   6   6   4   39.10   11.90
  -6  -6  -4   17.90    7.60
  -6  -6  -4   14.60   11.00
   5   6   4  388.36   24.60
   5   6   4  326.77   23.60
   5   6   4  314.17   18.70
  -5  -6  -4  337.17   18.20
  -5  -6  -4  338.77   21.20
  -5  -6  -4  292.87   23.50
   4   6   4  542.85   28.30
   4   6   4  538.65   26.20
   4   6   4  493.45   23.20
  -4  -6  -4  489.55   24.00
  -4  -6  -4  480.35   26.20
  -4  -6  -4  566.34   28.50
   3   6   4   11.60    9.30
   3   6   4   15.70    4.70
   3   6   4   12.80    9.00
  -3  -6  -4   11.30    9.00
  -3  -6  -4    5.00    9.00
  -3  -6  -4   16.90    6.60
   2   6   4   16.80    8.00
   2   6   4    0.30    6.00
  -2  -6  -4   20.20    6.80
  -2  -6  -4   13.30    8.50
   1   6   4  149.29   12.40
   1   6   4  174.68   10.30
   1   6   4  205.58   14.50
   1   6   4  195.78   14.50
  -1  -6  -4  161.68   12.40
  -1  -6  -4  220.48   15.20
   0   6   4  224.48   16.60
   0   6   4  267.37   13.50
   0   6   4  257.27   16.40
   0   6   4  260.57   16.80
   0  -6  -4  281.17   15.60
   0  -6  -4  231.18   14.90
  -1   6   4  521.55   26.10
  -1   6   4  559.74   27.30
  -1   6   4  579.34   25.20
  -1   6   4  536.45   27.00
   1  -6  -4  586.84   27.70
   1  -6  -4  586.34   31.00
   1  -6  -4  503.45   27.00
  -2   6   4   77.09   10.00
  -2   6   4   38.00    7.90
  -2   6   4   62.99    7.80
  -2   6   4   50.09    9.00
   2  -6  -4   63.19    8.30
   2  -6  -4   70.59   10.30
   2  -6  -4   59.79    9.70
   2  -6  -4   72.89   10.00
  -3   6   4   32.20    9.70
  -3   6   4   14.30    7.70
  -3   6   4   16.60    9.30
  -3   6   4   22.80    9.30
   3  -6  -4   25.80    7.80
   3  -6  -4   34.30   10.00
   3  -6  -4   27.20    8.00
   3  -6  -4   20.50    4.30
   3  -6  -4   22.70   10.60
  -4   6   4   14.10   10.90
  -4   6   4    0.10   11.40
  -4   6   4   -0.70   10.00
  -4   6   4   18.20    9.90
   4  -6  -4    9.90   11.10
   4  -6  -4   -3.80   11.00
  -5   6   4   24.50   11.60
  -5   6   4   13.40   11.00
  -5   6   4    6.40    9.80
  -5   6   4    5.70   12.40
   5  -6  -4    2.30   12.60
   5  -6  -4    5.40   13.00
   5  -6  -4    6.40   12.20
  -6   6   4   18.20   13.20
   6  -6  -4   15.70   15.90
   7   7   3   16.10   13.50
   7   7   3   22.40   19.90
  -7  -7  -3   50.19   13.00
  -7  -7  -3   -5.30   18.30
   6   7   3   -6.80    9.90
   6   7   3   12.60   17.00
   6   7   3  -25.30   14.30
  -6  -7  -3    1.40   10.00
  -6  -7  -3  -10.70   15.90
  -6  -7  -3   -0.60   16.60
   5   7   3  153.78   17.90
   5   7   3  170.38   18.70
   5   7   3  126.89   12.70
  -5  -7  -3  133.09   12.90
  -5  -7  -3  217.38   22.00
  -5  -7  -3  140.79   18.00
   4   7   3  134.79   14.10
   4   7   3  121.49   13.50
   4   7   3  150.58   13.40
  -4  -7  -3  122.99   15.90
  -4  -7  -3  113.19   11.80
  -4  -7  -3  138.49   15.30
   3   7   3    6.10    7.30
  -3  -7  -3  -16.70   10.20
  -3  -7  -3    0.80   10.20
  -3  -7  -3   -6.50    6.80
   2   7   3  258.67   12.00
   2   7   3  254.27   18.90
   2   7   3  223.78   16.30
  -2  -7  -3  215.58   16.20
  -2  -7  -3  252.47   19.20
  -2  -7  -3  272.07   19.40
   1   7   3  278.67   19.00
   1   7   3  294.37   20.10
   1   7   3  301.87   20.20
  -1  -7  -3  315.37   20.70
  -1  -7  -3  298.17   23.20
  -1  -7  -3  296.47   19.90
   0   7   3  -11.40    9.60
   0   7   3   -5.70    6.10
   0   7   3   -0.50    8.20
   0   7   3    1.30    6.00
   0  -7  -3   -0.80    7.90
   0  -7  -3   10.80    9.60
   0  -7  -3    5.60    7.00
  -1   7   3  226.38   18.10
  -1   7   3  202.08   14.30
  -1   7   3  195.98   15.00
  -1   7   3  206.48   15.20
   1  -7  -3  216.98   18.00
   1  -7  -3  241.78   16.00
   1  -7  -3  195.08   21.40
  -2   7   3  187.28   15.10
  -2   7   3  151.98   15.10
  -2   7   3  192.78   18.40
  -2   7   3  174.58   14.90
   2  -7  -3  187.28   14.50
   2  -7  -3  206.78   17.70
   2  -7  -3  145.39   17.40
   2  -7  -3  174.88   17.90
  -3   7   3  128.69   15.90
  -3   7   3  140.99   14.30
  -3   7   3  155.38   16.60
  -3   7   3  168.18   14.00
   3  -7  -3  125.29   17.70
   3  -7  -3  142.09   12.50
   3  -7  -3  147.99    9.00
   3  -7  -3  173.08   16.80
   3  -7  -3  144.99   16.10
  -4   7   3   77.59   13.30
  -4   7   3   76.09   15.40
  -4   7   3   65.39   13.60
  -4   7   3   95.19   23.50
   4  -7  -3   66.49    8.30
   4  -7  -3   92.49   14.10
   4  -7  -3   90.49   16.10
   4  -7  -3   47.90   12.10
  -5   7   3  -11.10   10.90
  -5   7   3   12.90   12.90
  -5   7   3    7.10   10.50
   5  -7  -3    8.80   15.10
   5  -7  -3   -4.90   17.00
   5  -7  -3   -7.20   19.20
   5  -7  -3    9.60   10.30
   6   8   2   -8.20   18.80
   6   8   2   26.40   13.20
  -6  -8  -2   45.80   20.20
  -6  -8  -2   14.90   13.50
  -6  -8  -2   -5.50   15.90
   5   8   2   67.19   16.50
   5   8   2   69.99   12.30
   5   8   2  122.29   19.80
  -5  -8  -2   89.49   19.20
  -5  -8  -2   72.19   16.00
  -5  -8  -2   77.29   14.60
  -5  -8  -2   96.89   13.90
   4   8   2  194.68   16.70
   4   8   2  191.38   20.70
  -4  -8  -2  259.77   25.40
  -4  -8  -2  175.98   20.30
  -4  -8  -2  161.28   16.70
   3   8   2   27.40   13.10
   3   8   2   22.40    6.60
  -3  -8  -2   -4.70   13.50
  -3  -8  -2   16.80   10.50
  -3  -8  -2   20.10   13.80
  -3  -8  -2   32.30   12.80
   2   8   2  203.28   17.40
   2   8   2  201.08   11.60
   2   8   2  209.18   21.10
  -2  -8  -2  238.58   21.80
  -2  -8  -2  240.98   21.00
  -2  -8  -2  181.58   19.30
   1   8   2  287.27   19.50
   1   8   2  241.58   21.60
   1   8   2  267.57   17.90
  -1  -8  -2  278.17   22.40
  -1  -8  -2  288.27   22.40
  -1  -8  -2  272.77   22.30
   0   8   2  -16.30   11.20
   0   8   2    2.50    8.20
   0   8   2   -8.30    7.80
   0   8   2    0.50    6.90
   0  -8  -2    5.00   11.40
   0  -8  -2    4.30    8.90
   0  -8  -2    1.20   11.30
  -1   8   2  500.45   29.70
  -1   8   2  518.25   27.00
  -1   8   2  463.05   27.60
  -1   8   2  503.05   27.60
   1  -8  -2  521.95   34.50
   1  -8  -2  559.54   30.70
  -2   8   2   14.60   10.30
  -2   8   2   17.70    9.90
  -2   8   2   19.20   14.00
  -2   8   2   21.30   15.00
   2  -8  -2    9.10   15.20
   2  -8  -2   33.90   13.90
   2  -8  -2   38.10   14.10
   2  -8  -2   22.10    6.60
  -3   8   2  124.99   15.30
  -3   8   2  134.59   14.40
  -3   8   2  115.89   15.60
   3  -8  -2  129.69   18.90
   3  -8  -2  120.79   15.40
   3  -8  -2   94.99   18.80
  -4   8   2  112.79   18.10
  -4   8   2  132.79   17.40
  -4   8   2  130.99   14.20
   4  -8  -2  141.89   22.30
   4  -8  -2   88.29   15.10
   4  -8  -2   96.89    9.50
   4   9   1   -2.50   11.60
   4   9   1   17.40   10.40
   4   9   1   10.50   13.80
  -4  -9  -1  -35.90   17.50
  -4  -9  -1    4.30   15.40
  -4  -9  -1   25.90   17.80
   3   9   1   92.79   18.10
   3   9   1   53.49   19.20
   3   9   1   79.39   10.30
  -3  -9  -1  117.09   19.50
  -3  -9  -1   59.29   20.80
  -3  -9  -1   84.19   18.60
  -3  -9  -1   72.29   15.20
   2   9   1  281.97   25.80
   2   9   1  330.07   23.10
  -2  -9  -1  281.27   29.40
  -2  -9  -1  292.67   22.80
  -2  -9  -1  328.47   25.40
  -2  -9  -1  271.37   33.00
   1   9   1   18.80   15.60
   1   9   1    3.00   11.20
   1   9   1   12.00   12.70
  -1  -9  -1   13.60   12.10
  -1  -9  -1   25.30   12.90
  -1  -9  -1   25.40   15.40
   0   9   1    1.70    9.90
   0   9   1    6.70   15.10
   0   9   1   -4.20   17.50
   0   9   1   -0.10   11.40
   0  -9  -1   12.50   17.00
   0  -9  -1  -12.50   13.10
  -1   9   1   28.50   11.60
  -1   9   1   27.90   14.20
  -1   9   1   24.00   15.80
   1  -9  -1   33.60   16.50
   1  -9  -1   38.30    7.50
   1  -9  -1   48.10   14.70
  -2   9   1   61.99   18.60
  -2   9   1   60.39   12.40
  -2   9   1   62.29   17.00
   2  -9  -1   91.09   21.40
   2  -9  -1   82.79   18.10
   2  -9  -1   49.20    6.40
   1  -3  14  126.69   17.70
   1  -3  14  155.68   15.10
   1  -3  14  141.59   21.10
  -1   3 -14  136.69   21.90
  -1   3 -14   99.99   13.10
   0  -3  14    0.20    4.10
   0  -3  14   11.70    4.80
   0  -3  14   30.20   14.60
   0   3 -14   -8.10   15.30
   0   3 -14   12.80    8.60
   0   3 -14   -8.00    8.10
   4  -2  13    9.00   18.00
   4  -2  13   19.50   12.60
   4  -2  13    8.50    9.60
  -4   2 -13   30.40   14.60
  -4   2 -13    6.60   18.70
  -4   2 -13   12.30   13.30
  -4   2 -13   -0.20   16.80
  -4   2 -13   11.40   12.60
   3  -2  13  242.38   21.70
   3  -2  13  200.08   20.50
   3  -2  13  233.08   19.60
   3  -2  13  227.58   17.50
  -3   2 -13  183.08   23.70
  -3   2 -13  249.88   20.80
  -3   2 -13  210.58   20.40
  -3   2 -13  236.08   23.00
  -3   2 -13  189.38   19.60
   2  -2  13  259.97   25.60
   2  -2  13  285.87   18.20
   2  -2  13  235.48   17.80
  -2   2 -13  227.18   17.90
  -2   2 -13  259.67   17.70
  -2   2 -13  298.27   29.40
  -2   2 -13  252.57   20.10
  -2   2 -13  239.38   21.50
   1  -2  13  165.28   16.50
   1  -2  13  138.79   14.70
  -1   2 -13  133.19   18.80
  -1   2 -13  164.38   13.90
  -1   2 -13  147.59   11.90
  -1   2 -13  114.19   16.00
  -1   2 -13  163.68   15.30
   0  -2  13   80.39   12.80
   0   2 -13   30.70   16.40
   0   2 -13   46.70   13.00
   0   2 -13   69.29    7.80
   0   2 -13   63.19    7.20
   0   2 -13   50.69   14.10
  -1  -2  13  381.76   25.00
   1   2 -13  358.76   24.80
   1   2 -13  359.16   14.90
   1   2 -13  375.76   27.00
   2   2 -13   -0.40   11.40
   2   2 -13  -18.20   15.00
   2   2 -13  -12.20   11.40
   3   2 -13  220.18   22.10
   3   2 -13  221.48   18.90
   5  -1  12  116.79   16.60
   5  -1  12  103.69   20.30
   5  -1  12   90.59    7.60
  -5   1 -12  102.39   18.00
  -5   1 -12   79.69   16.90
  -5   1 -12   87.19   15.10
  -5   1 -12   82.49   15.80
   4  -1  12   -2.60   10.40
   4  -1  12    2.30   13.90
   4  -1  12   15.70    5.90
   4  -1  12   23.20   12.30
  -4   1 -12    4.30   10.10
  -4   1 -12   22.00   12.00
  -4   1 -12   14.50   10.90
  -4   1 -12   -1.90   15.20
   3  -1  12  547.55   30.80
   3  -1  12  452.55   22.50
   3  -1  12  484.95   25.30
   3  -1  12  494.75   25.00
  -3   1 -12  447.96   33.60
  -3   1 -12  478.15   26.00
  -3   1 -12  479.85   25.60
  -3   1 -12  441.96   25.90
  -3   1 -12  477.85   25.00
   2  -1  12  204.78   13.10
   2  -1  12  233.08   14.90
   2  -1  12  205.98   21.20
   2  -1  12  226.18   14.20
   2  -1  12  217.68   15.00
  -2   1 -12  214.78   20.30
  -2   1 -12  197.58   14.90
  -2   1 -12  209.68   14.60
  -2   1 -12  231.38   16.60
  -2   1 -12  194.48   16.80
   1  -1  12  250.17   12.70
   1  -1  12  260.17   16.10
   1  -1  12  255.47   21.60
   1  -1  12  230.98   14.80
   1  -1  12  229.08   15.30
  -1   1 -12  274.27   21.80
  -1   1 -12  234.38   13.40
  -1   1 -12  270.77   23.30
  -1   1 -12  245.58   18.30
  -1   1 -12  235.38   14.40
   0  -1  12   55.49    9.20
   0  -1  12   60.19   13.50
   0   1 -12   64.39    6.40
   0   1 -12   41.50   11.30
   0   1 -12   46.80   10.10
   0   1 -12   55.19   13.30
  -1  -1  12  396.56   22.30
   1   1 -12  422.16   26.00
   1   1 -12  388.26   25.20
   1   1 -12  408.66   24.40
   1   1 -12  387.86   23.10
  -2  -1  12  253.67   17.90
   2   1 -12  240.58   19.50
   2   1 -12  293.47   18.20
   2   1 -12  246.08   18.80
   2   1 -12  247.28   21.30
   2   1 -12  225.18   20.30
  -3  -1  12  398.86   23.70
   3   1 -12  401.96   26.40
   3   1 -12  381.66   23.10
   3   1 -12  361.46   24.30
   3   1 -12  362.16   23.30
  -4  -1  12  448.86   25.70
   4   1 -12  450.85   27.90
   4   1 -12  459.75   30.60
  -5  -1  12   -2.90   12.70
   5   1 -12   12.40   11.00
   6   0  11  120.99   17.10
   6   0  11  154.28   17.40
  -6   0 -11  116.59   18.20
  -6   0 -11  143.99   19.00
  -6   0 -11  142.39   16.40
  -6   0 -11  166.18   20.00
   5   0  11   36.50   12.50
   5   0  11   33.30   13.70
   5   0  11   51.09   15.90
  -5   0 -11    7.80   10.70
  -5   0 -11   30.60   12.20
  -5   0 -11   24.00   15.20
  -5   0 -11   26.70   10.80
   4   0  11   48.50   10.30
   4   0  11   55.19    5.40
   4   0  11   63.89   11.80
   4   0  11   72.39   11.40
  -4   0 -11   54.99    9.50
  -4   0 -11   47.10   11.30
  -4   0 -11   78.49   13.00
  -4   0 -11   45.30   17.50
   3   0  11   40.00    8.50
   3   0  11   30.10   11.50
   3   0  11   56.19    6.70
   3   0  11   41.90    8.30
  -3   0 -11   41.50    8.40
  -3   0 -11   39.00    8.20
  -3   0 -11   40.80    8.70
  -3   0 -11   41.60   13.40
   2   0  11  640.14   26.90
   2   0  11  603.14   31.60
   2   0  11  616.64   27.20
   2   0  11  612.64   27.20
  -2   0 -11  635.94   34.40
  -2   0 -11  633.44   27.80
  -2   0 -11  605.84   27.30
  -2   0 -11  567.94   27.60
  -2   0 -11  570.44   29.30
   1   0  11  180.38    9.60
   1   0  11  184.88   13.00
   1   0  11  188.58    9.60
   1   0  11  167.68   16.50
  -1   0 -11  189.48   10.80
  -1   0 -11  170.58   18.60
  -1   0 -11  169.58   13.20
  -1   0 -11  198.78   17.10
  -1   0 -11  176.18   11.00
   0   0  11 1005.00   46.90
   0   0  11 1089.19   45.00
   0   0 -11 1136.19   46.80
   0   0 -11  989.00   41.70
   0   0 -11 1065.09   46.40
   0   0 -11 1050.39   44.90
   0   0 -11 1078.99   48.50
  -1   0  11  173.48   13.20
   1   0 -11  137.39   15.60
   1   0 -11  164.68   12.60
   1   0 -11  172.38   13.90
   1   0 -11  205.98   16.80
   1   0 -11  189.48   16.80
  -2   0  11   48.10   10.00
   2   0 -11   45.50   11.00
   2   0 -11   59.79   11.00
   2   0 -11   49.80    8.60
   2   0 -11   51.59    9.50
   2   0 -11   67.59    9.80
  -3   0  11   56.79   11.70
   3   0 -11   35.50    9.00
   3   0 -11   56.19    9.10
   3   0 -11   77.99   10.60
   3   0 -11   59.49    9.80
  -4   0  11   84.79   13.10
   4   0 -11   68.89    8.60
   4   0 -11   90.59   12.60
   4   0 -11   66.49   11.20
   4   0 -11   70.99   12.40
  -5   0  11   53.19   13.10
   5   0 -11   53.09   12.50
   5   0 -11   56.99   12.80
   7   1  10  136.49   20.00
   7   1  10  110.79   17.50
  -7  -1 -10  145.39   20.90
  -7  -1 -10   96.79   16.90
  -7  -1 -10  124.09   21.10
  -7  -1 -10  122.49   22.70
   6   1  10   37.70   11.70
   6   1  10   29.10    8.00
   6   1  10   44.20   13.80
  -6  -1 -10    6.00   16.00
  -6  -1 -10   27.40   14.50
  -6  -1 -10   30.20   15.40
  -6  -1 -10   22.00   10.30
   5   1  10   27.60   13.70
   5   1  10   28.60   11.70
   5   1  10   23.00    7.10
   5   1  10   40.50   10.00
  -5  -1 -10   35.00   11.60
  -5  -1 -10   14.60    8.20
   4   1  10   54.79    7.10
   4   1  10   49.80    9.60
   4   1  10   34.00    9.40
   4   1  10   60.49   10.00
  -4  -1 -10   52.29    7.60
  -4  -1 -10   55.69    9.70
  -4  -1 -10   44.40   12.70
  -4  -1 -10   69.79    9.70
   3   1  10  450.55   23.10
   3   1  10  447.56   22.00
   3   1  10  416.76   21.40
   3   1  10  429.16   20.60
  -3  -1 -10  439.96   22.30
  -3  -1 -10  453.35   20.50
  -3  -1 -10  428.36   27.40
  -3  -1 -10  445.36   21.90
   2   1  10 1816.72   71.19
   2   1  10 1508.35   74.19
   2   1  10 1763.12   70.99
   2   1  10 1770.62   73.49
  -2  -1 -10 1876.41   71.29
  -2  -1 -10 1769.12   71.29
  -2  -1 -10 1813.52   70.59
  -2  -1 -10 1788.02   75.29
   1   1  10  230.58   13.70
   1   1  10  227.08   13.40
   1   1  10  242.18   10.80
   1   1  10  212.98   16.20
  -1  -1 -10  218.88   14.20
  -1  -1 -10  216.48   11.30
  -1  -1 -10  220.48   11.70
  -1  -1 -10  219.98   16.00
  -1  -1 -10  190.38   15.70
  -1  -1 -10  219.48   12.60
   0   1  10  725.93   31.10
   0   1  10  728.33   32.40
   0  -1 -10  631.14   27.90
   0  -1 -10  720.23   33.90
   0  -1 -10  701.83   27.60
   0  -1 -10  720.83   31.80
   0  -1 -10  612.44   32.60
   0  -1 -10  711.93   35.50
  -1   1  10  114.79   10.70
   1  -1 -10  102.49   11.60
   1  -1 -10   98.59   10.60
   1  -1 -10  106.39    8.60
   1  -1 -10   90.79   10.20
   1  -1 -10  104.49   10.00
  -2   1  10   -2.90    5.30
   2  -1 -10   -1.00    8.10
   2  -1 -10    6.40    7.10
   2  -1 -10    0.30    5.40
   2  -1 -10   -1.70    5.80
   2  -1 -10    0.30    9.00
  -3   1  10  416.86   24.60
   3  -1 -10  461.65   22.80
   3  -1 -10  464.15   24.20
   3  -1 -10  469.15   25.60
   3  -1 -10  458.45   24.40
   3  -1 -10  445.46   23.10
  -4   1  10    4.40   10.60
   4  -1 -10    6.90    8.30
   4  -1 -10   11.90    8.00
   4  -1 -10   15.20    5.70
   4  -1 -10   13.60    9.60
  -5   1  10  474.25   27.30
   5  -1 -10  498.35   21.20
   5  -1 -10  494.35   21.70
   5  -1 -10  516.75   32.20
   5  -1 -10  583.74   29.10
   5  -1 -10  510.25   21.20
   5  -1 -10  513.65   29.40
   5  -1 -10  464.95   23.50
  -6   1  10   83.39   18.20
  -6   1  10   54.89   12.00
   6  -1 -10   84.99   12.90
   6  -1 -10  112.69   17.00
   6  -1 -10   66.49    8.40
   7   2   9  198.28   21.30
  -7  -2  -9  132.59   15.50
  -7  -2  -9  153.18   18.20
  -7  -2  -9  163.38   20.50
  -7  -2  -9  134.89   20.80
   6   2   9   48.50   13.60
   6   2   9   45.30   13.60
   6   2   9   40.60    9.40
  -6  -2  -9   65.09    9.20
  -6  -2  -9   41.70   10.90
  -6  -2  -9   32.20   14.10
   5   2   9  239.38   15.60
   5   2   9  278.17   19.00
   5   2   9  267.17   18.10
   5   2   9  233.58   16.80
  -5  -2  -9  236.98   19.20
  -5  -2  -9  268.57   15.60
  -5  -2  -9  236.08   21.50
  -5  -2  -9  271.37   20.70
   4   2   9  258.67   16.50
   4   2   9  260.67   16.50
   4   2   9  245.48   18.60
   4   2   9  244.38   15.00
  -4  -2  -9  236.78   13.40
  -4  -2  -9  251.27   16.80
  -4  -2  -9  244.18   16.50
  -4  -2  -9  258.67   18.90
   3   2   9  281.17   15.90
   3   2   9  318.97   16.40
   3   2   9  278.97   16.90
   3   2   9  266.97   16.60
  -3  -2  -9  328.27   16.70
  -3  -2  -9  271.77   21.10
  -3  -2  -9  289.07   13.70
  -3  -2  -9  304.77   16.40
   2   2   9  126.49    9.70
   2   2   9  137.09   10.40
   2   2   9  133.59   10.00
   2   2   9   96.69   12.20
  -2  -2  -9  100.79   12.30
  -2  -2  -9  129.49    7.00
  -2  -2  -9  122.09    6.90
  -2  -2  -9  125.49   10.00
   1   2   9  475.75   23.60
   1   2   9  516.45   23.60
   1   2   9  501.85   24.10
  -1  -2  -9  532.45   22.00
  -1  -2  -9  487.65   22.00
  -1  -2  -9  515.05   22.00
  -1  -2  -9  501.75   20.80
   0   2   9  573.04   23.10
   0   2   9  579.94   23.20
   0   2   9  576.04   26.80
   0   2   9  584.44   26.50
   0  -2  -9  587.74   25.90
   0  -2  -9  580.14   24.10
   0  -2  -9  583.34   27.20
   0  -2  -9  579.34   27.80
   0  -2  -9  590.54   23.90
   0  -2  -9  561.44   23.80
  -1   2   9  718.03   32.50
   1  -2  -9  697.93   28.80
   1  -2  -9  805.12   34.40
   1  -2  -9  714.23   28.90
   1  -2  -9  762.42   34.20
   1  -2  -9  738.73   32.50
   1  -2  -9  740.33   30.70
  -2   2   9  109.79   11.60
   2  -2  -9  125.29   11.60
   2  -2  -9  128.49   12.00
   2  -2  -9  144.89   11.60
   2  -2  -9  119.89    9.30
  -3   2   9   81.59   11.50
   3  -2  -9   90.79    5.20
   3  -2  -9   89.39    8.80
   3  -2  -9   82.29    5.20
   3  -2  -9   94.79   10.20
   3  -2  -9   80.89   12.10
  -4   2   9  497.05   27.70
   4  -2  -9  522.15   25.50
   4  -2  -9  506.75   28.60
   4  -2  -9  495.25   21.70
   4  -2  -9  514.55   21.90
   4  -2  -9  481.75   25.80
  -5   2   9  244.38   17.60
   5  -2  -9  207.28   19.60
   5  -2  -9  214.18   13.50
   5  -2  -9  232.88   13.40
   5  -2  -9  247.98   18.70
   5  -2  -9  224.38   14.40
  -6   2   9  281.47   23.60
   6  -2  -9  315.77   23.60
   6  -2  -9  266.87   16.30
   6  -2  -9  251.77   17.80
   7   3   8   49.00   12.40
   7   3   8   90.19   18.50
  -7  -3  -8   38.00   16.70
  -7  -3  -8   41.50   14.90
  -7  -3  -8   63.49   12.50
  -7  -3  -8   35.90   13.80
   6   3   8   -2.60    8.10
   6   3   8    2.80    8.90
   6   3   8    0.20   12.60
  -6  -3  -8    6.90   12.00
  -6  -3  -8    3.00   11.70
  -6  -3  -8    5.70    9.10
   5   3   8  241.18   16.20
   5   3   8  246.38   19.00
   5   3   8  223.68   14.30
  -5  -3  -8  233.68   14.00
  -5  -3  -8  281.37   19.50
  -5  -3  -8  231.78   16.10
  -5  -3  -8  234.28   21.50
   4   3   8   13.60    8.00
   4   3   8   10.90    7.50
   4   3   8   20.50    6.90
   4   3   8   17.30    6.30
  -4  -3  -8   26.30    9.20
  -4  -3  -8   31.20    8.60
  -4  -3  -8   11.00    3.80
  -4  -3  -8   18.40    7.60
   3   3   8  149.39   11.90
   3   3   8  143.09   12.70
   3   3   8  181.38   12.10
   3   3   8  160.68   11.80
  -3  -3  -8  156.18    7.40
  -3  -3  -8  128.79   11.70
   2   3   8    7.00    5.70
   2   3   8    2.40    5.20
   2   3   8   12.20    4.90
   2   3   8   11.30    5.70
  -2  -3  -8    6.60    2.60
  -2  -3  -8    0.20    5.00
  -2  -3  -8   11.50    5.10
   1   3   8   91.69    9.10
   1   3   8  101.59    8.50
   1   3   8   96.39    8.10
   1   3   8   87.89    7.80
  -1  -3  -8   87.59    7.20
  -1  -3  -8   79.79    8.00
  -1  -3  -8   99.39    8.00
   0   3   8  122.89   11.30
   0   3   8  126.79    7.60
   0  -3  -8  113.69    8.00
   0  -3  -8  117.49    7.90
   0  -3  -8  135.89    9.10
   0  -3  -8  107.69    5.40
  -1   3   8  376.56   20.50
  -1   3   8  381.36   16.60
  -1   3   8  397.16   16.80
   1  -3  -8  389.66   17.20
   1  -3  -8  394.56   17.10
   1  -3  -8  393.76   18.10
   1  -3  -8  388.76   17.30
   1  -3  -8  396.36   20.20
  -2   3   8  354.26   15.70
  -2   3   8  368.56   20.60
  -2   3   8  377.16   15.80
   2  -3  -8  369.56   21.10
   2  -3  -8  379.16   18.10
   2  -3  -8  370.06   17.50
   2  -3  -8  359.86   16.50
   2  -3  -8  358.46   16.40
  -3   3   8   50.99    4.80
  -3   3   8   33.40    7.20
  -3   3   8   43.00    4.30
   3  -3  -8   51.49    7.20
   3  -3  -8   45.60    8.20
   3  -3  -8   48.20    5.70
   3  -3  -8   37.40    8.20
   3  -3  -8   32.70    4.80
  -4   3   8  418.66   23.00
  -4   3   8  413.56   24.40
  -4   3   8  413.76   19.40
   4  -3  -8  436.76   25.50
   4  -3  -8  456.95   23.10
   4  -3  -8  433.56   23.30
   4  -3  -8  410.46   20.20
   4  -3  -8  407.56   19.70
  -5   3   8  131.79   11.20
  -5   3   8  118.49   15.30
  -5   3   8  134.09   14.10
  -5   3   8  125.99   11.40
   5  -3  -8  108.09   10.80
   5  -3  -8  128.29   11.40
   5  -3  -8   96.89   10.90
   5  -3  -8  118.89   12.50
   5  -3  -8  109.39   16.90
  -6   3   8  253.17   18.50
  -6   3   8  236.18   25.40
  -6   3   8  255.17   18.00
  -6   3   8  260.17   25.80
   6  -3  -8  248.38   17.10
   6  -3  -8  274.87   23.20
   6  -3  -8  198.58   19.80
   6  -3  -8  286.97   17.50
   7   4   7   -5.20   16.00
   7   4   7  -10.70   10.10
  -7  -4  -7    4.00   13.80
  -7  -4  -7    8.70   14.10
   6   4   7  196.58   17.60
   6   4   7  234.38   21.70
   6   4   7  204.48   14.80
  -6  -4  -7  243.78   22.80
  -6  -4  -7  189.48   20.10
   5   4   7  659.93   32.00
   5   4   7  610.84   31.40
   5   4   7  598.94   27.40
  -5  -4  -7  634.54   31.70
   4   4   7  432.16   22.80
   4   4   7  429.26   23.30
   4   4   7  422.76   18.80
  -4  -4  -7  395.96   21.60
  -4  -4  -7  461.95   23.40
   3   4   7   26.30    6.10
   3   4   7   16.20    6.60
   3   4   7   35.60    7.80
   3   4   7   32.80    6.70
  -3  -4  -7   39.50    8.00
  -3  -4  -7   36.60    3.40
  -3  -4  -7   23.30    7.20
   2   4   7  139.59   12.20
   2   4   7  151.88   10.30
   2   4   7  167.48   11.60
   2   4   7  138.19   10.80
  -2  -4  -7  136.99   10.80
  -2  -4  -7  154.18   11.50
   1   4   7   22.00    5.80
   1   4   7   19.50    5.50
   1   4   7   13.30    3.80
   1   4   7   16.70    5.60
  -1  -4  -7   11.90    5.10
  -1  -4  -7   22.80    5.40
   0   4   7 1386.86   54.89
   0   4   7 1358.16   56.39
   0  -4  -7 1313.37   54.89
   0  -4  -7 1339.47   54.99
  -1   4   7  179.28   11.10
  -1   4   7  163.38    9.00
  -1   4   7  193.98   13.80
  -1   4   7  179.88   10.80
   1  -4  -7  177.68    9.30
   1  -4  -7  184.38    9.40
   1  -4  -7  167.98   10.60
   1  -4  -7  160.38   14.00
   1  -4  -7  182.08   10.60
  -2   4   7  339.17   18.60
  -2   4   7  330.67   16.90
  -2   4   7  353.86   16.80
  -2   4   7  336.97   17.00
   2  -4  -7  364.86   17.40
   2  -4  -7  341.57   16.80
   2  -4  -7  342.57   16.00
   2  -4  -7  350.86   17.10
   2  -4  -7  363.26   18.70
  -3   4   7   30.40    6.40
  -3   4   7   26.10    7.70
  -3   4   7   31.10    6.20
  -3   4   7   22.00    6.50
   3  -4  -7   16.80    8.50
   3  -4  -7   22.50    6.00
   3  -4  -7   32.80    6.40
   3  -4  -7   26.80    5.50
   3  -4  -7   34.60    6.60
   3  -4  -7   15.40    8.30
  -4   4   7  489.75   27.40
  -4   4   7  539.35   24.50
  -4   4   7  486.35   25.30
  -4   4   7  491.45   24.70
   4  -4  -7  494.75   25.40
   4  -4  -7  525.05   24.50
   4  -4  -7  515.05   24.90
   4  -4  -7  501.65   30.00
   4  -4  -7  511.55   27.20
  -5   4   7    5.40    8.80
  -5   4   7    6.50    8.90
  -5   4   7   -2.40   10.20
  -5   4   7   -0.70    9.40
   5  -4  -7    7.30   10.00
   5  -4  -7   -5.30    8.10
   5  -4  -7    2.70    9.00
  -6   4   7    6.10   15.10
  -6   4   7   -4.00   12.00
  -6   4   7   14.60   12.00
   6  -4  -7    8.20   12.30
   6  -4  -7   12.50   11.40
   6  -4  -7    5.00   11.40
   6  -4  -7   -0.10   10.80
   7   5   6   -6.30   12.00
   7   5   6   17.30    9.70
  -7  -5  -6   -4.90   15.90
  -7  -5  -6   -3.90   12.90
  -7  -5  -6   13.30   17.30
   6   5   6   66.69    9.80
   6   5   6   61.19   13.70
   6   5   6   71.69   12.50
  -6  -5  -6   58.59   14.40
  -6  -5  -6   64.39   15.30
   5   5   6  122.39   10.90
   5   5   6  108.69   13.90
   5   5   6  114.69   12.60
  -5  -5  -6  110.39   14.10
  -5  -5  -6  135.99   14.00
   4   5   6   77.69    7.30
   4   5   6   61.29   11.00
   4   5   6   55.59    8.60
  -4  -5  -6   67.99    9.50
  -4  -5  -6   62.59    6.60
  -4  -5  -6   55.89   10.90
   3   5   6  262.37   15.50
   3   5   6  261.97   17.10
  -3  -5  -6  252.47   17.10
  -3  -5  -6  275.57   13.60
  -3  -5  -6  258.47   15.80
   2   5   6  114.09   10.50
   2   5   6  131.79    9.90
   2   5   6  108.09   11.50
   2   5   6  120.49    8.30
  -2  -5  -6  141.79   11.80
  -2  -5  -6  131.69   11.60
   1   5   6 1179.98   48.20
   1   5   6 1129.09   48.60
  -1  -5  -6 1137.59   48.30
  -1  -5  -6 1127.89   48.20
   0   5   6  605.94   30.60
   0   5   6  663.83   29.70
   0   5   6  653.13   29.80
   0  -5  -6  684.63   30.10
   0  -5  -6  702.13   30.00
  -1   5   6 6355.26  233.68
  -1   5   6 6095.29  231.98
  -1   5   6 5551.24  234.28
  -1   5   6 6002.10  233.38
   1  -5  -6 5883.11  233.58
   1  -5  -6 6110.49  233.68
   1  -5  -6 5682.43  235.48
  -2   5   6  125.09    9.70
  -2   5   6  112.29   11.60
  -2   5   6   83.69    9.80
  -2   5   6  101.69    9.80
   2  -5  -6  111.89   10.60
   2  -5  -6  100.99   12.30
   2  -5  -6  104.29    9.60
   2  -5  -6  110.99   10.80
   2  -5  -6  100.89    5.70
  -3   5   6 1650.23   65.39
  -3   5   6 1550.54   66.69
  -3   5   6 1546.85   64.79
  -3   5   6 1542.85   65.39
   3  -5  -6 1626.74   65.49
   3  -5  -6 1543.65   64.99
   3  -5  -6 1554.04   65.49
   3  -5  -6 1584.64   65.99
   3  -5  -6 1625.64   68.39
  -4   5   6   72.39   10.50
  -4   5   6   71.79   10.40
  -4   5   6   61.19   10.40
  -4   5   6   48.50   11.90
   4  -5  -6   54.09   10.30
   4  -5  -6   74.59   10.10
   4  -5  -6   59.29   10.20
   4  -5  -6   60.69   11.50
   4  -5  -6   56.59   10.80
  -5   5   6  327.87   22.80
  -5   5   6  325.87   21.70
  -5   5   6  355.16   23.40
  -5   5   6  342.67   23.70
   5  -5  -6  354.66   23.40
   5  -5  -6  343.17   22.00
   5  -5  -6  320.97   24.40
  -6   5   6  134.89   19.30
  -6   5   6  132.99   17.10
   6  -5  -6  151.48   16.60
   6  -5  -6  122.99   16.50
   6  -5  -6  139.39   17.80
   6  -5  -6  122.69   17.30
   7   6   5   72.09   18.60
   7   6   5   54.79   12.00
  -7  -6  -5  103.89   20.20
   6   6   5   36.40    9.40
   6   6   5   33.30   14.60
   6   6   5   30.60   14.80
  -6  -6  -5   36.20   15.40
  -6  -6  -5   37.00   16.20
   5   6   5  403.16   24.70
   5   6   5  361.76   24.10
   5   6   5  343.87   18.00
  -5  -6  -5  315.37   20.80
  -5  -6  -5  303.87   21.00
  -5  -6  -5  288.07   17.30
   4   6   5  133.59   12.90
   4   6   5  113.29    9.30
   4   6   5  130.29   13.00
  -4  -6  -5  122.69   12.90
  -4  -6  -5  105.59   10.60
  -4  -6  -5  131.89   13.60
   3   6   5  182.98   15.40
   3   6   5  175.28    9.90
   3   6   5  186.68   13.50
  -3  -6  -5  166.48   15.70
  -3  -6  -5  169.28   13.20
  -3  -6  -5  136.29   11.70
   2   6   5  152.48    8.80
   2   6   5  154.48   12.50
   2   6   5  177.48   14.70
  -2  -6  -5  143.59   14.20
  -2  -6  -5  171.98   14.50
   1   6   5   -3.30    5.80
   1   6   5    4.30    3.50
   1   6   5   -0.10    6.90
   1   6   5   -6.00    6.90
  -1  -6  -5   10.20    7.40
  -1  -6  -5   -2.90    5.20
   0   6   5   10.70    7.50
   0   6   5   10.50    6.30
   0   6   5   -1.50    7.10
   0   6   5    3.70    3.80
   0  -6  -5    7.90    7.20
   0  -6  -5   10.10    7.80
  -1   6   5   14.40    7.10
  -1   6   5   11.90    4.90
  -1   6   5    2.70    7.40
  -1   6   5    5.50    8.00
   1  -6  -5    8.40    9.50
   1  -6  -5   17.30    8.00
   1  -6  -5    8.50    6.90
  -2   6   5  198.58   13.70
  -2   6   5  210.18   15.50
  -2   6   5  197.18   14.00
  -2   6   5  180.78   15.20
   2  -6  -5  210.58   17.50
   2  -6  -5  213.48   15.40
   2  -6  -5  186.88   16.60
   2  -6  -5  193.18   15.40
  -3   6   5  341.07   22.00
  -3   6   5  361.06   20.90
  -3   6   5  352.36   21.50
  -3   6   5  339.67   19.90
   3  -6  -5  357.56   25.20
   3  -6  -5  384.86   22.00
   3  -6  -5  340.57   21.10
   3  -6  -5  370.66   20.20
   3  -6  -5  346.57   18.00
  -4   6   5   99.89   13.30
  -4   6   5   91.59   13.10
  -4   6   5  122.39   12.80
   4  -6  -5   77.99   13.70
   4  -6  -5   95.69   13.40
   4  -6  -5   92.59   13.20
  -5   6   5    1.90   13.10
  -5   6   5   12.40   11.50
  -5   6   5   16.30   12.30
   5  -6  -5  -17.60   13.20
   5  -6  -5   16.00   13.00
   5  -6  -5   17.30   12.10
   7   7   4   22.60   13.40
  -7  -7  -4   19.60   18.50
   6   7   4   61.09   20.00
   6   7   4   29.50   12.90
   6   7   4   17.30    9.70
  -6  -7  -4   24.00   10.20
  -6  -7  -4    4.00   11.80
  -6  -7  -4   28.10   17.80
   5   7   4    2.00   13.60
   5   7   4   17.20   14.20
   5   7   4   18.80    8.20
  -5  -7  -4    9.30   14.10
  -5  -7  -4   18.20    9.30
  -5  -7  -4   32.70   10.70
   4   7   4  133.19   12.40
   4   7   4  157.48   16.90
   4   7   4  153.28   15.40
  -4  -7  -4  153.88   13.90
  -4  -7  -4  164.18   16.70
  -4  -7  -4  155.58   16.80
   3   7   4   70.69   10.10
   3   7   4   89.29   11.60
   3   7   4   73.69    7.80
  -3  -7  -4   89.69   10.90
  -3  -7  -4   88.19   14.10
  -3  -7  -4   87.79   11.30
   2   7   4   34.20    3.50
   2   7   4   39.50   10.80
   2   7   4   24.40    8.10
   2   7   4   34.20   10.70
  -2  -7  -4   30.50   10.60
  -2  -7  -4   36.50   10.00
   1   7   4  -11.80    5.50
   1   7   4   12.30    6.80
   1   7   4    3.10    6.50
   1   7   4   -6.10    4.70
  -1  -7  -4  -12.20    5.90
  -1  -7  -4    3.60    6.50
   0   7   4  314.57   16.20
   0   7   4  325.37   18.60
   0   7   4  292.17   18.10
   0   7   4  305.47   18.70
   0  -7  -4  307.07   20.10
   0  -7  -4  322.17   21.00
   0  -7  -4  321.57   21.90
  -1   7   4   45.40    9.90
  -1   7   4   44.10   11.20
  -1   7   4   42.60    7.30
  -1   7   4   40.80    8.50
   1  -7  -4   51.29   11.40
   1  -7  -4   46.10   12.70
   1  -7  -4   41.30   10.40
  -2   7   4  188.58   15.10
  -2   7   4  170.78   14.20
  -2   7   4  158.28   15.70
  -2   7   4  159.68   16.50
   2  -7  -4  150.18   18.20
   2  -7  -4  190.58   18.20
   2  -7  -4  182.38   17.70
   2  -7  -4  161.28   13.30
  -3   7   4  238.68   18.40
  -3   7   4  277.87   21.20
  -3   7   4  278.57   19.70
  -3   7   4  267.97   19.10
   3  -7  -4  279.27   21.90
   3  -7  -4  227.28   21.20
   3  -7  -4  262.77   22.00
  -4   7   4   41.80   13.40
  -4   7   4   46.40   13.40
  -4   7   4   44.80   12.10
   4  -7  -4   41.80   14.50
   4  -7  -4   52.19   13.60
   4  -7  -4   45.20    6.80
   4  -7  -4   20.50   16.00
  -5   7   4   12.00   11.80
  -5   7   4    7.40   16.40
  -5   7   4   -2.20   15.40
   5  -7  -4    6.40   16.00
   5  -7  -4   -5.70   19.20
   5  -7  -4   23.20   16.10
   5  -7  -4  -12.90    9.10
   6   8   3   24.80   15.30
   6   8   3    8.90   12.10
  -6  -8  -3   22.50   14.40
  -6  -8  -3   26.90   13.50
   5   8   3   68.99   11.20
   5   8   3   72.59   17.10
   5   8   3   71.09   18.30
  -5  -8  -3   71.69   18.70
  -5  -8  -3   94.29   18.50
  -5  -8  -3   95.19   13.70
   4   8   3  138.39   18.30
   4   8   3  127.69   15.50
   4   8   3  150.28   14.10
  -4  -8  -3  138.89   14.70
  -4  -8  -3  125.99   15.40
  -4  -8  -3  163.18   16.50
  -4  -8  -3  118.19   18.50
   3   8   3   65.39   11.80
   3   8   3   68.59    7.40
  -3  -8  -3   71.29   14.10
  -3  -8  -3   68.39   11.60
  -3  -8  -3   80.19   15.90
  -3  -8  -3   61.39   14.10
   2   8   3  852.81   41.00
   2   8   3  834.42   40.70
   2   8   3  770.32   38.30
  -2  -8  -3  787.92   43.80
  -2  -8  -3  847.52   39.50
  -2  -8  -3  834.02   39.30
   1   8   3   54.79    9.70
   1   8   3   42.20   10.30
   1   8   3   49.40   13.10
   1   8   3   48.00   11.70
  -1  -8  -3   73.89   13.30
  -1  -8  -3   61.49   13.70
  -1  -8  -3   49.90   11.80
   0   8   3  430.76   26.10
   0   8   3  450.25   27.90
   0   8   3  471.25   24.30
   0   8   3  427.06   27.90
   0  -8  -3  503.45   28.30
   0  -8  -3  468.85   28.20
   0  -8  -3  432.06   28.50
  -1   8   3    4.00    9.40
  -1   8   3    9.10   10.40
  -1   8   3    4.60    8.70
  -1   8   3   10.50   12.00
   1  -8  -3    5.40   10.70
   1  -8  -3   12.00   14.10
   1  -8  -3   14.00    9.50
  -2   8   3  628.54   31.40
  -2   8   3  582.84   36.00
  -2   8   3  673.93   32.70
  -2   8   3  610.64   35.30
   2  -8  -3  699.63   36.00
   2  -8  -3  654.83   35.00
   2  -8  -3  660.63   29.80
   2  -8  -3  607.94   37.20
  -3   8   3  408.56   24.80
  -3   8   3  418.06   26.00
  -3   8   3  418.96   26.90
   3  -8  -3  401.66   30.30
   3  -8  -3  324.17   32.90
   3  -8  -3  424.46   28.60
  -4   8   3   64.09   17.00
  -4   8   3   95.09   18.70
  -4   8   3   60.89   13.10
   4  -8  -3   63.99    6.90
   4  -8  -3   73.69   17.40
   4  -8  -3   93.89   20.20
   4   9   2  -17.40   17.30
   4   9   2   13.30   12.40
  -4  -9  -2    1.70   15.90
  -4  -9  -2    4.40   14.20
  -4  -9  -2    6.30   16.50
   3   9   2   27.10    8.00
   3   9   2   36.00   14.60
  -3  -9  -2  -14.10   18.00
  -3  -9  -2   34.30   15.20
  -3  -9  -2   45.30   14.60
   2   9   2   14.90   12.70
   2   9   2    7.10    5.40
   2   9   2   38.00   15.10
   2   9   2    7.00   11.80
  -2  -9  -2  -32.30   16.10
  -2  -9  -2   12.40   15.00
  -2  -9  -2   27.70   13.50
   1   9   2   21.20   11.50
   1   9   2  -15.80   14.50
   1   9   2  -16.90   14.40
   1   9   2   37.00   10.50
  -1  -9  -2   14.10   16.40
  -1  -9  -2   13.20   12.70
  -1  -9  -2   22.40   14.00
   0   9   2  -14.40   10.00
   0   9   2  -25.00   14.10
   0   9   2    1.90   10.90
   0  -9  -2   -7.50   14.90
   0  -9  -2   -9.40   11.30
  -1   9   2   64.99   13.60
  -1   9   2   83.89   13.80
  -1   9   2   74.39   18.40
   1  -9  -2   91.89    9.90
   1  -9  -2  120.99   15.30
   1  -9  -2   87.49   20.40
  -2   9   2   30.40   12.10
  -2   9   2   29.90   17.10
  -2   9   2   26.90   15.80
   2  -9  -2   62.09   19.70
   2  -9  -2   38.20    8.30
   2  -9  -2   10.00   17.40
   1  10   1   21.10   15.10
   2  -2  14   52.39   14.70
   2  -2  14   52.49   10.60
   2  -2  14   69.89   12.20
   2  -2  14   76.39   11.30
  -2   2 -14   52.09   18.30
  -2   2 -14   16.10   15.20
  -2   2 -14   76.59   11.20
  -2   2 -14   77.89   16.10
  -2   2 -14   66.59   12.10
   1  -2  14   18.80    6.10
   1  -2  14   12.10    6.30
   1  -2  14   25.90   12.40
   1  -2  14   15.70   12.40
  -1   2 -14   13.30    7.50
  -1   2 -14   15.90   16.00
  -1   2 -14   22.00    8.80
  -1   2 -14   12.20   13.20
   0  -2  14   24.70   12.60
   0   2 -14    7.40   15.00
   0   2 -14   19.80    6.00
   0   2 -14   17.10   15.20
   0   2 -14   24.50    6.30
   1   2 -14   36.20   14.50
   2   2 -14   65.39   15.70
   2   2 -14   65.29   15.30
   4  -1  13   13.70   17.20
   4  -1  13   12.30   17.80
   4  -1  13    5.10   12.00
  -4   1 -13   -6.30   12.90
  -4   1 -13    2.00   12.10
  -4   1 -13  -17.40   11.40
  -4   1 -13  -33.80   12.40
  -4   1 -13    0.20   12.20
   3  -1  13  106.09   12.40
   3  -1  13  122.09   15.60
   3  -1  13  111.79   12.50
  -3   1 -13  142.79   14.40
  -3   1 -13   87.69   14.10
  -3   1 -13   88.99   12.80
  -3   1 -13   99.99   19.10
  -3   1 -13  123.89   12.80
   2  -1  13  383.46   19.80
   2  -1  13  372.26   19.40
   2  -1  13  371.26   20.00
   2  -1  13  384.26   24.90
  -2   1 -13  344.47   22.90
  -2   1 -13  373.36   20.40
  -2   1 -13  443.06   32.20
  -2   1 -13  374.56   21.30
  -2   1 -13  413.26   24.10
   1  -1  13   54.79    9.00
   1  -1  13   52.79   15.00
   1  -1  13   40.30    5.20
  -1   1 -13   36.70   16.70
  -1   1 -13   36.90    7.00
  -1   1 -13   11.00   10.60
  -1   1 -13   33.20    6.50
  -1   1 -13   43.60   12.00
   0  -1  13  178.18   15.60
   0   1 -13  222.48   20.30
   0   1 -13  183.48   19.70
   0   1 -13  182.18    9.60
   0   1 -13  214.08   23.30
   0   1 -13  196.98    9.90
  -1  -1  13   50.09   10.50
   1   1 -13   35.10   14.20
   1   1 -13   46.50   12.70
   1   1 -13   51.79   14.00
   1   1 -13   40.70   11.70
  -2  -1  13  195.68   17.50
   2   1 -13  181.88   21.40
   2   1 -13  169.48   20.30
   2   1 -13  187.18   17.70
   2   1 -13  174.68   16.90
  -3  -1  13   39.30   12.20
   3   1 -13    0.50   10.70
   3   1 -13   13.10   11.20
   3   1 -13    9.20   11.40
  -4  -1  13  226.88   21.50
   4   1 -13  162.38   17.80
   4   1 -13  195.48   18.50
   5   0  12    8.10   16.50
   5   0  12   21.00   13.60
  -5   0 -12   15.00   14.20
  -5   0 -12   -7.00   16.90
  -5   0 -12   21.80   11.80
  -5   0 -12   20.40   13.60
   4   0  12  446.56   26.00
   4   0  12  438.76   26.50
   4   0  12  474.15   27.40
  -4   0 -12  430.46   33.60
  -4   0 -12  488.25   29.90
  -4   0 -12  455.95   25.80
  -4   0 -12  452.95   26.80
   3   0  12  264.47   17.10
   3   0  12  245.88   22.50
   3   0  12  252.57   14.60
   3   0  12  241.38   17.20
  -3   0 -12  251.87   21.70
  -3   0 -12  278.47   18.20
  -3   0 -12  260.07   17.20
  -3   0 -12  260.87   17.40
   2   0  12 2962.40  117.29
   2   0  12 2986.50  117.49
   2   0  12 2930.01  120.79
  -2   0 -12 2827.82  117.79
  -2   0 -12 2932.51  117.89
  -2   0 -12 3089.89  118.59
  -2   0 -12 3034.60  119.89
  -2   0 -12 2970.70  123.29
   1   0  12   42.60    8.20
   1   0  12   37.50    4.20
   1   0  12   37.90    9.60
   1   0  12   38.40    4.20
  -1   0 -12   37.50    9.10
  -1   0 -12   47.30   10.50
  -1   0 -12   35.50    5.60
  -1   0 -12   30.60    5.80
  -1   0 -12   31.70   12.00
   0   0  12  914.71   43.30
   0   0  12  958.00   40.30
   0   0 -12  903.61   36.30
   0   0 -12  854.31   36.20
   0   0 -12  969.50   40.80
   0   0 -12  900.21   44.70
   0   0 -12  984.80   42.80
   0   0 -12  945.51   42.30
  -1   0  12   26.30    8.30
   1   0 -12   35.50    9.90
   1   0 -12   35.30    7.80
   1   0 -12   46.80    9.90
   1   0 -12   34.10   10.40
   1   0 -12   47.70    9.80
  -2   0  12  247.98   17.90
   2   0 -12  230.38   20.30
   2   0 -12  253.47   16.90
   2   0 -12  228.48   17.30
   2   0 -12  273.27   17.20
  -3   0  12  340.17   20.40
   3   0 -12  329.87   24.10
   3   0 -12  374.56   22.00
   3   0 -12  372.36   22.10
   3   0 -12  323.07   24.80
  -4   0  12   58.19   13.80
   4   0 -12   61.49   11.90
   4   0 -12   39.20   14.70
   4   0 -12   68.29    9.50
   4   0 -12   62.09   16.00
  -5   0  12  133.99   17.70
   5   0 -12  137.89   16.90
   6   1  11    4.70   14.70
   6   1  11   36.00   13.50
  -6  -1 -11    9.50   12.90
  -6  -1 -11   11.80   13.20
  -6  -1 -11    8.40   11.90
  -6  -1 -11   15.10   16.60
   5   1  11  118.79   11.10
   5   1  11  122.59   15.20
   5   1  11  100.09   16.40
   5   1  11  125.99   15.30
  -5  -1 -11  102.69   14.50
  -5  -1 -11  135.99   15.00
  -5  -1 -11  135.19   11.80
  -5  -1 -11   96.89   15.40
   4   1  11  298.07   20.30
   4   1  11  291.47   20.20
   4   1  11  302.77   19.50
   4   1  11  314.27   16.30
  -4  -1 -11  329.37   17.70
  -4  -1 -11  279.67   19.50
  -4  -1 -11  303.57   19.80
   3   1  11  541.35   25.80
   3   1  11  561.34   26.00
   3   1  11  542.05   24.50
   3   1  11  519.85   28.90
  -3  -1 -11  548.45   24.70
  -3  -1 -11  551.64   32.70
  -3  -1 -11  527.65   26.10
  -3  -1 -11  504.25   26.30
   2   1  11 1021.90   43.40
   2   1  11 1024.10   43.40
   2   1  11 1036.70   43.80
   2   1  11 1076.09   46.80
  -2  -1 -11 1060.49   43.70
  -2  -1 -11 1074.09   43.30
  -2  -1 -11 1039.20   43.90
  -2  -1 -11 1042.80   49.50
   1   1  11    7.10    6.70
   1   1  11   13.00    3.10
   1   1  11   21.00    7.40
  -1  -1 -11   15.30    4.40
  -1  -1 -11   12.60    5.50
  -1  -1 -11   -7.40    8.50
  -1  -1 -11    2.70    8.80
  -1  -1 -11   10.70    8.20
   0   1  11   11.50    7.00
   0   1  11    0.10    8.10
   0  -1 -11    3.60    5.70
   0  -1 -11    5.70    8.50
   0  -1 -11    4.80    1.90
   0  -1 -11    5.60    1.60
   0  -1 -11  -10.60    7.20
   0  -1 -11   -0.60    8.30
  -1   1  11  434.86   24.00
   1  -1 -11  477.55   22.30
   1  -1 -11  463.85   24.40
   1  -1 -11  483.65   24.80
   1  -1 -11  490.85   23.90
   1  -1 -11  475.65   26.30
  -2   1  11   31.10    9.20
   2  -1 -11   34.30    9.40
   2  -1 -11   21.80    6.50
   2  -1 -11   28.00    8.70
   2  -1 -11   41.10    8.80
   2  -1 -11   27.30    9.10
  -3   1  11   60.09   10.20
   3  -1 -11   66.19    9.30
   3  -1 -11   70.69    9.80
   3  -1 -11   66.49   13.90
   3  -1 -11  103.69   13.40
   3  -1 -11   77.69   11.10
  -4   1  11  200.28   19.00
   4  -1 -11  214.08   19.50
   4  -1 -11  226.68   20.00
   4  -1 -11  190.38   15.50
   4  -1 -11  187.78   17.30
  -5   1  11  246.88   22.00
   5  -1 -11  285.27   24.30
   5  -1 -11  210.48   13.20
   7   2  10   73.69   18.60
   7   2  10   54.19   11.90
   7   2  10   65.39   15.40
  -7  -2 -10   85.89   21.50
  -7  -2 -10   53.79   19.20
  -7  -2 -10   68.09   18.70
  -7  -2 -10   54.29   14.60
   6   2  10  164.48   19.30
   6   2  10  181.98   15.50
   6   2  10  166.88   17.80
  -6  -2 -10  240.48   27.50
  -6  -2 -10  227.68   17.80
  -6  -2 -10  212.68   21.10
  -6  -2 -10  217.08   22.40
   5   2  10   44.70   10.90
   5   2  10    8.80   12.90
   5   2  10   32.10   11.70
   5   2  10   27.40    7.80
  -5  -2 -10   38.40   11.80
  -5  -2 -10   37.20    6.90
   4   2  10   37.20    9.30
   4   2  10   31.00    7.50
   4   2  10   45.70    9.70
   4   2  10   40.70   10.50
  -4  -2 -10   40.50   10.00
  -4  -2 -10   34.00    8.90
  -4  -2 -10   44.50   12.80
  -4  -2 -10   32.80    5.80
   3   2  10  583.74   26.30
   3   2  10  568.64   28.30
   3   2  10  520.45   25.50
   3   2  10  557.64   25.10
  -3  -2 -10  521.15   25.90
  -3  -2 -10  550.14   23.40
  -3  -2 -10  574.24   31.50
  -3  -2 -10  520.75   25.70
   2   2  10   71.09    8.30
   2   2  10   59.99    7.20
   2   2  10   64.39    7.10
   2   2  10   66.99   10.10
  -2  -2 -10   39.20    8.70
  -2  -2 -10   74.99    5.70
  -2  -2 -10   52.99    7.20
   1   2  10  460.75   23.20
   1   2  10  425.06   20.30
   1   2  10  466.15   22.50
   1   2  10  487.25   20.20
  -1  -2 -10  456.35   20.50
  -1  -2 -10  462.35   26.70
  -1  -2 -10  474.45   21.00
  -1  -2 -10  472.65   19.60
  -1  -2 -10  460.55   20.70
   0   2  10 1353.16   56.59
   0   2  10 1366.36   56.69
   0  -2 -10 1431.06   56.69
   0  -2 -10 1345.37   53.69
   0  -2 -10 1221.88   59.39
   0  -2 -10 1330.97   53.59
   0  -2 -10 1368.06   54.09
   0  -2 -10 1428.56   57.89
  -1   2  10  147.19   13.30
   1  -2 -10  146.59    9.80
   1  -2 -10  173.18   13.60
   1  -2 -10  155.48   14.10
   1  -2 -10  141.59   14.00
  -2   2  10  152.18   14.70
   2  -2 -10  168.88   11.90
   2  -2 -10  188.08   17.60
   2  -2 -10  160.18   14.60
  -3   2  10   11.30    9.80
   3  -2 -10   -0.60    7.50
   3  -2 -10    4.70    6.40
   3  -2 -10   10.50   11.30
   3  -2 -10   -9.70    7.70
  -4   2  10   25.60    8.50
   4  -2 -10   23.20    7.30
   4  -2 -10   29.80    9.30
   4  -2 -10   26.80    9.90
   4  -2 -10   19.90    8.50
   4  -2 -10   22.40    2.90
   4  -2 -10   26.50    3.00
  -5   2  10    7.10   11.40
   5  -2 -10   26.50   12.50
   5  -2 -10    6.80    6.50
   5  -2 -10    1.80    9.40
   5  -2 -10   -3.80    6.60
   5  -2 -10   32.10   11.50
   5  -2 -10   15.20    5.60
  -6   2  10  188.98   17.10
   6  -2 -10  193.28   14.80
   6  -2 -10  187.28   15.50
   6  -2 -10  168.38   19.50
   6  -2 -10  169.78   19.50
   7   3   9   74.79   19.10
  -7  -3  -9   56.09   17.90
  -7  -3  -9   51.39   12.10
  -7  -3  -9   54.79   19.40
  -7  -3  -9   48.90   17.20
   6   3   9   77.19   14.50
   6   3   9   71.89   15.60
   6   3   9   50.39   10.60
  -6  -3  -9   67.29   16.30
  -6  -3  -9   49.00   15.10
  -6  -3  -9   59.99   14.50
   5   3   9  256.97   20.60
   5   3   9  240.78   19.50
   5   3   9  252.87   17.20
   5   3   9  229.48   19.30
  -5  -3  -9  235.28   17.20
  -5  -3  -9  270.67   14.80
  -5  -3  -9  286.37   24.80
  -5  -3  -9  265.67   19.80
   4   3   9  423.86   22.00
   4   3   9  424.26   22.50
   4   3   9  456.25   23.80
   4   3   9  449.36   23.40
  -4  -3  -9  471.85   26.30
  -4  -3  -9  413.96   19.30
  -4  -3  -9  465.05   23.80
   3   3   9  392.26   20.70
   3   3   9  398.86   20.50
   3   3   9  429.76   21.80
   3   3   9  419.66   20.80
  -3  -3  -9  397.96   20.70
  -3  -3  -9  409.56   16.60
   2   3   9   -2.90    6.20
   2   3   9   -5.20    5.10
   2   3   9   -8.80    5.80
   2   3   9   -0.80    6.10
  -2  -3  -9    5.40    5.20
  -2  -3  -9   -1.30    2.90
  -2  -3  -9    8.10    5.70
   1   3   9  543.35   25.70
   1   3   9  545.35   23.70
   1   3   9  530.25   23.50
   1   3   9  532.45   24.70
  -1  -3  -9  546.85   23.70
  -1  -3  -9  535.05   23.90
  -1  -3  -9  554.54   23.90
   0   3   9 1765.82   69.59
   0   3   9 1784.22   69.49
   0   3   9 1746.33   72.29
   0  -3  -9 1781.82   70.89
   0  -3  -9 1706.53   68.59
   0  -3  -9 1734.63   69.89
   0  -3  -9 1789.12   71.19
   0  -3  -9 1767.22   69.99
  -1   3   9  455.05   18.60
  -1   3   9  455.45   18.60
  -1   3   9  443.46   22.40
   1  -3  -9  450.65   19.50
   1  -3  -9  447.16   23.10
   1  -3  -9  475.35   21.60
   1  -3  -9  443.26   22.50
   1  -3  -9  460.95   19.40
   1  -3  -9  455.65   19.70
  -2   3   9   48.30    2.90
  -2   3   9   49.99    9.60
  -2   3   9   42.50    2.80
   2  -3  -9   48.40    7.10
   2  -3  -9   44.00    9.50
   2  -3  -9   46.30    9.90
   2  -3  -9   47.30    4.80
   2  -3  -9   39.80    6.00
   2  -3  -9   43.40    4.50
  -3   3   9  592.04   23.90
  -3   3   9  522.75   28.50
  -3   3   9  602.44   23.90
   3  -3  -9  630.04   29.50
   3  -3  -9  599.74   27.30
   3  -3  -9  579.94   25.20
   3  -3  -9  633.04   30.50
   3  -3  -9  576.14   25.20
   3  -3  -9  625.34   28.10
  -4   3   9   58.29    6.20
  -4   3   9   64.29    6.60
  -4   3   9   54.39    9.80
   4  -3  -9   71.59    7.30
   4  -3  -9   69.99   10.10
   4  -3  -9   78.99    8.10
   4  -3  -9   63.09   10.10
   4  -3  -9   66.39   13.60
   4  -3  -9   82.19   10.30
  -5   3   9  467.35   27.40
  -5   3   9  518.25   22.60
   5  -3  -9  483.75   23.30
   5  -3  -9  530.65   28.40
   5  -3  -9  502.15   31.40
   5  -3  -9  495.35   24.20
   5  -3  -9  522.35   27.40
  -6   3   9  153.78   18.00
  -6   3   9  151.88   14.70
   6  -3  -9  153.68   15.80
   6  -3  -9  169.08   17.20
   6  -3  -9  157.18   14.60
   7   4   8   -6.50   18.80
   7   4   8    4.70    9.40
  -7  -4  -8  -12.10   15.20
  -7  -4  -8   -3.60   13.80
   6   4   8  141.49   15.10
   6   4   8  131.69   16.90
   6   4   8  140.89   13.70
  -6  -4  -8  132.39   16.90
  -6  -4  -8  123.49   17.10
   5   4   8   13.00    9.40
   5   4   8    8.40    8.30
   5   4   8   -7.50    5.30
  -5  -4  -8    5.10   10.20
   4   4   8  632.84   30.80
   4   4   8  624.24   30.60
   4   4   8  658.33   30.20
   4   4   8  633.34   30.00
  -4  -4  -8  602.74   30.60
  -4  -4  -8  642.94   31.10
   3   4   8   12.30    6.50
   3   4   8    6.90    6.90
   3   4   8   18.60    7.70
   3   4   8   17.50    7.50
  -3  -4  -8   11.70    7.20
  -3  -4  -8    7.70    1.10
  -3  -4  -8   21.90    7.60
  -3  -4  -8   12.10    1.20
   2   4   8  144.49   10.30
   2   4   8  135.89   11.10
   2   4   8  126.79   12.50
   2   4   8  146.79   11.20
  -2  -4  -8  145.59   11.40
  -2  -4  -8  148.09   11.40
   1   4   8  252.57   13.20
   1   4   8  252.77   13.90
   1   4   8  225.98   15.60
  -1  -4  -8  258.67   14.30
  -1  -4  -8  240.78   14.10
   0   4   8  410.56   19.00
   0   4   8  435.06   19.10
   0   4   8  390.76   21.50
   0  -4  -8  395.66   19.10
   0  -4  -8  396.86   19.00
  -1   4   8  394.66   17.70
  -1   4   8  360.76   20.80
   1  -4  -8  391.06   18.10
   1  -4  -8  379.16   16.60
   1  -4  -8  378.16   17.20
   1  -4  -8  380.76   21.30
   1  -4  -8  361.26   17.80
  -2   4   8  118.99    8.40
  -2   4   8   87.99   10.00
  -2   4   8  103.59    8.40
  -2   4   8   94.09    8.50
   2  -4  -8  100.19    8.60
   2  -4  -8   95.49    8.30
   2  -4  -8   88.99    9.40
   2  -4  -8   97.69    9.10
   2  -4  -8  106.59   11.80
  -3   4   8  123.29   10.60
  -3   4   8  127.49   12.60
  -3   4   8  154.48   10.20
  -3   4   8  149.49   10.30
   3  -4  -8  126.29   12.10
   3  -4  -8  159.68   11.40
   3  -4  -8  129.89   10.10
   3  -4  -8  137.29   13.40
   3  -4  -8  138.89   11.00
  -4   4   8   14.90   10.40
  -4   4   8   25.60    8.70
  -4   4   8   17.60    6.70
  -4   4   8    9.70    6.70
   4  -4  -8   -6.10   11.30
   4  -4  -8   31.00    7.00
   4  -4  -8    2.50    8.50
   4  -4  -8   10.90    7.90
   4  -4  -8   26.10    7.40
   4  -4  -8   21.40    7.40
  -5   4   8  132.39   16.80
  -5   4   8  160.38   15.80
  -5   4   8  131.89   16.60
  -5   4   8  145.99   14.70
   5  -4  -8  137.39   14.60
   5  -4  -8  156.18   15.00
   5  -4  -8  146.69   13.80
   5  -4  -8  123.89   16.20
  -6   4   8   98.39   17.30
  -6   4   8   86.49   14.10
  -6   4   8   83.59   14.20
  -6   4   8  111.29   17.00
   6  -4  -8   89.39   18.10
   6  -4  -8   82.99   16.20
   6  -4  -8   58.29   12.30
   6  -4  -8  106.39   13.00
   7   5   7    3.40   10.50
   7   5   7    9.10   13.00
  -7  -5  -7   15.40   19.30
  -7  -5  -7   -9.40   14.50
  -7  -5  -7   18.70   16.40
   6   5   7   36.10   15.60
   6   5   7   36.80   14.90
   6   5   7   13.60    8.00
  -6  -5  -7   26.30   14.90
  -6  -5  -7   23.80   14.70
   5   5   7  367.36   18.60
   5   5   7  389.06   24.90
   5   5   7  426.06   24.20
  -5  -5  -7  353.96   24.30
  -5  -5  -7  390.66   24.90
   4   5   7  290.67   19.90
   4   5   7  287.97   13.30
   4   5   7  306.07   19.40
  -4  -5  -7  264.57   17.30
  -4  -5  -7  273.87   21.10
   3   5   7   93.09   10.90
   3   5   7  102.59   11.10
   3   5   7   97.99   10.20
   3   5   7  102.69   10.20
  -3  -5  -7  106.39   11.00
  -3  -5  -7  107.39   11.10
   2   5   7    3.70    6.10
   2   5   7   -3.50    7.30
   2   5   7   -0.80    4.50
   2   5   7    4.00    5.90
  -2  -5  -7    8.00    6.60
  -2  -5  -7    9.30    6.40
   1   5   7   95.19    9.80
   1   5   7  107.09   10.30
   1   5   7  100.89    9.70
  -1  -5  -7   95.39   10.00
  -1  -5  -7   94.09    9.40
   0   5   7   17.10    6.30
   0   5   7   -2.70    5.70
   0   5   7   22.20    6.20
   0  -5  -7    9.10    6.10
   0  -5  -7   10.70    6.50
  -1   5   7   40.70    4.50
  -1   5   7   40.20    6.90
  -1   5   7   35.80    7.00
  -1   5   7   36.20    9.10
   1  -5  -7   42.30    8.80
   1  -5  -7   42.30    7.50
   1  -5  -7   44.40    7.30
  -2   5   7   -6.30    8.20
  -2   5   7    8.70    6.40
  -2   5   7   26.00    5.30
  -2   5   7   12.00    6.50
   2  -5  -7    1.40    8.00
   2  -5  -7    9.10    2.80
   2  -5  -7   16.40    5.40
   2  -5  -7   14.50    6.50
   2  -5  -7   10.10    6.40
  -3   5   7  614.44   28.40
  -3   5   7  569.04   31.10
  -3   5   7  669.93   29.20
  -3   5   7  609.94   29.00
   3  -5  -7  619.04   29.00
   3  -5  -7  633.04   26.70
   3  -5  -7  640.54   29.50
   3  -5  -7  613.14   29.20
   3  -5  -7  621.74   31.20
   3  -5  -7  606.34   32.90
  -4   5   7   38.90    8.80
  -4   5   7   46.20    9.60
  -4   5   7   37.00    9.40
   4  -5  -7   36.20   11.20
   4  -5  -7   37.50    9.60
   4  -5  -7   34.40    9.10
   4  -5  -7   36.90    9.50
   4  -5  -7   25.50   11.10
  -5   5   7   55.59   12.80
  -5   5   7   63.99   12.40
  -5   5   7   60.89   14.40
  -5   5   7   79.59   13.10
   5  -5  -7   77.19   12.80
   5  -5  -7   82.69   13.20
   5  -5  -7   74.29   14.50
   5  -5  -7   61.79   12.00
   7   6   6    0.60   18.20
   7   6   6   20.20   11.10
  -7  -6  -6   25.40   18.40
   6   6   6   20.60    8.80
   6   6   6   60.09   14.70
   6   6   6   64.89   16.00
  -6  -6  -6   66.89   16.10
  -6  -6  -6   36.00   15.60
   5   6   6  285.37   16.60
   5   6   6  350.66   24.50
   5   6   6  311.27   23.50
  -5  -6  -6  296.27   15.90
  -5  -6  -6  342.97   24.20
   4   6   6   69.19   13.10
   4   6   6   49.70    5.70
   4   6   6   37.50    9.20
  -4  -6  -6   45.10   11.80
  -4  -6  -6   45.70    6.70
  -4  -6  -6   37.10    9.80
   3   6   6  199.18   16.60
   3   6   6  175.38    9.30
   3   6   6  165.68   13.80
   3   6   6  191.18   15.80
  -3  -6  -6  181.18   16.00
  -3  -6  -6  152.68   15.60
   2   6   6  333.87   20.80
   2   6   6  381.26   20.90
   2   6   6  350.26   14.50
   2   6   6  353.26   20.50
  -2  -6  -6  331.37   19.00
  -2  -6  -6  350.16   19.20
   1   6   6   35.60    3.40
   1   6   6   36.40    7.70
   1   6   6   42.70    8.80
   1   6   6   46.80    8.70
  -1  -6  -6   41.60    8.70
  -1  -6  -6   50.79    9.20
   0   6   6 2254.37   86.99
   0   6   6 2083.29   90.29
   0   6   6 2187.38   89.79
   0   6   6 2278.07   89.99
   0  -6  -6 2258.57   90.19
   0  -6  -6 2197.78   90.09
  -1   6   6  100.09   10.60
  -1   6   6  100.69    8.80
  -1   6   6  114.69   11.70
  -1   6   6  106.59   10.90
   1  -6  -6   95.59   11.30
   1  -6  -6   98.99   10.20
   1  -6  -6   99.39   10.40
  -2   6   6 1920.11   77.19
  -2   6   6 1661.63   77.79
  -2   6   6 1876.51   77.09
  -2   6   6 1899.81   75.49
   2  -6  -6 1784.92   77.09
   2  -6  -6 1902.71   77.39
   2  -6  -6 1959.40   77.19
   2  -6  -6 1957.80   81.19
  -3   6   6  126.79   14.50
  -3   6   6  125.09   13.30
  -3   6   6  134.09   13.20
  -3   6   6  116.19   11.00
   3  -6  -6  152.28   15.20
   3  -6  -6  109.99   12.70
   3  -6  -6  129.69    6.80
   3  -6  -6  119.89   12.80
   3  -6  -6  127.39   15.50
  -4   6   6  161.78   15.70
  -4   6   6  168.08   16.30
  -4   6   6  122.09   15.10
  -4   6   6  167.08   14.40
   4  -6  -6  181.48   15.30
   4  -6  -6  134.89   17.40
   4  -6  -6  179.98   17.80
   4  -6  -6  158.78   15.80
  -5   6   6   47.70   12.40
  -5   6   6   46.70   14.40
  -5   6   6   26.20   13.50
   5  -6  -6   40.10   13.40
   5  -6  -6   39.40   15.40
   5  -6  -6   18.30   15.40
   6   7   5   79.29   11.20
   6   7   5   93.69   15.40
  -6  -7  -5  104.29   17.00
  -6  -7  -5   75.79   10.80
  -6  -7  -5   66.19   18.10
   5   7   5    0.70   14.20
   5   7   5   49.30   12.50
   5   7   5   28.60    8.00
  -5  -7  -5   29.10    8.50
  -5  -7  -5   18.30   14.00
  -5  -7  -5   40.50   16.60
   4   7   5  -18.60   11.40
   4   7   5  -13.30   11.10
   4   7   5   -3.50    5.50
  -4  -7  -5    3.30   11.50
  -4  -7  -5    1.20    7.40
  -4  -7  -5    2.10   12.20
   3   7   5  214.58   19.30
   3   7   5  228.48   12.70
   3   7   5  222.78   19.50
  -3  -7  -5  213.48   19.90
  -3  -7  -5  242.48   19.90
   2   7   5  197.78   18.20
   2   7   5  197.18   15.20
  -2  -7  -5  191.98   17.90
  -2  -7  -5  236.88   18.60
   1   7   5  105.89   13.20
   1   7   5  139.49   14.30
   1   7   5  153.68    9.90
   1   7   5  143.69   12.80
  -1  -7  -5  143.49   14.10
  -1  -7  -5  153.98   15.70
   0   7   5  155.98   10.80
   0   7   5  148.09   14.80
   0   7   5  144.79   14.30
   0   7   5  160.88   13.10
   0  -7  -5  173.58   17.70
   0  -7  -5  130.99   16.40
   0  -7  -5  165.18   15.60
  -1   7   5   -3.00    7.20
  -1   7   5   -0.80    9.10
  -1   7   5    8.40    5.80
  -1   7   5    8.80    9.50
   1  -7  -5    2.30   10.20
   1  -7  -5    4.10    9.50
   1  -7  -5    8.60    8.80
  -2   7   5   41.70   11.20
  -2   7   5   48.80   11.30
  -2   7   5   19.60   10.90
  -2   7   5   42.10    8.80
   2  -7  -5   21.60   10.40
   2  -7  -5   48.80    8.80
   2  -7  -5   42.90   11.60
  -3   7   5  295.37   21.90
  -3   7   5  268.07   18.30
  -3   7   5  253.17   19.30
  -3   7   5  271.57   22.40
   3  -7  -5  325.47   19.00
   3  -7  -5  300.87   22.60
   3  -7  -5  271.27   21.80
   3  -7  -5  288.27   27.80
  -4   7   5   14.60    9.30
  -4   7   5   44.50   14.80
  -4   7   5   27.00   12.20
   4  -7  -5    5.20   14.40
   4  -7  -5   22.40    5.30
   4  -7  -5   19.20   13.90
   4  -7  -5   45.70   13.70
   6   8   4   41.40   19.10
   6   8   4   31.10   12.20
  -6  -8  -4   25.20   12.20
  -6  -8  -4   29.80   19.90
   5   8   4  -13.90   16.80
   5   8   4   -1.00    9.30
  -5  -8  -4   -1.50   15.20
  -5  -8  -4   15.30   10.90
  -5  -8  -4    3.50   17.50
   4   8   4   87.79   13.40
   4   8   4   46.20    8.90
   4   8   4   36.90   13.20
  -4  -8  -4   52.19   16.20
  -4  -8  -4   45.00   15.50
  -4  -8  -4   43.30   12.00
   3   8   4  297.57   17.80
   3   8   4  286.67   23.90
   3   8   4  298.37   14.70
  -3  -8  -4  288.37   24.30
  -3  -8  -4  271.57   20.20
  -3  -8  -4  299.27   20.70
   2   8   4   44.00   11.70
   2   8   4   34.20   12.60
   2   8   4   51.29   11.00
  -2  -8  -4   82.19   13.90
  -2  -8  -4   31.80   15.10
   1   8   4   58.89   13.10
   1   8   4   38.50    9.30
   1   8   4   53.89    8.10
   1   8   4   86.89   13.10
  -1  -8  -4   53.59   14.90
  -1  -8  -4   82.49   14.10
   0   8   4  114.39   15.40
   0   8   4  104.09   13.40
   0   8   4  110.99   10.70
   0   8   4  103.89   15.20
   0  -8  -4   95.09   17.70
   0  -8  -4  134.69   15.70
   0  -8  -4   82.99   17.90
  -1   8   4    5.80    7.90
  -1   8   4   -0.40   11.90
  -1   8   4   -1.10    9.80
  -1   8   4   25.70    9.60
   1  -8  -4   -7.80    7.70
   1  -8  -4   10.20   11.10
   1  -8  -4    0.40   10.80
   1  -8  -4    6.60   12.50
  -2   8   4  120.99   17.70
  -2   8   4   90.29   13.40
  -2   8   4  113.49   13.20
  -2   8   4  115.59   17.10
   2  -8  -4  103.79   15.60
   2  -8  -4  132.49   13.20
   2  -8  -4   68.79   19.60
   2  -8  -4  124.39   14.50
  -3   8   4  161.58   15.60
  -3   8   4  196.28   20.30
  -3   8   4  160.18   16.40
   3  -8  -4  171.38   20.60
   3  -8  -4  169.58   19.00
   3  -8  -4  155.68   13.90
   4   9   3   -2.30   17.60
   4   9   3   16.70    8.80
   4   9   3   15.90   11.10
  -4  -9  -3   -9.20   12.00
  -4  -9  -3   -1.70   17.40
   3   9   3  235.28   14.10
  -3  -9  -3  233.68   21.10
  -3  -9  -3  239.28   22.40
  -3  -9  -3  248.08   25.20
  -3  -9  -3  192.68   23.20
   2   9   3  -16.90   11.20
   2   9   3   17.90   13.60
  -2  -9  -3    2.10   18.20
  -2  -9  -3   -6.50   11.40
  -2  -9  -3  -14.90   15.10
   1   9   3  320.57   21.70
   1   9   3  327.37   27.60
   1   9   3  316.17   21.60
  -1  -9  -3  338.57   23.60
  -1  -9  -3  378.26   29.00
   0   9   3   15.80   15.70
   0   9   3   -0.70   11.80
   0   9   3   -0.40   10.80
   0  -9  -3    8.30   16.10
   0  -9  -3   12.40   15.00
  -1   9   3   11.60   15.90
  -1   9   3  -12.60   10.80
  -1   9   3    5.40   11.10
   1  -9  -3    4.90   15.30
   1  -9  -3   10.10    9.40
   1  -9  -3  -10.40   14.10
  -2   9   3  134.29   20.60
  -2   9   3  131.89   17.20
  -2   9   3  137.79   17.30
   2  -9  -3  186.28   19.70
   2  -9  -3  140.79   18.80
   2  -9  -3  113.69   12.30
   3  -1  14  152.28   22.00
   3  -1  14  171.98   16.20
   3  -1  14  220.08   19.80
  -3   1 -14  219.08   19.50
  -3   1 -14  220.98   18.90
  -3   1 -14  193.78   18.30
  -3   1 -14  181.78   21.40
  -3   1 -14  189.38   19.20
   2  -1  14   -7.50   14.70
   2  -1  14    8.30   10.20
   2  -1  14   -3.10    7.80
  -2   1 -14   -7.80   16.40
  -2   1 -14  -26.80   11.20
  -2   1 -14   24.10   12.90
  -2   1 -14   -1.90    7.50
  -2   1 -14    6.40    8.90
   1  -1  14  440.16   23.90
   1  -1  14  465.65   31.70
  -1   1 -14  506.05   29.90
  -1   1 -14  455.75   22.10
  -1   1 -14  476.95   34.80
   0  -1  14    3.30    9.30
   0   1 -14    0.10   13.60
   0   1 -14   26.00   15.30
  -1  -1  14   50.19   11.40
   1   1 -14   72.99   14.90
   1   1 -14   48.70   13.10
   1   1 -14   49.99   13.70
  -2  -1  14  103.19   13.50
   2   1 -14  144.99   16.00
   2   1 -14  113.89   16.30
   2   1 -14  111.99   19.20
   5   0  13  140.09   21.80
  -5   0 -13  103.79   15.90
   4   0  13   27.10   12.10
   4   0  13   11.50   13.60
   4   0  13   53.89   16.70
  -4   0 -13   33.80   11.90
  -4   0 -13   55.39   11.30
  -4   0 -13   14.80   13.00
  -4   0 -13   16.00   12.30
   3   0  13  333.87   27.00
   3   0  13  286.77   16.60
   3   0  13  292.07   19.90
   3   0  13  315.07   19.70
  -3   0 -13  319.87   19.80
  -3   0 -13  337.67   22.60
  -3   0 -13  285.77   29.70
  -3   0 -13  302.57   20.40
  -3   0 -13  299.97   19.00
   2   0  13   38.40    8.20
   2   0  13   29.60    7.00
  -2   0 -13   16.60   11.00
  -2   0 -13    8.10   11.20
  -2   0 -13   27.50    8.00
  -2   0 -13   32.30    8.40
  -2   0 -13   28.70    6.70
   1   0  13  433.46   27.60
   1   0  13  394.56   20.90
   1   0  13  415.46   16.30
  -1   0 -13  418.86   25.30
  -1   0 -13  377.56   18.70
  -1   0 -13  378.86   26.40
  -1   0 -13  392.16   18.90
  -1   0 -13  439.46   29.90
   0   0  13  431.06   23.40
   0   0 -13  420.26   24.90
   0   0 -13  448.36   29.70
   0   0 -13  478.05   26.80
   0   0 -13  402.66   24.70
  -1   0  13  201.38   16.30
   1   0 -13  196.88   17.90
   1   0 -13  214.28   17.90
   1   0 -13  209.98   15.80
   1   0 -13  184.88   22.30
   1   0 -13  224.98   21.40
  -2   0  13  477.75   26.80
   2   0 -13  504.65   28.80
   2   0 -13  458.65   28.40
   2   0 -13  468.05   28.60
   2   0 -13  478.95   30.50
   2   0 -13  499.35   25.80
  -3   0  13   49.40   12.70
   3   0 -13   39.90   11.10
   3   0 -13   54.49   16.00
   3   0 -13   41.20   10.80
   3   0 -13   39.90   16.40
  -4   0  13    6.40   13.30
   4   0 -13   -0.30   12.60
   4   0 -13    7.90   10.00
   5   1  12   43.60    8.00
   5   1  12   50.39   15.60
   5   1  12   45.60   13.50
  -5  -1 -12   56.69   13.40
  -5  -1 -12   37.40   18.00
  -5  -1 -12   58.49   13.80
  -5  -1 -12   44.40   10.10
   4   1  12   19.10    7.50
   4   1  12    1.00    9.70
   4   1  12   13.20   13.10
   4   1  12   15.60   10.50
  -4  -1 -12   13.80    8.00
  -4  -1 -12    5.10   10.20
  -4  -1 -12   15.30   10.60
  -4  -1 -12   11.40   11.00
   3   1  12    9.50    7.80
   3   1  12    2.30   11.30
   3   1  12   -5.70    7.30
   3   1  12    5.70    7.10
  -3  -1 -12   -1.80   14.60
  -3  -1 -12    1.40    7.20
  -3  -1 -12    2.40    6.90
  -3  -1 -12    2.50    8.20
   2   1  12  116.59   12.60
   2   1  12  112.89   10.20
   2   1  12   90.29    8.70
  -2  -1 -12  101.09   10.20
  -2  -1 -12   92.19   15.00
  -2  -1 -12   97.19    9.50
  -2  -1 -12  107.49   10.60
   1   1  12  327.57   13.70
   1   1  12  330.57   18.80
   1   1  12  312.67   21.80
  -1  -1 -12  304.67   19.20
  -1  -1 -12  315.17   15.50
  -1  -1 -12  318.97   24.60
   0   1  12   74.19    9.90
   0  -1 -12   76.59   11.70
   0  -1 -12   82.59   12.70
   0  -1 -12   74.29   10.80
   0  -1 -12   95.09    9.40
  -1   1  12   24.80    8.70
   1  -1 -12   44.40   10.40
   1  -1 -12   40.40    9.60
   1  -1 -12   40.90    9.50
   1  -1 -12   44.90    7.50
   1  -1 -12   50.59    9.60
  -2   1  12  131.69   14.10
   2  -1 -12  137.09   14.30
   2  -1 -12  148.89   17.30
   2  -1 -12  140.99   15.80
   2  -1 -12  117.49   11.10
   2  -1 -12  136.49   14.10
  -3   1  12   -9.90    8.60
   3  -1 -12   -6.30    9.00
   3  -1 -12    8.10   14.70
   3  -1 -12   -2.90    8.60
   3  -1 -12   12.40   10.80
   3  -1 -12    6.40    7.90
  -4   1  12  154.58   15.70
   4  -1 -12  159.48   21.90
   4  -1 -12  181.78   18.80
   4  -1 -12  167.68   15.70
   4  -1 -12  172.78   16.90
  -5   1  12  355.96   23.70
   5  -1 -12  382.56   27.20
   6   2  11  197.88   20.00
   6   2  11  168.88   22.00
   6   2  11  188.28   16.20
  -6  -2 -11  171.78   14.80
  -6  -2 -11  202.48   20.10
  -6  -2 -11  207.88   19.70
  -6  -2 -11  141.69   21.10
   5   2  11   78.99   13.80
   5   2  11   62.39   13.90
   5   2  11   89.59   10.20
  -5  -2 -11   74.79   17.00
  -5  -2 -11  103.49   14.60
  -5  -2 -11   72.89   12.90
  -5  -2 -11   86.99    9.60
   4   2  11  920.21   39.90
   4   2  11  951.00   44.10
   4   2  11  916.21   41.80
   4   2  11  927.11   41.70
  -4  -2 -11  936.41   38.80
  -4  -2 -11  905.11   41.90
  -4  -2 -11  936.61   42.30
   3   2  11  117.99   11.30
   3   2  11  109.19   10.00
   3   2  11  116.59   11.60
   3   2  11  100.89    9.80
  -3  -2 -11   95.79   12.80
  -3  -2 -11  115.89   11.90
  -3  -2 -11   97.29   10.50
  -3  -2 -11   97.29    8.20
   2   2  11   96.39    9.40
   2   2  11  100.59   10.10
   2   2  11   99.89    8.60
   2   2  11   98.69   11.80
  -2  -2 -11   99.29    7.30
  -2  -2 -11   90.99   13.90
  -2  -2 -11   98.69   10.20
   1   2  11   73.99   10.50
   1   2  11   69.09    6.50
   1   2  11   73.09    6.00
   1   2  11   87.69    9.50
  -1  -2 -11   76.29    6.70
  -1  -2 -11   72.79    7.40
  -1  -2 -11   94.29    9.20
  -1  -2 -11   62.99   10.20
  -1  -2 -11   82.59    7.70
  -1  -2 -11   75.99    6.40
   0   2  11   60.79    9.60
   0  -2 -11   54.49   10.30
   0  -2 -11   76.09    9.50
   0  -2 -11   79.49    7.40
   0  -2 -11   73.29    5.10
   0  -2 -11   79.79    8.90
   0  -2 -11   89.99   11.30
   0  -2 -11   67.39    5.30
  -1   2  11  950.80   44.60
   1  -2 -11 1058.29   47.00
   1  -2 -11 1039.00   47.30
   1  -2 -11 1099.49   45.30
   1  -2 -11 1048.20   44.90
   1  -2 -11 1024.80   42.70
  -2   2  11   43.60   10.90
   2  -2 -11   69.99   10.40
   2  -2 -11   61.99    8.00
   2  -2 -11   60.49    9.70
   2  -2 -11   42.80    9.40
   2  -2 -11   64.29   11.10
  -3   2  11  173.28   15.20
   3  -2 -11  205.38   16.80
   3  -2 -11  194.58   17.20
   3  -2 -11  204.68   16.00
   3  -2 -11  191.58   14.40
   3  -2 -11  184.18   17.50
  -4   2  11   18.80   13.60
   4  -2 -11   51.39   12.30
   4  -2 -11   57.29   10.50
   4  -2 -11   50.19    9.50
   4  -2 -11   46.30   15.80
  -5   2  11  322.37   22.00
   5  -2 -11  322.57   23.50
   5  -2 -11  299.27   25.10
   7   3  10   84.59   18.80
   6   3  10  171.18   15.50
   6   3  10  159.18   18.30
   6   3  10  117.59   17.80
  -6  -3 -10  123.69   16.30
  -6  -3 -10  130.09   17.70
  -6  -3 -10  130.59   13.30
  -6  -3 -10  144.59   17.70
   5   3  10  150.78   15.90
   5   3  10  179.38   18.00
   5   3  10  179.28   18.30
   5   3  10  160.18   14.00
  -5  -3 -10  171.98   20.10
  -5  -3 -10  145.79   14.60
  -5  -3 -10  188.78   19.10
  -5  -3 -10  165.58   12.10
   4   3  10  221.08   18.50
   4   3  10  262.37   17.50
   4   3  10  236.78   17.20
   4   3  10  226.98   15.30
  -4  -3 -10  271.87   24.00
  -4  -3 -10  232.48   17.10
  -4  -3 -10  214.68   11.70
   3   3  10  197.48   13.80
   3   3  10  196.48   13.90
   3   3  10  180.68   15.70
   3   3  10  204.38   14.10
  -3  -3 -10  191.98    8.10
  -3  -3 -10  181.88   16.90
  -3  -3 -10  175.98   13.70
  -3  -3 -10  197.98   14.00
   2   3  10    7.40    5.90
   2   3  10   11.70    7.00
   2   3  10   29.50    7.80
   2   3  10   13.40    5.60
  -2  -3 -10   18.50    3.60
  -2  -3 -10   16.40    6.10
  -2  -3 -10   15.60    6.20
   1   3  10  352.96   20.30
   1   3  10  396.06   19.40
   1   3  10  383.26   17.30
   1   3  10  346.37   18.60
  -1  -3 -10  353.66   17.40
  -1  -3 -10  347.37   17.40
  -1  -3 -10  369.96   17.50
   0   3  10  707.13   33.20
   0   3  10  714.83   29.30
   0   3  10  731.13   29.50
   0  -3 -10  720.93   33.50
   0  -3 -10  695.43   30.10
   0  -3 -10  694.33   29.90
   0  -3 -10  753.82   32.10
   0  -3 -10  793.72   34.00
  -1   3  10  558.84   28.20
   1  -3 -10  565.04   23.40
   1  -3 -10  560.24   26.20
   1  -3 -10  585.34   27.30
   1  -3 -10  562.94   24.30
   1  -3 -10  596.44   28.00
  -2   3  10  442.06   25.10
   2  -3 -10  443.66   19.10
   2  -3 -10  484.25   22.70
   2  -3 -10  449.26   19.00
   2  -3 -10  442.76   24.40
   2  -3 -10  468.75   21.60
   2  -3 -10  514.65   25.10
  -3   3  10  135.79   15.20
   3  -3 -10  164.48    8.70
   3  -3 -10  171.28   14.00
   3  -3 -10  157.58   13.60
   3  -3 -10  153.38    8.80
   3  -3 -10  183.48   17.90
   3  -3 -10  169.08   16.70
  -4   3  10  195.68   20.00
   4  -3 -10  184.78   19.40
   4  -3 -10  194.58   11.40
   4  -3 -10  231.88   19.00
   4  -3 -10  184.48   17.50
   4  -3 -10  250.27   18.60
  -5   3  10   89.99   16.10
   5  -3 -10  138.49   14.80
   5  -3 -10  104.09   10.80
   5  -3 -10  101.79    9.80
   5  -3 -10   78.49   11.80
   5  -3 -10   86.99   13.50
   7   4   9   -9.40   10.60
  -7  -4  -9   17.70   17.60
  -7  -4  -9   17.40   17.20
   6   4   9   -3.50    9.40
   6   4   9  -31.40   13.50
  -6  -4  -9   -6.50   13.30
  -6  -4  -9   -1.50   14.50
   5   4   9   57.99   11.40
   5   4   9   51.79   13.00
   5   4   9   61.39   12.50
   5   4   9   59.69   10.50
  -5  -4  -9   50.59   10.00
  -5  -4  -9   47.10   10.20
  -5  -4  -9   43.60   14.30
   4   4   9  277.47   18.10
   4   4   9  270.27   18.20
   4   4   9  232.58   16.80
   4   4   9  280.97   18.70
  -4  -4  -9  249.18   18.40
  -4  -4  -9  277.27   19.00
   3   4   9   28.20    8.50
   3   4   9   32.20    8.50
   3   4   9   40.60    8.40
   3   4   9   59.69    9.20
  -3  -4  -9   52.09    8.90
  -3  -4  -9   32.60    8.40
   2   4   9   32.70    6.80
   2   4   9   36.30    7.20
   2   4   9   45.80    7.30
   2   4   9   32.00    6.70
  -2  -4  -9   53.09    7.80
  -2  -4  -9   33.10    4.60
  -2  -4  -9   40.20    7.40
   1   4   9   85.49    8.80
   1   4   9   68.89    9.70
   1   4   9   88.99    8.10
  -1  -4  -9   78.69    7.90
  -1  -4  -9   75.59    8.10
   0   4   9 1070.69   48.70
   0   4   9 1146.49   46.20
   0   4   9 1168.68   46.30
   0  -4  -9 1152.68   46.60
   0  -4  -9 1101.39   46.50
  -1   4   9    0.20    4.10
  -1   4   9   -4.50    5.90
   1  -4  -9   -2.20    4.80
   1  -4  -9    4.00    3.20
   1  -4  -9    2.10    4.30
   1  -4  -9   -0.80    4.70
   1  -4  -9  -15.20    6.00
  -2   4   9  512.65   21.70
  -2   4   9  486.95   26.40
   2  -4  -9  469.45   22.40
   2  -4  -9  530.65   27.10
   2  -4  -9  496.65   22.10
   2  -4  -9  492.85   22.90
   2  -4  -9  500.55   22.60
  -3   4   9   36.60    5.60
  -3   4   9   28.90   10.60
  -3   4   9   30.40    5.10
   3  -4  -9   34.00    7.40
   3  -4  -9   43.30    5.80
   3  -4  -9   40.50   11.80
   3  -4  -9   41.30    6.70
  -4   4   9  291.57   15.20
  -4   4   9  222.28   18.20
  -4   4   9  264.77   14.40
   4  -4  -9  291.37   19.40
   4  -4  -9  271.77   23.50
   4  -4  -9  275.57   16.60
   4  -4  -9  252.17   22.00
   4  -4  -9  285.97   15.20
  -5   4   9   -9.50    7.90
  -5   4   9   13.80   12.40
  -5   4   9   -1.50    9.20
   5  -4  -9   -4.20    8.60
   5  -4  -9  -10.10   10.60
   5  -4  -9  -14.30   11.00
   5  -4  -9   10.90    7.60
   5  -4  -9    5.80    9.50
   7   5   8   36.10   15.10
   7   5   8   58.89   11.50
  -7  -5  -8   62.09   17.00
  -7  -5  -8   54.49   22.00
  -7  -5  -8   33.00   17.80
   6   5   8   24.40    7.90
   6   5   8   32.00   15.30
  -6  -5  -8   47.20   15.50
  -6  -5  -8   45.00   17.30
   5   5   8   48.60   12.40
   5   5   8   50.09   10.80
   5   5   8   64.59    6.80
  -5  -5  -8   69.29   13.60
  -5  -5  -8   45.40   12.50
   4   5   8  266.57   19.60
   4   5   8  280.27   18.80
   4   5   8  308.47   20.50
   4   5   8  278.87   18.50
  -4  -5  -8  276.97   19.90
   3   5   8   11.70    6.50
   3   5   8   11.60    8.70
   3   5   8   19.30    8.00
   3   5   8   19.50    7.90
  -3  -5  -8   39.60    9.90
  -3  -5  -8    8.20    6.40
   2   5   8   83.89    8.80
   2   5   8   68.09   10.40
   2   5   8   78.09    9.70
   2   5   8   93.39    9.90
  -2  -5  -8   89.89   10.10
  -2  -5  -8   75.29    9.40
   1   5   8    6.50    8.00
   1   5   8   14.40    6.50
   1   5   8    2.70    6.60
  -1  -5  -8   14.50    6.30
  -1  -5  -8   19.30    7.20
   0   5   8  522.35   23.70
   0   5   8  501.95   25.10
   0  -5  -8  511.85   24.00
   0  -5  -8  497.25   24.20
  -1   5   8  126.79   12.00
  -1   5   8  137.09   11.90
   1  -5  -8  159.08   11.30
   1  -5  -8  197.38   16.00
   1  -5  -8  140.89   12.00
  -2   5   8  407.56   26.00
  -2   5   8  465.75   22.00
  -2   5   8  525.55   23.20
   2  -5  -8  481.35   23.30
   2  -5  -8  493.65   22.30
   2  -5  -8  532.05   26.60
   2  -5  -8  473.45   23.40
   2  -5  -8  481.45   20.60
  -3   5   8   11.50    7.00
  -3   5   8   17.50    6.80
  -3   5   8   23.40    8.40
   3  -5  -8   12.40   10.50
   3  -5  -8   11.70    7.90
   3  -5  -8    6.80    5.10
   3  -5  -8   22.20    7.60
   3  -5  -8   22.40   11.00
   3  -5  -8   11.40    7.00
  -4   5   8    8.50    8.60
  -4   5   8   10.30    8.80
  -4   5   8    2.40    9.40
  -4   5   8   17.50   11.30
   4  -5  -8    8.90    7.80
   4  -5  -8    9.70   11.80
   4  -5  -8   -4.10   10.50
   4  -5  -8    9.60    8.80
   4  -5  -8   20.50    9.70
  -5   5   8  181.78   18.00
  -5   5   8  172.78   17.50
  -5   5   8  160.18   15.20
  -5   5   8  159.68   16.60
   5  -5  -8  173.38   17.10
   5  -5  -8  172.68   16.90
   5  -5  -8  129.39   17.70
   5  -5  -8  158.18   15.80
   7   6   7    3.10   18.60
   7   6   7    2.40   11.00
  -7  -6  -7   22.90   17.50
   6   6   7    1.40    8.00
   6   6   7   -9.20   11.40
  -6  -6  -7  -13.20   11.20
  -6  -6  -7   -1.70   14.20
   5   6   7  274.87   15.40
   5   6   7  271.67   20.10
   5   6   7  292.77   24.40
  -5  -6  -7  287.47   20.20
  -5  -6  -7  310.97   24.60
   4   6   7  191.48   10.10
   4   6   7  194.98   15.50
   4   6   7  191.98   15.70
  -4  -6  -7  188.38   11.80
  -4  -6  -7  181.58   18.30
  -4  -6  -7  189.88   18.60
   3   6   7 1044.10   47.80
   3   6   7 1075.19   44.30
   3   6   7 1023.70   47.40
   3   6   7 1075.59   47.60
  -3  -6  -7 1122.19   47.80
   2   6   7  213.78   15.90
   2   6   7  199.88   15.80
   2   6   7  202.98   10.30
   2   6   7  195.88   16.60
  -2  -6  -7  191.78   16.00
  -2  -6  -7  208.88   15.80
   1   6   7 3597.14  137.29
   1   6   7 3405.26  137.99
  -1  -6  -7 3435.16  137.29
  -1  -6  -7 3301.77  137.09
   0   6   7   22.30    2.90
   0   6   7   20.10    7.90
   0   6   7   21.10    9.60
   0   6   7   29.60    8.20
   0  -6  -7   18.00    8.10
   0  -6  -7   17.50    8.00
  -1   6   7  424.66   24.20
  -1   6   7  429.76   19.20
  -1   6   7  424.16   22.40
  -1   6   7  400.16   22.80
   1  -6  -7  414.96   22.40
   1  -6  -7  427.86   22.60
   1  -6  -7  468.45   24.00
  -2   6   7  384.46   22.90
  -2   6   7  441.66   23.20
  -2   6   7  386.56   25.40
  -2   6   7  422.16   24.70
   2  -6  -7  422.46   23.20
   2  -6  -7  421.96   27.60
   2  -6  -7  402.76   23.00
   2  -6  -7  435.26   23.60
  -3   6   7  710.23   32.60
  -3   6   7  667.93   33.00
  -3   6   7  689.93   31.80
  -3   6   7  612.94   32.50
   3  -6  -7  724.63   32.80
   3  -6  -7  654.33   27.00
   3  -6  -7  696.63   34.20
   3  -6  -7  635.14   37.40
   3  -6  -7  714.83   32.80
  -4   6   7  171.18   17.30
  -4   6   7  145.39   16.10
  -4   6   7  158.18   15.90
  -4   6   7  189.98   17.90
   4  -6  -7  193.38   17.40
   4  -6  -7  170.38   18.10
   4  -6  -7  195.38   12.00
   4  -6  -7  225.68   18.20
   4  -6  -7  188.48   17.50
   4  -6  -7  189.48   18.80
  -5   6   7  139.69   18.10
  -5   6   7  109.29   16.80
  -5   6   7  115.49   15.60
   5  -6  -7  130.79   16.30
   5  -6  -7  128.49   16.40
   5  -6  -7   84.79   28.20
   5  -6  -7  114.89   18.30
   6   7   6   51.29   14.80
   6   7   6   19.50    9.60
  -6  -7  -6   37.10   21.20
  -6  -7  -6   26.00    8.00
  -6  -7  -6   45.50   17.20
   5   7   6   33.50   11.70
   5   7   6   26.60    7.30
   5   7   6    8.10   10.10
  -5  -7  -6   20.60    8.10
  -5  -7  -6   68.79   15.70
  -5  -7  -6   35.00   14.70
   4   7   6   33.10    5.80
   4   7   6   53.79   14.40
   4   7   6   24.10   12.50
  -4  -7  -6   39.30    8.50
  -4  -7  -6   49.60   15.10
  -4  -7  -6   26.10   13.40
   3   7   6   61.09   11.80
   3   7   6   56.69   10.40
   3   7   6   43.80   10.20
   3   7   6   51.29    5.20
  -3  -7  -6   74.29   10.90
  -3  -7  -6   39.40   12.60
   2   7   6   11.80    8.00
   2   7   6   23.80   11.20
   2   7   6   14.20    3.60
   2   7   6   13.70    3.70
  -2  -7  -6    4.00    7.50
  -2  -7  -6   21.90   10.20
   1   7   6   64.49   11.60
   1   7   6   63.59   10.90
   1   7   6   45.10   11.10
   1   7   6   57.49    5.10
  -1  -7  -6   39.70   10.20
  -1  -7  -6   62.89   13.90
   0   7   6  342.17   16.00
   0   7   6  324.67   19.90
   0   7   6  330.97   21.20
   0   7   6  305.57   20.90
   0  -7  -6  354.46   21.90
   0  -7  -6  317.57   21.10
  -1   7   6   72.39    7.70
  -1   7   6   76.39   12.30
  -1   7   6   75.59   10.40
  -1   7   6   88.59   11.50
   1  -7  -6   68.69   14.90
   1  -7  -6   86.09   12.80
   1  -7  -6  101.19   12.60
   1  -7  -6   65.89   10.90
  -2   7   6  399.96   24.70
  -2   7   6  356.66   24.20
  -2   7   6  456.75   22.00
  -2   7   6  414.46   25.60
   2  -7  -6  441.16   23.70
   2  -7  -6  373.76   30.50
   2  -7  -6  446.06   25.30
  -3   7   6   39.10   10.70
  -3   7   6    6.10   12.00
  -3   7   6   12.70   12.20
  -3   7   6   25.50   11.70
   3  -7  -6   24.20   11.80
   3  -7  -6   54.29   11.70
   3  -7  -6   19.30   11.40
  -4   7   6  362.76   26.00
  -4   7   6  406.06   26.90
  -4   7   6  363.66   27.40
   4  -7  -6  440.06   28.50
   4  -7  -6  346.17   34.60
   4  -7  -6  337.67   26.00
   4  -7  -6  408.16   25.10
   5   8   5   -8.40    9.10
   5   8   5   10.60   17.50
  -5  -8  -5  -24.70   12.30
  -5  -8  -5    8.00   10.20
  -5  -8  -5   -4.20   18.70
   4   8   5   -4.10    6.90
   4   8   5   17.40   14.10
   4   8   5   -7.70   13.40
  -4  -8  -5    5.90   15.00
  -4  -8  -5   -3.90   11.30
  -4  -8  -5    9.60    9.80
   3   8   5   19.20   13.80
   3   8   5    3.10   11.70
   3   8   5   37.20   15.20
   3   8   5    7.10    6.30
   3   8   5   16.80    4.60
  -3  -8  -5   21.80   10.50
  -3  -8  -5  -17.00   12.70
  -3  -8  -5   26.80   10.30
   2   8   5  176.48   13.10
   2   8   5  148.69   16.70
   2   8   5  199.38   18.30
  -2  -8  -5  198.88   20.30
  -2  -8  -5  206.48   19.70
   1   8   5  127.99   11.30
   1   8   5  146.49   16.60
   1   8   5  125.09   15.70
   1   8   5  108.39   14.50
  -1  -8  -5  135.09   14.10
  -1  -8  -5  100.39   17.80
  -1  -8  -5  128.69   16.10
   0   8   5   -8.70    6.70
   0   8   5    4.60   11.30
   0   8   5    6.00    6.80
   0   8   5   -0.80   12.90
   0  -8  -5    7.20   11.30
   0  -8  -5   -2.60   10.90
   0  -8  -5    3.60   10.40
  -1   8   5   -1.00   11.10
  -1   8   5    0.70   10.20
  -1   8   5   25.50   13.00
   1  -8  -5   21.90   13.30
   1  -8  -5  -15.80   14.90
   1  -8  -5   -7.80    9.40
   1  -8  -5   -2.60   12.40
  -2   8   5   93.89   15.20
  -2   8   5   54.39   11.40
  -2   8   5   38.90   12.70
  -2   8   5   62.79   15.80
   2  -8  -5   42.30   15.10
   2  -8  -5   84.79   14.30
   2  -8  -5   80.79   15.30
   2  -8  -5   67.49   11.80
  -3   8   5   17.40   12.70
  -3   8   5   14.10   12.90
  -3   8   5   37.70   15.40
   3  -8  -5   16.80   12.90
   3  -8  -5   34.00   10.90
   3  -8  -5   23.90   16.00
   4   9   4  224.38   24.50
   4   9   4  234.98   19.60
  -4  -9  -4  215.48   22.20
  -4  -9  -4  210.18   22.20
   3   9   4   90.49    8.00
   3   9   4   86.19   11.30
   3   9   4   60.99   15.20
  -3  -9  -4   90.69   16.30
  -3  -9  -4   79.19   15.20
  -3  -9  -4   91.79   19.00
   2   9   4  329.17   20.60
   2   9   4  314.37   23.40
   2   9   4  289.47   21.20
  -2  -9  -4  331.67   27.30
  -2  -9  -4  344.87   25.40
   1   9   4   99.29   11.40
   1   9   4   88.29   15.00
   1   9   4   94.19   16.60
  -1  -9  -4  104.29   18.90
  -1  -9  -4  102.79   15.20
   0   9   4  149.39   18.20
   0   9   4  178.78   17.90
   0   9   4  186.68   20.40
   0  -9  -4  179.28   18.10
   0  -9  -4  192.38   20.50
  -1   9   4   94.59   13.90
  -1   9   4  112.39   17.60
  -1   9   4   90.79   15.00
   1  -9  -4  101.79   13.00
   1  -9  -4   91.69   17.90
   1  -9  -4   94.59   15.90
  -2   9   4   79.49   15.10
  -2   9   4   81.09   19.90
   2  -9  -4   82.59   11.90
   2  -9  -4   70.69   14.60
   2  -9  -4   55.39   19.00
   0  -1  15   -3.10   10.90
   0   1 -15    0.90   16.80
   3   0  14   13.60   12.50
   3   0  14   11.20   10.20
   3   0  14   14.00    8.20
   3   0  14    7.10   10.50
  -3   0 -14   33.20   18.50
  -3   0 -14   11.50   10.50
  -3   0 -14    4.80   11.50
  -3   0 -14    5.30   13.50
  -3   0 -14   16.40    9.40
   2   0  14  115.69   10.20
   2   0  14  117.99   11.50
   2   0  14  135.29   11.60
   2   0  14  126.99   18.10
  -2   0 -14  110.59   11.50
  -2   0 -14   91.99   12.80
  -2   0 -14  132.29   11.30
  -2   0 -14  105.19   16.60
  -2   0 -14   83.49   15.50
   1   0  14   79.49   16.20
   1   0  14   83.49   11.00
  -1   0 -14   74.89   13.00
  -1   0 -14   82.79    7.40
  -1   0 -14   48.30   16.50
   0   0  14  217.68   16.50
   0   0 -14  190.08   19.20
   0   0 -14  289.27   25.20
   0   0 -14  241.98   21.00
  -1   0  14   15.50   10.20
   1   0 -14  -24.70   16.10
   1   0 -14   22.30   13.20
   1   0 -14   20.10   14.60
   1   0 -14    4.40    8.60
   1   0 -14   22.30   12.60
  -2   0  14  344.17   22.50
   2   0 -14  360.66   22.30
   2   0 -14  322.87   25.80
   2   0 -14  348.37   27.60
   2   0 -14  261.37   22.70
   3   0 -14   62.59   14.50
   3   0 -14   74.79   14.20
   5   1  13   28.90   14.80
   5   1  13   34.10   16.60
  -5  -1 -13   40.00   16.50
  -5  -1 -13   25.10   14.00
  -5  -1 -13   21.00   14.80
  -5  -1 -13    0.10   11.00
   4   1  13 1467.45   66.39
   4   1  13 1456.85   62.79
   4   1  13 1461.95   59.69
   4   1  13 1461.85   63.39
  -4  -1 -13 1448.16   63.19
  -4  -1 -13 1493.95   70.79
   3   1  13   -5.90    7.50
   3   1  13    3.50   12.80
   3   1  13   26.80    8.90
   3   1  13   -2.20    9.90
  -3  -1 -13  -15.00   13.90
  -3  -1 -13    1.10    7.20
  -3  -1 -13    9.20    8.30
  -3  -1 -13    6.20    8.70
   2   1  13  255.67   16.50
   2   1  13  226.38   22.40
   2   1  13  249.18   15.00
  -2  -1 -13  247.68   15.70
  -2  -1 -13  252.67   21.50
  -2  -1 -13  254.87   26.90
   1   1  13  105.79   14.80
   1   1  13  138.49   13.80
  -1  -1 -13  120.19   14.50
  -1  -1 -13   97.39   15.70
  -1  -1 -13  101.29   10.00
  -1  -1 -13  119.39    9.00
   0   1  13  150.28   15.00
   0  -1 -13  223.98   20.30
   0  -1 -13  163.08   17.40
   0  -1 -13  175.48   16.30
   0  -1 -13  153.18   15.70
   0  -1 -13  174.88   13.30
  -1   1  13  723.23   35.90
   1  -1 -13  755.32   37.90
   1  -1 -13  778.92   39.80
   1  -1 -13  754.62   34.00
   1  -1 -13  809.92   39.50
   1  -1 -13  739.93   36.10
  -2   1  13   56.29   11.40
   2  -1 -13   62.89   12.00
   2  -1 -13   61.39   13.60
   2  -1 -13   52.29   11.70
   2  -1 -13   70.19    9.70
   2  -1 -13   75.19   13.20
  -3   1  13   12.90   12.30
   3  -1 -13   41.30   16.10
   3  -1 -13   13.50   13.00
   3  -1 -13    2.30   10.40
   3  -1 -13   -0.30    9.20
  -4   1  13    9.70   12.90
   4  -1 -13    9.10   11.50
   4  -1 -13  -34.50   15.60
   4  -1 -13   19.00   10.60
   5   2  12  217.48   21.50
   5   2  12  229.88   28.60
   5   2  12  217.28   21.20
   5   2  12  189.38   16.30
  -5  -2 -12  239.58   23.30
  -5  -2 -12  182.18   23.50
  -5  -2 -12  228.98   16.40
  -5  -2 -12  239.98   22.80
   4   2  12   41.40    9.40
   4   2  12   49.90   13.70
   4   2  12   49.40   10.80
   4   2  12   71.99   12.30
  -4  -2 -12   48.70    7.20
  -4  -2 -12   67.39   11.90
  -4  -2 -12   36.60   15.40
  -4  -2 -12   65.09   11.90
   3   2  12   -5.30    7.50
   3   2  12    5.40   10.10
   3   2  12    4.40    8.00
   3   2  12    2.00    8.30
  -3  -2 -12   -9.50    8.90
  -3  -2 -12    4.90    8.60
  -3  -2 -12   -0.40    4.50
   2   2  12    0.90    7.60
   2   2  12    2.00    9.50
   2   2  12   -1.70    6.10
   2   2  12   -7.80    9.30
  -2  -2 -12    4.00    3.90
  -2  -2 -12   -0.40   11.40
  -2  -2 -12   -2.30    5.90
  -2  -2 -12   -5.00    6.10
   1   2  12  523.95   21.30
   1   2  12  471.85   25.70
   1   2  12  472.45   19.90
   1   2  12  464.75   24.20
  -1  -2 -12  464.15   20.90
  -1  -2 -12  455.65   29.90
  -1  -2 -12  486.55   22.60
  -1  -2 -12  481.35   21.50
  -1  -2 -12  457.25   20.70
  -1  -2 -12  481.75   21.50
  -1  -2 -12  499.15   27.20
   0   2  12  138.59   13.70
   0  -2 -12  156.98    6.80
   0  -2 -12  152.38   15.50
   0  -2 -12  153.68    6.70
   0  -2 -12  163.58   15.70
   0  -2 -12  191.68   16.30
   0  -2 -12  171.78   13.20
   0  -2 -12  168.78   10.40
  -1   2  12  586.44   29.70
   1  -2 -12  595.94   26.40
   1  -2 -12  575.84   29.00
   1  -2 -12  614.04   30.30
   1  -2 -12  608.24   29.60
   1  -2 -12  572.04   32.00
  -2   2  12  149.29   15.20
   2  -2 -12  151.38   15.00
   2  -2 -12  159.88   18.80
   2  -2 -12  154.88   13.50
   2  -2 -12  172.38   18.30
   2  -2 -12  190.28   17.10
  -3   2  12   30.10   10.10
   3  -2 -12   21.60   10.30
   3  -2 -12   29.00   12.80
   3  -2 -12   29.60    8.50
   3  -2 -12   24.80   11.30
   3  -2 -12   30.60   12.00
  -4   2  12   90.89   16.40
   4  -2 -12  116.99   12.60
   4  -2 -12   85.49   12.50
   4  -2 -12  111.09   15.80
   6   3  11  -24.80   12.90
   6   3  11    0.40   15.10
   6   3  11   -1.60    9.70
  -6  -3 -11   12.70   13.70
  -6  -3 -11   25.00   17.30
  -6  -3 -11   -0.50    8.90
  -6  -3 -11   -7.40   12.20
   5   3  11  388.16   25.80
   5   3  11  377.36   24.80
   5   3  11  355.66   21.00
   5   3  11  317.47   26.20
  -5  -3 -11  376.06   32.00
  -5  -3 -11  338.87   24.50
  -5  -3 -11  343.27   17.90
   4   3  11  228.98   17.80
   4   3  11  228.08   16.00
   4   3  11  265.67   18.60
   4   3  11  248.78   20.60
  -4  -3 -11  223.28   19.10
  -4  -3 -11  244.38   11.90
  -4  -3 -11  247.58   26.20
   3   3  11   83.09   10.10
   3   3  11   70.19    9.80
   3   3  11   80.49   10.20
   3   3  11   86.89   11.50
  -3  -3 -11   83.19    9.60
  -3  -3 -11   67.69    9.90
  -3  -3 -11   80.09   14.60
   2   3  11  189.68   16.50
   2   3  11  220.38   13.30
   2   3  11  186.38   14.30
   2   3  11  189.38   13.50
  -2  -3 -11  164.48   17.40
  -2  -3 -11  199.28   13.50
  -2  -3 -11  212.48   12.80
  -2  -3 -11  181.58   10.10
   1   3  11    1.70    6.80
   1   3  11    2.10    7.10
   1   3  11    3.60    4.20
   1   3  11    0.20    7.90
  -1  -3 -11    6.40    4.60
  -1  -3 -11   -2.20    5.20
  -1  -3 -11   -1.30    5.00
   0   3  11  406.06   21.20
   0   3  11  408.76   16.40
   0   3  11  397.46   16.30
   0  -3 -11  413.46   18.40
   0  -3 -11  441.06   21.30
   0  -3 -11  398.36   21.20
   0  -3 -11  413.96   18.20
   0  -3 -11  414.16   22.70
  -1   3  11   40.10    8.20
   1  -3 -11   28.90    7.70
   1  -3 -11   31.60    9.40
   1  -3 -11   28.20    8.60
   1  -3 -11   29.20    5.00
   1  -3 -11   31.20    2.90
   1  -3 -11   29.60    2.90
  -2   3  11   87.89   11.30
   2  -3 -11   94.99   10.60
   2  -3 -11   79.59    7.90
   2  -3 -11   99.89   11.60
   2  -3 -11   79.69   11.60
  -3   3  11   48.40   12.60
   3  -3 -11   38.50   14.80
   3  -3 -11   52.19   10.50
   3  -3 -11   52.59   12.70
   3  -3 -11   44.70    8.60
   4  -3 -11  321.87   21.60
   4  -3 -11  305.77   13.00
   4  -3 -11  291.07   23.00
   4  -3 -11  309.97   13.00
   4  -3 -11  355.76   21.90
  -5   3  11   49.99   11.70
   5  -3 -11   59.69    6.70
   5  -3 -11   47.20   11.60
   5  -3 -11   49.40   13.60
   5  -3 -11   67.59    6.60
   5  -3 -11   61.29   15.20
   6   4  10   37.40   10.70
   6   4  10   30.20   12.00
   6   4  10   29.00   16.40
  -6  -4 -10   59.59   15.50
  -6  -4 -10   10.80   16.70
   5   4  10  355.36   25.30
   5   4  10  335.17   23.70
   5   4  10  347.77   24.40
   5   4  10  350.06   21.10
  -5  -4 -10  353.46   24.20
  -5  -4 -10  383.26   30.40
  -5  -4 -10  305.17   24.80
   4   4  10  161.78   15.80
   4   4  10  124.99   13.50
   4   4  10  134.59   14.00
   4   4  10  132.39   13.00
  -4  -4 -10  150.78   14.40
  -4  -4 -10  114.49   13.50
   3   4  10  122.29   12.30
   3   4  10  129.59   13.10
   3   4  10  115.99   11.70
   3   4  10  122.09   12.20
  -3  -4 -10  124.89   12.00
  -3  -4 -10  121.49   11.80
   2   4  10  216.78   15.10
   2   4  10  234.18   14.60
   2   4  10  208.08   15.60
   2   4  10  215.18   13.70
  -2  -4 -10  208.48   14.10
  -2  -4 -10  205.58   14.40
  -2  -4 -10  199.78   11.00
   1   4  10  173.48   14.60
   1   4  10  184.28   12.50
   1   4  10  206.08   12.30
   1   4  10  195.98   13.00
  -1  -4 -10  176.78   12.40
  -1  -4 -10  195.48   12.40
  -1  -4 -10  162.98   12.20
   0   4  10   83.49    8.00
   0   4  10   64.69    9.30
   0  -4 -10   87.49    8.40
   0  -4 -10   88.89    9.00
   0  -4 -10   62.39    9.90
   0  -4 -10   84.49    7.70
  -1   4  10  765.52   30.60
  -1   4  10  738.93   35.50
   1  -4 -10  686.73   34.60
   1  -4 -10  760.62   32.40
   1  -4 -10  746.73   31.40
   1  -4 -10  745.83   30.30
   1  -4 -10  743.73   31.50
  -2   4  10  136.69   15.00
  -2   4  10  144.69    8.20
  -2   4  10  150.78    7.90
   2  -4 -10  147.29   10.00
   2  -4 -10  153.98   16.10
   2  -4 -10  151.28   10.10
   2  -4 -10  159.08   10.90
   2  -4 -10  168.18   12.10
  -3   4  10  457.65   26.20
   3  -4 -10  422.86   20.00
   3  -4 -10  429.86   22.20
   3  -4 -10  426.36   22.40
   3  -4 -10  453.35   28.50
   3  -4 -10  419.06   20.20
   3  -4 -10  451.35   24.40
  -4   4  10  318.07   15.30
  -4   4  10  306.17   23.40
   4  -4 -10  365.06   18.00
   4  -4 -10  306.87   28.70
   4  -4 -10  277.47   25.40
   4  -4 -10  319.17   17.00
   4  -4 -10  350.66   28.30
   4  -4 -10  346.97   20.90
   4  -4 -10  318.87   20.40
  -5   4  10   36.40    7.00
  -5   4  10   20.00   14.80
  -5   4  10   40.70    7.10
   5  -4 -10   23.40   13.30
   5  -4 -10   39.70    9.20
   5  -4 -10    3.90   12.90
   5  -4 -10   36.70   12.90
   5  -4 -10   35.00    7.50
   6   5   9   71.89   13.40
   6   5   9   65.39   13.90
  -6  -5  -9   50.99   17.60
  -6  -5  -9   62.39   15.90
  -6  -5  -9   64.59   19.00
   5   5   9   19.70   10.30
   5   5   9   13.30   10.40
   5   5   9   33.10   14.40
   5   5   9   27.00   13.40
  -5  -5  -9   17.20   10.40
  -5  -5  -9   22.00   11.70
   4   5   9  311.87   18.60
   4   5   9  240.28   19.30
   4   5   9  304.37   20.30
   4   5   9  293.57   19.30
  -4  -5  -9  258.77   19.70
   3   5   9  123.09   11.90
   3   5   9  150.08   14.40
   3   5   9  131.89   13.00
   3   5   9  141.39   12.80
  -3  -5  -9  134.59   13.00
   2   5   9   77.69    7.60
   2   5   9   53.99    8.60
   2   5   9   66.59    9.40
   2   5   9   65.69    9.30
  -2  -5  -9   66.99    9.40
  -2  -5  -9   88.89   10.30
   1   5   9  280.77   15.80
   1   5   9  240.58   17.30
   1   5   9  254.27   16.00
  -1  -5  -9  231.08   15.10
  -1  -5  -9  244.18   15.40
   0   5   9   72.89    8.10
   0   5   9   68.29    9.50
   0   5   9   65.09    9.50
   0  -5  -9   73.49    8.00
   0  -5  -9   59.19    7.90
  -1   5   9  117.19   13.00
  -1   5   9  129.89   11.20
   1  -5  -9  105.59   10.10
   1  -5  -9  130.19   11.20
   1  -5  -9  107.59   13.30
  -2   5   9   29.80   10.10
  -2   5   9   45.30    7.50
  -2   5   9   33.50    6.80
   2  -5  -9   40.00    9.30
   2  -5  -9   39.90    5.30
   2  -5  -9   43.20    7.10
   2  -5  -9   46.80    7.90
   2  -5  -9   41.80    6.30
  -3   5   9  361.26   18.30
  -3   5   9  300.47   20.80
   3  -5  -9  352.46   19.30
   3  -5  -9  338.77   19.00
   3  -5  -9  357.56   19.70
   3  -5  -9  354.66   17.90
   3  -5  -9  367.66   25.30
  -4   5   9  143.29   20.00
  -4   5   9  195.68   15.70
  -4   5   9  195.08   15.50
  -4   5   9  187.38   18.90
   4  -5  -9  199.18   19.50
   4  -5  -9  190.88   16.60
   4  -5  -9  193.78   16.50
   4  -5  -9  209.28   15.00
   4  -5  -9  183.18   19.00
   4  -5  -9  215.98   15.20
  -5   5   9    3.50   13.50
  -5   5   9  -14.20   12.20
  -5   5   9   24.80   11.50
  -5   5   9  -12.20    9.80
   5  -5  -9   -1.80    9.80
   5  -5  -9   -2.60   12.80
   5  -5  -9  -15.60   10.20
   5  -5  -9  -31.60   13.50
   5  -5  -9  -32.70   10.70
   6   6   8    8.80    7.40
   6   6   8   43.90   18.00
  -6  -6  -8   27.00   16.70
  -6  -6  -8   26.80   14.10
   5   6   8   57.69   14.20
   5   6   8   71.29   10.90
   5   6   8   55.79   15.70
   5   6   8   67.29    5.90
  -5  -6  -8   69.49   15.70
  -5  -6  -8   64.39   14.80
   4   6   8   20.80   11.70
   4   6   8    7.60   11.60
   4   6   8    8.00    9.40
   4   6   8    4.30    8.30
  -4  -6  -8   14.90   10.70
  -4  -6  -8   21.50    4.30
  -4  -6  -8   27.40    9.60
   3   6   8  210.68   18.80
   3   6   8  274.57   19.40
   3   6   8  267.77   15.10
   3   6   8  271.97   18.90
  -3  -6  -8  191.38   18.60
  -3  -6  -8  241.38   19.00
   2   6   8   68.59    7.10
   2   6   8   77.89   10.60
   2   6   8   58.19    9.80
   2   6   8   82.49   12.20
  -2  -6  -8   52.49   10.30
  -2  -6  -8   77.49   11.20
   1   6   8  458.15   23.80
   1   6   8  436.26   22.90
   1   6   8  407.76   23.50
  -1  -6  -8  503.55   24.60
  -1  -6  -8  449.66   23.70
   0   6   8  135.19   14.20
   0   6   8  161.18   14.50
   0  -6  -8  139.49   14.50
   0  -6  -8  159.98   13.60
  -1   6   8  365.36   20.60
  -1   6   8  371.26   21.30
  -1   6   8  390.36   17.00
  -1   6   8  362.56   21.50
   1  -6  -8  400.36   23.60
   1  -6  -8  402.26   21.10
   1  -6  -8  381.46   21.10
  -2   6   8  197.98   18.00
  -2   6   8  180.18   15.90
  -2   6   8  231.78   16.50
  -2   6   8  209.98   13.30
   2  -6  -8  212.78   15.90
   2  -6  -8  237.08   19.60
   2  -6  -8  205.78   15.40
  -3   6   8  198.08   15.90
  -3   6   8  189.38   15.60
  -3   6   8  186.28   16.40
  -3   6   8  164.78   16.00
   3  -6  -8  185.68    8.50
   3  -6  -8  182.18   16.60
   3  -6  -8  183.28   16.10
   3  -6  -8  217.08   21.20
   3  -6  -8  160.08   18.90
  -4   6   8   76.79   13.10
  -4   6   8  117.99   13.00
  -4   6   8   93.09   14.00
   4  -6  -8   70.89   12.90
   4  -6  -8  105.79   10.10
   4  -6  -8   94.99   13.00
   4  -6  -8   98.39   13.00
   4  -6  -8   87.59   15.30
   4  -6  -8   63.49   16.80
   6   7   7   20.60   18.20
   6   7   7   22.60    8.80
  -6  -7  -7  -15.20   22.20
  -6  -7  -7   29.10   19.10
   5   7   7    1.50    5.80
   5   7   7   -0.50   14.50
  -5  -7  -7    2.90   12.30
  -5  -7  -7   15.70   15.40
  -5  -7  -7   12.00    6.90
   4   7   7  312.77   20.70
   4   7   7  256.17   21.70
   4   7   7  270.17   13.20
   4   7   7  323.37   25.50
  -4  -7  -7  288.07   25.00
  -4  -7  -7  267.57   17.00
  -4  -7  -7  298.97   20.40
   3   7   7   66.59   13.00
   3   7   7   48.20   10.70
   3   7   7  103.09   13.90
   3   7   7   61.39    7.00
  -3  -7  -7   67.79   13.80
  -3  -7  -7   43.10   12.90
   2   7   7 1253.07   56.99
   2   7   7 1245.98   56.79
   2   7   7 1442.26   57.79
  -2  -7  -7 1328.27   56.89
  -2  -7  -7 1289.67   57.39
   1   7   7  137.59    6.20
   1   7   7  129.39    6.30
   1   7   7  164.58   16.70
   1   7   7  148.99   13.70
  -1  -7  -7  134.79   14.50
  -1  -7  -7  161.88   15.60
   0   7   7  348.17   21.60
   0   7   7  354.16   21.60
   0   7   7  331.47   22.40
   0  -7  -7  359.46   22.10
   0  -7  -7  370.66   22.50
  -1   7   7   -5.40    6.80
  -1   7   7   -4.90    9.00
  -1   7   7    4.80    9.20
  -1   7   7   -1.10    5.10
   1  -7  -7    3.20    9.60
   1  -7  -7   -6.30    9.00
   1  -7  -7  -12.80   10.10
   1  -7  -7  -13.40    8.90
  -2   7   7  126.29   15.20
  -2   7   7  159.78   15.80
  -2   7   7  166.88   16.60
  -2   7   7  163.78   13.50
   2  -7  -7  153.48   15.00
   2  -7  -7  173.68   15.60
   2  -7  -7  186.28   18.10
   2  -7  -7  120.39   18.20
  -3   7   7  103.89   16.40
  -3   7   7  132.59   15.50
  -3   7   7  162.88   17.40
  -3   7   7  123.39   12.70
   3  -7  -7  137.69   15.90
   3  -7  -7  124.39   14.90
   3  -7  -7   91.49   19.10
   3  -7  -7  125.79   15.40
  -4   7   7   44.20   11.50
  -4   7   7   14.90   14.30
  -4   7   7   54.49   15.10
   4  -7  -7   19.10   19.40
   4  -7  -7   28.50   15.30
   4  -7  -7   31.80   13.50
   5   8   6   14.80    8.20
   5   8   6   22.50   18.80
  -5  -8  -6   36.00   10.60
  -5  -8  -6   32.70   22.70
  -5  -8  -6   14.60   13.00
   4   8   6   46.50   16.70
   4   8   6   50.39   11.10
   4   8   6   47.10    7.00
  -4  -8  -6   45.50   17.30
  -4  -8  -6   50.89   17.40
  -4  -8  -6   72.79   11.20
   3   8   6   21.80   10.50
   3   8   6   17.40   15.30
   3   8   6   23.70    3.70
   3   8   6   16.20    5.60
   3   8   6   28.30   12.80
  -3  -8  -6   25.90   15.10
  -3  -8  -6   22.80   10.70
   2   8   6  351.86   26.70
   2   8   6  318.27   22.00
  -2  -8  -6  367.66   25.40
  -2  -8  -6  423.56   23.90
   1   8   6   30.10    9.30
   1   8   6   14.70   13.10
   1   8   6   27.50    5.70
   1   8   6   33.50   12.80
  -1  -8  -6   39.10   12.70
  -1  -8  -6   38.00   12.30
   0   8   6    7.40   10.80
   0   8   6    4.70   10.90
   0   8   6   22.30    6.30
   0   8   6    7.80   12.40
   0  -8  -6   14.20   11.40
   0  -8  -6   17.80   11.70
   0  -8  -6    6.70   16.60
  -1   8   6  102.29   16.50
  -1   8   6  105.19   10.30
  -1   8   6  126.39   16.00
  -1   8   6  105.49   13.60
   1  -8  -6  117.49   13.70
   1  -8  -6   98.99   16.30
   1  -8  -6  115.29   15.00
   1  -8  -6  116.29   17.40
  -2   8   6   32.30    9.60
  -2   8   6   44.10   13.40
  -2   8   6   44.70   13.80
   2  -8  -6   61.99   12.60
   2  -8  -6    7.60   17.30
   2  -8  -6   66.49   14.90
   2  -8  -6   41.90   13.50
  -3   8   6   91.59   16.50
  -3   8   6  107.19   15.10
  -3   8   6  136.29   18.80
   3  -8  -6  110.29   19.20
   3  -8  -6  118.29   17.80
   3  -8  -6  124.19   16.10
   4   9   5   11.80   10.00
   4   9   5    5.20   19.00
   4   9   5   20.50    7.90
  -4  -9  -5   -2.50   12.40
  -4  -9  -5    8.00   14.20
  -4  -9  -5    7.50   14.40
   3   9   5    8.80    8.20
   3   9   5    9.80   10.30
  -3  -9  -5   15.30   16.80
  -3  -9  -5    4.40   13.50
  -3  -9  -5   25.30   20.00
   2   9   5  169.38   24.40
   2   9   5  258.97   17.50
  -2  -9  -5  296.07   28.80
  -2  -9  -5  266.27   25.50
   1   9   5   65.39   10.20
   1   9   5   60.39   13.90
  -1  -9  -5   76.19   13.30
  -1  -9  -5   80.19   14.50
   0   9   5   16.70   10.10
   0   9   5   -5.60   11.70
   0  -9  -5    7.40   14.60
   0  -9  -5   14.90   15.90
  -1   9   5  100.29   18.50
  -1   9   5   52.79   16.70
  -1   9   5   73.09   12.90
   1  -9  -5   96.79   13.50
   1  -9  -5  108.49   19.50
   1  -9  -5   57.49   16.60
  -2   9   5  141.59   15.90
   2   0  15   13.50   10.30
   2   0  15    3.90   17.00
  -2   0 -15   13.40   11.90
  -2   0 -15    2.80   16.90
   1   0  15   33.10   13.00
   1   0  15   33.90   10.80
  -1   0 -15   26.30    4.90
  -1   0 -15   21.20   12.00
  -1   0 -15   42.80    5.40
  -1   0 -15   53.59   18.30
   0   0  15  276.57   20.90
   0   0 -15  310.87   30.40
   0   0 -15  237.88   21.30
  -1   0  15  398.36   23.60
   1   0 -15  348.97   28.00
   1   0 -15  363.26   25.30
   1   0 -15  367.96   31.70
   4   1  14  136.69   15.20
   4   1  14  150.88   14.10
   4   1  14  119.69   16.60
   4   1  14  123.29   15.30
  -4  -1 -14  106.29   15.60
  -4  -1 -14  113.79   13.20
  -4  -1 -14  153.58   23.20
  -4  -1 -14  154.78   17.60
   3   1  14  100.39   12.20
   3   1  14   95.69   11.40
   3   1  14   93.69   16.90
   3   1  14   65.09   11.00
  -3  -1 -14  107.89   12.60
  -3  -1 -14   95.39   11.50
  -3  -1 -14  112.59   18.20
  -3  -1 -14   83.39   10.10
  -3  -1 -14   68.99   19.10
   2   1  14  197.98   12.00
   2   1  14  207.68   20.30
   2   1  14  217.28   16.50
  -2  -1 -14  177.38   22.40
  -2  -1 -14  186.68   15.30
  -2  -1 -14  194.98   17.60
  -2  -1 -14  192.08   14.70
   1   1  14   77.59   11.70
   1   1  14   77.79   16.80
  -1  -1 -14   43.10    8.60
  -1  -1 -14   73.69   16.20
  -1  -1 -14   62.59    6.10
  -1  -1 -14   52.69   12.70
  -1  -1 -14   75.39    7.50
   0   1  14  425.16   25.70
   0  -1 -14  485.95   29.20
   0  -1 -14  487.15   24.00
   0  -1 -14  442.56   26.20
   0  -1 -14  455.35   31.10
  -1   1  14   32.80   11.60
   1  -1 -14   32.60    8.90
   1  -1 -14   46.90   13.30
   1  -1 -14   16.00   11.60
   1  -1 -14   57.99   15.60
  -2   1  14   40.80   10.50
   2  -1 -14   41.50   15.40
   2  -1 -14   40.90   13.60
   2  -1 -14   62.59   16.10
   2  -1 -14   32.50   10.50
  -3   1  14   80.99   15.30
   3  -1 -14   66.89   13.50
   3  -1 -14   88.79   15.00
   3  -1 -14   51.49   15.90
   5   2  13  100.39   19.60
   5   2  13   92.29   16.10
   5   2  13   98.39   12.00
  -5  -2 -13  100.09   21.70
  -5  -2 -13   81.49   16.40
  -5  -2 -13   89.09   16.00
  -5  -2 -13   76.59   10.60
   4   2  13   38.80   12.70
   4   2  13   91.19   14.30
   4   2  13   46.30   14.40
   4   2  13   61.59   10.30
  -4  -2 -13   56.49   18.00
  -4  -2 -13   42.90   11.50
  -4  -2 -13   52.29   12.40
  -4  -2 -13   35.30    7.40
   3   2  13  113.19   11.50
   3   2  13  111.39   11.60
   3   2  13  118.09   15.40
  -3  -2 -13  101.89    9.10
  -3  -2 -13   92.09   11.80
  -3  -2 -13   82.29   14.80
   2   2  13   -4.30    6.00
   2   2  13    2.10    8.10
   2   2  13    9.20    5.30
   2   2  13    1.30    8.60
  -2  -2 -13   -6.40   10.00
  -2  -2 -13   -7.70    5.80
  -2  -2 -13    2.00    4.30
  -2  -2 -13   16.60    7.30
   1   2  13   -5.80    8.10
   1   2  13    7.40   10.60
  -1  -2 -13   -4.00    6.60
  -1  -2 -13  -13.90   11.30
  -1  -2 -13    2.50    4.70
  -1  -2 -13   -3.60    8.80
  -1  -2 -13   -7.40   12.40
  -1  -2 -13    2.80    4.40
  -1  -2 -13    2.50    4.80
   0   2  13  421.36   23.50
   0  -2 -13  450.35   23.30
   0  -2 -13  383.96   28.90
   0  -2 -13  426.66   25.10
   0  -2 -13  394.16   19.50
   0  -2 -13  433.76   24.80
  -1   2  13  203.58   17.90
   1  -2 -13  199.18   17.50
   1  -2 -13  223.98   22.10
   1  -2 -13  204.58   19.40
   1  -2 -13  198.48   17.20
   1  -2 -13  190.38   13.80
  -2   2  13  114.89   14.20
   2  -2 -13  123.69   14.50
   2  -2 -13  114.39   10.80
   2  -2 -13  111.49   15.20
   2  -2 -13  131.99   15.00
  -3   2  13  274.77   23.50
   3  -2 -13  339.47   26.30
   3  -2 -13  318.57   28.50
   3  -2 -13  322.37   21.30
   3  -2 -13  331.57   24.80
   5   3  12  208.08   18.80
   5   3  12  192.58   16.70
   5   3  12  146.59   17.20
  -5  -3 -12  178.48   12.50
  -5  -3 -12  155.78   22.40
  -5  -3 -12  186.98   18.20
   4   3  12  148.39   15.40
   4   3  12  162.38   15.20
   4   3  12  141.49   14.60
   4   3  12  135.49   16.40
  -4  -3 -12  149.49   15.10
  -4  -3 -12  156.98    8.30
  -4  -3 -12  131.19   19.10
   3   3  12   24.90    8.90
   3   3  12    8.80    8.90
   3   3  12   27.70   11.10
   3   3  12   -4.80    8.10
  -3  -3 -12   -1.80    9.90
  -3  -3 -12   24.00    9.10
  -3  -3 -12   16.40    9.10
   2   3  12   27.00    7.20
   2   3  12   13.20   10.30
   2   3  12   16.80    6.10
   2   3  12   13.50    8.30
  -2  -3 -12   15.70    6.80
  -2  -3 -12   12.20   14.20
  -2  -3 -12   11.20    4.40
  -2  -3 -12   22.60    7.20
   1   3  12  301.37   19.30
   1   3  12  309.87   14.60
   1   3  12  325.47   20.00
  -1  -3 -12  325.87   17.20
  -1  -3 -12  314.57   15.90
  -1  -3 -12  316.07   16.30
  -1  -3 -12  325.37   20.20
  -1  -3 -12  323.37   25.40
   0   3  12    0.50    8.20
   0  -3 -12    7.60   10.60
   0  -3 -12   -1.00    3.90
   0  -3 -12    7.20    4.00
  -1   3  12  378.66   23.60
   1  -3 -12  376.56   18.00
   1  -3 -12  413.26   22.60
   1  -3 -12  374.96   23.50
   1  -3 -12  380.26   22.60
  -2   3  12   51.79    9.50
   2  -3 -12   42.00   10.40
   2  -3 -12   42.20   16.00
   2  -3 -12   52.19   11.60
   2  -3 -12   42.60    7.60
  -3   3  12  246.68   21.70
   3  -3 -12  243.98   17.20
   3  -3 -12  241.68   19.50
   3  -3 -12  193.78   19.70
  -4   3  12   21.20   10.50
   4  -3 -12   33.60   11.80
   4  -3 -12   36.50   11.80
   4  -3 -12   26.20   13.80
   6   4  11   19.30   16.70
   6   4  11   15.00   11.80
   6   4  11   21.80   14.70
  -6  -4 -11   27.80   17.30
  -6  -4 -11   16.90   14.70
   5   4  11  262.67   22.40
   5   4  11  232.88   17.60
   5   4  11  333.07   34.00
   5   4  11  211.98   20.20
  -5  -4 -11  189.08   22.40
  -5  -4 -11  228.48   21.60
  -5  -4 -11  232.48   22.30
   4   4  11  150.98   15.10
   4   4  11  171.48   15.60
   4   4  11  185.68   17.80
   4   4  11  145.99   15.10
  -4  -4 -11  149.79   19.00
  -4  -4 -11  153.68   15.40
  -4  -4 -11  157.08   15.30
   3   4  11  165.28   15.60
   3   4  11  208.88   15.60
   3   4  11  158.98   14.90
   3   4  11  220.68   17.90
  -3  -4 -11  183.78   16.20
  -3  -4 -11  203.18   16.50
   2   4  11  232.88   14.50
   2   4  11  234.28   15.80
   2   4  11  209.58   15.30
   2   4  11  232.68   15.20
  -2  -4 -11  188.78   14.60
  -2  -4 -11  197.18   15.10
   1   4  11  399.26   20.90
   1   4  11  403.06   19.50
   1   4  11  410.16   22.40
   1   4  11  379.76   18.70
  -1  -4 -11  393.76   19.70
  -1  -4 -11  413.26   19.50
  -1  -4 -11  367.46   19.50
   0   4  11  238.28   12.20
   0   4  11  241.08   17.80
   0  -4 -11  264.27   13.60
   0  -4 -11  242.08   13.70
   0  -4 -11  271.77   18.00
  -1   4  11  412.06   25.20
  -1   4  11  459.75   18.20
   1  -4 -11  450.85   20.30
   1  -4 -11  453.45   20.50
   1  -4 -11  450.35   25.10
   1  -4 -11  485.95   27.60
   1  -4 -11  465.45   24.30
   1  -4 -11  430.06   19.10
  -2   4  11  121.89   14.60
   2  -4 -11  128.39   10.80
   2  -4 -11  140.79   14.00
   2  -4 -11  152.78    9.40
   2  -4 -11  141.59   14.80
   2  -4 -11  132.69   13.00
  -3   4  11  181.68   18.60
   3  -4 -11  185.58   11.40
   3  -4 -11  185.78   20.20
   3  -4 -11  193.58   15.70
   3  -4 -11  217.98   18.60
   3  -4 -11  200.48   11.40
  -4   4  11  272.17   23.80
   4  -4 -11  202.18   20.40
   4  -4 -11  282.07   14.50
   4  -4 -11  257.37   19.10
   4  -4 -11  254.17   19.10
   6   5  10   48.90   12.10
   6   5  10   48.80   19.00
  -6  -5 -10   31.30   14.40
  -6  -5 -10   48.30   17.90
  -6  -5 -10   34.70   14.80
   5   5  10   73.39   13.90
   5   5  10   62.89   15.50
   5   5  10   80.89   12.40
  -5  -5 -10   94.99   16.00
  -5  -5 -10   61.59   15.00
   4   5  10   45.50   10.60
   4   5  10   37.20    8.80
   4   5  10   37.60   12.50
   4   5  10   71.29   12.40
  -4  -5 -10   31.30   10.60
  -4  -5 -10   24.80   14.00
   3   5  10   16.00    9.50
   3   5  10   38.40   10.50
   3   5  10   27.80   10.10
   3   5  10   48.00    8.50
  -3  -5 -10   31.80    3.00
  -3  -5 -10   31.50    9.30
  -3  -5 -10   43.10   10.40
   2   5  10  642.84   30.80
   2   5  10  657.53   29.90
   2   5  10  694.53   31.10
   2   5  10  661.03   32.50
  -2  -5 -10  682.13   31.70
  -2  -5 -10  665.73   31.70
   1   5  10   -3.20    8.90
   1   5  10   -2.70    7.00
   1   5  10    1.60    7.40
  -1  -5 -10    0.70    7.00
  -1  -5 -10   -1.90    7.00
   0   5  10  168.48   12.60
   0   5  10  176.18   16.90
   0   5  10  211.48   13.30
   0  -5 -10  149.88   12.70
   0  -5 -10  180.48   13.00
  -1   5  10    1.90    9.80
  -1   5  10   16.90    6.40
   1  -5 -10   28.20   11.80
   1  -5 -10   -2.30    6.20
   1  -5 -10    8.00    6.10
  -2   5  10  227.68   16.80
  -2   5  10  243.08   13.60
   2  -5 -10  234.18   14.90
   2  -5 -10  251.47   21.90
   2  -5 -10  221.08   13.30
   2  -5 -10  218.68   14.00
   2  -5 -10  218.68   13.20
  -3   5  10   43.60   10.70
  -3   5  10   56.69    7.00
  -3   5  10   55.79    7.90
   3  -5 -10   58.89    8.90
   3  -5 -10   53.39    8.00
   3  -5 -10   55.09    9.20
   3  -5 -10   43.40    7.60
   3  -5 -10   53.19   13.20
  -4   5  10   63.39    9.00
  -4   5  10   60.29   12.90
  -4   5  10   67.59    8.10
   4  -5 -10   66.49   10.00
   4  -5 -10   64.79    9.90
   4  -5 -10   42.70   15.70
   4  -5 -10   68.79    9.10
   4  -5 -10   62.99   11.80
   6   6   9   18.00   12.80
   6   6   9   27.00   18.70
  -6  -6  -9   27.20   19.60
  -6  -6  -9   18.90   18.20
   5   6   9    8.80   11.50
   5   6   9   21.20   11.80
   5   6   9   19.10   14.50
  -5  -6  -9   22.70   14.80
  -5  -6  -9   32.90   14.40
   4   6   9  -10.90   12.90
   4   6   9    9.50    9.10
   4   6   9    9.80   11.90
   4   6   9    4.70   10.10
  -4  -6  -9   -1.40    8.70
  -4  -6  -9   38.60   12.40
  -4  -6  -9   13.30    2.80
   3   6   9   33.90   11.00
   3   6   9   45.40   11.20
   3   6   9   31.20    7.70
   3   6   9   30.70    8.30
  -3  -6  -9   32.70   10.90
   2   6   9  355.36   21.50
   2   6   9  350.36   22.90
   2   6   9  342.67   16.70
   2   6   9  351.16   21.00
  -2  -6  -9  385.06   21.80
  -2  -6  -9  344.27   21.30
   1   6   9   47.20    9.80
   1   6   9   44.60   11.00
   1   6   9   38.90    9.60
  -1  -6  -9   59.79   10.00
  -1  -6  -9   54.49    9.90
   0   6   9   16.40    8.60
   0   6   9   24.30    8.10
   0  -6  -9   22.70    8.40
   0  -6  -9   44.60    8.70
  -1   6   9   -0.50    9.30
  -1   6   9    6.60    7.80
  -1   6   9   18.10    8.60
   1  -6  -9    2.60   11.90
   1  -6  -9    1.40    8.00
   1  -6  -9    1.60    7.70
  -2   6   9   33.60    9.30
  -2   6   9   22.40    6.00
  -2   6   9   18.90    9.60
  -2   6   9   16.90   11.80
   2  -6  -9   32.30    8.50
   2  -6  -9   24.60    9.50
   2  -6  -9    9.40    9.60
  -3   6   9  558.04   28.80
  -3   6   9  621.14   28.80
  -3   6   9  546.25   32.40
   3  -6  -9  581.84   28.70
   3  -6  -9  519.35   36.30
   3  -6  -9  454.15   35.30
   3  -6  -9  607.94   34.60
  -4   6   9  274.47   23.90
  -4   6   9  261.77   22.00
  -4   6   9  362.36   23.20
  -4   6   9  317.77   21.60
   4  -6  -9  256.07   21.40
   4  -6  -9  203.88   23.70
   4  -6  -9  294.47   28.20
   4  -6  -9  287.07   22.10
   4  -6  -9  259.67   20.60
   5   7   8  312.47   28.50
   5   7   8  299.57   24.10
  -5  -7  -8  284.27   28.00
  -5  -7  -8  367.36   27.80
   4   7   8  106.69   11.20
   4   7   8  126.19   16.00
   4   7   8  103.09   16.00
   4   7   8  133.19   16.80
  -4  -7  -8  113.89   15.50
  -4  -7  -8  109.29   11.50
  -4  -7  -8  131.09   17.80
   3   7   8  902.11   43.10
   3   7   8  890.51   37.40
   3   7   8  847.82   41.70
   3   7   8  892.01   42.90
  -3  -7  -8  952.90   43.80
  -3  -7  -8  928.81   43.20
   2   7   8  555.84   28.80
   2   7   8  521.25   27.40
   2   7   8  545.05   28.40
  -2  -7  -8  488.95   28.50
  -2  -7  -8  470.75   31.60
   1   7   8  178.98   16.70
   1   7   8  143.79   14.30
  -1  -7  -8  192.68   17.70
  -1  -7  -8  174.98   18.50
   0   7   8  104.19   12.40
   0   7   8   86.19   12.70
   0   7   8  115.99   13.10
   0  -7  -8  129.69   14.00
   0  -7  -8  121.59   15.70
  -1   7   8  267.47   19.50
  -1   7   8  273.57   14.20
  -1   7   8  281.67   21.60
  -1   7   8  325.57   21.20
   1  -7  -8  293.07   21.60
   1  -7  -8  220.38   22.00
  -2   7   8   62.49    9.50
  -2   7   8   71.59   14.20
  -2   7   8   60.69   11.70
  -2   7   8   74.99   12.10
   2  -7  -8   98.09   14.20
   2  -7  -8   30.70   13.20
   2  -7  -8   77.49   12.20
  -3   7   8  416.56   23.20
  -3   7   8  386.26   24.40
  -3   7   8  397.66   26.70
  -3   7   8  367.96   26.70
   3  -7  -8  298.67   35.50
   3  -7  -8  398.16   26.70
   3  -7  -8  362.36   28.00
   3  -7  -8  384.26   26.30
   5   8   7   36.40   18.50
   5   8   7   17.20    6.70
   5   8   7   12.00   10.50
  -5  -8  -7   46.60   23.00
  -5  -8  -7   19.00   10.10
  -5  -8  -7   15.70   14.00
   4   8   7  103.19   18.10
   4   8   7   72.19    7.10
   4   8   7   71.09    9.50
   4   8   7   53.49   12.30
  -4  -8  -7   82.59   17.90
  -4  -8  -7   58.59   11.60
  -4  -8  -7   43.80   17.90
   3   8   7   29.20    3.10
   3   8   7   41.10   14.80
   3   8   7   44.50   11.00
  -3  -8  -7   35.60   15.10
  -3  -8  -7   40.40   15.20
   2   8   7   -0.10   13.50
   2   8   7    3.50    2.10
   2   8   7   -8.90   12.70
   2   8   7  -21.10   11.60
  -2  -8  -7   -7.50   11.70
  -2  -8  -7    8.70   12.70
   1   8   7   94.99   15.80
   1   8   7  126.89    7.80
   1   8   7  137.19   17.20
  -1  -8  -7  105.49   16.20
  -1  -8  -7  117.89   16.10
   0   8   7  256.17   22.20
   0   8   7  240.08   22.90
   0   8   7  270.07   22.00
   0  -8  -7  282.47   22.60
   0  -8  -7  253.17   21.70
   0  -8  -7  227.78   24.60
  -1   8   7    6.60   12.60
  -1   8   7    4.20    8.40
  -1   8   7   17.60   14.00
   1  -8  -7  -15.50   10.80
   1  -8  -7   -8.00   13.40
   1  -8  -7    3.10   12.80
   1  -8  -7  -33.40   17.10
  -2   8   7  446.26   29.00
  -2   8   7  466.85   28.80
  -2   8   7  429.36   24.30
   2  -8  -7  417.46   29.50
   2  -8  -7  414.16   28.30
   2  -8  -7  456.65   30.10
   3   9   6   37.10   18.10
   3   9   6   27.10   14.10
   3   9   6   17.30    6.90
   3   9   6   25.10    7.60
  -3  -9  -6   44.20   20.30
  -3  -9  -6   27.60   13.30
  -3  -9  -6   22.90   17.20
   2   9   6   59.99    8.30
   2   9   6   38.50   11.70
   2   9   6   62.59    7.90
  -2  -9  -6   70.69   17.90
  -2  -9  -6   68.69   18.60
   1   9   6   10.60    7.50
   1   9   6   -4.60    9.20
   1   9   6  -18.70   16.00
  -1  -9  -6    9.90   11.50
  -1  -9  -6   16.80   13.00
   0   9   6    1.00   16.10
   0   9   6    8.50    8.30
   0   9   6   -1.40    9.40
   0  -9  -6   14.70   11.30
   0  -9  -6   32.90   16.60
  -1   9   6    1.10   13.30
  -1   9   6  -14.10   15.50
  -1   9   6    5.40    9.70
   1  -9  -6  -14.60   11.20
   1  -9  -6   29.90   13.40
   1  -9  -6    9.40   17.40
   2   1  15   54.79    5.40
   2   1  15   72.29   11.70
   2   1  15   78.09   18.30
   2   1  15   54.99    5.60
  -2  -1 -15   59.09   10.30
  -2  -1 -15   63.89   19.40
  -2  -1 -15   56.79    9.60
  -2  -1 -15   83.19    9.90
   1   1  15    7.10    9.60
   1   1  15   23.10   16.00
  -1  -1 -15   -3.90   15.70
  -1  -1 -15  -13.10    9.10
  -1  -1 -15   12.40    8.80
  -1  -1 -15   12.70    3.20
  -1  -1 -15    7.90    2.80
   0   1  15  622.14   32.50
   0  -1 -15  667.33   30.80
   0  -1 -15  677.63   40.40
   0  -1 -15  658.13   33.60
   0  -1 -15  564.14   37.90
  -1   1  15  457.55   26.10
   1  -1 -15  435.76   24.40
   1  -1 -15  366.06   31.80
   1  -1 -15  427.06   33.00
   1  -1 -15  382.46   29.70
   4   2  14  168.68   15.80
   4   2  14  186.98   17.10
   4   2  14  147.29   19.20
   4   2  14   97.69   15.70
  -4  -2 -14  149.19   15.90
  -4  -2 -14  147.09   14.20
  -4  -2 -14  141.29   23.50
   3   2  14  106.19   12.30
   3   2  14   95.89   11.90
   3   2  14   73.89   10.90
   3   2  14   90.99   14.20
  -3  -2 -14  106.29   12.80
  -3  -2 -14   92.59   20.20
  -3  -2 -14   81.69    7.50
   2   2  14   -8.60   15.80
   2   2  14   -2.70    5.20
   2   2  14    0.90    5.90
   2   2  14    7.50    9.80
  -2  -2 -14   27.80   14.30
  -2  -2 -14    6.00    7.70
  -2  -2 -14   -3.70    6.40
  -2  -2 -14    7.40   15.10
  -2  -2 -14   -1.00    4.50
  -2  -2 -14    1.90    5.10
   1   2  14  179.28   17.70
   1   2  14  146.99   14.60
  -1  -2 -14  149.29   19.70
  -1  -2 -14  164.58   10.00
  -1  -2 -14  169.28   15.50
  -1  -2 -14  124.79   15.20
  -1  -2 -14  169.98   11.10
  -1  -2 -14  148.89   10.90
  -1  -2 -14  171.78    9.90
   0   2  14  317.17   21.40
   0  -2 -14  293.97   24.50
   0  -2 -14  340.87   17.10
   0  -2 -14  326.77   27.80
   0  -2 -14  317.27   22.30
  -1   2  14   18.20   10.10
   1  -2 -14  -11.00   12.90
   1  -2 -14   -0.20   12.90
   1  -2 -14   16.10    7.60
   1  -2 -14    4.50   11.80
  -2   2  14   -6.30    8.50
   2  -2 -14   -2.50   13.00
   2  -2 -14  -24.20   14.00
   2  -2 -14   34.90   14.70
   2  -2 -14  -10.70    8.40
   4   3  13   58.69   13.10
   4   3  13   53.29   11.20
   4   3  13   45.50   14.60
  -4  -3 -13   72.69   13.40
  -4  -3 -13   53.09   17.80
  -4  -3 -13   43.00   12.40
   3   3  13  413.96   23.40
   3   3  13  455.55   27.30
   3   3  13  405.36   23.00
   3   3  13  377.36   24.00
  -3  -3 -13  370.86   22.70
  -3  -3 -13  412.36   33.10
   2   3  13   10.40    9.50
   2   3  13    0.50    6.40
   2   3  13    2.30    9.90
  -2  -3 -13   -0.30    6.50
  -2  -3 -13    2.90    7.40
  -2  -3 -13    5.60   10.80
   1   3  13  229.78   10.60
   1   3  13  258.37   18.10
   1   3  13  258.07   19.00
  -1  -3 -13  246.28   24.60
  -1  -3 -13  240.28   15.80
  -1  -3 -13  221.78   13.90
  -1  -3 -13  234.48   20.80
  -1  -3 -13  225.78   13.60
   0   3  13  191.08   17.50
   0  -3 -13  180.68   22.40
   0  -3 -13  194.88    8.70
   0  -3 -13  181.58   19.90
   0  -3 -13  206.28   15.90
   0  -3 -13  196.78    8.80
  -1   3  13   51.49    9.30
   1  -3 -13   37.00   11.40
   1  -3 -13   44.00    6.30
   1  -3 -13   60.69   13.00
   1  -3 -13   61.29   11.10
   1  -3 -13   49.00   11.40
  -2   3  13   74.79   15.00
   2  -3 -13  112.69   15.60
   2  -3 -13   66.19   13.20
   2  -3 -13   66.99   13.90
   2  -3 -13   77.29    9.00
  -3   3  13  148.49   18.60
   3  -3 -13  176.78   17.50
   3  -3 -13  204.68   21.00
   3  -3 -13  202.08   23.30
   3  -3 -13  160.78   19.10
   5   4  12   40.70   15.70
   5   4  12   65.49   11.90
  -5  -4 -12   60.29   15.50
  -5  -4 -12   66.99   15.70
  -5  -4 -12   68.89   15.50
   4   4  12  229.28   19.20
   4   4  12  210.08   19.60
   4   4  12  239.98   17.70
   4   4  12  256.97   21.30
  -4  -4 -12  201.48   23.20
  -4  -4 -12  223.88   21.30
   3   4  12   -7.00    9.50
   3   4  12    5.40    8.60
   3   4  12   -2.30    8.80
   3   4  12    6.00    9.70
  -3  -4 -12   -5.80    9.20
  -3  -4 -12  -14.30    8.50
  -3  -4 -12  -13.90   10.30
   2   4  12  190.88   16.30
   2   4  12  164.98   15.50
   2   4  12  207.98   14.30
   2   4  12  152.08   14.50
  -2  -4 -12  182.18   14.60
  -2  -4 -12  158.28   14.70
  -2  -4 -12  176.88   10.80
   1   4  12   -2.80    5.30
   1   4  12   -5.50    5.60
   1   4  12    4.30    8.90
  -1  -4 -12    4.30    7.10
  -1  -4 -12    0.40    5.90
  -1  -4 -12    0.40    6.60
   0   4  12  158.78    8.20
   0   4  12  153.78    8.10
   0   4  12  152.08   15.50
   0  -4 -12  169.08   11.40
   0  -4 -12  176.18   18.10
   0  -4 -12  173.18   14.40
   0  -4 -12  163.78   10.90
  -1   4  12   78.99   12.50
   1  -4 -12   57.49    5.60
   1  -4 -12   53.49   10.10
   1  -4 -12   78.39   12.20
   1  -4 -12   69.79   13.20
   1  -4 -12   71.39    7.00
  -2   4  12  267.07   19.60
   2  -4 -12  343.27   30.30
   2  -4 -12  274.47   11.60
   2  -4 -12  272.87   11.70
   2  -4 -12  243.18   15.30
   2  -4 -12  307.07   22.90
   2  -4 -12  243.58   21.30
  -3   4  12  480.25   30.00
   3  -4 -12  472.95   25.20
   3  -4 -12  462.65   32.10
   3  -4 -12  486.45   26.90
   5   5  11   52.99   15.50
   5   5  11   48.60   16.00
   5   5  11   56.69   12.30
  -5  -5 -11   59.99   18.10
  -5  -5 -11   40.10   15.10
  -5  -5 -11   44.00   15.00
   4   5  11   56.49   14.60
   4   5  11   68.99   12.20
   4   5  11   52.09   13.10
   4   5  11   80.69   12.90
  -4  -5 -11   54.09   12.50
  -4  -5 -11   77.59   13.50
   3   5  11   98.89   12.60
   3   5  11  139.59   12.70
   3   5  11   85.69   11.20
   3   5  11  130.69   13.50
  -3  -5 -11  107.79   13.10
   2   5  11  150.18   13.50
   2   5  11  173.78   14.10
   2   5  11  190.28   15.80
   2   5  11  149.29   15.00
  -2  -5 -11  161.08   15.50
  -2  -5 -11  148.59   10.90
  -2  -5 -11  159.38   14.20
   1   5  11  298.87   20.70
   1   5  11  291.67   19.50
   1   5  11  301.47   17.70
  -1  -5 -11  302.67   18.10
  -1  -5 -11  309.67   17.20
  -1  -5 -11  292.47   17.20
   0   5  11  123.49   14.10
   0   5  11  155.78   11.70
   0  -5 -11  138.99   12.00
   0  -5 -11  118.09   11.50
   0  -5 -11  121.39   15.90
  -1   5  11   62.69   10.40
  -1   5  11   73.99    6.90
  -1   5  11   70.99    7.10
   1  -5 -11   75.19    8.40
   1  -5 -11   53.29   14.60
   1  -5 -11   76.19    8.00
  -2   5  11  280.57   20.70
  -2   5  11  318.17   15.10
  -2   5  11  323.47   15.20
   2  -5 -11  314.97   17.30
   2  -5 -11  322.57   27.70
   2  -5 -11  316.17   16.80
  -3   5  11  258.87   19.60
   3  -5 -11  256.97   17.80
   3  -5 -11  240.98   16.30
   3  -5 -11  246.78   15.20
   5   6  10   25.10   11.60
   5   6  10   10.80   14.00
   5   6  10   13.40   13.00
  -5  -6 -10   19.70   15.50
  -5  -6 -10   17.10   13.80
   4   6  10    9.20   10.30
   4   6  10    0.80   13.50
   4   6  10    1.40   10.00
   4   6  10    0.60   13.20
  -4  -6 -10   -7.70   13.60
  -4  -6 -10   -0.40   12.20
   3   6  10  152.18   15.20
   3   6  10  107.59   12.60
   3   6  10  142.49   15.70
   3   6  10  128.59   12.80
  -3  -6 -10  128.79   14.70
  -3  -6 -10  115.69   14.80
   2   6  10  220.98   17.90
   2   6  10  216.98   18.30
   2   6  10  232.68   13.50
   2   6  10  219.98   19.00
  -2  -6 -10  225.28   21.00
  -2  -6 -10  248.98   18.60
   1   6  10  104.29   11.70
   1   6  10   89.09   13.60
   1   6  10  103.79   11.90
  -1  -6 -10  104.99   12.10
  -1  -6 -10  126.39   12.60
   0   6  10    2.90   10.30
   0   6  10   15.90    8.40
   0   6  10   12.50    8.60
   0  -6 -10    0.40    8.10
   0  -6 -10   -9.00    7.50
  -1   6  10   68.89   13.80
  -1   6  10   83.99   10.30
   1  -6 -10   84.09   10.50
   1  -6 -10   92.69   16.20
   1  -6 -10   61.69    9.70
  -2   6  10  104.49   13.40
  -2   6  10  101.69   11.40
   2  -6 -10  131.39   12.20
   2  -6 -10  104.29   17.90
   2  -6 -10  127.19   12.40
  -3   6  10  151.78   16.80
  -3   6  10  208.18   16.50
  -3   6  10  165.88   15.10
   3  -6 -10  176.48   17.70
   3  -6 -10  213.58   17.00
   3  -6 -10  169.68   21.30
   3  -6 -10  151.08   19.90
   5   7   9  178.08   21.40
   5   7   9  145.29   16.30
  -5  -7  -9  183.28   22.80
  -5  -7  -9  177.98   20.30
   4   7   9  138.29   18.50
   4   7   9  173.68   16.10
   4   7   9  153.38   16.00
  -4  -7  -9  188.18   20.80
  -4  -7  -9  161.08   18.50
  -4  -7  -9  148.89   11.80
   3   7   9  444.76   26.10
   3   7   9  448.56   21.50
   3   7   9  495.35   28.80
   3   7   9  446.86   28.90
  -3  -7  -9  457.65   29.30
  -3  -7  -9  452.55   28.10
   2   7   9    1.30   12.00
   2   7   9   10.30   11.00
   2   7   9    8.10   11.10
  -2  -7  -9   10.00   10.60
  -2  -7  -9   14.50   11.90
   1   7   9  264.37   19.50
   1   7   9  296.77   21.10
   1   7   9  284.77   22.40
  -1  -7  -9  270.37   20.70
  -1  -7  -9  308.67   22.10
   0   7   9  142.19   16.90
   0   7   9  181.78   15.60
   0  -7  -9  148.99   14.90
   0  -7  -9  182.78   16.70
  -1   7   9    4.80   11.00
  -1   7   9    4.60   11.50
  -1   7   9   14.20   10.00
   1  -7  -9    5.80   13.50
   1  -7  -9   10.70    9.80
   1  -7  -9   -5.70   10.80
  -2   7   9   47.80   11.40
  -2   7   9   63.99    9.00
  -2   7   9   44.20   13.50
  -2   7   9   56.39   12.70
   2  -7  -9   43.90   15.20
   2  -7  -9   77.29   15.80
   2  -7  -9   62.49   12.40
   2  -7  -9   33.20   11.70
  -3   7   9   79.79   14.00
  -3   7   9   75.09   11.70
  -3   7   9   85.69   14.50
  -3   7   9   70.09   14.50
   3  -7  -9   66.59   14.60
   3  -7  -9   84.49   13.90
   3  -7  -9   96.39   20.10
   3  -7  -9   49.60   19.90
   4   8   8   55.89   15.50
   4   8   8  122.99   20.00
   4   8   8   81.99    9.40
  -4  -8  -8   86.49   20.80
  -4  -8  -8   82.19   14.60
  -4  -8  -8   84.79   12.00
   3   8   8  106.39   18.10
  -3  -8  -8   88.39   16.60
  -3  -8  -8   95.29   18.70
   2   8   8  268.37   31.80
   2   8   8  236.88   22.30
  -2  -8  -8  252.47   23.70
  -2  -8  -8  244.28   22.60
   1   8   8  -13.50    8.60
   1   8   8  -18.60   12.30
  -1  -8  -8   -4.20   10.70
  -1  -8  -8   -8.50   11.80
   0   8   8   93.19    6.60
   0   8   8  102.89   15.40
   0   8   8   94.69   14.60
   0  -8  -8  107.79   15.40
   0  -8  -8  114.69   16.10
  -1   8   8   -8.20   12.40
  -1   8   8   -6.70   12.90
  -1   8   8    9.10    6.40
   1  -8  -8   16.80   14.20
   1  -8  -8    4.60   13.20
   1  -8  -8  -10.50   12.60
  -2   8   8   69.39   15.80
  -2   8   8   55.39   15.40
  -2   8   8   48.30   10.20
   2  -8  -8   75.09   17.10
   2  -8  -8   59.69   14.80
   2  -8  -8   67.79   16.80
   3   9   7    8.80   13.60
   3   9   7   14.20    3.90
   3   9   7   11.70    9.90
  -3  -9  -7   24.00   16.90
  -3  -9  -7   41.10   20.10
   2   9   7   -8.10   13.00
   2   9   7   -4.30   12.20
   2   9   7    2.30    4.10
  -2  -9  -7   25.10   16.70
  -2  -9  -7   -3.10   19.10
   1   9   7   72.69   15.20
   1   9   7   84.09    7.60
  -1  -9  -7   80.49   18.00
  -1  -9  -7  115.59   16.80
   0   9   7    6.60   12.00
   0   9   7   27.90    7.60
   0   9   7   -5.70   15.10
   0  -9  -7   31.60   16.90
   0  -9  -7   24.60   16.40
   2   2  15   -2.80    4.30
   2   2  15   16.80   16.00
   2   2  15   14.70    6.40
   2   2  15   20.30   10.80
  -2  -2 -15   -2.10    7.90
  -2  -2 -15    1.10    5.30
  -2  -2 -15   13.00   18.60
  -2  -2 -15    6.80    8.50
  -2  -2 -15   12.90    5.10
   1   2  15   23.20   10.90
  -1  -2 -15    6.50    2.40
  -1  -2 -15    9.40    3.10
  -1  -2 -15    6.60    5.40
  -1  -2 -15   16.00   12.90
  -1  -2 -15    3.50    6.10
   0   2  15    0.90   10.70
   0  -2 -15    2.10    6.90
   0  -2 -15  -18.90   12.00
   0  -2 -15   18.10   14.90
   3   3  14   12.20   10.90
   3   3  14    7.00    9.60
   3   3  14    7.90   10.20
  -3  -3 -14    0.60    9.80
  -3  -3 -14    9.40   16.70
  -3  -3 -14    9.50   10.20
   2   3  14  120.49   16.30
   2   3  14  120.19   10.00
   2   3  14   91.19    8.80
   2   3  14   89.19   12.70
  -2  -3 -14  100.19   11.00
  -2  -3 -14   92.99    9.80
  -2  -3 -14   89.19   18.70
   1   3  14  162.28   16.00
  -1  -3 -14  193.78   21.30
  -1  -3 -14  149.29   13.00
  -1  -3 -14  164.98   14.50
   0   3  14  130.59   14.50
   0  -3 -14  111.89   15.10
   0  -3 -14  124.39   14.00
  -1   3  14  235.58   21.70
   1  -3 -14  273.07   21.90
   1  -3 -14  236.68   13.80
   1  -3 -14  225.48   25.60
   1  -3 -14  205.48   18.80
  -2   3  14   47.60   14.10
   2  -3 -14   71.09    9.60
   2  -3 -14   50.69   14.50
   2  -3 -14   58.99   16.80
   2  -3 -14   55.89   16.20
   4   4  13   10.00   10.40
   4   4  13  -10.40   22.40
   4   4  13   25.60   14.70
   4   4  13    2.00   12.50
  -4  -4 -13   12.60   13.40
  -4  -4 -13   -4.90   12.40
  -4  -4 -13    4.00   15.80
   3   4  13  113.89   13.20
   3   4  13  105.89   13.70
   3   4  13  155.08   16.20
   3   4  13  106.09   13.60
  -3  -4 -13   77.19   18.70
  -3  -4 -13   99.99   13.10
  -3  -4 -13  137.69   13.50
   2   4  13    2.40    7.20
   2   4  13   19.20   10.20
   2   4  13  -13.90   10.00
   2   4  13    8.80    8.10
  -2  -4 -13    8.10   11.10
  -2  -4 -13    1.50    5.00
  -2  -4 -13  -11.50    7.90
  -2  -4 -13   11.00    8.30
   1   4  13  145.99    9.80
   1   4  13  144.19   10.20
   1   4  13  158.78   15.90
  -1  -4 -13  152.18   14.00
  -1  -4 -13  148.79   11.60
  -1  -4 -13  155.38   12.40
   0   4  13   13.60   10.40
   0  -4 -13   34.20    9.90
   0  -4 -13   36.30    6.00
  -1   4  13   33.20   12.70
   1  -4 -13   64.39   12.90
  -2   4  13   55.09   13.70
   2  -4 -13   42.70   12.50
   2  -4 -13   58.69   15.80
   2  -4 -13   37.20    7.20
   4   5  12   43.40   11.50
   4   5  12   55.79   14.60
   4   5  12   54.39   13.90
  -4  -5 -12   49.99   14.40
  -4  -5 -12   60.59   13.80
   3   5  12  440.96   26.60
   3   5  12  394.56   24.40
   3   5  12  439.16   25.30
   3   5  12  408.76   24.10
  -3  -5 -12  376.66   25.20
  -3  -5 -12  424.06   25.40
   2   5  12  125.49   14.40
   2   5  12  154.98   15.70
   2   5  12  130.79   13.70
   2   5  12  133.59   12.90
  -2  -5 -12  136.19   11.10
  -2  -5 -12  138.89   13.70
  -2  -5 -12  134.59   13.30
   1   5  12  503.15   25.30
   1   5  12  530.05   24.90
   1   5  12  502.55   28.60
  -1  -5 -12  531.35   25.90
  -1  -5 -12  531.25   25.90
  -1  -5 -12  561.14   25.90
   0   5  12   32.80    6.50
   0   5  12   40.80    6.20
   0   5  12   24.80    9.40
   0  -5 -12   36.20   10.80
   0  -5 -12   30.20   11.70
   0  -5 -12   46.50    8.00
   0  -5 -12   44.50    7.40
  -1   5  12    9.40    4.20
  -1   5  12   -5.50   12.20
   1  -5 -12   -9.10    6.30
   1  -5 -12    5.90    6.60
   1  -5 -12   10.60   12.00
  -2   5  12  385.76   27.30
   2  -5 -12  381.66   24.20
   2  -5 -12  417.26   29.30
   2  -5 -12  419.16   19.80
  -3   5  12  184.28   17.40
   3  -5 -12  192.48   12.90
   3  -5 -12  179.48   12.80
   3  -5 -12  172.58   16.10
   3  -5 -12  160.68   16.90
   4   6  11  126.89   14.20
   4   6  11  111.79   16.90
   4   6  11  116.79   15.40
  -4  -6 -11  139.39   17.80
  -4  -6 -11  132.89   16.50
   3   6  11   25.70   11.70
   3   6  11   14.70   13.80
   3   6  11    5.60   11.20
   3   6  11   16.00    9.00
  -3  -6 -11    8.30   11.30
  -3  -6 -11   17.40    4.50
  -3  -6 -11    6.00   10.90
   2   6  11  219.08   19.70
   2   6  11  213.28   19.10
   2   6  11  171.58   18.40
  -2  -6 -11  173.88   17.40
  -2  -6 -11  179.18   17.70
   1   6  11   90.19   11.90
   1   6  11   94.09   14.80
   1   6  11   73.29   10.80
  -1  -6 -11   80.49   11.70
  -1  -6 -11   88.69   13.20
   0   6  11   45.10   10.20
   0   6  11   35.60   12.90
   0   6  11   45.20   10.00
   0  -6 -11   20.70   15.30
   0  -6 -11   39.50    9.70
   0  -6 -11   56.09   10.00
  -1   6  11   28.40    8.80
  -1   6  11   21.10   10.60
  -1   6  11   12.20    7.70
   1  -6 -11   31.90    9.10
   1  -6 -11   20.10    9.00
   1  -6 -11   13.80   15.40
  -2   6  11   46.80    9.10
  -2   6  11   30.50   10.80
   2  -6 -11   45.60    9.60
   2  -6 -11   68.59   12.10
   4   7  10  -17.60   14.60
   4   7  10    0.60   10.10
  -4  -7 -10   13.60   15.30
  -4  -7 -10  -26.40   13.90
   3   7  10   -3.00    6.60
   3   7  10   -4.10    9.20
   3   7  10   -8.60   12.90
  -3  -7 -10   10.70   12.60
  -3  -7 -10  -10.80   13.00
   2   7  10   54.69   14.90
   2   7  10   31.50   12.60
   2   7  10   22.20   13.00
  -2  -7 -10   57.09   13.80
  -2  -7 -10   26.20   11.70
   1   7  10  145.49   14.90
   1   7  10  110.09   15.20
   1   7  10  112.59   15.60
  -1  -7 -10  161.08   27.80
  -1  -7 -10  134.49   14.30
   0   7  10    6.30   11.30
   0   7  10    8.60   11.30
   0  -7 -10   12.30   10.30
   0  -7 -10   10.50   11.10
  -1   7  10  135.49   15.60
  -1   7  10  126.69   15.30
   1  -7 -10  167.38   19.80
   1  -7 -10  152.38   15.60
   1  -7 -10  170.28   15.30
  -2   7  10  598.94   31.90
  -2   7  10  572.14   29.50
  -2   7  10  551.04   31.00
   2  -7 -10  566.74   30.70
   2  -7 -10  561.04   29.80
   3   8   9   31.50   15.40
   3   8   9   27.90   14.90
  -3  -8  -9   23.50   17.60
  -3  -8  -9   34.00   15.30
   2   8   9   56.19   12.40
   2   8   9   56.09   14.60
  -2  -8  -9  104.09   15.40
  -2  -8  -9   93.89   16.70
   1   8   9  237.38   21.60
   1   8   9  228.58   22.30
  -1  -8  -9  228.68   21.10
  -1  -8  -9  222.58   21.60
   0   8   9   -7.60   13.00
   0  -8  -9    3.10   15.90
   0  -8  -9   10.70   13.10
  -1   8   9  131.59   16.00
  -1   8   9  148.59    9.80
  -1   8   9  109.89   17.80
   1  -8  -9  182.98   20.70
   1  -8  -9  187.28   19.20
   1  -8  -9  149.88   17.60
   3   4  14  109.29   13.70
   3   4  14  108.49   17.00
   3   4  14   94.89   14.40
  -3  -4 -14  101.09   17.80
  -3  -4 -14  126.09   14.20
  -3  -4 -14  128.39   14.70
   2   4  14  179.28   17.70
   2   4  14  103.29   15.50
   2   4  14  138.29   14.60
  -2  -4 -14  139.89   13.90
  -2  -4 -14  125.19   20.60
  -2  -4 -14  119.99   10.40
  -2  -4 -14  148.39   21.60
   1   4  14   86.49   13.10
  -1  -4 -14   78.19   11.00
  -1  -4 -14  101.99    9.30
  -1  -4 -14   80.49   10.20
  -1  -4 -14   64.19   17.50
   0   4  14    9.10    9.20
   0  -4 -14    0.80    3.40
   0  -4 -14   10.80   11.80
   0  -4 -14   -2.00   14.90
   0  -4 -14   10.10    4.00
  -1   4  14   -4.80   12.10
   1  -4 -14   20.90   14.40
   3   5  13    0.50   12.10
   3   5  13    4.50   13.20
   3   5  13    7.70   11.50
   3   5  13   -1.90   11.10
  -3  -5 -13    5.00   11.90
  -3  -5 -13  -10.70   10.80
   2   5  13  221.48   19.60
   2   5  13  269.77   19.90
   2   5  13  258.47   19.90
   2   5  13  253.37   20.40
  -2  -5 -13  221.98   18.80
  -2  -5 -13  230.68   14.30
  -2  -5 -13  285.77   19.20
   1   5  13   25.90   12.00
   1   5  13   14.30    6.60
   1   5  13   18.90    7.90
  -1  -5 -13   13.20    8.60
  -1  -5 -13    6.10    7.60
   0   5  13   25.50   12.70
   0   5  13   40.80    5.30
   0   5  13   37.70    4.80
   0  -5 -13   40.60    8.10
   0  -5 -13   28.60    8.20
   0  -5 -13   50.19   12.40
  -1   5  13  104.79   14.40
   1  -5 -13   96.19   13.30
   1  -5 -13  169.18   17.20
   1  -5 -13  140.49   10.90
   3   6  12   60.49   14.00
   3   6  12   69.29   14.70
   3   6  12   56.79   11.50
  -3  -6 -12   74.99   13.50
  -3  -6 -12   59.39   14.90
   2   6  12  308.57   23.90
   2   6  12  291.77   22.80
   2   6  12  270.27   21.20
  -2  -6 -12  282.97   23.60
  -2  -6 -12  287.57   21.60
  -2  -6 -12  295.87   22.30
   1   6  12  112.29   13.00
   1   6  12  105.29   16.00
  -1  -6 -12  132.09   12.90
  -1  -6 -12  152.88   14.20
  -1  -6 -12  122.29   13.10
   0   6  12   59.09   10.50
   0  -6 -12   89.89   11.00
  -1   6  12   24.10    7.40
  -1   6  12   60.09   11.80
  -1   6  12   27.60   14.30
   1  -6 -12   29.90    8.40
   1  -6 -12   61.99   11.70
   3   7  11   22.40   10.90
   3   7  11   20.20    7.50
   3   7  11   -0.10   14.40
  -3  -7 -11   35.60   16.70
  -3  -7 -11   17.10   14.20
   2   7  11   16.20   12.20
   2   7  11   23.10   14.50
  -2  -7 -11   38.80   12.80
  -2  -7 -11   16.00   13.40
   1   7  11  221.88   20.70
   1   7  11  195.58   18.80
   1   7  11  198.98   18.20
  -1  -7 -11  224.48   19.20
  -1  -7 -11  208.38   19.60
   0   7  11    2.00   13.40
   0   7  11   -0.80   12.80
   0   7  11   41.10   10.90
   0  -7 -11   41.70   12.70
   0  -7 -11   20.10   11.70
  -1   7  11  100.59   16.70
  -1   7  11  101.89   15.60
  -1   7  11  110.99   15.30
   1  -7 -11  137.99   14.80
   1  -7 -11  121.29   14.20
   2   8  10  136.29   17.90
   2   8  10   87.59   16.30
  -2  -8 -10  147.89   18.40
  -2  -8 -10  126.69   19.40
   1   8  10   53.39   14.60
   1   8  10   46.10   11.80
  -1  -8 -10   26.70   16.10
  -1  -8 -10   46.40   14.10
   0   8  10   -1.40   13.80
   0   8  10    4.20    9.60
   0  -8 -10   -5.00   12.80
   0  -8 -10   25.50   14.60
   1   6  13   14.90   10.90
   1   6  13    6.10    9.10
   1   6  13   18.30   11.40
  -1  -6 -13   32.60   11.10
  -1  -6 -13   19.20   11.30
  -1  -6 -13    6.00   10.90
   0   0   0    0.00    0.00

_computing_structure_solution     'SHELXT 2014/5 (Sheldrick, 2014)'
;
_shelx_hkl_checksum              95930
loop_
_space_group_symop_operation_xyz
'x, y, z'
'-x, -y, -z'
loop_
_atom_site_label
_atom_site_type_symbol
_atom_site_fract_x
_atom_site_fract_y
_atom_site_fract_z
_atom_site_U_iso_or_equiv
_atom_site_adp_type
_atom_site_occupancy
_atom_site_site_symmetry_order
_atom_site_calc_flag
_atom_site_refinement_flags_posn
_atom_site_refinement_flags_adp
_atom_site_refinement_flags_occupancy
_atom_site_disorder_assembly
_atom_site_disorder_group
Co1 Co 1.000000 0.500000 0.500000 0.02045(12) Uani 1 2 d S . P . .
O1 O 0.8649(2) 0.26572(19) 1.03826(11) 0.0458(4) Uani 1 1 d . . . . .
N1 N 0.7595(3) 0.5133(2) 0.94542(13) 0.0406(4) Uani 1 1 d . . . . .
H1A H 0.711187 0.556585 1.004369 0.049 Uiso 1 1 calc R U . . .
H1B H 0.750414 0.572305 0.882921 0.049 Uiso 1 1 calc R U . . .
C1 C 0.8475(3) 0.3564(2) 0.95087(15) 0.0303(4) Uani 1 1 d . . . . .
O2 O 0.76126(18) 0.64758(18) 0.55466(10) 0.0299(3) Uani 1 1 d D . . . .
H2A H 0.725(3) 0.682(3) 0.6150(11) 0.036 Uiso 1 1 d D U . . .
H2B H 0.672(2) 0.651(3) 0.5156(16) 0.036 Uiso 1 1 d D U . . .
N2 N 1.0044(2) 0.33281(18) 0.65117(11) 0.0236(3) Uani 1 1 d . . . . .
C2 C 0.9265(2) 0.2877(2) 0.84500(14) 0.0242(4) Uani 1 1 d . . . . .
N3 N 0.5310(2) 0.74526(19) 0.23898(12) 0.0255(3) Uani 1 1 d D . . . .
H3A H 0.575(3) 0.6418(14) 0.2369(17) 0.031 Uiso 1 1 d D U . . .
O3 O 0.83068(19) 0.33995(17) 0.43440(10) 0.0292(3) Uani 1 1 d D . . . .
H3C H 0.739(2) 0.325(3) 0.4753(16) 0.035 Uiso 1 1 d D U . . .
H3D H 0.793(3) 0.367(3) 0.3729(10) 0.035 Uiso 1 1 d D U . . .
C3 C 0.9823(3) 0.1148(2) 0.84134(15) 0.0302(4) Uani 1 1 d . . . . .
H3 H 0.975636 0.041517 0.904831 0.036 Uiso 1 1 calc R U . . .
O4 O 0.47292(18) 0.68343(17) 0.42038(10) 0.0318(3) Uani 1 1 d . . . . .
N4 N 0.4634(2) 1.01442(19) 0.15455(11) 0.0262(3) Uani 1 1 d D . . . .
H4A H 0.462(3) 1.080(2) 0.0968(12) 0.031 Uiso 1 1 d D U . . .
C4 C 1.0476(3) 0.0533(2) 0.74257(16) 0.0327(4) Uani 1 1 d . . . . .
H4 H 1.086606 -0.062113 0.738591 0.039 Uiso 1 1 calc R U . . .
O5 O 0.3502(2) 1.24047(16) 0.24866(10) 0.0323(3) Uani 1 1 d . . . . .
C5 C 1.0546(3) 0.1646(2) 0.64958(15) 0.0282(4) Uani 1 1 d . . . . .
H5 H 1.095882 0.121448 0.582859 0.034 Uiso 1 1 calc R U . . .
O6 O 0.5807(2) 0.79424(17) 0.05460(10) 0.0402(4) Uani 1 1 d . . . . .
C6 C 0.9428(2) 0.3910(2) 0.74806(14) 0.0244(4) Uani 1 1 d . . . . .
H6 H 0.909088 0.507370 0.750495 0.029 Uiso 1 1 calc R U . . .
C7 C 0.5282(3) 0.8486(2) 0.14415(14) 0.0260(4) Uani 1 1 d . . . . .
O7 O 0.6857(2) 0.39105(18) 1.22334(11) 0.0343(3) Uani 1 1 d D . . . .
H7A H 0.586(2) 0.350(3) 1.225(2) 0.041 Uiso 1 1 d D U . . .
H7B H 0.740(3) 0.347(3) 1.1704(14) 0.041 Uiso 1 1 d D U . . .
C8 C 0.4683(2) 0.7972(2) 0.34199(13) 0.0232(4) Uani 1 1 d . . . . .
C9 C 0.4070(3) 0.9696(2) 0.34737(13) 0.0275(4) Uani 1 1 d . . . . .
H9 H 0.368148 1.010459 0.415090 0.033 Uiso 1 1 calc R U . . .
C10 C 0.4031(2) 1.0813(2) 0.25335(13) 0.0240(4) Uani 1 1 d . . . . .
loop_
_atom_site_aniso_label
_atom_site_aniso_U_11
_atom_site_aniso_U_22
_atom_site_aniso_U_33
_atom_site_aniso_U_23
_atom_site_aniso_U_13
_atom_site_aniso_U_12
Co1 0.02388(19) 0.02198(19) 0.01326(17) -0.00038(12) 0.00251(11) 0.00252(12)
O1 0.0708(11) 0.0398(9) 0.0188(7) 0.0064(6) 0.0063(6) 0.0109(7)
N1 0.0647(12) 0.0310(9) 0.0201(8) -0.0019(7) 0.0055(7) 0.0107(8)
C1 0.0390(11) 0.0302(10) 0.0196(9) 0.0011(7) 0.0003(7) -0.0003(8)
O2 0.0276(7) 0.0402(8) 0.0196(6) -0.0081(5) 0.0003(5) 0.0071(6)
N2 0.0273(8) 0.0225(7) 0.0189(7) 0.0007(6) 0.0011(5) 0.0009(6)
C2 0.0264(9) 0.0245(9) 0.0197(8) 0.0020(7) -0.0017(6) 0.0008(7)
N3 0.0361(8) 0.0183(8) 0.0200(7) 0.0014(6) 0.0002(6) 0.0008(6)
O3 0.0316(7) 0.0359(8) 0.0201(6) -0.0011(5) 0.0006(5) -0.0052(6)
C3 0.0403(10) 0.0249(9) 0.0223(9) 0.0064(7) -0.0019(7) 0.0012(8)
O4 0.0353(7) 0.0350(8) 0.0218(6) 0.0117(5) -0.0010(5) -0.0029(6)
N4 0.0431(9) 0.0190(8) 0.0140(7) 0.0012(5) 0.0022(6) 0.0017(6)
C4 0.0439(11) 0.0197(9) 0.0320(10) -0.0004(7) -0.0010(8) 0.0036(8)
O5 0.0499(8) 0.0217(7) 0.0220(6) -0.0037(5) 0.0028(5) 0.0063(6)
C5 0.0325(10) 0.0286(9) 0.0220(9) -0.0044(7) 0.0018(7) 0.0017(7)
O6 0.0742(11) 0.0245(7) 0.0172(6) -0.0037(5) 0.0042(6) 0.0078(7)
C6 0.0298(9) 0.0224(9) 0.0189(8) -0.0001(7) 0.0013(6) 0.0018(7)
C7 0.0355(10) 0.0218(9) 0.0193(8) -0.0005(7) -0.0004(7) -0.0007(7)
O7 0.0475(9) 0.0302(8) 0.0251(7) -0.0044(5) 0.0015(6) -0.0053(6)
C8 0.0219(8) 0.0297(9) 0.0174(8) 0.0027(7) -0.0019(6) -0.0041(7)
C9 0.0341(10) 0.0312(10) 0.0151(8) -0.0025(7) 0.0026(7) 0.0010(8)
C10 0.0277(9) 0.0251(9) 0.0184(8) -0.0038(7) 0.0016(6) -0.0007(7)
loop_
_atom_type_symbol
_atom_type_description
_atom_type_scat_dispersion_real
_atom_type_scat_dispersion_imag
_atom_type_scat_source
C C 0.0033 0.0016 'International Tables Vol C Tables 4.2.6.8 and 6.1.1.4'
H H 0.0000 0.0000 'International Tables Vol C Tables 4.2.6.8 and 6.1.1.4'
Co Co 0.3494 0.9721 'International Tables Vol C Tables 4.2.6.8 and 6.1.1.4'
N N 0.0061 0.0033 'International Tables Vol C Tables 4.2.6.8 and 6.1.1.4'
O O 0.0106 0.0060 'International Tables Vol C Tables 4.2.6.8 and 6.1.1.4'
loop_
_geom_angle_atom_site_label_1
_geom_angle_atom_site_label_2
_geom_angle_atom_site_label_3
_geom_angle
_geom_angle_site_symmetry_1
_geom_angle_site_symmetry_3
_geom_angle_publ_flag
O2 Co1 O2 180.0 2_766 . ?
O2 Co1 O3 89.77(5) 2_766 . ?
O2 Co1 O3 90.23(5) . . ?
O2 Co1 O3 90.23(5) 2_766 2_766 ?
O2 Co1 O3 89.77(5) . 2_766 ?
O3 Co1 O3 180.00(6) . 2_766 ?
O2 Co1 N2 88.06(5) 2_766 . ?
O2 Co1 N2 91.94(5) . . ?
O3 Co1 N2 88.21(5) . . ?
O3 Co1 N2 91.79(5) 2_766 . ?
O2 Co1 N2 91.94(5) 2_766 2_766 ?
O2 Co1 N2 88.06(5) . 2_766 ?
O3 Co1 N2 91.79(5) . 2_766 ?
O3 Co1 N2 88.21(5) 2_766 2_766 ?
N2 Co1 N2 180.0 . 2_766 ?
C1 N1 H1A 120.0 . . ?
C1 N1 H1B 120.0 . . ?
H1A N1 H1B 120.0 . . ?
O1 C1 N1 122.87(17) . . ?
O1 C1 C2 119.75(17) . . ?
N1 C1 C2 117.38(16) . . ?
Co1 O2 H2A 133.2(16) . . ?
Co1 O2 H2B 113.4(16) . . ?
H2A O2 H2B 111(2) . . ?
C6 N2 C5 117.25(15) . . ?
C6 N2 Co1 121.44(11) . . ?
C5 N2 Co1 121.10(11) . . ?
C6 C2 C3 117.78(16) . . ?
C6 C2 C1 122.26(16) . . ?
C3 C2 C1 119.94(16) . . ?
C7 N3 C8 124.76(15) . . ?
C7 N3 H3A 119.1(14) . . ?
C8 N3 H3A 116.2(14) . . ?
Co1 O3 H3C 111.3(16) . . ?
Co1 O3 H3D 117.8(16) . . ?
H3C O3 H3D 108(2) . . ?
C4 C3 C2 119.15(16) . . ?
C4 C3 H3 120.4 . . ?
C2 C3 H3 120.4 . . ?
C7 N4 C10 124.52(14) . . ?
C7 N4 H4A 116.8(15) . . ?
C10 N4 H4A 118.7(15) . . ?
C3 C4 C5 119.20(17) . . ?
C3 C4 H4 120.4 . . ?
C5 C4 H4 120.4 . . ?
N2 C5 C4 122.85(16) . . ?
N2 C5 H5 118.6 . . ?
C4 C5 H5 118.6 . . ?
N2 C6 C2 123.73(16) . . ?
N2 C6 H6 118.1 . . ?
C2 C6 H6 118.1 . . ?
O6 C7 N4 122.47(16) . . ?
O6 C7 N3 121.83(16) . . ?
N4 C7 N3 115.70(15) . . ?
H7A O7 H7B 99(2) . . ?
O4 C8 N3 116.48(16) . . ?
O4 C8 C9 126.89(16) . . ?
N3 C8 C9 116.64(14) . . ?
C10 C9 C8 121.01(15) . . ?
C10 C9 H9 119.5 . . ?
C8 C9 H9 119.5 . . ?
O5 C10 N4 116.37(15) . . ?
O5 C10 C9 126.33(15) . . ?
N4 C10 C9 117.30(15) . . ?
loop_
_geom_bond_atom_site_label_1
_geom_bond_atom_site_label_2
_geom_bond_distance
_geom_bond_site_symmetry_2
_geom_bond_publ_flag
Co1 O2 2.0456(12) 2_766 ?
Co1 O2 2.0456(12) . ?
Co1 O3 2.1152(13) . ?
Co1 O3 2.1152(13) 2_766 ?
Co1 N2 2.1746(14) . ?
Co1 N2 2.1746(14) 2_766 ?
O1 C1 1.236(2) . ?
N1 C1 1.320(2) . ?
N1 H1A 0.8600 . ?
N1 H1B 0.8600 . ?
C1 C2 1.499(2) . ?
O2 H2A 0.825(10) . ?
O2 H2B 0.817(10) . ?
N2 C6 1.339(2) . ?
N2 C5 1.343(2) . ?
C2 C6 1.387(2) . ?
C2 C3 1.388(3) . ?
N3 C7 1.358(2) . ?
N3 C8 1.390(2) . ?
N3 H3A 0.844(9) . ?
O3 H3C 0.815(10) . ?
O3 H3D 0.813(10) . ?
C3 C4 1.376(3) . ?
C3 H3 0.9300 . ?
O4 C8 1.255(2) . ?
N4 C7 1.356(2) . ?
N4 C10 1.386(2) . ?
N4 H4A 0.837(9) . ?
C4 C5 1.378(3) . ?
C4 H4 0.9300 . ?
O5 C10 1.272(2) . ?
C5 H5 0.9300 . ?
O6 C7 1.232(2) . ?
C6 H6 0.9300 . ?
O7 H7A 0.819(10) . ?
O7 H7B 0.815(10) . ?
C8 C9 1.393(3) . ?
C9 C10 1.386(2) . ?
C9 H9 0.9300 . ?
