#------------------------------------------------------------------------------
#$Date: 2020-03-26 00:30:56 +0200 (Thu, 26 Mar 2020) $
#$Revision: 249706 $
#$URL: file:///home/coder/svn-repositories/cod/cif/4/51/75/4517515.cif $
#------------------------------------------------------------------------------
#
# This file is available in the Crystallography Open Database (COD),
# http://www.crystallography.net/
#
# All data on this site have been placed in the public domain by the
# contributors.
#
data_4517515
loop_
_publ_author_name
'Pandey, Anand Kumar'
'Chand, Shiv'
'Singh, Rahul'
'Kumar, Saurabh'
'Singh, Krishna Nand'
_publ_section_title
;
 Iodine-Catalyzed Synthesis of 3-Arylthioindoles Employing a
 1-Aryltriazene/CS2 Combination as a New Sulfenylation Source
;
_journal_name_full               'ACS Omega'
_journal_paper_doi               10.1021/acsomega.0c00472
_journal_year                    2020
_chemical_absolute_configuration unk
_chemical_formula_moiety         'C15 H13 N S'
_chemical_formula_sum            'C15 H13 N S'
_chemical_formula_weight         239.32
_space_group_crystal_system      monoclinic
_space_group_IT_number           4
_space_group_name_Hall           'P 2yb'
_space_group_name_H-M_alt        'P 1 21 1'
_symmetry_cell_setting           monoclinic
_symmetry_Int_Tables_number      4
_symmetry_space_group_name_H-M   'P 1 21 1'
_atom_sites_solution_hydrogens   geom
_audit_creation_method           SHELXL-2018/3
_cell_angle_alpha                90
_cell_angle_beta                 110.056(2)
_cell_angle_gamma                90
_cell_formula_units_Z            2
_cell_length_a                   8.7317(6)
_cell_length_b                   6.1983(4)
_cell_length_c                   11.9174(7)
_cell_measurement_reflns_used    3969
_cell_measurement_temperature    273(2)
_cell_measurement_theta_max      28.23
_cell_measurement_theta_min      2.48
_cell_volume                     605.88(7)
_computing_cell_refinement       'Bruker SAINT'
_computing_data_collection       'Bruker APEX2'
_computing_data_reduction        'Bruker SAINT'
_computing_molecular_graphics    'Bruker SHELXTL'
_computing_publication_material  'Bruker SHELXTL'
_computing_structure_refinement  'SHELXL-2018/3 (Sheldrick, 2018)'
_computing_structure_solution    'SHELXT 2014/5 (Sheldrick, 2014)'
_diffrn_ambient_temperature      273(2)
_diffrn_measured_fraction_theta_full 0.996
_diffrn_measured_fraction_theta_max 0.993
_diffrn_measurement_device_type  'Bruker APEX-II CCD'
_diffrn_measurement_method       '\f and \w scans'
_diffrn_radiation_probe          x-ray
_diffrn_radiation_type           MoK\a
_diffrn_radiation_wavelength     0.71073
_diffrn_reflns_av_R_equivalents  0.0641
_diffrn_reflns_av_unetI/netI     0.0644
_diffrn_reflns_Laue_measured_fraction_full 0.996
_diffrn_reflns_Laue_measured_fraction_max 0.993
_diffrn_reflns_limit_h_max       11
_diffrn_reflns_limit_h_min       -11
_diffrn_reflns_limit_k_max       8
_diffrn_reflns_limit_k_min       -8
_diffrn_reflns_limit_l_max       15
_diffrn_reflns_limit_l_min       -15
_diffrn_reflns_number            9512
_diffrn_reflns_point_group_measured_fraction_full 0.998
_diffrn_reflns_point_group_measured_fraction_max 0.991
_diffrn_reflns_theta_full        25.242
_diffrn_reflns_theta_max         28.294
_diffrn_reflns_theta_min         3.547
_exptl_absorpt_coefficient_mu    0.242
_exptl_absorpt_correction_type   none
_exptl_crystal_colour            WHITE
_exptl_crystal_density_diffrn    1.312
_exptl_crystal_description       NEEDLE
_exptl_crystal_F_000             252
_exptl_crystal_size_max          0.34
_exptl_crystal_size_mid          0.31
_exptl_crystal_size_min          0.28
_refine_diff_density_max         0.505
_refine_diff_density_min         -0.254
_refine_diff_density_rms         0.062
_refine_ls_abs_structure_details
;
 Flack x determined using 1061 quotients [(I+)-(I-)]/[(I+)+(I-)]
 (Parsons, Flack and Wagner, Acta Cryst. B69 (2013) 249-259).
;
_refine_ls_abs_structure_Flack   0.02(6)
_refine_ls_extinction_method     none
_refine_ls_goodness_of_fit_ref   1.060
_refine_ls_hydrogen_treatment    constr
_refine_ls_matrix_type           full
_refine_ls_number_parameters     154
_refine_ls_number_reflns         2982
_refine_ls_number_restraints     1
_refine_ls_restrained_S_all      1.060
_refine_ls_R_factor_all          0.0592
_refine_ls_R_factor_gt           0.0491
_refine_ls_shift/su_max          0.000
_refine_ls_shift/su_mean         0.000
_refine_ls_structure_factor_coef Fsqd
_refine_ls_weighting_details
'w=1/[\s^2^(Fo^2^)+(0.0464P)^2^+0.3761P] where P=(Fo^2^+2Fc^2^)/3'
_refine_ls_weighting_scheme      calc
_refine_ls_wR_factor_gt          0.1131
_refine_ls_wR_factor_ref         0.1217
_reflns_Friedel_coverage         0.829
_reflns_Friedel_fraction_full    1.000
_reflns_Friedel_fraction_max     0.988
_reflns_number_gt                2659
_reflns_number_total             2982
_reflns_threshold_expression     'I > 2\s(I)'
_cod_data_source_file            ao0c00472_si_002.cif
_cod_data_source_block           shelx
_cod_original_sg_symbol_H-M      'P 21'
_cod_database_code               4517515
_shelx_shelxl_version_number     2018/3
_shelx_space_group_comment
;
The symmetry employed for this shelxl refinement is uniquely defined
by the following loop, which should always be used as a source of
symmetry information in preference to the above space-group names.
They are only intended as comments.
;
_shelx_res_file
;
TITL 15novf_a.res in P2(1)
    shelx.res
    created by SHELXL-2018/3 at 15:22:17 on 06-Aug-2019
CELL  0.71073   8.7317   6.1983  11.9174   90.000  110.056   90.000
ZERR     1.00   0.0006   0.0004   0.0007    0.000    0.002    0.000
LATT  -1
SYMM  - X, 1/2 + Y, - Z
SFAC  C    H    N    O    CL   S
UNIT  30 26 2 0 0 2
MERG   2
OMIT    -1   0   1
FMAP   2
PLAN   20
ACTA
BOND   $H
LIST   6
L.S.  10
TEMP     0.00
WGHT    0.046400    0.376100
FVAR       1.53037
S1    6    0.421069    0.609811    0.103661    11.00000    0.01938    0.02348 =
         0.02302   -0.00267    0.00731   -0.00396
N1    3    0.171858    0.076772    0.079929    11.00000    0.02511    0.01603 =
         0.02161   -0.00348    0.00642   -0.00068
AFIX  43
H1    2    0.150254   -0.055268    0.058059    11.00000   -1.20000
AFIX   0
C8    1    0.297241    0.396457    0.114670    11.00000    0.01641    0.01750 =
         0.01673   -0.00119    0.00440   -0.00209
C1    1    0.158448    0.405501    0.154063    11.00000    0.01698    0.01704 =
         0.01290    0.00130    0.00312    0.00078
C2    1    0.093368    0.568036    0.205468    11.00000    0.02285    0.01538 =
         0.02167    0.00065    0.00791    0.00189
AFIX  43
H2    2    0.144047    0.701889    0.223358    11.00000   -1.20000
AFIX   0
C7    1    0.299329    0.191740    0.070373    11.00000    0.02218    0.02104 =
         0.02035   -0.00068    0.00784    0.00320
AFIX  43
H7    2    0.376038    0.140173    0.038823    11.00000   -1.20000
AFIX   0
C9    1    0.546098    0.669628    0.252233    11.00000    0.01409    0.02894 =
         0.02753   -0.00802    0.00506    0.00191
C6    1    0.082209    0.203499    0.129972    11.00000    0.01894    0.01662 =
         0.01548    0.00275    0.00239    0.00313
C10   1    0.627861    0.867463    0.269122    11.00000    0.02531    0.02731 =
         0.02987   -0.00232    0.00936   -0.00212
AFIX  43
H10   2    0.611836    0.961087    0.205120    11.00000   -1.20000
AFIX   0
C5    1   -0.060303    0.158521    0.153955    11.00000    0.02107    0.02222 =
         0.02297    0.00307    0.00559   -0.00323
AFIX  43
H5    2   -0.110347    0.024088    0.137531    11.00000   -1.20000
AFIX   0
C4    1   -0.123313    0.322458    0.203054    11.00000    0.02120    0.02942 =
         0.02480    0.00684    0.00846    0.00135
AFIX  43
H4    2   -0.218620    0.297731    0.219376    11.00000   -1.20000
AFIX   0
C3    1   -0.048404    0.525507    0.229241    11.00000    0.02327    0.02606 =
         0.02315    0.00269    0.00990    0.00656
AFIX  43
H3    2   -0.094108    0.632166    0.262734    11.00000   -1.20000
AFIX   0
C15   1    0.566770    0.530709    0.346638    11.00000    0.02520    0.02918 =
         0.02670   -0.00665    0.00549    0.00101
AFIX  43
H15   2    0.511237    0.399955    0.334722    11.00000   -1.20000
AFIX   0
C12   1    0.754661    0.786516    0.474867    11.00000    0.03047    0.03148 =
         0.03191   -0.01150    0.00137   -0.00400
AFIX  43
H12   2    0.826139    0.825611    0.549890    11.00000   -1.20000
AFIX   0
C13   1    0.672885    0.588572    0.461487    11.00000    0.03382    0.03868 =
         0.02523   -0.00188    0.00689    0.00220
C11   1    0.732607    0.922909    0.381521    11.00000    0.03599    0.02769 =
         0.03737   -0.00617    0.01008   -0.00579
AFIX  43
H11   2    0.788030    1.053735    0.393232    11.00000   -1.20000
AFIX   0
C14   1    0.695066    0.441568    0.563574    11.00000    0.05924    0.04488 =
         0.03332    0.00421    0.00637   -0.01594
AFIX  33
H14A  2    0.629197    0.315117    0.536613    11.00000   -1.50000
H14B  2    0.807649    0.400484    0.597197    11.00000   -1.50000
H14C  2    0.662754    0.513659    0.623195    11.00000   -1.50000
AFIX   0
HKLF    4




REM  15novf_a.res in P2(1)
REM wR2 = 0.1217, GooF = S = 1.060, Restrained GooF = 1.060 for all data
REM R1 = 0.0491 for 2659 Fo > 4sig(Fo) and 0.0592 for all 2982 data
REM 154 parameters refined using 1 restraints

END

WGHT      0.0411      0.4098

REM Highest difference peak  0.505,  deepest hole -0.254,  1-sigma level  0.062
Q1    1   0.6564  0.7786  0.3232  11.00000  0.05    0.51
Q2    1   0.7394  0.6667  0.5225  11.00000  0.05    0.46
Q3    1   0.8632  1.0204  0.4563  11.00000  0.05    0.45
Q4    1   0.6179  0.4863  0.4828  11.00000  0.05    0.40
Q5    1   0.7402  0.7901  0.4075  11.00000  0.05    0.34
Q6    1   0.4576  0.5577  0.1692  11.00000  0.05    0.29
Q7    1   0.5188  0.6112  0.2984  11.00000  0.05    0.24
Q8    1   0.2852  0.2999  0.0916  11.00000  0.05    0.23
Q9    1   0.8637  1.2125  0.4657  11.00000  0.05    0.22
Q10   1   0.5471  0.3745  0.0941  11.00000  0.05    0.22
Q11   1   0.0058  0.6783  0.2379  11.00000  0.05    0.21
Q12   1   0.5799  0.5953  0.3988  11.00000  0.05    0.20
Q13   1  -0.3276  0.3129  0.1392  11.00000  0.05    0.19
Q14   1   0.5559  0.7886  0.2718  11.00000  0.05    0.19
Q15   1  -0.0466  0.4167  0.2376  11.00000  0.05    0.19
Q16   1   0.6574  0.7704  0.4671  11.00000  0.05    0.19
Q17   1   0.2691 -0.1672  0.0108  11.00000  0.05    0.19
Q18   1   0.0234  0.5331  0.2374  11.00000  0.05    0.18
Q19   1   0.1262  0.1285  0.1111  11.00000  0.05    0.18
Q20   1  -0.2872  0.1013  0.0598  11.00000  0.05    0.18
;
_shelx_res_checksum              2337
_shelx_hkl_file
;
   0   1   0    1.30    1.10
   0   1   0   -0.30    0.70
   0   1   0   -0.10    1.00
   0  -1   0    1.50    1.40
   0  -1   0    7.00    1.90
   0   2   0 2767.52  149.09
   0   2   0 2709.43  150.58
   0   2   0 2776.62  150.58
   0  -2   0 2700.73  150.28
   0  -2   0 2757.42  148.89
   0  -2   0 2680.03  150.78
   0   3   0    2.20    1.60
   0   3   0    3.10    3.10
   0   3   0   -0.10    3.10
   0  -3   0    0.60    2.00
   0  -3   0    0.70    2.40
   0  -3   0    4.30    3.50
   0   4   0 1378.96   84.79
   0   4   0 1323.47   87.19
   0   4   0 1380.36   86.79
   0  -4   0 1425.46   85.19
   0  -4   0 1372.56   85.79
   0   5   0   -5.00    2.80
   0   5   0   -0.60    4.50
   0   5   0   -3.20    4.40
   0  -5   0   -3.70    1.50
   0  -5   0    0.30    3.00
   0   6   0  181.98   22.70
   0   6   0  135.29   27.00
   0   6   0  157.58   23.20
   0  -6   0  136.69   20.10
   0  -6   0  193.78   22.50
   0   7   0   -5.20    9.00
   0   7   0   -5.50    6.80
   0  -7   0   -5.60    5.00
   0  -7   0    2.10    7.90
   0  -7   0  -10.80    5.40
   0   8   0   55.59   21.80
   0  -8   0   58.79   15.50
   0  -8   0   48.70   19.20
   0  -8   0   51.79   14.90
  -1  -8   0   73.59   20.40
  -1  -8   0   94.89   20.90
  -1  -8   0   71.29   21.00
   1   8   0  126.09   27.60
   1   8   0  172.58   32.50
  -1  -7   0    5.30    6.80
  -1  -7   0   -5.10    8.10
   1   7   0   12.10    7.20
   1   7   0  -17.00   10.00
  -1  -6   0  176.08   25.50
  -1  -6   0  225.18   25.20
   1   6   0  208.28   24.70
   1   6   0  196.18   26.70
  -1  -5   0  487.05   39.00
   1   5   0  469.25   40.30
   1   5   0  466.85   39.50
  -1  -4   0  452.15   35.10
   1   4   0  459.85   36.40
   1   4   0  460.45   36.10
  -1  -3   0  234.88   19.60
  -1  -3   0  228.38   20.70
  -1  -3   0  211.08   18.70
   1   3   0  203.78   19.10
   1   3   0  197.38   19.00
  -1  -2   0  236.08   18.40
  -1  -2   0  250.37   19.10
  -1  -2   0  258.47   18.80
  -1  -2   0  249.38   17.90
   1   2   0  222.78   18.40
   1   2   0  235.58   18.20
   1   2   0  222.58   17.80
  -1  -1   0 2600.84  135.39
  -1  -1   0 2427.16  134.59
  -1  -1   0 2638.24  133.29
   1   1   0 2544.15  135.19
   1   1   0 2330.97  134.59
   1   1   0 2469.95  133.39
  -1   1   0 2374.16  129.19
  -1   1   0 2314.07  127.69
  -1   1   0 2410.56  125.19
   1  -1   0 2297.67  127.49
   1  -1   0 2320.97  128.79
   1  -1   0 2294.67  124.89
  -1   2   0  245.58   20.70
  -1   2   0  236.28   20.70
  -1   2   0  264.57   18.10
   1  -2   0  255.07   17.90
   1  -2   0  229.68   20.00
   1  -2   0  227.28   17.70
   1  -2   0  236.38   20.90
  -1   3   0  240.58   19.30
  -1   3   0  220.18   21.90
  -1   3   0  237.18   22.40
   1  -3   0  218.38   19.30
   1  -3   0  208.88   18.50
   1  -3   0  208.98   21.80
  -1   4   0  510.75   41.20
  -1   4   0  487.85   36.10
  -1   4   0  468.95   39.70
   1  -4   0  464.65   36.40
  -1   5   0  490.05   38.60
  -1   5   0  508.35   43.10
  -1   5   0  446.46   42.90
   1  -5   0  451.35   38.70
  -1   6   0  229.18   29.10
  -1   6   0  197.18   25.40
   1  -6   0  177.48   22.90
   1  -6   0  192.48   24.00
   1  -6   0  153.78   23.30
  -1   7   0   -6.90   11.80
  -1   7   0   -9.50    6.70
   1  -7   0    4.10    9.30
   1  -7   0    2.10    8.80
   1  -7   0   -7.10    7.90
  -1   8   0  142.19   29.00
   1  -8   0   65.99   20.00
   1  -8   0  125.09   24.30
   1  -8   0  118.59   25.10
  -2  -8   0   35.10   16.40
  -2  -8   0    7.00   11.90
  -2  -8   0   22.30   12.60
   2   8   0   30.40   10.50
   2   8   0   27.80   18.70
  -2  -7   0  181.98   24.00
  -2  -7   0  171.18   24.00
   2   7   0  188.38   26.00
   2   7   0  174.18   30.30
  -2  -6   0  135.79   19.10
   2   6   0  126.29   23.60
   2   6   0  148.29   21.00
  -2  -5   0  174.48   20.30
   2   5   0  146.99   19.80
   2   5   0  157.28   20.70
  -2  -4   0   54.29   11.60
   2   4   0   52.99   12.00
   2   4   0   40.90   10.50
  -2  -3   0  521.85   36.40
  -2  -3   0  485.15   32.90
  -2  -3   0  491.95   36.50
   2   3   0  464.45   33.80
   2   3   0  455.95   35.50
   2   3   0  543.75   36.30
  -2  -2   0 3081.29  176.38
  -2  -2   0 3284.27  178.08
  -2  -2   0 3404.66  173.68
   2   2   0 3190.18  174.28
   2   2   0 3028.10  176.68
   2   2   0 3374.26  177.88
  -2  -1   0  304.07   19.60
  -2  -1   0  283.37   21.60
  -2  -1   0  294.57   17.20
   2   1   0  276.67   17.30
   2   1   0  234.98   18.80
   2   1   0  247.68   20.40
  -2   0   0  102.79    9.10
  -2   0   0  132.09    9.50
  -2   0   0  125.19   13.00
   2   0   0  115.09    9.40
   2   0   0  137.09   13.10
   2   0   0  117.79    9.40
  -2   1   0  241.08   19.70
  -2   1   0  237.68   16.60
  -2   1   0  248.18   22.40
   2  -1   0  264.57   22.10
   2  -1   0  255.17   19.30
   2  -1   0  253.27   19.80
   2  -1   0  269.57   16.80
  -2   2   0 3077.89  165.98
  -2   2   0 2942.01  160.08
  -2   2   0 2439.76  165.58
   2  -2   0 2779.12  164.28
   2  -2   0 3211.28  159.98
   2  -2   0 2809.82  166.58
   2  -2   0 3354.36  160.48
   2  -2   0 2854.41  164.18
  -2   3   0  492.05   38.80
  -2   3   0  451.85   33.20
  -2   3   0  489.95   39.70
   2  -3   0  491.35   33.20
   2  -3   0  452.45   34.40
  -2   4   0   56.59   14.70
  -2   4   0   82.69   16.80
   2  -4   0   55.29   11.30
  -2   5   0  163.68   23.10
  -2   5   0  167.78   24.60
   2  -5   0  150.28   18.90
   2  -5   0  190.68   24.90
  -2   6   0  137.19   28.10
  -2   6   0  109.69   25.50
   2  -6   0  128.79   25.00
   2  -6   0  123.99   17.90
  -2   7   0  213.08   31.40
  -2   7   0  215.78   31.30
   2  -7   0  175.38   26.50
   2  -7   0  184.28   25.50
  -2   8   0   40.30   20.70
  -2   8   0   48.60   19.30
   2  -8   0   19.60   13.20
   2  -8   0   13.00   12.50
   2  -8   0   26.70   14.10
  -3  -7   0  211.38   27.20
   3   7   0  222.58   29.10
   3   7   0  163.58   31.20
  -3  -6   0   25.50   10.30
   3   6   0   28.70   11.60
   3   6   0    5.60   10.10
  -3  -5   0  742.33   54.69
   3   5   0  703.53   54.99
   3   5   0  683.73   51.29
  -3  -4   0  140.59   18.10
   3   4   0  151.38   17.20
   3   4   0  164.38   19.30
  -3  -3   0  669.03   42.40
  -3  -3   0  735.33   49.70
   3   3   0  633.84   47.30
   3   3   0  713.63   44.60
  -3  -2   0   48.90    5.60
  -3  -2   0   31.80    9.10
   3   2   0   32.60    6.50
   3   2   0   37.10    8.60
   3   2   0   35.50    8.30
  -3  -1   0 1245.18   82.29
  -3  -1   0 1367.36   75.29
  -3  -1   0 1355.36   77.89
   3   1   0 1433.66   82.89
   3   1   0 1338.07   78.29
   3   1   0 1406.06   75.39
  -3   0   0    3.90    2.40
  -3   0   0   -0.70    2.50
  -3   0   0    7.40    2.80
   3   0   0    8.30    2.90
   3   0   0    8.00    3.50
   3   0   0    7.20    3.70
   3   0   0    4.90    2.10
  -3   1   0 1391.06   84.49
  -3   1   0 1295.77   72.79
  -3   1   0 1393.56   78.69
   3  -1   0 1225.68   76.09
   3  -1   0 1319.67   72.89
   3  -1   0 1178.88   76.79
   3  -1   0 1296.57   81.99
  -3   2   0   29.10    6.20
  -3   2   0   32.00    9.10
  -3   2   0   32.40   10.80
   3  -2   0   28.50    5.70
   3  -2   0   21.00    7.00
  -3   3   0  685.63   52.09
  -3   3   0  708.33   55.39
   3  -3   0  676.83   44.10
   3  -3   0  681.53   51.19
  -3   4   0  178.18   25.20
  -3   4   0  168.48   22.30
   3  -4   0  143.29   20.80
   3  -4   0  165.88   17.10
  -3   5   0  719.93   61.89
  -3   5   0  760.42   62.49
   3  -5   0  764.72   61.39
   3  -5   0  708.83   51.79
  -3   6   0    8.10   13.00
  -3   6   0   27.00   13.80
   3  -6   0    2.70    8.10
   3  -6   0    9.40    7.60
  -3   7   0  204.68   30.60
  -3   7   0  226.38   32.10
   3  -7   0  139.99   30.70
   3  -7   0  184.08   24.70
  -4  -7   0  126.39   24.50
   4   7   0  106.59   24.90
   4   7   0  120.69   22.70
  -4  -6   0   18.90   10.40
   4   6   0   10.30    6.20
   4   6   0   -5.80    7.30
  -4  -5   0   62.69   15.90
   4   5   0   60.59   16.10
   4   5   0   63.29   14.40
  -4  -4   0  318.47   32.00
  -4  -4   0  347.47   24.20
   4   4   0  315.97   26.30
   4   4   0  287.27   29.70
  -4  -3   0   69.39   14.80
  -4  -3   0   90.39    9.00
   4   3   0   79.39   10.40
   4   3   0   81.19   15.00
  -4  -2   0  164.08   20.10
  -4  -2   0  171.78   13.30
   4   2   0  156.18   16.80
   4   2   0  144.59   13.50
  -4  -1   0  298.27   22.60
  -4  -1   0  349.27   31.00
   4   1   0  343.87   25.70
   4   1   0  355.06   23.10
  -4   0   0  634.84   44.60
  -4   0   0  792.42   55.89
  -4   0   0  725.23   44.60
   4   0   0  780.12   47.90
   4   0   0  808.52   46.10
   4   0   0  656.33   44.50
  -4   1   0  353.06   34.00
  -4   1   0  316.87   23.00
   4  -1   0  330.87   23.50
   4  -1   0  333.67   26.50
  -4   2   0  149.69   21.90
  -4   2   0  184.68   20.90
  -4   2   0  157.18   14.90
   4  -2   0  177.38   19.50
   4  -2   0  182.58   14.90
  -4   3   0  111.99   23.70
  -4   3   0   94.99   18.70
   4  -3   0   69.49   15.30
   4  -3   0   64.69   11.20
  -4   4   0  360.26   36.20
  -4   4   0  275.07   36.00
   4  -4   0  345.07   27.50
   4  -4   0  296.17   33.80
  -4   5   0   65.89   20.30
  -4   5   0   61.19   17.50
   4  -5   0   57.39   16.40
   4  -5   0   70.19   13.70
  -4   6   0    8.00   10.80
  -4   6   0    7.00   11.20
   4  -6   0   -1.40    9.50
   4  -6   0    7.00    5.60
  -4   7   0  131.79   33.30
  -4   7   0  114.69   31.30
   4  -7   0  135.19   29.80
   4  -7   0  142.39   24.80
  -5  -7   0  333.87   36.70
   5   7   0  280.47   36.00
   5   7   0  240.78   31.10
  -5  -6   0  113.99   24.80
   5   6   0  120.09   25.60
   5   6   0  106.29   18.50
  -5  -5   0  193.28   26.60
   5   5   0  185.38   20.70
   5   5   0  203.18   25.50
  -5  -4   0  334.47   35.30
  -5  -4   0  414.06   26.50
   5   4   0  323.87   27.40
   5   4   0  312.07   32.70
  -5  -3   0  716.33   56.89
  -5  -3   0  754.32   43.80
   5   3   0  691.83   51.79
   5   3   0  654.43   45.10
  -5  -2   0  290.77   30.80
  -5  -2   0  299.47   21.20
   5   2   0  275.27   21.10
   5   2   0  245.38   24.60
  -5  -1   0   95.59   20.00
  -5  -1   0   85.79    9.90
   5   1   0   82.99   11.60
   5   1   0   86.99    9.90
  -5   0   0   98.89   20.80
   5   0   0  104.29   12.00
   5   0   0  113.99   12.30
  -5   1   0   70.29   18.00
   5  -1   0   96.39   11.10
   5  -1   0  106.89   13.20
  -5   2   0  303.97   36.30
   5  -2   0  313.47   29.40
   5  -2   0  315.47   24.30
  -5   3   0  637.14   61.19
  -5   3   0  787.32   58.99
   5  -3   0  721.53   47.00
   5  -3   0  691.13   55.39
  -5   4   0  350.16   43.10
  -5   4   0  385.06   40.20
   5  -4   0  335.27   36.90
   5  -4   0  365.96   29.40
  -5   5   0  192.08   38.00
  -5   5   0  207.38   29.20
   5  -5   0  189.68   20.50
   5  -5   0  161.08   30.40
  -5   6   0  152.08   32.50
  -5   6   0  111.29   27.60
   5  -6   0   84.09   20.60
   5  -6   0  109.99   16.80
  -5   7   0  310.17   42.40
  -5   7   0  255.87   50.79
   5  -7   0  355.46   33.50
   5  -7   0  353.96   42.80
  -6  -6   0   49.50   17.00
   6   6   0   42.10   15.80
   6   6   0   49.60   15.70
  -6  -5   0  156.18   30.80
   6   5   0  108.19   23.90
   6   5   0  168.88   18.50
  -6  -4   0   45.10   15.00
   6   4   0   34.30    9.30
   6   4   0   46.50   10.80
  -6  -3   0  267.67   20.90
  -6  -3   0  261.67   32.40
   6   3   0  284.77   28.70
   6   3   0  266.37   22.50
  -6  -2   0  567.24   50.29
   6   2   0  439.96   39.60
   6   2   0  565.64   36.10
  -6  -1   0   15.00   10.70
   6   1   0   22.10    6.80
   6   1   0   29.60    8.40
  -6   0   0  688.33   62.69
   6   0   0  774.22   50.39
   6   0   0  782.92   51.29
  -6   1   0   13.00    8.70
   6  -1   0   13.00    6.70
   6  -1   0   21.70    6.80
  -6   2   0  522.85   53.29
   6  -2   0  544.45   37.90
   6  -2   0  509.15   43.30
  -6   3   0  233.88   37.00
   6  -3   0  317.67   33.80
   6  -3   0  327.27   26.10
  -6   4   0   48.90   20.10
   6  -4   0   76.49   11.50
   6  -4   0   45.10   17.30
  -6   5   0  151.78   37.70
   6  -5   0  188.38   28.60
   6  -5   0  170.98   19.90
  -6   6   0   63.79   26.80
   6  -6   0   86.09   23.50
   6  -6   0   70.49   16.40
  -7  -6   0   66.89   24.50
   7   6   0  134.39   25.90
   7   5   0   23.70    9.60
   7   5   0   45.10   13.60
  -7  -4   0  192.98   30.30
   7   4   0  186.18   19.50
   7   4   0  190.98   26.00
  -7  -3   0  237.58   31.60
   7   3   0  195.18   25.10
   7   3   0  232.48   20.40
  -7  -2   0   59.89   21.10
   7   2   0   94.19   12.50
   7   2   0  111.19   16.30
  -7  -1   0  481.15   49.80
   7   1   0  475.45   39.20
   7   1   0  500.65   35.70
  -7   0   0  555.34   57.59
   7   0   0  655.93   44.90
   7   0   0  622.94   45.70
  -7   1   0  427.46   51.69
   7  -1   0  544.85   40.20
   7  -1   0  599.34   43.70
  -7   2   0   81.59   26.80
   7  -2   0   93.39   18.70
   7  -2   0  109.49   14.10
  -7   3   0  195.08   42.40
   7  -3   0  272.57   24.10
   7  -3   0  212.18   28.40
  -7   4   0  217.38   47.30
   7  -4   0  249.18   32.10
   7  -4   0  217.98   22.90
   7  -5   0   20.10   13.10
   7  -5   0   30.00    8.40
  -7   6   0   82.59   28.60
   7  -6   0  131.19   17.70
   7  -6   0  116.09   28.10
  -8  -5   0  193.18   40.10
   8   5   0  201.18   34.40
  -8  -4   0   22.30   15.60
   8   4   0   42.60   15.20
   8   4   0   47.80   10.40
  -8  -3   0  178.48   34.80
   8   3   0  174.18   18.90
   8   3   0  194.68   24.50
  -8  -2   0  796.62   70.19
   8   2   0  772.82   52.29
   8   2   0  795.42   59.89
  -8  -1   0  126.49   31.90
   8   1   0  125.49   19.00
   8   1   0  133.69   16.40
  -8   0   0  511.15   58.19
   8   0   0  625.14   47.50
   8   0   0  648.44   45.90
  -8   1   0  104.99   28.20
   8  -1   0  111.89   16.10
   8  -1   0  141.69   18.30
  -8   2   0  723.03   74.89
   8  -2   0  847.42   57.29
   8  -2   0  797.82   62.29
  -8   3   0  203.98   46.30
   8  -3   0  194.08   21.90
   8  -3   0  196.38   27.60
  -8   4   0   44.30   18.20
   8  -4   0   71.29   18.70
   8  -4   0   82.39   14.60
  -8   5   0  166.88   41.10
   8  -5   0  238.28   24.70
   8  -5   0  191.78   37.20
  -9  -4   0   61.99   24.10
   9   4   0   60.99   16.10
  -9  -3   0  156.88   34.30
   9   3   0  191.78   22.10
   9   3   0  213.08   27.50
  -9  -2   0   34.40   18.30
   9   2   0   74.79   14.50
   9   2   0   77.89   19.00
  -9  -1   0   98.49   26.10
   9   1   0  100.29   20.10
   9   1   0   99.69   14.30
  -9   0   0    0.20   13.10
   9   0   0    8.30    7.60
   9   0   0    6.80    6.70
  -9   1   0  117.19   33.80
   9  -1   0  109.89   20.10
   9  -1   0  138.79   19.40
  -9   2   0   82.69   25.40
   9  -2   0   89.89   21.70
   9  -2   0   79.89   16.80
  -9   3   0  247.68   51.19
   9  -3   0  166.08   32.00
   9  -3   0  199.88   24.70
  -9   4   0   81.79   27.20
   9  -4   0  130.89   26.80
   9  -4   0  101.19   18.20
 -10  -3   0   93.89   31.90
  10   3   0  111.89   25.80
 -10  -2   0  -10.00   13.60
  10   2   0   -5.20    8.70
  10   2   0   -2.20    8.30
 -10  -1   0  202.78   38.30
  10   1   0  103.99   23.30
  10   1   0  142.49   20.70
 -10   0   0   47.20   20.40
  10   0   0   -4.80    8.00
  10   0   0   -3.80    9.00
 -10   1   0  155.28   41.00
  10  -1   0  163.08   23.40
  10  -1   0  146.79   25.60
 -10   2   0   -8.50   12.30
  10  -2   0    5.90    9.10
  10  -2   0   12.80   10.20
 -10   3   0   69.49   23.70
  10  -3   0  127.09   18.60
  10  -3   0   93.29   24.70
  11  -1  -1   97.89   20.60
  11  -1  -1   82.19   20.60
 -11   1   1   58.59   26.70
  11   0  -1   27.70   13.30
  11   0  -1   39.90   14.00
 -11   0   1   60.79   25.20
  11   1  -1   85.49   16.10
  11   1  -1  104.69   20.70
 -11  -1   1   94.99   31.40
  10  -3  -1    9.90   14.80
  10  -3  -1   28.30   10.90
 -10   3   1   -0.10   19.80
  10  -2  -1   50.49   16.40
  10  -2  -1   54.79   16.50
 -10   2   1   42.80   25.60
  10  -1  -1  310.67   32.30
  10  -1  -1  277.97   30.90
 -10   1   1  235.58   51.29
  10   0  -1  109.79   15.80
  10   0  -1  104.89   21.80
 -10   0   1   90.69   26.60
  10   1  -1  262.57   30.90
  10   1  -1  281.97   26.80
 -10  -1   1  263.47   49.30
  10   2  -1   58.29   19.40
  10   2  -1   49.30   12.20
 -10  -2   1   96.49   27.30
  10   3  -1   14.60   11.30
 -10  -3   1   35.60   19.30
   9  -4  -1   95.89   24.20
   9  -4  -1  145.79   19.20
  -9   4   1  101.09   34.70
   9  -3  -1  409.96   35.70
   9  -3  -1  382.06   41.80
  -9   3   1  277.37   46.10
   9  -2  -1  107.49   22.80
   9  -2  -1  107.79   19.30
  -9   2   1   96.99   31.70
   9  -1  -1  477.35   40.50
   9  -1  -1  443.66   39.30
  -9   1   1  420.26   56.19
   9   0  -1  955.80   63.39
   9   0  -1  870.11   65.79
  -9   0   1  930.71   82.59
   9   1  -1  386.76   37.90
   9   1  -1  403.96   31.60
  -9  -1   1  355.06   48.70
   9   2  -1   88.39   13.30
   9   2  -1   88.79   19.90
  -9  -2   1  139.59   21.70
   9   3  -1  389.66   40.00
  -9  -3   1  344.37   46.30
   9   4  -1   75.59   19.10
  -9  -4   1   43.70   20.50
   8  -5  -1  176.68   34.60
   8  -5  -1  190.18   22.60
  -8   5   1  149.29   40.50
   8  -4  -1   44.30   12.00
   8  -4  -1   18.10   11.00
  -8   4   1   22.00   18.70
   8  -3  -1   28.00   11.30
   8  -3  -1   29.70    9.10
  -8   3   1    5.70   10.20
   8  -2  -1   41.80   10.90
   8  -2  -1   26.80    9.60
  -8   2   1   57.89   20.70
   8  -1  -1  321.87   28.80
   8  -1  -1  295.87   28.90
  -8   1   1  214.48   35.50
   8   0  -1   74.89   13.80
   8   0  -1   86.29   17.20
  -8   0   1   62.09   19.80
   8   1  -1  250.87   27.60
   8   1  -1  283.57   23.90
  -8  -1   1  296.67   39.50
   8   2  -1   37.00   11.80
   8   2  -1   43.90    9.80
  -8  -2   1   45.20   16.60
   8   3  -1   22.10    6.50
   8   3  -1    7.20    7.80
  -8  -3   1    3.20    8.80
   8   4  -1   10.30    7.50
  -8  -4   1  -18.50   11.20
   8   5  -1  130.49   26.50
  -8  -5   1  117.39   31.60
   7  -6  -1  107.49   20.10
   7  -6  -1   80.19   22.70
  -7   6   1  134.09   38.60
   7  -5  -1   48.70   16.90
   7  -5  -1   50.09   12.80
  -7   5   1   64.69   25.20
   7  -4  -1  267.57   26.00
   7  -4  -1  260.07   33.60
  -7   4   1  205.98   43.40
   7  -3  -1  320.27   34.70
   7  -3  -1  282.57   27.00
  -7   3   1  322.67   43.30
   7  -2  -1  171.48   18.40
   7  -2  -1  149.29   21.70
  -7   2   1  173.88   36.10
   7  -1  -1  439.46   35.80
   7  -1  -1  431.36   34.30
  -7   1   1  371.46   44.80
   7   0  -1  203.18   20.80
   7   0  -1  167.38   17.60
  -7   0   1  140.99   29.10
   7   1  -1  387.26   29.10
   7   1  -1  412.16   34.80
  -7  -1   1  388.66   44.10
   7   2  -1  139.79   18.90
   7   2  -1  153.48   13.80
   7   2  -1  137.09   15.30
  -7  -2   1  125.59   13.00
  -7  -2   1  145.39   30.90
   7   3  -1  300.77   21.60
   7   3  -1  275.67   21.90
   7   3  -1  277.67   29.60
  -7  -3   1  311.47   36.40
   7   4  -1  198.08   26.70
   7   4  -1  246.58   18.00
  -7  -4   1  244.98   33.20
   7   5  -1   22.00   11.80
  -7  -5   1   23.30   15.40
   7   6  -1   94.09   19.40
  -7  -6   1  107.29   28.40
   6  -7  -1   73.39   16.80
   6  -7  -1   64.89   23.80
   6  -6  -1   13.10   10.50
   6  -6  -1   22.10   11.40
  -6   6   1  -18.40   13.00
  -6   6   1    9.30   14.60
   6  -5  -1   -1.50    4.80
   6  -5  -1    5.90    6.30
  -6   5   1    9.20   10.60
  -6   5   1  -14.60    8.00
   6  -4  -1  257.37   31.60
   6  -4  -1  205.38   22.00
  -6   4   1  212.28   33.40
  -6   4   1  254.77   32.00
   6  -3  -1  371.96   37.60
   6  -3  -1  399.66   31.20
  -6   3   1  393.56   39.60
  -6   3   1  342.67   42.90
   6  -2  -1  532.05   36.30
   6  -2  -1  475.45   40.60
  -6   2   1  398.16   46.30
   6  -1  -1  248.28   23.50
   6  -1  -1  257.47   22.30
  -6   1   1  219.18   30.40
   6   0  -1  430.26   31.40
   6   0  -1  417.76   32.60
  -6   0   1  416.26   42.50
   6   1  -1  225.88   20.90
   6   1  -1  274.87   24.40
   6   1  -1  271.97   19.90
  -6  -1   1  191.68   18.40
  -6  -1   1  281.27   31.80
   6   2  -1  406.76   30.60
   6   2  -1  484.45   30.50
   6   2  -1  438.96   36.80
  -6  -2   1  494.75   45.60
   6   3  -1  340.67   24.10
   6   3  -1  343.97   32.10
  -6  -3   1  324.37   22.00
  -6  -3   1  279.97   34.20
   6   4  -1  201.48   24.90
   6   4  -1  210.58   17.60
  -6  -4   1  199.48   27.60
  -6  -4   1  202.78   15.40
   6   5  -1    9.60    5.80
  -6  -5   1    9.70   10.70
   6   6  -1   43.40   10.60
  -6  -6   1   -4.50   12.10
   5  -7  -1   32.30   13.40
   5  -7  -1   11.00   10.80
  -5   7   1    1.50   15.30
  -5   7   1   -6.30    9.30
   5  -6  -1  498.25   43.40
   5  -6  -1  522.85   54.09
  -5   6   1  555.84   56.39
  -5   6   1  578.04   57.79
   5  -5  -1  183.28   28.10
   5  -5  -1  197.58   22.50
  -5   5   1  246.38   31.20
  -5   5   1  213.78   32.10
   5  -4  -1  760.82   49.70
   5  -4  -1  650.03   56.99
  -5   4   1  685.63   58.99
  -5   4   1  641.54   61.49
   5  -3  -1  187.68   24.80
   5  -3  -1  222.08   20.30
  -5   3   1  224.68   27.00
  -5   3   1  211.68   30.20
   5  -2  -1  132.79   13.80
   5  -2  -1  155.48   18.90
  -5   2   1  125.39   26.10
  -5   2   1  124.79   17.50
   5  -1  -1   60.39    8.80
   5  -1  -1   64.39   12.10
  -5   1   1   40.20   14.00
   5   0  -1   52.59    7.90
   5   0  -1   54.99   11.10
   5   0  -1   60.89    8.90
  -5   0   1   53.29   13.90
   5   1  -1   79.49    8.20
   5   1  -1   63.69    8.80
   5   1  -1   87.39   11.00
  -5  -1   1   56.09    7.50
  -5  -1   1   66.49   15.80
   5   2  -1  142.79   16.40
   5   2  -1  131.19   11.40
  -5  -2   1  131.29   19.90
  -5  -2   1  115.99   10.50
   5   3  -1  190.68   15.90
  -5  -3   1  193.08   24.40
  -5  -3   1  201.48   14.40
   5   4  -1  650.43   51.99
   5   4  -1  648.64   43.30
  -5  -4   1  743.93   41.20
  -5  -4   1  618.84   54.49
   5   5  -1  160.58   23.80
   5   5  -1  206.48   20.30
  -5  -5   1  233.68   29.60
  -5  -5   1  267.27   18.40
   5   6  -1  510.35   49.80
   5   6  -1  571.24   41.70
  -5  -6   1  607.94   54.29
   5   7  -1   18.30   10.10
  -5  -7   1   45.00   17.40
   4  -7  -1   45.90   14.50
   4  -7  -1   39.60   16.20
  -4   7   1   30.50   13.60
  -4   7   1   80.49   21.10
   4  -6  -1  467.25   39.60
   4  -6  -1  405.26   45.30
  -4   6   1  448.06   47.60
  -4   6   1  435.46   48.00
   4  -5  -1   36.80   13.60
   4  -5  -1   32.00   10.20
  -4   5   1   54.89   17.80
  -4   5   1   25.30   11.80
   4  -4  -1  420.76   40.40
   4  -4  -1  411.56   32.70
  -4   4   1  440.96   43.30
  -4   4   1  382.96   39.70
   4  -3  -1   62.89   14.80
   4  -3  -1   88.29   10.90
  -4   3   1   74.49   17.00
  -4   3   1   85.69   20.70
   4  -2  -1  184.78   15.90
   4  -2  -1  149.29   18.10
  -4   2   1  152.48   21.40
  -4   2   1  163.98   19.30
   4  -1  -1  362.56   26.00
   4  -1  -1  353.36   31.40
   4  -1  -1  341.47   28.00
  -4   1   1  377.76   26.00
  -4   1   1  418.86   36.00
  -4   1   1  397.16   30.20
   4   0  -1 1650.43   94.39
   4   0  -1 1691.63   95.49
   4   0  -1 1612.24   95.79
  -4   0   1 1754.02   98.09
  -4   0   1 1701.23  105.09
   4   1  -1  407.16   24.10
   4   1  -1  394.66   25.50
   4   1  -1  426.46   28.90
  -4  -1   1  316.27   23.70
  -4  -1   1  378.16   33.20
   4   2  -1  178.18   18.20
   4   2  -1  188.18   13.90
  -4  -2   1  190.18   21.60
  -4  -2   1  194.48   13.10
   4   3  -1   69.89   13.40
   4   3  -1   62.89    8.30
  -4  -3   1   88.99   17.40
  -4  -3   1   97.49    8.20
   4   4  -1  394.66   30.00
   4   4  -1  365.76   35.30
  -4  -4   1  444.56   28.70
  -4  -4   1  475.05   40.00
   4   5  -1   42.70   10.30
   4   5  -1   32.70   11.20
  -4  -5   1   48.60   14.60
   4   6  -1  400.06   40.40
   4   6  -1  425.96   36.40
  -4  -6   1  420.96   41.80
   4   7  -1   33.60   13.80
   4   7  -1   58.29   13.80
  -4  -7   1   40.30    8.70
  -4  -7   1   74.49   20.90
   3  -7  -1   63.99   17.30
   3  -7  -1   22.70   12.40
  -3   7   1   34.30   18.40
  -3   7   1   30.10   15.30
   3  -6  -1   70.89   16.20
   3  -6  -1   45.50   16.00
  -3   6   1   46.90   17.40
  -3   6   1   85.49   22.50
   3  -5  -1  142.59   19.60
  -3   5   1  201.98   27.00
  -3   5   1  189.58   26.50
   3  -4  -1   30.60    8.90
  -3   4   1    6.70    7.90
  -3   4   1   28.50   12.00
   3  -3  -1 1113.89   69.59
  -3   3   1 1151.48   78.89
  -3   3   1 1198.58   77.99
   3  -2  -1  655.53   40.70
   3  -2  -1  578.74   46.60
  -3   2   1  657.93   48.90
  -3   2   1  634.54   41.10
  -3   2   1  670.13   46.50
   3  -1  -1 2123.19  121.19
   3  -1  -1 2337.17  118.09
   3  -1  -1 2079.39  120.49
   3  -1  -1 2284.67  125.99
  -3   1   1 1937.81  125.09
  -3   1   1 2215.28  121.99
  -3   1   1 2012.10  117.19
   3   0  -1 1259.87   69.39
   3   0  -1 1180.38   69.19
   3   0  -1 1330.37   75.89
   3   0  -1 1140.39   68.09
  -3   0   1 1297.47   76.49
  -3   0   1 1115.39   68.39
   3   1  -1 2418.36  128.39
   3   1  -1 2291.37  123.59
   3   1  -1 2404.36  118.69
  -3  -1   1 1885.61  126.49
  -3  -1   1 2273.37  122.99
  -3  -1   1 2058.89  118.49
   3   2  -1  652.73   43.70
   3   2  -1  669.73   46.00
   3   2  -1  616.84   38.10
  -3  -2   1  705.13   37.50
  -3  -2   1  660.43   46.60
   3   3  -1 1100.99   65.99
   3   3  -1 1091.99   71.29
  -3  -3   1 1152.48   73.69
  -3  -3   1 1184.38   64.89
   3   4  -1   28.70    7.70
   3   4  -1   32.90   10.20
  -3  -4   1   47.90   12.30
  -3  -4   1   49.00    7.20
   3   5  -1  182.78   21.20
   3   5  -1  186.88   23.00
  -3  -5   1  228.28   25.40
   3   6  -1   44.70   15.30
   3   6  -1   56.09   14.10
  -3  -6   1   67.29   16.90
   3   7  -1   24.20   13.30
   3   7  -1   16.00    9.60
  -3  -7   1   28.90   10.70
  -3  -7   1   18.40   11.50
   2  -8  -1   -3.50   10.00
   2  -8  -1   24.10   14.30
   2  -8  -1   38.20   10.00
  -2   8   1   15.10   13.80
  -2   8   1   43.10   20.20
   2  -7  -1  174.08   25.20
   2  -7  -1  149.09   27.80
   2  -7  -1  150.08   29.90
  -2   7   1  149.49   32.70
  -2   7   1  212.48   26.60
   2  -6  -1   89.89   19.30
  -2   6   1  114.99   24.10
  -2   6   1  122.09   25.70
   2  -5  -1  205.08   23.00
  -2   5   1  196.48   25.00
  -2   5   1  200.38   26.30
   2  -4  -1   -1.20    2.20
  -2   4   1    4.80    5.20
  -2   4   1    3.80    4.90
   2  -3  -1 2009.10  113.49
   2  -3  -1 1927.01  117.79
  -2   3   1 2033.20  119.69
  -2   3   1 1940.11  118.09
   2  -2  -1   45.60    6.20
   2  -2  -1   33.70    7.60
   2  -2  -1   32.90    8.30
  -2   2   1   36.60    8.60
  -2   2   1   30.50    6.30
  -2   2   1   32.50    8.90
   2  -1  -1 8150.98  449.76
   2  -1  -1 8839.32  452.35
  -2   1   1 8459.95  452.55
   2   0  -1 2368.46  130.29
   2   0  -1 2445.96  130.49
   2   0  -1 2218.68  129.59
   2   0  -1 2763.72  135.39
  -2   0   1 2471.05  130.49
  -2   0   1 2345.07  130.19
  -2   0   1 2386.56  134.59
   2   1  -1 9294.67  492.95
   2   2  -1   33.10    7.40
   2   2  -1   30.20    6.80
   2   2  -1   26.10    4.60
  -2  -2   1   33.70    6.70
  -2  -2   1   39.90    8.30
  -2  -2   1   27.40    3.90
   2   3  -1 1984.40  116.29
   2   3  -1 1978.90  113.19
  -2  -3   1 2126.89  118.29
  -2  -3   1 1962.80  112.09
   2   4  -1   -7.60    3.10
   2   4  -1   -1.50    2.50
  -2  -4   1    1.60    2.80
   2   5  -1  177.18   21.40
   2   5  -1  182.18   22.10
  -2  -5   1  239.58   25.20
   2   6  -1  102.59   19.30
   2   6  -1  117.29   17.50
  -2  -6   1   85.39   19.30
   2   7  -1  220.08   28.30
   2   7  -1  186.98   25.60
  -2  -7   1  176.18   27.00
  -2  -7   1  176.18   23.10
  -2  -7   1  180.68   27.20
   2   8  -1   14.60   17.70
   2   8  -1   -3.20    9.60
  -2  -8   1   28.60   14.80
  -2  -8   1   22.30   11.60
  -2  -8   1   18.40   11.40
   1  -8  -1   82.09   17.60
   1  -8  -1   65.39   17.10
   1  -8  -1   33.70   16.60
  -1   8   1   43.60   20.10
   1  -7  -1   88.99   18.90
   1  -7  -1   81.39   21.30
  -1   7   1  141.79   26.60
  -1   7   1  101.89   24.40
   1  -6  -1  172.88   23.60
   1  -6  -1  220.18   24.60
  -1   6   1  201.98   26.40
  -1   6   1  227.88   29.30
   1  -5  -1  827.12   55.79
   1  -5  -1  733.33   56.29
  -1   5   1  821.82   58.09
  -1   5   1  706.63   54.69
  -1   5   1  805.12   61.39
   1  -4  -1  125.59   15.60
  -1   4   1  119.49   14.50
  -1   4   1  111.19   15.30
  -1   4   1   94.59   18.30
   1  -3  -1  165.18   16.10
   1  -3  -1  179.38   17.20
  -1   3   1  152.08   17.80
  -1   3   1  157.88   16.90
  -1   3   1  161.98   15.70
   1  -2  -1  263.87   20.60
   1  -2  -1  273.47   21.80
   1  -2  -1  249.48   19.10
   1  -2  -1  244.48   19.40
  -1   2   1  269.67   20.70
  -1   2   1  238.18   19.20
  -1   2   1  283.27   22.30
   1  -1  -1 4696.63  251.47
   1  -1  -1 4825.82  250.87
  -1   1   1 4597.94  251.47
   1   0  -1    0.60    0.70
   1   0  -1    1.00    0.50
  -1   0   1    0.90    0.60
   1   1  -1 4769.62  255.77
   1   1  -1 5252.37  260.07
  -1  -1   1 4601.54  255.77
   1   2  -1  288.67   21.60
   1   2  -1  262.07   20.00
   1   2  -1  281.87   19.60
  -1  -2   1  289.57   22.60
  -1  -2   1  251.87   19.00
  -1  -2   1  303.37   21.90
  -1  -2   1  243.98   19.30
   1   3  -1  181.78   16.70
   1   3  -1  158.28   16.00
   1   3  -1  195.08   19.30
  -1  -3   1  143.39   17.30
  -1  -3   1  159.08   15.30
  -1  -3   1  164.68   17.10
   1   4  -1  131.69   15.90
   1   4  -1  126.39   15.30
  -1  -4   1  133.09   16.20
   1   5  -1  781.12   57.59
   1   5  -1  835.32   59.99
  -1  -5   1  834.52   59.59
   1   6  -1  217.38   26.50
   1   6  -1  201.58   24.20
  -1  -6   1  174.78   23.00
  -1  -6   1  190.38   24.20
  -1  -6   1  176.98   24.20
   1   7  -1   94.19   19.80
   1   7  -1   98.89   23.40
  -1  -7   1  113.69   24.50
  -1  -7   1   76.19   20.10
  -1  -7   1   73.19   18.80
   1   8  -1   87.69   21.40
   1   8  -1   59.99   17.00
  -1  -8   1   60.09   16.40
  -1  -8   1   83.59   22.30
  -1  -8   1   34.70   19.30
   0  -8  -1   31.20   14.60
   0  -8  -1   58.29   15.70
   0  -8  -1   42.80   20.00
   0   8   1    8.00   17.80
   0  -7  -1  -15.10    7.70
   0  -7  -1    2.80    7.20
   0   7   1   15.60    8.50
   0   7   1    6.40   12.50
   0  -6  -1   31.60    9.60
   0  -6  -1   13.20    9.60
   0   6   1   26.00   13.00
   0   6   1   47.60   14.40
   0  -5  -1  192.48   20.60
   0  -5  -1  173.58   22.60
   0   5   1  220.88   23.10
   0   5   1  189.08   22.20
   0   5   1  184.08   24.30
   0  -4  -1  628.14   49.50
   0  -4  -1  663.13   49.70
   0  -4  -1  760.32   48.40
   0   4   1  736.43   50.29
   0   4   1  778.12   50.29
   0   4   1  709.83   52.49
   0  -3  -1  950.60   62.09
   0  -3  -1  989.90   61.39
   0  -3  -1 1021.70   59.39
   0   3   1 1074.99   61.09
   0   3   1 1000.50   61.59
   0   3   1  856.41   62.09
   0  -2  -1 2762.02  151.68
   0  -2  -1 2825.02  152.78
   0  -2  -1 2893.01  150.48
   0  -2  -1 2727.13  153.68
   0   2   1 2729.73  152.68
   0   2   1 2924.31  151.38
   0   2   1 2669.43  153.98
   0  -1  -1 2481.25  131.69
   0  -1  -1 2400.56  130.89
   0  -1  -1 2286.97  131.09
   0  -1  -1 2486.85  128.89
   0   1   1 2484.05  128.69
   0   1   1 2393.56  130.89
   0   1   1 2510.65  131.99
   0   1  -1 2575.14  131.59
   0   1  -1 2447.56  133.59
   0  -1   1 2466.85  129.59
   0  -1   1 2487.85  133.79
   0  -1   1 2213.48  130.29
   0  -1   1 2441.96  131.29
   0   2  -1 2760.42  148.39
   0   2  -1 2802.12  153.18
   0   2  -1 2811.32  150.78
   0  -2   1 2681.73  153.08
   0  -2   1 2727.23  148.19
   0  -2   1 2624.84  150.08
   0   3  -1  942.11   61.69
   0   3  -1 1035.20   64.79
   0   3  -1  947.61   59.19
   0  -3   1  935.71   61.29
   0  -3   1  970.90   64.79
   0  -3   1 1013.00   59.39
   0   4  -1  715.83   49.20
   0   4  -1  762.22   54.69
   0   4  -1  683.73   51.69
   0  -4   1  707.33   49.90
   0  -4   1  764.12   52.29
   0   5  -1  167.68   23.20
   0   5  -1  173.58   20.60
   0   5  -1  220.08   25.60
   0  -5   1  206.68   22.70
   0  -5   1  185.18   22.40
   0  -5   1  186.28   22.70
   0   6  -1   43.90   11.50
   0   6  -1   40.10   15.00
   0   6  -1   25.50   12.90
   0  -6   1   46.70   13.00
   0  -6   1   24.00    8.70
   0  -6   1   27.20   11.30
   0   7  -1   11.70   10.50
   0   7  -1    5.90    8.80
   0  -7   1   -9.00    6.90
   0  -7   1   10.20    9.00
   0  -7   1    7.00   10.00
   0   8  -1   35.80   15.50
   0  -8   1   45.20   15.00
   0  -8   1   41.70   13.00
   0  -8   1   60.29   18.20
  -1  -8  -1   62.59   22.80
  -1  -8  -1   85.19   19.00
   1   8   1   92.89   22.60
   1   8   1   74.09   23.40
  -1  -7  -1   -1.80    6.60
  -1  -7  -1    7.90    9.30
   1   7   1    9.60   11.80
   1   7   1   24.00   11.20
  -1  -6  -1  346.87   31.50
  -1  -6  -1  305.97   34.20
   1   6   1  295.47   32.00
   1   6   1  302.97   34.20
  -1  -5  -1  324.67   28.70
  -1  -5  -1  262.97   29.70
   1   5   1  310.87   31.30
   1   5   1  329.17   30.80
  -1  -4  -1  414.26   31.30
  -1  -4  -1  406.46   32.70
   1   4   1  398.56   33.40
   1   4   1  417.26   34.80
  -1  -3  -1  806.02   52.49
  -1  -3  -1  873.51   53.69
  -1  -3  -1  867.81   51.99
   1   3   1  852.21   54.79
   1   3   1  783.82   53.79
  -1  -2  -1  752.62   48.70
  -1  -2  -1  840.52   47.40
  -1  -2  -1  831.22   47.70
  -1  -2  -1  794.02   48.20
   1   2   1  700.23   48.40
   1   2   1  809.02   49.10
   1   2   1  829.72   47.10
  -1  -1  -1 2897.21  154.48
  -1  -1  -1 3076.29  154.38
  -1  -1  -1 2664.63  154.38
   1   1   1 2968.60  154.18
   1   1   1 2989.60  154.58
   1   1   1 2646.24  154.38
  -1   0  -1  243.58   15.20
  -1   0  -1  221.88   13.70
  -1   0  -1  216.58   17.10
   1   0   1  230.28   13.90
   1   0   1  245.98   15.20
   1   0   1  221.08   17.00
  -1   1  -1 2663.23  137.99
  -1   1  -1 2325.87  140.39
  -1   1  -1 2687.73  145.29
   1  -1   1 2523.45  140.99
   1  -1   1 2520.65  144.49
   1  -1   1 2707.43  137.69
   1  -1   1 2776.62  142.69
  -1   2  -1  790.82   49.50
  -1   2  -1  833.82   44.90
  -1   2  -1  702.13   50.69
   1  -2   1  709.13   50.59
   1  -2   1  753.12   48.00
   1  -2   1  781.82   44.50
   1  -2   1  785.22   44.90
   1  -2   1  692.53   48.00
  -1   3  -1  911.61   57.89
  -1   3  -1  817.52   58.49
  -1   3  -1  871.91   51.89
   1  -3   1  833.52   51.39
   1  -3   1  803.42   55.39
   1  -3   1  806.92   51.89
  -1   4  -1  416.76   37.40
  -1   4  -1  453.05   37.70
  -1   4  -1  438.06   32.00
   1  -4   1  354.56   33.70
   1  -4   1  402.56   31.80
  -1   5  -1  344.77   30.30
  -1   5  -1  332.07   34.60
  -1   5  -1  380.16   37.30
   1  -5   1  359.66   34.60
   1  -5   1  322.47   30.30
  -1   6  -1  354.06   37.80
  -1   6  -1  363.26   37.50
   1  -6   1  321.47   35.10
   1  -6   1  330.67   35.00
   1  -6   1  299.97   31.40
  -1   7  -1   17.20   11.30
  -1   7  -1   17.50   13.50
   1  -7   1   -1.80    9.30
   1  -7   1   11.60    9.90
   1  -7   1   13.30   11.60
  -1   8  -1   98.99   25.50
   1  -8   1   91.99   22.10
   1  -8   1   88.39   23.20
   1  -8   1   60.89   19.00
  -2  -8  -1   19.20   11.00
  -2  -8  -1   21.60   12.70
   2   8   1   33.50   20.70
   2   8   1   31.30   15.40
  -2  -7  -1  113.39   16.80
  -2  -7  -1   67.49   19.20
   2   7   1   90.49   21.00
   2   7   1   62.09   17.30
  -2  -6  -1  848.72   61.39
   2   6   1  868.01   65.39
   2   6   1  827.82   64.69
  -2  -5  -1  117.79   14.80
   2   5   1   88.49   17.80
   2   5   1   90.49   18.20
  -2  -4  -1  140.59   15.60
   2   4   1  143.39   17.50
   2   4   1  147.29   17.90
  -2  -3  -1  144.19   14.70
  -2  -3  -1  128.79   13.30
  -2  -3  -1  131.19   13.90
   2   3   1  115.29   14.30
   2   3   1  119.89   14.10
   2   3   1  120.39   13.40
  -2  -2  -1  475.25   31.00
  -2  -2  -1  489.05   33.30
   2   2   1  480.35   32.10
   2   2   1  443.16   32.80
   2   2   1  504.35   32.80
  -2  -1  -1   43.60    5.30
  -2  -1  -1   32.50    7.40
  -2  -1  -1   43.40    5.80
   2   1   1   42.70    5.40
   2   1   1   35.80    5.40
   2   1   1   35.00    7.20
  -2   0  -1  627.14   37.00
  -2   0  -1  598.04   38.30
  -2   0  -1  662.63   43.80
   2   0   1  650.03   37.30
   2   0   1  673.33   43.30
   2   0   1  674.73   38.80
  -2   1  -1   34.80    9.00
  -2   1  -1   35.40    3.90
  -2   1  -1   25.80    6.10
   2  -1   1   35.20    6.70
   2  -1   1   49.80   10.30
   2  -1   1   38.60    4.10
   2  -1   1   43.80    8.00
  -2   2  -1  481.55   34.50
  -2   2  -1  408.46   35.60
  -2   2  -1  444.36   28.00
   2  -2   1  364.16   33.50
   2  -2   1  416.56   31.90
   2  -2   1  438.06   27.30
   2  -2   1  463.75   27.70
  -2   3  -1  130.69   16.60
  -2   3  -1  112.19   17.70
   2  -3   1  119.89   11.90
   2  -3   1  115.09   15.20
   2  -3   1  109.09   11.60
  -2   4  -1  162.48   21.60
  -2   4  -1  145.99   21.20
   2  -4   1  157.08   20.30
   2  -4   1  131.49   15.00
  -2   5  -1  102.79   21.50
  -2   5  -1  102.59   22.70
   2  -5   1   97.29   20.70
   2  -5   1  136.79   16.80
  -2   6  -1  904.91   72.79
  -2   6  -1  939.21   72.99
   2  -6   1  827.92   68.39
   2  -6   1  819.42   61.39
  -2   7  -1  136.49   30.20
  -2   7  -1   83.59   23.90
   2  -7   1   67.19   17.50
   2  -7   1   87.19   22.20
   2  -7   1   69.59   20.70
  -2   8  -1    5.70   16.70
  -2   8  -1   48.70   18.60
   2  -8   1   52.29   13.90
   2  -8   1   17.30   14.80
   2  -8   1   11.20   11.90
  -3  -7  -1   67.59   18.90
  -3  -7  -1   70.69   16.60
   3   7   1   59.39   16.50
   3   7   1   64.59   17.20
  -3  -6  -1  946.41   65.79
   3   6   1  789.12   65.89
   3   6   1  873.01   65.49
  -3  -5  -1  142.59   18.60
   3   5   1  122.19   20.80
   3   5   1   92.99   19.00
  -3  -4  -1  382.06   32.00
   3   4   1  323.47   31.00
   3   4   1  362.06   30.60
  -3  -3  -1 1704.03  100.09
  -3  -3  -1 1782.12   94.89
   3   3   1 1517.75   98.49
   3   3   1 1592.04   96.19
   3   3   1 1603.04  101.89
  -3  -2  -1  764.92   45.00
  -3  -2  -1  763.42   50.89
   3   2   1  728.03   48.90
   3   2   1  674.33   47.60
   3   2   1  738.53   46.00
  -3  -1  -1  558.34   36.40
  -3  -1  -1  583.94   35.60
   3   1   1  549.54   35.50
   3   1   1  582.74   41.00
   3   1   1  583.74   37.30
  -3   0  -1   88.89    9.60
  -3   0  -1   91.29    8.60
  -3   0  -1   73.59   14.40
   3   0   1  104.09   10.10
   3   0   1   92.79    9.00
   3   0   1   71.19   11.50
  -3   1  -1  566.04   44.20
  -3   1  -1  480.25   35.60
  -3   1  -1  529.95   32.40
   3  -1   1  561.24   38.60
   3  -1   1  527.55   36.50
   3  -1   1  572.34   32.80
  -3   2  -1  682.83   43.20
  -3   2  -1  713.23   55.59
   3  -2   1  741.33   42.70
   3  -2   1  709.13   49.00
  -3   3  -1 1532.05   92.59
  -3   3  -1 1648.54  102.69
  -3   3  -1 1533.55  105.89
   3  -3   1 1627.54  100.89
   3  -3   1 1637.44   91.79
   3  -3   1 1659.33   92.39
  -3   4  -1  355.76   36.10
  -3   4  -1  383.86   39.50
   3  -4   1  387.86   28.60
   3  -4   1  312.47   33.10
  -3   5  -1  109.39   24.00
  -3   5  -1  116.29   26.30
   3  -5   1  142.99   21.60
   3  -5   1  123.59   15.70
  -3   6  -1  867.01   73.29
  -3   6  -1  863.61   74.49
   3  -6   1  838.42   70.89
   3  -6   1  876.71   61.19
  -3   7  -1   35.90   14.30
  -3   7  -1   63.69   24.60
   3  -7   1   68.89   19.00
   3  -7   1   70.89   16.60
  -4  -7  -1  100.19   19.00
   4   7   1   59.99   19.10
   4   7   1   98.39   22.90
  -4  -6  -1   16.90   11.40
   4   6   1   25.90   10.60
   4   6   1   10.00   10.90
  -4  -5  -1   36.90   12.30
   4   5   1   32.70   11.10
   4   5   1   42.00   11.10
  -4  -4  -1   77.29   16.30
   4   4   1   63.29   15.10
   4   4   1   65.49   13.20
  -4  -3  -1  236.98   18.80
  -4  -3  -1  199.38   23.10
   4   3   1  189.08   21.20
   4   3   1  203.18   19.60
  -4  -2  -1  213.18   16.80
  -4  -2  -1  219.78   23.50
   4   2   1  183.08   17.10
   4   2   1  174.88   18.70
  -4  -1  -1  282.27   22.10
  -4  -1  -1  291.97   29.40
   4   1   1  312.97   22.50
   4   1   1  303.37   23.90
  -4   0  -1  339.77   24.90
  -4   0  -1  358.76   34.60
   4   0   1  375.36   26.20
   4   0   1  398.06   27.40
  -4   1  -1  295.07   31.80
  -4   1  -1  281.27   20.40
   4  -1   1  296.47   21.00
   4  -1   1  284.77   24.20
  -4   2  -1  183.98   25.40
  -4   2  -1  189.38   16.30
   4  -2   1  209.78   16.20
   4  -2   1  200.48   21.00
  -4   3  -1  187.18   27.00
   4  -3   1  185.58   16.60
   4  -3   1  201.78   23.20
  -4   4  -1   89.29   19.00
  -4   4  -1   88.79   25.20
   4  -4   1   54.49   14.80
   4  -4   1   86.09   10.90
  -4   5  -1   35.00   14.90
  -4   5  -1   46.30   18.00
   4  -5   1   57.69   15.20
   4  -5   1   36.80   10.10
  -4   6  -1   25.10   13.50
  -4   6  -1   20.20   13.20
   4  -6   1   14.90    7.90
   4  -6   1   20.80   12.00
  -4   7  -1   69.89   28.40
   4  -7   1   63.19   20.20
   4  -7   1   85.29   17.20
  -5  -7  -1   25.20   15.70
   5   7   1   68.89   17.80
   5   7   1   46.50   19.30
  -5  -6  -1  108.49   25.00
   5   6   1   69.49   18.90
   5   6   1   95.09   21.50
  -5  -5  -1   75.59   19.10
   5   5   1   78.79   19.80
   5   5   1   74.89   15.70
  -5  -4  -1   29.80   10.70
   5   4   1   20.90   10.40
   5   4   1   25.60    9.30
  -5  -3  -1  185.48   24.70
   5   3   1  171.08   20.90
   5   3   1  205.18   19.30
  -5  -2  -1  756.32   58.09
   5   2   1  730.53   46.80
   5   2   1  676.13   49.99
  -5  -1  -1 1077.29   80.59
   5   1   1 1183.58   69.29
   5   1   1 1165.08   71.69
  -5   0  -1  442.76   43.60
   5   0   1  444.36   32.70
   5   0   1  493.95   34.10
  -5   1  -1 1080.29   83.89
   5  -1   1 1187.28   72.69
   5  -1   1 1124.09   67.69
  -5   2  -1  733.83   64.89
   5  -2   1  763.32   47.60
   5  -2   1  759.02   54.99
  -5   3  -1  198.28   30.90
   5  -3   1  218.78   26.10
   5  -3   1  228.68   19.20
  -5   4  -1   28.80   14.40
   5  -4   1   18.00    9.00
   5  -4   1   31.50    7.80
  -5   5  -1  121.59   31.30
   5  -5   1   65.59   20.80
   5  -5   1   77.79   14.30
  -5   6  -1  117.19   31.90
   5  -6   1  142.89   17.50
   5  -6   1  121.09   29.30
  -5   7  -1   17.70   21.30
   5  -7   1   61.89   15.70
   5  -7   1  103.09   23.10
  -6  -6  -1  166.18   31.90
   6   6   1  160.68   23.80
   6   6   1  109.59   25.40
  -6  -5  -1  305.97   36.40
   6   5   1  238.88   29.40
   6   5   1  246.98   26.10
  -6  -4  -1   55.29   18.80
   6   4   1   55.09   12.50
   6   4   1   39.80   12.70
  -6  -3  -1  707.53   58.99
   6   3   1  677.43   52.19
   6   3   1  624.74   45.80
  -6  -2  -1  496.35   48.80
   6   2   1  514.45   41.50
   6   2   1  534.25   37.40
  -6  -1  -1  399.06   42.40
   6   1   1  374.56   32.00
   6   1   1  414.76   30.80
  -6   0  -1   -1.60    5.00
   6   0   1    1.30    3.50
   6   0   1   -1.40    4.10
  -6   1  -1  357.46   42.90
   6  -1   1  414.66   34.30
   6  -1   1  436.56   31.60
  -6   2  -1  518.25   55.29
   6  -2   1  526.35   44.50
   6  -2   1  578.24   38.70
  -6   3  -1  673.83   68.39
   6  -3   1  754.12   48.60
   6  -3   1  713.83   58.49
  -6   4  -1   31.50   18.70
   6  -4   1   33.90   13.00
   6  -4   1   38.50   10.30
  -6   5  -1  322.57   45.60
   6  -5   1  259.47   35.50
   6  -5   1  286.07   26.30
  -6   6  -1  156.38   36.90
   6  -6   1  170.38   36.80
   6  -6   1  176.98   20.10
  -7  -6  -1   53.39   20.90
   7   6   1   33.90   10.30
  -7  -5  -1   13.00   14.10
   7   5   1   38.50   13.70
   7   5   1   26.60   11.90
  -7  -4  -1  159.88   32.00
   7   4   1  157.88   22.90
   7   4   1  131.29   18.70
  -7  -3  -1  234.08   33.70
   7   3   1  254.87   28.60
   7   3   1  287.37   24.50
  -7  -2  -1  729.63   64.99
   7   2   1  716.03   49.30
   7   2   1  680.93   53.09
  -7  -1  -1  294.67   37.50
   7   1   1  307.27   28.60
   7   1   1  292.67   25.80
  -7   0  -1  240.68   35.50
   7   0   1  277.07   26.00
   7   0   1  313.97   27.30
  -7   1  -1  313.47   42.50
   7  -1   1  322.47   30.20
   7  -1   1  312.97   27.40
  -7   2  -1  723.93   71.29
   7  -2   1  736.33   57.49
   7  -2   1  766.12   51.29
  -7   3  -1  306.07   43.00
   7  -3   1  295.87   34.70
   7  -3   1  302.57   26.80
  -7   4  -1  193.88   44.50
   7  -4   1  190.38   19.80
   7  -4   1  172.88   25.80
  -7   5  -1    4.70   15.10
   7  -5   1   30.80   15.90
   7  -5   1   43.70   12.30
  -7   6  -1   38.80   16.90
   7  -6   1   54.29   12.80
   7  -6   1   36.90   14.90
  -8  -5  -1   63.09   20.20
   8   5   1   52.39   14.60
  -8  -4  -1  318.47   42.40
   8   4   1  311.87   30.50
   8   4   1  330.47   36.90
  -8  -3  -1  132.89   29.90
   8   3   1   80.09   19.30
   8   3   1   80.09   15.90
  -8  -2  -1   79.39   27.00
   8   2   1  122.19   22.20
   8   2   1  158.58   16.90
  -8  -1  -1   35.50   15.00
   8   1   1   22.00   10.20
   8   1   1   32.00    9.90
  -8   0  -1  571.84   64.69
   8   0   1  682.73   51.59
   8   0   1  771.72   52.59
  -8   1  -1   18.60   19.10
   8  -1   1   22.80    9.40
   8  -1   1   49.99   13.00
  -8   2  -1  114.29   31.40
   8  -2   1   94.29   17.20
   8  -2   1  125.69   22.90
  -8   3  -1   86.89   25.80
   8  -3   1   95.09   22.60
   8  -3   1   80.69   16.60
  -8   4  -1  395.06   55.59
   8  -4   1  418.16   45.70
   8  -4   1  360.76   32.80
  -8   5  -1   31.20   23.10
   8  -5   1   24.80   14.70
  -9  -4  -1   48.20   25.90
   9   4   1   58.99   15.10
  -9  -3  -1   31.70   22.00
   9   3   1   41.20   11.70
   9   3   1   42.70   13.40
  -9  -2  -1    7.30   12.60
   9   2   1   31.40   13.60
   9   2   1    7.50    8.40
  -9  -1  -1   83.89   19.90
   9   1   1   54.69   16.60
   9   1   1   99.79   14.80
  -9   0  -1  105.59   32.80
   9   0   1  163.98   22.70
   9   0   1  235.18   25.60
  -9   1  -1   55.79   20.30
   9  -1   1   95.59   18.90
   9  -1   1   93.29   19.30
  -9   2  -1  -17.00   12.30
   9  -2   1    8.40    8.10
   9  -2   1   21.60    8.10
  -9   3  -1   56.39   23.10
   9  -3   1   52.29   12.90
   9  -3   1   13.20   13.20
  -9   4  -1   -1.20   16.10
   9  -4   1   51.39   11.90
   9  -4   1   31.50   13.60
 -10  -2  -1   20.40   16.80
  10   2   1   -2.20    9.60
  10   2   1   15.30   12.70
 -10  -1  -1  169.48   39.20
  10   1   1  115.39   20.80
  10   1   1  116.89   24.20
 -10   0  -1   56.79   21.50
  10   0   1    8.60   10.00
  10   0   1   14.90   10.70
 -10   1  -1   92.79   22.80
  10  -1   1   99.89   24.10
  10  -1   1  137.59   24.20
 -10   2  -1   30.80   22.80
  10  -2   1   10.30    9.30
  10  -2   1   26.20   11.80
  11  -2  -2  102.29   21.70
  11  -2  -2   51.59   17.90
  11  -1  -2   10.40   10.60
  11  -1  -2   15.90   13.20
 -11   1   2  -14.10   22.60
  11   0  -2  235.38   30.20
  11   0  -2  283.17   28.50
 -11   0   2  220.98   48.40
  11   1  -2    5.10   11.00
  11   1  -2   10.70   13.10
 -11  -1   2   53.99   19.60
  11   2  -2   84.39   20.70
  10  -3  -2   -6.80    8.30
  10  -3  -2   31.40   14.30
 -10   3   2   15.80   23.10
  10  -2  -2  273.97   31.60
  10  -2  -2  351.26   35.70
 -10   2   2  220.28   48.00
  10  -1  -2   25.20   12.10
  10  -1  -2   41.80   13.00
 -10   1   2   39.50   17.80
  10   0  -2  128.49   24.00
  10   0  -2  145.49   17.40
 -10   0   2  127.19   33.80
  10   1  -2   17.40   11.90
  10   1  -2   23.50    9.70
 -10  -1   2    0.80   17.50
  10   2  -2  256.87   25.30
  10   2  -2  264.57   31.90
 -10  -2   2  278.67   42.90
  10   3  -2    1.00    4.50
 -10  -3   2   -6.50    9.90
   9  -5  -2   11.80   10.70
  -9   5   2   -9.90   20.60
   9  -4  -2  125.29   27.80
   9  -4  -2  133.69   23.50
  -9   4   2   69.79   29.80
   9  -3  -2   83.69   22.90
   9  -3  -2  106.19   20.40
  -9   3   2  105.19   27.90
   9  -2  -2  353.96   36.80
   9  -2  -2  408.76   35.90
  -9   2   2  328.17   48.70
   9  -1  -2   62.39   14.40
   9  -1  -2   51.79   14.40
  -9   1   2   74.39   19.30
   9   0  -2  497.95   37.20
   9   0  -2  471.15   40.40
  -9   0   2  348.77   49.99
   9   1  -2   54.19   14.60
   9   1  -2   52.99   11.00
  -9  -1   2   59.19   21.40
   9   2  -2  402.36   38.00
  -9  -2   2  295.97   41.70
   9   3  -2   53.19   15.70
  -9  -3   2   90.19   25.90
   9   4  -2   98.99   23.70
  -9  -4   2  116.39   27.50
   9   5  -2   23.10   10.10
  -9  -5   2    7.20   14.50
   8  -5  -2  270.17   29.60
   8  -5  -2  268.47   37.60
  -8   5   2  267.47   40.80
   8  -4  -2   55.79   17.60
   8  -4  -2   29.80    9.40
  -8   4   2   45.00   20.60
   8  -3  -2  177.88   31.50
   8  -3  -2  227.28   23.80
  -8   3   2  200.48   42.20
   8  -2  -2   67.19   14.00
   8  -2  -2   85.69   18.40
  -8   2   2   49.60   19.50
   8  -1  -2   22.60   10.00
   8  -1  -2   21.00    8.90
  -8   1   2    3.20    9.90
   8   0  -2  165.78   17.30
   8   0  -2  157.08   19.20
  -8   0   2  159.08   34.60
   8   1  -2   22.90    7.10
   8   1  -2   28.90    9.20
  -8  -1   2    9.70   12.40
   8   2  -2   79.99   17.90
   8   2  -2   56.99    8.20
   8   2  -2   58.59   10.80
  -8  -2   2   70.39   24.30
   8   3  -2  151.18   11.50
   8   3  -2  177.68   24.20
   8   3  -2  195.28   12.20
  -8  -3   2  149.19   33.00
   8   4  -2   23.30   12.70
  -8  -4   2   53.09   12.90
   8   5  -2  243.48   31.10
  -8  -5   2  214.08   34.10
   7  -6  -2   58.89   18.20
   7  -6  -2   85.49   18.40
  -7   6   2   79.79   24.90
  -7   6   2   34.10   18.00
   7  -5  -2  417.76   46.80
   7  -5  -2  415.96   36.30
  -7   5   2  395.96   45.40
  -7   5   2  328.37   49.30
   7  -4  -2   13.60    5.80
   7  -4  -2    9.80   11.00
  -7   4   2   48.80   20.60
  -7   4   2    2.60   10.30
   7  -3  -2  447.16   35.80
   7  -3  -2  438.16   42.70
  -7   3   2  346.57   45.30
  -7   3   2  478.05   45.40
   7  -2  -2   38.40   13.30
   7  -2  -2   22.30    8.20
  -7   2   2   22.80   15.70
   7  -1  -2  371.36   30.20
   7  -1  -2  354.96   30.90
  -7   1   2  281.17   37.50
   7   0  -2   78.09   11.40
   7   0  -2   80.19   14.80
  -7   0   2   79.39   21.40
   7   1  -2  337.47   31.20
   7   1  -2  388.36   26.20
   7   1  -2  340.97   27.20
  -7  -1   2  348.37   40.30
   7   2  -2   29.30    7.00
   7   2  -2   26.30    6.20
   7   2  -2   26.70    9.20
  -7  -2   2   34.20   14.10
   7   3  -2  416.16   37.70
   7   3  -2  383.16   22.00
   7   3  -2  342.37   21.80
  -7  -3   2  420.86   43.90
   7   4  -2    8.90    7.80
  -7  -4   2   29.20   11.90
   7   5  -2  404.06   40.30
  -7  -5   2  342.57   43.60
   7   6  -2  100.29   23.30
  -7  -6   2   56.89   19.00
   6  -7  -2  198.88   25.60
   6  -7  -2  259.87   36.50
  -6   7   2  135.39   34.80
  -6   7   2  176.48   37.40
   6  -6  -2   14.20   12.30
   6  -6  -2   -1.20    7.30
  -6   6   2   22.30   13.40
  -6   6   2  -17.20   13.50
   6  -5  -2  279.17   35.60
   6  -5  -2  295.07   29.10
  -6   5   2  290.27   37.40
  -6   5   2  315.07   41.70
   6  -4  -2  162.08   19.30
   6  -4  -2  145.29   27.80
  -6   4   2  134.39   30.50
  -6   4   2  173.18   30.80
   6  -3  -2  818.92   63.69
   6  -3  -2  830.32   55.99
  -6   3   2  839.42   65.29
  -6   3   2  805.22   70.79
   6  -2  -2   37.50   10.60
   6  -2  -2   59.79   11.50
  -6   2   2   32.40   13.60
  -6   2   2   41.30   11.90
   6  -1  -2  381.06   29.50
   6  -1  -2  347.97   30.20
  -6   1   2  375.86   40.30
   6   0  -2  149.99   16.60
   6   0  -2  174.58   16.20
  -6   0   2  129.79   26.20
   6   1  -2  392.96   25.30
   6   1  -2  325.17   26.10
   6   1  -2  381.56   30.80
  -6  -1   2  384.76   38.90
   6   2  -2   55.09   12.60
   6   2  -2   48.60    6.20
   6   2  -2   48.80    6.50
  -6  -2   2   52.89   15.90
   6   3  -2  760.12   57.09
  -6  -3   2  785.52   63.89
   6   4  -2  112.59   17.40
  -6  -4   2  171.98   25.50
   6   5  -2  251.47   31.50
  -6  -5   2  341.97   39.30
   6   6  -2    9.10    6.90
  -6  -6   2    9.50   11.50
   6   7  -2  245.18   31.00
  -6  -7   2  189.48   37.40
   5  -7  -2  116.19   26.00
   5  -7  -2  107.59   21.90
  -5   7   2   86.09   27.50
  -5   7   2  114.09   27.80
   5  -6  -2   57.99   20.60
   5  -6  -2  138.29   18.90
  -5   6   2  124.89   29.00
  -5   6   2  103.19   28.40
   5  -5  -2   54.09   17.40
   5  -5  -2   72.49   14.90
  -5   5   2   56.19   19.70
  -5   5   2   67.29   19.20
   5  -4  -2  249.38   24.30
   5  -4  -2  249.97   30.40
  -5   4   2  255.07   34.70
  -5   4   2  261.57   31.60
   5  -3  -2  200.58   24.60
   5  -3  -2  186.58   19.50
  -5   3   2  193.28   27.20
  -5   3   2  247.98   27.40
   5  -2  -2  276.07   27.00
   5  -2  -2  272.47   22.60
  -5   2   2  251.27   30.10
  -5   2   2  231.08   25.90
   5  -1  -2 1140.49   76.59
   5  -1  -2 1334.17   75.69
  -5   1   2 1247.88   87.19
  -5   1   2 1292.17   79.29
   5   0  -2  244.98   20.50
   5   0  -2  220.78   19.90
   5   0  -2  218.68   18.70
  -5   0   2  266.07   28.30
   5   1  -2 1342.57   70.99
   5   1  -2 1305.77   77.79
   5   1  -2 1143.49   72.09
  -5  -1   2 1296.77   86.49
   5   2  -2  244.68   15.80
   5   2  -2  234.78   15.80
   5   2  -2  267.27   24.30
  -5  -2   2  287.27   29.40
   5   3  -2  195.58   21.00
  -5  -3   2  157.88    9.70
  -5  -3   2  183.18   23.40
   5   4  -2  243.68   17.30
   5   4  -2  236.18   26.50
  -5  -4   2  238.08   30.10
  -5  -4   2  287.67   16.70
   5   5  -2   87.69   18.50
   5   5  -2   77.09   10.50
  -5  -5   2   67.09   18.00
  -5  -5   2   71.99    8.50
   5   6  -2  117.49   15.10
   5   6  -2   79.79   20.10
  -5  -6   2   71.09   19.10
  -5  -6   2   94.09   11.70
   5   7  -2   98.79   24.60
  -5  -7   2  117.59   24.10
   4  -7  -2   44.60   16.50
   4  -7  -2   45.30   13.10
  -4   7   2   56.19   20.40
  -4   7   2   59.99   19.10
   4  -6  -2  297.17   36.10
   4  -6  -2  260.07   28.40
  -4   6   2  273.27   37.60
  -4   6   2  230.48   31.70
   4  -5  -2   34.20   10.20
  -4   5   2   36.90   14.10
  -4   5   2   30.50   13.60
   4  -4  -2  268.17   24.90
  -4   4   2  256.67   30.50
  -4   4   2  265.47   30.90
   4  -3  -2   36.70    8.40
  -4   3   2   26.30   11.00
  -4   3   2   32.70   10.50
   4  -2  -2 3684.03  201.08
  -4   2   2 3620.24  211.98
  -4   2   2 3694.93  207.88
   4  -1  -2  357.06   25.90
   4  -1  -2  370.46   28.30
   4  -1  -2  316.47   27.30
  -4   1   2  351.26   32.70
  -4   1   2  413.36   30.00
   4   0  -2  163.58   14.30
   4   0  -2  159.08   15.00
   4   0  -2  182.88   15.80
  -4   0   2  192.68   21.00
  -4   0   2  191.28   15.80
   4   1  -2  375.86   28.10
   4   1  -2  413.46   22.90
   4   1  -2  344.27   23.50
  -4  -1   2  404.76   33.90
   4   2  -2 3577.94  204.28
  -4  -2   2 3818.42  211.18
   4   3  -2   26.60    4.30
   4   3  -2   37.80    9.60
  -4  -3   2   44.70    3.90
  -4  -3   2   28.10   10.40
   4   4  -2  244.98   25.80
   4   4  -2  240.48   19.30
  -4  -4   2  281.37   18.40
  -4  -4   2  226.38   26.80
   4   5  -2   63.89   15.20
   4   5  -2   24.40    7.60
  -4  -5   2   37.90   13.20
  -4  -5   2   31.90    7.90
   4   6  -2  259.67   30.20
   4   6  -2  273.47   25.90
  -4  -6   2  215.38   21.80
  -4  -6   2  232.68   30.90
   4   7  -2   49.30   15.80
   4   7  -2   44.00   16.10
  -4  -7   2   62.99   20.10
  -4  -7   2   52.39   12.30
   3  -7  -2   20.60   11.60
   3  -7  -2   24.70   12.80
  -3   7   2   18.10   10.70
  -3   7   2    8.70   10.20
   3  -6  -2  106.19   21.20
  -3   6   2  117.79   27.40
  -3   6   2  140.29   26.90
   3  -5  -2   76.29   15.50
  -3   5   2   60.89   17.50
  -3   5   2   65.09   19.10
   3  -4  -2  150.98   17.30
  -3   4   2  151.98   21.00
  -3   4   2  123.29   19.40
   3  -3  -2  202.88   19.00
  -3   3   2  207.78   23.30
  -3   3   2  192.18   22.70
   3  -2  -2 1954.40  105.29
   3  -2  -2 1882.61  110.39
  -3   2   2 1759.32  109.39
  -3   2   2 1762.22  110.89
   3  -1  -2 1231.28   74.99
   3  -1  -2 1324.47   78.19
  -3   1   2 1232.08   72.29
  -3   1   2 1259.57   75.59
  -3   1   2 1280.17   78.89
   3   0  -2 1952.60  109.79
   3   0  -2 1849.91  104.19
   3   0  -2 1797.22  103.59
  -3   0   2 1870.31  103.89
  -3   0   2 2016.80  110.99
  -3   0   2 1824.32  103.89
   3   1  -2 1402.06   70.19
   3   1  -2 1223.28   70.49
   3   1  -2 1356.76   80.79
   3   1  -2 1332.57   76.39
  -3  -1   2 1371.96   81.59
  -3  -1   2 1278.07   75.69
   3   2  -2 1835.72  108.39
  -3  -2   2 1966.10  113.29
   3   3  -2  209.78   19.90
   3   3  -2  190.38   14.90
  -3  -3   2  193.58   14.00
  -3  -3   2  199.78   21.50
   3   4  -2  136.99   17.40
   3   4  -2  150.98   15.10
  -3  -4   2  156.58   19.80
  -3  -4   2  141.69   13.80
   3   5  -2   56.99   14.10
   3   5  -2   81.49   14.70
  -3  -5   2   83.19   19.20
  -3  -5   2   66.89   12.30
   3   6  -2  103.59   21.00
   3   6  -2  100.59   18.60
  -3  -6   2  137.49   21.10
  -3  -6   2   97.69   17.50
   3   7  -2   34.70   11.70
   3   7  -2    7.80   10.90
  -3  -7   2   26.20    6.40
  -3  -7   2   23.30   13.60
   2  -8  -2   20.80   13.30
   2  -8  -2    8.10    8.30
   2  -8  -2   34.70   11.90
  -2   8   2   54.39   23.40
   2  -7  -2  102.19   20.10
   2  -7  -2   81.69   18.80
  -2   7   2   85.19   24.00
  -2   7   2   94.49   21.20
   2  -6  -2  104.49   20.50
  -2   6   2  107.49   23.90
  -2   6   2  117.99   22.10
   2  -5  -2  220.68   24.20
  -2   5   2  191.78   26.00
  -2   5   2  199.58   23.70
   2  -4  -2  290.97   26.60
  -2   4   2  275.27   26.90
  -2   4   2  299.77   30.80
   2  -3  -2 2117.39  117.29
   2  -3  -2 2040.00  118.69
  -2   3   2 1961.90  121.49
  -2   3   2 1973.00  118.39
   2  -2  -2 1334.97   76.29
   2  -2  -2 1317.27   79.49
   2  -2  -2 1366.06   78.29
  -2   2   2 1252.07   76.19
  -2   2   2 1314.67   79.99
  -2   2   2 1239.58   77.99
   2  -1  -2 4991.50  249.38
   2  -1  -2 4524.35  248.48
  -2   1   2 4385.56  248.48
  -2   1   2 4321.27  245.98
  -2   1   2 4856.11  249.78
   2   1  -2 4933.21  255.67
  -2  -1   2 4691.83  255.37
  -2  -1   2 4545.35  251.17
   2   2  -2 1380.76   78.69
   2   2  -2 1466.55   82.49
   2   2  -2 1385.86   74.19
  -2  -2   2 1209.28   73.19
  -2  -2   2 1442.36   83.39
  -2  -2   2 1294.77   73.99
  -2  -2   2 1302.37   77.59
  -2  -2   2 1409.76   82.09
   2   3  -2 2065.69  113.39
   2   3  -2 2008.30  116.59
  -2  -3   2 1884.21  111.79
  -2  -3   2 2232.98  121.19
  -2  -3   2 1969.00  112.69
   2   4  -2  316.77   26.90
   2   4  -2  283.57   24.40
  -2  -4   2  310.37   28.50
  -2  -4   2  245.08   22.40
  -2  -4   2  269.17   22.70
   2   5  -2  249.28   24.50
   2   5  -2  212.48   23.90
  -2  -5   2  204.68   21.60
  -2  -5   2  241.88   26.80
   2   6  -2   97.19   18.00
   2   6  -2  134.49   23.70
  -2  -6   2   89.09   16.40
  -2  -6   2   87.49   20.30
   2   7  -2  113.09   23.10
   2   7  -2  129.19   18.30
  -2  -7   2  126.59   24.60
  -2  -7   2   93.49   19.50
  -2  -7   2   94.89   22.30
   2   8  -2    4.80   11.10
   2   8  -2    6.70   13.10
  -2  -8   2   32.30   13.20
  -2  -8   2   -1.20   10.30
  -2  -8   2    8.30    9.80
   1  -8  -2    9.70   10.70
   1  -8  -2   22.20   10.90
  -1   8   2   34.30   15.80
   1  -7  -2  136.69   26.40
   1  -7  -2  185.28   23.10
  -1   7   2  148.99   30.30
   1  -6  -2  261.17   26.00
   1  -6  -2  216.68   28.00
  -1   6   2  241.98   31.00
  -1   6   2  232.48   27.10
   1  -5  -2  241.38   22.00
   1  -5  -2  224.48   25.70
  -1   5   2  196.38   26.60
  -1   5   2  231.48   23.70
   1  -4  -2  464.35   36.20
   1  -4  -2  438.66   34.40
  -1   4   2  396.76   32.40
  -1   4   2  387.86   37.00
  -1   4   2  515.85   36.60
   1  -3  -2 1251.17   76.89
   1  -3  -2 1253.17   75.09
  -1   3   2 1265.77   74.39
  -1   3   2 1209.28   79.39
  -1   3   2 1292.17   76.29
   1  -2  -2    5.00    2.50
   1  -2  -2    8.30    3.40
   1  -2  -2    6.70    3.10
   1  -2  -2    9.60    3.70
  -1   2   2   10.20    4.40
  -1   2   2    8.80    3.00
  -1   2   2    5.20    2.70
   1  -1  -2  269.97   17.30
   1  -1  -2  247.28   19.30
   1  -1  -2  249.68   18.30
  -1   1   2  273.57   18.70
  -1   1   2  275.47   20.00
  -1   1   2  284.17   17.80
  -1   0   2 3797.42  202.48
   1   1  -2  282.67   20.90
   1   1  -2  273.87   19.90
   1   1  -2  284.57   17.30
   1   1  -2  256.57   15.90
  -1  -1   2  242.78   20.00
  -1  -1   2  286.37   16.10
  -1  -1   2  228.28   19.10
  -1  -1   2  241.18   16.70
   1   2  -2    2.40    2.30
   1   2  -2    6.10    2.90
   1   2  -2    8.20    3.80
  -1  -2   2   12.20    3.70
  -1  -2   2    8.70    2.60
  -1  -2   2    7.40    3.00
  -1  -2   2   12.20    4.20
  -1  -2   2    5.20    2.20
   1   3  -2 1327.77   75.99
   1   3  -2 1261.77   75.29
   1   3  -2 1408.16   82.39
  -1  -3   2 1147.99   73.69
  -1  -3   2 1294.87   79.29
  -1  -3   2 1183.58   74.79
   1   4  -2  450.55   35.20
   1   4  -2  518.75   41.60
   1   4  -2  465.15   36.20
  -1  -4   2  472.45   38.70
  -1  -4   2  440.36   34.50
   1   5  -2  241.88   28.20
   1   5  -2  272.57   25.60
   1   5  -2  219.28   24.90
  -1  -5   2  219.18   25.50
  -1  -5   2  203.88   22.90
   1   6  -2  222.98   25.40
   1   6  -2  211.68   26.60
  -1  -6   2  229.98   26.60
  -1  -6   2  215.08   27.60
  -1  -6   2  203.38   24.30
   1   7  -2  234.78   30.60
   1   7  -2  191.78   25.70
  -1  -7   2  136.79   26.60
  -1  -7   2  207.98   27.50
  -1  -7   2  196.48   26.10
   1   8  -2    9.00   10.80
  -1  -8   2    2.90   10.00
  -1  -8   2    8.30    9.70
  -1  -8   2   -4.60    7.60
   0   8   2   71.69   22.40
   0  -7  -2  144.09   19.10
   0  -7  -2  108.59   23.90
   0   7   2  124.39   27.80
   0   7   2  124.59   25.10
   0  -6  -2  309.17   34.40
   0  -6  -2  328.67   30.10
   0   6   2  346.57   34.40
   0   6   2  359.66   38.40
   0  -5  -2 1081.69   65.59
   0  -5  -2  994.40   71.79
   0   5   2 1046.50   70.99
   0   5   2  945.61   72.59
   0  -4  -2   11.20    3.90
   0  -4  -2    3.40    3.40
   0  -4  -2    4.00    3.40
   0   4   2    4.10    3.80
   0   4   2   -2.20    5.00
   0  -3  -2   46.60    8.40
   0  -3  -2   42.00    6.30
   0  -3  -2   41.20    9.40
   0   3   2   72.49   13.40
   0   3   2   66.59    9.50
   0  -2  -2  149.19   14.10
   0  -2  -2  146.69   13.60
   0  -2  -2  157.28   14.30
   0  -2  -2  132.19   10.40
   0  -2  -2  154.68   10.20
   0   2   2  136.89   13.30
   0   2   2  142.79   14.60
   0  -1  -2 5974.70  317.57
   0   0  -2  240.18   16.80
   0   0  -2  268.47   16.30
   0   0  -2  241.48   14.60
   0   0   2  230.68   14.50
   0   0   2  233.88   16.70
   0   0   2  247.48   16.10
   0   1  -2 5144.09  273.87
   0  -1   2 5014.40  273.67
   0   2  -2  149.88   11.70
   0   2  -2  141.99   16.00
   0  -2   2  148.79   16.00
   0  -2   2  147.59   13.10
   0  -2   2  144.39   11.50
   0  -2   2  129.79   13.10
   0   3  -2   66.19   14.00
   0   3  -2   50.59   10.10
   0   3  -2   61.09    8.10
   0  -3   2   56.29    7.40
   0  -3   2   44.10    9.30
   0  -3   2   44.50    9.40
   0   4  -2    2.60    4.30
   0   4  -2    1.70    3.20
   0   4  -2   -0.70    3.60
   0  -4   2   -2.10    3.00
   0  -4   2    8.70    3.10
   0   5  -2 1095.19   74.39
   0   5  -2 1119.79   78.09
   0   5  -2 1029.40   68.59
   0  -5   2  958.20   68.69
   0  -5   2 1022.80   71.49
   0  -5   2 1057.39   73.99
   0   6  -2  325.87   31.90
   0   6  -2  343.57   38.80
   0   6  -2  345.57   36.30
   0  -6   2  353.66   35.80
   0  -6   2  320.97   35.40
   0  -6   2  319.97   32.50
   0   7  -2  161.08   21.10
   0   7  -2  160.98   30.10
   0   7  -2  153.38   31.30
   0  -7   2  137.29   25.00
   0  -7   2  141.09   26.60
   0  -7   2  169.38   24.30
   0  -8   2   23.50   14.40
   0  -8   2   38.20   15.80
   0  -8   2   31.40   16.00
  -1  -8  -2    4.80    9.70
   1   8   2   15.20   11.90
   1   8   2   24.90   15.30
  -1  -7  -2   45.50   14.30
  -1  -7  -2   60.89   14.00
   1   7   2   43.10   13.30
   1   7   2   38.60   15.80
  -1  -6  -2  381.96   39.10
  -1  -6  -2  396.36   33.40
   1   6   2  337.07   35.90
   1   6   2  415.86   40.80
  -1  -5  -2  504.55   47.20
  -1  -5  -2  659.43   43.60
   1   5   2  643.94   48.90
   1   5   2  586.54   49.20
  -1  -4  -2  373.36   30.50
  -1  -4  -2  432.66   30.10
   1   4   2  409.66   35.00
   1   4   2  390.66   33.50
  -1  -3  -2  476.65   31.50
  -1  -3  -2  497.65   31.40
   1   3   2  424.36   35.10
   1   3   2  476.35   35.30
  -1  -2  -2 1473.45   78.99
  -1  -2  -2 1348.97   81.79
  -1  -2  -2 1486.65   82.39
   1   2   2 1365.56   82.09
   1   2   2 1364.86   82.79
   1   2   2 1432.36   78.19
  -1  -1  -2 5295.57  282.07
  -1  -1  -2 4963.90  281.77
  -1  -1  -2 5628.84  282.87
   1   1   2 5076.09  281.87
   1   1   2 5550.64  281.67
  -1   1  -2 4803.02  259.67
  -1   1  -2 5080.89  265.57
   1  -1   2 4699.43  264.47
  -1   2  -2 1086.99   74.49
  -1   2  -2 1395.06   82.79
   1  -2   2 1188.38   80.69
   1  -2   2 1320.17   71.49
   1  -2   2 1335.37   71.29
   1  -2   2 1329.77   76.39
   1  -2   2 1378.96   78.29
  -1   3  -2  471.75   39.80
  -1   3  -2  467.85   30.80
  -1   3  -2  492.25   37.00
   1  -3   2  450.65   30.40
   1  -3   2  472.75   35.30
   1  -3   2  427.26   30.60
  -1   4  -2  479.55   38.60
  -1   4  -2  428.96   39.60
  -1   4  -2  432.76   31.30
   1  -4   2  378.06   30.80
   1  -4   2  386.36   34.70
  -1   5  -2  613.74   51.09
  -1   5  -2  636.14   54.29
  -1   5  -2  664.93   45.40
   1  -5   2  575.44   44.50
   1  -5   2  568.14   48.90
  -1   6  -2  401.36   41.80
  -1   6  -2  363.46   41.60
   1  -6   2  376.16   38.10
   1  -6   2  322.37   37.50
   1  -6   2  402.46   35.70
  -1   7  -2   65.69   22.50
  -1   7  -2   42.20   18.10
   1  -7   2   50.29   16.70
   1  -7   2   35.70   13.90
   1  -7   2   54.39   16.60
  -1   8  -2   20.00   15.90
   1  -8   2   21.30   12.50
   1  -8   2    3.40   11.90
   1  -8   2   12.00    9.20
  -2  -7  -2  121.19   27.10
  -2  -7  -2  170.48   21.20
   2   7   2  158.58   29.00
   2   7   2  187.48   33.40
  -2  -6  -2  206.98   28.00
  -2  -6  -2  199.28   23.00
   2   6   2  228.78   27.00
   2   6   2  201.08   26.60
  -2  -5  -2  112.39   14.70
   2   5   2  102.29   19.90
   2   5   2  102.29   19.50
  -2  -4  -2  451.55   33.40
  -2  -4  -2  406.06   32.70
   2   4   2  448.46   37.00
   2   4   2  461.15   37.40
  -2  -3  -2  590.54   38.30
   2   3   2  526.75   39.90
   2   3   2  537.65   36.30
   2   3   2  528.35   39.60
  -2  -2  -2   44.20    8.80
  -2  -2  -2   42.40    7.90
   2   2   2   53.49    6.70
   2   2   2   53.69    9.70
   2   2   2   34.20    7.80
  -2  -1  -2   98.19    9.90
  -2  -1  -2  115.39   12.80
  -2  -1  -2  108.89   10.50
   2   1   2  102.19   10.50
   2   1   2  117.89   12.30
   2   1   2  108.99   10.60
  -2   0  -2  750.22   42.20
  -2   0  -2  714.03   44.70
  -2   0  -2  749.53   50.39
   2   0   2  705.83   48.80
   2   0   2  708.23   42.30
   2   0   2  820.02   45.60
  -2   1  -2  101.99    7.30
  -2   1  -2   98.79   10.70
  -2   1  -2   77.59   12.40
   2  -1   2  118.79   11.70
   2  -1   2  100.19    7.20
   2  -1   2   82.69   12.60
  -2   2  -2   40.40    5.00
  -2   2  -2   33.30   10.50
   2  -2   2   31.60    7.60
   2  -2   2   32.80    4.50
   2  -2   2   37.10    4.40
  -2   3  -2  507.85   45.80
   2  -3   2  532.65   34.60
   2  -3   2  561.54   41.60
   2  -3   2  559.44   34.90
  -2   4  -2  436.66   43.70
  -2   4  -2  503.15   42.60
   2  -4   2  457.65   39.90
   2  -4   2  473.95   33.50
  -2   5  -2   97.49   24.00
  -2   5  -2  108.19   21.60
   2  -5   2  101.99   20.50
   2  -5   2   89.69   13.00
  -2   6  -2  187.18   34.10
  -2   6  -2  240.48   41.50
   2  -6   2  230.08   29.20
   2  -6   2  187.88   22.50
  -2   7  -2  213.58   40.60
   2  -7   2  168.98   23.00
   2  -7   2  186.28   27.00
   2  -7   2  135.89   29.70
  -3  -7  -2    9.30    8.10
  -3  -7  -2    7.90   10.40
   3   7   2   19.30    9.00
   3   7   2   15.70   13.10
  -3  -6  -2   75.99   15.90
   3   6   2   70.69   16.80
   3   6   2   64.19   16.60
  -3  -5  -2   -4.10    3.80
   3   5   2    0.90    3.90
   3   5   2   -1.60    5.90
  -3  -4  -2  435.26   34.00
   3   4   2  361.16   33.10
   3   4   2  381.86   34.50
  -3  -3  -2  119.59   15.10
   3   3   2  113.19   13.30
   3   3   2  109.19   13.90
   3   3   2  121.89   15.50
  -3  -2  -2 1347.07   73.69
  -3  -2  -2 1272.27   78.39
   3   2   2 1224.18   74.09
   3   2   2 1228.48   75.89
   3   2   2 1118.29   74.59
  -3  -1  -2  350.36   31.60
  -3  -1  -2  376.86   26.70
  -3  -1  -2  406.16   27.30
   3   1   2  382.36   27.30
   3   1   2  376.36   30.60
   3   1   2  385.56   27.10
  -3   0  -2   22.70    4.50
  -3   0  -2   24.50    5.70
  -3   0  -2   36.50    9.30
   3   0   2   28.20    6.60
   3   0   2   29.50    5.80
   3   0   2   24.20    7.90
  -3   1  -2  376.86   35.40
  -3   1  -2  363.46   23.50
   3  -1   2  386.16   28.80
   3  -1   2  398.26   24.00
  -3   2  -2 1203.18   69.29
  -3   2  -2 1133.99   84.09
   3  -2   2 1289.37   77.29
   3  -2   2 1254.77   68.39
  -3   3  -2  142.49   26.90
   3  -3   2  116.99   11.50
   3  -3   2  112.19   10.90
   3  -3   2  128.49   17.10
  -3   4  -2  357.86   41.20
   3  -4   2  418.66   29.70
   3  -4   2  427.26   38.70
  -3   5  -2   10.20    8.00
   3  -5   2    8.90    5.60
   3  -5   2    0.00    4.70
  -3   6  -2   34.90   15.00
   3  -6   2   73.69   13.80
   3  -6   2   74.69   20.90
  -3   7  -2   -2.80    6.80
   3  -7   2   17.80   11.20
   3  -7   2    0.20    7.50
  -4  -7  -2   49.80   15.00
   4   7   2   66.59   20.30
   4   7   2   53.89   15.70
  -4  -6  -2  128.29   20.60
   4   6   2  127.79   24.70
   4   6   2  123.69   23.90
  -4  -5  -2   66.49   17.10
   4   5   2   61.39   14.60
   4   5   2   74.99   17.70
  -4  -4  -2  525.85   42.40
   4   4   2  458.05   40.70
   4   4   2  470.45   39.00
  -4  -3  -2  597.24   46.10
   4   3   2  509.55   42.50
   4   3   2  599.14   42.00
  -4  -2  -2  175.58   21.20
   4   2   2  166.08   16.20
   4   2   2  150.28   17.00
  -4  -1  -2  507.25   42.80
   4   1   2  505.25   34.40
   4   1   2  458.65   34.00
  -4   0  -2 1824.32  117.49
  -4   0  -2 1733.33  101.89
   4   0   2 1829.02  103.29
   4   0   2 1947.91  106.39
  -4   1  -2  500.65   44.80
  -4   1  -2  430.26   29.50
   4  -1   2  491.85   30.80
   4  -1   2  488.35   35.70
  -4   2  -2  117.59   12.40
  -4   2  -2  142.69   22.70
   4  -2   2  177.88   19.20
   4  -2   2  161.48   12.80
  -4   3  -2  595.94   55.79
  -4   3  -2  557.34   39.20
   4  -3   2  587.94   38.60
   4  -3   2  652.03   38.50
   4  -3   2  587.64   47.50
  -4   4  -2  460.85   51.89
   4  -4   2  519.35   36.20
   4  -4   2  618.54   49.50
  -4   5  -2   49.20   20.20
   4  -5   2   60.99   16.50
   4  -5   2   90.19   12.40
  -4   6  -2  171.78   37.40
   4  -6   2  131.79   17.70
   4  -6   2  133.69   29.40
  -4   7  -2   17.30   19.20
   4  -7   2   40.40   13.00
   4  -7   2   28.70   10.90
   5   7   2   18.00   11.90
   5   7   2   -9.10    9.80
  -5  -6  -2   21.20   11.20
   5   6   2    1.50    5.30
   5   6   2   11.90   11.60
  -5  -5  -2   49.80   16.30
   5   5   2   40.00   12.80
   5   5   2   61.69   12.10
  -5  -4  -2   24.60   11.50
   5   4   2   29.10   10.80
   5   4   2   13.00    7.80
  -5  -3  -2  543.75   46.00
   5   3   2  485.85   38.10
   5   3   2  489.55   41.20
  -5  -2  -2   14.20    8.70
   5   2   2   13.90    7.00
   5   2   2    8.50    5.40
  -5  -1  -2 1220.38   87.99
   5   1   2 1269.97   75.89
   5   1   2 1223.88   76.39
  -5   0  -2   83.69   20.80
   5   0   2   60.79    9.00
   5   0   2   54.39   11.20
  -5   1  -2 1307.97   95.29
   5  -1   2 1224.08   75.19
   5  -1   2 1357.56   81.89
  -5   2  -2   11.70    8.80
  -5   2  -2   13.70    4.60
   5  -2   2   12.80    4.70
   5  -2   2    9.90    5.70
  -5   3  -2  472.65   53.69
   5  -3   2  599.64   37.40
   5  -3   2  543.85   47.10
  -5   4  -2   19.20   14.10
   5  -4   2   22.40    8.50
   5  -4   2   15.00    6.00
  -5   5  -2   22.10   17.50
   5  -5   2   41.40   14.50
   5  -5   2   29.40    9.30
  -5   6  -2  -22.30   13.00
   5  -6   2   -0.70    6.70
  -5   7  -2  -23.00   17.60
   5  -7   2  -19.00   10.10
   5  -7   2   33.60    9.80
  -6  -6  -2  121.49   26.70
   6   6   2   73.39   19.50
   6   6   2   77.49   20.60
  -6  -5  -2  289.97   35.30
   6   5   2  214.88   29.80
   6   5   2  260.97   28.60
  -6  -4  -2    4.50   11.10
   6   4   2   31.30    8.60
   6   4   2   22.10    9.80
  -6  -3  -2  624.04   57.09
   6   3   2  670.83   47.90
   6   3   2  654.93   51.49
  -6  -2  -2  283.17   35.50
   6   2   2  299.67   28.70
   6   2   2  306.07   26.50
  -6  -1  -2  228.48   32.20
   6   1   2  247.58   23.10
   6   1   2  249.68   23.90
  -6   0  -2  459.85   49.40
   6   0   2  586.04   40.40
   6   0   2  472.75   36.70
  -6   1  -2  233.78   33.90
   6  -1   2  238.98   25.20
   6  -1   2  280.87   22.80
  -6   2  -2  248.38   39.30
   6  -2   2  376.46   34.20
   6  -2   2  348.87   26.30
  -6   3  -2  687.13   69.59
   6  -3   2  682.63   57.29
   6  -3   2  739.33   47.10
  -6   4  -2  -24.50   10.60
   6  -4   2   10.50    5.80
   6  -4   2   -4.50    9.30
  -6   5  -2  263.77   43.00
   6  -5   2  311.47   26.80
   6  -5   2  280.67   36.90
  -6   6  -2  100.79   29.10
   6  -6   2  112.59   15.00
   6  -6   2  145.79   32.20
  -7  -5  -2  157.88   33.30
   7   5   2  184.48   26.40
   7   5   2  193.28   24.30
  -7  -4  -2   39.40   16.20
   7   4   2   11.50    8.30
   7   4   2   20.00   10.10
  -7  -3  -2   86.49   24.00
   7   3   2  114.29   21.60
   7   3   2   79.49   15.00
  -7  -2  -2  119.59   28.70
   7   2   2   89.09   16.40
   7   2   2   76.19   16.60
  -7  -1  -2  335.37   41.60
   7   1   2  362.36   30.60
   7   1   2  321.87   30.60
  -7   0  -2  125.39   30.60
   7   0   2  146.19   17.60
   7   0   2  144.49   18.50
  -7   1  -2  387.06   47.60
   7  -1   2  366.56   31.10
   7  -1   2  401.06   35.20
  -7   2  -2   81.09   27.00
   7  -2   2  101.49   13.40
   7  -2   2  127.09   16.90
  -7   3  -2  144.99   33.60
   7  -3   2  113.89   14.40
   7  -3   2  119.79   24.00
  -7   4  -2   18.20   15.50
   7  -4   2   32.30   17.60
   7  -4   2   30.20    9.80
  -7   5  -2  159.38   37.50
   7  -5   2  199.98   37.30
   7  -5   2  230.28   22.50
  -8  -5  -2   78.99   26.80
   8   5   2  102.79   23.30
  -8  -4  -2  275.57   49.20
   8   4   2  350.36   32.80
   8   4   2  332.07   37.10
  -8  -3  -2   14.70   15.40
   8   3   2   14.20    9.20
   8   3   2   10.50    7.80
  -8  -2  -2   71.19   23.40
   8   2   2   33.40   10.80
   8   2   2   23.30   11.60
  -8  -1  -2    6.40   10.50
   8   1   2    7.30    6.80
   8   1   2   14.60    6.80
  -8   0  -2  292.07   43.10
   8   0   2  333.67   31.20
   8   0   2  329.17   30.80
  -8   1  -2  -14.90   10.30
   8  -1   2   10.70    7.60
   8  -1   2   14.10    9.80
  -8   2  -2   34.30   21.10
   8  -2   2   43.50   10.00
   8  -2   2   27.30   12.00
  -8   3  -2   17.40   20.30
   8  -3   2   39.80    9.60
   8  -3   2   15.30    9.00
  -8   4  -2  315.57   49.90
   8  -4   2  390.06   44.40
   8  -4   2  382.46   32.20
  -8   5  -2   71.79   25.50
   8  -5   2   79.19   26.50
  -9  -3  -2  114.89   30.30
   9   3   2  146.19   21.60
   9   3   2  134.49   26.90
  -9  -2  -2  210.78   40.20
   9   2   2  182.48   22.30
   9   2   2  166.48   24.30
  -9  -1  -2   47.70   21.90
   9   1   2   53.89   14.90
   9   1   2   49.80   11.70
  -9   0  -2  214.78   47.50
   9   0   2  284.47   31.50
   9   0   2  318.17   31.70
  -9   1  -2   47.40   21.20
   9  -1   2   44.10   14.30
   9  -1   2   72.19   15.60
  -9   2  -2  176.68   40.90
   9  -2   2  167.38   24.00
   9  -2   2  162.88   22.00
  -9   3  -2  101.09   32.50
   9  -3   2  151.48   29.60
   9  -3   2  192.28   21.50
  10   2   2   73.99   19.30
 -10  -1  -2   39.20   21.00
  10   1   2   59.99   16.40
  10   1   2   57.49   17.10
 -10   0  -2   -4.60   13.80
  10   0   2   21.60   10.80
  10   0   2    8.40    8.40
 -10   1  -2   70.69   23.90
  10  -1   2   77.19   18.50
  10  -1   2   54.59   17.40
  10  -2   2  123.99   18.10
  10  -2   2   71.89   21.10
  11  -2  -3  143.29   24.20
  11  -2  -3   81.89   20.40
 -11   2   3  106.29   36.10
  11  -1  -3  268.57   29.70
  11  -1  -3  276.57   31.60
 -11   1   3  183.78   44.80
  11   0  -3   35.50   10.80
 -11   0   3   25.60   19.80
  11   1  -3  227.38   29.10
 -11  -1   3  153.98   36.30
  11   2  -3   91.29   22.80
 -11  -2   3  118.59   33.50
  10  -4  -3   62.49   13.50
  10  -4  -3   43.80   14.50
 -10   4   3   -0.40   22.10
  10  -3  -3   11.50    9.10
  10  -3  -3   15.80   12.00
 -10   3   3   -4.40   13.70
  10  -2  -3   26.90   10.70
  10  -2  -3   32.20   12.80
 -10   2   3    2.50   20.40
  10  -1  -3   63.19   16.30
  10  -1  -3   48.60   14.90
 -10   1   3   64.29   27.10
  10   0  -3   15.70    7.90
  10   0  -3   32.90   10.00
 -10   0   3    1.90   13.90
  10   1  -3   79.99   11.00
 -10  -1   3   68.29   22.50
  10   2  -3   30.60   10.50
 -10  -2   3   23.00   18.00
  10   3  -3   -2.10   11.40
 -10  -3   3   23.50   11.10
  10   4  -3   16.10   11.70
 -10  -4   3   15.90   16.30
   9  -5  -3   -8.90   11.80
   9  -5  -3   13.60   10.20
  -9   5   3  -26.60   19.50
   9  -4  -3   67.89   15.30
   9  -4  -3   58.19   18.50
  -9   4   3   66.49   26.80
   9  -3  -3   62.09   20.40
   9  -3  -3   54.49   14.30
  -9   3   3   21.60   20.60
   9  -2  -3  135.19   19.10
   9  -2  -3   93.49   21.60
  -9   2   3   88.19   28.40
   9  -1  -3    8.50    7.80
   9  -1  -3   16.10    7.80
  -9   1   3    9.90    5.60
   9   0  -3  197.88   23.90
   9   0  -3  211.38   20.50
  -9   0   3  163.28   35.00
   9   1  -3    6.20    5.40
   9   1  -3   10.50    5.90
  -9  -1   3   10.20   15.30
   9   2  -3  115.49   22.30
   9   2  -3  120.09   12.00
  -9  -2   3  127.39   30.90
   9   3  -3   26.60   12.30
  -9  -3   3   37.50   14.10
   9   4  -3   53.69   17.60
  -9  -4   3   18.60   15.40
   9   5  -3   18.60    9.40
  -9  -5   3   34.10   14.80
   8  -5  -3   56.19   14.70
   8  -5  -3   48.60   19.60
  -8   5   3   67.19   23.00
  -8   5   3   29.80   21.80
   8  -4  -3  347.47   41.60
   8  -4  -3  398.26   35.70
  -8   4   3  315.57   47.90
  -8   4   3  429.96   44.70
   8  -3  -3  153.28   22.90
   8  -3  -3  172.68   20.50
  -8   3   3  108.99   28.50
  -8   3   3  150.98   29.50
   8  -2  -3  491.85   43.70
   8  -2  -3  506.65   40.70
  -8   2   3  464.65   54.79
   8  -1  -3   50.09   12.50
   8  -1  -3   62.09   13.10
  -8   1   3   49.00   20.30
   8   0  -3  654.13   49.00
   8   0  -3  674.33   45.00
  -8   0   3  545.65   58.69
   8   1  -3   55.89    9.30
   8   1  -3   58.29   14.20
  -8  -1   3   44.60   16.50
   8   2  -3  486.95   29.90
   8   2  -3  414.06   40.10
   8   2  -3  501.95   30.60
  -8  -2   3  502.45   53.19
   8   3  -3  150.88   21.90
  -8  -3   3  145.69   31.40
   8   4  -3  321.07   35.40
  -8  -4   3  306.17   40.60
   8   5  -3   71.89   22.00
   7  -6  -3  133.69   19.90
   7  -6  -3  130.09   29.70
  -7   6   3   94.99   31.30
  -7   6   3   94.89   25.40
   7  -5  -3  122.29   22.20
   7  -5  -3   92.39   23.20
  -7   5   3  101.99   29.60
  -7   5   3  117.89   26.40
   7  -4  -3  275.37   34.30
   7  -4  -3  295.87   28.20
  -7   4   3  268.07   34.20
  -7   4   3  246.98   38.30
   7  -3  -3   47.50   16.30
   7  -3  -3   35.20   10.10
  -7   3   3   41.30   18.80
  -7   3   3   28.70   12.60
   7  -2  -3   90.09   18.20
   7  -2  -3  141.79   16.90
  -7   2   3  105.99   27.50
  -7   2   3  131.99   24.70
   7  -1  -3  214.38   22.00
   7  -1  -3  181.98   19.80
  -7   1   3  165.88   26.80
   7   0  -3  104.79   12.60
   7   0  -3  103.49   14.20
  -7   0   3  112.19   26.50
   7   1  -3  211.58   22.10
   7   1  -3  182.78   17.70
   7   1  -3  216.68   16.30
  -7  -1   3  181.28   28.70
   7   2  -3  131.39    9.90
   7   2  -3  138.09   10.20
   7   2  -3  125.49   17.70
  -7  -2   3  145.39   22.90
   7   3  -3   40.10   12.60
  -7  -3   3   23.10   11.00
   7   4  -3  284.97   32.00
  -7  -4   3  316.27   37.10
   7   5  -3   97.99   21.60
  -7  -5   3  122.29   25.60
   7   6  -3  142.09   30.10
  -7  -6   3  107.19   27.00
   6  -7  -3   33.40   14.90
   6  -7  -3   13.80   14.70
  -6   7   3   -1.00   17.90
  -6   7   3   33.10   15.50
   6  -6  -3    6.90    5.40
   6  -6  -3  -20.10    9.30
  -6   6   3   -3.20    8.20
  -6   6   3   13.60   14.50
   6  -5  -3  228.28   25.60
   6  -5  -3  222.68   30.80
  -6   5   3  211.48   30.60
  -6   5   3  244.18   33.70
   6  -4  -3  158.68   24.20
   6  -4  -3  197.78   21.50
  -6   4   3  141.89   33.50
  -6   4   3  169.68   25.70
   6  -3  -3  287.57   26.60
   6  -3  -3  301.37   32.60
  -6   3   3  320.87   34.40
  -6   3   3  234.78   34.20
   6  -2  -3  113.29   13.90
   6  -2  -3   74.99   16.10
  -6   2   3  108.69   24.10
  -6   2   3  127.49   17.90
   6  -1  -3  556.34   39.40
   6  -1  -3  529.75   40.40
  -6   1   3  570.24   42.40
  -6   1   3  472.65   47.80
   6   0  -3    1.70    3.30
   6   0  -3    3.10    5.00
   6   0  -3    2.20    3.30
  -6   0   3    1.70    4.30
   6   1  -3  513.85   33.40
   6   1  -3  536.65   32.00
   6   1  -3  508.05   38.90
  -6  -1   3  492.55   46.70
   6   2  -3  102.19   15.00
  -6  -2   3  111.59   23.10
   6   3  -3  277.17   28.90
  -6  -3   3  347.87   37.10
   6   4  -3  164.18   22.60
  -6  -4   3  174.98   25.10
   6   5  -3  184.38   25.90
  -6  -5   3  232.28   30.50
   6   6  -3    6.90    7.20
  -6  -6   3   18.60   15.40
   6   7  -3   51.09   15.60
  -6  -7   3   50.39   16.40
   5  -7  -3  141.19   26.10
   5  -7  -3   68.39   20.80
  -5   7   3   61.39   20.60
  -5   7   3   73.19   24.60
   5  -6  -3   26.60   14.30
   5  -6  -3   33.40   11.50
  -5   6   3    7.10   13.20
  -5   6   3   37.80   14.20
   5  -5  -3   29.50   10.00
  -5   5   3   46.80   15.40
  -5   5   3   29.90   16.10
   5  -4  -3    2.00    4.10
  -5   4   3   -3.50    3.60
  -5   4   3   -7.50    5.30
   5  -3  -3 1080.99   68.19
  -5   3   3  993.10   77.59
  -5   3   3 1078.29   75.99
   5  -2  -3  752.72   49.20
  -5   2   3  670.33   57.19
  -5   2   3  748.73   54.49
   5  -1  -3 1133.19   75.29
   5  -1  -3 1279.47   74.59
  -5   1   3 1300.97   85.59
  -5   1   3 1197.28   76.79
   5   0  -3  442.06   31.30
   5   0  -3  434.66   32.10
   5   0  -3  399.06   29.80
  -5   0   3  464.75   40.50
  -5   0   3  472.65   31.90
   5   1  -3 1159.38   75.09
   5   1  -3 1290.57   68.29
   5   1  -3 1227.98   69.59
  -5  -1   3 1257.97   84.49
   5   2  -3  759.52   51.69
  -5  -2   3  731.43   57.59
   5   3  -3 1015.20   68.39
  -5  -3   3 1020.50   74.29
   5   4  -3    0.50    3.20
  -5  -4   3   -1.50    7.10
   5   5  -3   33.30   12.00
  -5  -5   3   21.70    3.30
  -5  -5   3   39.70   13.60
  -5  -5   3   25.20    3.70
   5   6  -3   46.20   13.90
  -5  -6   3   29.10   13.10
  -5  -6   3   21.20    5.00
   5   7  -3  116.69   23.90
  -5  -7   3  140.99   28.70
   4  -7  -3   19.30    8.90
   4  -7  -3   11.80    8.00
  -4   7   3    2.40   11.80
  -4   7   3   16.00   13.80
   4  -6  -3  337.07   33.40
  -4   6   3  306.07   38.50
  -4   6   3  252.47   32.70
   4  -5  -3   93.89   18.00
  -4   5   3  124.29   26.20
  -4   5   3  128.09   20.00
   4  -4  -3  725.83   51.49
  -4   4   3  716.63   57.69
  -4   4   3  694.33   58.19
   4  -3  -3   32.30    8.30
  -4   3   3   24.90    9.00
  -4   3   3   30.40   11.60
   4  -2  -3 1211.78   73.99
  -4   2   3 1213.28   81.69
  -4   2   3 1249.47   79.69
   4  -1  -3 1242.28   72.69
   4  -1  -3 1147.79   74.29
  -4   1   3 1272.27   80.59
  -4   1   3 1239.68   75.59
   4   0  -3    0.90    2.50
   4   0  -3    1.80    2.10
  -4   0   3    5.30    3.90
  -4   0   3    4.00    1.50
   4   1  -3 1229.08   68.19
   4   1  -3 1263.97   74.79
   4   1  -3 1190.88   67.49
  -4  -1   3 1376.66   82.69
   4   2  -3 1165.38   72.09
  -4  -2   3 1174.98   77.99
   4   3  -3   25.20    8.10
  -4  -3   3   23.50    8.60
   4   4  -3  754.52   53.59
  -4  -4   3  761.72   57.79
  -4  -4   3  679.43   41.20
   4   5  -3  118.29   18.10
  -4  -5   3  117.69   12.00
  -4  -5   3  124.39   12.10
  -4  -5   3  121.29   23.50
   4   6  -3  273.37   30.70
  -4  -6   3  232.08   21.40
  -4  -6   3  269.87   33.80
   4   7  -3   18.90   11.10
  -4  -7   3    7.70    6.60
  -4  -7   3    7.50   11.50
   3  -7  -3   -1.10    9.90
   3  -7  -3   19.50    8.90
  -3   7   3    4.70   11.10
  -3   7   3   16.80   13.10
   3  -6  -3   93.69   20.20
  -3   6   3  118.19   24.80
  -3   6   3  113.09   21.80
   3  -5  -3  600.74   46.20
  -3   5   3  511.65   44.90
  -3   5   3  555.34   51.39
   3  -4  -3  314.17   28.40
  -3   4   3  287.17   32.00
  -3   4   3  334.67   31.10
   3  -3  -3  669.63   45.20
   3  -3  -3  654.23   46.80
  -3   3   3  646.44   47.90
  -3   3   3  597.74   48.80
   3  -2  -3  188.98   17.40
   3  -2  -3  185.78   18.90
  -3   2   3  199.58   20.50
  -3   2   3  171.78   19.20
   3  -1  -3 2463.45  129.89
   3  -1  -3 2230.48  127.49
   3  -1  -3 2257.67  125.29
  -3   1   3 2173.08  127.59
  -3   1   3 2070.79  124.59
  -3   1   3 2357.76  130.49
   3   0  -3 2454.35  136.99
   3   0  -3 2440.66  136.29
   3   0  -3 2715.73  142.49
  -3   0   3 2418.86  136.69
  -3   0   3 2357.56  136.39
  -3   0   3 2648.54  143.19
   3   1  -3 2338.57  120.49
   3   1  -3 2362.86  131.89
   3   1  -3 2286.97  126.49
  -3  -1   3 2336.67  132.29
  -3  -1   3 2149.39  120.79
  -3  -1   3 2237.98  125.89
   3   2  -3  178.98   16.60
  -3  -2   3  181.18   19.50
   3   3  -3  685.63   45.70
  -3  -3   3  624.94   38.00
  -3  -3   3  716.23   50.29
  -3  -3   3  619.74   37.20
   3   4  -3  325.87   29.50
  -3  -4   3  325.77   32.30
  -3  -4   3  330.67   23.40
  -3  -4   3  340.37   24.20
   3   5  -3  527.45   43.30
  -3  -5   3  541.25   47.50
  -3  -5   3  510.35   36.70
   3   6  -3  110.79   21.20
  -3  -6   3   84.99   20.70
  -3  -6   3   86.19   13.30
   3   7  -3   -1.90    7.00
  -3  -7   3    4.40    9.90
  -3  -7   3   11.60    6.60
   2  -8  -3   57.89   17.30
  -2   8   3   92.19   24.90
   2  -7  -3   91.99   17.60
   2  -7  -3  134.09   25.40
  -2   7   3   77.09   20.80
  -2   7   3  133.99   20.50
   2  -6  -3   59.39   12.70
   2  -6  -3   40.90   13.90
  -2   6   3   41.20   16.70
   2  -5  -3  373.66   34.20
  -2   5   3  358.86   31.20
  -2   5   3  331.37   36.80
   2  -4  -3  741.53   50.89
   2  -4  -3  754.52   52.79
  -2   4   3  727.63   56.99
  -2   4   3  708.13   50.09
   2  -3  -3    4.20    3.90
   2  -3  -3   17.80    5.30
  -2   3   3    2.00    5.10
  -2   3   3   11.10    5.10
   2  -2  -3 1353.96   80.09
   2  -2  -3 1485.65   79.79
  -2   2   3 1287.57   79.59
  -2   2   3 1313.37   83.09
   2  -1  -3  474.15   33.00
   2  -1  -3  520.55   32.40
   2  -1  -3  497.85   31.80
  -2   1   3  476.55   31.60
  -2   1   3  504.15   32.80
  -2   1   3  462.75   33.20
   2   0  -3  906.61   53.19
   2   0  -3  983.00   53.49
   2   0  -3  972.00   56.29
  -2   0   3  869.31   52.79
  -2   0   3  967.50   56.49
  -2   0   3  868.91   53.19
   2   1  -3  511.65   35.20
   2   1  -3  521.15   28.40
   2   1  -3  499.25   31.30
  -2  -1   3  487.45   34.80
  -2  -1   3  463.35   30.70
  -2  -1   3  514.35   28.80
   2   2  -3 1339.67   79.09
  -2  -2   3 1388.96   84.09
  -2  -2   3 1478.25   74.99
  -2  -2   3 1320.47   75.89
  -2  -2   3 1333.07   78.29
   2   3  -3    7.00    4.00
  -2  -3   3    6.10    3.00
  -2  -3   3    3.30    2.60
  -2  -3   3    2.70    4.90
   2   4  -3  756.02   51.49
  -2  -4   3  737.43   55.39
  -2  -4   3  725.83   47.30
  -2  -4   3  736.13   48.50
   2   5  -3  343.17   29.40
   2   5  -3  306.77   29.40
  -2  -5   3  321.77   27.10
  -2  -5   3  274.87   31.30
   2   6  -3   66.69   16.40
  -2  -6   3   49.60   12.80
  -2  -6   3   47.60   16.00
   2   7  -3  115.29   22.50
  -2  -7   3   96.69   25.10
  -2  -7   3  119.99   21.30
  -2  -7   3  100.99   21.60
   2   8  -3   65.79   18.10
  -2  -8   3   50.49   15.90
  -2  -8   3   53.09   19.10
  -2  -8   3   48.30   15.10
   1  -8  -3  131.89   28.60
  -1   8   3  128.69   29.90
   1  -7  -3  161.78   24.30
   1  -7  -3  147.89   19.90
  -1   7   3  152.18   31.60
   1  -6  -3   95.49   14.20
   1  -6  -3  128.59   24.70
  -1   6   3  122.79   26.30
   1  -5  -3  221.08   23.60
   1  -5  -3  260.77   22.50
   1  -5  -3  286.57   29.00
  -1   5   3  301.47   24.70
  -1   5   3  203.78   28.10
   1  -4  -3  475.55   36.10
   1  -4  -3  461.75   40.10
   1  -4  -3  573.54   35.20
  -1   4   3  576.34   36.50
  -1   4   3  500.15   43.80
   1  -3  -3  626.64   39.00
   1  -3  -3  586.54   43.40
  -1   3   3  609.34   46.20
  -1   3   3  648.04   38.60
   1  -2  -3   41.90    8.10
   1  -2  -3   34.20    7.30
   1  -2  -3   35.00    7.80
   1  -2  -3   44.00    4.60
  -1   2   3   20.90    6.20
  -1   2   3   34.60    4.20
  -1   2   3   32.30    8.20
   1  -1  -3 2275.87  116.69
   1  -1  -3 2093.49  119.29
   1  -1  -3 2303.97  121.49
  -1   1   3 2295.37  117.09
  -1   1   3 1968.60  118.99
  -1   1   3 2089.19  121.19
   1   0  -3  548.85   31.30
   1   0  -3  506.05   29.80
   1   0  -3  506.45   31.50
  -1   0   3  441.36   29.40
  -1   0   3  511.15   31.20
  -1   0   3  508.85   32.30
  -1   0   3  507.65   31.70
   1   1  -3 2195.08  119.79
   1   1  -3 2332.47  126.49
   1   1  -3 2131.79  119.49
  -1  -1   3 2390.76  120.19
  -1  -1   3 2233.68  124.79
  -1  -1   3 2177.88  119.39
  -1  -1   3 2116.39  125.59
   1   2  -3   29.10    5.60
   1   2  -3   43.90   10.00
   1   2  -3   39.50    5.40
  -1  -2   3   36.60    4.90
  -1  -2   3   42.70    7.30
  -1  -2   3   35.30    9.30
  -1  -2   3   37.60    8.90
  -1  -2   3   36.60    5.10
   1   3  -3  694.03   50.39
   1   3  -3  654.03   42.70
  -1  -3   3  581.14   42.60
  -1  -3   3  734.63   49.10
  -1  -3   3  640.84   41.60
   1   4  -3  660.63   49.30
   1   4  -3  509.75   38.60
  -1  -4   3  519.05   38.50
  -1  -4   3  508.95   43.30
   1   5  -3  280.87   26.40
   1   5  -3  289.77   28.10
   1   5  -3  225.48   28.80
  -1  -5   3  265.27   25.70
  -1  -5   3  237.68   28.30
   1   6  -3  119.79   17.80
  -1  -6   3   90.69   18.10
  -1  -6   3   99.69   18.90
  -1  -6   3   74.69   20.20
   1   7  -3  152.08   22.10
  -1  -7   3  147.49   29.60
  -1  -7   3  179.18   24.90
  -1  -7   3  153.88   21.90
   1   8  -3  113.99   24.70
  -1  -8   3  128.49   28.00
  -1  -8   3  114.69   23.10
  -1  -8   3   92.79   22.50
   0  -8  -3   -6.10    5.40
   0   8   3   -6.50    8.00
   0  -7  -3  282.87   35.60
   0  -7  -3  308.07   27.50
   0   7   3  222.68   34.60
   0  -6  -3   52.39   10.60
   0  -6  -3   42.10   14.50
   0   6   3   79.79   20.30
   0   6   3   49.99   14.10
   0  -5  -3  870.11   59.19
   0  -5  -3 1009.00   58.29
   0  -5  -3  934.51   67.89
   0   5   3  829.22   67.59
   0   5   3  946.41   66.29
   0  -4  -3  171.58   15.60
   0  -4  -3  169.28   20.70
   0  -4  -3  174.58   14.70
   0   4   3  158.88   20.60
   0   4   3  192.08   20.50
   0  -3  -3   92.29    8.40
   0  -3  -3   93.89    7.80
   0  -3  -3   95.89   12.70
   0   3   3   89.59   12.10
   0   3   3   96.69   13.50
   0  -2  -3  257.57   21.90
   0  -2  -3  264.77   22.00
   0  -2  -3  279.57   21.70
   0   2   3  283.57   21.80
   0   2   3  277.07   23.60
   0  -1  -3  924.71   54.89
   0  -1  -3  996.70   56.99
   0  -1  -3  926.81   55.39
   0  -1  -3  976.70   51.99
   0   1   3 1001.30   57.49
   0   1   3  869.41   51.99
   0   1   3  947.21   54.89
   0   0   3 6364.76  339.07
   0   1  -3  933.31   55.99
   0   1  -3  981.30   61.29
   0   1  -3  987.50   52.49
   0  -1   3  961.60   52.29
   0  -1   3 1039.50   56.59
   0  -1   3  926.41   60.69
   0   2  -3  288.07   18.50
   0   2  -3  286.17   26.00
   0   2  -3  247.98   20.30
   0  -2   3  246.08   20.10
   0  -2   3  294.47   22.60
   0  -2   3  240.98   24.70
   0  -2   3  291.07   18.00
   0   3  -3   83.39    9.70
   0   3  -3  125.59   16.90
   0  -3   3  102.89   10.10
   0  -3   3   71.99   10.30
   0   4  -3  176.98   17.80
   0   4  -3  189.38   24.10
   0  -4   3  176.28   19.30
   0  -4   3  193.38   22.40
   0   5  -3 1062.19   75.19
   0   5  -3  927.21   62.09
   0  -5   3  871.61   62.19
   0  -5   3  930.71   69.79
   0  -5   3  920.41   65.49
   0   6  -3   55.29   13.00
   0   6  -3   40.70   14.10
   0  -6   3   48.20   15.20
   0  -6   3   49.70   13.80
   0  -6   3   54.79   16.30
   0   7  -3  278.87   30.40
   0   7  -3  316.77   39.10
   0  -7   3  282.97   35.80
   0  -7   3  263.47   32.70
   0  -7   3  256.27   30.80
   0  -8   3    2.80    9.60
   0  -8   3   -5.60   10.80
   0  -8   3   -4.80   10.00
  -1  -8  -3   13.80   11.70
  -1  -7  -3    0.90    6.80
  -1  -7  -3    1.00    7.00
   1   7   3   10.90    7.50
   1   7   3   33.70   12.70
  -1  -6  -3  157.08   24.60
  -1  -6  -3  219.98   20.70
   1   6   3  224.68   27.20
   1   6   3  211.98   27.60
  -1  -5  -3  388.56   37.90
  -1  -5  -3  431.46   30.40
  -1  -5  -3  377.96   30.30
   1   5   3  430.86   37.70
   1   5   3  373.36   38.10
  -1  -4  -3  135.89   18.00
  -1  -4  -3  129.69   13.60
  -1  -4  -3  143.19   13.20
   1   4   3  126.69   16.80
   1   4   3  161.98   19.90
  -1  -3  -3 1243.28   68.19
  -1  -3  -3 1200.48   67.89
   1   3   3 1187.48   76.49
   1   3   3 1148.69   74.49
  -1  -2  -3   16.80    5.10
  -1  -2  -3   16.10    3.90
   1   2   3   25.20    3.30
   1   2   3   33.70    8.10
   1   2   3   16.60    5.30
  -1  -1  -3 4557.74  249.18
  -1  -1  -3 4527.95  248.58
  -1  -1  -3 5149.48  250.97
   1   1   3 4602.14  248.78
   1   1   3 4646.04  250.57
   1   1   3 4410.06  248.28
   1   0   3 9999.00  531.35
  -1   1  -3 4424.26  239.48
  -1   1  -3 4293.57  232.78
   1  -1   3 4239.18  238.58
  -1   2  -3   14.60    6.60
   1  -2   3   14.70    3.00
   1  -2   3   18.90    5.80
   1  -2   3   17.10    3.30
  -1   3  -3 1141.09   81.29
  -1   3  -3 1259.97   68.69
   1  -3   3 1152.38   68.49
   1  -3   3 1201.58   68.29
   1  -3   3 1198.28   74.69
  -1   4  -3  130.89   13.60
  -1   4  -3  146.59   21.60
   1  -4   3  124.09   13.80
   1  -4   3  126.09   16.80
  -1   5  -3  413.46   32.30
  -1   5  -3  402.06   42.40
   1  -5   3  374.86   31.80
   1  -5   3  417.06   38.30
  -1   6  -3  231.18   31.80
   1  -6   3  187.68   26.40
   1  -6   3  161.18   21.40
   1  -6   3  182.98   25.20
  -1   7  -3    4.20   11.40
   1  -7   3   20.90   12.20
   1  -7   3   -0.90    9.50
   1  -8   3   12.90   11.90
   1  -8   3   34.00   12.70
  -2  -7  -3  203.18   29.70
  -2  -7  -3  195.38   26.70
   2   7   3  224.38   29.20
   2   7   3  153.38   30.80
  -2  -6  -3   56.49   11.70
  -2  -6  -3   46.00   14.30
   2   6   3   48.20   15.70
   2   6   3   75.89   18.00
  -2  -5  -3    7.10    4.10
  -2  -5  -3    2.90    4.40
  -2  -5  -3   10.30    6.00
   2   5   3    3.80    7.80
   2   5   3    2.40    5.00
  -2  -4  -3  203.48   18.20
  -2  -4  -3  210.18   19.10
   2   4   3  171.38   22.40
   2   4   3  230.08   23.80
  -2  -3  -3  216.58   18.90
   2   3   3  207.88   21.60
   2   3   3  220.68   17.40
   2   3   3  220.18   21.60
  -2  -2  -3   56.79    8.90
   2   2   3   68.89   10.00
   2   2   3   65.59    9.30
   2   2   3   65.39    8.60
  -2  -1  -3   93.59    9.70
  -2  -1  -3   95.79   10.70
  -2  -1  -3   69.99   11.20
   2   1   3   82.89   10.80
   2   1   3   95.09   10.00
   2   1   3   91.09   10.60
  -2   0  -3  760.82   43.40
  -2   0  -3  815.82   47.80
  -2   0  -3  741.93   52.49
   2   0   3  708.23   50.89
   2   0   3  723.83   43.70
   2   0   3  804.82   48.00
  -2   1  -3  105.19   14.90
  -2   1  -3   92.79    6.40
   2  -1   3   92.29    6.50
   2  -1   3  108.49   11.60
  -2   2  -3   66.89   16.10
   2  -2   3   62.39    5.30
   2  -2   3   72.79   10.40
   2  -2   3   59.69    5.40
  -2   3  -3  210.58   26.60
   2  -3   3  253.47   23.60
   2  -3   3  206.08   15.80
   2  -3   3  221.28   16.40
  -2   4  -3  215.38   28.70
   2  -4   3  191.98   17.80
   2  -4   3  217.48   24.30
   2  -4   3  236.38   19.10
  -2   5  -3   -2.90    8.20
   2  -5   3    2.50    7.70
   2  -5   3   -1.00    3.80
  -2   6  -3   72.39   22.00
   2  -6   3   68.59   19.50
   2  -6   3   75.49   14.80
  -2   7  -3  164.28   36.60
   2  -7   3  152.58   22.10
   2  -7   3  180.68   34.50
   2  -7   3  193.78   28.10
  -3  -7  -3   -4.50    4.50
   3   7   3   -2.40   13.90
   3   7   3    1.10    4.50
  -3  -6  -3   62.39   16.50
   3   6   3   99.69   22.10
   3   6   3   72.59   17.20
  -3  -5  -3  136.89   16.30
   3   5   3  111.29   21.70
   3   5   3  109.09   21.60
  -3  -4  -3  224.08   20.30
  -3  -4  -3  221.48   22.10
   3   4   3  216.08   19.50
   3   4   3  220.58   24.60
   3   4   3  183.98   23.20
  -3  -3  -3  227.38   23.00
   3   3   3  240.18   20.80
   3   3   3  247.28   24.00
   3   3   3  252.17   24.10
  -3  -2  -3  833.22   55.89
   3   2   3  761.72   52.19
   3   2   3  784.32   52.69
   3   2   3  810.62   52.79
  -3  -1  -3  571.34   45.00
  -3  -1  -3  601.64   38.60
   3   1   3  593.54   39.00
   3   1   3  613.24   40.40
   3   1   3  568.64   43.10
  -3   0  -3 1512.75   84.39
  -3   0  -3 1511.15   97.79
   3   0   3 1474.55   84.99
   3   0   3 1581.94   89.59
  -3   1  -3  674.93   53.09
  -3   1  -3  616.84   36.30
   3  -1   3  588.24   36.50
   3  -1   3  703.13   44.60
  -3   2  -3  915.11   68.29
  -3   2  -3  811.82   48.90
   3  -2   3  867.81   48.30
   3  -2   3  884.61   58.29
  -3   3  -3  216.08   29.30
   3  -3   3  247.18   17.30
   3  -3   3  230.28   17.60
   3  -3   3  294.87   27.50
  -3   4  -3  216.18   31.20
   3  -4   3  207.28   18.00
   3  -4   3  228.08   18.20
   3  -4   3  262.27   28.40
  -3   5  -3  175.08   34.20
   3  -5   3  130.99   15.20
   3  -5   3  124.69   24.40
  -3   6  -3  117.19   29.80
   3  -6   3   99.99   21.60
   3  -6   3  105.19   14.70
  -3   7  -3   -1.60   11.80
   3  -7   3   -8.40    6.70
   3  -7   3   13.50    6.20
  -4  -7  -3   54.69   16.40
   4   7   3   18.60   15.90
   4   7   3   67.59   19.30
  -4  -6  -3  373.56   34.80
   4   6   3  377.16   37.70
   4   6   3  316.87   36.20
  -4  -5  -3   62.89   13.80
   4   5   3   48.10   14.40
   4   5   3   68.29   17.10
  -4  -4  -3  824.92   60.59
   4   4   3  845.22   61.39
   4   4   3  882.11   63.19
  -4  -3  -3  119.59   17.40
   4   3   3  123.69   16.60
   4   3   3  137.19   16.80
  -4  -2  -3 1076.99   73.79
   4   2   3 1051.99   67.59
   4   2   3 1018.50   66.39
  -4  -1  -3   35.20   10.90
   4   1   3   58.29   11.10
   4   1   3   43.00    8.90
  -4   0  -3  898.61   71.99
  -4   0  -3  961.70   57.99
   4   0   3 1070.59   63.79
   4   0   3 1006.90   59.39
  -4   1  -3   56.09   14.00
  -4   1  -3   50.39    6.30
   4  -1   3   60.19    6.30
   4  -1   3   53.89   11.10
  -4   2  -3  943.51   80.99
   4  -2   3 1148.89   62.49
   4  -2   3 1151.08   73.09
  -4   3  -3  133.39   29.70
  -4   3  -3  109.29   11.50
   4  -3   3  116.09   17.70
   4  -3   3  143.09   11.60
   4  -3   3  122.99   11.60
  -4   4  -3  850.61   76.59
   4  -4   3  879.01   53.49
   4  -4   3  902.91   67.89
  -4   5  -3   61.89   23.00
   4  -5   3   49.00    9.80
   4  -5   3   45.20   14.20
  -4   6  -3  393.66   50.09
   4  -6   3  432.56   45.80
   4  -6   3  375.76   30.80
  -4   7  -3   59.09   22.20
   4  -7   3   34.10   15.60
   4  -7   3   64.89   12.60
  -5  -6  -3   73.59   17.40
   5   6   3   75.19   20.80
   5   6   3   79.79   22.50
  -5  -5  -3   49.20   15.40
   5   5   3   25.40   13.00
   5   5   3   45.20   13.40
  -5  -4  -3   52.79   15.80
   5   4   3   34.20   12.60
   5   4   3   46.60   12.80
  -5  -3  -3  204.28   27.10
   5   3   3  212.18   24.00
   5   3   3  245.08   24.10
  -5  -2  -3  532.55   48.10
   5   2   3  492.75   40.10
   5   2   3  554.44   40.20
  -5  -1  -3  206.38   27.90
   5   1   3  198.58   19.90
   5   1   3  214.08   20.90
  -5   0  -3    9.20    9.90
   5   0   3   20.80    6.10
   5   0   3   31.50    8.50
  -5   1  -3  174.38   15.50
  -5   1  -3  200.98   29.70
   5  -1   3  227.88   22.50
   5  -1   3  195.98   17.00
  -5   2  -3  499.35   33.60
  -5   2  -3  518.75   53.89
   5  -2   3  617.64   44.90
   5  -2   3  473.05   33.00
  -5   3  -3  200.68   18.30
  -5   3  -3  222.48   34.10
   5  -3   3  234.28   18.00
   5  -3   3  208.78   17.60
   5  -3   3  243.48   27.60
  -5   4  -3   46.30   17.50
   5  -4   3   41.00    8.00
   5  -4   3   42.60   16.20
  -5   5  -3   73.29   25.80
   5  -5   3   44.40    9.20
   5  -5   3   28.70   14.70
  -5   6  -3   67.89   23.40
   5  -6   3   88.69   22.80
   5  -6   3  102.89   14.30
  -6  -6  -3   18.20   15.10
   6   6   3   56.39   15.60
   6   6   3   37.50   19.10
  -6  -5  -3   88.09   21.30
   6   5   3   94.99   18.80
   6   5   3   80.59   19.30
  -6  -4  -3   43.70   16.60
   6   4   3   62.19   15.50
   6   4   3   76.49   16.70
  -6  -3  -3  227.98   32.30
   6   3   3  283.77   26.80
   6   3   3  233.38   27.70
  -6  -2  -3  482.65   50.59
   6   2   3  617.24   44.20
   6   2   3  578.14   44.80
  -6  -1  -3  111.79   25.80
   6   1   3  100.69   14.80
   6   1   3  116.19   15.40
  -6   0  -3  294.87   37.70
   6   0   3  244.08   25.10
   6   0   3  268.17   23.90
  -6   1  -3  163.28   33.90
   6  -1   3  115.19   13.60
   6  -1   3  157.98   19.20
  -6   2  -3  565.84   62.39
   6  -2   3  704.73   52.79
   6  -2   3  636.14   42.10
  -6   3  -3  303.27   42.80
   6  -3   3  283.67   23.00
   6  -3   3  313.87   33.60
  -6   4  -3   99.59   30.50
   6  -4   3   81.29   19.70
   6  -4   3   62.29   11.50
  -6   5  -3  107.99   34.10
   6  -5   3  124.19   26.70
   6  -5   3  127.59   15.10
  -6   6  -3   52.99   24.80
   6  -6   3   53.69   18.30
  -7  -5  -3   65.69   21.20
   7   5   3   47.20   15.70
   7   5   3   83.49   20.30
  -7  -4  -3   26.70   13.40
   7   4   3   40.10   11.70
   7   4   3   14.20    8.70
  -7  -3  -3  508.75   52.29
   7   3   3  530.35   43.20
   7   3   3  476.15   44.30
  -7  -2  -3   84.59   24.30
   7   2   3   85.29   17.00
   7   2   3   70.19   15.90
  -7  -1  -3  172.28   36.00
   7   1   3  189.98   21.40
   7   1   3  151.08   20.30
  -7   0  -3   62.69   25.90
   7   0   3   79.19   14.80
   7   0   3   73.49   16.70
  -7   1  -3  139.89   33.70
   7  -1   3  203.38   20.20
   7  -1   3  227.88   26.10
  -7   2  -3   77.49   23.80
   7  -2   3   84.79   12.30
   7  -2   3   74.99   18.10
  -7   3  -3  472.85   60.49
   7  -3   3  594.64   52.79
   7  -3   3  597.34   40.40
  -7   4  -3   11.50   16.00
   7  -4   3   17.20    8.90
   7  -4   3   24.60    8.00
  -7   5  -3   74.39   30.50
   7  -5   3   88.79   22.00
  -8  -4  -3  192.38   37.80
   8   4   3  149.99   28.10
   8   4   3  174.48   22.30
  -8  -3  -3   81.79   26.00
   8   3   3   88.29   16.40
   8   3   3   91.99   19.40
  -8  -2  -3   35.70   20.60
   8   2   3   33.20   13.00
   8   2   3   24.30   11.00
  -8  -1  -3   49.10   20.80
   8   1   3   85.99   18.60
   8   1   3   51.19   13.60
  -8   0  -3   86.69   25.90
   8   0   3   67.79   15.60
   8   0   3   72.59   17.50
  -8   1  -3   57.49   21.70
   8  -1   3   75.89   15.20
   8  -1   3   57.69   17.10
   8  -2   3   57.99   15.80
   8  -2   3   68.19   12.50
  -8   3  -3   60.59   25.70
   8  -3   3   82.99   21.40
   8  -3   3  112.19   14.10
  -8   4  -3  134.79   40.00
   8  -4   3  265.97   34.80
  -9  -3  -3  116.19   32.90
   9   3   3  110.39   24.80
   9   3   3  136.99   19.80
  -9  -2  -3   -6.90   18.80
   9   2   3   29.00   13.80
   9   2   3   45.00   14.30
  -9  -1  -3  126.89   32.30
   9   1   3  174.88   23.90
   9   1   3  167.98   23.20
  -9   0  -3  181.88   39.60
   9   0   3  178.88   23.40
   9   0   3  165.98   23.20
  -9   1  -3  172.58   38.00
   9  -1   3  121.69   20.60
   9  -1   3  125.49   25.00
  -9   2  -3   64.89   30.10
   9  -2   3   94.29   13.60
   9  -2   3   46.40   15.80
  -9   3  -3  126.59   37.00
   9  -3   3   93.69   24.40
  11  -2  -4   35.70   12.50
  11  -2  -4   -4.40    9.70
 -11   2   4    5.50   19.20
  11  -1  -4  163.18   24.10
  11  -1  -4  176.88   25.60
 -11   1   4  167.08   45.00
  11   0  -4    4.50    9.00
  11   0  -4   13.00    8.90
 -11   0   4  -30.00   13.60
  11   1  -4  167.78   29.70
 -11  -1   4   84.49   24.60
  11   2  -4   25.60    9.60
 -11  -2   4   20.60   14.00
  10  -4  -4   29.90   17.60
  10  -4  -4   46.90   15.30
 -10   4   4   47.50   27.40
  10  -3  -4   54.49   15.90
  10  -3  -4   51.89   18.00
 -10   3   4   19.50   22.70
  10  -2  -4    8.00    5.60
  10  -2  -4   -5.70    9.00
 -10   2   4   16.40   14.80
  10  -1  -4   70.69   17.50
  10  -1  -4   70.69   15.20
 -10   1   4   92.09   28.60
  10   0  -4    4.10    5.60
  10   0  -4   -2.40    4.60
 -10   0   4   34.70   10.30
  10   1  -4   85.19   12.30
  10   1  -4   77.19   19.10
 -10  -1   4   91.79   24.90
  10   2  -4   -6.30    9.70
 -10  -2   4   -7.80   10.50
  10   3  -4   38.30   12.50
 -10  -3   4   45.20   20.20
  10   4  -4   63.69   19.40
 -10  -4   4   43.70   24.00
   9  -5  -4  142.69   25.40
  -9   5   4  163.68   33.90
  -9   5   4  131.79   38.00
   9  -4  -4   15.70    9.90
   9  -4  -4   24.30    9.20
  -9   4   4   29.60   15.40
   9  -3  -4  168.98   22.10
   9  -3  -4  206.48   28.70
  -9   3   4  142.49   35.10
   9  -2  -4   78.09   17.70
   9  -2  -4   70.19   15.30
  -9   2   4   87.49   27.30
   9  -1  -4    3.90    6.50
   9  -1  -4    3.80    6.70
  -9   1   4   -1.90   11.50
   9   0  -4   -0.50    4.90
   9   0  -4   -8.30    5.30
  -9   0   4   -6.90    6.30
   9   1  -4   15.80    9.80
   9   1  -4    2.40    5.10
  -9  -1   4  -16.00    8.70
   9   2  -4  151.88   18.00
  -9  -2   4  127.79   20.20
   9   3  -4  157.68   28.10
  -9  -3   4  124.59   34.10
   9   4  -4    5.30    8.00
  -9  -4   4   24.30   13.90
   9   5  -4  106.49   24.00
  -9  -5   4   96.49   26.80
   8  -6  -4    4.50   10.70
   8  -5  -4   17.70   10.70
   8  -5  -4   39.20   14.40
  -8   5   4   45.80   17.70
  -8   5   4   32.90   18.60
   8  -4  -4  309.27   31.60
   8  -4  -4  247.08   35.00
  -8   4   4  252.77   39.20
  -8   4   4  343.37   37.50
   8  -3  -4   -1.30    5.10
   8  -3  -4    6.80    7.10
  -8   3   4   19.10   13.80
  -8   3   4   -3.10    4.50
   8  -2  -4  330.77   34.10
   8  -2  -4  328.97   30.90
  -8   2   4  328.77   35.10
  -8   2   4  299.67   40.60
   8  -1  -4   71.79   15.00
   8  -1  -4  103.09   14.70
  -8   1   4   42.00   18.80
   8   0  -4 1096.39   69.59
   8   0  -4 1123.99   75.49
  -8   0   4 1153.38   91.39
   8   1  -4  106.09   15.60
   8   1  -4   93.99   10.20
  -8  -1   4   75.39   22.30
   8   2  -4  280.17   29.80
  -8  -2   4  276.87   36.00
   8   3  -4    2.20    6.10
  -8  -3   4    5.10   11.00
   8   4  -4  290.57   33.70
  -8  -4   4  327.47   38.90
   8   5  -4   34.10   11.00
  -8  -5   4   25.50   14.10
   7  -6  -4  203.98   26.80
   7  -6  -4  132.69   30.70
  -7   6   4  205.68   39.40
  -7   6   4  202.58   39.70
   7  -5  -4   60.69   15.20
   7  -5  -4   44.00   12.70
  -7   5   4   55.29   17.80
  -7   5   4   24.80   17.60
   7  -4  -4  185.58   29.00
   7  -4  -4  224.68   25.00
  -7   4   4  237.68   35.10
  -7   4   4  217.38   31.50
   7  -3  -4   41.90   14.20
   7  -3  -4   47.30   12.40
  -7   3   4   50.79   15.40
  -7   3   4   39.30   16.80
   7  -2  -4  228.08   23.50
   7  -2  -4  235.68   26.90
  -7   2   4  210.58   32.30
  -7   2   4  237.58   27.40
   7  -1  -4  205.18   22.30
   7  -1  -4  228.58   23.40
  -7   1   4  247.68   25.10
  -7   1   4  181.48   29.10
   7   0  -4  498.55   35.90
   7   0  -4  521.25   40.00
  -7   0   4  491.35   49.10
   7   1  -4  208.18   22.90
   7   1  -4  229.28   16.60
   7   1  -4  207.48   17.90
  -7  -1   4  205.78   29.30
   7   2  -4  217.58   24.60
  -7  -2   4  299.37   35.80
   7   3  -4   51.59   13.20
  -7  -3   4   48.80   15.30
   7   4  -4  168.48   23.60
  -7  -4   4  249.68   31.50
   7   5  -4   38.20   12.20
  -7  -5   4   61.49   19.00
   7   6  -4  161.98   32.40
  -7  -6   4  183.68   37.40
   6  -7  -4    3.80   10.00
   6  -7  -4   25.00   10.10
  -6   7   4   19.30   20.60
  -6   7   4   22.80   12.10
   6  -6  -4   45.90   17.30
   6  -6  -4   65.59   14.30
  -6   6   4   69.19   17.70
  -6   6   4   75.19   23.90
   6  -5  -4  255.87   28.50
  -6   5   4  248.78   35.20
  -6   5   4  243.98   33.30
   6  -4  -4   60.09   13.10
  -6   4   4   58.59   18.70
  -6   4   4   59.89   16.80
   6  -3  -4  530.45   41.00
  -6   3   4  497.25   46.70
  -6   3   4  513.05   49.80
   6  -2  -4  966.50   63.79
  -6   2   4  976.40   75.09
  -6   2   4  947.91   68.59
   6  -1  -4  802.32   51.49
   6  -1  -4  681.53   50.79
  -6   1   4  691.33   51.89
  -6   1   4  779.72   61.69
   6   0  -4  329.87   28.00
   6   0  -4  339.07   26.40
   6   0  -4  313.57   25.30
  -6   0   4  306.47   34.90
  -6   0   4  352.46   27.10
   6   1  -4  743.83   50.89
   6   1  -4  706.43   42.20
   6   1  -4  730.13   43.70
  -6  -1   4  732.53   59.89
   6   2  -4  906.51   60.49
  -6  -2   4  821.52   67.19
   6   3  -4  518.65   42.20
  -6  -3   4  505.25   48.10
   6   4  -4   55.79   14.80
  -6  -4   4   62.99   18.60
   6   5  -4  226.48   28.80
  -6  -5   4  267.47   33.90
   6   6  -4   46.80   16.20
  -6  -6   4   25.00   16.10
   6   7  -4   39.10   14.30
  -6  -7   4   37.20   14.70
   5  -7  -4   38.00   17.50
   5  -7  -4   44.80   15.10
  -5   7   4   38.70   16.00
  -5   7   4   42.70   17.20
   5  -6  -4   61.19   16.00
  -5   6   4   70.19   22.40
  -5   6   4   59.19   15.90
   5  -5  -4   71.09   16.30
  -5   5   4   56.79   18.30
  -5   5   4   39.80   13.10
   5  -4  -4  640.14   47.10
  -5   4   4  530.65   51.09
  -5   4   4  624.34   53.99
   5  -3  -4  745.13   51.39
  -5   3   4  706.43   56.89
  -5   3   4  693.33   57.99
   5  -2  -4 1240.38   75.39
  -5   2   4 1166.28   83.29
  -5   2   4 1192.48   79.99
   5  -1  -4 1535.25   89.89
  -5   1   4 1398.16   91.29
  -5   1   4 1591.04   99.79
   5   0  -4   -2.90    2.20
   5   0  -4    3.20    2.50
  -5   0   4    2.20    3.60
   5   1  -4 1539.65   91.39
   5   1  -4 1364.16   82.89
   5   1  -4 1657.03   84.29
  -5  -1   4 1575.94  100.49
   5   2  -4 1114.49   72.59
  -5  -2   4 1192.88   81.29
   5   3  -4  720.33   51.99
  -5  -3   4  709.83   57.69
   5   4  -4  567.94   46.60
  -5  -4   4  611.64   53.09
   5   5  -4   68.59   15.10
  -5  -5   4   40.20   13.20
   5   6  -4   50.19   15.30
  -5  -6   4   33.70   12.70
   5   7  -4   37.90   14.80
  -5  -7   4   35.80   18.20
   4  -7  -4   68.39   19.80
  -4   7   4  109.99   23.20
  -4   7   4   80.29   22.80
   4  -6  -4  160.88   27.60
  -4   6   4  130.09   28.80
  -4   6   4  164.98   23.60
   4  -5  -4  175.38   21.80
  -4   5   4  156.28   24.00
  -4   5   4  161.68   23.00
   4  -4  -4  179.58   20.80
  -4   4   4  141.99   27.70
  -4   4   4  155.08   21.50
   4  -3  -4  157.98   18.00
  -4   3   4  177.98   22.10
  -4   3   4  167.28   21.70
   4  -2  -4  360.36   28.60
  -4   2   4  359.36   31.90
  -4   2   4  368.96   33.20
   4  -1  -4 1850.51  106.09
   4  -1  -4 1828.02  108.39
  -4   1   4 1908.41  112.79
  -4   1   4 1798.62  108.29
   4   0  -4   25.30    6.20
   4   0  -4   26.20    5.80
  -4   0   4   32.90    9.90
  -4   0   4   27.70    6.50
   4   1  -4 1870.91  108.19
   4   1  -4 2091.39  102.09
  -4  -1   4 1848.12  114.99
  -4  -1   4 1742.73  102.09
   4   2  -4  373.56   28.90
  -4  -2   4  356.66   33.30
   4   3  -4  145.99   17.20
  -4  -3   4  150.08   20.10
   4   4  -4  155.48   19.80
  -4  -4   4  141.69   21.00
  -4  -4   4  163.08   11.70
  -4  -4   4  168.58   11.20
   4   5  -4  170.98   21.10
  -4  -5   4  168.28   14.00
  -4  -5   4  172.88   24.20
  -4  -5   4  162.48   14.20
   4   6  -4  120.89   23.40
  -4  -6   4  114.99   24.40
  -4  -6   4  112.19   13.20
   4   7  -4   96.99   21.30
  -4  -7   4   88.79   22.60
   3  -7  -4  189.28   28.80
   3  -7  -4  160.78   21.20
  -3   7   4  210.78   27.20
  -3   7   4  152.68   32.50
   3  -6  -4   84.39   19.10
  -3   6   4   80.99   16.50
  -3   6   4   92.29   23.30
   3  -5  -4  252.67   27.30
  -3   5   4  241.28   25.90
  -3   5   4  239.88   32.00
   3  -4  -4  162.78   19.60
   3  -4  -4  175.88   19.60
  -3   4   4  176.48   23.60
  -3   4   4  159.48   19.70
   3  -3  -4 1062.59   62.59
   3  -3  -4  974.70   62.49
  -3   3   4  923.81   66.89
  -3   3   4  835.12   61.39
   3  -2  -4  421.06   31.90
   3  -2  -4  487.25   33.10
  -3   2   4  380.26   33.90
  -3   2   4  449.26   34.10
   3  -1  -4  539.95   37.80
   3  -1  -4  589.64   37.10
   3  -1  -4  606.94   39.00
  -3   1   4  525.95   38.80
  -3   1   4  484.55   37.50
   3   0  -4  109.99   12.90
   3   0  -4   98.99   10.10
   3   0  -4  103.69   10.60
  -3   0   4   96.79   10.20
  -3   0   4  113.39   13.50
  -3   0   4   98.99   10.10
   3   1  -4  551.64   31.00
   3   1  -4  532.95   35.00
  -3  -1   4  535.05   39.90
  -3  -1   4  525.15   31.70
  -3  -1   4  530.75   34.70
   3   2  -4  449.46   31.30
  -3  -2   4  411.66   25.50
  -3  -2   4  396.06   34.80
  -3  -2   4  467.15   25.30
   3   3  -4  924.41   59.99
  -3  -3   4  917.91   53.69
  -3  -3   4  968.80   66.29
   3   4  -4  159.08   18.70
  -3  -4   4  199.08   15.00
  -3  -4   4  146.59   14.30
  -3  -4   4  164.18   22.00
   3   5  -4  262.47   27.30
  -3  -5   4  226.78   20.40
  -3  -5   4  245.48   30.30
   3   6  -4   78.39   17.80
  -3  -6   4   72.79   19.60
  -3  -6   4   71.09   13.60
   3   7  -4  185.08   26.80
  -3  -7   4  163.58   32.50
  -3  -7   4  193.08   22.30
   2  -7  -4  135.19   26.90
   2  -7  -4  131.39   17.00
  -2   7   4  138.89   31.20
   2  -6  -4  190.58   27.00
   2  -6  -4  203.38   20.40
  -2   6   4  215.78   22.40
  -2   6   4  194.58   29.80
   2  -5  -4   59.19   15.70
   2  -5  -4   85.49   12.10
  -2   5   4   80.69   20.10
  -2   5   4   82.99   15.00
   2  -4  -4  153.58   19.10
   2  -4  -4  197.98   17.00
  -2   4   4  142.19   15.40
  -2   4   4  125.79   23.30
   2  -3  -4   92.39   10.40
   2  -3  -4   86.79   12.30
  -2   3   4   87.89   10.30
  -2   3   4   69.59   15.40
   2  -2  -4 2174.38  125.89
   2  -2  -4 2418.86  122.79
  -2   2   4 2164.08  123.39
  -2   2   4 2099.09  128.99
   2  -1  -4   61.29    8.50
   2  -1  -4   52.89    7.00
   2  -1  -4   50.29    7.30
  -2   1   4   50.09    7.20
  -2   1   4   45.20    7.20
  -2   1   4   38.70    8.30
   2   0  -4    1.80    1.80
   2   0  -4    0.90    1.70
   2   0  -4    0.70    1.80
  -2   0   4   -0.10    1.30
  -2   0   4    3.80    2.10
   2   1  -4   70.29    6.40
   2   1  -4   56.69    6.80
   2   1  -4   55.89   10.60
  -2  -1   4   66.99    6.60
  -2  -1   4   46.50    6.20
  -2  -1   4   50.59   10.30
  -2  -1   4   54.79   10.80
   2   2  -4 1908.01  120.59
   2   2  -4 2298.07  124.19
  -2  -2   4 2481.85  121.49
  -2  -2   4 2235.88  130.79
  -2  -2   4 2199.28  123.19
  -2  -2   4 2281.97  122.79
   2   3  -4   91.89   11.40
  -2  -3   4   81.49    8.90
  -2  -3   4   77.19   15.40
  -2  -3   4   82.09    9.90
   2   4  -4  157.18   17.50
  -2  -4   4  153.58   21.90
  -2  -4   4  150.58   15.10
  -2  -4   4  159.58   20.90
   2   5  -4   78.09   16.10
  -2  -5   4   72.99   17.90
  -2  -5   4   93.19   12.00
   2   6  -4  195.18   23.70
  -2  -6   4  191.48   22.20
  -2  -6   4  216.88   27.70
   2   7  -4  148.09   27.20
  -2  -7   4  127.79   23.10
  -2  -7   4  161.18   24.90
   1  -7  -4   42.80   15.30
   1  -7  -4   48.70   11.60
  -1   7   4    7.10   14.80
   1  -6  -4  200.18   18.80
   1  -6  -4  213.38   19.60
   1  -6  -4  192.18   26.80
  -1   6   4  182.48   33.10
   1  -5  -4  261.97   29.30
   1  -5  -4  291.67   23.00
   1  -5  -4  276.97   21.50
  -1   5   4  326.97   34.70
   1  -4  -4 1032.40   72.49
   1  -4  -4 1108.39   63.09
   1  -4  -4 1121.59   61.69
  -1   4   4 1058.09   76.19
   1  -3  -4  642.94   46.60
   1  -3  -4  669.03   36.60
   1  -3  -4  665.23   36.90
  -1   3   4  692.63   37.00
  -1   3   4  591.34   48.10
   1  -2  -4 1670.43   81.69
   1  -2  -4 1594.54   90.89
  -1   2   4 1314.07   81.79
  -1   2   4 1623.84   94.09
   1  -1  -4  135.49   13.50
   1  -1  -4  137.89   10.60
   1  -1  -4  136.99   12.70
  -1   1   4  143.59   10.90
  -1   1   4  147.29   11.30
  -1   1   4  124.19   12.20
  -1   1   4  122.19   13.40
   1   0  -4 2269.57  118.59
   1   0  -4 2152.28  116.19
  -1   0   4 2203.58  119.09
  -1   0   4 2025.20  119.59
  -1   0   4 2035.90  115.99
  -1   0   4 2154.98  118.59
   1   1  -4  131.69   10.50
   1   1  -4  152.28   12.00
   1   1  -4  146.69   15.70
  -1  -1   4  132.69   10.30
  -1  -1   4  135.59   15.00
  -1  -1   4  150.68   12.20
  -1  -1   4  131.89   14.50
   1   2  -4 1679.03  103.69
   1   2  -4 1604.24   93.49
  -1  -2   4 1812.52   94.89
  -1  -2   4 1713.73   93.09
  -1  -2   4 1617.24  100.99
   1   3  -4  649.74   42.20
   1   3  -4  740.23   53.29
  -1  -3   4  679.13   42.40
  -1  -3   4  603.54   43.30
  -1  -3   4  657.23   49.30
  -1  -3   4  622.24   40.80
   1   4  -4 1285.67   84.29
   1   4  -4 1076.79   70.59
  -1  -4   4 1115.89   70.99
  -1  -4   4 1150.18   79.29
   1   5  -4  338.37   36.90
   1   5  -4  286.27   27.10
  -1  -5   4  338.27   29.00
  -1  -5   4  259.77   31.40
   1   6  -4  216.28   30.50
   1   6  -4  235.78   24.70
  -1  -6   4  201.48   23.90
  -1  -6   4  180.38   26.80
   1   7  -4   42.00   12.00
  -1  -7   4   17.80   10.40
  -1  -7   4   16.10    9.00
  -1  -7   4   37.90   15.60
  -1  -8   4   50.39   16.80
   0  -7  -4   67.69   19.30
   0   7   4   59.99   22.60
   0  -6  -4  227.68   30.20
   0  -6  -4  258.77   20.90
   0  -6  -4  249.78   20.10
   0   6   4  259.37   33.90
   0   6   4  246.38   29.60
   0  -5  -4  297.37   20.10
   0  -5  -4  249.38   20.30
   0  -5  -4  281.57   31.20
   0   5   4  273.67   32.60
   0   5   4  304.17   30.20
   0  -4  -4  541.05   31.60
   0  -4  -4  571.04   31.50
   0  -4  -4  522.25   43.90
   0   4   4  556.64   46.50
   0   4   4  596.44   44.10
   0  -3  -4   30.60    8.90
   0   3   4   33.20    8.30
   0   3   4   27.40    8.60
   0  -2  -4  524.95   37.30
   0   2   4  534.85   36.60
   0   2   4  533.65   39.20
   0  -1  -4   83.89    7.80
   0  -1  -4   70.99    8.00
   0  -1  -4   74.09    8.70
   0  -1  -4   85.49   10.00
   0   1   4   66.89    7.50
   0   1   4   81.99   10.10
   0   0  -4 1737.03   97.49
   0   0  -4 1807.52   95.79
   0   0  -4 1745.23   92.09
   0   0  -4 1699.03   91.89
   0   0   4 1748.43   95.79
   0   0   4 1560.94   96.59
   0   0   4 1525.15   91.69
   0   1  -4   84.69   12.20
   0   1  -4   89.49    9.40
   0   1  -4   86.99    6.10
   0  -1   4   79.39   11.70
   0  -1   4   71.09    5.90
   0  -1   4   93.59    9.60
   0   2  -4  520.65   42.30
   0   2  -4  547.75   31.70
   0   2  -4  437.66   34.60
   0  -2   4  561.84   31.10
   0  -2   4  588.04   36.30
   0   3  -4   33.20    6.40
   0   3  -4   31.50   10.90
   0  -3   4   35.20    5.10
   0  -3   4   27.20    7.00
   0   4  -4  534.35   49.00
   0   4  -4  597.54   38.90
   0  -4   4  548.05   46.60
   0  -4   4  538.55   41.30
   0   5  -4  292.07   26.10
   0   5  -4  322.07   36.00
   0  -5   4  288.27   32.50
   0  -5   4  231.68   24.40
   0  -5   4  284.47   28.50
   0   6  -4  232.78   24.40
   0   6  -4  238.08   32.70
   0  -6   4  287.07   32.80
   0  -6   4  174.98   22.50
   0  -6   4  229.88   27.20
   0   7  -4  115.29   16.30
   0   7  -4   86.99   26.20
   0  -7   4   69.59   21.40
   0  -7   4   77.99   18.40
   0  -7   4   57.79   17.30
  -1  -7  -4   18.10   11.80
   1   7   4   58.19   16.20
   1   7   4   38.10   15.20
  -1  -6  -4   99.69   11.40
  -1  -6  -4  109.89   23.20
  -1  -6  -4  103.79   13.00
   1   6   4  111.39   21.90
   1   6   4  103.09   24.30
  -1  -5  -4  670.13   53.89
  -1  -5  -4  638.84   39.50
  -1  -5  -4  635.04   39.20
   1   5   4  580.24   52.49
   1   5   4  669.33   52.19
  -1  -4  -4  136.09   10.50
  -1  -4  -4  133.79   10.40
  -1  -4  -4   99.79   19.10
   1   4   4  118.89   16.70
   1   4   4   99.59   19.50
  -1  -3  -4   76.39    6.60
  -1  -3  -4   90.69   13.40
  -1  -3  -4   85.59    6.60
   1   3   4   76.89   11.80
   1   3   4   60.99   13.80
  -1  -2  -4 1408.06   85.19
  -1  -2  -4 1348.07   78.79
   1   2   4 1494.15   78.29
   1   2   4 1424.46   86.49
   1   2   4 1409.26   83.99
  -1  -1  -4 3180.78  169.88
  -1  -1  -4 3033.00  170.18
  -1  -1  -4 3173.38  171.18
   1   1   4 3084.39  169.38
   1   1   4 3177.38  172.78
   1   1   4 3045.90  170.68
  -1   0  -4  316.77   27.40
  -1   0  -4  378.36   25.90
  -1   0  -4  339.67   21.60
  -1   0  -4  339.87   21.80
   1   0   4  352.26   25.70
   1   0   4  344.47   21.40
  -1   1  -4 3179.28  182.98
   1  -1   4 2943.91  182.18
   1  -1   4 3466.15  176.78
  -1   2  -4 1410.06   95.79
   1  -2   4 1614.64   88.99
   1  -2   4 1401.96   78.99
   1  -2   4 1541.75   78.99
  -1   3  -4   88.09   19.50
   1  -3   4   83.69   12.70
   1  -3   4   85.89    8.40
   1  -3   4   93.09    8.20
  -1   4  -4  141.49   22.50
   1  -4   4  132.79   17.30
   1  -4   4  121.89   13.20
   1  -4   4  148.89   13.70
  -1   5  -4  627.64   58.99
   1  -5   4  723.03   53.49
   1  -5   4  628.54   45.00
  -1   6  -4   67.09   20.70
   1  -6   4   96.19   22.40
   1  -6   4   97.29   22.80
   1  -6   4  104.29   18.00
  -1   7  -4   43.30   20.10
   1  -7   4   42.20   12.10
   1  -7   4   48.30   15.50
   1  -7   4   37.20   16.50
  -2  -7  -4  122.19   27.00
   2   7   4  122.89   25.30
   2   7   4   96.99   23.20
  -2  -6  -4  108.99   24.00
  -2  -6  -4  153.28   14.80
   2   6   4  145.79   22.10
   2   6   4  187.98   32.30
  -2  -5  -4  262.97   22.20
  -2  -5  -4  313.77   22.90
  -2  -5  -4  266.87   31.70
   2   5   4  274.77   30.10
   2   5   4  258.87   30.30
  -2  -4  -4  265.97   20.40
  -2  -4  -4  254.37   21.10
   2   4   4  242.48   27.60
   2   4   4  292.97   28.00
  -2  -3  -4  995.90   60.19
   2   3   4  934.71   65.79
   2   3   4  983.10   57.69
   2   3   4  998.30   65.09
  -2  -2  -4  165.78   17.00
   2   2   4  186.78   16.30
   2   2   4  186.58   18.10
   2   2   4  204.28   19.90
  -2  -1  -4 3081.09  174.38
  -2  -1  -4 3160.88  169.18
   2   1   4 2924.91  168.68
   2   1   4 3081.49  173.08
   2   1   4 3190.68  172.38
  -2   0  -4    6.30    2.00
  -2   0  -4    0.00    3.80
   2   0   4    5.50    3.00
   2   0   4    0.30    2.80
   2   0   4    1.80    2.00
  -2   1  -4 3083.49  190.38
   2  -1   4 3484.95  183.28
  -2   2  -4  197.28   24.90
   2  -2   4  194.98   19.50
  -2   3  -4 1004.50   76.89
   2  -3   4 1008.10   56.69
   2  -3   4 1049.99   67.99
   2  -3   4 1001.00   56.39
  -2   4  -4  294.87   35.90
   2  -4   4  292.97   29.10
   2  -4   4  289.57   20.60
   2  -4   4  252.17   20.20
  -2   5  -4  255.57   35.40
   2  -5   4  262.17   22.30
   2  -5   4  292.97   31.60
  -2   6  -4  201.18   31.30
   2  -6   4  126.29   27.30
   2  -6   4  145.59   17.50
  -2   7  -4  133.79   31.00
   2  -7   4  119.09   27.30
   2  -7   4  128.69   28.90
   2  -7   4  129.99   18.60
  -3  -7  -4  132.19   28.50
   3   7   4  141.99   27.30
   3   7   4  123.29   26.00
  -3  -6  -4  249.38   33.10
  -3  -6  -4  225.98   22.80
   3   6   4  287.87   33.30
   3   6   4  202.78   29.90
  -3  -5  -4   75.39   11.40
   3   5   4   64.59   15.00
   3   5   4   62.69   16.20
  -3  -4  -4  150.98   19.20
   3   4   4  208.98   18.10
   3   4   4  199.98   24.00
   3   4   4  207.18   23.70
  -3  -3  -4  972.50   65.19
   3   3   4 1015.80   67.79
   3   3   4 1026.40   62.39
   3   3   4  966.30   66.49
  -3  -2  -4  164.18   19.10
   3   2   4  149.09   16.90
   3   2   4  140.19   16.10
   3   2   4  147.79   16.50
  -3  -1  -4  618.94   49.30
   3   1   4  647.14   42.80
   3   1   4  703.33   46.00
  -3   0  -4   36.10    5.00
  -3   0  -4   37.30   12.00
   3   0   4   35.90    6.80
   3   0   4   40.20    8.90
  -3   1  -4  651.73   37.00
  -3   1  -4  608.04   53.19
   3  -1   4  736.23   47.10
   3  -1   4  638.74   37.40
  -3   2  -4  163.38   24.20
   3  -2   4  156.98   18.00
   3  -2   4  145.69    9.20
   3  -2   4  147.29    9.10
  -3   3  -4  990.70   81.49
   3  -3   4 1026.00   71.49
   3  -3   4 1101.59   58.49
   3  -3   4 1064.69   58.89
  -3   4  -4  210.08   31.90
   3  -4   4  247.78   17.80
   3  -4   4  258.57   27.90
   3  -4   4  217.88   17.40
  -3   5  -4   75.89   24.20
   3  -5   4   66.59    9.60
   3  -5   4   49.90   16.80
  -3   6  -4  284.57   42.50
   3  -6   4  260.97   24.40
   3  -6   4  366.36   36.10
  -3   7  -4  143.09   35.50
   3  -7   4  110.79   29.20
   3  -7   4  157.98   18.50
  -4  -7  -4   92.39   23.90
   4   7   4   78.59   23.90
   4   7   4   78.19   18.70
  -4  -6  -4  227.48   31.50
  -4  -6  -4  200.88   22.90
   4   6   4  212.88   28.80
   4   6   4  219.18   30.60
  -4  -5  -4   33.40   11.70
   4   5   4   26.70   11.60
   4   5   4   45.60   15.60
  -4  -4  -4  119.69   21.90
   4   4   4  112.59   21.30
   4   4   4  126.19   23.30
  -4  -3  -4  431.96   37.90
   4   3   4  419.66   36.50
   4   3   4  441.36   37.00
  -4  -2  -4  467.05   40.50
   4   2   4  452.25   36.00
   4   2   4  427.76   34.90
  -4  -1  -4  129.79   20.50
   4   1   4  103.99   13.00
   4   1   4  123.89   14.60
  -4   0  -4   22.60    5.10
  -4   0  -4   19.30   11.50
   4   0   4   27.50    8.10
   4   0   4   23.00    5.90
  -4   1  -4  112.59   10.10
  -4   1  -4  165.88   30.40
   4  -1   4  137.79   16.50
   4  -1   4  119.39   10.80
  -4   2  -4  447.76   27.80
  -4   2  -4  411.56   45.20
   4  -2   4  526.65   39.80
   4  -2   4  444.76   27.30
  -4   3  -4  439.56   49.20
   4  -3   4  467.05   27.50
   4  -3   4  420.56   27.50
   4  -3   4  502.85   41.70
  -4   4  -4  108.29   29.10
   4  -4   4  134.99   24.80
   4  -4   4  122.79   12.00
   4  -4   4  145.49   12.00
  -4   5  -4   53.59   22.60
   4  -5   4   40.80   13.80
   4  -5   4   57.69    8.30
  -4   6  -4  227.48   45.60
   4  -6   4  258.07   22.50
   4  -6   4  276.77   35.80
  -4   7  -4   67.69   28.20
   4  -7   4  107.59   25.80
   5   6   4   90.49   23.30
   5   6   4  134.79   26.40
  -5  -5  -4   98.89   20.60
   5   5   4  111.49   23.40
   5   5   4  113.49   23.80
  -5  -4  -4  160.78   24.20
   5   4   4  172.58   22.90
   5   4   4  176.38   23.10
  -5  -3  -4   54.19   16.90
   5   3   4   56.69   13.80
   5   3   4   44.10   12.50
  -5  -2  -4  271.67   32.80
   5   2   4  263.07   26.20
   5   2   4  280.67   26.70
  -5  -1  -4   65.29   17.10
   5   1   4   71.09   14.40
   5   1   4   57.69   12.10
  -5   0  -4  134.39   28.00
   5   0   4  120.89   16.30
   5   0   4  129.29   13.70
  -5   1  -4   50.49    7.10
  -5   1  -4   68.49   20.00
   5  -1   4   58.69   14.00
   5  -1   4   59.19    7.80
  -5   2  -4  274.17   37.70
  -5   2  -4  266.67   20.00
   5  -2   4  290.77   29.50
   5  -2   4  275.57   19.70
  -5   3  -4   26.40   15.40
   5  -3   4   30.70   10.90
   5  -3   4   41.60    5.90
   5  -3   4   31.90    5.70
  -5   4  -4  169.58   39.40
   5  -4   4  180.68   15.10
   5  -4   4  213.98   27.60
   5  -4   4  180.08   14.60
  -5   5  -4   77.59   28.20
   5  -5   4   81.79   21.10
   5  -5   4  127.49   12.40
  -5   6  -4  131.69   36.10
   5  -6   4  125.69   34.30
  -6  -5  -4  -15.20   12.10
   6   5   4   -2.20   10.00
   6   5   4    9.30   10.70
  -6  -4  -4   84.49   22.40
   6   4   4  123.69   24.50
   6   4   4  116.99   23.10
  -6  -3  -4  196.28   29.50
   6   3   4  199.98   23.60
   6   3   4  179.88   22.90
  -6  -2  -4  219.98   32.30
   6   2   4  203.78   23.50
   6   2   4  207.58   23.90
  -6  -1  -4  212.88   31.00
   6   1   4  230.48   22.70
   6   1   4  195.78   23.20
  -6   0  -4  224.48   34.30
   6   0   4  260.77   26.40
   6   0   4  222.08   21.80
  -6   1  -4  217.68   35.20
   6  -1   4  224.78   19.90
   6  -1   4  257.67   27.70
  -6   2  -4  278.27   39.60
   6  -2   4  238.58   19.20
   6  -2   4  239.38   27.80
  -6   3  -4  221.28   44.60
  -6   3  -4  193.48   18.40
   6  -3   4  238.68   18.40
   6  -3   4  287.27   31.30
  -6   4  -4  146.89   36.80
   6  -4   4  108.69   24.10
   6  -4   4  142.79   13.10
  -6   5  -4   -3.20   15.00
   6  -5   4   15.80   11.60
   6  -6   4   33.00   11.40
  -7  -5  -4   80.09   23.80
   7   5   4   78.69   21.90
   7   5   4   66.89   19.20
  -7  -4  -4  138.39   32.40
   7   4   4  171.98   24.30
   7   4   4  179.58   24.40
  -7  -3  -4  170.08   36.10
   7   3   4  123.69   23.60
   7   3   4  157.28   21.90
  -7  -2  -4  308.47   40.90
   7   2   4  345.47   33.00
   7   2   4  309.37   31.20
  -7  -1  -4    8.60   15.20
   7   1   4   37.70   11.40
   7   1   4   18.00    7.20
  -7   0  -4  465.35   51.69
   7   0   4  479.05   37.40
   7   0   4  444.16   40.40
  -7   1  -4   25.80   15.70
   7  -1   4   15.50    7.20
   7  -1   4   10.90    8.20
  -7   2  -4  433.46   50.69
   7  -2   4  391.26   30.30
   7  -2   4  439.46   41.50
  -7   3  -4  175.38   41.30
   7  -3   4  198.58   33.70
   7  -3   4  141.49   15.00
  -7   4  -4  234.78   52.39
   7  -4   4  252.67   32.90
  -7   5  -4  115.49   34.70
   7  -5   4  105.19   26.40
  -8  -4  -4    1.70   19.00
   8   4   4   36.20   13.80
   8   4   4   21.20   11.40
  -8  -3  -4   47.20   20.90
   8   3   4   23.50   13.40
   8   3   4   54.19   15.10
  -8  -2  -4   66.59   23.80
   8   2   4   39.50   14.30
   8   2   4   57.59   14.60
  -8  -1  -4  301.17   40.00
   8   1   4  209.28   26.90
   8   1   4  229.88   25.70
  -8   0  -4   69.09   27.90
   8   0   4   63.19   16.50
  -8   1  -4  283.47   44.80
   8  -1   4  251.97   23.80
   8  -1   4  225.88   29.00
  -8   2  -4   53.79   24.40
   8  -2   4   43.90   10.40
   8  -2   4   60.09   15.80
  -8   3  -4   64.59   12.70
   8  -3   4   41.60   15.80
  -8   4  -4   11.70   24.70
   8  -4   4   79.29   14.70
  -9  -2  -4   84.09   25.80
   9   2   4   33.60   15.20
   9   2   4   58.59   16.20
  -9  -1  -4   10.60   24.00
   9   1   4   22.20   14.60
  -9   0  -4   58.39   24.20
   9   0   4   87.79   17.00
   9   0   4  125.59   23.60
  -9   1  -4   38.00   17.90
   9  -1   4   61.49   13.70
   9  -1   4   45.50   15.40
  -9   2  -4   30.20   26.50
   9  -2   4   52.09   17.30
  11  -2  -5   39.80   14.70
  11  -2  -5   46.40   13.10
 -11   2   5   13.80   12.10
  11  -1  -5    8.30    7.00
  11  -1  -5   39.00   14.00
 -11   1   5   21.30   16.70
  11   0  -5   27.20   11.10
  11   0  -5   29.30   11.20
 -11   0   5   29.30   17.60
  11   1  -5   10.70    9.90
 -11  -1   5   -5.30   19.50
  11   2  -5   76.19   15.60
 -11  -2   5   60.19   17.50
  10  -4  -5   51.49   19.60
  10  -4  -5   58.59   15.10
 -10   4   5   40.00   27.00
  10  -3  -5  174.78   24.70
  10  -3  -5  147.09   28.30
 -10   3   5   89.29   31.60
  10  -2  -5   42.10   13.00
  10  -2  -5   27.90   12.10
 -10   2   5    8.70   17.10
  10  -1  -5  112.99   22.30
  10  -1  -5  151.78   17.70
 -10   1   5   90.69   26.90
  10   0  -5   32.30    9.70
  10   0  -5   11.70    7.20
 -10   0   5   13.50   11.20
  10   1  -5  129.39   13.00
  10   1  -5  113.89   23.10
 -10  -1   5   90.09   30.40
  10   2  -5   31.50   11.70
 -10  -2   5   56.29   11.10
  10   3  -5  117.59   23.60
 -10  -3   5  115.29   33.70
 -10  -4   5   62.79   21.20
   9  -5  -5  182.38   23.80
   9  -5  -5  112.69   28.40
  -9   5   5   94.69   26.40
   9  -4  -5  -14.90    9.90
   9  -4  -5   20.50   11.20
  -9   4   5   10.60   13.20
  -9   4   5   32.40   18.20
   9  -3  -5   59.79   16.20
   9  -3  -5   66.39   18.30
  -9   3   5   63.49   17.50
  -9   3   5   30.60   20.00
   9  -2  -5   13.10    7.50
   9  -2  -5   17.00    7.80
  -9   2   5    7.00   10.60
  -9   2   5    9.00   13.20
   9  -1  -5   54.49   14.40
   9  -1  -5   48.30   12.30
  -9   1   5   58.79   22.00
   9   0  -5   46.60   13.60
   9   0  -5   57.99   11.60
  -9   0   5   19.40   16.30
   9   1  -5   52.69    9.50
   9   1  -5   70.49   16.40
   9   1  -5   59.69   10.60
  -9  -1   5   46.80   15.40
   9   2  -5   21.00    9.10
  -9  -2   5   -0.70   16.00
   9   3  -5   72.19   18.10
  -9  -3   5   69.69   23.10
   9   4  -5   11.60    6.40
  -9  -4   5    2.00    5.80
   9   5  -5  109.39   27.60
  -9  -5   5  118.79   31.80
   8  -5  -5  130.99   30.60
   8  -5  -5  155.68   26.70
  -8   5   5  138.99   32.00
  -8   5   5  125.99   36.80
   8  -4  -5   95.79   19.10
   8  -4  -5   82.49   20.10
  -8   4   5  116.99   24.50
  -8   4   5   81.19   23.90
   8  -3  -5   42.30   15.70
   8  -3  -5   90.19   16.80
  -8   3   5   68.39   17.20
  -8   3   5   70.89   22.50
   8  -2  -5  339.97   35.30
   8  -2  -5  406.96   35.20
  -8   2   5  373.36   38.20
  -8   2   5  349.37   43.50
   8  -1  -5  205.98   22.30
   8  -1  -5  211.28   23.20
  -8   1   5  196.48   23.00
  -8   1   5  200.78   32.40
   8   0  -5  646.84   48.80
   8   0  -5  614.24   43.10
  -8   0   5  593.94   59.89
   8   1  -5  226.28   16.30
   8   1  -5  217.38   17.10
   8   1  -5  172.48   22.70
  -8  -1   5  195.18   31.40
   8   2  -5  412.76   37.60
  -8  -2   5  380.66   45.50
   8   3  -5   77.99   16.90
  -8  -3   5   78.89   22.30
   8   4  -5  131.19   25.80
  -8  -4   5  106.79   26.40
   8   5  -5  138.69   28.70
  -8  -5   5  171.38   38.10
   7  -6  -5   61.59   18.00
   7  -6  -5   75.59   23.50
  -7   6   5   65.39   20.10
  -7   6   5  115.09   24.40
   7  -5  -5    5.80    6.20
   7  -5  -5  -11.60    6.00
  -7   5   5  -10.60    5.20
  -7   5   5  -14.10   12.40
   7  -4  -5  301.27   29.70
  -7   4   5  256.97   34.20
  -7   4   5  186.58   38.90
   7  -3  -5  235.38   25.60
  -7   3   5  221.78   28.60
  -7   3   5  224.78   32.70
   7  -2  -5  790.12   56.39
  -7   2   5  789.12   60.79
  -7   2   5  776.92   67.99
   7  -1  -5  426.36   35.00
   7  -1  -5  391.76   34.40
  -7   1   5  397.26   43.20
  -7   1   5  430.06   36.30
   7   0  -5  330.37   29.30
   7   0  -5  321.17   25.60
  -7   0   5  328.37   26.70
  -7   0   5  257.97   34.30
   7   1  -5  391.46   26.10
   7   1  -5  434.66   27.70
   7   1  -5  409.76   34.90
  -7  -1   5  371.96   41.90
   7   2  -5  753.22   56.29
  -7  -2   5  788.42   66.79
   7   3  -5  160.68   21.50
   7   4  -5  244.08   29.60
  -7  -4   5  253.07   34.80
   7   5  -5    8.20    7.60
  -7  -5   5    2.30    5.70
   7   6  -5  117.69   24.70
  -7  -6   5   63.89   23.30
   6  -6  -5  287.87   31.00
  -6   6   5  228.48   32.10
  -6   6   5  190.58   39.40
   6  -5  -5   19.00    9.90
  -6   5   5   31.90   13.70
  -6   5   5    6.40   12.80
   6  -4  -5  273.07   29.10
  -6   4   5  318.97   37.70
  -6   4   5  333.27   37.10
   6  -3  -5  274.77   27.10
  -6   3   5  228.68   29.90
  -6   3   5  304.17   35.10
   6  -2  -5  690.93   50.29
  -6   2   5  742.93   55.39
  -6   2   5  686.03   59.09
   6  -1  -5   88.39   12.40
  -6   1   5   88.19   20.70
  -6   1   5   73.89   14.60
   6   0  -5   33.30    6.50
   6   0  -5   20.20    7.00
  -6   0   5    6.80    7.10
  -6   0   5   24.00    7.70
   6   1  -5   83.09   14.70
   6   1  -5   60.19    6.90
  -6  -1   5   65.99   16.80
   6   2  -5  665.23   49.50
  -6  -2   5  709.63   58.79
   6   3  -5  235.28   25.70
  -6  -3   5  293.97   33.40
   6   4  -5  311.77   31.30
  -6  -4   5  263.07   34.00
   6   5  -5   37.20   12.80
  -6  -5   5   13.00   12.10
   6   6  -5  226.28   31.10
  -6  -6   5  258.37   36.50
   5  -7  -5   24.70   13.10
  -5   7   5   20.80   13.00
  -5   7   5   22.30   15.60
   5  -6  -5  171.88   22.80
  -5   6   5  115.79   25.70
  -5   6   5  184.08   27.60
   5  -5  -5   57.69   15.10
  -5   5   5   42.60   18.00
  -5   5   5   64.89   17.00
   5  -4  -5  432.96   36.30
  -5   4   5  385.56   40.50
  -5   4   5  337.87   36.70
   5  -3  -5  114.89   15.10
  -5   3   5   81.19   18.30
  -5   3   5  128.79   24.50
   5  -2  -5  742.33   49.50
  -5   2   5  647.44   51.89
  -5   2   5  682.13   54.49
   5  -1  -5   16.90    5.80
  -5   1   5   12.20    6.90
  -5   1   5    0.40    4.80
   5   0  -5  467.95   32.70
   5   0  -5  471.15   34.70
  -5   0   5  465.75   33.60
  -5   0   5  478.35   41.40
   5   1  -5   19.40    6.20
   5   1  -5   17.10    4.00
  -5  -1   5   17.70    4.00
  -5  -1   5   16.60    8.00
   5   2  -5  688.93   47.60
  -5  -2   5  644.94   53.79
   5   3  -5   87.49   16.60
  -5  -3   5  119.29   18.70
   5   4  -5  385.06   35.50
  -5  -4   5  429.36   42.30
   5   5  -5   53.29   15.40
   5   6  -5  154.78   23.00
  -5  -6   5  193.68   29.60
   5   7  -5   29.70   11.20
  -5  -7   5   25.20   16.60
   4  -7  -5  174.18   24.80
  -4   7   5  175.88   25.70
  -4   7   5  144.89   32.70
   4  -6  -5  117.69   23.50
  -4   6   5   75.89   18.10
  -4   6   5   75.49   20.10
   4  -5  -5   63.19   16.00
  -4   5   5   82.39   18.70
  -4   5   5   56.29   15.80
   4  -4  -5  857.51   58.69
  -4   4   5  783.32   63.69
  -4   4   5  729.23   56.59
   4  -3  -5  759.32   52.79
  -4   3   5  720.33   57.19
  -4   3   5  753.62   55.09
   4  -2  -5   75.19   11.10
  -4   2   5   66.99   14.60
  -4   2   5   74.99   14.80
   4  -1  -5  861.11   56.29
  -4   1   5  881.61   58.49
  -4   1   5  920.41   61.39
   4   0  -5   58.19    8.90
   4   0  -5   61.79    8.30
  -4   0   5   55.49    8.00
  -4   0   5   66.19   14.10
   4   1  -5  862.91   53.69
   4   1  -5  921.11   48.70
  -4  -1   5  854.61   60.09
  -4  -1   5  740.93   48.70
   4   2  -5   78.79   10.70
  -4  -2   5   76.09   16.10
  -4  -2   5   68.59    5.20
  -4  -2   5   75.99    5.30
   4   3  -5  735.83   51.39
  -4  -3   5  755.12   58.29
   4   4  -5  716.13   54.09
  -4  -4   5  669.13   43.30
  -4  -4   5  825.52   62.79
  -4  -4   5  841.62   43.20
   4   5  -5   60.29   15.10
  -4  -5   5   51.59    7.50
  -4  -5   5   38.90   15.10
  -4  -5   5   62.09    7.40
   4   6  -5   95.49   20.20
  -4  -6   5  113.29   11.20
  -4  -6   5   62.09   19.10
   4   7  -5  180.08   26.40
  -4  -7   5  220.98   32.30
   3  -7  -5  202.58   28.50
  -3   7   5  108.39   25.80
   3  -6  -5   35.50   15.70
  -3   6   5   58.49   13.10
  -3   6   5   73.39   22.30
   3  -5  -5  496.85   41.30
   3  -5  -5  453.55   33.60
  -3   5   5  374.26   42.20
  -3   5   5  397.86   32.70
   3  -4  -5  301.87   24.20
   3  -4  -5  298.27   28.50
  -3   4   5  246.98   24.20
  -3   4   5  250.77   30.60
   3  -3  -5  749.62   48.20
   3  -3  -5  586.54   42.10
  -3   3   5  617.04   44.40
  -3   3   5  631.44   50.69
   3  -2  -5  466.95   33.30
   3  -2  -5  514.55   36.00
  -3   2   5  468.95   38.40
  -3   2   5  467.35   35.20
   3  -1  -5 1385.86   79.99
   3  -1  -5 1443.36   81.29
  -3   1   5 1206.88   80.99
  -3   1   5 1352.26   81.69
   3   0  -5  434.06   30.40
   3   0  -5  450.25   33.70
   3   0  -5  468.75   30.80
  -3   0   5  435.86   34.00
  -3   0   5  431.36   30.80
   3   1  -5 1353.36   74.79
   3   1  -5 1268.57   77.39
  -3  -1   5 1317.17   83.89
  -3  -1   5 1410.46   76.09
   3   2  -5  444.06   28.90
   3   2  -5  480.65   33.60
  -3  -2   5  486.05   39.60
  -3  -2   5  519.15   29.80
   3   3  -5  645.84   46.00
  -3  -3   5  687.53   53.39
  -3  -3   5  629.94   41.70
  -3  -3   5  761.42   41.00
   3   4  -5  302.77   27.60
  -3  -4   5  267.67   31.10
  -3  -4   5  338.07   22.50
  -3  -4   5  286.57   23.20
   3   5  -5  404.76   36.70
  -3  -5   5  480.35   31.00
  -3  -5   5  353.46   40.00
   3   6  -5   65.09   15.00
  -3  -6   5   38.50   14.30
  -3  -6   5   87.79   12.10
   3   7  -5  145.79   26.30
  -3  -7   5  155.38   31.50
  -3  -7   5  165.58   19.40
   2  -7  -5  132.89   27.80
  -2   7   5  178.88   36.60
   2  -6  -5   22.10    6.90
   2  -6  -5    9.70    6.50
  -2   6   5   57.39   19.90
   2  -5  -5  853.21   66.79
   2  -5  -5  947.21   55.89
  -2   5   5  819.12   71.59
  -2   5   5  999.60   56.39
   2  -4  -5  230.38   16.70
   2  -4  -5  196.58   23.50
  -2   4   5  226.48   17.30
  -2   4   5  221.48   27.00
   2  -3  -5  665.73   37.20
   2  -3  -5  635.14   45.30
  -2   3   5  597.14   48.40
  -2   3   5  561.84   37.50
   2  -2  -5   92.19   12.30
   2  -2  -5  123.69   10.40
  -2   2   5  108.39   10.80
  -2   2   5  108.99   14.80
   2  -1  -5  468.05   30.50
   2  -1  -5  477.25   31.80
  -2   1   5  448.46   30.80
  -2   1   5  406.06   32.90
   2   0  -5   10.40    4.30
   2   0  -5    5.20    3.20
   2   0  -5    6.00    2.90
  -2   0   5    8.20    3.90
  -2   0   5    6.90    3.70
  -2   0   5    3.10    3.20
  -2   0   5    7.70    3.30
   2   1  -5  454.75   29.50
   2   1  -5  473.95   29.50
  -2  -1   5  447.76   29.90
  -2  -1   5  419.06   28.90
  -2  -1   5  500.35   35.80
   2   2  -5   90.99    9.70
   2   2  -5  113.89   11.30
  -2  -2   5  107.79   10.30
  -2  -2   5  115.19   10.80
  -2  -2   5  114.09   15.60
   2   3  -5  456.95   35.30
   2   3  -5  618.54   39.10
  -2  -3   5  605.14   38.90
  -2  -3   5  551.44   35.90
  -2  -3   5  601.44   46.50
   2   4  -5  220.88   21.00
  -2  -4   5  169.38   23.60
  -2  -4   5  222.68   18.50
   2   5  -5  926.81   63.09
  -2  -5   5  866.41   70.39
  -2  -5   5  945.11   59.99
   2   6  -5   37.50   11.80
  -2  -6   5   21.00    8.50
  -2  -6   5   40.80   14.40
   2   7  -5  123.69   24.20
  -2  -7   5  105.29   27.00
  -2  -7   5  162.28   20.30
   1  -7  -5   60.49   20.70
  -1   7   5   49.50   20.90
   1  -6  -5   80.99   19.60
  -1   6   5   76.99   21.70
   1  -5  -5   11.90    6.80
  -1   5   5   23.70   11.80
   1  -4  -5  217.88   24.50
  -1   4   5  201.28   25.50
   1  -3  -5  140.29   16.90
  -1   3   5  129.49   18.30
   1  -2  -5 1090.59   65.09
  -1   2   5  964.30   66.99
   1  -1  -5  963.00   54.89
   1  -1  -5  969.70   54.79
  -1   1   5  938.81   52.29
  -1   1   5  872.91   52.79
  -1   1   5  844.02   56.79
  -1   1   5  750.12   53.29
   1   0  -5 1987.10  107.79
   1   0  -5 1982.10  105.69
   1   0  -5 1850.51  102.29
  -1   0   5 1853.21  105.69
  -1   0   5 1817.92  105.59
  -1   0   5 1785.02  106.99
  -1   0   5 1731.93  102.19
   1   1  -5  926.71   53.19
   1   1  -5  867.71   49.99
   1   1  -5  939.21   59.89
  -1  -1   5  869.91   49.99
  -1  -1   5  749.03   52.19
  -1  -1   5  936.81   58.09
  -1  -1   5  899.71   60.09
   1   2  -5  916.11   61.09
   1   2  -5 1094.29   71.89
   1   2  -5  992.30   59.29
  -1  -2   5 1022.90   68.49
  -1  -2   5 1151.88   62.49
  -1  -2   5 1053.59   58.89
   1   3  -5  142.79   13.70
   1   3  -5  173.48   22.00
  -1  -3   5  146.29   14.40
  -1  -3   5  156.08   20.10
  -1  -3   5  132.29   12.50
   1   4  -5  221.28   20.20
   1   4  -5  237.58   29.60
  -1  -4   5  224.68   20.70
  -1  -4   5  184.98   25.00
   1   5  -5   21.00   11.20
   1   5  -5   16.60    6.90
  -1  -5   5    7.20    8.10
  -1  -5   5   13.60    7.30
   1   6  -5  110.39   19.20
   1   6  -5   75.29   22.60
  -1  -6   5   85.89   16.80
  -1  -6   5  109.39   24.20
   1   7  -5  102.39   19.90
  -1  -7   5   69.79   16.40
  -1  -7   5   65.39   21.30
  -1  -7   5   94.39   19.80
   0  -7  -5   26.20   11.40
   0   7   5   30.50   17.70
   0  -6  -5  106.59   24.00
   0   6   5  111.89   22.80
   0  -5  -5  123.09   22.80
   0   5   5  110.89   23.40
   0   5   5  130.59   18.60
   0  -4  -5  486.05   41.20
   0   4   5  463.95   42.60
   0   4   5  488.35   39.60
   0  -3  -5   82.49   15.80
   0   3   5  112.49   14.10
   0   3   5  104.39   15.80
   0  -2  -5 1162.98   72.39
   0   2   5 1182.48   75.19
   0  -1  -5 1071.59   74.09
   0  -1  -5 1450.75   75.19
   0  -1  -5 1400.26   75.49
   0   1   5 1356.66   79.09
   0   1   5 1194.48   74.19
   0   0  -5 1200.08   66.99
   0   0  -5 1280.87   67.29
   0   0  -5 1225.38   73.69
   0   0   5 1086.09   72.59
   0   0   5 1112.39   66.99
   0   0   5 1249.07   71.99
   0   1  -5 1274.97   83.99
   0   1  -5 1345.57   71.89
   0  -1   5 1439.06   79.09
   0  -1   5 1273.37   72.09
   0   2  -5 1158.98   67.29
   0   2  -5 1273.97   83.19
   0  -2   5 1320.17   74.29
   0  -2   5 1195.78   66.79
   0   3  -5  117.19   22.90
   0   3  -5   91.09    9.60
   0  -3   5  100.79    9.20
   0  -3   5  106.89   13.00
   0   4  -5  507.55   35.70
   0   4  -5  570.84   50.99
   0  -4   5  485.95   45.20
   0  -4   5  539.05   40.60
   0  -4   5  556.14   37.20
   0   5  -5  120.09   27.20
   0   5  -5  139.99   15.70
   0  -5   5  109.49   23.70
   0  -5   5  132.09   15.60
   0  -5   5  129.49   17.30
   0   6  -5  106.49   15.70
   0   6  -5  120.49   29.10
   0  -6   5  110.49   20.90
   0  -6   5  110.19   16.90
   0  -6   5  113.09   23.70
   0   7  -5   40.20   19.50
   0  -7   5   17.90    8.80
   0  -7   5    2.90   10.30
   0  -7   5   50.09   18.90
  -1  -7  -5  114.29   25.80
   1   7   5   93.29   23.70
   1   7   5  112.89   24.40
  -1  -6  -5   75.99   21.00
   1   6   5   60.09   17.50
   1   6   5   49.00   15.20
  -1  -5  -5  168.48   23.60
   1   5   5  158.78   21.60
   1   5   5  158.48   23.60
  -1  -4  -5  872.01   63.89
   1   4   5  778.72   63.19
   1   4   5  956.00   63.19
  -1  -3  -5   83.69   15.90
   1   3   5   95.39   17.90
   1   3   5   72.09   14.30
  -1  -2  -5   43.20   10.00
  -1  -2  -5   45.60    6.20
   1   2   5   41.70    6.00
   1   2   5   44.30   10.60
   1   2   5   57.29   10.60
  -1  -1  -5  981.90   59.09
  -1  -1  -5  954.20   58.19
  -1  -1  -5 1020.90   60.99
   1   1   5 1030.80   62.59
   1   1   5  914.01   57.69
   1   1   5  927.91   59.99
  -1   0  -5 2336.67  122.29
  -1   0  -5 2256.57  121.89
  -1   0  -5 2334.77  132.09
   1   0   5 2370.46  128.49
   1   0   5 1929.51  129.29
  -1   1  -5 1027.40   72.39
   1  -1   5 1115.89   66.79
  -1   2  -5   57.89   14.50
   1  -2   5   58.19   10.90
  -1   3  -5  111.69   23.40
   1  -3   5   92.89    7.00
   1  -3   5   69.89    6.80
   1  -3   5   95.69   12.60
  -1   4  -5  860.01   73.49
   1  -4   5  887.41   55.29
   1  -4   5  954.70   55.09
   1  -4   5 1026.60   65.89
  -1   5  -5  168.18   35.30
   1  -5   5  192.18   24.00
   1  -5   5  156.88   16.40
  -1   6  -5   49.60   18.60
   1  -6   5   48.30   16.20
   1  -6   5   76.39   19.10
   1  -6   5   56.49   13.10
  -1   7  -5   98.19   27.30
   1  -7   5   82.29   17.10
   1  -7   5   84.79   25.10
   1  -7   5   87.59   20.60
  -2  -7  -5   29.10   12.30
   2   7   5   45.00   15.20
   2   7   5   20.00   14.90
  -2  -6  -5  102.79   25.30
   2   6   5  166.08   24.00
   2   6   5  105.49   26.30
  -2  -5  -5  161.38   23.80
   2   5   5  187.38   25.70
   2   5   5  193.98   23.80
  -2  -4  -5  395.66   38.20
  -2  -4  -5  431.26   26.20
  -2  -4  -5  412.86   26.50
   2   4   5  410.96   39.10
   2   4   5  418.16   37.00
  -2  -3  -5  535.35   42.50
  -2  -3  -5  515.95   35.30
   2   3   5  528.65   33.30
   2   3   5  539.95   43.10
   2   3   5  511.55   40.50
  -2  -2  -5  251.77   22.60
   2   2   5  274.87   22.20
   2   2   5  265.37   25.20
   2   2   5  296.17   24.40
  -2  -1  -5 2153.28  120.09
  -2  -1  -5 2105.99  125.99
   2   1   5 2204.48  124.79
   2   1   5 2155.98  120.09
   2   1   5 2057.79  124.59
  -2   0  -5    1.60    1.70
  -2   0  -5   -0.30    1.90
  -2   0  -5    3.70    5.50
   2   0   5    2.90    1.90
   2   0   5   -1.30    1.70
  -2   1  -5 2261.27  142.09
   2  -1   5 2369.86  133.89
  -2   2  -5  278.27   32.60
   2  -2   5  325.07   27.50
  -2   3  -5  503.55   50.39
   2  -3   5  623.04   44.90
  -2   4  -5  494.75   49.99
   2  -4   5  500.15   41.00
   2  -4   5  459.55   28.90
   2  -4   5  447.56   28.90
  -2   5  -5  205.28   40.30
   2  -5   5  213.18   26.90
   2  -5   5  186.38   16.90
  -2   6  -5  171.68   37.70
   2  -6   5  197.18   27.90
   2  -6   5  144.89   16.90
  -2   7  -5   29.10   15.80
   2  -7   5    4.30    9.50
   2  -7   5   -0.50   13.90
   2  -7   5   25.80    9.50
  -3  -7  -5  170.58   33.70
   3   7   5  160.98   30.30
   3   7   5  117.99   27.30
  -3  -6  -5    2.60    9.50
   3   6   5   25.60   11.80
   3   6   5    6.00   13.60
  -3  -5  -5   42.70   14.20
  -3  -5  -5   65.49    9.90
   3   5   5   49.20   14.10
   3   5   5   50.89   16.80
  -3  -4  -5   54.99   11.40
   3   4   5   41.50   12.30
   3   4   5   48.40   14.20
   3   4   5   67.39    8.40
  -3  -3  -5  220.88   23.70
   3   3   5  301.37   22.30
   3   3   5  298.27   27.80
   3   3   5  264.47   27.60
  -3  -2  -5  182.78   21.80
   3   2   5  173.78   18.50
   3   2   5  176.88   20.70
   3   2   5  161.18   19.20
  -3  -1  -5   93.59   18.50
   3   1   5   93.89   13.10
   3   1   5   80.19   10.50
  -3   0  -5   23.80   10.70
  -3   0  -5   36.40    6.20
   3   0   5   33.20    6.00
   3   0   5   27.00    8.40
  -3   1  -5   94.89    6.80
  -3   1  -5  110.39   23.10
   3  -1   5   89.69   13.00
   3  -1   5   90.19    6.80
  -3   2  -5  187.78   27.40
   3  -2   5  182.28   20.70
  -3   3  -5  230.18   33.20
   3  -3   5  294.57   28.50
  -3   4  -5   47.30   19.80
   3  -4   5   45.90    5.20
   3  -4   5   60.49    5.60
   3  -4   5   59.09   15.80
  -3   5  -5  115.29   29.80
   3  -5   5   83.19   20.30
   3  -5   5   54.39    7.80
  -3   6  -5   15.90   13.50
   3  -6   5   19.30    8.60
   3  -6   5   22.70    6.80
  -3   7  -5  156.48   33.00
   3  -7   5  180.38   34.20
  -4  -6  -5   51.69   16.50
   4   6   5   39.50   15.10
   4   6   5   62.99   21.00
  -4  -5  -5  176.18   18.40
   4   5   5  122.49   23.80
   4   5   5  115.59   22.70
  -4  -4  -5   85.89   17.30
   4   4   5   98.29   20.30
  -4  -3  -5  160.88   21.70
   4   3   5  189.58   22.50
   4   3   5  200.58   22.30
  -4  -2  -5  327.07   33.50
   4   2   5  314.77   30.10
   4   2   5  325.87   28.60
  -4  -1  -5  478.05   45.20
   4   1   5  495.75   38.60
   4   1   5  463.65   34.60
  -4   0  -5    3.40    2.80
  -4   0  -5   10.30    7.90
   4   0   5   -0.40    4.30
   4   0   5    6.60    3.20
  -4   1  -5  401.56   45.60
  -4   1  -5  482.55   28.70
   4  -1   5  538.25   40.40
   4  -1   5  468.55   29.30
  -4   2  -5  348.37   42.30
   4  -2   5  363.56   33.20
  -4   3  -5  230.68   42.10
   4  -3   5  221.98   25.60
  -4   4  -5  117.79   30.40
   4  -4   5  107.69   21.60
  -4   5  -5  163.28   38.20
   4  -5   5  146.99   12.20
   4  -5   5  184.38   27.10
  -4   6  -5   51.19   19.50
   4  -6   5   65.39   19.30
  -5  -6  -5  144.29   29.80
   5   6   5  111.69   27.40
   5   6   5  122.99   23.70
  -5  -5  -5   76.59   18.00
   5   5   5   90.09   22.30
   5   5   5  113.19   23.60
  -5  -4  -5  321.67   35.00
   5   4   5  323.97   34.20
   5   4   5  319.37   33.90
  -5  -3  -5  429.96   42.30
   5   3   5  426.26   38.80
   5   3   5  436.96   38.50
  -5  -2  -5  211.78   28.50
   5   2   5  184.38   21.30
   5   2   5  202.08   23.50
  -5  -1  -5  368.06   40.70
   5   1   5  360.46   30.00
   5   1   5  367.36   33.30
  -5   0  -5  339.27   40.20
   5   0   5  348.87   26.80
   5   0   5  341.87   31.80
  -5   1  -5  396.36   46.80
   5  -1   5  337.97   24.90
   5  -1   5  401.16   35.50
  -5   2  -5  218.08   41.40
  -5   2  -5  213.78   14.40
   5  -2   5  235.08   26.20
   5  -2   5  195.78   14.10
  -5   3  -5  442.36   54.59
   5  -3   5  556.54   47.20
  -5   4  -5  363.46   49.50
   5  -4   5  353.26   39.20
  -5   5  -5  140.59   35.10
   5  -5   5  133.79   19.70
  -5   6  -5  109.29   38.20
   5  -6   5  125.09   25.70
  -6  -5  -5   10.00   15.00
   6   5   5   29.70    9.70
   6   5   5    0.00   10.30
  -6  -4  -5  -13.00   10.20
   6   4   5   -8.10    7.60
   6   4   5    7.40   11.20
  -6  -3  -5  125.89   26.50
   6   3   5  127.19   23.50
   6   3   5  145.29   19.50
  -6  -2  -5   12.30   13.40
   6   2   5   23.00    9.10
   6   2   5   26.50   10.50
  -6  -1  -5   49.60   18.80
   6   1   5   76.69   14.80
   6   1   5   78.19   16.20
  -6   0  -5  102.09   27.90
   6   0   5  146.09   19.70
   6   0   5  150.18   16.40
  -6   1  -5   68.99   22.80
   6  -1   5   70.19   11.90
   6  -1   5   65.99   15.40
  -6   2  -5   36.30   19.80
  -6   2  -5   32.80    6.50
   6  -2   5   26.10   10.00
   6  -2   5   21.00    6.10
  -6   3  -5   99.79   29.50
   6  -3   5  143.89   26.70
  -6   4  -5   -7.60   10.30
   6  -4   5    6.70    6.20
  -6   5  -5   22.20   19.00
   6  -5   5   24.00   12.10
  -7  -4  -5   35.00   18.60
   7   4   5   62.99   16.60
   7   4   5   67.19   20.00
  -7  -3  -5   24.30   20.40
   7   3   5  113.09   21.90
   7   3   5   65.49   18.10
  -7  -2  -5  194.08   37.10
   7   2   5  181.18   24.80
   7   2   5  216.98   25.30
  -7  -1  -5  106.19   29.90
   7   1   5  113.19   16.40
   7   1   5   83.69   18.70
  -7   0  -5  185.48   39.70
   7   0   5  133.09   18.10
   7   0   5  199.78   24.50
  -7   1  -5  151.98   33.20
   7  -1   5  103.29   13.50
   7  -1   5   76.59   20.30
  -7   2  -5  264.07   40.80
   7  -2   5  225.48   27.80
   7  -2   5  221.48   19.00
  -7   3  -5  130.19   37.10
   7  -3   5   87.69   21.80
  -7   4  -5   57.29   25.40
   7  -4   5   87.79   20.00
  -8  -3  -5  128.19   30.90
   8   3   5  113.79   24.00
   8   3   5  138.19   27.20
  -8  -2  -5   10.60   15.90
   8   2   5   22.10   10.00
   8   2   5   15.10   11.40
  -8  -1  -5   78.19   26.40
   8   1   5  139.99   25.00
   8   1   5  144.89   19.80
  -8   0  -5   77.29   23.80
   8   0   5   54.89   16.20
   8   0   5   81.69   15.50
  -8   1  -5  138.99   32.50
   8  -1   5  165.58   17.10
   8  -1   5  103.89   24.30
  -8   2  -5   37.90   18.20
   8  -2   5   31.00   16.70
  -8   3  -5  128.69   41.90
   8  -3   5  189.78   28.00
   9   1   5   75.89   17.80
   9   1   5   83.69   19.00
  -9   0  -5   13.70   20.30
   9   0   5   37.70   16.40
   9   0   5   48.10   11.70
   9  -1   5   64.19   19.60
  11  -2  -6   89.99   21.90
  11  -2  -6  141.49   20.90
 -11   2   6  108.09   31.00
  11  -1  -6   29.80   11.30
  11  -1  -6   16.80   10.50
 -11   1   6   -4.50   17.60
  11   0  -6   38.90    9.30
  11   0  -6   28.00   11.50
 -11   0   6    7.90   17.80
  11   1  -6    8.50    8.60
  11   2  -6  153.28   22.30
 -11  -2   6   84.59   28.40
  10  -4  -6  130.59   27.90
  10  -4  -6  114.89   22.90
 -10   4   6  165.28   40.10
 -10   4   6  153.38   33.80
  10  -3  -6   71.29   20.20
  10  -3  -6   99.89   21.80
 -10   3   6   71.79   30.70
 -10   3   6   60.19   21.80
  10  -2  -6   11.70    8.40
  10  -2  -6   14.80   11.30
 -10   2   6   -2.30   17.30
  10  -1  -6  140.59   26.00
  10  -1  -6  187.68   22.00
 -10   1   6  133.39   34.20
  10   0  -6  202.08   25.80
  10   0  -6  179.58   20.50
 -10   0   6  205.88   42.50
  10   1  -6  169.08   22.50
  10   1  -6  138.79   13.90
 -10  -1   6  125.89   31.60
  10   2  -6   17.10    8.90
 -10  -2   6   10.40   13.90
  10   3  -6   96.69   21.50
 -10  -3   6   76.99   23.80
  10   4  -6  163.88   30.40
 -10  -4   6  116.09   31.30
   9  -5  -6   41.00   15.90
   9  -5  -6   27.50   13.70
  -9   5   6   70.89   23.90
  -9   5   6   76.69   24.30
   9  -4  -6   46.40   18.10
   9  -4  -6   53.69   17.10
  -9   4   6   88.59   23.00
  -9   4   6   20.40   16.30
   9  -3  -6  182.58   27.80
   9  -3  -6  176.08   23.20
  -9   3   6  208.38   43.00
  -9   3   6  188.58   33.70
   9  -2  -6   17.10    8.10
   9  -2  -6   15.60   10.20
  -9   2   6   19.60    9.70
  -9   2   6   12.80   12.80
   9  -1  -6  181.28   23.10
   9  -1  -6  163.08   20.80
  -9   1   6  171.78   37.20
  -9   1   6  181.78   24.50
   9   0  -6  120.49   15.30
   9   0  -6  143.79   19.70
  -9   0   6  122.09   32.10
   9   1  -6  166.18   22.40
   9   1  -6  205.38   15.30
  -9  -1   6  136.29   31.20
   9   2  -6   23.70   10.00
  -9  -2   6    1.40   10.30
   9   3  -6  165.78   24.60
  -9  -3   6  208.98   31.50
   9   4  -6   31.10   12.30
  -9  -4   6   63.49   22.50
   9   5  -6   49.10   13.30
  -9  -5   6   61.99   20.90
   8  -5  -6   82.59   25.00
   8  -5  -6   90.19   21.10
  -8   5   6  107.79   26.50
  -8   5   6  152.48   34.90
   8  -4  -6   63.39   19.30
   8  -4  -6  101.79   18.10
  -8   4   6   57.89   17.80
  -8   4   6   54.89   19.90
   8  -3  -6  501.65   42.70
   8  -3  -6  440.96   44.90
  -8   3   6  462.45   53.09
  -8   3   6  498.65   48.10
   8  -2  -6  125.69   17.90
   8  -2  -6  134.49   20.10
  -8   2   6  137.09   24.70
  -8   2   6  123.09   29.30
   8  -1  -6   65.19   15.00
   8  -1  -6   63.69   14.90
  -8   1   6   78.89   20.10
  -8   1   6   77.09   16.00
   8   0  -6   40.90   11.20
   8   0  -6   21.80    7.10
  -8   0   6   23.10    8.20
  -8   0   6   41.10   17.00
   8   1  -6   73.49    8.20
   8   1  -6   56.39   14.10
  -8  -1   6   97.49   24.20
   8   2  -6  132.69   19.10
  -8  -2   6  126.79   28.70
   8   3  -6  493.95   44.50
  -8  -3   6  466.45   50.89
   8   4  -6   59.79   16.80
  -8  -4   6   63.49   22.80
   8   5  -6  100.99   23.40
  -8  -5   6   96.19   24.30
   7  -6  -6   27.50   12.30
  -7   6   6   26.10   17.60
  -7   6   6   44.50   18.00
   7  -5  -6  163.58   23.80
  -7   5   6  128.19   28.40
  -7   5   6  150.68   31.70
   7  -4  -6   35.30   11.00
  -7   4   6   22.00   13.80
  -7   4   6   22.30   11.00
   7  -3  -6  295.27   29.50
  -7   3   6  279.17   31.50
  -7   3   6  252.17   35.10
   7  -2  -6  128.19   17.00
  -7   2   6  100.29   20.30
  -7   2   6  133.59   29.00
   7  -1  -6 1624.74   98.09
  -7   1   6 1498.65  108.79
  -7   1   6 1519.25   98.09
   7   0  -6  175.38   17.90
   7   0  -6  162.08   19.90
  -7   0   6  198.78   28.80
  -7   0   6  186.88   18.80
   7   1  -6 1586.24   95.79
   7   1  -6 1643.74   85.29
   7   1  -6 1317.47   83.29
  -7  -1   6 1483.95  106.69
   7   2  -6  142.69   18.20
  -7  -2   6   95.49   23.40
   7   3  -6  237.48   27.70
  -7  -3   6  330.47   37.50
   7   4  -6   26.40   10.80
  -7  -4   6   28.20   12.10
   7   5  -6  152.18   23.60
  -7  -5   6  191.48   28.40
   7   6  -6   46.90   12.40
  -7  -6   6   -0.60   16.30
   6  -6  -6  167.98   23.10
  -6   6   6  123.09   30.10
  -6   6   6  160.28   33.40
   6  -5  -6  160.08   21.80
  -6   5   6  125.19   27.20
  -6   5   6  147.89   30.30
   6  -4  -6  535.85   43.60
  -6   4   6  449.26   47.30
  -6   4   6  468.25   47.80
   6  -3  -6  131.59   17.50
  -6   3   6  141.59   27.10
  -6   3   6  119.69   24.40
   6  -2  -6  132.79   17.20
  -6   2   6  169.08   24.70
  -6   2   6  123.49   18.60
   6  -1  -6   25.90    8.60
  -6   1   6   37.50   10.60
  -6   1   6   51.09   14.80
   6   0  -6  320.97   27.90
   6   0  -6  303.67   26.90
  -6   0   6  278.27   32.30
  -6   0   6  272.97   24.50
   6   1  -6   29.20    9.10
  -6  -1   6   35.80    6.50
  -6  -1   6   53.99   16.30
   6   2  -6  160.08   19.00
  -6  -2   6  149.59   23.00
   6   3  -6  120.49   16.80
  -6  -3   6   94.79   22.30
   6   4  -6  513.95   44.30
  -6  -4   6  514.15   50.99
   6   5  -6  177.48   23.90
  -6  -5   6  136.89   29.90
   6   6  -6  153.88   23.70
  -6  -6   6  163.68   32.70
   5  -7  -6    7.80   13.40
  -5   7   6   33.10   17.60
   5  -6  -6  121.09   24.40
  -5   6   6   90.29   26.50
  -5   6   6   98.39   20.70
   5  -5  -6  212.08   26.10
  -5   5   6  155.88   31.80
  -5   5   6  154.48   22.60
   5  -4  -6  388.26   34.20
  -5   4   6  351.66   37.90
  -5   4   6  298.37   33.40
   5  -3  -6  194.98   21.90
  -5   3   6  183.28   24.50
  -5   3   6  198.68   25.60
   5  -2  -6  965.30   63.39
  -5   2   6  931.21   66.59
  -5   2   6  926.81   67.79
   5  -1  -6  140.69   15.90
  -5   1   6  121.49   18.50
  -5   1   6  122.39   16.00
   5   0  -6  904.51   52.69
   5   0  -6  769.12   53.29
  -5   0   6  752.32   52.09
  -5   0   6  811.22   60.69
   5   1  -6  140.89   11.60
   5   1  -6  120.59   14.40
  -5  -1   6  113.49   11.40
  -5  -1   6  134.19   19.70
   5   2  -6  933.61   59.99
  -5  -2   6  842.52   66.59
   5   3  -6  179.48   20.50
  -5  -3   6  165.48   24.90
   5   4  -6  341.87   32.50
  -5  -4   6  340.97   38.00
   5   5  -6  154.68   21.60
  -5  -5   6  176.28   27.00
   5   6  -6   83.09   20.40
  -5  -6   6  137.09   28.90
   5   7  -6   48.00   14.50
  -5  -7   6   20.20   11.50
   4  -7  -6    1.40    7.20
  -4   7   6  -13.10   13.30
   4  -6  -6  153.08   23.50
  -4   6   6  151.88   33.30
  -4   6   6  216.08   20.70
   4  -5  -6   21.30   10.10
  -4   5   6   25.20    9.20
  -4   5   6   41.00   15.40
   4  -4  -6  874.01   60.99
  -4   4   6  851.01   67.19
  -4   4   6  760.72   57.19
   4  -3  -6   15.20    7.20
  -4   3   6   16.00    8.30
  -4   3   6   23.10    9.20
   4  -2  -6 1141.59   70.59
  -4   2   6 1048.50   73.39
  -4   2   6 1081.69   71.89
   4  -1  -6  393.76   30.30
  -4   1   6  358.46   31.20
  -4   1   6  402.56   33.50
   4   0  -6  273.87   22.80
   4   0  -6  294.47   22.60
  -4   0   6  253.17   22.20
  -4   0   6  256.17   26.10
   4   1  -6  412.66   25.90
   4   1  -6  356.86   28.60
  -4  -1   6  359.86   26.30
  -4  -1   6  412.06   35.40
   4   2  -6 1092.39   66.59
   4   2  -6  992.90   58.69
  -4  -2   6 1054.69   59.89
  -4  -2   6 1110.49   75.09
   4   3  -6   25.90    8.00
  -4  -3   6    4.50    5.70
  -4  -3   6   24.10    4.30
  -4  -3   6   15.60    3.60
   4   4  -6  683.93   53.29
  -4  -4   6  772.22   62.69
  -4  -4   6  716.03   45.10
  -4  -4   6  849.02   44.80
   4   5  -6   17.50    8.10
  -4  -5   6   15.00    8.90
  -4  -5   6   27.80    5.80
   4   6  -6  168.78   24.30
  -4  -6   6  217.38   28.40
  -4  -6   6  173.48   16.20
   4   7  -6   26.60   12.00
   3  -7  -6   58.89   18.80
  -3   7   6   76.39   25.40
   3  -6  -6   21.70    5.20
   3  -6  -6   13.60    8.00
  -3   6   6    9.00   10.60
   3  -5  -6   66.89   16.60
   3  -5  -6   78.49   10.00
  -3   5   6   72.69   19.70
  -3   5   6   68.99   10.20
   3  -4  -6   16.10    5.00
   3  -4  -6    1.80    4.60
  -3   4   6   12.80    6.10
  -3   4   6   19.70    9.70
   3  -3  -6  138.39   13.10
   3  -3  -6  105.99   15.00
  -3   3   6  147.09   20.00
  -3   3   6  102.69   13.20
   3  -2  -6   88.79   12.30
   3  -2  -6   77.29   10.30
  -3   2   6   89.29   11.90
  -3   2   6   89.39   16.30
   3  -1  -6   64.09   10.20
   3  -1  -6   75.79   10.20
  -3   1   6   65.79   12.90
  -3   1   6   58.49   11.70
   3   0  -6  658.23   42.80
   3   0  -6  682.83   43.50
  -3   0   6  660.73   46.80
  -3   0   6  641.34   44.00
   3   1  -6   74.89    9.40
   3   1  -6   73.69    8.20
  -3  -1   6   69.59    9.10
  -3  -1   6   84.09   13.10
   3   2  -6   73.29   10.00
   3   2  -6   69.69    7.90
  -3  -2   6   79.59   16.10
  -3  -2   6   90.09    9.30
   3   3  -6  113.19   13.90
   3   3  -6   95.29   10.20
  -3  -3   6  104.49   11.60
  -3  -3   6  131.79   11.40
  -3  -3   6  113.69   17.90
   3   4  -6   12.20    6.40
  -3  -4   6   19.50    5.60
  -3  -4   6   18.00    9.70
  -3  -4   6   22.20    5.60
   3   5  -6   62.89   15.00
  -3  -5   6   75.79   10.50
  -3  -5   6   74.79   21.30
   3   6  -6    4.90    7.40
  -3  -6   6   13.20    6.60
  -3  -6   6    4.70    7.00
   3   7  -6   55.39   14.20
  -3  -7   6   35.60   10.10
  -3  -7   6   24.60   17.00
   2  -7  -6  181.58   27.40
  -2   7   6  123.49   31.00
   2  -6  -6   82.99   20.00
  -2   6   6   74.79   21.70
   2  -5  -6  362.56   36.10
  -2   5   6  361.76   41.10
   2  -4  -6   15.60    7.90
  -2   4   6   26.40   10.40
   2  -3  -6  932.31   48.30
   2  -3  -6  923.01   60.89
  -2   3   6  802.82   48.60
  -2   3   6  862.61   64.49
   2  -2  -6  677.23   45.00
   2  -2  -6  627.94   38.30
  -2   2   6  603.64   39.10
  -2   2   6  578.64   46.70
  -2   2   6  677.33   39.70
   2  -1  -6  367.76   26.30
   2  -1  -6  339.37   24.50
  -2   1   6  308.57   27.50
  -2   1   6  330.57   25.50
  -2   1   6  300.87   24.20
   2   0  -6  104.79   12.10
   2   0  -6   86.29    9.80
  -2   0   6   86.39   11.70
  -2   0   6   99.09   12.70
  -2   0   6   87.89    9.80
  -2   0   6   96.49   11.80
   2   1  -6  335.37   23.70
   2   1  -6  283.77   22.00
  -2  -1   6  319.57   22.50
  -2  -1   6  320.67   28.30
  -2  -1   6  345.07   24.60
   2   2  -6  645.04   39.40
   2   2  -6  551.64   38.50
  -2  -2   6  616.54   47.30
  -2  -2   6  595.44   38.20
  -2  -2   6  646.04   39.80
   2   3  -6  935.71   69.59
   2   3  -6  859.21   56.19
  -2  -3   6  995.80   56.39
  -2  -3   6  823.72   64.99
   2   4  -6   12.60    6.00
  -2  -4   6   13.30    9.10
  -2  -4   6   27.80    7.00
   2   5  -6  391.36   32.90
  -2  -5   6  431.26   32.20
  -2  -5   6  344.37   39.40
   2   6  -6   68.09   15.70
  -2  -6   6  104.69   17.90
  -2  -6   6   34.30   15.80
   2   7  -6  155.28   26.70
  -2  -7   6  183.38   20.70
  -2  -7   6  109.49   29.40
   1  -7  -6   80.39   20.20
  -1   7   6   81.69   22.20
   1  -6  -6   60.09   17.00
  -1   6   6   57.89   20.50
   1  -5  -6  128.89   19.40
  -1   5   6   81.29   20.50
   1  -4  -6  209.28   23.80
  -1   4   6  191.58   25.80
   1  -3  -6  577.34   42.70
  -1   3   6  501.75   44.20
   1  -2  -6 1259.07   75.79
  -1   2   6 1258.77   66.19
  -1   2   6 1112.69   66.19
  -1   2   6 1260.67   79.79
   1  -1  -6  951.30   56.09
  -1   1   6  868.81   58.89
  -1   1   6  851.01   54.89
  -1   1   6  919.91   53.99
   1   0  -6  114.89   11.00
   1   0  -6  118.19   14.40
  -1   0   6  114.89   11.20
  -1   0   6  128.59   14.00
  -1   0   6  132.09   13.50
  -1   0   6  112.09   13.90
   1   1  -6  946.91   63.29
   1   1  -6  862.81   51.79
  -1  -1   6  965.90   57.09
  -1  -1   6  957.50   61.09
  -1  -1   6  839.22   51.89
   1   2  -6 1285.77   74.79
   1   2  -6 1314.57   88.89
  -1  -2   6 1285.37   74.19
  -1  -2   6 1461.65   79.69
  -1  -2   6 1316.07   86.09
   1   3  -6  629.24   53.79
  -1  -3   6  625.94   50.69
  -1  -3   6  603.54   38.90
  -1  -3   6  667.03   43.30
   1   4  -6  174.68   26.40
   1   4  -6  211.98   18.70
  -1  -4   6  203.98   20.20
  -1  -4   6  190.88   25.30
   1   5  -6   97.19   14.00
   1   5  -6   88.29   24.40
  -1  -5   6  136.49   16.60
  -1  -5   6  114.89   25.60
   1   6  -6   92.29   25.20
   1   6  -6   85.09   16.20
  -1  -6   6   74.39   16.80
  -1  -6   6   65.89   14.70
  -1  -6   6   65.49   19.90
   1   7  -6  111.49   19.60
  -1  -7   6   98.59   25.30
  -1  -7   6  178.38   23.90
  -1  -7   6   95.79   18.60
   0  -7  -6   42.50   16.10
   0   7   6   38.90   18.00
   0  -6  -6   36.40   14.20
   0   6   6   15.00   14.20
   0  -5  -6  893.81   68.09
   0   5   6  864.41   70.49
   0  -4  -6  283.17   29.80
   0   4   6  259.67   30.50
   0  -3  -6   10.00    5.10
   0   3   6   12.20    5.70
   0  -2  -6  493.45   37.10
   0   2   6  526.85   40.40
   0   2   6  479.65   29.10
   0   2   6  517.95   28.70
   0  -1  -6  253.67   20.00
   0  -1  -6  253.07   19.80
   0  -1  -6  220.98   18.60
   0   1   6  215.48   21.70
   0   1   6  205.88   19.10
   0   0  -6 1167.78   66.09
   0   0  -6 1252.27   74.49
   0   0  -6 1256.07   66.39
   0   0   6 1200.28   71.99
   0   0   6 1019.90   72.29
   0   0   6 1051.29   65.89
   0   1  -6  227.48   24.60
   0   1  -6  234.78   14.80
   0  -1   6  216.68   15.00
   0  -1   6  249.18   21.30
   0   2  -6  587.64   47.10
   0   2  -6  522.55   30.60
   0  -2   6  542.85   38.10
   0  -2   6  505.65   30.10
   0   3  -6   10.50    7.30
   0   3  -6    8.70    2.70
   0  -3   6   14.90    5.50
   0  -3   6    7.00    2.70
   0   4  -6  279.17   21.90
   0   4  -6  313.77   36.60
   0  -4   6  303.77   21.30
   0  -4   6  263.87   32.00
   0  -4   6  296.77   27.10
   0   5  -6  921.81   76.49
   0   5  -6  882.01   56.49
   0  -5   6  941.31   72.59
   0  -5   6  940.31   63.79
   0  -5   6  774.12   55.69
   0   6  -6   38.30   11.00
   0   6  -6   37.10   15.90
   0  -6   6   29.50   11.30
   0  -6   6   42.00   12.10
   0  -6   6   25.90    7.70
   0   7  -6   37.80   19.70
   0  -7   6   56.69   16.10
   0  -7   6   40.50   14.70
   0  -7   6   19.70   11.80
  -1  -7  -6   99.89   24.40
   1   7   6   61.49   22.50
  -1  -6  -6   80.49   22.00
   1   6   6  114.09   22.70
   1   6   6   53.49   20.90
  -1  -5  -6   -5.30    8.30
   1   5   6   14.80    6.90
   1   5   6   16.30    9.80
  -1  -4  -6 1046.00   76.49
   1   4   6 1096.29   79.29
   1   4   6 1155.28   75.89
  -1  -3  -6  260.37   27.10
   1   3   6  286.87   26.60
   1   3   6  281.97   29.50
  -1  -2  -6   38.10   10.00
  -1  -2  -6   46.80    7.10
   1   2   6   48.10   12.50
   1   2   6   58.89    7.60
   1   2   6   55.29   11.10
  -1  -1  -6 1487.95   86.69
  -1  -1  -6 1516.65   87.49
  -1  -1  -6 1561.64   90.49
   1   1   6 1373.46   88.99
   1   1   6 1538.85   92.09
  -1   0  -6 1400.36   81.39
  -1   0  -6 1510.45   81.89
  -1   0  -6 1445.56   91.99
   1   0   6 1486.45   88.89
  -1   1  -6 1607.04  103.59
   1  -1   6 1606.44   96.29
  -1   2  -6   49.80   14.80
   1  -2   6   42.50    9.90
  -1   3  -6  281.57   34.50
   1  -3   6  323.67   28.80
  -1   4  -6 1198.68   89.89
   1  -4   6 1143.69   63.79
   1  -4   6 1224.78   77.09
   1  -4   6 1033.50   63.89
  -1   5  -6    2.50    7.40
   1  -5   6    6.10    6.20
   1  -5   6    3.70    4.50
  -1   6  -6   80.69   24.50
   1  -6   6   70.89   21.50
   1  -6   6   92.59   18.30
   1  -6   6   59.49   12.00
  -1   7  -6   79.69   28.20
   1  -7   6  135.29   29.20
   1  -7   6  136.99   24.10
   1  -7   6   77.99   15.60
  -2  -7  -6   97.09   24.90
   2   7   6   34.80   18.50
   2   7   6   76.79   17.00
  -2  -6  -6  227.28   31.20
   2   6   6  214.18   37.60
   2   6   6  209.88   28.90
  -2  -5  -6  283.37   32.70
   2   5   6  209.28   30.80
   2   5   6  289.87   31.90
  -2  -4  -6  131.99   24.40
   2   4   6  124.99   24.50
   2   4   6  148.89   20.00
  -2  -3  -6    3.90    3.90
  -2  -3  -6    0.70    4.50
   2   3   6    2.90    5.80
   2   3   6    4.30    3.00
   2   3   6   -3.10    5.00
  -2  -2  -6  474.85   37.00
  -2  -2  -6  480.45   35.50
   2   2   6  451.35   33.70
   2   2   6  496.25   36.10
   2   2   6  439.46   37.90
  -2  -1  -6 1548.65   98.29
  -2  -1  -6 1572.14   92.89
   2   1   6 1656.53   97.99
   2   1   6 1507.75  101.89
   2   1   6 1620.84   91.89
  -2   0  -6   20.30    4.80
  -2   0  -6    9.10    3.80
  -2   0  -6    7.80    5.80
   2   0   6   15.20    5.90
  -2   1  -6 1646.64  109.59
   2  -1   6 1669.33  100.89
  -2   2  -6  520.95   49.60
   2  -2   6  562.94   42.30
  -2   3  -6   -8.50    7.40
   2  -3   6   -2.00    4.90
  -2   4  -6  139.99   30.00
   2  -4   6  144.99   19.40
  -2   5  -6  313.77   42.10
   2  -5   6  289.67   21.20
   2  -5   6  372.86   34.90
  -2   6  -6  274.87   40.30
   2  -6   6  314.07   35.00
   2  -6   6  256.97   21.60
  -2   7  -6   63.29   27.90
   2  -7   6   86.69   22.40
   2  -7   6   43.20   20.00
  -3  -6  -6   77.59   19.80
   3   6   6   81.79   20.50
   3   6   6   60.69   17.80
  -3  -5  -6   32.60   14.20
   3   5   6   27.60   12.00
   3   5   6   32.80   12.50
  -3  -4  -6  177.18   17.10
  -3  -4  -6  186.18   25.00
   3   4   6  183.68   23.20
   3   4   6  145.09   26.20
   3   4   6  174.08   14.80
  -3  -3  -6  177.88   22.50
  -3  -3  -6  178.78   20.20
   3   3   6  195.28   23.70
   3   3   6  195.78   22.50
   3   3   6  198.88   18.10
  -3  -2  -6 1118.89   72.29
   3   2   6  882.91   69.09
   3   2   6 1134.29   68.69
  -3  -1  -6  121.09   19.60
   3   1   6  142.19   18.10
   3   1   6  154.48   15.30
  -3   0  -6   71.89   18.10
  -3   0  -6   61.49    7.20
  -3   0  -6   63.49    7.90
   3   0   6   73.09   14.70
   3   0   6   69.39    7.80
  -3   1  -6  162.88   25.40
   3  -1   6  154.98   19.00
  -3   2  -6 1181.18   91.49
   3  -2   6 1210.18   79.59
  -3   3  -6  201.28   31.50
   3  -3   6  272.17   28.00
  -3   4  -6  221.88   34.90
   3  -4   6  227.68   27.90
  -3   5  -6   24.10   16.10
   3  -5   6   55.29   16.00
  -3   6  -6   89.39   27.40
   3  -6   6   85.09   22.00
  -4  -6  -6   -2.60    6.20
   4   6   6    5.60    7.40
   4   6   6    2.50   10.60
  -4  -5  -6   54.69   17.80
   4   5   6   50.89   17.70
   4   5   6   76.79   18.90
  -4  -4  -6   49.60   12.00
   4   4   6   61.29   17.10
   4   4   6   46.60   14.50
  -4  -3  -6  276.37   30.50
   4   3   6  355.56   31.80
   4   3   6  303.37   32.00
  -4  -2  -6  227.28   28.40
   4   2   6  252.17   24.10
   4   2   6  208.28   24.60
  -4  -1  -6  253.87   32.20
   4   1   6  285.37   28.20
   4   1   6  287.97   24.40
  -4   0  -6   73.79   20.20
  -4   0  -6   92.79    9.20
   4   0   6   64.59   15.00
   4   0   6   85.49    9.50
  -4   1  -6  290.67   17.20
  -4   1  -6  253.67   17.50
  -4   1  -6  242.68   35.00
   4  -1   6  277.57   17.30
   4  -1   6  283.67   28.70
  -4   2  -6  249.18   36.50
   4  -2   6  264.87   28.10
  -4   3  -6  376.36   46.40
   4  -3   6  359.66   36.10
  -4   4  -6   57.79   21.40
   4  -4   6   47.10    9.80
  -4   5  -6  105.99   26.40
   4  -5   6   76.19   19.90
  -4   6  -6   -8.10   12.60
   4  -6   6   -2.60    9.80
  -5  -5  -6  112.19   25.80
   5   5   6   78.99   22.70
   5   5   6  137.49   25.90
  -5  -4  -6  126.79   19.40
   5   4   6   86.79   19.40
   5   4   6   79.79   19.10
  -5  -3  -6  140.49   26.40
   5   3   6  155.38   21.10
   5   3   6  149.99   26.00
  -5  -2  -6   61.59   18.90
   5   2   6   70.59   15.50
   5   2   6   48.60   12.70
  -5  -1  -6  262.87   35.00
   5   1   6  303.47   30.00
   5   1   6  287.67   25.90
   5   0   6   27.30   10.60
  -5   1  -6  280.77   19.20
  -5   1  -6  268.47   37.20
   5  -1   6  290.87   20.00
   5  -1   6  290.77   30.40
  -5   2  -6   60.99   22.80
   5  -2   6   52.39   15.60
  -5   3  -6  151.48   33.70
   5  -3   6  150.38   22.00
  -5   4  -6  104.79   31.10
   5  -4   6  121.79   24.50
  -5   5  -6   76.29   29.00
   5  -5   6  116.89   23.90
   6   5   6   26.20   17.10
   6   5   6  106.39   20.70
  -6  -4  -6   19.60   13.90
   6   4   6    9.00    9.50
   6   4   6   11.10   11.00
  -6  -3  -6  124.39   27.30
   6   3   6   87.89   20.90
   6   3   6  117.59   22.60
  -6  -2  -6   88.79   24.60
   6   2   6  120.39   22.60
   6   2   6  123.19   17.80
  -6  -1  -6    0.30    9.70
   6   1   6   -6.70    5.30
   6   1   6   -4.30    5.90
  -6   0  -6   26.00   17.00
   6   0   6   54.09   10.30
   6   0   6   59.79   17.20
  -6   1  -6   -9.00    5.80
  -6   1  -6    9.60    6.00
   6  -1   6   -6.10    3.70
  -6   2  -6   83.49   28.30
   6  -2   6  153.38   21.80
  -6   3  -6  112.19   25.40
   6  -3   6  107.49   22.50
  -6   4  -6  -22.60   16.10
   6  -4   6   -5.30    4.90
  -6   5  -6   94.09   24.10
   6  -5   6  105.19   26.10
  -7  -4  -6  128.39   30.10
   7   4   6   77.49   19.10
  -7  -3  -6   25.10   17.30
   7   3   6    0.70    8.50
   7   3   6    5.30    9.50
  -7  -2  -6  373.56   50.29
   7   2   6  389.16   39.30
   7   2   6  468.55   39.60
  -7  -1  -6   17.30   15.80
   7   1   6    1.50    6.90
   7   1   6   10.80    8.10
  -7   0  -6  158.08   35.80
   7   0   6  150.78   22.70
   7   0   6  175.28   18.10
  -7   1  -6    2.30   11.60
   7  -1   6   -3.00    5.30
   7  -1   6    8.10    5.70
  -7   2  -6  392.36   56.29
   7  -2   6  468.15   45.70
  -7   3  -6   25.60   20.60
   7  -3   6   29.70   11.10
  -7   4  -6  114.89   38.40
   7  -4   6  120.29   26.40
  -8  -2  -6  129.79   32.20
   8   2   6  112.49   25.70
   8   2   6   97.19   21.30
  -8  -1  -6   62.79   24.10
   8   1   6   65.89   17.40
   8   1   6   39.90   13.60
  -8   0  -6  349.37   50.79
   8   0   6  442.26   42.60
   8   0   6  375.96   32.90
  -8   1  -6   25.70   19.20
   8  -1   6   55.79   18.00
  -8   2  -6   51.09   23.60
   8  -2   6   97.59   22.40
  11  -2  -7   72.09   20.10
  11  -2  -7  104.79   22.10
 -11   2   7  147.69   31.30
  11  -1  -7  124.29   24.80
  11  -1  -7  130.49   19.40
 -11   1   7   67.69   30.50
  11   0  -7  124.69   24.80
  11   0  -7  100.09   18.50
 -11   0   7  123.19   35.90
  11   1  -7  163.18   23.20
  11   2  -7  107.59   23.60
 -11  -2   7   60.39   24.60
  10  -4  -7  184.68   35.00
  10  -4  -7  284.87   31.10
  10  -3  -7   17.70   10.90
  10  -3  -7   34.60   11.50
 -10   3   7   22.10   15.30
 -10   3   7   23.80   23.30
  10  -2  -7   96.19   21.60
  10  -2  -7  128.09   24.20
 -10   2   7  114.39   31.20
 -10   2   7  113.29   24.50
  10  -1  -7   17.70    8.10
  10  -1  -7   16.20   10.40
 -10   1   7    8.80   12.50
  10   0  -7  353.56   30.20
  10   0  -7  389.96   38.40
 -10   0   7  356.76   49.80
  10   1  -7   26.70   11.80
 -10  -1   7   36.90   18.40
  10   2  -7   86.29   21.10
 -10  -2   7  123.89   32.00
  10   3  -7   29.50   10.10
 -10  -3   7    6.40   14.20
   9  -5  -7   31.80   13.20
   9  -4  -7   58.89   19.50
   9  -4  -7   71.59   17.10
  -9   4   7   65.89   25.00
  -9   4   7   51.59   19.90
   9  -3  -7    7.60    6.60
   9  -3  -7    4.40   12.10
  -9   3   7   -0.10   11.00
  -9   3   7    5.40   18.00
   9  -2  -7  274.67   32.70
   9  -2  -7  303.47   32.30
  -9   2   7  369.36   37.00
  -9   2   7  293.87   43.40
   9  -1  -7   29.10   10.70
   9  -1  -7   17.00    9.30
  -9   1   7   46.80   19.30
  -9   1   7   25.10    9.60
   9   0  -7  270.57   29.50
   9   0  -7  245.78   23.80
  -9   0   7  329.47   41.80
   9   1  -7   39.80   12.80
  -9  -1   7   43.10   17.80
   9   2  -7  286.57   31.90
  -9  -2   7  257.87   37.90
   9   3  -7   28.50   10.90
  -9  -3   7  -11.00   10.80
   9   4  -7   51.29   16.30
  -9  -4   7  105.59   26.20
   8  -5  -7  125.59   25.60
  -8   5   7  157.18   32.30
  -8   5   7  121.99   28.90
   8  -4  -7  213.08   26.10
  -8   4   7  199.28   32.10
  -8   4   7  157.68   32.90
   8  -3  -7   65.39   16.40
  -8   3   7   56.79   19.30
  -8   3   7   87.79   21.60
   8  -2  -7  109.79   20.20
  -8   2   7   73.29   24.80
  -8   2   7   62.19   17.20
   8  -1  -7   15.90    7.60
  -8   1   7    5.60   10.30
  -8   1   7   -1.50    5.40
   8   0  -7   95.59   18.50
   8   0  -7   74.39   14.00
  -8   0   7   91.29   13.50
  -8   0   7   89.49   24.40
   8   1  -7    0.60    6.70
   8   1  -7   17.10    5.00
   8   1  -7   15.30    4.00
  -8  -1   7   15.50    7.50
   8   2  -7   67.79   16.20
  -8  -2   7   74.29   22.00
   8   3  -7   42.50   13.10
  -8  -3   7   60.19   18.90
   8   4  -7  147.59   22.10
  -8  -4   7  150.58   33.00
   8   5  -7  125.09   26.00
  -8  -5   7  136.39   31.10
   7  -6  -7   32.90   10.60
  -7   6   7   76.99   22.20
  -7   6   7   32.50   20.20
   7  -5  -7  258.87   29.00
  -7   5   7  167.48   33.30
  -7   5   7  187.68   33.90
   7  -4  -7   26.30   10.40
  -7   4   7  -21.70    9.40
  -7   4   7    0.30    7.20
   7  -3  -7  237.18   26.20
  -7   3   7  264.47   32.40
  -7   3   7  180.08   29.80
   7  -2  -7   16.40    8.10
  -7   2   7   23.80   11.20
  -7   2   7   31.40   16.00
   7  -1  -7 1069.49   71.49
  -7   1   7  973.20   70.39
  -7   1   7 1095.79   82.49
   7   0  -7   45.30   11.40
  -7   0   7   49.40   10.10
  -7   0   7   32.80   16.00
   7   1  -7 1002.60   66.59
   7   1  -7  876.31   55.69
  -7  -1   7  942.31   76.39
  -7  -1   7  988.90   57.29
   7   2  -7   28.50   10.20
  -7  -2   7   24.50   12.20
   7   3  -7  208.68   25.20
  -7  -3   7  268.97   34.50
   7   4  -7    0.30    4.00
  -7  -4   7   21.50    7.70
   7   5  -7  205.88   27.10
  -7  -5   7  208.78   32.10
   7   6  -7   32.70   13.20
  -7  -6   7    1.30   12.10
   6  -6  -7   52.09   15.00
  -6   6   7   35.90   19.40
  -6   6   7   52.19   14.10
   6  -5  -7   77.79   17.40
  -6   5   7   60.89   21.00
  -6   5   7   50.39   17.30
   6  -4  -7  241.68   26.90
  -6   4   7  208.18   29.20
  -6   4   7  197.48   29.30
   6  -3  -7  577.04   45.00
  -6   3   7  539.65   48.80
  -6   3   7  463.35   46.30
   6  -2  -7  403.66   34.60
  -6   2   7  344.57   37.50
  -6   2   7  382.86   37.00
   6  -1  -7  227.08   22.90
  -6   1   7  216.88   27.50
  -6   1   7  176.88   21.50
   6   0  -7  163.18   18.70
  -6   0   7  145.99   22.70
  -6   0   7  172.48   17.70
   6   1  -7  221.88   17.20
   6   1  -7  235.38   23.40
  -6  -1   7  207.08   18.00
  -6  -1   7  248.38   29.90
   6   2  -7  400.16   34.40
  -6  -2   7  406.86   42.30
   6   3  -7  536.25   43.80
  -6  -3   7  548.95   52.29
   6   4  -7  207.88   26.20
  -6  -4   7  196.88   29.00
   6   5  -7   63.89   17.00
  -6  -5   7   41.60   15.90
   6   6  -7   38.20   13.70
  -6  -6   7   34.10   10.50
   5  -7  -7   97.39   25.60
   5  -6  -7   70.69   19.10
  -5   6   7  100.99   24.90
  -5   6   7   52.99   15.90
   5  -5  -7   25.80   11.30
  -5   5   7   37.80   12.30
  -5   5   7   18.20    9.40
   5  -4  -7   46.00   14.30
  -5   4   7   36.30   13.90
  -5   4   7   45.60   16.40
   5  -3  -7  493.15   40.10
  -5   3   7  468.15   43.40
  -5   3   7  445.16   40.10
   5  -2  -7   78.79   14.60
  -5   2   7   47.90   13.80
  -5   2   7   74.89   17.00
   5  -1  -7  654.33   45.40
  -5   1   7  585.24   48.60
  -5   1   7  588.64   45.80
   5   0  -7   80.89   12.20
  -5   0   7   98.59   19.30
  -5   0   7   83.59   12.20
   5   1  -7  609.04   43.10
   5   1  -7  659.93   38.40
  -5  -1   7  549.85   38.80
  -5  -1   7  554.74   48.90
   5   2  -7   83.49    7.20
   5   2  -7   77.99   11.80
  -5  -2   7   58.69    7.50
  -5  -2   7   71.09   17.50
   5   3  -7  436.76   37.20
  -5  -3   7  502.25   46.90
   5   4  -7   50.29   13.50
  -5  -4   7   57.09   15.70
   5   5  -7   42.30   13.80
  -5  -5   7   20.30   10.60
   5   6  -7   64.09   17.10
  -5  -6   7  115.19   24.00
   4  -7  -7  132.79   26.50
  -4   7   7   95.99   24.60
   4  -6  -7  202.48   25.90
  -4   6   7  169.18   36.10
  -4   6   7  130.99   18.80
   4  -5  -7  149.99   22.00
  -4   5   7  145.59   29.50
  -4   5   7  111.59   15.80
   4  -4  -7  710.43   44.30
   4  -4  -7  672.13   51.69
  -4   4   7  560.94   44.90
  -4   4   7  632.84   57.39
   4  -3  -7  259.57   20.50
   4  -3  -7  215.68   23.70
  -4   3   7  208.68   26.80
  -4   3   7  177.28   21.20
   4  -2  -7  864.61   56.29
  -4   2   7  755.52   58.29
  -4   2   7  777.82   55.39
   4  -1  -7   85.99   11.80
  -4   1   7   50.29   11.90
  -4   1   7   67.39   13.80
   4   0  -7   51.39   10.30
  -4   0   7   43.90   10.30
  -4   0   7   56.19   12.90
   4   1  -7   58.19    8.10
   4   1  -7   57.09   11.10
  -4  -1   7   65.39   15.50
  -4  -1   7   53.99    8.30
   4   2  -7  880.91   55.69
   4   2  -7  825.82   49.70
  -4  -2   7  891.81   64.69
  -4  -2   7  801.32   50.79
   4   3  -7  164.58   14.40
   4   3  -7  210.68   20.90
  -4  -3   7  194.98   15.90
  -4  -3   7  232.18   27.80
  -4  -3   7  193.58   15.60
   4   4  -7  556.24   43.60
  -4  -4   7  657.83   55.59
  -4  -4   7  534.75   36.30
   4   5  -7  147.99   20.20
  -4  -5   7  153.58   32.20
  -4  -5   7  149.88   13.90
  -4  -5   7  174.08   15.00
   4   6  -7  165.88   23.70
  -4  -6   7  190.08   29.70
   4   7  -7  158.28   22.20
  -4  -7   7   93.69   22.10
   3  -7  -7  103.79   22.00
  -3   7   7   38.90   15.20
   3  -6  -7   64.99   18.40
  -3   6   7   29.80   12.80
   3  -5  -7   16.50    8.70
  -3   5   7    6.70    6.60
   3  -4  -7  131.79   18.70
   3  -4  -7  138.69   11.10
  -3   4   7  112.49   23.70
  -3   4   7  119.49   11.30
   3  -3  -7  122.79   16.40
   3  -3  -7  103.29   10.50
  -3   3   7  126.19   19.00
  -3   3   7   98.39   12.10
   3  -2  -7  426.06   33.20
   3  -2  -7  445.06   30.00
  -3   2   7  350.46   29.50
  -3   2   7  384.86   35.60
   3  -1  -7  913.51   61.19
   3  -1  -7  958.70   61.59
  -3   1   7  932.41   62.19
  -3   1   7 1145.39   65.69
  -3   1   7  914.41   64.39
   3   0  -7   26.10    6.50
  -3   0   7   25.90    7.20
  -3   0   7   21.70    7.20
   3   1  -7 1021.70   59.39
   3   1  -7 1017.40   59.99
  -3  -1   7  921.91   66.19
  -3  -1   7  920.91   60.09
   3   2  -7  420.56   30.30
   3   2  -7  409.06   28.20
  -3  -2   7  433.16   29.80
  -3  -2   7  380.16   36.70
   3   3  -7  104.99   13.10
   3   3  -7   97.79   10.60
  -3  -3   7   98.79   20.90
  -3  -3   7  114.79   12.00
  -3  -3   7  102.79   11.60
   3   4  -7  114.19   15.60
  -3  -4   7  113.29   24.40
  -3  -4   7  131.39   13.50
   3   5  -7   11.20    7.30
  -3  -5   7    4.40    7.50
  -3  -5   7   16.80    6.20
   3   6  -7   69.09   17.00
  -3  -6   7   44.90   17.70
  -3  -6   7   76.09   12.80
   3   7  -7   43.40   16.60
  -3  -7   7   47.50   13.50
  -3  -7   7   24.90   12.30
   2  -7  -7  144.39   28.60
  -2   7   7  123.79   29.40
   2  -6  -7  208.98   27.70
  -2   6   7  148.59   32.10
   2  -5  -7  330.67   35.30
  -2   5   7  338.37   39.00
   2  -4  -7  152.58   20.80
  -2   4   7  162.58   23.60
   2  -3  -7  247.78   24.40
  -2   3   7  190.38   25.10
   2  -2  -7  835.92   55.39
  -2   2   7  799.12   49.30
  -2   2   7  799.02   49.60
  -2   2   7  854.61   60.19
   2  -1  -7  903.61   55.79
  -2   1   7  835.42   58.89
  -2   1   7  855.71   55.79
  -2   1   7  864.21   54.69
   2   0  -7  440.86   31.00
  -2   0   7  431.36   33.90
  -2   0   7  474.15   35.30
   2   1  -7  887.21   52.09
  -2  -1   7  882.81   55.29
  -2  -1   7  821.02   51.69
  -2  -1   7  851.71   59.79
   2   2  -7  827.82   51.69
  -2  -2   7  897.81   54.39
  -2  -2   7  844.42   61.99
  -2  -2   7  834.12   51.29
   2   3  -7  210.58   28.10
   2   3  -7  211.88   19.40
  -2  -3   7  280.77   21.10
  -2  -3   7  181.38   24.60
   2   4  -7  181.68   27.20
   2   4  -7  165.08   17.80
  -2  -4   7  173.78   25.20
  -2  -4   7  183.68   18.00
   2   5  -7  345.17   30.90
  -2  -5   7  377.76   40.70
  -2  -5   7  400.56   32.00
   2   6  -7  151.98   19.60
  -2  -6   7  169.88   33.60
  -2  -6   7  186.18   20.80
   2   7  -7  109.39   20.90
  -2  -7   7   71.19   16.50
  -2  -7   7  138.39   19.90
  -2  -7   7  126.69   28.60
   1  -7  -7  215.18   29.70
  -1   7   7  173.78   36.40
   1  -6  -7   78.89   20.30
  -1   6   7   75.39   22.60
   1  -5  -7  273.37   31.70
  -1   5   7  289.07   35.70
   1  -4  -7  727.33   54.39
  -1   4   7  625.04   56.49
   1  -3  -7  172.58   20.70
  -1   3   7  158.48   21.90
   1  -2  -7   69.59   13.10
  -1   2   7   57.59    6.50
  -1   2   7   70.99   14.90
  -1   2   7   67.09    7.30
   1  -1  -7  265.57   22.40
  -1   1   7  257.57   25.30
  -1   1   7  298.77   22.20
  -1   1   7  249.48   22.30
   1   0  -7  347.97   24.30
   1   0  -7  365.76   29.90
  -1   0   7  282.97   23.40
  -1   0   7  351.46   28.40
  -1   0   7  344.87   28.10
   1   1  -7  253.07   17.80
   1   1  -7  253.57   26.70
  -1  -1   7  228.48   17.80
  -1  -1   7  277.97   23.40
  -1  -1   7  253.97   25.00
   1   2  -7   74.49    8.00
   1   2  -7   63.69   16.30
  -1  -2   7   98.79   15.20
  -1  -2   7   84.49   11.10
  -1  -2   7   74.49    8.00
   1   3  -7  188.38   26.90
   1   3  -7  212.98   17.00
  -1  -3   7  212.58   20.40
  -1  -3   7  209.28   25.80
  -1  -3   7  195.38   15.70
   1   4  -7  758.12   66.79
   1   4  -7  751.22   49.90
  -1  -4   7  849.12   54.69
  -1  -4   7  764.52   63.59
   1   5  -7  312.97   27.20
   1   5  -7  363.16   41.40
  -1  -5   7  356.46   30.70
  -1  -5   7  275.97   36.00
   1   6  -7   85.19   24.30
   1   6  -7   64.39   14.60
  -1  -6   7  107.99   20.00
  -1  -6   7   71.99   20.90
  -1  -6   7   66.29   14.40
   1   7  -7  253.87   27.10
  -1  -7   7  214.38   34.30
  -1  -7   7  263.67   29.40
   0  -7  -7   55.29   16.40
   0   7   7   24.00   14.30
   0  -6  -7   -0.40    4.00
   0   6   7  -11.10    6.40
   0  -5  -7  205.58   27.70
   0   5   7  196.58   29.00
   0  -4  -7  482.05   41.90
   0   4   7  432.26   43.10
   0  -3  -7  359.46   32.60
   0   3   7  371.56   36.00
   0  -2  -7  404.66   31.60
   0   2   7  373.76   23.60
   0   2   7  341.57   24.40
   0   2   7  391.76   34.40
   0  -1  -7  279.57   23.10
   0  -1  -7  319.67   25.00
   0   1   7  299.97   23.10
   0   1   7  266.27   26.40
   0   1   7  264.87   23.60
   0   0  -7  241.98   23.80
   0   0  -7  198.68   16.80
   0   0  -7  239.28   17.80
   0   0   7  241.88   22.60
   0   1  -7  268.17   28.50
   0   1  -7  278.97   17.40
   0   1  -7  274.27   17.90
   0  -1   7  249.38   17.60
   0  -1   7  290.07   25.00
   0   2  -7  364.56   21.20
   0   2  -7  353.76   36.70
   0  -2   7  402.96   30.70
   0  -2   7  332.07   21.00
   0   3  -7  382.16   22.90
   0   3  -7  313.97   37.90
   0  -3   7  361.96   30.70
   0  -3   7  365.56   22.30
   0   4  -7  496.35   31.60
   0   4  -7  474.85   49.50
   0  -4   7  582.84   41.50
   0  -4   7  477.45   30.40
   0  -4   7  488.35   46.90
   0  -4   7  426.76   31.10
   0   5  -7  224.38   32.50
   0   5  -7  195.58   17.90
   0  -5   7  165.58   17.10
   0  -5   7  173.88   27.10
   0  -5   7  226.78   24.50
   0   6  -7   11.80   10.90
   0  -6   7   -8.90    6.60
   0  -6   7   15.80    9.10
   0  -6   7    0.70    5.30
   0   7  -7   49.99   25.50
   0  -7   7   60.69   13.00
   0  -7   7   37.50   17.70
   0  -7   7   21.00   12.20
  -1  -7  -7  -10.40    4.20
  -1  -6  -7   24.10   11.30
   1   6   7    3.60   15.30
  -1  -5  -7   60.09   17.40
   1   5   7   58.49   15.40
   1   5   7   79.39   21.00
  -1  -4  -7   33.20   12.50
   1   4   7   48.20   12.90
   1   4   7   35.50   13.80
  -1  -3  -7  580.14   45.60
   1   3   7  482.75   45.70
   1   3   7  627.54   45.00
  -1  -2  -7  528.15   39.50
  -1  -2  -7  530.55   34.80
   1   2   7  477.55   41.30
   1   2   7  495.75   34.30
  -1  -1  -7  702.63   47.50
  -1  -1  -7  667.83   43.80
   1   1   7  667.43   48.40
   1   1   7  568.94   45.40
  -1   0  -7  334.97   23.30
  -1   0  -7  303.27   30.90
  -1   0  -7  356.46   23.50
   1   0   7  346.67   30.10
  -1   1  -7  680.43   54.69
  -1   1  -7  640.44   35.60
   1  -1   7  702.33   48.60
  -1   2  -7  579.84   52.19
   1  -2   7  572.74   43.50
  -1   3  -7  546.45   54.99
   1  -3   7  680.43   48.40
  -1   4  -7   44.90   19.20
   1  -4   7   42.30   11.30
   1  -4   7   35.40    2.70
   1  -4   7   43.70    3.00
  -1   5  -7   89.59   26.00
   1  -5   7   66.89    8.60
   1  -5   7  100.49   19.70
  -1   6  -7   59.69   19.10
   1  -6   7   45.70   18.40
   1  -6   7   60.29   16.80
   1  -6   7   46.30    8.70
  -1   7  -7    8.30   14.80
   1  -7   7   -3.50    5.60
   1  -7   7  -11.40    8.30
  -2  -6  -7  212.28   30.00
   2   6   7  222.18   28.50
   2   6   7  145.29   30.60
  -2  -5  -7   -0.30    5.00
   2   5   7    5.60    7.50
   2   5   7    0.50    8.40
  -2  -4  -7  314.47   33.20
   2   4   7  272.97   32.90
   2   4   7  306.87   31.20
  -2  -3  -7   46.60   12.60
  -2  -3  -7   40.90    7.60
   2   3   7   26.10   13.10
   2   3   7   50.69    6.40
   2   3   7   39.30   11.00
  -2  -2  -7  843.32   55.49
  -2  -2  -7  681.83   51.59
   2   2   7  839.62   53.89
   2   2   7  781.12   57.89
   2   2   7  754.52   51.09
  -2  -1  -7  517.75   37.70
  -2  -1  -7  533.15   43.10
   2   1   7  589.64   37.60
   2   1   7  488.35   41.70
  -2   0  -7  196.68   24.60
  -2   0  -7  191.78   15.30
  -2   0  -7  196.38   15.60
   2   0   7  187.58   20.80
   2  -1   7  430.56   36.10
  -2   2  -7  822.62   69.19
   2  -2   7  851.11   59.69
  -2   3  -7   43.40   16.70
   2  -3   7   53.69   12.60
  -2   4  -7  323.07   42.60
   2  -4   7  359.66   34.90
  -2   5  -7   17.40    9.00
   2  -5   7   -8.20    7.40
  -2   6  -7  215.98   45.50
   2  -6   7  287.17   33.20
  -3  -6  -7  146.59   28.90
   3   6   7  175.18   25.30
   3   6   7   86.89   25.70
  -3  -5  -7   -7.30    7.20
   3   5   7   10.70   10.50
   3   5   7    7.90    9.90
  -3  -4  -7  207.58   16.20
  -3  -4  -7  235.08   28.50
   3   4   7  195.78   27.30
   3   4   7  217.58   25.60
   3   4   7  219.88   15.70
  -3  -3  -7   16.00    9.20
  -3  -3  -7    1.80    7.10
   3   3   7   12.80    7.20
   3   3   7    6.80    6.70
  -3  -2  -7  341.57   31.60
  -3  -2  -7  349.37   32.90
   3   2   7  342.07   34.20
   3   2   7  391.36   31.50
  -3  -1  -7   63.09   16.50
  -3  -1  -7   39.60    9.90
   3   1   7   60.79   14.10
   3   1   7   56.89    8.00
  -3   0  -7  424.16   42.50
  -3   0  -7  404.06   27.60
  -3   0  -7  456.65   29.70
   3   0   7  443.26   37.50
  -3   1  -7   37.00   15.10
   3  -1   7   57.89   14.20
  -3   2  -7  295.27   39.80
   3  -2   7  398.26   35.00
  -3   3  -7   17.50   14.40
   3  -3   7   25.10    9.40
  -3   4  -7  251.97   38.30
   3  -4   7  322.67   33.90
  -3   5  -7   12.30   13.00
   3  -5   7  -14.00    5.60
  -3   6  -7  139.89   37.60
   3  -6   7  151.88   30.00
  -4  -6  -7   29.60   14.80
  -4  -5  -7  105.59   23.90
   4   5   7   99.19   21.40
   4   5   7   94.89   23.20
  -4  -4  -7   22.90    9.80
  -4  -4  -7   21.70    8.70
   4   4   7    6.70    6.70
   4   4   7    0.80    5.80
  -4  -3  -7   22.10    9.80
  -4  -3  -7   12.10    5.20
   4   3   7   25.90    8.70
   4   3   7   10.30    8.80
  -4  -2  -7   83.19   20.30
  -4  -2  -7   67.19   14.80
   4   2   7   88.59   16.40
   4   2   7  108.29   20.30
  -4  -1  -7  208.08   28.20
  -4  -1  -7  176.98   20.20
   4   1   7  191.08   19.70
   4   1   7  229.58   25.90
  -4   0  -7  109.59   10.00
  -4   0  -7   77.99   10.70
  -4   0  -7   69.09   20.30
   4   0   7   66.49   17.30
   4   0   7   87.99   10.60
  -4   1  -7  180.48   29.20
   4  -1   7  213.98   24.50
  -4   2  -7   91.09   26.50
   4  -2   7  122.39   18.10
  -4   3  -7   19.60   12.50
   4  -3   7   19.30   10.70
  -4   4  -7   23.00   15.30
   4  -4   7   34.00   12.60
   4  -5   7  177.88   32.80
   4  -6   7   33.10   16.30
  -5  -5  -7   88.09   23.00
   5   5   7   99.19   21.40
   5   5   7   66.99   23.80
  -5  -4  -7   59.69   13.80
  -5  -4  -7   23.00   12.10
   5   4   7   35.50   12.90
   5   4   7   54.89   16.20
  -5  -3  -7  181.18   27.60
   5   3   7  204.88   27.00
   5   3   7  223.08   25.10
  -5  -2  -7   25.20   14.00
   5   2   7    9.60    6.90
   5   2   7   24.60    9.90
  -5  -1  -7  113.09   28.10
   5   1   7  128.19   16.10
   5   1   7   94.79   19.70
  -5   0  -7   24.10   16.70
   5   0   7    6.00    7.80
   5   0   7   23.30    6.60
  -5   1  -7  115.09    8.40
  -5   1  -7  125.59    8.60
  -5   1  -7  115.49   29.10
   5  -1   7  103.19   20.80
  -5   2  -7   53.49   18.60
  -5   3  -7  189.78   41.40
   5  -3   7  243.58   30.10
  -5   4  -7   44.50   22.80
   5  -4   7   50.39   17.40
  -5   5  -7  117.29   29.80
   5  -5   7  163.08   24.50
  -6  -4  -7  -21.30   10.10
  -6  -4  -7   -1.70   13.90
   6   4   7   19.70   10.70
   6   4   7    5.60   13.40
  -6  -3  -7  229.58   34.50
   6   3   7  259.77   31.00
   6   3   7  300.67   31.50
  -6  -2  -7   16.50   14.20
   6   2   7   -4.20    8.30
   6   2   7   15.50    8.40
  -6  -1  -7  264.57   39.20
   6   1   7  260.37   25.60
   6   1   7  246.88   30.10
  -6   0  -7   -7.60    9.80
   6   0   7   -0.90    5.80
  -6   1  -7  192.98   43.20
  -6   1  -7  232.08   17.50
   6  -1   7  280.47   31.40
   6  -1   7  257.47   18.50
  -6   2  -7    5.80   15.50
   6  -2   7   -6.10    8.20
  -6   3  -7  179.68   44.80
   6  -3   7  313.37   35.00
  -6   4  -7   -7.30    9.20
   6  -4   7    9.10   10.30
  -7  -3  -7   63.89   21.30
   7   3   7   43.80   17.70
   7   3   7   60.49   16.50
  -7  -2  -7  168.58   38.20
   7   2   7  174.48   21.60
   7   2   7  163.38   25.20
  -7  -1  -7   -6.10   11.40
   7   1   7   13.60    9.50
   7   1   7   14.30   11.60
  -7   0  -7   80.69   31.30
   7   0   7  145.69   16.80
   7   0   7  119.09   23.70
   7  -1   7    9.40    9.20
  -7   2  -7  143.69   36.90
   7  -2   7  146.19   28.60
  -7   3  -7  106.49   32.10
  -8   0  -7   -0.90   21.10
   8   0   7   65.39   13.60
  11  -2  -8   56.09   17.40
  11  -2  -8   59.59   15.10
 -11   2   8   60.59   30.40
  11  -1  -8  157.58   22.50
  11  -1  -8   86.29   20.30
 -11   1   8   83.99   31.30
  11   0  -8   16.80    7.00
 -11   0   8  -28.30   12.60
  11   1  -8  126.09   24.10
 -11  -1   8   50.29   24.70
  11   2  -8   61.49   17.30
 -11  -2   8   10.60   23.50
  10  -3  -8   48.20   17.50
  10  -3  -8   74.49   16.90
 -10   3   8   67.09   23.90
 -10   3   8   72.79   18.90
  10  -2  -8  137.79   20.50
  10  -2  -8   76.69   19.60
 -10   2   8  100.09   24.80
 -10   2   8   75.69   18.80
  10  -1  -8   36.10   11.50
  10  -1  -8   43.30   12.90
 -10   1   8   48.30   13.90
 -10   1   8   36.90   20.80
  10   0  -8   20.10    7.90
  10   0  -8   -3.30    7.20
 -10   0   8   25.70   15.10
  10   1  -8   31.80   12.20
 -10  -1   8   32.80   17.70
  10   2  -8   73.09   20.10
 -10  -2   8   75.09   25.20
  10   3  -8   74.29   20.20
 -10  -3   8   11.10   21.80
   9  -4  -8   77.29   19.90
  -9   4   8  123.89   27.50
  -9   4   8   70.99   27.60
   9  -3  -8    7.30   10.30
  -9   3   8    8.00   15.20
  -9   3   8   12.70    9.90
   9  -2  -8  334.87   34.50
  -9   2   8  317.97   35.90
  -9   2   8  293.67   41.00
   9  -1  -8   33.90   11.80
   9  -1  -8    8.30    7.60
  -9   1   8   25.70   17.60
  -9   1   8   21.20   10.80
   9   0  -8  266.07   29.60
   9   0  -8  225.38   23.50
  -9   0   8  264.67   25.20
  -9   0   8  266.87   39.10
   9   1  -8    3.20    6.10
   9   1  -8   12.50    4.70
  -9  -1   8   13.20   14.80
   9   2  -8  292.37   33.20
  -9  -2   8  276.57   39.40
   9   3  -8    1.80    8.10
  -9  -3   8   -4.10   10.00
   9   4  -8   42.90   17.90
  -9  -4   8  118.09   31.40
   8  -5  -8    7.50    6.00
  -8   5   8   -7.00   14.30
  -8   5   8   10.10   11.70
   8  -4  -8  125.29   24.20
  -8   4   8   83.69   25.90
  -8   4   8   68.09   23.30
   8  -3  -8  227.58   26.40
  -8   3   8  199.98   29.40
  -8   3   8  193.58   37.00
   8  -2  -8  292.37   31.20
  -8   2   8  256.87   31.10
  -8   2   8  262.27   34.80
   8  -1  -8   10.00    5.50
  -8   1   8   -0.90    9.10
  -8   1   8   -7.40    5.10
   8   0  -8  200.88   24.10
  -8   0   8  186.28   21.60
  -8   0   8  240.78   32.40
   8   1  -8    1.40    6.70
   8   1  -8   -5.60    3.40
   8   1  -8   11.60    4.40
  -8  -1   8   -3.20    4.50
  -8  -1   8   10.10    3.90
   8   2  -8  264.37   28.60
  -8  -2   8  207.08   32.00
   8   3  -8  182.58   24.00
  -8  -3   8  174.28   34.80
   8   4  -8   90.69   21.30
  -8  -4   8  153.28   21.80
   8   5  -8   -7.70    7.30
  -8  -5   8   -7.60   13.60
   7  -6  -8  142.89   27.90
  -7   6   8  102.69   27.10
  -7   6   8  112.19   25.20
   7  -5  -8   74.39   16.90
  -7   5   8   49.20   22.30
  -7   5   8   42.00   19.70
   7  -4  -8  187.18   23.90
  -7   4   8  169.28   24.50
  -7   4   8  142.09   27.80
   7  -3  -8  134.49   19.40
  -7   3   8  107.49   25.60
  -7   3   8  108.39   24.40
   7  -2  -8  348.37   33.60
  -7   2   8  374.26   39.90
  -7   2   8  317.07   35.00
   7  -1  -8  105.99   19.00
  -7   1   8   78.59   21.60
  -7   1   8   71.89   16.70
   7   0  -8   88.09   17.00
  -7   0   8   92.59   22.70
  -7   0   8   82.19   15.30
   7   1  -8   93.69   17.60
  -7  -1   8   52.79   17.70
  -7  -1   8   68.59   10.00
   7   2  -8  317.07   31.90
  -7  -2   8  346.67   39.80
   7   3  -8  129.69   23.30
  -7  -3   8  130.59   29.00
   7   4  -8  148.39   21.90
  -7  -4   8  132.89   28.40
   7   5  -8   48.80   16.20
  -7  -5   8   39.50   15.80
   7   6  -8  114.39   23.20
  -7  -6   8  150.98   32.50
   6  -6  -8   -5.00    5.80
  -6   6   8   16.80   11.30
   6  -5  -8  125.09   23.60
  -6   5   8  126.79   28.30
  -6   5   8  105.19   23.90
   6  -4  -8   39.20   12.80
  -6   4   8   55.09   14.80
  -6   4   8   49.10   15.60
   6  -3  -8   30.90   10.70
  -6   3   8   26.70   13.00
  -6   3   8   39.60   13.40
   6  -2  -8   61.49   14.30
  -6   2   8   39.30   13.50
  -6   2   8   40.90   14.90
   6  -1  -8 1097.59   70.39
  -6   1   8  963.50   69.69
  -6   1   8 1013.10   75.79
   6   0  -8  529.45   39.10
  -6   0   8  433.96   34.90
  -6   0   8  403.56   42.00
   6   1  -8 1127.59   64.09
   6   1  -8 1081.19   71.09
  -6  -1   8 1060.49   80.29
  -6  -1   8 1009.80   64.99
   6   2  -8   61.59   13.70
   6   2  -8   57.29    5.80
  -6  -2   8   55.59   16.70
  -6  -2   8   42.00    6.60
   6   3  -8   36.90   10.50
  -6  -3   8   39.60   15.30
   6   4  -8   44.90   14.90
  -6  -4   8   42.00   15.30
   6   5  -8  146.99   26.80
  -6  -5   8  128.79   27.90
   6   6  -8   -6.70    9.30
  -6  -6   8   -0.50   10.10
   5  -6  -8   59.59   18.50
  -5   6   8   37.90   14.10
   5  -5  -8  122.49   23.60
  -5   5   8  116.89   27.00
  -5   5   8  172.98   20.30
   5  -4  -8  375.06   34.50
  -5   4   8  276.07   35.10
  -5   4   8  298.97   29.30
   5  -3  -8   60.49   14.80
  -5   3   8   38.20   14.20
  -5   3   8   69.89   16.10
   5  -2  -8   -2.30    3.20
  -5   2   8    7.30    7.10
  -5   2   8    1.10    6.60
   5  -1  -8   22.10    8.40
  -5   1   8   34.90   11.30
  -5   1   8   26.40    9.40
   5   0  -8   -2.70    1.90
  -5   0   8   -2.50    3.70
   5   1  -8   29.00    8.90
  -5  -1   8   26.20    8.00
  -5  -1   8   27.30   10.20
   5   2  -8    7.00    5.00
  -5  -2   8    9.10    7.80
  -5  -2   8    6.20    3.90
   5   3  -8   46.00   12.10
  -5  -3   8   42.80    6.20
  -5  -3   8   69.19   18.40
  -5  -3   8   55.19    6.20
   5   4  -8  272.07   29.20
  -5  -4   8  335.67   38.80
  -5  -4   8  313.67   18.80
  -5  -4   8  296.97   18.70
   5   5  -8  202.78   25.10
  -5  -5   8  198.18   28.10
   5   6  -8   68.09   17.20
  -5  -6   8   14.90   18.00
   4  -6  -8  210.78   28.40
  -4   6   8  121.59   28.80
   4  -5  -8   82.89   18.70
  -4   5   8   68.59   21.70
  -4   5   8   73.99    9.90
   4  -4  -8  303.37   30.20
   4  -4  -8  242.18   21.00
  -4   4   8  273.17   33.30
  -4   4   8  267.97   22.90
   4  -3  -8  928.11   54.99
   4  -3  -8  867.01   60.69
  -4   3   8  739.63   54.89
  -4   3   8  760.72   63.89
   4  -2  -8  342.97   29.60
  -4   2   8  295.97   27.70
  -4   2   8  294.17   31.40
   4  -1  -8  191.98   19.90
  -4   1   8  181.98   21.10
  -4   1   8  165.58   20.30
   4   0  -8  200.08   19.90
  -4   0   8  207.28   21.30
  -4   0   8  198.38   23.00
   4   1  -8  214.48   20.00
  -4  -1   8  193.48   24.10
  -4  -1   8  208.58   19.50
   4   2  -8  325.17   23.70
   4   2  -8  335.37   27.50
  -4  -2   8  323.47   25.30
  -4  -2   8  323.47   34.00
   4   3  -8  906.21   58.99
  -4  -3   8  890.11   69.69
  -4  -3   8  791.92   53.89
  -4  -3   8  900.81   53.89
   4   4  -8  290.37   27.40
  -4  -4   8  253.97   33.10
  -4  -4   8  273.87   21.90
   4   5  -8   86.79   18.30
  -4  -5   8  123.39   26.60
  -4  -5   8   78.99   11.10
   4   6  -8  230.68   28.40
  -4  -6   8  198.58   18.50
  -4  -6   8  159.38   34.90
   3  -7  -8   69.99   20.10
  -3   7   8  114.09   30.90
   3  -6  -8  308.57   34.90
  -3   6   8  189.68   37.80
   3  -5  -8  327.27   34.20
  -3   5   8  243.58   34.10
   3  -4  -8  248.48   27.70
  -3   4   8  192.58   28.40
   3  -3  -8  187.08   14.90
   3  -3  -8  203.08   23.20
  -3   3   8  217.68   16.10
  -3   3   8  164.58   15.90
  -3   3   8  158.78   23.40
   3  -2  -8  994.80   62.89
   3  -2  -8 1079.89   68.89
  -3   2   8 1154.08   66.19
  -3   2   8  972.90   63.79
  -3   2   8  958.40   71.99
   3  -1  -8  104.49   13.10
  -3   1   8   71.39   15.40
  -3   1   8   73.29   14.20
   3   0  -8  197.38   18.40
  -3   0   8  176.78   20.30
  -3   0   8  180.28   20.00
   3   1  -8   94.59   11.30
  -3  -1   8  100.89   12.90
  -3  -1   8   90.19   17.70
   3   2  -8 1034.10   62.79
  -3  -2   8  912.41   71.39
  -3  -2   8 1061.09   63.69
   3   3  -8  172.48   17.90
  -3  -3   8  154.18   23.40
  -3  -3   8  195.68   17.30
   3   4  -8  228.78   22.80
  -3  -4   8  251.97   31.70
  -3  -4   8  236.78   21.50
   3   5  -8  316.17   30.10
  -3  -5   8  313.97   26.60
  -3  -5   8  310.97   37.60
   3   6  -8  300.97   31.10
  -3  -6   8  290.87   40.30
  -3  -6   8  313.67   27.50
   3   7  -8   75.99   19.40
  -3  -7   8   32.50   20.80
   2  -7  -8   -7.40    6.80
  -2   7   8  -13.10   15.10
   2  -6  -8   47.70   16.20
  -2   6   8   63.09   20.10
   2  -5  -8   39.90   15.40
  -2   5   8   34.10   16.60
   2  -4  -8  251.47   28.50
  -2   4   8  257.07   30.90
   2  -3  -8  302.97   28.20
  -2   3   8  220.78   28.30
   2  -2  -8  162.48   18.30
  -2   2   8  157.78   14.70
  -2   2   8  169.18   21.90
  -2   2   8  145.49   13.90
   2  -1  -8   29.90    7.80
  -2   1   8   42.40    9.10
  -2   1   8   38.50    9.30
  -2   1   8   22.20    8.10
   2   0  -8 1026.40   61.49
  -2   0   8  985.80   65.89
  -2   0   8  985.60   65.89
   2   1  -8   21.80    5.90
  -2  -1   8   26.90    9.10
  -2  -1   8   30.80    8.50
   2   2  -8  173.48   15.20
  -2  -2   8  149.49   16.40
  -2  -2   8  155.28   21.10
   2   3  -8  234.38   20.90
   2   3  -8  313.47   35.30
  -2  -3   8  225.58   28.80
  -2  -3   8  297.07   24.50
   2   4  -8  197.38   20.50
   2   4  -8  254.17   33.50
  -2  -4   8  251.37   22.60
  -2  -4   8  212.08   29.10
   2   5  -8   78.49   11.10
  -2  -5   8   57.19   18.40
  -2  -5   8   66.99   13.70
   2   6  -8   44.10   13.30
  -2  -6   8   23.90    9.80
  -2  -6   8   22.90   12.10
   2   7  -8    7.70   10.60
  -2  -7   8   30.00   14.30
  -2  -7   8   -7.10    8.80
  -2  -7   8    5.60   10.20
   1  -7  -8   43.40   15.80
  -1   7   8   49.70   17.60
   1  -6  -8   27.20   13.70
  -1   6   8   41.30   16.40
   1  -5  -8   49.00   13.20
  -1   5   8   20.50   10.90
   1  -4  -8  563.44   47.40
  -1   4   8  518.25   49.99
   1  -3  -8  159.18   20.00
  -1   3   8  119.49   23.60
   1  -2  -8  418.56   32.90
  -1   2   8  342.37   25.80
  -1   2   8  358.86   34.90
  -1   2   8  404.26   25.40
   1  -1  -8  122.39   14.00
  -1   1   8  119.99   13.50
  -1   1   8  135.69   17.40
  -1   1   8  107.39   13.70
   1   0  -8  405.46   28.60
   1   0  -8  407.46   28.00
   1   0  -8  428.36   35.00
  -1   0   8  353.36   31.30
  -1   0   8  366.26   29.80
  -1   0   8  370.36   32.30
   1   1  -8  113.49   21.50
   1   1  -8  127.19   11.20
  -1  -1   8  123.89   11.80
  -1  -1   8  133.09   18.00
  -1  -1   8  114.49   15.20
   1   2  -8  419.66   27.00
   1   2  -8  388.56   40.20
  -1  -2   8  429.36   38.90
  -1  -2   8  404.16   26.90
  -1  -2   8  426.26   32.80
   1   3  -8  140.59   28.20
   1   3  -8  153.58   14.10
  -1  -3   8  179.68   19.00
  -1  -3   8  174.18   23.90
  -1  -3   8  170.28   13.70
   1   4  -8  575.84   38.90
   1   4  -8  545.35   56.49
  -1  -4   8  574.44   53.49
  -1  -4   8  644.94   45.50
   1   5  -8   52.19   16.60
   1   5  -8   67.09   10.00
  -1  -5   8   38.50   14.30
  -1  -5   8   59.29   13.80
   1   6  -8   45.90   11.30
   1   6  -8   43.20   17.30
  -1  -6   8   34.10   16.00
  -1  -6   8   50.59   13.40
  -1  -6   8   37.70    9.60
   1   7  -8   40.30   11.70
  -1  -7   8   38.00   10.40
  -1  -7   8   20.10   14.30
  -1  -7   8   31.30   14.80
   0  -6  -8    4.20    8.10
   0  -5  -8   91.29   21.40
   0   5   8   48.10   16.80
   0  -4  -8  112.19   21.60
   0   4   8   99.89   21.70
   0  -3  -8  346.47   32.30
   0   3   8  318.07   34.80
   0  -2  -8   10.70    6.50
   0   2   8    7.20    7.80
   0   2   8   16.50    5.30
   0   2   8   13.30    3.70
   0  -1  -8 1323.67   76.09
   0  -1  -8 1259.37   72.89
   0   1   8 1009.20   73.39
   0   1   8 1171.58   78.49
   0   1   8 1158.68   72.29
   0   0  -8  230.28   18.40
   0   0  -8  253.07   26.00
   0   0  -8  218.08   18.10
   0   0   8  259.57   24.30
   0   0   8  233.78   24.00
   0   1  -8 1203.98   67.19
   0   1  -8 1345.17   86.49
   0   1  -8 1123.79   67.59
   0  -1   8 1241.58   78.29
   0   2  -8    3.10    8.10
   0   2  -8   10.90    2.10
   0   2  -8   14.10    2.00
   0  -2   8   25.60    8.70
   0  -2   8    7.60    1.90
   0   3  -8  297.47   36.10
   0   3  -8  300.47   17.20
   0  -3   8  292.47   27.70
   0  -3   8  254.47   31.50
   0  -3   8  305.17   17.20
   0   4  -8  154.48   32.10
   0  -4   8  110.49   10.20
   0  -4   8  132.79   10.40
   0  -4   8  132.99   27.10
   0  -4   8  154.18   19.50
   0   5  -8   95.89   24.70
   0  -5   8   67.89   20.00
   0  -5   8   84.49   17.80
   0  -5   8   80.09   10.10
   0   6  -8    4.80   13.80
   0  -6   8   15.30   10.30
   0  -6   8    3.00    9.70
   0  -6   8    4.30    5.50
  -1  -6  -8   -1.20    8.40
   1   6   8   -5.60   13.20
  -1  -5  -8  644.04   54.99
   1   5   8  505.45   53.69
  -1  -4  -8   57.89   17.00
   1   4   8   80.89   20.40
  -1  -3  -8   64.59   16.00
   1   3   8   78.79   19.00
  -1  -2  -8   63.89   13.90
  -1  -2  -8   68.29   11.00
   1   2   8   79.99   17.10
  -1  -1  -8  952.70   58.79
  -1  -1  -8  913.01   62.59
   1   1   8  868.81   64.09
  -1   0  -8   34.30   11.90
  -1   0  -8   35.60    6.70
  -1   0  -8   26.80    5.80
   1   0   8   24.90    9.80
  -1   1  -8  925.51   69.29
  -1   1  -8  858.31   47.30
   1  -1   8  902.71   61.99
  -1   2  -8   82.29   20.90
   1  -2   8   68.19   14.50
  -1   3  -8   86.09   20.90
   1  -3   8   51.39   13.10
  -1   4  -8   97.59   26.60
   1  -4   8   78.59   17.10
  -1   5  -8  535.25   60.29
   1  -5   8  540.45   55.99
   1  -5   8  655.43   51.59
  -1   6  -8   18.90   14.20
   1  -6   8   27.20   14.10
   1  -6   8   13.10    8.60
  -2  -6  -8   46.80   19.30
   2   6   8   34.80   14.00
  -2  -5  -8   14.40   11.10
   2   5   8    6.60   12.60
   2   5   8   17.70    8.50
  -2  -4  -8   90.89   21.70
   2   4   8  155.38   20.10
   2   4   8   94.79   23.20
  -2  -3  -8  114.29   22.10
  -2  -3  -8  144.59   13.30
   2   3   8  171.78   12.10
   2   3   8  162.58   23.70
   2   3   8  168.88   20.40
  -2  -2  -8  520.85   39.80
  -2  -2  -8  581.94   42.10
   2   2   8  489.05   44.00
   2   2   8  465.45   37.90
  -2  -1  -8  979.10   69.79
  -2  -1  -8  982.40   62.69
   2   1   8 1011.40   70.29
  -2   0  -8    2.10    3.00
  -2   0  -8   -4.60    7.10
  -2   0  -8    3.40    2.60
   2   0   8    0.70    5.90
  -2   1  -8  972.30   75.19
   2  -1   8  942.41   66.99
  -2   2  -8  588.54   56.99
   2  -2   8  577.94   46.50
  -2   3  -8  165.38   33.70
   2  -3   8  175.08   22.50
  -2   4  -8  133.19   31.40
   2  -4   8  151.98   19.00
  -2   5  -8   12.90   11.50
   2  -5   8   12.50    9.70
  -2   6  -8   39.60   18.80
   2  -6   8   47.80   14.30
   2  -6   8   39.90   15.50
  -3  -6  -8  159.28   32.00
   3   6   8   90.89   24.10
   3   6   8  156.18   30.30
   3   5   8    2.40   10.80
   3   5   8   13.40    8.50
  -3  -4  -8  471.35   44.40
   3   4   8  399.86   43.10
   3   4   8  487.75   42.80
  -3  -3  -8  115.59   15.80
  -3  -3  -8  127.89   19.10
   3   3   8  150.58   20.00
   3   3   8  114.79   22.60
   3   3   8  115.39   15.40
  -3  -2  -8  106.99   20.40
  -3  -2  -8   97.49   18.10
   3   2   8  134.19   16.10
   3   2   8  120.09   23.10
  -3  -1  -8  278.17   32.60
  -3  -1  -8  307.67   26.20
   3   1   8  271.47   30.10
  -3   0  -8  207.18   15.90
  -3   0  -8  195.58   16.70
  -3   0  -8  229.88   29.60
   3   0   8  193.38   23.40
  -3   1  -8  291.17   38.30
   3  -1   8  343.07   33.10
  -3   2  -8  110.09   29.00
   3  -2   8  121.69   18.40
  -3   3  -8  155.28   34.30
   3  -3   8  111.79   23.10
  -3   4  -8  427.26   54.09
   3  -4   8  521.85   46.50
  -3   5  -8    3.60   11.30
   3  -5   8    6.40    7.40
  -3   6  -8  140.19   39.40
   3  -6   8  137.49   32.90
  -4  -5  -8   12.80    9.70
   4   5   8   40.90   12.40
   4   5   8   25.10   14.60
  -4  -4  -8   90.49   20.70
   4   4   8   72.19   18.50
   4   4   8   37.80   15.10
  -4  -3  -8   86.69   19.60
  -4  -3  -8  111.89   17.40
   4   3   8  104.79   20.40
   4   3   8   81.29   18.40
  -4  -2  -8  227.48   26.60
  -4  -2  -8  319.87   34.80
   4   2   8  269.17   27.30
   4   2   8  316.17   33.00
  -4  -1  -8   39.20    9.90
  -4  -1  -8   36.00   16.10
   4   1   8   25.50   10.70
   4   1   8   22.90    8.60
  -4   0  -8    8.60    4.30
  -4   0  -8    7.80    4.90
   4   0   8    5.60    5.70
  -4   1  -8    6.80   10.70
   4  -1   8   28.10   12.30
  -4   2  -8  373.06   43.30
   4  -2   8  338.07   35.50
  -4   3  -8  128.19   27.90
   4  -3   8  123.99   24.70
  -4   4  -8  173.88   24.00
   4  -4   8  108.69   22.60
  -4   5  -8  -16.40   19.20
   4  -5   8   -4.50    9.90
  -5  -4  -8  151.78   28.80
   5   4   8  149.09   29.20
   5   4   8  209.38   27.20
  -5  -3  -8   31.20   12.70
  -5  -3  -8   17.80   12.20
   5   3   8   36.10   16.30
   5   3   8   45.80   13.50
  -5  -2  -8  131.99   17.80
  -5  -2  -8  116.59   27.20
   5   2   8  112.09   20.00
   5   2   8  118.69   23.50
  -5  -1  -8   96.79   25.00
  -5  -1  -8   78.99   15.10
   5   1   8   86.69   15.00
   5   1   8   91.69   20.70
  -5   0  -8  177.68   17.90
  -5   0  -8  221.68   41.10
   5   0   8  218.88   26.90
  -5   1  -8  106.09   27.70
   5  -1   8   52.89   15.30
  -5   2  -8  166.28   33.60
   5  -2   8  125.19   24.90
  -5   3  -8   37.90   19.10
   5  -3   8   51.79   15.60
  -5   4  -8  188.28   44.60
   5  -4   8  308.67   35.80
  -6  -3  -8   53.29   18.10
  -6  -3  -8   99.79   24.20
   6   3   8   94.19   22.30
   6   3   8   97.99   19.90
  -6  -2  -8  107.69   27.80
  -6  -2  -8   97.49   19.20
   6   2   8  164.88   23.70
   6   2   8  112.09   16.10
  -6  -1  -8  207.88   41.50
  -6  -1  -8  226.18   23.90
   6   1   8  238.38   24.30
   6   1   8  212.18   29.90
  -6   0  -8  139.79   34.90
  -6   0  -8  155.28   17.10
   6   0   8  143.99   15.90
   6   0   8  170.88   25.00
  -6   1  -8  257.87   41.60
   6  -1   8  257.47   32.20
  -6   2  -8  115.09   35.30
   6  -2   8  123.39   25.20
  -6   3  -8   63.89   26.40
   6  -3   8  100.59   22.40
  -7  -2  -8   12.00   11.40
  -7  -2  -8  -27.20   16.40
   7   2   8   -0.40   13.10
   7   2   8   17.10   10.00
  -7  -1  -8   22.40   11.10
   7   1   8   12.50   12.30
   7   1   8   10.60    9.30
  -7   0  -8   29.40   17.70
   7   0   8   -5.30    6.10
  -7   1  -8   20.10   21.50
   7  -1   8    2.50   10.90
  -7   2  -8  -13.00   11.60
   7  -2   8    7.30    7.80
  11  -1  -9   -6.70    9.00
 -11   1   9   21.50   18.50
  11   0  -9   21.60   11.20
 -11   0   9  -29.10   14.10
  11   1  -9    5.10    6.90
 -11  -1   9   16.50   15.20
  10  -3  -9   15.20   14.90
  10  -3  -9   32.50   13.20
 -10   3   9   44.60   18.10
 -10   3   9   37.60   23.80
  10  -2  -9   18.60   14.20
  10  -2  -9   40.10   13.70
 -10   2   9   42.80   23.10
 -10   2   9   55.99   18.70
  10  -1  -9  205.48   27.70
  10  -1  -9  189.98   25.40
 -10   1   9  202.28   40.90
 -10   1   9  253.87   28.40
  10   0  -9   26.70   11.10
  10   0  -9   23.70   11.20
 -10   0   9   32.50   15.60
  10   1  -9  235.98   28.70
 -10  -1   9  149.69   35.50
  10   2  -9   72.79   18.50
 -10  -2   9   26.90   20.70
  10   3  -9   31.60   13.70
 -10  -3   9   42.40   22.00
   9  -4  -9  164.68   24.50
  -9   4   9  136.79   33.00
  -9   4   9  149.49   31.30
   9  -3  -9  104.09   20.40
  -9   3   9  110.69   22.60
  -9   3   9   82.79   26.50
   9  -2  -9   93.59   19.80
  -9   2   9  130.79   26.20
  -9   2   9  112.79   29.60
   9  -1  -9  167.18   22.60
  -9   1   9  141.19   33.90
  -9   1   9  158.78   24.10
   9   0  -9  279.87   26.60
   9   0  -9  291.57   32.60
  -9   0   9  324.87   44.90
  -9   0   9  364.66   30.50
   9   1  -9  168.18   23.10
   9   1  -9  109.99   11.90
  -9  -1   9  124.89   31.60
   9   2  -9  146.59   21.10
  -9  -2   9  103.49   26.50
   9   3  -9  129.89   24.70
  -9  -3   9   84.79   27.70
   9   4  -9  129.49   25.20
  -9  -4   9  151.18   35.40
   8  -5  -9   10.70    8.30
  -8   5   9   20.60   12.50
   8  -4  -9   30.30   10.80
  -8   4   9   10.20   17.40
  -8   4   9   36.20   17.00
   8  -3  -9  147.59   22.40
  -8   3   9  143.99   32.20
  -8   3   9  161.18   30.00
   8  -2  -9  164.58   21.70
  -8   2   9  158.78   32.50
  -8   2   9   91.19   21.20
   8  -1  -9  126.99   18.20
  -8   1   9  106.69   20.80
  -8   1   9   96.19   24.70
   8   0  -9  393.46   36.30
  -8   0   9  381.36   44.50
  -8   0   9  343.87   31.50
   8   1  -9  157.38   14.20
   8   1  -9  125.19   18.80
  -8  -1   9  124.49   13.90
  -8  -1   9  130.49   28.20
   8   2  -9  147.89   21.50
  -8  -2   9  150.58   31.50
   8   3  -9  177.48   23.30
  -8  -3   9  105.49   29.10
   8   4  -9   49.40   14.90
  -8  -4   9   48.30   18.20
   8   5  -9   -3.70    7.80
  -8  -5   9   25.70   16.50
   7  -5  -9   -3.90    4.40
  -7   5   9   -5.10   13.40
  -7   5   9   -9.20    7.50
   7  -4  -9  296.47   33.00
  -7   4   9  267.47   32.90
  -7   4   9  273.37   35.80
   7  -3  -9    6.50    5.80
  -7   3   9   -7.70    4.70
  -7   3   9   -5.20   12.10
   7  -2  -9   36.60   11.40
  -7   2   9   22.40   14.80
  -7   2   9   29.70   10.90
   7  -1  -9  273.57   28.60
  -7   1   9  265.87   33.20
  -7   1   9  221.08   25.70
   7   0  -9   60.99   14.00
  -7   0   9   40.50   14.00
  -7   0   9   36.50    9.70
   7   1  -9  246.18   26.50
  -7  -1   9  237.28   20.90
  -7  -1   9  219.08   31.60
   7   2  -9   21.10    9.00
   7   2  -9   16.90    3.00
  -7  -2   9   19.40   13.40
  -7  -2   9   12.90    3.10
   7   3  -9    1.50    4.10
  -7  -3   9    9.00    8.20
   7   4  -9  267.67   29.90
  -7  -4   9  230.08   33.70
   7   5  -9   -5.90    9.00
  -7  -5   9   46.80   12.80
   6  -6  -9   43.80   12.00
   6  -5  -9   67.89   17.70
  -6   5   9   34.80   16.70
  -6   5   9   30.30   14.00
   6  -4  -9  261.37   29.60
  -6   4   9  259.37   35.20
  -6   4   9  216.98   27.30
   6  -3  -9  316.67   31.40
  -6   3   9  248.18   31.30
  -6   3   9  286.27   34.50
   6  -2  -9   52.89   13.00
  -6   2   9   49.70   16.30
  -6   2   9   47.60   14.00
   6  -1  -9  840.72   59.59
  -6   1   9  816.42   60.49
  -6   1   9  794.02   63.99
   6   0  -9  285.77   27.50
  -6   0   9  274.37   32.50
  -6   0   9  248.78   25.00
   6   1  -9  814.62   57.09
  -6  -1   9  712.33   51.39
  -6  -1   9  880.41   67.39
   6   2  -9   52.39   12.30
  -6  -2   9   40.30   14.40
  -6  -2   9   41.60    7.60
   6   3  -9  261.87   27.20
  -6  -3   9  237.88   33.10
   6   4  -9  244.98   28.40
  -6  -4   9  269.77   36.50
   6   5  -9   71.09   18.80
  -6  -5   9  106.19   16.10
   6   6  -9   37.80   12.30
  -6  -6   9   11.00   15.70
   5  -6  -9    6.40    9.70
  -5   6   9    2.00    9.00
  -5   5   9  217.08   22.50
   5  -4  -9    4.20    4.20
  -5   4   9   12.10    9.40
  -5   4   9    5.90    8.00
   5  -3  -9  196.48   23.10
  -5   3   9  185.48   26.40
  -5   3   9  137.59   20.90
   5  -2  -9  415.76   35.30
  -5   2   9  323.27   33.30
  -5   2   9  358.46   36.20
   5  -1  -9    1.90    4.10
  -5   1   9    7.40    6.20
  -5   1   9    3.20    6.40
   5   0  -9  179.58   19.70
  -5   0   9  209.68   24.80
  -5   0   9  139.09   18.60
   5   1  -9    5.80    3.30
  -5  -1   9   17.20    5.30
  -5  -1   9    7.30    5.80
   5   2  -9  362.96   30.40
   5   2  -9  361.96   25.30
  -5  -2   9  336.07   37.70
  -5  -2   9  286.97   25.40
   5   3  -9  220.18   22.60
  -5  -3   9  161.08   15.80
  -5  -3   9  154.58   14.90
  -5  -3   9  178.18   26.00
   5   4  -9   -5.70    6.40
  -5  -4   9   11.30    7.90
  -5  -4   9    9.10    4.30
   5   5  -9  316.47   33.40
  -5  -5   9  357.06   43.20
   5   6  -9   16.30   11.90
  -5  -6   9   -6.40    9.80
   4  -6  -9   30.70   14.10
  -4   6   9   23.40   18.50
   4  -5  -9   24.00   10.90
  -4   5   9   39.80   19.10
   4  -4  -9   -3.90    4.20
   4  -4  -9    4.90    2.90
  -4   4   9    6.90    5.70
  -4   4   9   -3.50    4.80
  -4   4   9   10.50    5.10
   4  -3  -9  359.06   34.90
   4  -3  -9  415.06   29.70
  -4   3   9  319.07   30.00
  -4   3   9  375.46   39.80
  -4   3   9  472.25   32.20
   4  -2  -9   21.70    8.30
  -4   2   9   14.80    9.80
  -4   2   9   24.70    7.70
   4  -1  -9  798.92   53.29
  -4   1   9  677.13   54.59
  -4   1   9  743.33   54.09
   4   0  -9    6.00    5.30
  -4   0   9    3.80    5.10
  -4   0   9   -4.70    4.50
   4   1  -9  828.82   53.39
  -4  -1   9  773.42   60.49
  -4  -1   9  757.42   53.49
   4   2  -9   25.40    8.50
  -4  -2   9   28.00    7.20
  -4  -2   9   25.80   10.90
   4   3  -9  379.56   31.70
  -4  -3   9  410.76   42.20
  -4  -3   9  364.86   28.80
   4   4  -9   -7.20    4.80
  -4  -4   9   -3.00    8.70
  -4  -4   9    8.80    5.50
   4   5  -9   47.70   13.20
  -4  -5   9   15.80    7.00
  -4  -5   9   13.30   11.90
   4   6  -9   30.20   14.60
  -4  -6   9   26.80   15.30
   3  -6  -9   72.69   19.40
  -3   6   9   47.20   20.80
   3  -5  -9  520.25   45.70
  -3   5   9  355.96   44.00
   3  -4  -9  119.99   22.90
  -3   4   9   86.29   23.00
   3  -3  -9  192.58   22.90
  -3   3   9  181.88   25.60
  -3   3   9  196.28   15.30
  -3   3   9  197.98   15.80
   3  -2  -9  441.36   36.00
  -3   2   9  368.06   30.80
  -3   2   9  387.66   39.00
  -3   2   9  489.35   33.00
   3  -1  -9  218.88   21.00
  -3   1   9  169.88   19.50
  -3   1   9  182.58   23.00
   3   0  -9   17.00    6.70
  -3   0   9   10.50    7.00
  -3   0   9   19.30    5.60
   3   1  -9  185.18   17.60
  -3  -1   9  174.08   19.50
  -3  -1   9  167.38   22.10
   3   2  -9  437.26   31.80
  -3  -2   9  404.96   33.30
  -3  -2   9  438.76   41.50
   3   3  -9  178.48   19.20
  -3  -3   9  211.08   28.10
  -3  -3   9  225.28   21.00
   3   4  -9   92.69   13.40
  -3  -4   9  111.09   25.20
  -3  -4   9  126.49   15.30
   3   5  -9  512.85   40.70
  -3  -5   9  419.96   48.50
  -3  -5   9  543.45   38.70
   3   6  -9   40.20   11.90
  -3  -6   9   48.80   18.60
  -3  -6   9   49.99   13.00
   2  -6  -9    9.50   11.20
  -2   6   9   20.90   12.90
   2  -5  -9  104.39   22.20
  -2   5   9   60.99   18.80
   2  -4  -9   35.00   11.50
  -2   4   9   23.10   10.60
   2  -3  -9   46.30   12.70
  -2   3   9   57.49   15.70
   2  -2  -9   96.69   14.00
  -2   2   9   78.29   18.10
  -2   2   9  107.69   11.30
  -2   2   9   71.09   10.60
   2  -1  -9    9.10    5.70
  -2   1   9    3.90    3.70
  -2   1   9   -0.20    6.30
   2   0  -9 1113.79   66.79
  -2   0   9 1059.59   71.69
  -2   0   9 1063.79   72.09
   2   1  -9    0.40    2.90
  -2  -1   9    9.60    6.80
  -2  -1   9   18.00    6.10
   2   2  -9   88.89   10.10
  -2  -2   9   91.59   15.90
  -2  -2   9   91.29   20.10
   2   3  -9   73.39   19.40
   2   3  -9   59.29    8.80
  -2  -3   9   49.99   11.50
  -2  -3   9   49.90   15.20
   2   4  -9   34.90    9.30
  -2  -4   9   38.60   10.30
  -2  -4   9   23.10   10.50
   2   5  -9   86.89   15.10
  -2  -5   9   60.59   14.40
  -2  -5   9   50.29   18.20
   2   6  -9   -8.10    6.70
  -2  -6   9   -5.50    7.80
  -2  -6   9   -8.70    7.00
   1  -6  -9  279.57   35.30
  -1   6   9  152.88   36.10
   1  -5  -9   62.79   18.80
  -1   5   9   85.89   22.40
   1  -4  -9  274.37   30.30
  -1   4   9  253.57   32.50
   1  -3  -9   96.69   18.90
  -1   3   9   90.59   20.30
   1  -2  -9  925.11   58.09
  -1   2   9  807.62   61.99
  -1   2   9  791.02   48.80
  -1   2   9  743.93   49.60
   1  -1  -9  330.67   27.00
  -1   1   9  309.37   26.30
  -1   1   9  299.17   30.50
   1   0  -9 1316.77   81.89
   1   0  -9 1228.08   71.19
  -1   0   9 1080.29   77.39
  -1   0   9 1126.79   76.79
   1   1  -9  292.87   21.40
   1   1  -9  314.47   33.20
  -1  -1   9  336.57   29.50
  -1  -1   9  287.77   21.90
  -1  -1   9  310.37   31.00
   1   2  -9  866.61   50.89
   1   2  -9  984.90   72.59
  -1  -2   9  793.92   50.69
  -1  -2   9  851.11   65.79
  -1  -2   9  890.11   60.09
   1   3  -9  138.29   29.00
   1   3  -9  104.09   10.50
  -1  -3   9   95.49   14.20
  -1  -3   9   87.99    9.60
  -1  -3   9   79.59   20.80
   1   4  -9  267.47   21.30
   1   4  -9  278.87   37.30
  -1  -4   9  266.37   20.40
  -1  -4   9  321.27   29.50
  -1  -4   9  304.97   36.40
   1   5  -9   85.59   25.00
   1   5  -9   94.99   12.30
  -1  -5   9   91.89   18.40
  -1  -5   9   74.09   22.20
   1   6  -9  363.76   44.80
  -1  -6   9  199.18   23.00
  -1  -6   9  333.47   32.60
  -1  -6   9  279.17   35.90
   0  -6  -9   30.20   18.00
   0   6   9   34.40   14.50
   0  -5  -9    4.70    5.80
   0  -4  -9  207.98   26.60
   0   4   9  173.18   32.60
   0  -3  -9  151.88   21.10
   0   3   9  165.88   23.40
   0  -2  -9  420.76   33.30
   0   2   9  373.56   25.80
   0   2   9  320.17   34.10
   0   2   9  323.77   26.40
   0  -1  -9   26.00    7.60
   0  -1  -9   29.80    8.80
   0   1   9   27.00    7.90
   0   1   9   29.00   10.70
   0   0  -9  491.05   35.50
   0   0  -9  588.34   36.30
   0   0  -9  564.14   45.90
   0   0   9  525.85   42.50
   0   0   9  556.84   44.20
   0   1  -9   40.30    4.80
   0   1  -9   45.30   13.70
   0  -1   9   18.10    9.40
   0  -1   9   30.30   10.00
   0   2  -9  419.06   43.70
   0  -2   9  411.86   35.20
   0  -2   9  369.06   38.40
   0   3  -9  177.08   33.90
   0  -3   9  158.28   24.40
   0  -3   9  169.38   21.10
   0   4  -9  240.08   34.40
   0  -4   9  222.68   31.40
   0  -4   9  255.17   27.00
   0   5  -9   18.60   11.00
   0  -5   9   11.80    7.50
   0  -5   9   10.70   11.80
   0   6  -9   33.40   18.60
   0  -6   9   33.90   11.60
   0  -6   9   22.90   12.10
  -1  -6  -9   61.69   19.50
   1   6   9   13.80   13.70
  -1  -5  -9  203.98   28.40
   1   5   9  141.29   29.40
  -1  -4  -9  127.29   24.50
   1   4   9  143.49   29.10
  -1  -3  -9  119.89   17.60
   1   3   9  109.99   22.90
  -1  -2  -9   -3.80    4.60
  -1  -2  -9   -3.70    4.20
   1   2   9   10.70    4.50
   1   2   9    4.80    2.70
  -1  -1  -9   42.10   12.20
  -1  -1  -9   48.60   11.00
   1   1   9   34.00   11.70
  -1   0  -9   50.39    6.60
  -1   0  -9   33.40   12.20
  -1   0  -9   49.00    6.90
   1   0   9   49.00   12.70
  -1   1  -9   40.70   15.30
   1  -1   9   36.10   10.10
  -1   2  -9    4.00    7.80
   1  -2   9   11.60    5.90
  -1   3  -9  129.09   30.20
   1  -3   9  141.49   20.20
  -1   4  -9  136.49   28.60
   1  -4   9  141.59   20.70
  -1   5  -9  187.98   40.50
   1  -5   9  213.38   33.60
   1  -5   9  284.07   30.20
  -1   6  -9   27.80   14.20
   1  -6   9   54.39   21.00
   1  -6   9   72.99   18.10
  -2  -5  -9  133.99   27.80
   2   5   9   97.79   24.20
  -2  -4  -9   96.89   22.20
   2   4   9   96.09   23.30
  -2  -3  -9  232.78   26.80
   2   3   9  213.38   16.20
   2   3   9  212.88   15.80
   2   3   9  228.48   29.70
  -2  -2  -9  231.58   22.00
  -2  -2  -9  207.38   22.60
   2   2   9  157.78   23.90
  -2  -1  -9  531.45   38.80
  -2  -1  -9  525.25   45.30
   2   1   9  525.55   45.80
  -2   0  -9    0.60    5.50
  -2   0  -9    2.90    3.30
  -2   0  -9   -2.20    3.40
   2   0   9   -3.70    4.00
  -2   1  -9  540.75   51.19
   2  -1   9  481.75   43.10
  -2   2  -9  204.18   31.70
   2  -2   9  247.68   26.60
  -2   3  -9  227.98   35.40
   2  -3   9  221.38   26.70
  -2   4  -9  136.39   31.90
   2  -4   9  189.58   23.30
  -2   5  -9   95.59   29.30
   2  -5   9  126.69   25.10
   2  -6   9   85.89   14.30
  -3  -5  -9  105.89   24.90
   3   5   9   66.29   20.20
  -3  -4  -9   47.80   15.20
   3   4   9   66.09   17.10
   3   4   9   54.79   17.60
  -3  -3  -9  172.78   24.00
  -3  -3  -9  212.38   21.00
   3   3   9  214.38   24.40
   3   3   9  138.69   26.90
  -3  -2  -9  283.67   28.60
  -3  -2  -9  319.27   31.80
   3   2   9  242.08   30.90
  -3  -1  -9   40.80    9.90
  -3  -1  -9   28.80   13.70
   3   1   9   31.50   11.00
  -3   0  -9   93.99   10.20
  -3   0  -9  122.39   11.50
  -3   0  -9   85.49   22.00
   3   0   9  114.09   17.00
  -3   1  -9   32.00   13.00
   3  -1   9   24.40   11.40
  -3   2  -9  246.98   35.60
   3  -2   9  291.17   31.40
  -3   3  -9  237.98   35.50
   3  -3   9  201.68   28.60
  -3   4  -9   84.59   25.60
   3  -4   9   90.59   22.10
  -3   5  -9   96.49   29.70
   3  -5   9  132.59   27.90
  -4  -4  -9   23.50   12.90
   4   4   9   25.10   12.70
   4   4   9   -5.60    9.90
  -4  -3  -9   95.99   22.90
  -4  -3  -9  155.98   21.00
   4   3   9  106.69   24.70
   4   3   9  165.88   21.50
  -4  -2  -9  279.67   28.60
  -4  -2  -9  248.78   31.30
   4   2   9  243.28   26.30
   4   2   9  229.48   29.90
  -4  -1  -9   86.09   15.80
  -4  -1  -9  105.49   25.60
   4   1   9   62.59   18.30
  -4   0  -9  114.69   27.60
  -4   0  -9  133.69   11.60
  -4   1  -9   95.59   25.60
   4  -1   9   94.49   19.80
  -4   2  -9  297.07   43.20
   4  -2   9  260.67   32.00
  -4   3  -9  141.69   32.20
   4  -3   9  125.69   24.90
  -4   4  -9  -18.50   13.00
   4  -4   9   -9.50   10.30
  -5  -4  -9    7.00   11.70
  -5  -3  -9   14.70   11.20
  -5  -3  -9   42.50   13.70
   5   3   9   31.80   11.20
   5   3   9   26.80   14.20
  -5  -2  -9  160.18   22.60
  -5  -2  -9  156.48   30.00
   5   2   9  122.19   25.20
   5   2   9  210.18   22.70
  -5  -1  -9   -6.30   15.50
  -5  -1  -9    8.80    9.20
   5   1   9   10.50    9.40
  -5   0  -9  125.89   31.50
  -5   0  -9   91.19   12.10
   5   0   9  121.29   24.90
  -5   1  -9   12.20   16.80
   5  -1   9    5.40    9.30
  -5   2  -9  222.48   34.00
   5  -2   9  175.98   32.40
  -5   3  -9  -17.90   16.70
   5  -3   9    0.00    7.20
   5  -4   9   13.10   10.00
  -6  -2  -9  257.67   29.00
  -6  -2  -9  295.17   38.20
   6   2   9  214.78   26.60
   6   2   9  232.98   32.10
  -6  -1  -9   55.39   23.00
   6   1   9   37.90   15.80
  -6   0  -9  144.09   34.90
   6   0   9  137.59   26.50
  -6   1  -9   21.00   21.70
   6  -1   9   71.29   19.90
  -6   2  -9  170.98   43.30
   6  -2   9  244.78   31.60
  10  -2 -10  109.89   23.80
 -10   2  10  119.49   30.00
 -10   2  10  142.19   27.10
  10  -1 -10  168.28   22.30
  10  -1 -10  140.69   27.50
 -10   1  10  202.58   24.00
 -10   1  10  234.18   35.70
  10   0 -10  104.89   18.50
  10   0 -10  116.49   23.50
 -10   0  10  162.28   20.10
 -10   0  10  102.09   28.00
  10   1 -10  172.18   26.70
 -10  -1  10  253.47   37.40
  10   2 -10  132.89   26.60
 -10  -2  10  100.39   32.30
   9  -4 -10   15.30    7.50
  -9   4  10   28.30   16.40
  -9   4  10   19.60   18.30
   9  -3 -10   80.79   20.10
  -9   3  10   65.99   20.70
  -9   3  10  106.19   25.30
   9  -2 -10   50.59   13.60
  -9   2  10   36.60   16.60
  -9   2  10   14.80   11.50
   9  -1 -10   64.69   17.40
  -9   1  10   52.49   21.90
  -9   1  10   87.79   18.30
   9   0 -10   12.80    7.10
  -9   0  10   15.70   13.40
  -9   0  10   -2.20    6.50
   9   1 -10   68.59   16.20
   9   1 -10   48.70    8.70
  -9  -1  10   71.79   26.60
  -9  -1  10   71.89   14.30
   9   2 -10   23.70   11.30
  -9  -2  10   27.90   15.40
   9   3 -10   88.89   21.70
  -9  -3  10   70.29   20.20
   9   4 -10   27.30   11.10
  -9  -4  10  -15.50   16.40
   8  -4 -10   31.10   13.80
  -8   4  10   15.90    9.10
  -8   4  10   -8.00   13.00
   8  -3 -10   54.19   16.70
  -8   3  10   70.79   18.60
  -8   3  10   50.59   16.40
   8  -2 -10   84.79   18.30
  -8   2  10   70.89   21.00
  -8   2  10   77.29   20.00
   8  -1 -10  112.89   21.40
  -8   1  10   73.89   19.30
  -8   1  10   83.99   22.20
   8   0 -10    1.10    7.90
  -8   0  10    3.50    8.30
  -8   0  10   15.20   11.70
   8   1 -10   99.99   20.70
  -8  -1  10   93.99   13.10
  -8  -1  10  103.19   25.80
   8   2 -10  118.19   22.40
  -8  -2  10   87.09   24.00
   8   3 -10   62.09   17.90
  -8  -3  10   54.39   19.90
   8   4 -10   46.30   16.70
  -8  -4  10  -12.50   13.40
   7  -5 -10   57.29   17.70
  -7   5  10   58.09   21.00
  -7   5  10    1.70   19.50
   7  -4 -10  229.88   27.70
  -7   4  10  184.48   29.30
  -7   4  10  160.88   32.40
   7  -3 -10   18.30    7.50
  -7   3  10   11.10   11.10
  -7   3  10   11.80   13.50
   7  -2 -10   65.09   16.50
  -7   2  10   64.79   17.80
  -7   2  10   67.99   20.60
   7  -1 -10  184.58   23.10
  -7   1  10  157.98   31.10
  -7   1  10  155.08   22.00
   7   0 -10   -3.60    5.00
  -7   0  10   -9.50    4.60
  -7   0  10    1.10    6.10
   7   1 -10  196.28   23.30
  -7  -1  10  137.79   28.20
  -7  -1  10  164.78   17.80
   7   2 -10   54.69   15.30
  -7  -2  10   54.39   17.60
  -7  -2  10   40.30    7.90
   7   3 -10   17.80    9.20
  -7  -3  10    3.30    8.50
   7   4 -10  200.88   27.00
  -7  -4  10  222.78   33.80
   7   5 -10   75.29   18.60
  -7  -5  10   73.79   20.50
   6  -5 -10   30.50    8.50
  -6   5  10   -0.20    8.70
   6  -4 -10  231.28   28.10
  -6   4  10  207.18   30.90
  -6   4  10  190.68   25.60
   6  -3 -10   54.49   15.70
  -6   3  10   22.50   13.00
  -6   3  10   53.49   16.30
   6  -2 -10  324.87   32.20
  -6   2  10  264.67   30.80
  -6   2  10  255.17   31.00
   6  -1 -10  253.37   26.10
  -6   1  10  190.88   26.30
  -6   1  10  202.68   25.10
   6   0 -10  531.45   41.60
  -6   0  10  481.95   46.40
  -6   0  10  414.36   38.20
   6   1 -10  224.28   24.10
  -6  -1  10  214.08   28.30
  -6  -1  10  208.48   21.60
   6   2 -10  309.97   29.20
  -6  -2  10  303.57   37.30
  -6  -2  10  268.27   23.20
   6   3 -10   58.69   14.70
  -6  -3  10   50.39   18.70
  -6  -3  10   29.50    6.80
   6   4 -10  199.98   24.60
  -6  -4  10  256.77   35.50
   6   5 -10  -10.90    8.00
  -6  -5  10   22.30   13.00
   5  -6 -10  184.88   33.50
  -5   6  10  172.78   38.20
   5  -5 -10   14.10    6.80
  -5   5  10   37.90   10.00
   5  -4 -10   94.99   21.20
  -5   4  10   85.39   14.80
  -5   4  10   99.99   23.70
   5  -3 -10   44.50   13.30
  -5   3  10   31.70   11.00
  -5   3  10   54.19   17.10
   5  -2 -10  489.85   39.80
  -5   2  10  365.46   36.50
  -5   2  10  414.96   41.10
   5  -1 -10  202.08   22.90
  -5   1  10  163.98   23.20
  -5   1  10  182.48   23.70
   5   0 -10  227.68   23.10
  -5   0  10  197.68   23.30
  -5   0  10  190.68   25.20
   5   1 -10  176.38   20.00
  -5  -1  10  192.88   20.90
  -5  -1  10  173.58   25.70
   5   2 -10  411.36   34.10
  -5  -2  10  382.16   41.60
  -5  -2  10  392.26   31.40
   5   3 -10   38.00   10.80
  -5  -3  10   18.00    7.00
  -5  -3  10   37.00   15.20
   5   4 -10  117.69   20.80
  -5  -4  10  103.89   26.20
  -5  -4  10  112.29   12.40
   5   5 -10    4.10    8.50
  -5  -5  10    0.10    9.60
   5   6 -10  219.78   28.90
  -5  -6  10  229.78   33.90
   4  -6 -10  103.39   21.90
  -4   6  10  121.89   26.20
   4  -5 -10  195.88   33.40
  -4   5  10  178.38   35.40
   4  -4 -10   91.49   19.50
  -4   4  10   45.40   15.10
   4  -3 -10  173.88   22.20
  -4   3  10  213.08   28.60
  -4   3  10  167.08   17.50
   4  -2 -10  270.47   26.70
  -4   2  10  209.78   23.50
  -4   2  10  213.28   27.50
   4  -1 -10  243.98   24.80
  -4   1  10  191.28   25.80
  -4   1  10  246.88   25.90
   4   0 -10   -3.80    2.30
  -4   0  10    2.10    5.30
  -4   0  10  -10.70    5.40
   4   1 -10  253.27   23.70
  -4  -1  10  226.68   24.00
  -4  -1  10  273.97   30.40
   4   2 -10  242.68   22.80
  -4  -2  10  224.08   22.90
  -4  -2  10  225.38   29.40
   4   3 -10  201.58   22.30
  -4  -3  10  253.77   32.40
  -4  -3  10  232.58   22.10
   4   4 -10   89.09   17.40
  -4  -4  10   69.49   21.50
  -4  -4  10   91.89   12.90
   4   5 -10  177.78   21.50
  -4  -5  10  196.98   20.10
  -4  -5  10  121.99   31.70
   4   6 -10  138.19   20.70
  -4  -6  10  127.09   29.70
   3  -6 -10   25.10   14.70
  -3   6  10   -7.80   13.60
   3  -5 -10   92.99   20.50
  -3   5  10   47.70   20.60
   3  -4 -10  102.99   22.90
  -3   4  10  131.59   28.30
  -3   3  10  827.42   64.69
  -3   3  10  653.53   42.80
  -3   3  10  761.92   43.10
   3  -2 -10   81.39   16.50
  -3   2  10   61.59   12.60
  -3   2  10   82.29   12.20
  -3   2  10   58.39   16.80
   3  -1 -10  746.43   50.29
  -3   1  10  681.43   54.39
  -3   1  10  626.34   48.50
   3   0 -10    5.30    4.90
  -3   0  10   -6.50    4.10
  -3   0  10    4.70    4.70
   3   1 -10  668.53   45.40
  -3  -1  10  603.74   52.79
  -3  -1  10  720.33   50.99
   3   2 -10   73.59   11.10
  -3  -2  10   77.59   14.60
  -3  -2  10   93.69   21.40
   3   3 -10  877.01   58.69
  -3  -3  10  971.90   74.89
  -3  -3  10  895.31   61.39
   3   4 -10  135.19   16.30
  -3  -4  10  177.38   19.20
  -3  -4  10  108.59   24.00
   3   5 -10   79.29   15.40
  -3  -5  10   97.59   14.30
  -3  -5  10   72.49   22.60
   3   6 -10   39.30   14.80
  -3  -6  10   51.09   12.90
  -3  -6  10   40.10   17.80
   2  -6 -10   -0.30   10.20
  -2   6  10   21.50   17.50
   2  -5 -10  106.79   22.60
  -2   5  10   97.69   25.60
   2  -4 -10   12.10    7.40
  -2   4  10   -4.10    5.80
   2  -3 -10  190.38   23.70
  -2   3  10  160.18   29.80
   2  -2 -10  161.98   19.50
  -2   2  10  149.88   15.30
  -2   2  10  161.18   16.30
  -2   2  10  152.98   22.40
   2  -1 -10  561.54   39.70
  -2   1  10  483.25   43.40
  -2   1  10  467.35   37.60
   2   0 -10  134.99   14.90
  -2   0  10  101.89   19.90
  -2   0  10  110.49   17.10
   2   1 -10  520.05   34.40
  -2  -1  10  475.15   40.20
  -2  -1  10  467.85   43.20
   2   2 -10  164.38   15.70
  -2  -2  10  159.78   23.70
  -2  -2  10  205.38   21.80
   2   3 -10  195.08   16.90
  -2  -3  10  189.18   21.40
  -2  -3  10  174.98   26.60
   2   4 -10    0.80    4.60
  -2  -4  10    1.80    5.60
  -2  -4  10   -9.90    6.80
   2   5 -10  118.69   13.70
  -2  -5  10   93.99   26.10
  -2  -5  10  108.89   16.60
   2   6 -10   29.20   10.50
  -2  -6  10   23.80    9.40
  -2  -6  10   10.40   10.10
   1  -6 -10   32.90   13.90
  -1   6  10   32.00   15.50
   1  -5 -10   35.10   13.20
  -1   5  10   20.80   14.10
   1  -4 -10   54.09   17.10
  -1   4  10   84.29   21.10
   1  -3 -10   56.09   15.00
  -1   3  10   41.10   15.00
   1  -2 -10  356.46   32.10
  -1   2  10  382.86   26.40
  -1   2  10  348.87   37.30
  -1   2  10  347.27   27.20
   1  -1 -10  218.58   21.30
  -1   1  10  194.18   21.30
  -1   1  10  229.38   26.20
   1   0 -10   12.00    7.40
   1   0 -10    8.40    4.90
  -1   0  10   26.70    9.30
  -1   0  10   11.80    6.50
   1   1 -10  216.38   17.00
   1   1 -10  216.58   17.70
   1   1 -10  213.48   28.10
  -1  -1  10  187.88   16.80
  -1  -1  10  179.18   24.40
  -1  -1  10  210.58   23.50
   1   2 -10  371.76   25.20
   1   2 -10  417.46   43.30
  -1  -2  10  341.87   25.00
  -1  -2  10  410.76   35.40
  -1  -2  10  411.36   40.20
   1   3 -10   95.69   24.90
  -1  -3  10   37.20   13.90
  -1  -3  10   54.09    6.40
  -1  -3  10   53.29   13.20
   1   4 -10   79.89    8.50
   1   4 -10  106.39   24.00
  -1  -4  10  100.39   18.30
   1   5 -10   40.60   22.60
   1   5 -10   62.49   11.10
  -1  -5  10   21.90   14.10
  -1  -5  10   43.50   14.00
   1   6 -10   30.30   16.10
  -1  -6  10   20.30   12.90
  -1  -6  10    2.30    7.70
   0  -6 -10  152.28   32.50
   0   6  10  138.29   32.90
   0  -5 -10   21.00   13.00
   0   5  10   24.30   15.10
   0  -4 -10  266.87   30.60
   0   4  10  230.28   33.20
   0  -3 -10   29.00   10.90
   0   3  10   51.29   15.80
   0  -2 -10   73.89   15.10
   0   2  10   41.90   14.40
   0   2  10   64.89    9.30
   0  -1 -10  303.67   25.10
   0  -1 -10  264.67   26.90
   0   1  10  251.07   29.30
   0   1  10  247.28   24.80
   0   0 -10   18.10    5.90
   0   0 -10   29.00   10.50
   0   0  10   11.80    7.30
   0   0  10   10.90    7.60
   0   1 -10  222.88   30.40
   0   1 -10  257.67   17.80
   0  -1  10  268.27   29.70
   0  -1  10  277.67   28.70
   0   2 -10   76.29   22.20
   0  -2  10   57.49   17.40
   0  -2  10   89.09   17.40
   0   3 -10   62.19   20.10
   0  -3  10   42.70   14.70
   0  -3  10   48.20   12.40
   0   4 -10  338.47   42.50
   0  -4  10  292.17   37.90
   0  -4  10  313.07   32.00
   0   5 -10   17.00   14.70
   0  -5  10   30.80   10.80
   0  -5  10   42.50   15.00
   0   6 -10  207.28   43.30
   0  -6  10  175.68   38.30
   0  -6  10  200.68   28.50
  -1  -5 -10   40.10   14.50
   1   5  10   21.70   13.10
  -1  -4 -10  224.68   29.00
   1   4  10  204.48   30.00
  -1  -3 -10  204.78   24.40
   1   3  10  182.48   26.80
  -1  -2 -10    3.30    5.70
  -1  -2 -10    1.20    4.20
   1   2  10   -0.20    4.40
   1   2  10    3.60    5.30
  -1  -1 -10  205.18   24.30
  -1  -1 -10  223.38   20.80
   1   1  10  200.68   26.30
   1   1  10  182.48   21.60
  -1   0 -10  307.87   22.00
  -1   0 -10  302.47   33.50
  -1   0 -10  274.07   22.10
   1   0  10  302.27   32.50
  -1   1 -10  197.18   28.70
   1  -1  10  197.28   23.20
  -1   2 -10   -7.20    8.10
   1  -2  10   -7.00    4.30
  -1   3 -10  253.47   35.50
   1  -3  10  230.58   26.20
  -1   4 -10  246.48   37.50
   1  -4  10  230.28   32.00
   1  -4  10  232.38   28.90
  -1   5 -10   16.70   14.80
   1  -5  10   21.10    9.80
   1  -5  10   18.80   10.70
  -2  -5 -10   81.89   22.50
   2   5  10   50.39   17.20
  -2  -4 -10  235.18   30.00
   2   4  10  202.58   36.30
  -2  -3 -10  292.57   31.20
   2   3  10  312.57   36.10
   2   3  10  259.77   18.90
  -2  -2 -10  128.69   19.00
  -2  -2 -10  140.79   18.60
   2   2  10  141.99   27.70
  -2  -1 -10  402.46   38.80
  -2  -1 -10  404.66   30.50
   2   1  10  319.87   35.80
  -2   0 -10  135.79   11.80
  -2   0 -10  117.59   24.30
   2   0  10   91.99   20.50
  -2   1 -10  374.56   43.20
   2  -1  10  347.67   35.40
  -2   2 -10  144.49   32.20
   2  -2  10  184.28   24.60
  -2   3 -10  302.17   41.90
   2  -3  10  334.97   35.20
  -2   4 -10  264.97   42.70
   2  -4  10  305.27   33.80
  -2   5 -10   99.39   28.80
   2  -5  10   58.99   19.90
   2  -5  10  109.69   25.40
  -3  -4 -10   43.30   15.40
   3   4  10    9.80   12.10
  -3  -3 -10   57.69   16.00
   3   3  10   21.50   13.00
  -3  -2 -10  286.37   28.70
  -3  -2 -10  256.77   30.20
   3   2  10  243.98   32.80
  -3  -1 -10  248.88   31.90
  -3  -1 -10  226.08   22.80
   3   1  10  262.37   30.80
  -3   0 -10   42.30   15.60
   3   0  10   23.30   12.50
  -3   1 -10  289.97   38.00
   3  -1  10  258.57   30.80
  -3   2 -10  289.17   41.10
   3  -2  10  293.57   33.10
  -3   3 -10   51.39   19.50
   3  -3  10   49.20   16.40
  -3   4 -10   13.90   18.60
   3  -4  10   20.60   10.90
  -4  -4 -10   17.30   11.20
   4   4  10   18.50   12.00
  -4  -3 -10  176.28   25.80
   4   3  10  115.79   26.80
  -4  -2 -10   53.69   17.00
  -4  -2 -10   15.70   10.10
   4   2  10   24.60   12.70
  -4  -1 -10  147.19   16.40
  -4  -1 -10  137.89   25.60
   4   1  10  127.69   26.30
  -4   0 -10  121.59   29.10
   4   0  10  106.79   23.20
  -4   1 -10   97.49   28.80
   4  -1  10   95.79   20.70
  -4   2 -10   39.30   17.50
   4  -2  10   17.70   10.50
  -4   3 -10  160.78   40.00
   4  -3  10  226.68   28.70
  -4   4 -10   -3.40   12.20
   4  -4  10   20.20    9.90
  -5  -2 -10  109.29   23.60
  -5  -2 -10  109.59   22.10
   5   2  10  135.39   27.00
  -5  -1 -10  235.28   32.10
  -5  -1 -10  195.18   22.80
   5   1  10  205.48   29.30
  -5   0 -10    7.70   16.80
   5   0  10  -12.40    6.90
  -5   1 -10  150.78   33.90
   5  -1  10  154.28   29.80
  -5   2 -10   91.59   30.20
   5  -2  10   99.69   23.10
  10  -2 -11  171.18   24.40
 -10   2  11  143.29   28.60
 -10   2  11  110.79   29.90
  10  -1 -11   80.99   18.40
 -10   1  11   65.49   26.30
 -10   1  11   37.60   15.10
  10   0 -11   32.00   11.70
  10   0 -11   88.89   20.60
 -10   0  11   23.50   18.70
  10   1 -11   48.70   14.00
 -10  -1  11   28.60   23.40
  10   2 -11  153.38   22.00
 -10  -2  11  108.89   28.10
   9  -3 -11   17.50    8.90
  -9   3  11   18.10   14.40
  -9   3  11   25.00   17.30
   9  -2 -11    0.80    8.10
  -9   2  11   14.90   12.50
  -9   2  11  -18.30    8.30
   9  -1 -11   -0.40    8.20
  -9   1  11   -9.60    8.80
  -9   1  11   -3.70   13.10
   9   0 -11   76.19   17.60
  -9   0  11   85.49   27.10
  -9   0  11  119.19   20.30
   9   1 -11   -0.30    6.20
  -9  -1  11   13.00   14.50
   9   2 -11    3.90    6.70
  -9  -2  11  -29.20   13.20
   9   3 -11   10.90   10.00
  -9  -3  11   19.70   14.60
   8  -4 -11  -10.60    6.50
  -8   4  11    0.20   15.40
  -8   4  11   12.20   15.00
   8  -3 -11  139.09   26.00
  -8   3  11  109.69   24.60
  -8   3  11   91.39   25.00
   8  -2 -11   41.70   15.70
  -8   2  11    3.00   13.20
  -8   2  11   32.90   15.10
   8  -1 -11  264.47   30.00
  -8   1  11  208.48   27.70
  -8   1  11  221.68   34.20
   8   0 -11   24.90   10.90
  -8   0  11   15.20    8.90
  -8   0  11   25.80   14.00
   8   1 -11  257.77   28.50
  -8  -1  11  177.08   20.80
  -8  -1  11  223.68   33.20
   8   2 -11   21.40    8.80
  -8  -2  11   27.80   14.20
   8   3 -11  126.39   24.20
  -8  -3  11   93.39   26.70
   8   4 -11   14.30   11.40
   7  -5 -11  132.29   26.00
   7  -4 -11    1.20    6.10
  -7   4  11  -21.10   13.10
  -7   4  11    5.70   13.60
   7  -3 -11  209.98   27.10
  -7   3  11  187.48   27.40
  -7   3  11  218.58   31.30
   7  -2 -11   37.70   12.20
  -7   2  11   39.70   13.80
  -7   2  11   12.30   14.50
   7  -1 -11  174.78   23.50
  -7   1  11  161.08   23.20
  -7   1  11  119.09   26.60
   7   0 -11  110.89   20.90
  -7   0  11  105.99   25.80
  -7   0  11   81.09   17.60
   7   1 -11  145.89   21.40
  -7  -1  11  138.59   17.90
  -7  -1  11  142.49   29.20
   7   2 -11   23.60   12.20
  -7  -2  11   33.90   17.10
   7   3 -11  217.58   27.20
  -7  -3  11  244.48   35.60
   7   4 -11   20.80   10.80
  -7  -4  11   -4.40   10.60
  -7  -5  11   50.09   25.30
   6  -5 -11   90.39   19.60
  -6   5  11   79.19   24.10
   6  -4 -11   53.49   17.70
  -6   4  11   29.40   14.50
  -6   4  11   48.30   20.00
   6  -3 -11   39.50   11.90
  -6   3  11   22.10   13.30
  -6   3  11   52.39   18.00
   6  -2 -11   88.99   19.10
  -6   2  11   55.59   17.70
  -6   2  11   33.80   14.60
   6  -1 -11  158.08   20.50
  -6   1  11  118.39   23.60
  -6   1  11  146.59   22.30
   6   0 -11    3.70    5.40
  -6   0  11   -3.30    5.20
  -6   0  11   -5.40    6.40
   6   1 -11  150.88   19.20
  -6  -1  11   81.99   16.00
  -6  -1  11   95.19   23.10
   6   2 -11   90.39   17.00
  -6  -2  11   51.39   17.40
  -6  -2  11   45.70   11.20
   6   3 -11   41.60   13.80
  -6  -3  11   30.50   11.80
  -6  -3  11   18.80    6.70
   6   4 -11   60.09   16.50
  -6  -4  11   96.79   23.60
   6   5 -11   94.49   21.50
  -6  -5  11   67.39   24.80
   5  -5 -11    6.80    9.70
  -5   5  11   22.50   11.10
  -5   4  11  110.29   16.00
  -5   4  11  184.68   36.60
   5  -3 -11    6.20    7.20
  -5   3  11   -4.10    5.60
  -5   3  11   -6.10    8.00
   5  -2 -11  514.25   41.60
  -5   2  11  410.96   43.30
  -5   2  11  386.96   37.70
  -5   1  11  156.08   21.90
  -5   1  11  140.89   21.50
   5   0 -11 1248.38   74.89
  -5   0  11  929.01   72.99
  -5   0  11 1060.39   78.49
   5   1 -11  171.08   20.50
  -5  -1  11  203.68   27.80
  -5  -1  11  188.18   22.00
   5   2 -11  445.66   37.20
  -5  -2  11  458.85   47.10
  -5  -2  11  457.15   37.00
   5   3 -11    2.40    6.80
  -5  -3  11   -1.60    6.40
  -5  -3  11    7.90    5.40
   5   4 -11  192.68   24.50
  -5  -4  11  229.48   30.10
   5   5 -11   -2.90    9.60
  -5  -5  11   15.30   12.90
   4  -5 -11  153.88   30.20
  -4   5  11  105.99   24.80
   4  -4 -11   55.99   17.30
  -4   4  11   71.09   20.30
   4  -3 -11   28.00    9.90
  -4   3  11   34.00    9.40
  -4   3  11    9.50   10.10
  -4   3  11   25.40    7.20
   4  -2 -11  303.47   29.80
  -4   2  11  243.58   30.50
  -4   2  11  225.08   23.90
   4  -1 -11   64.99   14.30
  -4   1  11   38.90   12.50
  -4   1  11   62.89   15.10
   4   0 -11  227.48   22.20
  -4   0  11  160.08   22.30
  -4   0  11  171.08   23.30
   4   1 -11   51.09   12.00
  -4  -1  11   62.09   14.20
  -4  -1  11   75.69   18.40
   4   2 -11  257.27   23.70
  -4  -2  11  198.98   24.20
  -4  -2  11  256.17   32.00
   4   3 -11   28.90   10.20
  -4  -3  11   23.20   16.30
  -4  -3  11   14.60    7.60
   4   4 -11   54.69   13.80
  -4  -4  11   44.30   11.50
  -4  -4  11   69.39   21.60
   4   5 -11  113.09   20.40
  -4  -5  11   62.59   24.20
  -4  -5  11  106.29   15.60
   3  -5 -11   49.70   16.90
  -3   5  11    9.90   15.20
   3  -4 -11  140.19   25.40
  -3   4  11   93.49   23.80
   3  -3 -11  284.37   30.10
  -3   3  11  236.58   15.50
  -3   3  11  235.18   31.00
   3  -2 -11  316.97   29.40
  -3   2  11  250.47   23.50
  -3   2  11  256.47   31.70
   3  -1 -11   79.09   15.40
  -3   1  11   49.40   15.80
  -3   1  11   55.69   12.90
   3   0 -11 1059.19   64.29
  -3   0  11  858.11   67.59
  -3   0  11  933.51   68.39
   3   1 -11   72.49   12.90
  -3  -1  11   70.99   16.10
  -3  -1  11   64.09   17.20
   3   2 -11  271.67   24.00
  -3  -2  11  289.17   34.10
  -3  -2  11  277.57   28.30
   3   3 -11  243.08   22.50
  -3  -3  11  250.47   26.20
  -3  -3  11  269.47   35.10
   3   4 -11  118.69   16.30
  -3  -4  11   92.39   17.30
  -3  -4  11  134.69   29.60
   3   5 -11   60.39   12.40
  -3  -5  11   34.90   21.00
  -3  -5  11   52.49   11.60
   2  -5 -11  306.87   35.30
  -2   5  11  246.28   43.20
   2  -4 -11   90.39   19.40
  -2   4  11   74.59   20.30
   2  -3 -11  270.57   29.00
  -2   3  11  204.68   30.50
   2  -2 -11   26.10    9.90
  -2   2  11   14.00    7.70
  -2   2  11    7.50    8.80
  -2   2  11   10.50    4.80
   2  -1 -11   68.49   14.00
  -2   1  11   28.00    9.90
  -2   1  11   32.40   12.40
   2   0 -11  367.16   28.00
  -2   0  11  277.37   30.50
  -2   0  11  288.17   31.20
   2   1 -11   41.80    9.50
  -2  -1  11   50.89   13.90
  -2  -1  11   39.70   12.80
   2   2 -11   24.50    6.80
  -2  -2  11   24.50   11.70
  -2  -2  11   35.00   10.20
   2   3 -11  238.48   20.50
  -2  -3  11  250.47   26.80
  -2  -3  11  256.07   33.30
   2   4 -11   77.79   11.00
  -2  -4  11   77.89   23.20
  -2  -4  11   88.39   16.60
  -2  -5  11  327.57   41.50
  -2  -5  11  298.47   31.80
   1  -5 -11   86.19   21.80
  -1   5  11   34.00   19.00
   1  -4 -11   21.60   10.20
  -1   4  11   11.80   10.40
   1  -3 -11   36.80   13.30
  -1   3  11   42.20   14.70
   1  -2 -11   10.40    7.50
  -1   2  11   -3.80    4.80
  -1   2  11   16.10    7.90
  -1   2  11    4.90    7.60
   1  -1 -11    1.70    5.40
  -1   1  11   33.10   10.80
  -1   1  11    4.10    7.10
   1   0 -11  735.23   47.80
  -1   0  11  743.73   55.49
  -1   0  11  668.53   56.09
   1   1 -11   27.60   12.50
   1   1 -11   10.80    4.40
  -1  -1  11    6.20    7.70
  -1  -1  11   -6.60    6.20
   1   2 -11    6.30    6.60
   1   2 -11    3.20    3.60
   1   2 -11   -0.90    2.90
  -1  -2  11   -5.00    6.10
  -1  -2  11   -2.30    4.00
   1   3 -11   47.70   18.00
   1   3 -11   41.40    4.90
  -1  -3  11   45.60   15.60
  -1  -3  11   36.90    9.70
   1   4 -11   30.00   14.50
  -1  -4  11    0.00    6.50
  -1  -4  11   -3.30    8.60
   1   5 -11   98.59   26.00
  -1  -5  11   87.39   19.20
  -1  -5  11   73.89   21.40
   0  -5 -11  144.99   28.10
   0   5  11   62.99   20.10
   0  -4 -11  231.38   30.00
   0   4  11  174.28   35.00
   0  -3 -11  220.58   25.50
   0   3  11  158.78   31.50
   0  -2 -11  104.99   18.20
   0   2  11   57.59   15.40
   0   2  11   60.29   12.90
   0   2  11   64.79   11.90
   0  -1 -11  329.57   27.40
   0  -1 -11  300.77   30.20
   0   1  11  296.67   28.00
   0   1  11  280.77   32.50
   0   0 -11  187.18   16.30
   0   0 -11  145.89   23.20
   0   0  11  146.89   20.80
   0   0  11  163.18   22.70
   0   1 -11  379.36   39.20
   0  -1  11  305.37   33.20
   0  -1  11  255.47   31.30
   0   2 -11   64.89   22.00
   0  -2  11   65.79   20.50
   0  -2  11  101.99   19.30
   0   3 -11  200.58   31.50
   0  -3  11  212.08   26.70
   0  -3  11  223.18   30.70
   0   4 -11  243.88   36.80
   0  -4  11  199.78   26.70
   0  -4  11  206.78   31.70
   0   5 -11  112.99   31.30
   0  -5  11  125.09   30.80
   0  -5  11  160.68   24.20
  -1  -5 -11   93.79   24.50
   1   5  11   97.59   24.60
  -1  -4 -11  128.29   25.20
   1   4  11  120.19   27.50
  -1  -3 -11   -6.90    7.00
   1   3  11   15.10   10.00
  -1  -2 -11  375.06   32.90
   1   2  11  295.27   35.30
   1   2  11  306.97   26.70
  -1  -1 -11   11.20    8.00
  -1  -1 -11   -0.80    4.90
   1   1  11    4.80    6.70
   1   1  11   11.90    8.70
  -1   0 -11  217.38   17.40
  -1   0 -11  215.38   29.10
  -1   0 -11  157.78   23.50
   1   0  11  201.98   26.40
   1   0  11  175.88   24.10
  -1   1 -11   19.90   11.20
   1  -1  11    4.60    6.70
  -1   2 -11  309.07   40.40
   1  -2  11  360.06   36.40
   1  -2  11  364.76   39.90
  -1   3 -11   23.00   12.60
   1  -3  11   32.00    6.70
   1  -3  11    3.70   10.30
  -1   4 -11  120.29   32.10
   1  -4  11  119.79   28.20
   1  -4  11  110.79   24.80
  -1   5 -11  150.68   36.70
   1  -5  11  126.89   26.00
   1  -5  11  126.09   32.80
  -2  -4 -11  172.48   25.90
   2   4  11  142.59   31.90
  -2  -3 -11    8.70   11.20
   2   3  11    3.10    6.90
  -2  -2 -11   -2.90    8.80
  -2  -2 -11   -1.20    6.80
   2   2  11    3.90    6.20
   2   2  11   -8.30    5.30
  -2  -1 -11   37.80   12.90
  -2  -1 -11   19.60    8.60
   2   1  11   24.40   11.80
  -2   0 -11   73.39   19.60
  -2   0 -11   85.99    8.90
   2   0  11   60.99   16.80
  -2   1 -11   21.40   12.80
   2  -1  11   38.20   12.20
  -2   2 -11  -14.30   10.10
   2  -2  11   14.50    8.90
  -2   3 -11   11.00   12.30
   2  -3  11   22.10   10.40
  -2   4 -11  195.58   43.90
   2  -4  11  203.08   28.50
  -3  -4 -11   19.00   11.20
   3   4  11    8.10    9.70
  -3  -3 -11   57.59   17.90
   3   3  11   98.69   24.00
  -3  -2 -11  397.36   37.30
  -3  -2 -11  377.86   35.70
   3   2  11  352.66   40.80
  -3  -1 -11  276.17   23.60
  -3  -1 -11  249.88   32.30
   3   1  11  216.68   30.30
  -3   0 -11  536.25   53.89
   3   0  11  469.35   46.40
  -3   1 -11  259.67   36.40
   3  -1  11  269.57   30.70
  -3   2 -11  371.96   48.80
   3  -2  11  360.56   36.80
  -3   3 -11  114.19   32.00
   3  -3  11   99.49   23.40
   3  -4  11   27.40    9.40
  -4  -3 -11  248.88   32.60
   4   3  11  267.57   31.90
  -4  -2 -11   36.30   13.80
  -4  -2 -11   19.10   14.00
   4   2  11   34.10   16.70
  -4  -1 -11   21.10   11.10
  -4  -1 -11   17.00   15.80
   4   1  11   45.80   15.60
  -4   0 -11  -16.40   13.70
   4   0  11  -11.90   11.30
  -4   1 -11   13.30   16.80
   4  -1  11   52.29   15.10
  -4   2 -11    6.60   13.60
   4  -2  11   42.00   15.80
   4  -3  11  283.07   35.10
  -5   0 -11   45.50   23.80
   5   0  11   51.79   16.10
  10  -1 -12   -7.40   10.00
 -10   1  12   -5.00   13.60
 -10   1  12    6.50   12.00
  10   0 -12    7.10    8.20
 -10   0  12    9.20   17.50
  10   1 -12   23.00   10.60
 -10  -1  12  -41.40   17.50
   9  -2 -12   60.39   16.60
  -9   2  12   76.49   20.00
  -9   2  12   70.19   21.40
   9  -1 -12   -2.80    8.00
  -9   1  12    2.00    9.80
  -9   1  12   12.80   17.20
   9   0 -12  294.47   33.60
  -9   0  12  257.17   27.60
  -9   0  12  272.27   39.50
   9   1 -12   -3.10    9.60
  -9  -1  12   -8.30   10.10
   9   2 -12   49.40   15.80
  -9  -2  12   47.60   17.70
   8  -3 -12   96.49   20.20
  -8   3  12   82.99   22.70
  -8   3  12   50.99   22.00
   8  -2 -12   46.10   16.10
  -8   2  12   33.60   14.30
  -8   2  12   19.00   15.30
   8  -1 -12  138.49   25.90
  -8   1  12   95.59   26.90
  -8   1  12  112.49   22.90
   8   0 -12    0.40    6.90
  -8   0  12   -3.80    9.10
   8   1 -12  145.09   21.70
  -8  -1  12   95.29   28.40
  -8  -1  12  109.99   16.50
   8   2 -12   19.70    8.80
  -8  -2  12   18.70   12.20
   8   3 -12   88.59   20.30
  -8  -3  12   55.39   23.20
   7  -4 -12   36.30   13.00
  -7   4  12   12.00   13.00
   7  -3 -12  142.99   27.50
  -7   3  12   70.59   24.50
  -7   3  12   85.89   23.80
   7  -2 -12   28.90   11.50
  -7   2  12   45.00   11.20
  -7   2  12   19.10   11.90
  -7   1  12  167.78   31.60
  -7   1  12  172.28   29.40
   7   0 -12    3.20    6.00
  -7   0  12   18.20   12.70
  -7   0  12   -8.80    8.90
   7   1 -12  235.98   28.00
  -7  -1  12  192.88   23.60
  -7  -1  12  206.78   31.60
   7   2 -12    9.70    8.70
  -7  -2  12   -4.90    6.70
  -7  -2  12   20.20   14.30
   7   3 -12  133.79   20.00
  -7  -3  12   79.79   25.10
   7   4 -12   25.90   11.90
  -7  -4  12    1.20   14.00
   6  -4 -12   58.79   16.60
  -6   4  12   49.00   18.10
   6  -3 -12  132.49   24.40
  -6   3  12   60.49   22.10
  -6   3  12   89.89   20.30
   6  -2 -12   37.20   12.10
  -6   2  12   40.80   16.50
  -6   2  12   57.49   13.90
   6  -1 -12  615.64   49.40
  -6   1  12  522.45   49.50
  -6   1  12  574.94   50.39
   6   0 -12   90.39   18.40
  -6   0  12   77.49   18.40
  -6   0  12   97.89   23.50
   6   1 -12  585.44   46.70
  -6  -1  12  542.35   53.49
  -6  -1  12  545.25   45.00
   6   2 -12   40.20   12.80
  -6  -2  12   32.70   10.30
  -6  -2  12   36.80   16.40
   6   3 -12  136.69   23.60
  -6  -3  12  125.99   15.10
  -6  -3  12  120.29   27.70
   6   4 -12   53.59   15.80
  -6  -4  12   71.09   22.20
   5  -5 -12   83.49   19.00
  -5   5  12   66.19   23.50
   5  -4 -12  233.98   28.70
  -5   4  12  174.78   33.70
   5  -3 -12   98.29   20.70
  -5   3  12  161.58   22.30
  -5   3  12  117.49   17.10
   5  -2 -12   46.00   12.90
  -5   2  12   46.50   14.60
  -5   2  12   33.00   15.60
   5  -1 -12  105.09   20.50
  -5   1  12   93.09   21.10
  -5   1  12   99.89   20.40
   5   0 -12 1235.18   77.69
  -5   0  12 1090.49   81.99
  -5   0  12 1052.29   78.99
   5   1 -12   70.19   16.00
  -5  -1  12   58.79   16.70
  -5  -1  12   94.59   22.80
   5   2 -12   51.29   13.20
  -5  -2  12   55.59   17.50
  -5  -2  12   57.09   13.30
   5   3 -12   85.29   16.60
  -5  -3  12  106.19   24.80
  -5  -3  12   88.79   16.60
   5   4 -12  237.48   26.20
  -5  -4  12  224.38   43.20
  -5  -4  12  239.28   23.90
   5   5 -12   85.99   20.40
  -5  -5  12   66.29   20.70
   4  -5 -12    6.20    9.50
  -4   5  12   23.40   10.80
   4  -4 -12   45.40   15.50
  -4   4  12   56.99   20.90
   4  -3 -12  215.68   25.50
  -4   3  12  153.18   17.30
  -4   3  12  251.77   34.00
   4  -2 -12   85.59   17.80
  -4   2  12   85.29   18.00
  -4   2  12   99.19   14.40
   4  -1 -12  328.97   30.60
  -4   1  12  262.07   31.90
  -4   1  12  290.87   30.50
   4   0 -12   36.80   10.80
  -4   0  12   25.90   11.60
   4   1 -12  308.77   28.00
  -4  -1  12  279.57   30.80
  -4  -1  12  306.47   34.70
   4   2 -12   83.69   15.80
  -4  -2  12   77.99   21.30
  -4  -2  12   82.29   17.60
   4   3 -12  205.48   21.00
  -4  -3  12  194.88   30.80
  -4  -3  12  186.08   22.90
   4   4 -12   61.19   14.90
  -4  -4  12   58.19   13.20
  -4  -4  12   57.89   22.20
   4   5 -12   24.00   12.30
  -4  -5  12   -7.20   12.90
  -4  -5  12    9.30    9.60
   3  -5 -12   -1.30    8.70
  -3   5  12   35.60   14.50
   3  -4 -12   23.30   12.30
  -3   4  12    8.50    9.40
   3  -3 -12  -11.00    6.70
  -3   3  12    7.80    7.60
   3  -2 -12  455.95   37.50
  -3   2  12  316.47   38.10
  -3   2  12  374.96   31.60
   3  -1 -12   44.30   12.30
  -3   1  12   39.00   15.10
  -3   1  12   48.10   12.80
   3   0 -12   -5.30    5.00
  -3   0  12    5.50    8.10
   3   1 -12   44.90    9.70
  -3  -1  12   16.10   10.40
  -3  -1  12   42.10   14.70
   3   2 -12  420.26   31.80
  -3  -2  12  369.66   35.90
  -3  -2  12  394.66   42.50
   3   3 -12   33.50    7.00
  -3  -3  12    0.70   11.50
  -3  -3  12   10.90    8.90
   3   4 -12   12.80    9.90
  -3  -4  12   33.40   12.10
  -3  -4  12   30.70   12.10
  -3  -5  12   13.80    8.50
  -3  -5  12    8.90    8.40
  -2   5  12  126.29   26.20
   2  -4 -12   18.10   11.10
  -2   4  12   37.10   13.10
   2  -3 -12  325.37   32.90
  -2   3  12  228.08   34.20
   2  -2 -12   45.00   14.00
  -2   2  12   37.20   13.10
  -2   2  12   42.00    9.90
   2  -1 -12  126.19   17.00
  -2   1  12  109.69   23.40
  -2   1  12  113.19   16.70
   2   0 -12   63.19   12.00
  -2   0  12   31.20   10.80
  -2   0  12   34.40   10.30
   2   1 -12  124.59   13.60
  -2  -1  12   83.59   21.60
  -2  -1  12   78.89   18.60
   2   2 -12   40.70    9.20
  -2  -2  12   38.70   12.80
  -2  -2  12   22.90   10.80
  -2  -3  12  322.97   30.70
  -2  -3  12  243.58   36.20
  -2  -4  12   21.90   10.90
  -2  -4  12   54.89   20.50
  -2  -5  12  234.18   28.30
  -2  -5  12  267.67   38.70
   1  -5 -12   13.40   13.90
  -1   5  12   -1.60   14.40
   1  -4 -12   42.20   14.80
  -1   4  12   19.30   11.30
   1  -3 -12  104.89   19.90
  -1   3  12   54.39   17.60
   1  -2 -12   67.49   16.00
  -1   2  12   58.49   11.80
  -1   2  12   55.89   15.90
   1  -1 -12   81.29   16.10
  -1   1  12   61.19   17.30
  -1   1  12   72.09   15.00
   1   0 -12    1.30    4.30
  -1   0  12    1.10    6.00
  -1   0  12    1.30    6.10
   1   1 -12   92.39   22.70
   1   1 -12   63.29    9.30
  -1  -1  12   58.19   18.00
  -1  -1  12   81.89   16.50
   1   2 -12   62.19    7.60
   1   2 -12   82.09   23.40
  -1  -2  12   69.69   18.10
  -1  -2  12   39.20   16.00
   1   3 -12  161.78   25.20
  -1  -3  12   65.59   21.00
  -1  -3  12  102.69   19.90
   1   4 -12   46.60   18.40
  -1  -4  12   46.80   18.00
  -1  -4  12   39.40   13.30
   1   5 -12   33.20   17.10
  -1  -5  12   24.00    9.70
  -1  -5  12    7.70   11.50
   0  -4 -12    6.60    9.30
   0   4  12   -5.10   12.60
   0  -3 -12  393.76   37.60
   0   3  12  313.97   39.00
   0  -2 -12   44.40   12.50
   0   2  12   41.40    8.80
   0   2  12   35.50   13.00
   0  -1 -12  324.77   27.00
   0   1  12  244.58   31.30
   0   1  12  245.38   27.20
   0   0 -12    4.30   10.20
   0   0 -12    6.90    5.80
   0   0  12   -0.10    9.10
   0   0  12    9.70    8.80
   0   1 -12  318.67   38.00
   0   1 -12  294.47   19.70
   0  -1  12  271.87   33.60
   0  -1  12  293.97   34.20
   0   2 -12   37.10   16.80
   0  -2  12   37.80   12.70
   0  -2  12   15.70    9.00
   0   3 -12  375.66   46.70
   0  -3  12  409.46   38.60
   0  -3  12  337.07   41.20
   0   4 -12    9.50   16.10
   0  -4  12   14.50   12.20
   0  -4  12   29.50   18.80
  -1  -4 -12  -13.30    8.70
   1   4  12    3.00    9.70
  -1  -3 -12   74.19   18.30
   1   3  12   55.79   17.10
  -1  -2 -12   29.40   11.50
   1   2  12   29.40   13.30
   1   2  12   32.80   10.20
  -1  -1 -12  239.18   24.20
  -1  -1 -12  265.37   30.60
   1   1  12  267.27   33.00
   1   1  12  207.98   25.80
  -1   0 -12  242.18   30.60
  -1   0 -12  204.58   16.80
   1   0  12  198.48   25.70
   1   0  12  144.09   24.00
  -1   1 -12  273.67   33.20
   1  -1  12  222.08   30.30
   1  -1  12  249.48   32.20
  -1   2 -12   33.50   13.70
   1  -2  12   15.80   12.80
   1  -2  12   39.70   11.50
  -1   3 -12   86.89   24.50
   1  -3  12   86.59   19.20
   1  -3  12   43.30   18.70
  -1   4 -12   -0.90   11.90
   1  -4  12  -21.10    9.30
   1  -4  12    9.50   12.20
  -2  -3 -12   84.99   20.90
   2   3  12   75.99   20.80
  -2  -2 -12   18.50    9.80
  -2  -2 -12   -2.30   10.40
   2   2  12   17.10   11.90
   2   2  12   22.40    8.90
  -2  -1 -12   39.60   12.00
  -2  -1 -12   56.09   17.10
   2   1  12   43.90   13.80
   2   1  12   36.50   14.10
  -2   0 -12  147.79   29.90
   2   0  12  181.58   25.90
  -2   1 -12   56.09   18.40
   2  -1  12   41.00   14.40
  -2   2 -12   25.40   11.20
   2  -2  12    3.90    6.40
  -2   3 -12   98.99   28.50
   2  -3  12   74.69   17.90
  -3  -2 -12  370.16   34.30
   3   2  12  301.37   39.20
  -3  -1 -12   23.30   12.10
   3   1  12   13.60   12.00
  -3   0 -12   97.09   24.40
   3   0  12  108.29   24.10
  -3   1 -12   -7.10   12.20
  -3   2 -12  390.06   51.19
   3  -2  12  414.66   40.60
  -4   0 -12   29.30   14.80
   4   0  12   -5.60    8.00
   9  -1 -13   35.30   12.50
  -9   1  13   41.20   23.20
  -9   1  13   38.20   13.40
   9   0 -13  217.28   28.80
  -9   0  13  199.18   25.50
  -9   0  13  229.28   44.80
   9   1 -13   36.00   12.60
  -9  -1  13   29.50   21.20
   8  -3 -13   44.40   13.20
  -8   3  13   32.40   18.20
  -8   3  13    6.40   17.40
   8  -2 -13   83.99   19.60
  -8   2  13   88.39   23.20
  -8   2  13   91.89   22.80
   8  -1 -13   24.70   11.30
  -8   1  13   26.80   16.40
  -8   1  13   16.30   13.70
   8   0 -13  103.69   21.70
  -8   0  13   55.69   18.20
  -8   0  13  119.69   17.80
   8   1 -13   -4.30    8.30
  -8  -1  13   43.10   11.90
  -8  -1  13    9.50    9.40
   8   2 -13   92.19   20.70
  -8  -2  13  129.29   32.00
   8   3 -13   12.00   12.10
  -8  -3  13   26.90   12.30
   7  -3 -13   97.79   21.50
  -7   3  13   86.09   25.10
  -7   3  13   55.99   20.80
   7  -2 -13   57.89   16.60
  -7   2  13   48.00   16.60
  -7   2  13   61.19   17.60
   7  -1 -13  186.98   25.40
  -7   1  13  205.38   28.90
  -7   1  13  183.38   26.70
   7   0 -13  123.59   18.40
  -7   0  13   67.99   19.20
  -7   0  13  127.29   27.20
   7   1 -13  149.59   23.00
  -7  -1  13  161.88   21.50
  -7  -1  13  148.79   31.00
   7   2 -13   90.39   18.90
  -7  -2  13   45.20   13.40
  -7  -2  13   29.80   19.10
   7   3 -13   67.89   17.90
  -7  -3  13   67.39   23.70
   6  -4 -13   22.70   11.60
  -6   4  13    7.80   12.40
   6  -3 -13  169.08   23.90
  -6   3  13  112.99   29.10
  -6   3  13   85.49   20.50
   6  -2 -13  222.08   27.60
  -6   2  13  137.49   27.40
  -6   2  13  169.98   33.10
   6  -1 -13  290.77   30.90
  -6   1  13  211.58   29.30
  -6   1  13  223.68   29.90
   6   0 -13  304.17   30.30
  -6   0  13  212.98   28.30
  -6   0  13  198.88   30.50
   6   1 -13  318.17   30.50
  -6  -1  13  218.88   27.20
  -6  -1  13  255.47   35.40
   6   2 -13  206.08   25.30
  -6  -2  13  230.88   24.90
  -6  -2  13  162.78   35.00
   6   3 -13  131.79   23.90
  -6  -3  13  117.69   17.40
  -6  -3  13  126.99   30.80
   6   4 -13   10.40   12.00
  -6  -4  13   38.20   14.20
   5  -4 -13    7.70   11.50
  -5   4  13    6.80   11.30
   5  -3 -13  123.79   23.10
  -5   3  13   87.49   22.80
  -5   3  13   49.70   16.60
   5  -2 -13   74.69   18.30
  -5   2  13   73.59   17.40
  -5   2  13   67.59   19.80
   5  -1 -13   31.80   12.70
  -5   1  13   35.20   11.60
   5   0 -13   29.60    8.80
  -5   0  13    6.20    9.40
  -5   0  13   13.40   13.10
   5   1 -13   30.60   10.90
  -5  -1  13   28.60   12.90
  -5  -1  13   34.60   15.10
   5   2 -13   68.79   14.40
  -5  -2  13   43.20   18.00
  -5  -2  13   66.89   16.40
   5   3 -13  112.79   16.40
  -5  -3  13   74.69   16.90
  -5  -3  13  100.69   26.70
   5   4 -13   -3.80    9.30
  -5  -4  13    9.00   12.50
   4  -4 -13   52.09   15.40
  -4   4  13    6.40    9.50
   4  -3 -13  110.69   22.80
  -4   3  13   87.59   23.40
   4  -2 -13   82.19   18.50
  -4   2  13   72.49   17.10
  -4   2  13   82.49   16.50
   4  -1 -13   85.29   18.00
  -4   1  13   76.29   15.50
  -4   1  13   52.49   17.80
   4   0 -13   33.60   11.60
  -4   0  13   36.80   14.10
  -4   0  13   20.10   11.90
   4   1 -13   86.39   16.10
  -4  -1  13   70.59   21.80
  -4  -1  13   81.99   19.70
  -4  -2  13   41.30   14.80
  -4  -2  13   34.30   16.10
   4   3 -13  104.69   15.70
  -4  -3  13   79.49   23.80
  -4  -3  13   85.69   17.80
   4   4 -13   26.50   12.50
  -4  -4  13   30.10   13.10
  -4  -4  13   13.30   16.40
   3  -4 -13   62.09   19.00
  -3   4  13   39.00   16.10
   3  -3 -13   18.90   11.30
  -3   3  13    1.10    9.60
   3  -2 -13  175.28   22.70
  -3   2  13  177.88   18.50
  -3   2  13  103.39   25.10
   3  -1 -13   75.89   16.50
  -3   1  13   48.40   14.50
  -3   1  13   31.60   13.60
   3   0 -13   55.69   12.90
  -3   0  13   35.20   12.70
  -3   0  13   20.80   12.00
   3   1 -13   49.80   11.90
  -3  -1  13   59.19   19.20
  -3  -1  13   59.59   15.90
   3   2 -13  165.78   18.90
  -3  -2  13  169.18   26.70
  -3  -2  13  172.28   23.20
   3   3 -13   15.10    8.90
  -3  -3  13   15.50   10.70
  -3  -3  13   15.90    9.40
  -3  -4  13   57.69   15.60
  -3  -4  13   45.20   18.10
   2  -4 -13   78.69   20.40
  -2   4  13   86.39   23.90
   2  -3 -13  182.18   25.50
  -2   3  13  209.78   27.60
   2  -2 -13  397.06   35.00
  -2   2  13  287.07   27.10
  -2   2  13  342.57   39.50
   2  -1 -13   36.70   11.70
  -2   1  13   25.10   11.40
  -2   1  13   20.60   10.20
   2   0 -13  286.97   26.20
  -2   0  13  282.97   32.90
  -2   0  13  252.17   31.00
   2   1 -13   29.00    7.80
  -2  -1  13   29.10   12.80
  -2  -1  13   20.60   10.60
   2   2 -13  346.37   26.10
  -2  -2  13  356.36   40.40
  -2  -2  13  289.87   34.50
  -2  -3  13  120.59   30.80
  -2  -3  13  153.08   27.20
  -2  -4  13   69.79   23.00
  -2  -4  13   91.99   19.50
   1  -4 -13  176.38   30.70
  -1   4  13  116.49   25.20
   1  -3 -13   15.40   10.40
   1  -2 -13  179.08   21.60
  -1   2  13  109.19   24.50
  -1   2  13  156.08   17.00
   1  -1 -13   61.09   13.40
  -1   1  13   26.60   13.30
  -1   1  13   47.00   15.00
   1   0 -13  215.58   19.80
  -1   0  13  152.78   24.90
  -1   0  13  172.38   30.90
   1   1 -13   37.20    7.60
  -1  -1  13   16.00   11.70
  -1  -1  13   45.80   16.40
   1   2 -13  130.89   29.30
  -1  -2  13  170.78   23.50
  -1  -2  13  166.08   26.10
   1   3 -13   12.90   14.30
  -1  -3  13   -7.80   10.00
  -1  -3  13   -9.50   10.00
   1   4 -13  134.89   30.10
  -1  -4  13  155.68   26.70
  -1  -4  13   97.39   24.90
   0  -4 -13   44.60   16.40
   0   4  13  -19.70   12.20
   0  -3 -13   60.89   15.40
   0   3  13   44.50   12.80
   0  -2 -13    7.40    6.60
   0   2  13    6.20    8.60
   0   2  13    4.70    8.10
   0  -1 -13  248.28   24.50
   0   1  13  253.47   31.30
   0   1  13  221.28   26.20
   0   0 -13   14.10   10.10
   0   0 -13   -2.30    5.80
   0   0  13    9.70    7.90
   0   0  13    5.20    8.20
   0   1 -13  240.88   35.60
   0  -1  13  201.88   31.00
   0  -1  13  242.48   29.60
   0  -2  13   17.10    7.70
   0  -2  13  -14.30    9.90
   0   3 -13   77.09   24.90
   0  -3  13   28.60   11.80
   0  -3  13   40.70   19.00
   0  -4  13   22.50   12.80
   0  -4  13   47.00   15.80
  -1  -3 -13  252.77   31.20
   1   3  13  169.18   35.00
  -1  -2 -13   10.40   10.60
   1   2  13    6.30    9.60
  -1  -1 -13  332.17   35.10
   1   1  13  245.18   29.40
   1   1  13  236.88   32.80
  -1   0 -13  272.67   35.20
   1   0  13  199.68   28.10
   1   0  13  211.48   28.90
  -1   1 -13  304.17   40.80
   1  -1  13  253.97   34.00
   1  -1  13  236.48   31.50
  -1   2 -13    0.50   13.40
   1  -2  13    7.10   12.30
   1  -2  13   19.00   10.60
  -1   3 -13  186.68   39.00
   1  -3  13  238.68   29.30
   1  -3  13  154.38   32.70
  -2  -2 -13   37.90   12.20
   2   2  13   16.70   10.90
  -2  -1 -13   54.09   18.00
   2   1  13   78.99   18.50
   2   1  13   67.89   15.10
  -2   0 -13   15.10   12.50
   2   0  13   10.10   11.50
   2   0  13   10.30    8.00
  -2   1 -13   23.20   20.80
   2  -1  13   35.00   16.50
   2  -1  13   77.79   16.80
  -2   2 -13   15.90   14.40
   2  -2  13    1.30   12.70
   2  -2  13  -15.90    9.00
   8  -1 -14  193.28   26.00
  -8   1  14  193.88   27.00
  -8   1  14  164.58   29.70
   8   0 -14   96.99   21.90
  -8   0  14   67.89   18.20
  -8   0  14   72.89   23.30
   8   1 -14  202.88   27.40
  -8  -1  14  155.48   35.40
  -8  -1  14  149.19   21.40
   7  -2 -14   67.39   17.50
  -7   2  14   75.39   21.00
  -7   2  14   33.60   17.50
   7  -1 -14    0.30    8.80
  -7   1  14   13.30   14.00
  -7   1  14   15.00   12.70
   7   0 -14  140.49   25.10
  -7   0  14   66.39   17.60
  -7   0  14   87.99   24.80
   7   1 -14   30.80    9.60
  -7  -1  14   24.50   11.50
  -7  -1  14    8.60   13.60
   7   2 -14   64.19   17.50
  -7  -2  14   48.70   17.10
  -7  -2  14   12.20   17.90
   6  -3 -14   27.10   11.70
  -6   3  14   43.00   15.30
   6  -2 -14  -16.20    7.50
  -6   2  14   -7.30   12.50
   6  -1 -14   25.30   10.30
  -6   1  14    3.40   13.10
  -6   1  14   35.00   12.00
   6   0 -14   40.70   11.30
  -6   0  14   34.30   16.00
  -6   0  14   23.50   13.40
   6   1 -14    8.90    9.70
  -6  -1  14   23.30   13.00
  -6  -1  14    7.50   10.10
   6   2 -14    2.10    7.80
  -6  -2  14    8.50   11.70
  -6  -2  14   -1.20    8.30
   6   3 -14   28.10   13.50
  -6  -3  14    7.40   15.00
   5  -3 -14   33.20   10.30
  -5   3  14   20.70   16.80
   5  -2 -14   45.90   14.30
  -5   2  14   36.10   13.30
  -5   2  14    4.90   11.70
   5  -1 -14  185.28   24.10
  -5   1  14  167.88   31.80
  -5   1  14  149.39   23.10
   5   0 -14  390.76   35.50
  -5   0  14  274.37   34.40
  -5   0  14  315.87   37.40
   5   1 -14  185.08   23.10
  -5  -1  14  168.38   29.10
  -5  -1  14  174.18   26.50
   5   2 -14   43.00   12.00
  -5  -2  14   51.79   14.20
  -5  -2  14   32.00   17.10
   5   3 -14   14.30   10.10
  -5  -3  14    5.30   16.20
  -5  -3  14   27.20   10.80
   4  -3 -14  111.79   22.60
  -4   3  14   94.89   22.70
   4  -2 -14    6.70    9.00
  -4   2  14   33.50   11.20
  -4   2  14   14.10    8.30
   4  -1 -14  175.08   22.60
  -4   1  14  129.39   27.50
  -4   1  14  136.19   25.30
   4   0 -14  581.74   43.50
  -4   0  14  386.36   45.30
  -4   0  14  524.45   47.20
   4   1 -14  177.68   19.50
  -4  -1  14  157.88   32.20
  -4  -1  14  143.49   27.10
   4   2 -14   16.90   11.00
  -4  -2  14    6.40   11.30
  -4  -2  14  -15.30    7.00
   4   3 -14  119.39   20.10
  -4  -3  14   88.69   27.00
  -4  -3  14  120.99   21.60
   3  -3 -14  226.88   29.20
  -3   3  14  171.18   35.70
   3  -2 -14    3.60   10.00
  -3   2  14    4.90   10.50
   3  -1 -14   73.69   14.20
  -3   1  14   40.60   17.30
  -3   1  14   47.80   16.10
   3   0 -14   23.70    7.90
  -3   0  14   -2.10   10.10
  -3   0  14    1.50   10.10
   3   1 -14   65.79   13.90
  -3  -1  14   31.70   13.50
  -3  -1  14   67.79   21.30
   3   2 -14   -5.00    7.80
  -3  -2  14    6.40   10.70
  -3  -2  14  -10.90    8.40
  -3  -3  14  264.57   38.50
  -3  -3  14  236.08   29.70
   2  -3 -14   57.59   16.40
   2  -2 -14  230.98   27.20
  -2   2  14  169.58   34.30
   2  -1 -14   45.20   12.30
  -2   1  14    1.70    9.70
  -2   1  14   19.50   14.30
   2   0 -14   92.79   16.20
  -2   0  14  135.19   25.10
  -2   0  14   75.29   21.80
   2   1 -14   31.60    9.90
  -2  -1  14   37.10   17.50
  -2  -1  14   16.60   10.10
  -2  -2  14  233.28   33.70
  -2  -2  14  161.48   25.10
  -2  -3  14   20.20   13.20
  -2  -3  14   40.10   16.50
   1  -3 -14   33.40   17.00
  -1   3  14   35.80   14.10
   1  -2 -14   60.29   17.70
  -1   2  14   44.10   15.50
   1  -1 -14   33.90   13.30
  -1   1  14   19.50   11.50
  -1   1  14   38.80   12.70
   1   0 -14  468.95   35.50
  -1   0  14  421.96   42.00
  -1   0  14  441.86   45.90
  -1  -1  14   58.69   22.00
  -1  -1  14   67.29   20.70
  -1  -2  14   40.90   14.60
  -1  -2  14   42.40   15.20
  -1  -3  14   36.50   12.30
  -1  -3  14   47.80   20.80
   0  -2 -14   17.10   12.40
   0  -1 -14   17.10    9.50
   0   1  14   21.40   10.50
   0   1  14   -3.30   13.10
   0   0  14    7.70   10.20
   0   0  14   27.50   11.60
   0   1 -14   20.50   14.40
   0  -1  14   17.40   10.30
   0  -1  14    3.10   11.00
   0   2 -14   66.59   22.10
   0  -2  14   32.30   19.40
   0  -2  14   49.40   16.00
   1   1  14   35.80   14.40
   1   1  14   14.70   11.10
  -1   0 -14   84.09   26.70
   1   0  14   90.39   22.30
   1   0  14   76.29   20.10
  -1   1 -14   51.59   20.60
   1  -1  14   28.10   16.30
   1  -1  14   58.19   14.50
   7  -1 -15   29.40   14.10
  -7   1  15   63.69   17.80
  -7   1  15   12.40   12.00
   7   0 -15   17.20   13.00
  -7   0  15    1.20   16.00
  -7   0  15  -12.80   13.60
   7   1 -15    0.10   11.00
  -7  -1  15   -4.30    8.80
  -7  -1  15   12.20   17.70
   6  -2 -15   45.10   17.20
  -6   2  15   40.20   16.40
  -6   2  15   34.90   18.10
   6  -1 -15   55.89   17.60
  -6   1  15   33.90   18.30
  -6   1  15   71.99   19.40
  -6   0  15   44.00   15.50
  -6   0  15   47.60   19.30
   6   1 -15   61.79   14.50
  -6  -1  15   65.29   19.20
  -6  -1  15   30.50   16.30
   6   2 -15   30.20   12.80
  -6  -2  15   21.90   13.60
  -6  -2  15   23.40   18.50
   5  -2 -15  235.98   30.40
  -5   2  15  248.98   42.80
   5  -1 -15   11.60   11.60
  -5   1  15   32.40   14.50
  -5   1  15   16.70   15.40
   5   0 -15  496.25   42.40
  -5   0  15  341.77   41.10
  -5   0  15  451.25   45.50
   5   1 -15   12.80    9.50
  -5  -1  15    6.10   12.30
  -5  -1  15   -7.50   11.00
   5   2 -15  237.08   26.90
  -5  -2  15  244.98   34.80
  -5  -2  15  162.68   30.60
   4  -2 -15   58.79   17.20
  -4   2  15   28.10   14.00
   4  -1 -15  128.89   23.10
  -4   1  15   89.99   23.10
  -4   1  15   69.09   21.40
   4   0 -15   60.79   16.20
  -4   0  15   48.90   15.70
  -4   0  15   26.70   15.20
   4   1 -15  129.99   17.80
  -4  -1  15   78.99   23.50
  -4  -1  15   97.29   22.40
  -4  -2  15   27.20   12.20
  -4  -2  15   18.50   16.80
   3  -2 -15   28.60    9.40
  -3   2  15   71.09   20.20
   3  -1 -15   61.39   16.70
  -3   1  15   60.29   20.00
  -3   1  15   41.70   16.50
   3   0 -15   21.70   10.60
  -3   0  15   15.00   12.40
  -3   0  15   10.50   14.70
   3   1 -15   77.09   14.50
  -3  -1  15   41.20   16.70
  -3  -1  15   23.60   15.10
  -3  -2  15   49.10   17.10
  -3  -2  15    7.80   14.10
   2  -2 -15  146.49   26.30
  -2   2  15  114.99   27.20
   2  -1 -15  178.48   22.50
  -2   1  15  175.18   25.70
  -2   1  15  105.79   22.10
   2   0 -15   20.90    8.20
  -2   0  15  -14.40    8.60
  -2   0  15  -19.10   10.60
  -2  -1  15  175.88   25.50
  -2  -1  15  106.19   24.10
  -2  -2  15  117.19   29.50
  -2  -2  15  114.29   27.00
   1  -1 -15  177.88   19.80
  -1   1  15  116.99   26.20
  -1   0  15   37.80   16.70
  -1   0  15   80.59   20.10
  -1  -1  15   74.69   19.90
  -1  -1  15   41.60   19.90
   0   0   0    0.00    0.00

_computing_structure_solution     'SHELXT 2014/5 (Sheldrick, 2014)'
;
_shelx_hkl_checksum              40886
loop_
_space_group_symop_operation_xyz
'x, y, z'
'-x, y+1/2, -z'
loop_
_atom_site_label
_atom_site_type_symbol
_atom_site_fract_x
_atom_site_fract_y
_atom_site_fract_z
_atom_site_U_iso_or_equiv
_atom_site_adp_type
_atom_site_occupancy
_atom_site_site_symmetry_order
_atom_site_calc_flag
_atom_site_refinement_flags_posn
_atom_site_refinement_flags_adp
_atom_site_refinement_flags_occupancy
_atom_site_disorder_assembly
_atom_site_disorder_group
S1 S 0.42107(10) 0.60981(15) 0.10366(7) 0.0219(2) Uani 1 1 d . . . . .
N1 N 0.1719(3) 0.0768(5) 0.0799(3) 0.0213(7) Uani 1 1 d . . . . .
H1 H 0.150254 -0.055268 0.058059 0.026 Uiso 1 1 calc R U . . .
C8 C 0.2972(4) 0.3965(6) 0.1147(3) 0.0172(7) Uani 1 1 d . . . . .
C1 C 0.1584(4) 0.4055(5) 0.1541(3) 0.0162(7) Uani 1 1 d . . . . .
C2 C 0.0934(4) 0.5680(5) 0.2055(3) 0.0199(7) Uani 1 1 d . . . . .
H2 H 0.144047 0.701889 0.223358 0.024 Uiso 1 1 calc R U . . .
C7 C 0.2993(4) 0.1917(6) 0.0704(3) 0.0211(7) Uani 1 1 d . . . . .
H7 H 0.376038 0.140173 0.038823 0.025 Uiso 1 1 calc R U . . .
C9 C 0.5461(4) 0.6696(6) 0.2522(3) 0.0241(8) Uani 1 1 d . . . . .
C6 C 0.0822(4) 0.2035(5) 0.1300(3) 0.0179(7) Uani 1 1 d . . . . .
C10 C 0.6279(5) 0.8675(7) 0.2691(4) 0.0275(8) Uani 1 1 d . . . . .
H10 H 0.611836 0.961087 0.205120 0.033 Uiso 1 1 calc R U . . .
C5 C -0.0603(4) 0.1585(6) 0.1540(3) 0.0226(8) Uani 1 1 d . . . . .
H5 H -0.110347 0.024088 0.137531 0.027 Uiso 1 1 calc R U . . .
C4 C -0.1233(5) 0.3225(6) 0.2031(3) 0.0250(8) Uani 1 1 d . . . . .
H4 H -0.218620 0.297731 0.219376 0.030 Uiso 1 1 calc R U . . .
C3 C -0.0484(4) 0.5255(6) 0.2292(3) 0.0237(8) Uani 1 1 d . . . . .
H3 H -0.094108 0.632166 0.262734 0.028 Uiso 1 1 calc R U . . .
C15 C 0.5668(5) 0.5307(7) 0.3466(4) 0.0279(8) Uani 1 1 d . . . . .
H15 H 0.511237 0.399955 0.334722 0.033 Uiso 1 1 calc R U . . .
C12 C 0.7547(5) 0.7865(7) 0.4749(4) 0.0337(10) Uani 1 1 d . . . . .
H12 H 0.826139 0.825611 0.549890 0.040 Uiso 1 1 calc R U . . .
C13 C 0.6729(5) 0.5886(9) 0.4615(3) 0.0334(9) Uani 1 1 d . . . . .
C11 C 0.7326(6) 0.9229(7) 0.3815(4) 0.0343(10) Uani 1 1 d . . . . .
H11 H 0.788030 1.053735 0.393232 0.041 Uiso 1 1 calc R U . . .
C14 C 0.6951(7) 0.4416(9) 0.5636(4) 0.0483(13) Uani 1 1 d . . . . .
H14A H 0.629197 0.315117 0.536613 0.072 Uiso 1 1 calc R U . . .
H14B H 0.807649 0.400484 0.597197 0.072 Uiso 1 1 calc R U . . .
H14C H 0.662754 0.513659 0.623195 0.072 Uiso 1 1 calc R U . . .
loop_
_atom_site_aniso_label
_atom_site_aniso_U_11
_atom_site_aniso_U_22
_atom_site_aniso_U_33
_atom_site_aniso_U_23
_atom_site_aniso_U_13
_atom_site_aniso_U_12
S1 0.0194(4) 0.0235(4) 0.0230(4) -0.0027(4) 0.0073(3) -0.0040(4)
N1 0.0251(14) 0.0160(16) 0.0216(14) -0.0035(12) 0.0064(11) -0.0007(12)
C8 0.0164(16) 0.0175(16) 0.0167(16) -0.0012(13) 0.0044(13) -0.0021(13)
C1 0.0170(15) 0.0170(16) 0.0129(15) 0.0013(13) 0.0031(13) 0.0008(13)
C2 0.0229(16) 0.0154(18) 0.0217(16) 0.0007(13) 0.0079(13) 0.0019(13)
C7 0.0222(17) 0.0210(17) 0.0204(17) -0.0007(15) 0.0078(14) 0.0032(14)
C9 0.0141(15) 0.029(2) 0.0275(18) -0.0080(15) 0.0051(14) 0.0019(14)
C6 0.0189(16) 0.0166(15) 0.0155(16) 0.0028(13) 0.0024(13) 0.0031(14)
C10 0.0253(19) 0.027(2) 0.030(2) -0.0023(17) 0.0094(16) -0.0021(16)
C5 0.0211(16) 0.022(2) 0.0230(18) 0.0031(14) 0.0056(13) -0.0032(13)
C4 0.0212(18) 0.029(2) 0.0248(19) 0.0068(16) 0.0085(15) 0.0014(16)
C3 0.0233(18) 0.0261(19) 0.0231(18) 0.0027(15) 0.0099(15) 0.0066(15)
C15 0.0252(18) 0.0292(19) 0.027(2) -0.0066(16) 0.0055(15) 0.0010(16)
C12 0.030(2) 0.031(2) 0.032(2) -0.0115(19) 0.0014(18) -0.0040(17)
C13 0.034(2) 0.039(2) 0.0252(18) -0.002(2) 0.0069(15) 0.002(2)
C11 0.036(2) 0.028(2) 0.037(2) -0.0062(18) 0.0101(19) -0.0058(18)
C14 0.059(3) 0.045(3) 0.033(2) 0.004(2) 0.006(2) -0.016(3)
loop_
_atom_type_symbol
_atom_type_description
_atom_type_scat_dispersion_real
_atom_type_scat_dispersion_imag
_atom_type_scat_source
C C 0.0033 0.0016 'International Tables Vol C Tables 4.2.6.8 and 6.1.1.4'
H H 0.0000 0.0000 'International Tables Vol C Tables 4.2.6.8 and 6.1.1.4'
N N 0.0061 0.0033 'International Tables Vol C Tables 4.2.6.8 and 6.1.1.4'
O O 0.0106 0.0060 'International Tables Vol C Tables 4.2.6.8 and 6.1.1.4'
Cl Cl 0.1484 0.1585 'International Tables Vol C Tables 4.2.6.8 and 6.1.1.4'
S S 0.1246 0.1234 'International Tables Vol C Tables 4.2.6.8 and 6.1.1.4'
loop_
_geom_angle_atom_site_label_1
_geom_angle_atom_site_label_2
_geom_angle_atom_site_label_3
_geom_angle
_geom_angle_site_symmetry_1
_geom_angle_site_symmetry_3
_geom_angle_publ_flag
C8 S1 C9 105.63(18) . . ?
C7 N1 C6 109.9(3) . . ?
C7 N1 H1 125.1 . . ?
C6 N1 H1 125.1 . . ?
C7 C8 C1 106.5(3) . . ?
C7 C8 S1 125.5(3) . . ?
C1 C8 S1 127.4(3) . . ?
C2 C1 C6 119.9(3) . . ?
C2 C1 C8 133.1(3) . . ?
C6 C1 C8 107.0(3) . . ?
C3 C2 C1 118.6(3) . . ?
C3 C2 H2 120.7 . . ?
C1 C2 H2 120.7 . . ?
N1 C7 C8 109.4(3) . . ?
N1 C7 H7 125.3 . . ?
C8 C7 H7 125.3 . . ?
C15 C9 C10 120.8(4) . . ?
C15 C9 S1 123.2(3) . . ?
C10 C9 S1 115.9(3) . . ?
N1 C6 C5 130.7(3) . . ?
N1 C6 C1 107.3(3) . . ?
C5 C6 C1 122.0(3) . . ?
C11 C10 C9 119.6(4) . . ?
C11 C10 H10 120.2 . . ?
C9 C10 H10 120.2 . . ?
C4 C5 C6 116.9(3) . . ?
C4 C5 H5 121.5 . . ?
C6 C5 H5 121.5 . . ?
C5 C4 C3 122.2(4) . . ?
C5 C4 H4 118.9 . . ?
C3 C4 H4 118.9 . . ?
C2 C3 C4 120.4(4) . . ?
C2 C3 H3 119.8 . . ?
C4 C3 H3 119.8 . . ?
C9 C15 C13 119.4(4) . . ?
C9 C15 H15 120.3 . . ?
C13 C15 H15 120.3 . . ?
C11 C12 C13 121.9(4) . . ?
C11 C12 H12 119.0 . . ?
C13 C12 H12 119.0 . . ?
C12 C13 C15 118.2(4) . . ?
C12 C13 C14 121.9(4) . . ?
C15 C13 C14 119.9(4) . . ?
C12 C11 C10 120.0(4) . . ?
C12 C11 H11 120.0 . . ?
C10 C11 H11 120.0 . . ?
C13 C14 H14A 109.5 . . ?
C13 C14 H14B 109.5 . . ?
H14A C14 H14B 109.5 . . ?
C13 C14 H14C 109.5 . . ?
H14A C14 H14C 109.5 . . ?
H14B C14 H14C 109.5 . . ?
loop_
_geom_bond_atom_site_label_1
_geom_bond_atom_site_label_2
_geom_bond_distance
_geom_bond_site_symmetry_2
_geom_bond_publ_flag
S1 C8 1.741(3) . ?
S1 C9 1.772(4) . ?
N1 C7 1.359(5) . ?
N1 C6 1.380(5) . ?
N1 H1 0.8600 . ?
C8 C7 1.377(5) . ?
C8 C1 1.443(5) . ?
C1 C2 1.397(5) . ?
C1 C6 1.401(5) . ?
C2 C3 1.387(5) . ?
C2 H2 0.9300 . ?
C7 H7 0.9300 . ?
C9 C15 1.379(6) . ?
C9 C10 1.398(5) . ?
C6 C5 1.397(5) . ?
C10 C11 1.382(6) . ?
C10 H10 0.9300 . ?
C5 C4 1.378(5) . ?
C5 H5 0.9300 . ?
C4 C3 1.403(5) . ?
C4 H4 0.9300 . ?
C3 H3 0.9300 . ?
C15 C13 1.411(5) . ?
C15 H15 0.9300 . ?
C12 C11 1.357(7) . ?
C12 C13 1.401(7) . ?
C12 H12 0.9300 . ?
C13 C14 1.479(6) . ?
C11 H11 0.9300 . ?
C14 H14A 0.9600 . ?
C14 H14B 0.9600 . ?
C14 H14C 0.9600 . ?
