#------------------------------------------------------------------------------
#$Date: 2020-10-04 05:42:44 +0300 (Sun, 04 Oct 2020) $
#$Revision: 256987 $
#$URL: file:///home/coder/svn-repositories/cod/cif/4/51/78/4517829.cif $
#------------------------------------------------------------------------------
#
# This file is available in the Crystallography Open Database (COD),
# http://www.crystallography.net/
#
# All data on this site have been placed in the public domain by the
# contributors.
#
data_4517829
loop_
_publ_author_name
'Mao, Ying'
'Wang, Zehua'
'Wang, Gang'
'Zhao, Ran'
'Kan, Linglong'
'Pan, Xiaoguang'
'Liu, Lei'
_publ_section_title
;
 Redox Deracemization of Tertiary Stereocenters Adjacent to an
 Electron-Withdrawing Group
;
_journal_name_full               'ACS Catalysis'
_journal_page_first              7785
_journal_page_last               7791
_journal_paper_doi               10.1021/acscatal.0c02486
_journal_year                    2020
_chemical_absolute_configuration syn
_chemical_formula_moiety         'C15 H13 N O'
_chemical_formula_sum            'C15 H13 N O'
_chemical_formula_weight         223.26
_space_group_crystal_system      monoclinic
_space_group_IT_number           4
_space_group_name_Hall           'P 2yb'
_space_group_name_H-M_alt        'P 1 21 1'
_atom_sites_solution_hydrogens   geom
_atom_sites_solution_primary     dual
_audit_creation_date             2019-04-16
_audit_creation_method
;
Olex2 1.2
(compiled 2018.05.29 svn.r3508 for OlexSys, GUI svn.r5506)
;
_cell_angle_alpha                90
_cell_angle_beta                 92.652(3)
_cell_angle_gamma                90
_cell_formula_units_Z            2
_cell_length_a                   7.6989(2)
_cell_length_b                   5.6085(2)
_cell_length_c                   13.5280(4)
_cell_measurement_reflns_used    5588
_cell_measurement_temperature    172.99(10)
_cell_measurement_theta_max      76.4260
_cell_measurement_theta_min      3.2230
_cell_volume                     583.50(3)
_computing_cell_refinement       'CrysAlisPro 1.171.40.25a (Rigaku OD, 2018)'
_computing_data_collection       'CrysAlisPro 1.171.40.25a (Rigaku OD, 2018)'
_computing_data_reduction        'CrysAlisPro 1.171.40.25a (Rigaku OD, 2018)'
_computing_molecular_graphics    'Olex2 (Dolomanov et al., 2009)'
_computing_publication_material  'Olex2 (Dolomanov et al., 2009)'
_computing_structure_refinement  'ShelXL (Sheldrick, 2015)'
_computing_structure_solution    'ShelXT (Sheldrick, 2015)'
_diffrn_ambient_environment      N~2~
_diffrn_ambient_temperature      172.99(10)
_diffrn_detector                 'CCD plate'
_diffrn_detector_area_resol_mean 10.0000
_diffrn_detector_type            HyPix
_diffrn_measured_fraction_theta_full 0.983
_diffrn_measured_fraction_theta_max 0.999
_diffrn_measurement_details
;
List of Runs (angles in degrees, time in seconds):

  # Type    Start    End  Width  t~exp~   \w     \q     \k     \f   Frames
--------------------------------------------------------------------------
  1  \w    -90.00 -63.00   1.00    0.10    --  -48.45 -15.00  -3.00   27
  2  \w      5.00  30.00   1.00    0.10    --   48.45 -15.00  -3.00   25
  3  \w     59.00  97.00   1.00    0.10    --   48.45  15.00 166.00   38
  4  \w    -87.00 -55.00   1.00    0.40    --  -86.25  15.00 166.00   32
  5  \w   -118.00 -90.00   1.00    0.40    --  -86.25 -15.00  -3.00   28
  6  \w     60.00 102.00   1.00    0.40    --  106.49 -15.00  -3.00   42
  7  \w    142.00 168.00   1.00    0.40    --  106.49  15.00 166.00   26
  8  \w     95.00 139.00   1.00    0.40    --  106.49  15.00 166.00   44
  9  \w    -55.00 -26.00   1.00    0.10    --  -48.45 -77.00 -90.00   29
 10  \w    -66.00 -12.00   1.00    0.10    --  -48.45 125.00-120.00   54
 11  \w    -80.00 -36.00   1.00    0.10    --  -48.45 -19.00-120.00   44
 12  \w    -60.00 -28.00   1.00    0.10    --  -48.45 -77.00 -30.00   32
 13  \w    -70.00 -33.00   1.00    0.10    --  -48.45 -77.00-180.00   37
 14  \w    -53.00 -28.00   1.00    0.10    --  -48.45 -77.00-120.00   25
 15  \w    -42.00 -16.00   1.00    0.10    --  -48.45  15.00 166.00   26
 16  \w    -59.00 -34.00   1.00    0.10    --  -48.45 -77.00-150.00   25
 17  \w     42.00  67.00   1.00    0.10    --   48.45  37.00 -90.00   25
 18  \w    -77.00 -15.00   1.00    0.40    --  -86.25  61.00-120.00   62
 19  \w    -87.00 -62.00   1.00    0.40    --  -86.25 -79.00 -55.92   25
 20  \w   -117.00 -74.00   1.00    0.40    --  -86.25 -61.00 -60.00   43
 21  \w    -47.00 -13.00   1.00    0.40    --  -86.25  77.00  30.00   34
 22  \w    -88.00 -62.00   1.00    0.40    --  -86.25 -81.00 -71.32   26
 23  \w   -155.00 -73.00   1.00    0.40    --  -86.25 -61.00 -90.00   82
 24  \w    -96.00 -65.00   1.00    0.40    --  -86.25 -81.00-100.72   31
 25  \w    -95.00 -70.00   1.00    0.40    --  -86.25 -59.00 -47.05   25
 26  \w   -123.00 -65.00   1.00    0.40    --  -86.25 -72.00-136.57   58
 27  \w    -89.00 -64.00   1.00    0.40    --  -86.25 -75.00 -55.24   25
 28  \w    -88.00 -63.00   1.00    0.40    --  -86.25 -77.00 -30.00   25
 29  \w    -88.00 -63.00   1.00    0.40    --  -86.25 -77.00 -90.00   25
 30  \w    -97.00 -72.00   1.00    0.40    --  -86.25 -55.00 -48.69   25
 31  \w   -116.00 -65.00   1.00    0.40    --  -86.25 -72.00-149.76   51
 32  \w    -89.00 -64.00   1.00    0.40    --  -86.25 -77.00-120.00   25
 33  \w    -89.00 -64.00   1.00    0.40    --  -86.25 -77.00-150.00   25
 34  \w   -113.00 -63.00   1.00    0.40    --  -86.25 -80.00 -93.54   50
 35  \w    110.00 135.00   1.00    0.40    --  106.49  45.00 -30.00   25
 36  \w     50.00  99.00   1.00    0.40    --  106.49 -94.00-180.00   49
 37  \w     37.00 107.00   1.00    0.40    --  106.49 -94.00 120.00   70
 38  \w     35.00 113.00   1.00    0.40    --  106.49 -61.00  60.00   78
 39  \w    101.00 126.00   1.00    0.40    --  106.49  61.00-120.00   25
 40  \w    110.00 171.00   1.00    0.40    --  106.49  77.00 -30.00   61
 41  \w     54.00 108.00   1.00    0.40    --  106.49 -94.00   0.00   54
;
_diffrn_measurement_device       'four-circle diffractometer'
_diffrn_measurement_device_type  'XtaLAB Synergy, Dualflex, HyPix'
_diffrn_measurement_method       '\w scans'
_diffrn_measurement_specimen_support 'Mitegen 50um'
_diffrn_orient_matrix_type
'CrysAlisPro convention (1999,Acta A55,543-557)'
_diffrn_orient_matrix_UB_11      0.0356842000
_diffrn_orient_matrix_UB_12      -0.0079829000
_diffrn_orient_matrix_UB_13      -0.1110179000
_diffrn_orient_matrix_UB_21      -0.1933152000
_diffrn_orient_matrix_UB_22      -0.0556023000
_diffrn_orient_matrix_UB_23      -0.0244699000
_diffrn_orient_matrix_UB_31      -0.0389156000
_diffrn_orient_matrix_UB_32      0.2688278000
_diffrn_orient_matrix_UB_33      -0.0082955000
_diffrn_radiation_collimation    0.3
_diffrn_radiation_monochromator  mirror
_diffrn_radiation_probe          x-ray
_diffrn_radiation_type           CuK\a
_diffrn_radiation_wavelength     1.54184
_diffrn_reflns_av_R_equivalents  0.0338
_diffrn_reflns_av_unetI/netI     0.0283
_diffrn_reflns_Laue_measured_fraction_full 0.983
_diffrn_reflns_Laue_measured_fraction_max 0.999
_diffrn_reflns_limit_h_max       9
_diffrn_reflns_limit_h_min       -9
_diffrn_reflns_limit_k_max       6
_diffrn_reflns_limit_k_min       -6
_diffrn_reflns_limit_l_max       16
_diffrn_reflns_limit_l_min       -15
_diffrn_reflns_number            6647
_diffrn_reflns_point_group_measured_fraction_full 0.961
_diffrn_reflns_point_group_measured_fraction_max 0.977
_diffrn_reflns_theta_full        67.684
_diffrn_reflns_theta_max         67.075
_diffrn_reflns_theta_min         3.270
_diffrn_source                   'micro-focus sealed X-ray tube'
_diffrn_source_current           24.0
_diffrn_source_power             1.2
_diffrn_source_target            Mo
_diffrn_source_type              'PhotonJet (Cu) X-ray Source'
_diffrn_source_voltage           50.0
_exptl_absorpt_coefficient_mu    0.629
_exptl_absorpt_correction_T_max  1.00000
_exptl_absorpt_correction_T_min  0.75556
_exptl_absorpt_correction_type   multi-scan
_exptl_absorpt_process_details
;
CrysAlisPro 1.171.40.25a (Rigaku Oxford Diffraction, 2018)
Empirical absorption correction using spherical harmonics,
 implemented in SCALE3 ABSPACK scaling algorithm.
;
_exptl_crystal_colour            'clear light colourless'
_exptl_crystal_colour_lustre     clear
_exptl_crystal_colour_modifier   light
_exptl_crystal_colour_primary    colourless
_exptl_crystal_density_diffrn    1.271
_exptl_crystal_description       block
_exptl_crystal_F_000             236
_exptl_crystal_size_max          0.05
_exptl_crystal_size_mid          0.04
_exptl_crystal_size_min          0.03
_refine_diff_density_max         0.120
_refine_diff_density_min         -0.138
_refine_diff_density_rms         0.035
_refine_ls_abs_structure_details
;
 Flack x determined using 837 quotients [(I+)-(I-)]/[(I+)+(I-)]
 (Parsons and Flack (2004), Acta Cryst. A60, s61).
;
_refine_ls_abs_structure_Flack   -0.02(14)
_refine_ls_extinction_method     none
_refine_ls_goodness_of_fit_ref   1.070
_refine_ls_hydrogen_treatment    constr
_refine_ls_matrix_type           full
_refine_ls_number_parameters     156
_refine_ls_number_reflns         2043
_refine_ls_number_restraints     1
_refine_ls_restrained_S_all      1.069
_refine_ls_R_factor_all          0.0320
_refine_ls_R_factor_gt           0.0307
_refine_ls_shift/su_max          0.000
_refine_ls_shift/su_mean         0.000
_refine_ls_structure_factor_coef Fsqd
_refine_ls_weighting_details
'w=1/[\s^2^(Fo^2^)+(0.0475P)^2^+0.0743P] where P=(Fo^2^+2Fc^2^)/3'
_refine_ls_weighting_scheme      calc
_refine_ls_wR_factor_gt          0.0827
_refine_ls_wR_factor_ref         0.0843
_reflns_Friedel_coverage         0.758
_reflns_Friedel_fraction_full    0.932
_reflns_Friedel_fraction_max     0.948
_reflns_number_gt                1975
_reflns_number_total             2043
_reflns_threshold_expression     'I > 2\s(I)'
_cod_data_source_file            cs0c02486_si_002.cif
_cod_data_source_block           190415c
_cod_depositor_comments          'Adding full bibliography for 4517829.cif.'
_cod_database_code               4517829
_shelxl_version_number           2013-4
_chemical_oxdiff_formula         CNO
_shelx_space_group_comment
;
The symmetry employed for this shelxl refinement is uniquely defined
by the following loop, which should always be used as a source of
symmetry information in preference to the above space-group names.
They are only intended as comments.
;
_shelx_estimated_absorpt_t_max   0.981
_shelx_estimated_absorpt_t_min   0.969
_reflns_odcompleteness_completeness 99.91
_reflns_odcompleteness_iscentric 1
_reflns_odcompleteness_theta     66.97
_olex2_refinement_description
;
1. Fixed Uiso
 At 1.2 times of:
  All C(H) groups
 At 1.5 times of:
  All C(H,H,H) groups, All O(H) groups
2.a Ternary CH refined with riding coordinates:
 C8(H8)
2.b Aromatic/amide H refined with riding coordinates:
 C3(H3), C4(H4), C6(H6), C7(H7), C11(H11), C12(H12), C14(H14), C15(H15)
2.c Idealised Me refined as rotating group:
 C1(H1A,H1B,H1C)
2.d Idealised tetrahedral OH refined as rotating group:
 O1(H1)
;
_shelx_res_file
;
TITL 190415c_a.res in P2(1)
REM Old TITL 190415c in P2(1)/m
REM SHELXT solution in P2(1)
REM R1 0.110, Rweak 0.021, Alpha 0.003, Orientation as input
REM Flack x = 0.183 ( 0.126 ) from Parsons' quotients
REM Formula found by SHELXT: C7 N O
CELL 1.54184 7.6989 5.6085 13.528 90 92.652 90
ZERR 2 0.0002 0.0002 0.0004 0 0.003 0
LATT -1
SYMM -X,0.5+Y,-Z
SFAC C H N O
UNIT 30 26 2 2

L.S. 50
PLAN  0
SIZE 0.05 0.03 0.04
TEMP -100(2)
LIST 6
fmap 2
acta
SHEL 999 0.837
OMIT 4 6 1
OMIT 5 3 11
OMIT 6 4 7
REM <olex2.extras>
REM <HklSrc "%.\\190415c.hkl">
REM </olex2.extras>

WGHT    0.047500    0.074300
FVAR      15.77369
O1    4    0.956190    0.639261    0.953676    11.00000    0.02468    0.05852 =
         0.03046    0.00421   -0.00431   -0.00536
AFIX 147
H1    2    0.977092    0.534738    0.997082    11.00000   -1.50000
AFIX   0
N1    3    0.117541    0.156368    0.830418    11.00000    0.04124    0.04492 =
         0.03201   -0.00007    0.00072   -0.01252
C1    1    0.224496    0.739279    0.357821    11.00000    0.04243    0.06241 =
         0.03314    0.00356   -0.00357   -0.00283
AFIX 137
H1A   2    0.301243    0.630956    0.323407    11.00000   -1.50000
H1B   2    0.259031    0.904555    0.345795    11.00000   -1.50000
H1C   2    0.104141    0.715154    0.333056    11.00000   -1.50000
AFIX   0
C2    1    0.238472    0.688701    0.467518    11.00000    0.02418    0.04419 =
         0.03011   -0.00004   -0.00360   -0.00538
C3    1    0.319539    0.485767    0.506090    11.00000    0.03499    0.04362 =
         0.03163   -0.00678    0.00235    0.00391
AFIX  43
H3    2    0.370220    0.375571    0.462545    11.00000   -1.20000
AFIX   0
C4    1    0.327935    0.440797    0.607281    11.00000    0.03106    0.03464 =
         0.03695   -0.00051   -0.00083    0.00675
AFIX  43
H4    2    0.384174    0.300806    0.632018    11.00000   -1.20000
AFIX   0
C5    1    0.254930    0.598556    0.672247    11.00000    0.02179    0.03146 =
         0.02920   -0.00088   -0.00200   -0.00353
C6    1    0.171639    0.799761    0.633961    11.00000    0.04159    0.03250 =
         0.03561   -0.00535   -0.00119    0.00727
AFIX  43
H6    2    0.119002    0.908454    0.677357    11.00000   -1.20000
AFIX   0
C7    1    0.164338    0.844050    0.533035    11.00000    0.04169    0.03552 =
         0.03709    0.00226   -0.00655    0.00649
AFIX  43
H7    2    0.107406    0.983595    0.508364    11.00000   -1.20000
AFIX   0
C8    1    0.266553    0.558491    0.784607    11.00000    0.02658    0.02991 =
         0.02844   -0.00367    0.00097    0.00016
AFIX  13
H8    2    0.199522    0.689776    0.815240    11.00000   -1.20000
AFIX   0
C9    1    0.182174    0.333148    0.809848    11.00000    0.02735    0.04165 =
         0.02359   -0.00272   -0.00129   -0.00334
C10   1    0.452514    0.568966    0.830239    11.00000    0.02645    0.02872 =
         0.02365   -0.00318    0.00061    0.00051
C11   1    0.518814    0.398125    0.895922    11.00000    0.03030    0.03056 =
         0.03186    0.00420    0.00064   -0.00295
AFIX  43
H11   2    0.448669    0.266036    0.912579    11.00000   -1.20000
AFIX   0
C12   1    0.686649    0.417963    0.937637    11.00000    0.03081    0.03807 =
         0.03073    0.00673   -0.00227    0.00080
AFIX  43
H12   2    0.730712    0.299566    0.982325    11.00000   -1.20000
AFIX   0
C13   1    0.789345    0.609943    0.914076    11.00000    0.02455    0.04180 =
         0.02159   -0.00487    0.00071   -0.00395
C14   1    0.725637    0.781667    0.849235    11.00000    0.03362    0.03627 =
         0.03609    0.00388   -0.00285   -0.01007
AFIX  43
H14   2    0.796127    0.913698    0.832943    11.00000   -1.20000
AFIX   0
C15   1    0.557879    0.760886    0.807791    11.00000    0.03475    0.03283 =
         0.03607    0.00778   -0.00571   -0.00285
AFIX  43
H15   2    0.514361    0.880025    0.763289    11.00000   -1.20000
AFIX   0
HKLF 4

REM  190415c_a.res in P2(1)
REM R1 =  0.0307 for    1975 Fo > 4sig(Fo)  and  0.0320 for all    2043 data
REM    156 parameters refined using      1 restraints

END

WGHT      0.0475      0.0744

REM Highest difference peak  0.120,  deepest hole -0.138,  1-sigma level  0.035
Q1    1   0.1731  0.5828  0.3034  11.00000  0.05    0.12
Q2    1  -0.0577  0.1404  0.8603  11.00000  0.05    0.11
Q3    1   0.5159  0.0975  0.8978  11.00000  0.05    0.10
Q4    1   0.7626  1.0001  0.7775  11.00000  0.05    0.10
Q5    1   0.0380  0.8134  0.7036  11.00000  0.05    0.10
Q6    1   0.4054  0.4844  0.3362  11.00000  0.05    0.10
Q7    1   0.4966  0.4361  0.8389  11.00000  0.05    0.10
Q8    1   0.2841  0.4522  0.3008  11.00000  0.05    0.09
Q9    1   0.8784  1.0133  0.8327  11.00000  0.05    0.09
Q10   1   0.5388  0.4669  0.3733  11.00000  0.05    0.09
Q11   1   0.7767  0.4009  1.0376  11.00000  0.05    0.09
Q12   1   0.3416  0.8246  0.3233  11.00000  0.05    0.09
Q13   1   0.4205  0.2284  1.0184  11.00000  0.05    0.09
Q14   1   0.1173  0.8444  0.3425  11.00000  0.05    0.09
Q15   1   0.3228  0.2271  0.4596  11.00000  0.05    0.09
Q16   1   0.4326  0.7314  0.2963  11.00000  0.05    0.09
Q17   1   0.8877  0.9888  0.7844  11.00000  0.05    0.09
Q18   1   0.1998  0.2485  0.6759  11.00000  0.05    0.08
Q19   1   0.7106 -0.0411  1.0027  11.00000  0.05    0.08
Q20   1   0.4734  0.7273  0.8590  11.00000  0.05    0.08
;
_shelx_res_checksum              75622
_shelx_hkl_file
;
   0   0   1 23814.8 736.794   1
   0   0  -2 20674.2 692.723  13
   0   0   2 21768.2 764.666   1
   0   0  -3 310952. 8404.20  13
   0   0   3 305824. 8526.44   1
   0   0  -4 102526. 2989.93  13
   0   0   4 100614. 3138.98   1
   0   0   5 11320.8 555.735  12
   0   0   5 11686.9 691.758   1
   0   0  -5 10731.4 566.109  13
   0   0  -6 239618. 6709.64  13
   0   0   6 240877. 6968.16   1
   0   0   6 233133. 6638.45  12
   0   0  -6 238052. 6345.74  33
   0   0  -6 229610. 6349.28  26
   0   0  -7 270148. 7136.70  23
   0   0   7 278609. 7910.83   1
   0   0   7 250783. 7447.68  12
   0   0  -7 261342. 7128.53  33
   0   0  -7 269224. 7135.83  26
   0   0  -7 254014. 7129.85  31
   0   0   8 45142.6 1436.23   5
   0   0  -8 41886.1 1343.20  23
   0   0  -8 43689.7 1347.97  33
   0   0   8 43984.6 1649.94  12
   0   0  -8 44522.9 1357.38  26
   0   0  -8 45756.2 1359.12  31
   0   0   9 38249.9 1598.04  12
   0   0   9 41098.4 1419.93   5
   0   0  -9 43896.8 1354.14  26
   0   0   9 45570.1 1528.12  35
   0   0  -9 42391.3 1337.36  31
   0   0  10 1021.47 167.972   5
   0   0 -10 1176.74 148.439  26
   0   0 -10 999.536 134.427  31
   0   0  10 1004.38 184.837  35
   0   0 -11 12999.2 562.084  21
   0   0  11 13523.3 678.974   5
   0   0 -11 13837.7 591.226  31
   0   0 -11 12582.6 584.007  26
   0   0 -11 12753.2 655.692   7
   0   0 -12 216.129 102.900  31
   0   0 -12 198.652 99.7811  26
   0   0  12 95.0795 103.729  40
   0   0  12 250.246 123.738   5
   0   0 -12 181.032 92.0177   7
   0   0  13 56.4366 91.6827  40
   0   0 -13 65.2067 97.3029   7
   0   0  13-16.7431 111.733   5
   0   0 -13-11.8606 79.1508  26
   0   0 -13-23.2877 81.4968  31
   0   0 -14 5546.83 396.316   7
   0   0  14 5102.75 406.389  40
   0   0  14 5788.28 404.328   5
   0   0  15 26.8872 80.2840  40
   0   0 -15 202.010 98.2285   7
   0   0  16 1421.48 157.196  40
   0   1   0-24.2292 78.3737  10
   0  -1   0 583.680 67.0223  11
   0   1   1 269816. 7314.41   1
   0   1   1 283898. 7554.25  10
   0  -1   1 271306. 7311.23   1
   0   1   2 145035. 4073.34   1
   0   1   2 143044. 4171.25  10
   0  -1  -2 146831. 4067.56   9
   0   1  -2 143057. 4203.93  10
   0  -1   2 148873. 4075.05   1
   0  -1  -2 143106. 4148.44  14
   0  -1   3 95782.1 2799.39   1
   0   1  -3 90185.2 2804.09  10
   0  -1  -3 100392. 2815.27  14
   0  -1  -3 86840.2 2822.76  16
   0   1   3 90875.9 2790.03   1
   0  -1  -4 82632.9 2591.33  16
   0   1  -4 78565.4 2428.32  10
   0  -1   4 80356.2 2530.96   1
   0   1   4 74836.1 2506.84   1
   0   1  -5 17576.8 744.904  10
   0  -1   5 19518.7 948.623   1
   0  -1  -5 19413.2 922.961  13
   0   1   5 18055.4 923.369   1
   0  -1  -5 18638.1 923.248  16
   0  -1  -6 100996. 2776.16  26
   0  -1   6 107867. 3372.03   1
   0  -1  -6 99240.0 2757.08  32
   0  -1  -6 93470.1 2777.16  31
   0   1  -6 99108.2 2773.14  31
   0  -1  -6 105438. 3261.69  13
   0   1   6 99460.5 3328.63   1
   0   1   6 100149. 2798.19  18
   0  -1  -7 11262.4 460.295  31
   0  -1  -7 11561.1 439.953  32
   0   1  -7 12770.2 471.940  31
   0  -1  -7 11359.7 451.110  26
   0  -1  -7 10766.1 725.262  13
   0   1   7 11299.2 467.591  18
   0  -1  -8 4548.10 482.398  13
   0   1   8 4063.86 277.736   5
   0   1  -8 4404.65 257.305  31
   0  -1   8 3366.71 257.964   5
   0  -1  -8 3832.64 239.237  31
   0  -1  -8 3658.86 230.580  26
   0  -1   8 4229.76 493.629  12
   0   1  -8 4294.77 261.188  21
   0   1   8 3786.11 244.407  18
   0   1   9 31204.1 1080.96  18
   0   1   9 33128.8 1166.56   5
   0   1   9 31293.7 1208.17  40
   0  -1   9 32450.9 1613.05  12
   0  -1   9 32750.7 1198.68  35
   0  -1  -9 33263.8 1565.93  13
   0   1  -9 32108.6 1103.22  21
   0   1  -9 34169.6 1104.73  31
   0  -1  -9 32514.0 1083.59  26
   0  -1   9 32616.3 1161.39   5
   0  -1 -10 3888.32 272.923  26
   0  -1  10 3903.43 316.275   5
   0   1  10 4179.12 325.034   5
   0   1 -10 3968.64 281.723  21
   0  -1 -10 4419.38 330.414   7
   0  -1  10 3791.03 329.219  35
   0   1  10 3836.11 346.602  40
   0  -1  10 3928.46 517.954  12
   0   1  10 3911.44 266.284  18
   0   1 -10 3539.88 303.485   7
   0   1 -10 3671.25 269.894  31
   0   1  11 1070.95 187.514   5
   0  -1  11 679.015 162.995  35
   0   1 -11 966.505 150.947  21
   0  -1 -11 831.463 135.284  26
   0   1  11 704.649 170.321  40
   0   1  11 730.155 120.923  18
   0  -1  11 945.156 170.607   5
   0   1 -11 754.190 157.286   7
   0  -1 -11 839.084 169.720   7
   0   1 -12 4285.05 355.770   7
   0   1  12 4168.22 355.549   5
   0  -1 -12 4069.73 297.714  26
   0   1  12 4049.35 390.196  40
   0   1 -12 3813.03 287.202  21
   0  -1  12 4209.46 353.300   5
   0  -1 -12 4153.67 349.992   7
   0  -1  13 1717.44 232.833  40
   0   1 -13 2405.88 260.558   7
   0  -1 -13 2284.72 220.341  26
   0   1 -13 2039.85 200.390  21
   0  -1  13 2265.53 258.396   5
   0   1  13 2386.04 261.714   5
   0   1  13 2552.77 303.073  40
   0  -1 -13 1986.08 240.897   7
   0  -1 -14 1545.81 176.094  26
   0  -1  14 1510.24 211.916  40
   0   1  14 1465.04 224.028  40
   0   1 -14 1566.39 202.459   7
   0  -1 -14 1508.25 197.268   7
   0   1  15 993.854 168.231  40
   0  -1  15 761.547 138.255  40
   0   1  16 1162.01 140.606  40
   0  -1  16 1179.34 121.965  40
   0  -2   0 38210.9 1198.03  11
   0   2   0 39622.9 1610.84  10
   0   2   1 55082.2 2066.29  10
   0  -2  -2 30259.4 1191.41   9
   0   2   2 30941.1 1375.67  10
   0   2  -2 31405.5 1402.88  10
   0  -2  -3 2633.47 130.073  12
   0  -2  -3 3608.02 303.177   9
   0  -2  -3 3660.51 360.242  14
   0   2  -3 3136.47 383.000  10
   0   2  -4 37141.5 1160.96  21
   0  -2  -4 39874.0 1551.82  14
   0   2  -4 39939.5 1655.01  10
   0  -2  -4 36557.1 1596.54  16
   0   2  -5 22035.5 1154.69  10
   0   2   5 22727.9 802.068  18
   0  -2  -5 24678.4 1252.01  16
   0   2  -5 24337.0 804.212  21
   0  -2  -6 46656.9 1350.70  24
   0  -2   6 44084.4 1387.48   5
   0  -2  -6 48642.3 1397.78  32
   0  -2  -6 47898.2 2006.69  13
   0   2   6 42822.4 1388.76   5
   0  -2  -6 48445.2 2024.75  16
   0   2   6 44213.8 1434.25  18
   0   2  -6 48787.2 1439.72  21
   0  -2  -7 996.302 266.406  16
   0  -2  -7 642.260 226.007  13
   0  -2  -7 617.159 99.4602  26
   0   2  -7 683.493 115.906  21
   0   2   7 764.400 131.727  38
   0   2   7 614.425 110.295  18
   0  -2   7 588.860 105.099   5
   0   2   7 613.902 143.266  40
   0  -2  -7 521.119 76.2958  24
   0   2   7 407.891 89.6197   5
   0  -2  -7 494.681 85.8761  32
   0   2  -8 30804.6 1056.35   7
   0  -2  -8 30233.7 1049.52   7
   0   2  -8 30426.6 1056.79  21
   0  -2   8 29404.6 1035.74   5
   0   2   8 29185.2 1171.19  40
   0   2   8 29587.9 1058.60  18
   0  -2  -8 29129.7 1012.83  26
   0  -2  -8 30068.8 1036.05  31
   0  -2  -8 30971.5 997.441  32
   0  -2  -8 24786.1 1487.03  13
   0  -2   8 31323.9 1685.48  12
   0   2   8 30099.4 1039.54   5
   0   2   9 398.856 109.739   5
   0   2  -9 382.553 114.156   7
   0  -2  -9 389.800 108.116   7
   0  -2  -9 375.695 108.828  33
   0   2   9 445.291 140.962  40
   0  -2  -9 441.447 99.6674  26
   0  -2   9 349.696 107.764   5
   0   2   9 197.842 95.5907  18
   0  -2  -9 330.326 101.843  31
   0  -2   9 549.218 258.267  12
   0  -2  -9 83.7652 318.820  13
   0   2  -9 434.886 116.214  21
   0  -2  10 22236.7 1519.69  12
   0   2  10 27193.5 1001.34  18
   0  -2  10 25735.6 997.287   5
   0   2  10 24234.1 1102.60  40
   0   2 -10 26020.0 1008.78   7
   0  -2 -10 26891.1 1537.68  13
   0   2  10 25877.7 1002.58   5
   0  -2 -10 25633.5 952.406  26
   0   2 -10 27321.9 1007.27  21
   0  -2 -10 26410.9 966.912  33
   0  -2 -10 27636.1 1029.10   7
   0  -2 -10 27646.2 981.213  31
   0  -2  11 30388.5 1733.51  12
   0  -2 -11 27153.1 1030.23  33
   0   2  11 29244.9 1064.50  18
   0   2 -11 28093.5 1065.18  21
   0  -2  11 29071.8 1094.85   5
   0  -2 -11 33135.0 1729.00  13
   0   2  11 29660.6 1108.61   5
   0   2 -11 29838.3 1109.33   7
   0  -2 -11 28322.1 1038.21  26
   0   2  11 27922.6 1208.71  40
   0  -2 -11 28457.7 1049.32  31
   0  -2 -11 28869.8 1102.15   7
   0  -2 -12 14137.0 627.324  26
   0   2 -12 14323.7 675.462   7
   0  -2 -12 13909.4 672.021   7
   0  -2  12 13852.1 663.818   5
   0   2  12 14004.2 676.013   5
   0   2 -12 14443.2 650.602  21
   0  -2 -12 15497.1 652.474  31
   0   2  12 15023.4 633.110  18
   0   2  12 14848.8 785.459  40
   0  -2 -13 525.286 109.506  26
   0  -2 -13 478.951 116.764  31
   0   2  13 467.538 153.441  40
   0  -2 -13 468.103 120.820   7
   0   2 -13 603.425 141.852   7
   0   2 -13 545.601 120.409  21
   0   2  13 484.587 100.368  18
   0  -2  14 394.479 110.317  40
   0  -2 -14 492.853 99.1893  26
   0   2  14 503.787 141.592  40
   0  -2 -14 657.631 117.485  31
   0  -2 -15 1981.35 165.676  31
   0   2  15 2082.26 210.237  40
   0  -2 -15 2094.22 163.063  26
   0   2  16 3847.04 225.356  40
   0  -3   0 12.5999 43.4230  17
   0   3   0 42.2220 126.010  10
   0   3   1 18080.8 630.553  18
   0  -3  -1 18219.5 861.515  17
   0   3  -2 26679.8 1521.04  10
   0  -3  -2 23827.0 1218.16   9
   0   3   2 25749.3 854.858  18
   0  -3  -3 9717.77 672.872   9
   0   3  -3 11040.5 923.154  10
   0   3   3 9419.29 426.389  18
   0  -3  -3 10000.6 764.799  14
   0   3  -4 81947.1 2394.81  21
   0   3   4 79371.8 2377.06  18
   0  -3  -4 82426.8 2962.94  14
   0   3   5 7441.11 436.836  37
   0  -3  -5 8260.92 777.639  16
   0   3   5 7894.53 404.215  18
   0   3   5 7696.55 477.013  40
   0  -3  -6 10959.1 441.920  24
   0   3   6 11195.8 561.578  37
   0   3   6 11180.7 547.839  38
   0  -3  -6 11589.5 961.526  16
   0   3  -6 11537.4 530.373  21
   0   3   6 10999.1 621.428  40
   0   3   7 19897.8 839.430  37
   0   3   7 21317.5 861.904  38
   0   3  -7 20553.4 822.500  21
   0  -3  -7 20848.8 758.429  32
   0   3   7 20150.1 820.009  18
   0  -3  -7 17815.8 1307.86  13
   0  -3  -7 21731.8 793.074  26
   0  -3  -7 20972.7 1379.80  16
   0  -3   8 12317.4 1125.11  12
   0  -3  -8 12263.2 518.379  32
   0   3  -8 12319.3 595.505  21
   0   3   8 12513.0 602.321  37
   0  -3  -8 12413.5 1060.45  13
   0  -3  -8 11452.1 537.351  26
   0   3   8 11881.9 587.134  18
   0  -3  -9 20890.4 806.065  26
   0  -3   9 19761.4 1477.70  12
   0  -3  -9 20754.7 770.671  32
   0   3  -9 20729.6 869.994  21
   0  -3  -9 21679.9 836.005  33
   0  -3  -9 21725.0 844.253  31
   0  -3  -9 17553.0 1340.02  13
   0   3   9 21080.3 869.224  18
   0   3 -10 14603.6 702.846  21
   0  -3 -10 15959.4 679.936  31
   0  -3 -10 15852.5 675.095  33
   0   3  10 15597.6 818.344  40
   0   3  10 15162.1 718.620  36
   0  -3 -10 16219.6 1248.73  13
   0  -3  10 15891.9 1307.72  12
   0   3  10 15390.0 710.616  18
   0  -3 -10 15788.6 657.749  26
   0  -3 -11 3094.56 245.384  26
   0  -3 -11 2856.17 248.351  31
   0   3  11 2891.51 321.908  40
   0  -3 -11 3781.11 293.827  33
   0   3  11 3679.34 292.550  18
   0   3  12 5262.16 412.411  40
   0  -3 -12 5404.76 317.783  26
   0  -3 -12 5295.49 325.086  31
   0   3  12 5909.32 349.058  18
   0  -3 -12 4687.63 321.748  33
   0   3  13 947.046 128.743  18
   0   3  13 1049.45 180.829  40
   0  -3 -13 966.692 126.778  26
   0  -3 -13 1038.66 135.876  31
   0   3 -13 916.112 139.034  41
   0  -3 -14 2542.42 180.449  31
   0   3 -14 2068.28 156.758  41
   0   3  14 2422.35 226.781  40
   0  -3 -14 2227.21 162.990  26
   0   3  15 3892.03 239.381  40
   0   4   0 18671.3 789.683  37
   0  -4   0 17210.7 1051.63  12
   0   4   0 17660.1 713.916  41
   0   4   0 18664.9 776.133  36
   0  -4  -1 23726.3 1393.45   9
   0   4   1 23247.4 930.322  36
   0   4   1 22689.3 939.852  37
   0   4  -1 23382.5 910.006  36
   0   4  -1 23509.6 922.767  37
   0   4   1 23076.5 806.010  18
   0   4  -1 23748.1 893.238  41
   0   4  -2 33851.5 1268.21  41
   0  -4  -2 40604.4 1855.23   9
   0   4   2 38497.2 1364.81  37
   0   4   2 37928.5 1213.33  18
   0   4  -2 36557.9 1279.92  37
   0   4  -2 36548.6 1276.86  36
   0  -4  -2 40288.2 1979.16  14
   0   4   3 5510.11 397.190  36
   0   4  -3 5927.63 362.732  36
   0   4   3 5651.06 334.742  18
   0  -4  -3 6323.12 697.876  14
   0  -4  -4 350.325 200.470  14
   0   4   4 767.507 134.174  18
   0  -4  -4 566.578 243.740  16
   0   4   4 833.653 163.282  36
   0   4   4 696.913 156.560  37
   0  -4  -4 646.971 206.219  17
   0   4   4 747.486 174.435  40
   0  -4  -5 12112.2 962.653  17
   0   4   5 14412.7 725.199  37
   0   4   5 15249.8 737.176  36
   0  -4   5 12188.3 1113.01  12
   0   4   5 15299.0 658.050  18
   0   4   5 15713.4 793.181  40
   0  -4  -5 13260.7 1133.99  16
   0   4   5 15311.0 670.278  38
   0   4   6 20208.6 832.781  38
   0  -4  -6 18360.9 1252.38  17
   0   4   6 18938.2 872.689  36
   0   4   6 19274.9 800.560  18
   0  -4   6 17958.6 1403.02  12
   0   4   6 19472.3 873.729  37
   0  -4  -6 20225.4 1429.71  16
   0   4   6 19740.5 952.833  40
   0  -4  -7 96.6486 131.871  17
   0  -4  -7 395.203 93.3229  32
   0   4   7 376.830 121.658  36
   0   4   7 206.819 111.606  37
   0   4   7 276.592 144.530  40
   0  -4  -7 501.409 244.858  16
   0  -4   7 308.760 238.044  12
   0  -4  -7 346.189 104.062  26
   0   4   7 170.572 101.388  18
   0  -4  -8 16362.8 670.381  26
   0  -4   8 16695.3 1374.80  12
   0  -4  -8 16817.7 1318.99  13
   0  -4  -8 13808.1 1155.85  17
   0   4   8 17959.7 782.359  37
   0   4   8 16697.4 863.221  40
   0  -4  -8 15346.8 623.050  32
   0   4   8 16145.7 766.024  36
   0   4   9 4307.76 395.270  40
   0  -4  -9 3824.06 291.691  33
   0  -4  -9 3540.67 237.237  32
   0  -4  -9 4325.07 280.061  26
   0   4   9 3627.72 314.192  36
   0  -4  -9 3967.93 291.668  31
   0   4  10 366.967 113.538  36
   0  -4 -10 379.647 103.357  31
   0  -4 -10 429.848 137.458  33
   0   4  10 255.305 99.6415  18
   0  -4 -10 158.105 76.0366  26
   0  -4 -11 2317.84 212.062  33
   0   4  11 1758.72 178.654  36
   0  -4 -11 1793.79 176.420  31
   0   4  11 1985.57 197.704  18
   0  -4 -11 1903.22 167.465  26
   0   4 -11 1981.46 220.502  41
   0  -4 -12 131.009 99.2054  33
   0   4 -12 656.465 122.186  41
   0  -4 -12 460.050 90.2478  31
   0   4  12 340.642 90.5294  18
   0  -4 -12 351.772 75.7436  26
   0   4 -13 874.262 109.994  41
   0   4  13 1178.53 147.852  40
   0   5   0-99.6978 125.137  36
   0  -5   0-56.1313 152.927  14
   0   5   0-15.2473 87.1385  37
   0   5   0 20.6031 74.2588  41
   0   5   1 39311.8 1388.19  36
   0   5   1 38433.7 1406.17  37
   0   5  -1 39587.6 1373.15  37
   0  -5  -1 36890.9 2024.27  14
   0  -5   1 33325.6 1937.87   9
   0   5  -1 38238.0 1349.51  36
   0   5  -1 36734.0 1292.53  41
   0   5  -2 22496.9 903.584  37
   0   5   2 23539.7 984.943  37
   0  -5  -2 21623.4 1453.71  14
   0   5  -2 24043.4 924.490  36
   0   5  -2 21481.0 887.274  41
   0  -5  -3 38482.2 2114.47  16
   0   5   3 38051.3 1265.77  18
   0   5   3 42791.8 1483.08  37
   0   5  -3 37382.6 1368.46  41
   0   5  -4 29273.5 1104.21  41
   0   5   4 28679.3 1136.18  36
   0  -5  -4 30776.0 1820.02  16
   0   5   4 26744.1 980.203  18
   0   5   5 12363.5 668.923  36
   0   5  -5 13406.2 670.576  41
   0   5   5 14362.8 608.192  18
   0   5   5 14956.9 730.516  37
   0   5   6 317.925 123.965  36
   0  -5  -6 323.336 95.1392  26
   0   5  -6 182.077 121.459  41
   0   5   6 262.938 134.526  37
   0   5   6 297.085 98.8008  18
   0   5   7 6159.60 394.325  36
   0   5   7 5439.96 340.694  18
   0  -5  -7 5058.69 301.121  26
   0   5  -7 5958.56 401.925  41
   0  -5  -8 3419.20 247.829  33
   0   5  -8 3728.26 301.801  41
   0   5   8 3253.17 270.159  36
   0  -5  -8 3679.03 251.059  31
   0   5   8 3700.73 263.708  18
   0  -5  -8 3176.57 217.580  26
   0  -5  -9 5760.29 317.658  33
   0   5   9 6607.58 349.516  18
   0   5   9 6430.18 354.137  36
   0  -5  -9 6018.16 316.573  31
   0  -5 -10 2264.35 176.359  33
   0   5 -10 2489.85 205.830  41
   0   5  10 2016.16 172.356  18
   0  -5 -10 2102.87 160.499  31
   0   5  10 2280.16 172.078  36
   0   5 -11 892.864 115.891  41
   0   6   0 9919.71 501.857  36
   0   6   1 6078.50 374.175  36
   0   6  -2-14.3776 23.1755  41
   0   6   2 4569.79 301.099  36
   0   6  -3 4845.00 281.839  41
   0   6  -4 9634.81 452.684  41
   0   6   4 11231.2 518.524  36
   0   6  -5 136.832 75.2766  41
   0   6   5 224.873 90.0523  36
   0   6  -6 2241.62 185.522  41
   0  -6  -6 1910.35 152.443  33
   0   6   6 2401.39 192.824  36
   0   6  -7 789.264 111.699  41
   0   6   7 814.615 107.459  36
   0   6  -8 998.742 105.873  41
   0   6   8 1039.89 100.635  36
  -1   0  16 668.553 127.258  40
   1   0 -15 4015.52 298.205   7
  -1   0  15 4057.70 335.878  40
  -1   0  14 605.078 165.069  40
   1   0 -14 687.159 144.648   7
  -1   0  13 5121.17 427.726  40
   1   0 -13 4880.62 383.410   7
  -1   0  12 5496.26 415.062   5
   1   0 -12 5584.53 354.380  26
   1   0 -12 5098.94 348.413  31
   1   0 -12 5498.36 406.884   7
   1   0 -11 20694.7 822.060  26
   1   0 -11 21606.2 928.218   8
  -1   0  11 20808.3 979.881  35
  -1   0  11 22321.0 933.363   5
   1   0 -11 21265.1 822.708  31
   1   0 -10 40449.2 1403.22   8
  -1   0  10 37359.0 1453.54  35
   1   0 -10 39093.9 1287.08  26
   1   0 -10 38575.2 1282.17  31
  -1   0  10 39716.3 1388.27   5
  -1   0   9 657.953 151.449  35
   1   0  -9 811.737 145.554   8
   1   0  -9 684.675 109.276  26
   1   0  -9 741.733 113.705  31
  -1   0   9 640.798 131.461   5
   1   0  -8 4166.13 243.953  26
   1   0  -8 4099.95 244.769  31
  -1   0   8 4001.23 278.469   5
   1   0  -7 5089.27 260.224  26
   1   0  -7 5215.85 264.331  31
  -1   0   7 6134.88 322.248   5
  -1   0   7 5207.58 432.473  12
  -1   0   6 5681.49 293.058   5
   1   0  -6 5406.85 251.945  31
   1   0  -6 5462.98 250.697  33
  -1   0   6 5752.28 418.531  12
   1   0  -6 5468.24 249.158  26
  -1   0   5 71441.8 2259.25  12
   1   0  -5 70165.2 2319.97  13
  -1   0   4 376787. 10321.7  12
  -1   0   3 482362. 13061.1  12
   1   0  -2 300727. 8181.73  13
  -1   0   1 96883.5 2682.25   9
  -1   0   0 4057.28 182.384  14
  -1   0  -1 67375.7 2026.54  15
  -1   0  -2 32951.4 1078.18  17
  -1   0  -2 32907.9 1028.16  16
  -1   0  -2 30145.1 1137.82  15
  -1   0  -3 8750.99 372.616  13
  -1   0  -4 89722.1 2615.03  13
  -1   0  -5 33049.8 1151.78  13
  -1   0  -6 57520.7 1684.65  33
  -1   0  -6 59779.8 1787.23   4
  -1   0  -6 58544.4 1694.76  31
  -1   0  -6 57995.7 1686.76  34
   1   0   6 61039.6 2295.90   1
  -1   0  -6 61272.6 1705.03  26
  -1   0  -6 60095.8 1718.13  23
  -1   0  -6 57623.7 1919.92  13
  -1   0  -7 1376.78 125.330  31
  -1   0  -7 1655.90 137.466  26
   1   0   7 1425.80 307.899   1
  -1   0  -7 1573.34 138.982  23
  -1   0  -7 1514.48 126.617  34
  -1   0  -7 1386.67 128.296  33
  -1   0  -7 1454.82 162.072   4
  -1   0  -8 5631.56 287.691  33
   1   0   8 5501.79 456.049  12
   1   0   8 5861.37 654.645   1
  -1   0  -8 5822.22 293.415  31
  -1   0  -8 5756.83 307.664  23
  -1   0  -8 5657.02 295.376  26
  -1   0  -9 17588.4 662.774  23
  -1   0  -9 15644.0 622.328  31
  -1   0  -9 16379.3 636.972  26
  -1   0  -9 16655.6 716.807   7
   1   0   9 14997.3 1188.75   1
   1   0  10 17503.1 798.292  40
  -1   0 -10 18079.5 702.352  23
  -1   0 -10 17012.5 1113.31  17
  -1   0 -10 17252.1 674.264  31
  -1   0 -10 16236.6 675.713  26
  -1   0 -10 16280.0 753.418   7
  -1   0 -11 10361.1 494.663  31
  -1   0 -11 9671.91 858.490  17
  -1   0 -11 10538.1 579.082   7
   1   0  11 9884.56 571.108   5
   1   0  11 10022.4 590.290  40
  -1   0 -12 3216.96 313.223   7
   1   0  12 2992.74 317.074  40
  -1   0 -12 3046.09 254.651  21
   1   0  12 3012.67 307.692   5
  -1   0 -12 3405.56 266.050  31
  -1   0 -13 5461.21 332.308  21
   1   0  13 5715.03 420.239  40
   1   0  13 5461.09 410.937   5
  -1   0 -13 5480.69 346.886  31
  -1   0 -13 5017.49 392.020   7
   1   0  14 468.000 135.013   5
   1   0  14 402.691 118.098  40
   1   0  15 3250.65 253.745  40
   1   0  15 3868.77 284.618   5
  -1   1  16 2216.69 204.917  40
  -1  -1  16 2138.04 190.177  40
  -1  -1  15 1103.49 172.381  40
  -1   1  15 1287.95 200.524  40
   1   1 -15 835.317 138.371   7
   1  -1 -15 717.678 134.599   7
   1  -1 -14 2708.61 227.571  31
  -1   1  14 2477.35 296.877  40
   1   1 -14 2394.27 248.773   7
  -1  -1  14 3061.48 303.395  40
   1  -1 -14 2687.65 254.124   7
   1  -1 -13 12772.7 571.185  26
   1  -1 -13 11674.0 620.687   7
  -1   1  13 11710.6 699.675  40
   1   1 -13 12657.6 643.670   7
   1  -1 -13 11775.1 562.021  31
   1  -1 -12 17706.4 730.129  26
   1  -1 -12 16878.3 798.336   7
   1   1 -12 18922.0 841.531   7
  -1   1  12 17255.3 887.441  40
  -1  -1  12 16843.9 851.959  35
   1  -1 -12 19090.0 754.892  31
   1  -1 -11 15180.9 640.574  31
  -1   1  11 15562.3 731.977   5
  -1  -1  11 15814.8 776.512  35
  -1   1  11 14643.3 768.819  40
   1  -1 -11 14990.4 635.788  26
  -1  -1  11 15033.2 727.048   5
   1   1 -11 13384.3 599.480  21
  -1   1  10 42078.3 1450.66   5
   1  -1 -10 42885.0 1353.56  26
  -1   1  10 38430.1 1487.36  40
   1   1 -10 40335.6 1331.02  21
   1  -1 -10 43242.3 1465.13   8
   1   1 -10 39784.6 1443.56   8
  -1  -1  10 38799.5 1478.54  35
  -1   1  10 41894.3 1325.31  18
  -1  -1  10 40141.2 1438.60   5
  -1  -1  10 41646.1 1946.48  12
   1  -1 -10 42420.4 1355.62  33
   1  -1 -10 41966.3 1355.18  31
   1   1  -9 73313.8 2155.14   8
   1  -1  -9 73449.8 2705.21  13
  -1  -1   9 65561.0 2165.79  35
   1  -1  -9 64336.2 2007.24  26
  -1   1   9 65701.7 2224.77  35
   1  -1  -9 65785.9 2024.87  31
  -1   1   9 65854.3 2108.54   5
   1  -1  -9 67326.4 2020.85  33
   1   1  -9 67639.5 2023.90  21
  -1  -1   9 70232.7 2699.37  12
   1  -1  -9 69205.8 2131.72   8
  -1   1   9 65200.7 2010.38  18
  -1   1   9 73299.2 2170.17  38
  -1  -1   9 71672.3 2133.08   5
   1  -1  -8 10958.5 797.251  13
   1  -1  -8 10850.4 447.790  31
  -1   1   8 9422.91 427.408  18
  -1  -1   8 11142.8 500.742   5
  -1   1   8 10676.0 491.722   5
  -1  -1   8 9512.95 761.817  12
   1  -1  -8 10166.0 435.165  33
   1   1  -8 9163.51 424.356  21
   1  -1  -8 10730.6 435.247  26
   1   1  -8 9672.95 443.385  26
   1  -1  -7 96231.1 2752.48  26
   1  -1  -7 96007.0 2770.01  31
   1  -1  -7 96094.7 2760.71  33
  -1   1   7 100353. 2833.31   5
   1  -1  -7 107673. 3361.73  13
  -1   1   7 98229.7 2780.61  18
  -1  -1   7 96377.8 3340.01  12
   1   1  -7 101164. 2785.66  26
  -1  -1   7 101682. 2835.91   5
   1   1  -7 93627.2 2763.96  21
   1   1  -6 89927.8 2583.27  26
   1  -1  -6 87685.7 2571.46  33
   1   1  -6 90678.8 2579.35  21
  -1   1   6 90879.0 2597.50  18
   1  -1  -6 92889.6 2565.32  26
  -1   1   6 99890.7 2642.74   5
   1  -1  -6 97069.3 3084.99  13
   1  -1  -6 92878.8 2582.18  31
  -1  -1   6 100475. 3147.72  12
   1   1  -6 86914.7 2881.98  10
  -1  -1   6 89782.7 2623.18   5
  -1  -1   5 129159. 3971.16  12
   1   1  -5 125182. 3868.72  10
   1   1  -4 348908. 10085.8  10
   1  -1  -4 346220. 10098.8  13
   1   1  -3 691762. 18385.2   3
   1  -1  -3 671240. 18418.0  13
   1  -1  -3 638607. 18336.0  16
   1  -1  -3 693265. 18379.0   3
   1   1  -3 709993. 18481.6  10
   1  -1  -2 115140. 3315.08  16
  -1  -1   2 106668. 3383.03  12
   1  -1  -2 112034. 3082.69   9
   1  -1  -2 114648. 3202.51  14
   1   1  -2 119972. 3489.17  10
   1   1  -2 118946. 3340.79   3
   1  -1  -2 123269. 3332.26   3
   1  -1  -1 992456. 26370.4   3
   1   1  -1 972029. 26375.0   3
  -1  -1   1 999999. 26448.4  12
   1   1   0 102056. 3090.21  10
  -1  -1   0 103056. 2925.61  12
  -1  -1   0 97596.6 3022.82  11
  -1  -1   0 103326. 2934.57  17
  -1  -1  -1 223446. 6196.84  11
  -1   1  -1 220860. 6067.45   2
  -1  -1  -1 220997. 6100.54  15
   1   1   1 220573. 6246.12  10
  -1  -1  -1 212054. 6177.17   9
  -1  -1  -1 222931. 6072.00   2
  -1   1  -1 226429. 6102.55  15
  -1  -1  -1 215309. 6143.79  17
   1   1   2 162297. 4730.33  10
  -1  -1  -2 161609. 4728.67  14
  -1  -1  -2 166520. 4692.79   9
  -1  -1  -3 6494.69 447.164  14
   1   1   3 6778.50 426.625  10
   1   1   4 130142. 3669.27  10
  -1   1  -4 121714. 3515.24  17
  -1  -1  -4 126576. 3834.89  16
  -1   1  -5 158059. 4670.05  17
  -1   1  -5 169558. 4559.98  23
   1  -1   5 158531. 5028.90   1
   1   1   5 175081. 5101.06   1
  -1  -1  -5 164593. 4534.36  32
  -1  -1  -5 178083. 5058.53  16
  -1  -1  -6 18003.3 667.132   4
  -1  -1  -6 18572.9 971.800  16
  -1  -1  -6 16338.4 565.768  34
  -1  -1  -6 16929.8 594.833  32
   1  -1   6 17821.1 1025.06   1
  -1   1  -6 17641.6 598.179  26
  -1   1  -6 16751.4 616.703  23
  -1   1  -6 16613.6 577.894  31
  -1   1  -6 17070.2 650.828   4
   1   1   6 18585.9 1046.25   1
  -1   1  -6 16798.7 745.335  17
  -1  -1  -6 17360.0 897.431  13
  -1  -1  -6 17500.6 580.897  24
  -1  -1  -7 5509.01 291.683  33
  -1  -1  -7 6305.58 279.332  34
  -1  -1  -7 6017.01 282.302  24
   1   1   7 5241.66 593.577   1
  -1   1  -7 6331.33 441.630  17
  -1   1  -7 6262.77 353.373   4
  -1  -1  -7 5520.78 343.411   4
  -1  -1  -7 6600.18 305.251  32
  -1   1  -7 6394.59 296.899  31
  -1  -1  -7 5819.94 515.805  13
  -1  -1  -7 5833.89 302.038  31
   1  -1   7 5662.64 599.167   1
  -1   1  -7 6145.67 321.616  23
  -1   1  -7 6792.70 314.693  26
  -1  -1  -7 6043.94 290.140  23
  -1   1  -8 25964.8 865.829  26
  -1  -1  -8 23436.8 828.078  23
  -1   1  -8 25572.3 846.428  31
  -1  -1  -8 25109.2 1220.84  13
  -1  -1  -8 23401.9 849.855  31
  -1  -1  -8 24763.3 842.826  32
  -1  -1  -8 24917.5 846.689  33
  -1  -1  -8 25245.7 815.020  34
  -1   1  -8 22904.2 1065.54  17
  -1   1  -8 24049.5 880.056  23
   1   1   8 23921.0 1450.80   1
   1  -1   8 22965.0 1411.08   1
  -1  -1  -9 3604.19 228.412  34
   1  -1   9 3773.33 583.956   1
  -1  -1  -9 4122.85 269.332  33
   1   1   9 3680.20 262.977  18
  -1  -1  -9 4381.19 533.272  13
  -1  -1  -9 4134.63 268.357  31
  -1  -1  -9 3613.02 239.994  23
  -1   1  -9 3819.96 260.328  26
   1   1   9 4814.05 650.426   1
  -1  -1  -9 3614.98 293.563   7
  -1   1  -9 3806.08 300.551   7
   1   1   9 4056.23 336.978  40
  -1   1  -9 3476.70 262.943  23
  -1   1  -9 4149.31 261.242  31
  -1  -1  -9 4000.11 260.538  26
   1  -1  10 24055.7 993.994   5
   1   1  10 24159.0 918.015  18
   1   1  10 27072.1 1027.30   5
  -1   1 -10 24669.1 909.643  31
  -1  -1 -10 26012.9 920.547  33
  -1   1 -10 25666.3 933.168  26
  -1  -1 -10 25615.4 923.671  26
  -1   1 -10 26225.7 1014.72   7
  -1  -1 -10 24981.6 915.082  31
   1   1  10 24084.6 1052.93  40
   1  -1  10 24292.9 1370.11  12
  -1  -1 -10 25680.3 1008.09   7
   1  -1  11 9378.23 541.094   5
  -1  -1 -11 9430.31 540.476   7
  -1  -1 -11 9061.78 473.046  26
  -1   1 -11 9332.74 536.951   7
   1   1  11 9301.17 587.068  40
  -1   1 -11 8958.66 483.210  21
  -1  -1 -11 8309.74 457.210  33
   1   1  11 8955.03 452.697  18
   1   1  11 10223.8 560.868   5
  -1  -1 -11 9045.33 464.371  31
  -1  -1 -11 9873.47 940.562  17
  -1   1 -11 9407.71 481.171  26
  -1  -1 -12 1082.45 185.040   7
   1   1  12 1355.88 206.209   5
  -1  -1 -12 1397.89 176.983  31
  -1  -1 -12 1495.80 178.181  26
   1  -1  12 1726.59 235.057   5
   1   1  12 1196.72 223.949  40
  -1   1 -12 1456.72 218.053   7
  -1  -1 -12 1144.08 336.966  17
  -1   1 -12 905.144 156.390  21
   1  -1  12 1235.45 196.296  40
  -1   1 -13 4982.49 376.974   7
   1   1  13 5016.69 376.372   5
   1  -1  13 5331.00 388.991   5
  -1  -1 -13 5287.02 384.137   7
   1  -1  13 5093.43 370.253  40
  -1  -1 -13 4527.96 312.197  31
  -1  -1 -13 5221.99 336.844  26
  -1   1 -13 4915.41 326.461  21
   1   1  13 5036.95 412.849  40
   1  -1  14 1043.29 171.070   5
  -1  -1 -14 1012.47 143.070  31
   1  -1  14 908.530 150.977  40
  -1   1 -14 872.357 134.132  21
   1   1  14 1213.16 178.941   5
  -1  -1 -14 1348.86 162.920  26
   1   1  14 883.624 169.234  40
   1   1  15 1000.75 146.898  40
  -1  -1 -15 1235.05 140.726  26
  -1   2  16 89.0056 58.6137  40
  -1   2  15 491.113 119.279  40
   1  -2 -15 368.756 85.5317  31
  -1  -2  15 483.250 112.293  40
   1   2 -14 1365.54 165.375   7
  -1   2  14 1534.51 223.825  40
   1  -2 -14 1438.41 159.409  31
   1  -2 -14 1302.85 144.006  26
   1  -2 -14 1268.28 155.061   7
  -1   2  13 680.514 180.538  40
   1  -2 -13 609.326 133.692   7
   1  -2 -13 700.187 126.985  31
   1   2 -13 616.386 139.638   7
   1  -2 -13 451.266 110.194  26
  -1  -2  13 551.566 102.952  28
   1  -2 -12 1494.49 197.315   7
  -1   2  12 2231.29 204.534  18
  -1  -2  12 2210.33 257.689  35
   1  -2 -12 1905.57 202.728  31
   1  -2 -12 1796.84 187.349  26
   1   2 -12 1830.32 218.140   7
   1  -2 -11 8308.41 441.302  33
   1  -2 -11 7941.20 419.746  26
   1   2 -11 8094.49 473.387   7
   1  -2 -11 7238.40 451.399   7
   1  -2 -11 7953.78 435.060  31
  -1  -2  11 7280.31 817.683  12
  -1  -2  11 7791.27 503.888  35
   1   2 -11 7733.64 435.936  21
  -1   2  11 7942.55 431.447  18
   1   2 -10 18937.9 798.031  21
  -1  -2  10 19321.9 1369.49  12
  -1  -2  10 20063.9 891.098  35
  -1   2  10 20153.4 801.072  18
   1  -2 -10 20066.4 836.996   7
   1  -2 -10 21171.2 780.112  26
   1  -2 -10 20569.2 792.557  33
   1  -2 -10 20301.1 790.767  31
   1  -2 -10 20558.1 1355.46  13
  -1   2   9 30.1957 82.2655  38
   1  -2  -9 26.3254 65.9072  26
   1  -2  -9-43.9630 239.546  13
   1   2  -9 32.4620 73.4043  21
  -1   2   9-10.9125 70.3540  18
   1  -2  -9-9.90227 66.0819  31
  -1  -2   9 11.4909 77.9514   5
   1  -2  -9 28.5073 73.2237  33
  -1  -2   9-49.4162 147.480  12
   1   2  -9-24.6311 71.9621   8
  -1   2   9 23.1375 71.8720   5
  -1   2   9-35.9969 90.4163  40
   1  -2  -8 12764.7 965.009  13
   1  -2  -8 13142.6 529.458  26
  -1   2   8 13473.2 574.895  18
   1  -2  -8 13855.5 559.455  31
   1  -2  -8 12433.4 534.988  33
  -1  -2   8 13825.3 1050.18  12
   1  -2  -8 13024.3 579.762   8
  -1   2   8 12810.4 562.926   5
   1   2  -8 13848.8 572.617  21
  -1   2   8 14317.7 654.681  38
   1   2  -8 11334.8 553.814   8
  -1   2   8 13571.2 687.550  40
  -1  -2   8 11737.8 549.325   5
  -1  -2   7 12167.9 938.088  12
   1   2  -7 10697.7 767.988  10
   1   2  -7 10649.2 488.406  21
  -1   2   7 11644.2 497.524   5
  -1  -2   7 10989.1 488.397   5
   1  -2  -7 11934.9 472.560  26
   1  -2  -7 11237.8 436.412  32
  -1   2   7 12979.9 628.760  40
  -1   2   7 11840.6 512.014  18
   1  -2  -7 11372.7 485.766  31
   1  -2  -6 22688.7 761.078  26
   1  -2  -6 22681.2 732.456  32
  -1   2   6 23432.8 812.769  18
   1   2  -6 21939.1 1198.89  10
  -1   2   6 23160.1 788.964   5
  -1  -2   6 20697.0 765.346   5
   1   2  -6 23881.8 806.223  21
   1  -2  -5 11644.8 796.848  16
   1  -2  -5 12057.5 847.011  13
  -1   2   5 12541.0 502.178  18
   1   2  -5 12225.9 858.654  10
   1   2  -5 12734.0 498.085  21
   1   2  -4 46010.7 1954.73  10
   1  -2  -4 48231.0 1846.06  16
   1   2  -4 47868.1 1420.24  21
  -1  -2   4 42783.3 1850.05  12
   1  -2  -3 91015.4 2964.44  16
   1  -2  -3 95922.4 2849.44  14
   1   2  -3 100584. 3257.38  10
  -1   2   3 90672.7 2552.26  18
   1  -2  -3 91570.3 2641.82   9
   1   2  -3 85742.8 2546.78  21
   1   2  -2 538.360 196.756  10
   1   2  -1 64535.6 1929.64   3
  -1  -2   1 71673.4 2271.10  11
  -1  -2   1 68864.8 2255.65  12
  -1  -2   0 127663. 3744.63  12
   1  -2   0 120480. 3436.61   3
   1   2   0 130436. 4094.68  10
   1   2   0 126260. 3471.53   3
  -1  -2   0 135089. 3824.34  11
  -1  -2   0 133594. 3715.37  17
  -1  -2  -1 201330. 5944.24  11
  -1  -2  -1 206267. 5803.48  12
  -1  -2  -1 216121. 5963.59  17
  -1  -2  -1 207399. 6084.32   9
   1   2   1 206215. 6243.99  10
  -1   2  -2 156911. 4426.44   2
   1   2   2 166948. 4937.21  10
   1  -2   2 151256. 4412.20   1
  -1  -2  -2 167791. 4719.27  17
  -1  -2  -2 165029. 4753.33   9
  -1  -2  -2 151290. 4405.19   2
   1  -2   3 18925.7 835.087   1
   1   2   3 21312.5 1105.98  10
  -1  -2  -3 20855.9 1056.83  14
   1   2   3 20168.6 861.006   1
  -1  -2  -3 22327.5 1005.58   9
   1   2   4 3943.03 361.039   1
  -1   2  -4 4203.05 230.663  21
   1   2   4 3408.23 406.244  10
   1  -2   4 4120.91 367.867   1
  -1  -2  -4 4458.67 455.651  14
   1   2   5 54940.2 1952.38   1
  -1  -2  -5 48575.0 1474.35  29
  -1  -2  -5 51572.7 1489.48  34
   1  -2   5 52432.3 1933.64   1
   1   2   6 12906.8 849.536   1
  -1  -2  -6 13176.5 496.568  34
  -1  -2  -6 13071.5 505.593  24
  -1  -2  -6 14677.2 505.219  29
   1  -2   6 13303.5 855.178   1
  -1   2  -6 13239.1 551.815  21
  -1  -2  -7 4837.78 281.561  32
   1   2   7 4147.41 342.195  40
  -1   2  -7 5220.10 311.685  21
  -1  -2  -7 4532.92 241.642  34
   1  -2   7 5057.98 554.387   1
  -1  -2  -7 4808.73 259.248  24
   1   2   7 4307.76 520.157   1
  -1  -2  -7 3676.89 497.647  13
  -1  -2  -7 4583.20 285.055  26
  -1   2  -8 7985.03 426.353   7
  -1  -2  -8 7808.56 417.376   7
  -1   2  -8 8545.61 446.944  21
  -1  -2  -8 7828.22 355.119  34
  -1  -2  -8 8568.97 408.617  32
  -1  -2  -8 8801.52 779.128  13
   1   2   8 7124.99 486.160  40
   1   2   8 8044.98 443.396  18
  -1  -2  -8 9241.73 437.121  26
  -1  -2  -8 8018.52 372.080  24
   1  -2   8 8064.10 420.884   5
   1  -2   9 26280.2 1029.64   5
  -1  -2  -9 26617.9 1505.89  13
  -1  -2  -9 30459.3 1038.70  26
  -1   2  -9 29437.7 1069.58  21
  -1   2  -9 28750.6 1067.21   7
  -1  -2  -9 28392.5 1001.16  32
  -1  -2  -9 29044.1 944.032  34
   1   2   9 29568.0 1080.69  18
   1   2   9 30327.7 1072.81   5
   1   2   9 27650.5 1167.67  40
  -1  -2  -9 27618.3 1045.85   7
  -1  -2  -9 29918.5 1027.83  33
  -1   2 -10 18057.0 775.856   7
  -1  -2 -10 18328.0 734.536  26
  -1  -2 -10 17416.3 764.717   7
   1  -2  10 17818.0 1309.59  12
   1   2  10 17442.2 871.667  40
   1   2  10 19197.4 789.763   5
   1   2  10 17493.2 763.651  18
  -1   2 -10 16620.8 750.368  21
   1  -2  10 17996.2 761.304   5
  -1  -2 -10 17867.0 729.530  33
  -1  -2 -10 18525.5 1368.88  17
  -1  -2 -10 17620.0 1189.07  13
  -1   2 -11 33295.8 1218.81   7
  -1  -2 -11 33783.3 1715.88  13
   1  -2  11 31226.2 1184.36   5
  -1   2 -11 31631.1 1183.30  21
  -1  -2 -11 32202.2 1154.36  33
  -1  -2 -11 29170.3 1862.11  17
  -1  -2 -11 34023.0 1165.97  26
   1   2  11 34098.3 1224.54   5
   1  -2  11 32609.4 1822.98  12
   1   2  11 33496.2 1347.52  40
   1   2  11 32793.8 1186.32  18
  -1  -2 -11 33767.2 1222.10   7
   1   2  12 6862.27 402.778  18
  -1  -2 -12 7991.62 426.855  26
   1   2  12 8826.76 562.185  40
  -1  -2 -12 7145.32 418.546  33
  -1   2 -12 7338.01 431.936  21
  -1  -2 -12 7821.67 427.427  31
   1   2  12 7920.20 461.254   5
   1  -2  12 7354.91 439.807   5
  -1  -2 -13 2098.48 202.135  31
  -1  -2 -13 2051.92 200.276  26
   1   2  13 2417.67 277.367  40
   1  -2  13 2022.58 213.396   5
  -1   2 -13 1944.93 206.737  21
   1   2  13 1982.49 217.728   5
   1   2  13 2039.46 185.997  18
  -1  -2 -14 885.935 128.117  31
   1   2  14 733.929 148.316  40
  -1   2 -14 566.944 116.565  21
  -1  -2 -14 730.956 121.942  26
  -1  -2 -15 9586.29 405.271  26
  -1  -2 -15 9517.72 399.745  31
   1   2  15 9482.93 445.929  40
   1   3 -14 5343.63 295.413  41
   1  -3 -14 6320.04 296.556  31
   1  -3 -13 789.621 108.915  26
   1  -3 -13 871.807 123.721  31
  -1  -3  13 940.429 125.869  28
  -1   3  13 885.480 121.803  18
   1  -3 -12 1156.03 154.411  31
  -1   3  12 1254.87 169.556  36
  -1   3  12 912.849 148.513  18
  -1   3  12 1291.76 211.976  40
   1  -3 -12 1347.52 147.381  26
  -1   3  11 1930.01 267.153  40
  -1   3  11 2053.16 216.176  18
   1  -3 -11 1718.44 191.099  31
   1  -3 -11 2163.31 215.374  33
   1  -3 -11 1873.30 182.081  26
  -1   3  10 439.098 163.479  40
  -1   3  10 491.706 121.574  18
  -1  -3  10 295.357 238.946  12
   1  -3 -10 439.085 130.924  33
   1  -3 -10 395.621 110.935  31
   1  -3 -10-51.7097 383.381  13
   1  -3 -10 396.136 99.4375  26
   1  -3  -9 1394.00 156.775  26
   1  -3  -9 1385.58 175.340  31
  -1   3   9 1280.00 181.326  37
  -1   3   9 1323.72 230.102  40
  -1   3   9 1345.26 208.410  38
  -1   3   9 1253.66 182.779  18
  -1  -3   9 1004.31 368.618  12
   1  -3  -9 1145.34 159.837  33
   1  -3  -9 1388.16 382.569  13
   1  -3  -8 30629.8 1034.39  26
   1  -3  -8 30667.6 1070.62  33
  -1   3   8 29216.1 1117.96  37
  -1   3   8 31795.8 1285.01  40
   1  -3  -8 30329.9 1068.60  31
  -1   3   8 29941.2 1106.07  18
  -1   3   8 30252.3 1172.15  38
   1  -3  -7 13768.7 555.566  26
  -1   3   7 13048.1 636.763  37
   1  -3  -7 14082.7 1109.97  13
  -1   3   7 14616.9 751.671  40
  -1   3   7 12762.9 645.708  38
  -1   3   7 13479.3 608.013  18
   1  -3  -6 26361.8 1563.37  13
  -1   3   6 23159.2 964.051  37
  -1  -3   6 25865.2 1555.70  12
   1   3  -6 21888.8 1457.56  10
   1  -3  -6 28129.1 1523.16  16
  -1   3   6 24134.0 967.781  38
  -1   3   6 25514.5 1050.09  40
   1  -3  -6 25307.6 859.232  26
  -1  -3   5 12300.5 992.249  12
  -1   3   5 12719.1 639.021  37
  -1   3   5 14263.9 590.930  18
  -1   3   5 14087.8 679.901  40
   1   3  -5 14521.4 1123.70  10
  -1   3   5 13731.9 630.715  38
   1  -3  -4 30830.4 1535.39  16
   1  -3  -4 29962.7 1371.18  14
  -1   3   4 29876.6 1023.54  18
  -1  -3   4 31492.3 1606.10  12
   1   3  -4 30838.0 1724.42  10
  -1  -3   3 2082.19 358.095  12
  -1   3   3 1956.67 166.968  18
   1   3  -3 1958.40 406.302  10
   1  -3  -3 1569.28 273.143  14
   1  -3  -2 8774.68 653.970  14
   1  -3  -2 8978.61 613.984   9
  -1  -3   2 7982.36 602.195  11
  -1   3   2 8674.99 384.120  18
  -1  -3   2 8937.83 703.556  12
   1   3  -2 9338.32 857.609  10
  -1  -3   1 51027.2 1845.42  11
  -1  -3   1 51356.7 1986.73  12
  -1   3   1 49908.9 1495.55  18
  -1  -3   0 18964.2 905.737  11
  -1   3   0 19530.2 637.905  18
  -1  -3   0 17113.5 924.191  12
   1   3   0 17727.5 1223.11  10
  -1  -3  -1 7066.78 523.543  17
   1   3   1 6877.65 716.829  10
  -1  -3  -1 7065.56 636.890   9
   1   3   1 7366.12 338.043  18
  -1  -3  -1 8098.52 513.946  12
   1   3   2 79018.5 2351.85  18
  -1  -3  -2 87866.3 3005.63   9
  -1  -3  -2 84268.9 2827.01  17
   1   3   2 79232.5 3184.52  10
  -1   3  -2 81762.2 2352.28  21
  -1  -3  -3 45920.5 2078.75  14
  -1   3  -3 46313.6 1421.92  21
  -1  -3  -3 45361.4 1895.24  17
  -1  -3  -3 44830.5 1906.86   9
   1   3   3 44275.3 2143.46  10
  -1   3  -4 3388.31 235.233  21
  -1  -3  -4 3493.23 460.711  17
   1   3   4 3035.55 233.678  18
   1   3   4 3629.42 301.345  40
   1   3   4 3561.59 278.233  37
  -1  -3  -4 3763.05 517.752  14
  -1  -3  -5 13960.8 1008.15  14
  -1  -3  -5 13005.4 507.783  29
   1   3   5 13825.2 625.435  37
  -1  -3  -5 12366.0 936.990  17
   1   3   5 11923.4 559.567  18
  -1  -3  -5 15324.2 1090.04  16
   1   3   5 13373.2 665.533  40
   1   3   5 13488.1 607.787  36
  -1   3  -5 13326.7 566.470  21
  -1  -3  -6 4889.09 269.821  34
  -1  -3  -6 4713.53 277.654  24
   1   3   6 5491.97 364.803  37
   1   3   6 4927.32 341.729  36
  -1   3  -6 5267.04 331.454  21
  -1  -3  -6 5290.97 658.754  16
   1   3   6 5231.33 405.843  40
  -1  -3  -6 5149.19 628.001  17
   1   3   7 3735.85 302.088  36
  -1  -3  -7 4343.88 264.077  24
   1   3   7 4607.14 387.847  40
  -1  -3  -7 4664.12 295.091  32
  -1  -3  -7 3416.18 545.009  17
  -1  -3  -7 4591.41 256.106  34
  -1  -3  -8 21488.8 1456.06  13
  -1  -3  -8 22901.2 802.754  24
  -1  -3  -8 21542.5 862.686  26
  -1  -3  -8 23483.0 856.265  32
   1   3   8 22538.3 915.037  18
   1   3   8 22473.9 900.306  36
  -1  -3  -8 20331.1 1453.43  17
   1   3   8 22520.4 1020.88  40
  -1  -3  -9 13370.1 1201.97  17
  -1  -3  -9 11904.3 1079.58  13
   1  -3   9 15574.3 1296.83  12
  -1  -3  -9 13197.1 543.527  24
   1   3   9 13961.2 668.072  18
  -1  -3  -9 14156.3 644.486  31
  -1   3  -9 14759.9 676.928  21
   1   3   9 13172.8 739.119  40
  -1  -3  -9 14262.2 628.681  26
  -1  -3  -9 13302.7 589.819  32
   1   3  10 4314.87 333.774  18
  -1  -3 -10 2732.58 572.424  13
  -1   3 -10 4106.71 328.999  21
  -1  -3 -10 4138.41 308.443  31
   1  -3  10 4156.35 674.554  12
  -1  -3 -10 3910.43 293.196  26
  -1  -3 -10 3648.93 643.807  17
   1   3  10 4196.74 387.976  40
  -1  -3 -11 23899.9 886.058  26
   1   3  11 23938.3 928.075  18
   1   3  11 23291.7 1035.95  40
  -1   3 -11 21399.5 925.223  41
  -1   3 -11 24442.2 940.905  21
  -1  -3 -11 22536.2 881.374  31
   1   3  12 135.676 115.064  40
  -1   3 -12 58.6203 79.5552  41
   1   3  12 87.2162 70.3121  18
  -1   3 -12 82.4648 86.1417  21
  -1  -3 -12-97.0860 141.959  33
  -1  -3 -12 146.194 73.2255  26
  -1  -3 -13 237.938 81.3508  26
   1   3  13 139.908 85.3630  40
   1   3  13 137.831 64.9494  18
  -1   3 -13 215.515 77.3368  41
  -1  -3 -14 1791.49 152.334  26
   1   3  14 2504.62 213.877  40
   1   4 -13 3840.41 235.149  41
  -1   4  13 3701.63 255.591  40
   1  -4 -12 3035.43 197.579  31
   1   4 -12 3050.50 246.788  41
  -1   4  12 2533.84 197.245  36
  -1   4  12 3181.46 219.529  18
  -1   4  12 3245.04 276.176  40
  -1  -4  12 2965.42 218.006  28
  -1   4  11 1024.76 188.346  40
   1  -4 -11 790.411 131.816  33
   1  -4 -11 779.651 118.894  31
  -1   4  11 685.194 127.467  18
  -1   4  11 734.182 130.721  36
  -1   4  10 3516.51 277.256  18
  -1   4  10 2957.70 277.262  36
   1  -4 -10 3454.46 250.725  31
   1  -4 -10 3704.23 262.316  33
  -1   4  10 3162.75 332.311  40
  -1   4   9 11342.8 567.300  37
  -1   4   9 10822.1 547.677  18
   1  -4  -9 10809.7 474.897  26
   1  -4  -9 11726.8 524.169  31
  -1   4   9 10451.7 588.612  36
   1  -4  -9 11080.7 514.527  33
  -1   4   9 11133.0 667.933  40
  -1   4   8 48984.1 1617.89  37
   1  -4  -8 45693.8 2351.33  13
  -1   4   8 47582.9 1626.20  38
   1  -4  -8 45238.6 1449.85  26
  -1   4   8 43189.7 1622.37  36
   1  -4  -8 45302.3 1498.70  33
   1  -4  -8 46762.9 1507.75  31
  -1   4   8 45449.3 1731.07  40
  -1  -4   8 50574.8 2508.92  12
  -1   4   7 42953.2 1621.67  40
  -1   4   7 39333.3 1514.06  36
   1  -4  -7 40202.7 2220.71  13
  -1  -4   7 43265.8 2293.54  12
  -1   4   7 43187.5 1437.75  18
  -1   4   7 41752.4 1492.81  38
   1  -4  -7 41482.8 1343.55  26
  -1   4   7 42344.5 1518.96  37
  -1  -4   6 24493.6 1626.09  12
   1  -4  -6 25383.2 1675.90  13
  -1   4   6 25336.4 1057.16  37
  -1   4   6 25450.7 1104.05  40
  -1   4   6 25109.4 958.545  18
  -1   4   6 23239.6 1039.69  36
  -1   4   6 25402.5 1016.73  38
   1  -4  -6 25875.6 1592.48  16
   1  -4  -6 25000.8 890.778  26
   1  -4  -5 42728.7 2297.53  13
  -1   4   5 45494.8 1636.82  37
  -1   4   5 44748.9 1563.29  38
  -1  -4   5 46478.8 2290.29  12
  -1   4   5 43840.5 1626.94  36
  -1   4   5 44632.1 1648.96  40
  -1   4   5 45530.1 1500.18  18
   1  -4  -4 28478.9 1638.38  16
  -1  -4   4 27209.3 1610.38  12
  -1   4   4 27676.3 1137.45  37
  -1   4   4 28154.9 998.732  18
  -1   4   4 26730.7 1045.12  38
  -1   4   4 27098.6 1119.55  40
   1  -4  -3 5771.97 612.859  14
   1  -4  -3 5003.59 639.337  16
  -1   4   3 5682.14 376.061  38
  -1  -4   3 5929.06 679.771  12
   1   4  -3 6878.66 401.377  36
   1   4  -3 5395.95 791.528  10
  -1   4   3 5625.28 406.981  36
  -1   4   3 5719.35 338.306  18
  -1   4   2 15146.9 603.265  18
   1  -4  -2 16274.1 1062.15  14
   1   4  -2 15529.1 676.473  36
   1   4  -2 15213.6 649.888  37
   1   4  -2 14701.4 1325.75  10
  -1   4   2 14590.7 701.242  36
  -1   4   2 15104.2 738.265  37
  -1   4   2 14441.1 608.831  41
  -1  -4   2 14185.9 1027.29  12
  -1   4   1 30236.1 1179.05  37
   1   4  -1 31338.6 1107.61  37
  -1   4   1 31566.2 1006.94  18
  -1   4   1 28115.7 1112.56  36
   1   4  -1 31999.5 1126.60  36
  -1   4   1 30406.2 1064.20  41
   1   4  -1 28478.6 1056.52  41
  -1  -4   1 31224.8 1536.95  12
   1  -4  -1 30244.8 1552.29   9
  -1   4   0 11453.0 603.480  37
   1   4   0 12013.9 574.888  37
  -1  -4   0 11320.9 993.391   9
   1   4   0 11443.8 1127.58  10
  -1   4   0 10824.5 530.167  41
  -1   4   0 11373.9 567.517  36
   1   4   1 16571.7 724.282  37
   1   4   1 15856.1 608.718  18
  -1   4  -1 14804.0 672.649  36
  -1   4  -1 14918.8 717.478  37
  -1  -4  -1 16620.6 1185.97   9
  -1   4  -1 15982.6 692.650  41
   1   4   1 16080.7 716.219  36
  -1   4  -2 1582.11 188.972  36
  -1   4  -2 1596.92 202.975  41
  -1   4  -2 1538.76 204.242  37
   1   4   2 1494.95 199.339  36
   1   4   2 1810.15 218.615  37
   1   4   2 1516.03 162.527  18
  -1  -4  -2 1691.49 411.974  14
  -1  -4  -2 1861.49 387.937   9
  -1   4  -3 17283.2 744.007  37
  -1  -4  -3 15684.8 1006.09  17
   1   4   3 16759.4 774.991  37
  -1   4  -3 17978.9 705.507  36
  -1  -4  -3 18337.1 1320.14  14
  -1   4  -3 17217.6 760.386  41
   1   4   3 18057.4 786.876  36
  -1  -4  -3 17831.0 1176.24   9
   1   4   3 16319.5 685.392  18
  -1  -4  -4 1295.08 298.412  17
   1   4   4 2282.36 247.057  36
  -1   4  -4 1918.03 232.975  41
   1   4   4 1928.60 201.334  18
  -1   4  -4 2222.98 207.969  36
   1   4   4 2334.13 256.518  37
  -1  -4  -4 1988.21 435.698  14
  -1  -4  -5 3388.72 239.490  34
  -1  -4  -5 3627.29 517.865  17
   1   4   5 3384.20 305.305  36
   1   4   5 4349.65 352.479  37
  -1  -4  -5 2879.75 553.216  16
   1   4   5 3424.19 281.746  18
   1   4   6 3355.48 287.305  18
  -1  -4  -6 3441.94 247.548  24
  -1  -4  -6 3059.34 510.274  17
   1   4   6 3410.40 302.815  36
  -1  -4  -6 3433.43 612.094  16
   1   4   6 3909.72 341.832  37
  -1  -4  -7 8964.13 417.726  24
  -1   4  -7 7819.31 511.202  41
  -1  -4  -7 9174.49 982.958  16
  -1  -4  -7 8924.18 455.101  32
   1   4   7 8761.27 493.363  18
  -1  -4  -7 7786.88 921.326  13
   1   4   7 8300.96 494.649  36
  -1  -4  -7 6957.62 791.797  17
   1   4   7 9887.86 621.534  40
  -1  -4  -8 9598.77 996.364  16
   1   4   8 10125.6 543.859  36
  -1  -4  -8 11012.7 1055.98  13
  -1   4  -8 10302.2 589.228  41
   1   4   8 10257.4 548.930  18
   1   4   8 11271.5 668.786  40
  -1  -4  -8 10810.3 502.923  32
  -1  -4  -8 9367.86 935.037  17
  -1  -4  -8 10656.0 522.971  26
  -1  -4  -9 5427.94 360.566  31
  -1   4  -9 5000.39 393.489  41
   1   4   9 5645.46 363.338  36
  -1  -4  -9 5756.79 351.806  26
   1   4   9 6403.68 474.209  40
  -1  -4  -9 5542.43 324.963  32
  -1  -4 -10 1226.52 188.453  33
   1   4  10 1099.22 202.199  40
   1   4  10 837.541 151.567  18
  -1  -4 -10 940.720 139.685  26
  -1  -4 -10 945.833 143.970  31
  -1   4 -10 936.862 167.874  41
  -1  -4 -11 1596.50 161.863  26
   1   4  11 1819.49 223.458  40
  -1   4 -11 1791.81 201.679  41
  -1  -4 -11 2441.54 227.760  33
   1   4  11 1961.36 197.529  18
  -1  -4 -11 1765.21 179.236  31
  -1  -4 -12 688.467 99.2950  26
  -1   4 -12 573.004 107.030  41
  -1  -4 -12 645.386 107.864  31
   1   4  12 682.840 138.770  40
   1   4  12 668.525 105.943  18
  -1   4 -13 1226.88 104.481  41
  -1   5  11 391.586 70.8688  36
  -1   5  10 7.83919 66.8640  36
  -1   5  10 57.1615 56.4256  18
  -1   5   9 7154.14 367.219  18
  -1   5   9 6728.72 384.834  36
   1  -5  -9 7831.23 349.425  33
   1   5  -9 7428.23 420.002  41
   1  -5  -8 2707.19 197.508  31
  -1   5   8 2591.31 246.643  36
   1  -5  -8 2652.09 203.830  33
   1   5  -8 2904.62 268.607  41
  -1   5   8 2504.08 217.322  18
  -1   5   7 11986.6 540.453  18
   1  -5  -7 11663.5 509.966  33
   1  -5  -7 11704.5 501.790  31
  -1   5   7 11592.4 606.970  37
  -1   5   7 11460.8 599.112  36
   1   5  -7 12304.9 618.758  41
   1   5  -6 1306.74 206.945  41
  -1   5   6 1751.61 225.011  36
  -1   5   6 1682.04 228.835  37
  -1   5   6 1506.89 177.827  18
   1  -5  -6 1592.61 170.663  31
  -1   5   5 8310.07 528.235  37
  -1   5   5 8374.59 437.504  38
  -1   5   5 8007.01 517.472  36
   1   5  -5 8672.25 508.089  41
  -1   5   5 8422.31 434.477  18
  -1   5   4 110.319 82.0502  18
  -1  -5   4 228.743 201.006  12
   1   5  -4 171.955 114.545  41
   1  -5  -4 117.296 159.823  13
   1   5  -3 10798.1 550.287  41
  -1   5   3 10900.1 621.048  37
  -1   5   3 11726.2 626.190  36
  -1  -5   3 9114.38 1011.16   9
   1  -5  -3 10829.7 1067.25  13
  -1   5   3 10507.4 482.014  18
  -1  -5   2 39811.8 2176.28   9
  -1   5   2 41755.5 1464.88  37
   1   5  -2 36864.8 1295.27  41
  -1   5   2 38995.0 1416.40  36
  -1   5   2 37014.5 1219.50  18
  -1   5   1 15251.2 752.147  37
  -1   5   1 14873.2 638.789  41
   1   5  -1 17221.1 738.467  36
  -1   5   1 14923.2 720.352  36
  -1  -5   0 5263.87 770.957  14
  -1   5   0 5089.07 370.163  36
   1   5   0 5584.24 389.918  37
  -1  -5   0 4736.88 671.298   9
  -1   5   0 5100.88 393.892  37
  -1   5   0 5391.21 345.847  41
  -1   5  -1 17693.2 766.179  36
   1   5   1 18634.8 820.188  37
  -1  -5  -1 18276.2 1318.75   9
  -1   5  -1 18113.4 812.523  37
  -1  -5  -1 18879.7 1430.31  14
  -1   5  -1 16366.2 738.460  41
  -1   5  -2 1974.01 226.645  41
   1   5   2 2181.47 250.262  36
  -1   5  -2 1537.83 212.994  37
  -1   5  -2 1852.75 215.540  36
   1   5   2 2221.93 261.767  37
  -1  -5  -2 1584.94 437.937  14
   1   5   3 13474.4 680.244  36
   1  -5   3 11045.4 1010.99  12
  -1   5  -3 13811.7 665.823  41
   1   5   3 15071.3 729.112  37
  -1   5  -3 12892.7 615.084  37
   1   5   3 13132.3 569.820  18
  -1  -5  -3 13788.5 1188.13  14
  -1   5  -3 16400.0 658.558  36
  -1   5  -4 2766.92 274.215  41
   1  -5   4 2450.33 486.376  12
   1   5   4 2362.31 217.165  18
   1   5   4 2523.17 270.635  36
  -1  -5  -4 2675.62 538.421  16
  -1   5  -5 6237.80 411.486  41
  -1  -5  -5 5679.34 320.439  24
   1   5   5 5462.87 384.937  36
   1   5   5 5408.29 343.275  18
  -1  -5  -6 406.147 97.1411  32
   1   5   6 425.740 109.722  18
   1   5   6 358.317 127.762  36
  -1   5  -6 408.314 133.385  41
  -1  -5  -7 178.231 79.2423  26
   1   5   7 142.768 87.8614  18
   1   5   7 142.966 91.9197  36
  -1  -5  -7 206.341 71.9599  32
  -1  -5  -8 4787.24 287.912  26
  -1  -5  -8 4912.59 307.622  31
   1   5   8 5471.91 321.827  36
   1   5   8 4830.30 308.828  18
  -1  -5  -8 4596.57 261.455  32
  -1  -5  -9 464.340 89.3563  26
   1   5   9 555.457 106.800  18
  -1   5  -9 827.525 139.341  41
  -1  -5  -9 673.237 139.825  33
  -1  -5  -9 640.931 112.879  31
   1   5   9 417.813 90.7099  36
  -1   5 -10 84.5299 65.2393  41
  -1  -5 -10 129.543 58.6405  31
   1   5  10 128.447 65.1652  18
  -1   5 -11 444.504 79.9030  41
   1   6  -8 1645.09 124.722  41
  -1   6   8 1811.58 133.892  36
  -1   6   7 977.743 123.153  36
   1   6  -7 1030.82 114.615  41
   1   6  -6 103.261 63.9668  41
  -1   6   6 167.040 79.5117  36
   1   6  -5 892.732 112.239  41
  -1   6   4 1757.07 191.616  37
  -1   6   4 1623.39 186.037  36
  -1   6   3 10409.8 517.151  37
  -1   6   3 9729.18 496.922  36
  -1   6   2 16159.4 710.967  37
  -1   6   2 17382.1 712.690  36
  -1   6   1 3720.78 289.892  37
  -1   6   1 3422.71 266.953  36
  -1   6   0 15984.7 690.523  37
  -1   6   0 16662.2 674.663  36
  -1   6  -1 5691.75 311.788  41
  -1   6  -1 7235.63 385.167  37
  -1   6  -2 10586.8 482.075  41
   1   6   2 13118.8 574.483  36
  -1   6  -3 1234.55 153.193  41
   1   6   3 2087.67 213.682  36
   1   6   4 1905.62 193.942  36
  -1   6  -4 1625.17 169.295  41
  -1  -6  -5 2748.84 186.238  26
  -1   6  -5 3092.00 227.472  41
  -1  -6  -6 1549.82 140.848  31
  -1   6  -6 1801.59 166.222  41
  -1   6  -7 294.536 80.1270  41
  -1   6  -8 2670.73 166.034  41
  -2   0  16 2288.59 210.964  40
   2   0 -16 2113.08 177.084   7
  -2   0  15 3403.12 308.507  40
   2   0 -15 3324.77 265.343   7
   2   0 -14 6827.52 440.390   7
  -2   0  14 7625.98 514.245  40
  -2   0  13 8175.09 555.490  40
  -2   0  12 5402.32 458.955  35
   2   0 -12 5526.80 417.496   8
   2   0 -11 81.2833 90.8152   8
   2   0 -11 68.3676 87.8542  31
  -2   0  11 350.845 157.059  35
   2   0 -10 11694.0 618.036   8
  -2   0  10 13257.7 708.583  35
   2   0 -10 13202.2 566.340  31
   2   0 -10 11785.0 540.464  26
   2   0  -9 1357.92 149.781  26
   2   0  -9 1387.08 151.907  31
  -2   0   9 1524.07 220.403  35
  -2   0   9 1340.99 129.545  28
   2   0  -9 1336.07 188.018   8
  -2   0   8 45.8222 76.5237   5
   2   0  -8 201.202 66.1877  26
  -2   0   8 93.1068 49.1308  28
   2   0  -8 68.9503 80.5045   8
   2   0  -8 273.603 74.7336  31
   2   0  -7 2441.75 175.851  31
   2   0  -7 2478.95 172.186  26
  -2   0   7 2844.06 174.108  28
  -2   0   7 2887.48 229.937   5
   2   0  -6 15560.4 537.402  26
  -2   0   6 15158.9 536.508  28
   2   0  -6 16044.9 548.025  31
   2   0  -5 25890.9 1256.33   3
   2   0  -4 90225.3 2994.90   3
   2   0  -3 9400.70 601.386   3
  -2   0   2 50010.7 1536.36   9
  -2   0   1 124962. 3545.14   9
  -2   0   0 600365. 15792.5  11
  -2   0   0 571430. 15522.5  14
  -2   0  -1 704152. 19126.2  11
  -2   0  -2 41947.8 1539.21  15
  -2   0  -2 40755.7 1257.91  16
  -2   0  -2 37862.0 1464.82   2
  -2   0  -3 8998.38 612.725  15
  -2   0  -3 10097.5 552.037  17
  -2   0  -4 32550.7 1038.00  13
  -2   0  -4 34011.0 1293.37  17
  -2   0  -5 515.861 73.7962  24
  -2   0  -5 670.997 110.528  13
  -2   0  -5 517.059 92.6791   4
  -2   0  -5 568.338 86.2906  23
  -2   0  -5 591.319 157.782  17
  -2   0  -5 545.888 72.6570  34
  -2   0  -5 502.383 74.4491  32
  -2   0  -6 42203.3 1364.11   4
  -2   0  -6 41792.3 1293.37  23
  -2   0  -6 41493.8 1238.36  33
  -2   0  -6 42589.1 1271.27  34
  -2   0  -6 42487.3 1267.41  26
  -2   0  -6 41515.2 1365.09  13
  -2   0  -6 42983.8 1255.67  31
  -2   0  -6 43138.4 1690.33  17
  -2   0  -7 171695. 4758.32  33
  -2   0  -7 172195. 4769.15  31
  -2   0  -7 173986. 4918.03   4
  -2   0  -7 173270. 4821.14  23
   2   0   7 191664. 5798.04   1
  -2   0  -7 179830. 4793.34  26
  -2   0  -7 180887. 5393.62  17
  -2   0  -7 168756. 4784.01  34
  -2   0  -8 12132.3 600.201   4
  -2   0  -8 12680.6 871.418  17
   2   0   8 13830.4 1088.13   1
  -2   0  -8 12627.0 490.085  33
  -2   0  -8 13341.2 603.435   7
  -2   0  -8 12016.9 530.973  23
  -2   0  -8 12491.1 509.920  34
  -2   0  -8 12235.5 509.737  26
  -2   0  -8 12448.9 496.614  31
   2   0   9 7575.36 842.776   1
  -2   0  -9 7770.79 457.038   7
  -2   0  -9 6803.57 366.171  26
  -2   0  -9 6850.41 353.889  31
  -2   0  -9 8169.07 415.170  23
  -2   0  -9 6918.33 449.124   4
  -2   0  -9 8335.94 716.380  17
  -2   0 -10 5430.75 345.935  23
  -2   0 -10 5626.91 337.386  26
  -2   0 -10 5267.54 387.261   7
   2   0  10 5956.28 790.593   1
  -2   0 -10 4788.84 299.633  31
  -2   0 -10 5046.35 588.115  17
  -2   0 -11 689.559 159.525   7
  -2   0 -11 758.158 137.407  26
   2   0  11 727.217 332.491   1
   2   0  11 592.576 149.241  40
  -2   0 -11 476.140 120.056  23
  -2   0 -11 550.430 113.536  31
  -2   0 -12 2740.09 242.072  26
   2   0  12 1998.75 241.630  40
   2   0  12 2133.32 259.851   5
  -2   0 -12 2387.41 215.735  31
  -2   0 -13 16975.1 720.868  26
   2   0  13 18076.3 819.379   5
  -2   0 -13 18684.8 744.317  21
  -2   0 -13 18006.7 705.136  31
  -2   0 -14 13716.5 563.026  21
   2   0  14 13147.2 637.396   5
   2   0  15 15603.7 653.553   5
   2  -1 -16 5418.28 278.225   7
  -2   1  16 6216.13 346.187  40
  -2  -1  16 6105.34 329.101  40
   2   1 -15 1141.45 151.625   7
   2  -1 -15 898.083 142.866   7
  -2  -1  15 1131.24 180.202  40
   2   1 -14 5867.52 382.511   7
   2  -1 -14 5744.73 379.874   7
  -2  -1  13 294.118 92.7775  25
   2   1 -13 313.062 117.953   7
  -2  -1  13 132.867 135.059  35
   2  -1 -13 366.757 121.462   7
   2  -1 -13 280.635 100.787  31
   2  -1 -12 2020.41 197.458  26
   2  -1 -12 2087.01 214.583  31
  -2  -1  12 1565.54 164.131  28
  -2  -1  12 2482.77 295.328  35
   2   1 -12 2448.78 271.892   8
   2  -1 -11 4635.30 299.636  26
   2  -1 -11 4246.19 301.207  31
  -2  -1  11 5055.22 426.163  35
   2  -1 -11 4252.15 356.063   8
  -2  -1  11 4265.04 285.450  28
  -2   1  11 4970.37 415.763  40
   2   1 -11 4434.63 365.553   8
   2  -1 -10 12404.3 528.634  31
   2  -1 -10 11100.9 496.705  26
  -2   1  10 10803.8 627.039  40
  -2   1  10 10692.0 474.227  18
   2  -1 -10 10190.7 566.984   8
   2   1 -10 11618.0 600.417   8
  -2   1  10 9857.87 555.801  38
  -2  -1  10 11135.5 502.073  28
  -2  -1  10 11016.6 638.611  35
   2  -1  -9 70358.4 2008.72  26
   2  -1  -9 66536.1 2122.38   8
   2  -1  -9 68934.7 2032.31  31
  -2   1   9 65599.4 2214.90  35
  -2   1   9 64909.7 1993.55  18
  -2   1   9 66524.9 2130.05  38
   2   1  -9 65923.7 2131.12   8
   2  -1  -8 46462.7 1380.09  33
   2  -1  -8 44606.2 1353.77  26
   2   1  -8 42243.5 1461.62   8
  -2  -1   8 46805.8 1998.69  12
  -2   1   8 43949.2 1483.34  38
   2  -1  -8 45688.8 1381.62  31
  -2   1   8 41415.5 1519.75  35
   2   1  -8 42315.1 1358.26  21
   2  -1  -8 45820.9 1475.05   8
  -2   1   8 43753.1 1370.46  18
   2   1  -7 27046.7 934.662  21
   2  -1  -7 29641.9 926.705  26
  -2  -1   7 30972.9 1459.28  12
   2   1  -7 27241.6 1331.91  10
   2  -1  -7 30435.0 954.340  31
  -2   1   7 29519.8 959.476  18
   2  -1  -7 30983.8 952.129  33
  -2  -1   6 133791. 4130.05  12
   2   1  -6 131761. 3508.21  21
   2   1  -6 125237. 4058.12  10
   2  -1  -6 114280. 3995.89  13
   2  -1  -6 123321. 3465.59  26
   2  -1  -6 127766. 3490.35  33
  -2   1   6 123464. 3513.48  18
   2  -1  -6 126920. 3495.15  31
  -2   1   5 25757.2 836.130  18
  -2  -1   5 27055.9 1243.91  12
   2   1  -5 26578.8 1270.37   3
   2  -1  -5 24291.9 1223.13   3
   2  -1  -5 28976.1 1232.84  13
   2   1  -4 15389.6 851.209   3
   2  -1  -4 13860.5 813.766   3
   2   1  -3 75090.1 2699.42   3
   2  -1  -3 94231.7 2710.31  13
  -2  -1   3 74696.7 2698.46  12
   2  -1  -3 93170.7 2779.80   3
   2   1  -2 2574.18 282.174   3
  -2  -1   2 2545.86 279.984  12
   2  -1  -2 2782.38 249.470  13
   2  -1  -2 2715.28 294.127   3
   2  -1  -1 213120. 5681.07  13
  -2  -1   1 203463. 5965.07  11
  -2  -1   1 200540. 5858.80   9
  -2   1   1 195416. 5686.22  11
  -2   1   0 219142. 6135.93  11
   2  -1   0 219677. 6019.66  13
  -2  -1   0 221397. 6394.72  11
  -2   1  -1 345861. 9494.75  15
  -2  -1  -1 344545. 9499.15  15
  -2  -1  -1 356863. 9639.08  11
  -2  -1  -1 313419. 9425.06   2
   2  -1   1 341729. 9119.74  13
  -2   1  -1 344586. 9448.30   2
  -2  -1  -2 84113.6 2744.65  15
  -2  -1  -2 81543.2 2715.45  14
  -2  -1  -2 88628.8 2874.54  11
  -2  -1  -2 83704.2 2703.99   2
  -2   1  -2 84701.7 2756.02  15
  -2   1  -2 90241.6 2739.09   2
  -2  -1  -2 83357.7 2721.39  17
  -2  -1  -3 11589.3 666.689  14
   2   1   3 9212.94 611.021  10
  -2  -1  -4 3678.35 197.913  24
  -2  -1  -4 3697.10 197.712  34
  -2   1  -4 3856.58 207.618  23
   2   1   4 3800.96 357.508  10
  -2  -1  -4 4370.62 397.675  16
  -2   1  -5 32429.2 1070.95   4
  -2  -1  -5 31520.6 1012.20  24
  -2  -1  -5 32583.5 1074.92   4
   2   1   5 31819.9 1254.17  10
  -2  -1  -5 31073.2 1030.40  23
  -2  -1  -5 32635.8 1013.79  34
  -2  -1  -5 33494.7 1484.39  17
  -2  -1  -5 34902.1 1022.67  29
  -2  -1  -6 37975.8 1215.81  26
  -2   1  -6 38291.8 1187.57  26
  -2  -1  -6 35877.0 1515.29  13
  -2  -1  -6 38948.4 1219.13  23
  -2  -1  -6 40288.4 1211.99  24
  -2   1  -6 40970.2 1291.89   4
  -2   1  -6 37757.6 1230.54  23
  -2  -1  -6 44672.8 1716.53  16
  -2  -1  -6 35004.9 1700.81  17
  -2  -1  -6 39843.4 1201.12  34
  -2   1  -6 38279.7 1161.37  31
  -2  -1  -6 42517.9 1305.09   4
  -2  -1  -7 54963.4 1655.11  34
  -2  -1  -7 55970.9 1684.29  26
  -2   1  -7 53000.4 1647.72  26
  -2  -1  -7 57599.5 2058.22  13
   2   1   7 56889.1 2435.25   1
  -2   1  -7 56119.7 1626.60  31
  -2   1  -7 52378.1 1693.30  23
  -2   1  -7 56794.5 1773.87   4
   2  -1   7 58414.0 2453.14   1
  -2  -1  -7 58448.7 2366.52  17
  -2  -1  -7 57191.6 1782.39   4
  -2  -1  -7 56054.8 1662.01  24
  -2  -1  -7 56189.2 1677.35  23
  -2  -1  -7 53998.9 1670.36  31
  -2  -1  -8 41405.8 1303.62  26
  -2  -1  -8 39146.3 1272.74  33
  -2  -1  -8 39579.5 1369.50   7
  -2   1  -8 41295.3 1382.91   7
  -2  -1  -8 39475.7 1626.70  13
  -2  -1  -8 40580.5 1278.05  34
  -2  -1  -8 40898.4 1285.89  24
   2   1   8 37464.7 1384.58  40
  -2   1  -8 38118.1 1321.45  23
  -2  -1  -8 41326.5 1415.05   4
   2  -1   8 39277.4 2055.08   1
  -2  -1  -8 42042.5 1305.01  23
  -2  -1  -8 41118.7 1299.08  31
  -2   1  -8 40838.3 1255.48  31
  -2  -1  -8 40575.2 1299.20  32
  -2  -1  -8 43132.4 2008.01  17
  -2   1  -8 41780.1 1413.33   4
  -2   1  -8 41935.5 1295.69  26
  -2   1  -9 2789.82 220.295  26
  -2  -1  -9 3379.47 286.364   7
  -2   1  -9 2678.07 260.499   7
  -2  -1  -9 2961.36 215.816  34
  -2  -1  -9 2979.68 234.646  26
  -2  -1  -9 3086.74 230.640  23
  -2   1  -9 2729.90 240.875  23
   2   1   9 2406.37 263.594  40
  -2  -1  -9 3034.78 238.113  33
  -2  -1  -9 3042.27 232.853  31
   2   1   9 2500.30 507.775   1
  -2   1  -9 2764.33 203.953  31
   2  -1   9 2344.02 505.434   1
  -2  -1  -9 2755.88 478.810  17
  -2  -1 -10 5832.32 344.609  26
  -2  -1 -10 5754.27 399.828   7
  -2   1 -10 5713.42 396.902   7
  -2   1 -10 5151.17 326.280  26
   2   1  10 5048.43 732.325   1
   2  -1  10 5711.82 768.903   1
  -2   1 -10 4709.64 341.281  23
  -2  -1 -10 4894.18 321.710  23
  -2  -1 -10 5748.35 338.471  31
   2   1  10 4738.34 328.204  18
  -2  -1 -10 4945.69 656.015  17
   2   1  10 5392.96 411.061  40
  -2  -1 -10 5397.02 334.455  33
  -2   1 -10 5917.57 322.452  31
  -2  -1 -11 193.930 91.2616  26
  -2   1 -11 125.647 90.3137  26
  -2  -1 -11 150.955 150.245  17
  -2  -1 -11 209.819 83.9478  23
   2   1  11 177.969 116.863  40
   2   1  11 211.249 87.9159  18
  -2  -1 -11 147.038 84.0419  31
  -2   1 -12 21459.0 865.512  21
  -2  -1 -12 21794.4 841.172  26
   2   1  12 20303.2 926.495  40
  -2  -1 -12 18219.5 1308.73  17
   2   1  12 20263.9 901.671   5
  -2  -1 -12 21909.8 820.079  31
   2  -1  12 21640.5 926.311   5
  -2  -1 -13 5736.20 350.862  26
   2   1  13 5928.34 405.956  40
   2  -1  13 5949.73 407.464   5
   2   1  13 6013.59 402.159   5
  -2   1 -13 5952.30 366.471  21
  -2  -1 -13 5687.41 332.998  31
   2   1  14 13327.5 630.188   5
  -2  -1 -14 14590.8 587.880  26
   2   1  14 13311.5 598.167  40
  -2   1 -14 14724.8 594.649  21
  -2  -1 -14 13445.2 551.914  31
   2  -1  14 14946.8 656.147   5
  -2  -1 -15 13198.1 521.843  26
   2   1  15 14026.8 581.406   5
   2  -1  15 13706.0 577.436   5
   2   2 -15 1431.90 133.445   7
  -2  -2  15 1633.71 179.581  40
  -2   2  15 1551.44 183.032  40
   2   2 -14 507.130 112.424   7
   2  -2 -14 717.582 114.899  31
   2  -2 -14 587.640 118.481   7
  -2  -2  14 622.215 108.217  25
  -2   2  14 805.851 166.511  40
  -2  -2  14 592.591 115.282  30
  -2  -2  13 8323.81 398.189  28
   2  -2 -13 8350.39 395.272  26
   2   2 -13 8800.40 464.938   7
  -2   2  13 8309.75 548.279  40
  -2  -2  13 8542.07 506.186  35
   2  -2 -13 8390.48 452.607   7
   2  -2 -13 8747.36 430.487  31
   2  -2 -12 1826.15 178.020  26
   2  -2 -12 1598.80 201.581   7
   2   2 -12 1786.78 214.949   7
  -2   2  12 1872.11 271.521  40
  -2  -2  12 1806.61 247.089  35
  -2   2  12 1550.66 167.235  18
   2  -2 -12 2017.05 198.729  31
  -2  -2  12 1681.96 186.273  28
   2  -2 -11 23488.1 855.713  26
  -2   2  11 24571.0 1090.10  40
  -2  -2  11 25357.7 1059.35  35
  -2   2  11 23356.9 883.173  18
   2  -2 -11 23599.2 889.932  31
  -2  -2  11 23436.2 907.381  28
   2  -2 -10 60067.8 1856.72  26
  -2  -2  10 65344.8 2839.98  12
  -2   2  10 64032.2 2069.89  38
   2  -2 -10 65080.4 1922.18  33
  -2   2  10 59165.9 1907.17  18
   2  -2 -10 58210.1 1969.03   8
   2  -2 -10 61159.5 1904.14  31
   2   2 -10 63078.6 1999.83   8
  -2   2  10 60472.0 2133.70  40
  -2  -2   9 59724.4 2628.00  12
  -2   2   9 55052.8 1895.60  38
  -2   2   9 58387.2 1786.39  18
  -2   2   9 57705.2 1982.47  40
   2   2  -9 54542.2 1822.35   8
   2  -2  -9 57739.0 1713.25  26
   2  -2  -9 58350.8 1759.02  33
   2  -2  -9 53898.0 1814.61   8
   2  -2  -9 54831.8 1740.34  31
   2  -2  -8 32359.8 1149.56   8
   2  -2  -8 34527.8 1059.81  26
   2  -2  -8 32194.3 1081.15  31
   2  -2  -8 34041.0 1732.46  13
  -2   2   8 33317.2 1285.64  40
  -2   2   8 31183.1 1215.08  38
  -2  -2   8 35700.9 1822.47  12
   2   2  -8 32921.9 1156.81   8
   2  -2  -8 32596.2 1081.42  33
  -2   2   8 31634.1 1118.16  18
   2  -2  -7 45458.2 1401.14  26
   2  -2  -7 50440.0 2122.13  13
   2  -2  -7 49573.7 1452.41  33
  -2   2   7 44215.5 1613.28  40
   2   2  -7 43767.3 2065.99  10
  -2  -2   7 44539.8 2112.69  12
  -2   2   7 47052.2 1598.49  38
  -2   2   7 48829.1 1502.53  18
   2  -2  -7 47014.1 1443.79  31
   2  -2  -6 44033.5 1352.01  33
  -2   2   6 45500.4 1412.74  18
   2  -2  -6 45673.9 1957.06  13
   2   2  -6 40938.5 1998.01  10
   2  -2  -6 44753.0 1352.80  31
   2  -2  -5 144230. 4991.21  13
  -2  -2   5 158665. 5136.51  12
   2   2  -5 151269. 5223.79  10
  -2   2   5 163424. 4446.29  18
   2  -2  -5 160690. 4377.10  31
   2  -2  -4 185696. 5740.22  13
  -2  -2   4 184504. 5806.46  12
  -2   2   4 188165. 5186.97  18
   2   2  -4 187644. 6012.17  10
   2  -2  -4 195631. 5621.49  16
   2  -2  -3 21207.5 1045.85  13
  -2  -2   3 23106.6 1121.65  12
   2   2  -3 22928.1 1266.54  10
   2  -2  -3 22854.6 969.982   3
   2  -2  -3 19938.8 939.813  16
   2   2  -3 19815.2 939.790   3
  -2   2   3 17465.4 678.540  11
   2  -2  -2 54919.9 1851.81  16
   2  -2  -2 55368.3 1677.87  14
   2  -2  -2 52392.8 1947.84  13
   2   2  -2 51373.8 2229.54  10
  -2   2   2 54509.4 1583.74  18
   2   2  -2 50759.7 1855.23   3
   2  -2  -2 52125.9 1835.38   3
  -2  -2   1 92871.3 3156.03  11
  -2  -2   1 91557.1 2967.12  12
   2  -2  -1 89838.2 2821.19   3
   2   2  -1 94777.3 2868.38   3
  -2   2   0 5059.73 368.138  15
  -2  -2   0 5243.76 380.017  15
   2   2   0 4817.92 542.514  10
  -2  -2   0 5798.11 519.299  11
  -2  -2   0 5121.75 397.396  12
  -2  -2   0 4596.91 480.511   9
  -2   2  -1 81828.2 2586.71  15
  -2  -2  -1 79340.4 2584.80  15
  -2  -2  -1 79630.0 2701.28  17
  -2  -2  -1 81536.6 2863.78  11
  -2  -2  -1 87419.7 2893.00   9
   2   2   1 83325.0 3012.92  10
  -2  -2  -2 1112.08 189.674   2
  -2   2  -2 1349.80 202.369   2
  -2  -2  -2 1399.27 269.310   9
  -2  -2  -2 1342.64 245.833  17
   2   2   2 1242.53 267.290  10
  -2   2  -3 23977.6 1072.65   2
  -2   2  -3 23831.1 780.403  23
   2   2   3 24574.8 1289.85  10
  -2   2  -3 23624.1 779.765  21
  -2  -2  -3 23745.9 1054.06   2
  -2  -2  -3 24841.7 1206.15  17
  -2  -2  -4 11533.5 442.533  22
  -2  -2  -4 11964.9 833.543  14
  -2  -2  -4 12271.9 481.789  23
  -2   2  -4 12949.2 493.560  23
   2   2   4 13347.7 888.520  10
  -2  -2  -4 12980.6 876.143  17
  -2  -2  -4 12451.5 749.352   2
  -2   2  -4 13016.2 774.688   2
  -2  -2  -4 11666.1 465.530  29
  -2  -2  -5 16371.0 1044.12  17
  -2  -2  -5 15811.9 597.424   4
  -2   2  -5 15248.2 588.357   4
   2  -2   5 14553.7 902.997   1
  -2  -2  -5 14564.7 556.737  34
  -2   2  -5 15231.8 591.799  23
   2   2   5 14542.5 919.275   1
  -2  -2  -5 14575.3 522.993  22
  -2  -2  -5 15331.8 570.624  23
  -2  -2  -5 14122.1 959.732  16
  -2  -2  -5 14493.4 554.664  29
   2   2   5 14977.5 922.866  10
  -2  -2  -6 5356.10 291.154  24
  -2  -2  -6 5850.65 302.044  23
  -2   2  -6 5029.70 309.534   4
  -2   2  -6 5337.69 316.663  23
  -2  -2  -6 5241.97 319.662   4
   2   2   6 5041.80 560.382   1
  -2  -2  -6 5406.65 288.188  34
   2  -2   6 4759.57 538.136   1
  -2  -2  -6 4478.87 573.158  17
  -2  -2  -6 5757.62 294.203  29
  -2  -2  -6 5289.11 594.856  16
  -2  -2  -7 4300.39 260.639  24
  -2  -2  -7 4079.83 251.034  23
  -2  -2  -7 3848.63 285.358   4
  -2   2  -7 3951.93 285.111   4
   2   2   7 3769.91 322.941  40
  -2  -2  -7 3920.93 533.336  16
  -2  -2  -7 3990.12 247.419  34
  -2  -2  -7 4219.23 269.854  32
   2  -2   7 3752.80 513.657   1
   2   2   7 3817.31 533.671   1
  -2  -2  -8 6021.27 325.517  23
   2   2   8 5625.13 676.720   1
  -2  -2  -8 5940.43 637.786  13
  -2  -2  -8 6215.85 336.152  24
   2   2   8 6567.74 446.844  40
  -2  -2  -8 6426.35 332.528  34
   2  -2   8 5576.76 652.888   1
  -2  -2  -8 6607.56 365.918  32
  -2  -2  -9 64633.3 2000.44  33
  -2  -2  -9 60406.2 2526.31  13
  -2   2  -9 64124.6 2073.33  21
  -2  -2  -9 66540.4 2033.88  31
   2   2   9 61266.4 2163.16  40
   2   2   9 66399.5 2889.16   1
   2  -2   9 71018.5 2893.88   1
  -2   2  -9 60515.6 2042.45  41
  -2  -2  -9 69533.2 1975.94  34
  -2  -2  -9 66530.2 2016.46  32
  -2  -2  -9 66419.6 1986.24  24
  -2  -2  -9 64688.0 2915.70  17
  -2   2 -10 6882.08 422.766  21
   2   2  10 6089.90 400.854  18
   2   2  10 5717.50 450.480  40
  -2  -2 -10 6549.60 392.147  33
  -2  -2 -10 6623.97 347.612  34
  -2  -2 -10 5593.20 764.506  17
   2   2  10 7147.96 429.807   5
  -2   2 -10 6063.59 384.763  41
   2  -2  10 5731.56 384.426   5
  -2  -2 -10 6655.07 389.357  31
   2   2  11 6806.60 483.829  40
   2   2  11 6142.69 394.354  18
   2   2  11 6539.97 417.453   5
  -2   2 -11 6418.61 406.855  21
  -2  -2 -11 6222.00 385.492  33
   2  -2  11 6276.66 401.769   5
  -2  -2 -11 6521.84 381.130  31
  -2  -2 -11 5737.64 760.276  17
   2   2  12 3328.88 264.902  18
  -2   2 -12 3297.79 280.057  21
  -2  -2 -12 3570.06 263.474  31
   2   2  12 3303.12 282.780   5
   2   2  12 3646.85 339.741  40
  -2  -2 -12 2984.14 259.890  33
   2  -2  12 3649.50 290.587   5
   2   2  13 89.9396 78.7550   5
   2  -2  13 54.4486 70.2831   5
   2   2  13 114.362 85.3888  40
  -2   2 -13 232.932 93.6873  21
   2   2  13 85.0645 61.4021  18
  -2  -2 -13 248.841 81.8151  31
  -2   2 -14 1426.59 154.015  21
   2   2  14 1251.85 157.473  40
  -2  -2 -14 1141.01 129.329  31
   2   2  14 1348.70 155.744   5
  -2   3  15 1161.12 115.840  40
  -2   3  14 503.770 106.558  40
  -2  -3  14 599.276 105.819  30
  -2   3  13 7532.86 455.222  40
  -2   3  13 7159.93 379.359  36
   2  -3 -13 7341.68 344.485  31
  -2   3  13 6696.12 335.433  18
  -2  -3  13 7267.74 355.698  28
   2  -3 -12 8811.69 419.677  31
  -2   3  12 8836.47 548.158  40
  -2   3  12 9075.22 438.308  18
  -2  -3  12 9180.18 453.796  28
  -2   3  11 14232.3 774.408  40
  -2  -3  11 15469.2 709.488  35
   2  -3 -11 15209.7 621.055  31
  -2   3  11 14877.4 649.568  18
  -2   3  10 10919.1 670.116  40
   2  -3 -10 11158.9 515.144  33
  -2   3  10 11569.3 560.376  18
   2  -3 -10 11241.8 510.226  31
  -2  -3  10 10882.1 1064.36  12
   2  -3  -9 35507.3 1158.68  33
   2  -3  -9 33701.2 1892.40  13
  -2  -3   9 34013.4 1977.18  12
  -2   3   9 33675.2 1205.31  18
   2  -3  -9 32367.7 1136.26  31
  -2   3   9 34297.2 1386.25  40
   2  -3  -8 94616.2 3701.62  13
  -2   3   8 91410.7 2878.74  37
  -2   3   8 96858.0 2852.64  18
   2  -3  -8 98801.1 2785.61  33
  -2   3   8 93751.5 3043.55  40
   2  -3  -8 93444.5 2770.78  31
   2  -3  -7 14363.0 1104.58  13
  -2   3   7 13123.4 600.408  18
  -2   3   7 13232.5 654.067  37
   2   3  -7 10699.8 1034.98  10
  -2   3   7 12639.2 663.851  38
   2  -3  -7 13985.8 559.531  33
   2  -3  -7 13569.9 549.627  31
  -2   3   7 12673.6 696.635  40
  -2  -3   7 11254.4 1054.55  12
  -2  -3   6 789.108 282.481  12
  -2   3   6 810.187 173.147  40
  -2   3   6 733.415 152.659  38
   2   3  -6 773.920 294.192  10
   2  -3  -6 771.224 108.855  31
   2  -3  -6 725.625 259.862  13
  -2   3   6 523.768 134.059  37
   2  -3  -5 7743.83 752.798  13
  -2  -3   5 8939.51 834.509  12
  -2   3   5 8304.33 507.100  37
  -2   3   5 7869.19 477.616  40
  -2   3   5 8568.68 489.525  38
   2   3  -5 6713.35 821.941  10
   2  -3  -5 10396.7 775.806  16
   2  -3  -4 4156.78 521.062  13
  -2   3   4 4199.60 342.708  37
  -2   3   4 4001.29 313.189  38
  -2  -3   4 4296.07 552.686  12
   2   3  -4 2668.01 518.129  10
  -2   3   4 4530.12 280.002  18
   2  -3  -4 3544.08 443.929  16
   2  -3  -3 19083.3 1160.33  13
  -2  -3   3 18023.4 1157.80  11
  -2   3   3 19136.7 857.657  37
   2  -3  -3 21723.6 1114.06  16
  -2  -3   3 19249.8 1187.16  12
  -2   3   3 21191.8 741.506  18
   2   3  -3 19347.0 1389.67  10
   2  -3  -2 13712.4 841.761  16
  -2  -3   2 13895.9 959.773  11
   2   3  -2 14870.6 1183.36  10
  -2   3   2 15526.8 579.799  18
  -2  -3   2 16795.5 1000.03  12
  -2  -3   1 73581.9 2596.58  12
  -2  -3   1 68894.7 2671.69  11
  -2   3   1 71831.3 2079.93  18
  -2  -3   0 54453.6 2412.22   9
  -2  -3   0 60688.3 2139.31  12
  -2   3   0 59195.1 1715.91  18
   2   3   0 59619.2 2687.64  10
  -2  -3   0 55564.6 2279.35  11
  -2   3  -1 16527.6 595.477  21
   2   3   1 14829.2 1172.96  10
  -2  -3  -1 17291.8 1113.53   9
  -2   3  -2 1080.28 119.311  21
  -2  -3  -2 991.029 288.952  14
   2   3   2 1146.48 328.297  10
  -2  -3  -2 1128.85 284.045   9
  -2  -3  -2 1035.19 253.206  17
  -2  -3  -3 27744.5 1548.62  14
   2   3   3 27500.8 1065.51  40
   2   3   3 28458.8 1638.09  10
  -2  -3  -3 29680.3 1492.28   9
  -2   3  -3 25870.6 981.863  41
  -2   3  -3 25955.6 902.848  21
  -2  -3  -3 29228.6 1439.51  17
  -2  -3  -4 11951.7 477.456  22
   2   3   4 11223.7 974.745  10
  -2  -3  -4 13196.1 1010.88  14
  -2  -3  -4 12490.1 514.011  23
  -2   3  -4 11500.1 565.448  41
   2   3   4 12362.9 630.743  40
  -2   3  -4 12002.5 514.837  21
   2   3   4 12391.8 555.959  36
  -2  -3  -4 12089.7 918.722  17
   2   3   5 11371.8 969.330  10
  -2  -3  -5 11777.2 496.513  34
  -2  -3  -5 11462.2 484.808  23
  -2   3  -5 10176.1 547.670  41
   2   3   5 10611.7 522.171  36
  -2  -3  -5 10935.3 442.974  22
  -2  -3  -5 11517.6 488.250  29
   2   3   5 11470.7 620.540  40
  -2  -3  -5 10902.6 913.094  17
  -2  -3  -5 10545.5 956.156  16
  -2   3  -5 11521.0 519.677  21
  -2  -3  -6 4641.18 287.534  24
  -2   3  -6 3574.91 308.949  41
  -2   3  -6 4257.45 305.898  21
   2   3   6 3980.99 291.500  36
  -2  -3  -6 5496.96 703.453  16
  -2  -3  -6 4158.67 592.540  17
  -2  -3  -6 4467.72 276.345  34
  -2  -3  -6 4607.81 276.160  29
   2   3   6 4215.64 368.524  40
  -2  -3  -7 6746.51 353.334  34
  -2  -3  -7 5813.90 348.144  24
  -2  -3  -7 7463.98 825.503  16
   2   3   7 6155.06 460.691  40
  -2   3  -7 6088.04 418.941  41
  -2   3  -7 6680.61 409.177  21
  -2  -3  -7 6524.92 778.818  17
  -2  -3  -7 6307.86 376.592  32
  -2  -3  -7 7121.87 356.419  29
  -2  -3  -8 24401.1 971.557  26
  -2  -3  -8 25648.6 1589.96  13
  -2   3  -8 27106.0 1035.12  21
  -2  -3  -8 25882.8 928.307  24
  -2  -3  -8 26922.0 971.791  32
  -2  -3  -8 24968.6 897.321  34
  -2  -3  -8 27011.8 1662.88  16
  -2   3  -8 25915.1 1044.09  41
   2   3   8 26132.4 1029.62  18
  -2  -3  -8 24023.9 1605.38  17
   2   3   8 27025.2 1129.32  40
  -2  -3  -9 14291.5 655.220  26
  -2  -3  -9 14886.2 611.794  24
   2   3   9 14216.6 763.237  40
  -2  -3  -9 16035.7 1285.04  17
  -2   3  -9 15612.1 720.425  41
  -2  -3  -9 14584.8 582.881  34
  -2  -3  -9 15139.9 652.129  32
   2   3   9 15198.9 706.698  18
  -2  -3  -9 14753.9 670.018  31
  -2  -3 -10 26134.1 968.126  26
   2  -3  10 26905.9 1743.16  12
  -2   3 -10 26042.9 1007.61  41
   2   3  10 25667.2 1100.21  40
  -2  -3 -10 24975.1 952.870  33
   2   3  10 25509.3 1009.28  18
  -2  -3 -10 26767.6 953.821  32
  -2  -3 -10 24867.6 959.664  31
  -2  -3 -10 23296.7 1630.59  17
  -2  -3 -11 8116.97 435.554  26
  -2   3 -11 8521.78 474.516  21
  -2   3 -11 8249.64 447.247  41
   2   3  11 8515.24 534.474  40
  -2  -3 -11 8337.92 445.510  33
   2   3  11 8270.52 464.462  18
  -2  -3 -11 8758.11 446.950  31
  -2  -3 -12 11294.5 508.038  26
   2   3  12 11749.1 610.084  40
  -2   3 -12 11952.7 550.085  21
   2   3  12 11913.5 532.127  18
  -2   3 -12 10600.6 478.671  41
  -2  -3 -12 10496.8 494.838  33
  -2  -3 -12 11653.5 508.011  31
  -2  -3 -13 1855.63 164.710  26
   2   3  13 1376.65 175.012  40
   2   3  13 1480.66 148.107  18
  -2   3 -13 1306.76 158.341  21
  -2  -3 -13 1378.13 141.512  31
  -2   4  13 3801.63 235.193  40
   2   4 -13 3688.84 227.579  41
  -2   4  12 498.106 101.655  36
  -2   4  12 657.914 129.929  40
  -2   4  12 670.828 103.879  18
  -2  -4  12 737.635 110.907  28
  -2   4  11 4435.54 340.096  40
  -2   4  11 3945.82 296.168  36
  -2   4  11 4566.83 286.271  18
  -2  -4  11 4050.58 280.402  28
   2  -4 -10 346.575 86.0059  31
  -2   4  10 278.828 102.373  18
  -2   4  10 266.195 125.220  40
  -2   4  10 255.138 108.156  36
   2  -4 -10 338.366 90.3283  33
  -2   4   9 23670.4 1021.44  40
  -2   4   9 23455.0 912.646  37
  -2   4   9 20274.4 940.894  36
  -2   4   9 24085.2 969.811  38
   2  -4  -9 22969.8 824.645  33
   2  -4  -9 23035.0 815.019  31
  -2   4   9 22808.7 882.805  18
  -2  -4   8 12595.6 1137.64  12
   2  -4  -8 12662.9 1101.05  13
  -2   4   8 12458.5 630.757  37
  -2   4   8 12605.2 654.503  38
  -2   4   8 12699.5 699.335  40
   2  -4  -8 12414.9 535.302  33
   2  -4  -8 12105.1 523.321  31
   2  -4  -7 3542.64 240.873  31
  -2   4   7 3109.58 307.773  38
  -2   4   7 3541.29 342.543  40
  -2  -4   7 2882.51 546.456  12
  -2   4   7 3483.86 323.355  37
   2  -4  -7 3235.19 241.321  33
  -2   4   7 2959.94 264.021  18
   2  -4  -7 3048.73 544.341  13
   2  -4  -6 3911.89 607.508  13
  -2   4   6 4579.77 384.419  37
  -2   4   6 3434.85 335.255  40
  -2  -4   6 3814.74 615.234  12
   2   4  -6 4157.67 722.018  10
  -2   4   6 4092.82 306.272  18
  -2   4   6 3878.89 340.533  38
   2   4  -5 71.1189 193.757  10
  -2   4   5 48.1149 89.5488  38
  -2   4   5-37.7283 94.7661  37
   2  -4  -5 105.048 127.991  13
  -2  -4   5-51.9012 167.307  12
  -2   4   5 32.6121 76.9463  40
  -2   4   5 11.6097 77.4774  18
   2  -4  -5 41.2992 112.517  16
  -2   4   4 4865.06 373.481  38
   2  -4  -4 5082.11 673.336  13
  -2  -4   4 4702.08 643.285  12
  -2   4   4 4837.06 374.862  40
   2  -4  -4 6217.95 661.222  16
  -2   4   4 5259.22 425.102  37
   2   4  -4 4687.28 772.239  10
  -2   4   4 4480.84 383.803  36
  -2   4   4 5191.21 330.143  18
  -2   4   3 4261.04 294.249  41
  -2  -4   3 4425.33 592.013  12
  -2   4   3 4374.69 344.310  38
  -2   4   3 4831.17 397.225  37
   2  -4  -3 4130.21 590.560  13
  -2   4   3 4360.04 364.462  36
   2   4  -3 4131.40 727.260  10
  -2   4   3 4947.77 307.062  18
   2  -4  -2 43480.4 2085.76  13
  -2  -4   2 48010.8 2078.35  12
  -2   4   2 47172.8 1476.99  41
  -2   4   2 39450.4 1583.69  37
  -2   4   2 43777.0 1554.59  36
  -2  -4   2 47132.0 2411.24   9
  -2   4   2 45695.0 1422.80  18
  -2   4   2 45808.6 1537.92  38
  -2   4   1 5411.62 380.391  36
  -2   4   1 6095.78 440.581  37
   2   4  -1 6575.85 403.870  36
  -2  -4   1 5874.29 615.783  12
  -2   4   1 5961.91 369.279  41
  -2  -4   1 5784.76 758.266   9
  -2   4   1 5907.40 314.010  18
  -2   4   1 5676.63 381.072  38
   2   4   0 3471.94 674.058  10
   2   4   0 5284.87 356.110  36
  -2   4   0 4859.23 333.516  41
  -2   4   0 4346.92 320.251  38
  -2   4   0 4620.11 381.899  37
  -2   4   0 4199.67 323.470  36
  -2  -4   0 4361.79 641.710   9
  -2   4  -1 3819.06 344.482  37
   2   4   1 4344.53 320.134  36
  -2   4  -1 3871.42 295.602  36
   2   4   1 3628.96 671.927  10
  -2   4  -1 4112.18 312.864  41
   2   4   1 3649.76 248.304  18
  -2  -4  -1 3538.65 557.765   9
  -2  -4  -1 3234.80 586.721  14
  -2   4  -2 2357.69 222.500  36
  -2  -4  -2 2331.76 511.399  14
   2   4   2 1720.68 456.279  10
  -2   4  -2 2401.64 268.591  37
   2   4   2 3060.31 269.055  36
   2   4   2 2530.82 217.258  18
  -2  -4  -2 2203.62 431.050   9
  -2   4  -2 2386.94 247.099  41
   2   4   3 510.789 111.641  18
  -2  -4  -3 575.574 253.244  14
  -2   4  -3 440.744 129.244  41
  -2  -4  -3 620.501 115.346  23
  -2   4  -3 628.380 146.529  37
   2   4   3 458.631 124.886  36
   2   4   3 604.382 327.583  10
  -2  -4  -4 5196.36 713.636  14
   2   4   4 5569.53 374.628  36
   2   4   4 5283.32 349.714  18
  -2   4  -5 76.3619 100.222  41
  -2  -4  -5 88.8259 65.8887  29
  -2  -4  -5 82.5625 70.0338  34
   2   4   5 131.223 84.6206  18
   2   4   5-13.3161 81.1418  36
  -2  -4  -5 45.5482 111.006  17
  -2  -4  -6 1777.97 181.205  34
  -2   4  -6 1333.51 211.501  41
  -2  -4  -6 1875.06 195.595  24
  -2   4  -6 1729.09 207.966  21
   2   4   6 1701.93 206.649  36
   2   4   6 1830.68 218.699  18
  -2  -4  -6 1675.29 172.886  29
  -2  -4  -6 1154.28 339.558  17
  -2  -4  -7 1171.63 144.694  34
   2   4   7 1647.73 253.251  40
  -2  -4  -7 1391.46 167.248  24
  -2  -4  -7 1137.00 166.697  32
  -2   4  -7 1241.97 187.040  21
  -2   4  -7 1314.00 208.749  41
   2   4   7 1411.21 181.687  36
   2   4   7 1532.96 198.323  18
  -2  -4  -7 1096.36 323.091  17
  -2  -4  -7 692.273 327.098  16
  -2  -4  -8 6284.32 394.430  26
  -2  -4  -8 6141.30 345.009  24
  -2   4  -8 6082.55 422.870  41
   2   4   8 6539.16 486.450  40
  -2   4  -8 6985.96 431.493  21
   2   4   8 6094.27 405.734  18
   2   4   8 6295.45 365.662  36
  -2  -4  -8 6515.96 383.543  32
  -2  -4  -8 6334.76 795.313  16
  -2  -4  -9 1497.48 152.475  24
   2   4   9 1558.72 239.232  40
  -2  -4  -9 1671.31 184.057  26
  -2   4  -9 1715.90 214.433  41
  -2  -4  -9 1342.04 162.516  32
  -2  -4 -10 7217.00 386.121  26
   2   4  10 6782.93 399.706  18
  -2   4 -10 6803.88 405.716  41
  -2  -4 -10 7815.58 413.193  33
  -2  -4 -11 9584.61 437.421  26
   2   4  11 10408.1 473.765  18
  -2  -4 -11 10260.6 455.688  33
  -2   4 -11 9321.65 447.552  41
  -2  -4 -12 1983.64 157.520  26
  -2   4 -12 1789.74 144.628  41
  -2  -4 -12 1614.49 159.857  33
   2   4  12 2173.16 169.991  18
   2   5 -11 534.964 87.8850  41
  -2   5  11 392.169 72.5463  36
  -2  -5  10 357.296 79.2419  25
   2   5 -10 519.840 106.928  41
  -2   5  10 494.854 94.5240  36
  -2  -5  10 469.364 85.6802  28
  -2  -5   9 4423.81 276.639  25
   2   5  -9 5397.30 335.654  41
  -2  -5   9 5141.43 288.522  28
  -2   5   9 4750.59 311.613  36
  -2  -5   9 4340.50 272.166  30
  -2   5   9 5315.17 287.375  18
  -2  -5   8 6117.63 343.704  25
  -2   5   8 6588.51 405.827  36
  -2   5   8 7365.02 406.154  37
  -2   5   8 6485.38 348.385  18
  -2  -5   8 6415.58 348.854  30
  -2  -5   8 6449.86 352.495  28
   2   5  -8 6515.72 406.228  41
   2   5  -7 2839.98 269.597  41
  -2   5   7 2723.96 236.213  38
  -2   5   7 3018.55 273.553  37
  -2  -5   7 2072.93 196.014  30
  -2   5   7 2763.78 272.209  36
  -2   5   7 2605.61 219.309  18
  -2   5   6 926.237 176.542  37
  -2   5   6 594.972 119.489  18
   2   5  -6 919.729 169.188  41
  -2  -5   6 656.962 115.556  30
  -2   5   6 869.947 148.092  38
  -2  -5   5 689.712 116.084  25
  -2   5   5 622.812 134.152  38
  -2   5   5 648.450 125.960  18
  -2   5   5 1018.30 192.167  36
   2   5  -5 659.474 144.144  41
  -2   5   5 566.871 162.231  37
   2   5  -4 5589.87 368.290  41
  -2   5   4 5724.27 424.876  37
  -2   5   4 5523.98 418.674  36
  -2   5   4 5176.66 347.683  38
  -2   5   4 5197.45 321.810  18
  -2   5   3 2011.14 213.692  38
   2   5  -3 2213.39 221.965  41
  -2   5   3 3021.04 298.184  36
  -2  -5   3 2300.78 508.413   9
  -2   5   3 2443.13 208.226  18
  -2   5   2 14322.7 718.455  36
  -2   5   2 15405.7 773.529  37
  -2   5   2 16626.9 662.601  41
  -2   5   1 6610.44 383.973  41
  -2   5   1 5755.94 439.480  37
  -2   5   1 5679.44 399.755  36
  -2  -5   1 6203.32 807.293   9
  -2  -5   0 7333.01 905.603  14
  -2   5   0 7058.60 438.412  36
  -2   5   0 7516.97 434.787  41
   2   5   0 8677.86 499.644  36
  -2  -5   0 6232.16 808.084   9
  -2   5   0 7738.33 507.040  37
   2   5   1 608.615 166.525  36
  -2  -5  -1 754.070 316.150  14
  -2   5  -1 1079.64 168.373  41
  -2   5  -1 466.143 124.456  36
  -2   5  -1 622.340 159.681  37
  -2  -5  -1 596.554 264.870   9
  -2  -5  -2 2209.65 487.904  14
  -2   5  -2 2182.71 250.845  37
   2   5   2 2169.80 245.009  36
  -2   5  -2 2048.58 210.521  36
  -2   5  -2 2105.37 233.665  41
  -2   5  -3 5019.45 361.187  41
  -2   5  -3 4329.03 329.387  37
   2   5   3 5470.55 375.239  36
   2   5   3 4377.23 287.681  18
  -2  -5  -4 2154.33 202.900  34
  -2   5  -4 1910.68 226.103  41
   2   5   4 2341.92 211.859  18
   2   5   4 1926.88 223.317  36
  -2  -5  -4 2079.52 192.693  29
  -2  -5  -5 10520.5 476.379  34
  -2  -5  -5 10906.3 500.928  24
  -2   5  -5 10360.7 558.817  41
   2   5   5 11365.2 549.233  36
   2   5   5 10694.7 515.509  18
  -2  -5  -6 1434.99 157.645  24
   2   5   6 1344.22 177.848  36
  -2  -5  -6 1634.37 178.377  32
   2   5   6 1836.53 194.018  18
  -2  -5  -7 20.8005 69.4285  26
  -2  -5  -7 93.0377 57.8681  24
   2   5   7 65.2971 74.5493  36
   2   5   7 31.5730 65.4083  18
  -2   5  -7 99.7311 89.8770  41
  -2  -5  -7 111.981 71.0266  32
  -2  -5  -8 282.602 89.6583  26
  -2   5  -8 306.124 105.966  41
   2   5   8 399.364 93.8495  36
  -2  -5  -8 209.126 74.0429  32
  -2  -5  -8 231.835 86.7753  31
   2   5   8 228.041 85.3647  18
  -2   5  -9 2319.98 199.331  41
  -2  -5  -9 1841.16 162.091  26
   2   5   9 2316.52 188.120  18
  -2  -5  -9 2101.94 178.569  31
  -2   5 -10 8979.80 394.294  41
  -2  -5 -10 9437.15 383.294  31
  -2   5 -11 1415.95 105.438  41
  -2   6   8 1745.90 129.256  36
  -2   6   6 1684.88 160.333  36
   2   6  -6 4.10397 10.0042  41
  -2   6   5 8544.80 416.019  37
  -2   6   5 9024.83 423.318  36
  -2  -6   4 10448.6 434.066  27
  -2   6   4 13827.7 557.707  36
  -2   6   3 9687.68 487.521  37
  -2   6   3 9596.99 469.204  36
  -2   6   2 11.7617 78.4958  37
  -2   6   2-59.9763 97.4369  36
  -2   6   1 2727.17 241.729  37
  -2   6   1 2266.21 204.879  36
  -2   6   0 1691.66 179.777  36
  -2   6   0 1432.15 145.769  41
  -2   6   0 1748.39 195.005  37
  -2   6  -1 3451.22 227.634  41
  -2   6  -1 3420.46 251.840  37
  -2   6  -2 610.300 112.662  41
  -2  -6  -2 458.788 84.1340  34
  -2  -6  -3 9432.76 411.047  24
  -2   6  -3 11742.8 481.425  41
  -2   6  -4 9645.94 423.056  41
  -2  -6  -4 8037.15 368.671  32
  -2  -6  -5 1605.22 141.214  26
  -2   6  -5 1854.03 166.938  41
  -2  -6  -5 1532.46 132.625  32
  -2   6  -6 1074.37 126.946  41
  -2   6  -7 5.48290 46.2829  41
   3   0 -16 4423.65 240.260   7
   3   0 -15 197.845 90.3457   7
   3   0 -14 1449.03 192.481   7
  -3   0  14 1380.01 214.205  40
  -3   0  13 1883.28 279.277  35
  -3   0  13 1888.83 260.789  40
   3   0 -13 1980.26 234.145   8
   3   0 -12 232.488 116.357   8
  -3   0  12 177.690 118.086  35
  -3   0  11 29971.3 1052.69  30
   3   0 -11 28213.6 1170.08   8
  -3   0  10 28047.6 1007.68  25
  -3   0  10 30083.5 1043.91  30
   3   0 -10 30356.1 1163.93   8
  -3   0   9 49696.3 1573.54  25
  -3   0   9 49977.4 1541.88  28
  -3   0   9 50567.2 1597.38  30
   3   0  -9 51485.9 1711.75   8
   3   0  -8 141.833 84.6310   8
  -3   0   8 78.0020 65.1343  25
  -3   0   8 37.4960 63.6317  30
   3   0  -8 97.9226 59.6979  31
  -3   0   8 96.8793 58.1838  28
   3   0  -7 90.0354 73.8844   8
  -3   0   7 168.822 65.0185  25
   3   0  -7 62.0975 55.8176  31
  -3   0   7 77.8792 63.3065  30
  -3   0   7 83.1052 54.7396  28
  -3   0   6 4879.44 270.791  25
  -3   0   6 4987.48 256.913  28
  -3   0   6 4453.69 225.466  27
   3   0  -6 4725.55 243.008  31
  -3   0   6 4861.38 277.805  30
  -3   0   5 18330.5 653.795  25
  -3   0   5 19716.9 675.411  30
   3   0  -5 18525.6 1111.43   3
  -3   0   5 17130.2 690.181   9
  -3   0   5 18168.5 634.991  28
  -3   0   4 120035. 3401.05  25
  -3   0   4 123783. 3501.72   9
   3   0  -4 119554. 4026.06   3
  -3   0   4 118267. 3407.84  30
  -3   0   4 125943. 3383.30  28
   3   0  -3 6146.24 547.533   3
  -3   0   3 5188.84 246.071  28
  -3   0   2 50739.1 1985.23  11
  -3   0   1 1599.64 146.464  14
  -3   0   1 2039.43 297.138  11
  -3   0   0 62355.9 2258.66  11
  -3   0  -1 507.558 178.161  11
  -3   0  -1 524.616 73.0061  16
  -3   0  -2 169634. 5042.67  15
  -3   0  -2 156125. 4929.54   2
  -3   0  -2 159240. 4418.98  16
  -3   0  -3 268788. 7679.46  23
  -3   0  -3 293710. 7650.10  34
  -3   0  -3 293519. 8399.68  15
  -3   0  -3 288662. 8326.66   2
  -3   0  -4 8350.09 332.198  32
  -3   0  -4 8315.50 343.107  24
  -3   0  -4 8670.25 351.207  34
  -3   0  -4 7890.38 664.864   2
  -3   0  -5 39822.7 1197.82  26
  -3   0  -5 39568.6 1260.92  23
  -3   0  -5 40610.8 1833.86   2
  -3   0  -5 39996.2 1230.50  24
  -3   0  -5 41101.6 1217.35  32
  -3   0  -6 108384. 2990.69  26
  -3   0  -6 108520. 3136.58   4
  -3   0  -6 103972. 3019.06  34
  -3   0  -6 110219. 3064.70  23
  -3   0  -6 104070. 2955.07  31
  -3   0  -7 528.800 88.8373  26
  -3   0  -7 399.195 119.003   4
  -3   0  -7 551.936 100.015  34
  -3   0  -7 315.209 75.9655  33
  -3   0  -7 432.344 75.2024  31
  -3   0  -7 418.461 102.319  23
   3   0   8 12694.1 1114.08   1
  -3   0  -8 12945.5 527.159  26
  -3   0  -8 13085.0 648.672   4
  -3   0  -8 12842.5 575.021  23
  -3   0  -8 11925.1 486.962  31
  -3   0  -8 13790.9 563.447  34
  -3   0  -9 156.871 76.2979  26
  -3   0  -9 193.528 94.3989  23
  -3   0  -9 98.4676 109.550   4
   3   0   9 62.1863 151.557   1
  -3   0  -9 45.3945 53.0174  31
  -3   0 -10 67100.5 1961.75  26
   3   0  10 62845.0 3056.48   1
  -3   0 -10 63528.9 1895.89  31
  -3   0 -10 63254.6 2016.96  23
  -3   0 -11 153683. 6027.90   2
  -3   0 -11 174133. 4846.09  26
  -3   0 -11 172753. 4911.80  23
   3   0  11 172828. 6226.20   1
  -3   0 -11 170984. 4780.78  31
  -3   0 -12 1289.33 161.770  26
  -3   0 -12 956.305 161.988  23
  -3   0 -12 1002.20 131.648  31
  -3   0 -13 2988.50 231.187  26
  -3   0 -13 2821.65 243.539  21
   3   0  13 3053.23 282.809   5
  -3   0 -14 29706.4 1028.53  21
   3   0  14 32850.1 1126.93   5
   3   0  15 13355.7 550.367   5
   3  -1 -16 872.714 92.6704   7
   3   1 -16 782.111 90.2442   7
  -3   1  16 951.680 115.710  40
  -3  -1  16 1129.88 127.221  40
   3  -1 -15 3038.70 229.229   7
   3   1 -15 3234.30 229.697   7
  -3  -1  15 3463.58 273.897  40
  -3   1  15 3097.01 260.604  40
   3  -1 -14 1182.33 172.140   7
   3   1 -14 1075.29 158.934   7
  -3   1  14 1580.36 219.766  40
  -3  -1  13 2118.82 201.554  25
  -3   1  13 3321.61 328.206  40
  -3  -1  13 3007.57 323.639  35
  -3  -1  13 2899.53 249.282  30
  -3  -1  12 15505.4 671.270  25
   3   1 -12 15792.1 752.714   8
  -3   1  12 16688.2 827.741  40
   3  -1 -12 15640.4 753.762   8
  -3  -1  12 15509.4 697.034  30
  -3  -1  12 15967.9 839.915  35
  -3  -1  12 15489.0 620.002  28
  -3  -1  11 13281.1 608.751  25
  -3   1  11 12236.7 700.208  40
  -3   1  11 12412.0 732.571  35
   3  -1 -11 13045.3 575.880  31
   3  -1 -11 13255.0 670.606   8
   3   1 -11 12800.4 664.617   8
  -3  -1  11 12030.9 551.176  28
  -3  -1  11 12102.8 729.807  35
  -3   1  10 14712.4 771.446  40
  -3   1  10 14405.1 701.396  38
  -3   1  10 16371.9 826.955  35
   3  -1 -10 14702.6 726.744   8
   3  -1 -10 15970.6 645.924  31
  -3   1  10 15152.0 607.640  18
   3   1 -10 15823.0 746.057   8
  -3  -1  10 16182.9 655.919  28
   3  -1  -9 1836.42 158.551  26
  -3   1   9 1223.40 188.698  38
  -3   1   9 1490.13 226.967  35
   3  -1  -9 1505.32 161.488  31
  -3   1   9 1537.16 157.795  18
   3  -1  -9 1657.14 218.884   8
   3   1  -9 1707.03 209.538   8
  -3  -1   9 1632.63 177.396  28
   3  -1  -8 22282.1 909.171   8
  -3   1   8 24209.0 940.734  38
   3   1  -8 21511.1 1297.02  10
   3  -1  -8 24565.5 820.440  31
  -3   1   8 22556.4 968.248  35
  -3   1   8 23361.6 820.167  18
  -3  -1   8 22888.2 847.483  28
   3   1  -8 24196.1 933.958   8
  -3   1   7 60770.8 1920.13  38
   3   1  -7 56705.9 2456.13  10
  -3   1   7 59392.1 1936.86  35
  -3   1   7 57644.9 1785.74  18
   3  -1  -7 60544.4 1767.42  31
  -3  -1   7 60669.7 1818.63  28
   3  -1  -7 62302.2 1899.67   8
   3   1  -7 60047.6 1890.53   8
   3   1  -6 12515.3 951.056   3
   3  -1  -6 14806.2 1013.50   3
  -3   1   6 13968.4 540.821  18
   3  -1  -6 14740.8 509.457  31
  -3   1   6 13874.8 524.348  30
  -3  -1   6 14167.8 558.574  28
   3   1  -5 34461.9 1634.14   3
   3  -1  -5 35399.5 1647.04   3
  -3   1   5 36692.7 1091.49  18
  -3   1   5 34278.0 1068.65  30
  -3  -1   5 32275.4 1089.17  28
   3  -1  -4 16972.8 1007.45   3
  -3   1   4 17309.7 583.740  18
  -3  -1   3 39157.4 1230.08  25
  -3  -1   3 35895.1 1551.37   9
  -3   1   3 41070.7 1204.71  18
  -3  -1   3 39195.3 1207.75  28
   3  -1  -3 43811.4 1752.24   3
   3   1  -3 39817.9 1693.65   3
  -3  -1   2 61363.8 1720.48  25
  -3   1   2 57064.2 2063.88  11
  -3  -1   2 62398.5 2134.97   9
  -3  -1   2 56815.3 1715.37  30
  -3  -1   2 56395.6 1683.26  28
  -3  -1   2 57676.1 2291.29  11
  -3   1   1 32161.3 1322.42  11
  -3  -1   1 32034.2 1514.50  11
  -3  -1   1 34726.8 1397.57   9
  -3  -1   1 32960.3 1018.60  27
  -3   1   0 193611. 5775.21  11
  -3  -1   0 185381. 5988.96  11
  -3   1  -1 4632.30 442.902  15
  -3  -1  -1 3433.62 404.271  15
  -3  -1  -1 3665.67 363.576  14
  -3  -1  -1 4107.79 482.707  11
  -3  -1  -1 3909.88 202.936  19
  -3  -1  -2 115384. 3242.21  27
  -3   1  -2 100134. 3750.79  15
  -3  -1  -2 97579.0 3764.60  15
  -3  -1  -2 113267. 3763.11   2
  -3  -1  -2 127654. 3739.26  14
  -3  -1  -2 116397. 3288.63  23
  -3  -1  -2 117839. 3253.01  22
  -3  -1  -2 119459. 4000.32  11
  -3   1  -2 123589. 3821.58   2
  -3  -1  -2 126101. 3279.16  20
  -3  -1  -2 116614. 3238.59  19
  -3  -1  -3 13399.7 904.310  15
  -3   1  -3 15170.6 941.627  15
  -3  -1  -3 13953.4 539.286  23
  -3  -1  -3 15073.0 521.113  22
  -3   1  -3 14023.3 522.351  23
  -3  -1  -3 13997.0 518.179  20
  -3  -1  -3 15705.2 921.561   2
  -3   1  -3 14150.7 891.060   2
  -3   1  -3 14193.2 506.514  34
  -3  -1  -4 19637.5 697.336  24
  -3  -1  -4 21771.8 744.218  23
  -3   1  -4 19904.4 713.174  23
  -3  -1  -4 20506.4 696.347  22
  -3   1  -4 21296.5 706.003  34
  -3  -1  -4 20870.1 1161.59   2
  -3   1  -4 21591.1 1177.51   2
  -3  -1  -4 20676.4 713.881  29
  -3  -1  -4 19921.7 1000.97  16
  -3   1  -5 26377.5 841.991  26
  -3  -1  -5 27559.8 940.689  23
  -3   1  -5 25773.2 914.415  23
   3   1   5 27002.6 1277.62  10
  -3  -1  -5 27591.1 1268.81  16
  -3  -1  -5 26810.0 903.233  34
  -3  -1  -5 28607.1 909.837  32
  -3  -1  -5 26892.1 1366.93  17
  -3  -1  -5 29407.3 925.062  29
  -3  -1  -5 29083.6 1468.84   2
  -3   1  -5 27938.2 1437.61   2
  -3  -1  -6 65012.4 2643.46   2
  -3   1  -6 62610.7 2606.51   2
  -3  -1  -6 61797.7 1900.50  26
  -3   1  -6 64151.0 1850.41  26
  -3  -1  -6 64060.2 1998.69   4
  -3  -1  -6 59241.3 2174.11  13
  -3   1  -6 66133.0 2011.95   4
  -3  -1  -6 64057.4 1908.12  24
  -3  -1  -6 63259.6 1939.72  23
  -3  -1  -6 66587.5 1916.17  34
  -3  -1  -6 62825.4 1902.86  32
  -3  -1  -6 72254.3 2641.32  17
  -3  -1  -7 8160.59 394.796  26
  -3  -1  -7 10253.5 897.351   2
  -3   1  -7 8824.08 838.703   2
  -3   1  -7 8214.02 365.495  26
  -3  -1  -7 8676.10 406.488  24
  -3  -1  -7 8537.57 471.265   4
  -3   1  -7 8878.43 480.040   4
  -3  -1  -7 7878.32 409.090  23
  -3  -1  -7 8152.49 397.524  34
  -3  -1  -7 7478.29 365.677  33
  -3  -1  -7 8278.81 397.161  32
  -3  -1  -7 8024.21 384.674  31
  -3  -1  -7 7607.88 748.444  17
  -3  -1  -8 1195.82 145.949  26
  -3   1  -8 929.431 121.191  26
   3   1   8 765.021 320.292   1
  -3  -1  -8 1091.21 143.821  24
   3  -1   8 839.080 313.342   1
  -3  -1  -8 946.615 139.130  23
  -3   1  -8 1004.02 152.878  23
  -3  -1  -8 1085.69 178.746   4
  -3   1  -8 874.110 166.373   4
  -3  -1  -8 850.194 125.891  34
  -3  -1  -8 882.206 128.335  32
  -3  -1  -8 776.051 121.613  31
  -3  -1  -8 1466.83 358.497  17
  -3  -1  -8 1002.69 151.630  33
  -3  -1  -9 23679.4 828.541  33
  -3  -1  -9 23667.5 864.629  26
  -3  -1  -9 21810.8 1547.35   2
  -3   1  -9 26318.6 1677.49   2
  -3   1  -9 23157.4 836.215  26
  -3  -1  -9 22495.5 880.412  23
  -3   1  -9 23112.4 918.419  23
  -3  -1  -9 22888.0 982.841   4
  -3   1  -9 22988.0 983.824   4
  -3  -1  -9 23520.9 866.965  34
  -3  -1  -9 23499.3 840.933  31
   3   1   9 21978.8 1585.64   1
  -3  -1  -9 22876.5 1456.30  17
   3  -1   9 23416.5 1643.03   1
  -3  -1 -10 1132.17 158.425  26
  -3   1 -10 1189.94 154.358  26
  -3   1 -10 692.619 344.123   2
   3   1  10 1413.37 415.047   1
  -3   1 -10 1030.15 172.903  23
  -3  -1 -10 561.689 323.711   2
   3  -1  10 787.445 330.727   1
  -3  -1 -10 1278.50 161.467  34
  -3  -1 -10 1267.31 170.722  23
  -3  -1 -10 504.553 133.661  33
  -3  -1 -10 1037.52 143.253  31
  -3  -1 -10 1155.07 324.876  17
   3   1  11 4680.16 321.450  18
  -3  -1 -11 4657.25 313.111  26
  -3  -1 -11 4062.24 693.720   2
  -3   1 -11 3313.10 646.924   2
  -3   1 -11 4631.26 344.553  23
   3   1  11 4220.24 726.568   1
   3  -1  11 3835.13 689.628   1
  -3  -1 -11 4585.71 316.633  23
  -3  -1 -11 4927.96 298.561  31
  -3  -1 -12 27175.6 988.237  26
  -3   1 -12 29477.2 1073.57  21
  -3  -1 -12 27174.0 987.241  23
   3   1  12 27141.4 1084.06   5
   3  -1  12 28696.2 1102.66   5
  -3  -1 -12 27069.3 950.034  31
  -3  -1 -13 6727.25 361.911  26
  -3  -1 -13 6728.74 333.186  31
  -3   1 -13 7201.69 402.424  21
   3  -1  13 6732.60 419.475   5
   3   1  13 6501.06 415.429   5
  -3  -1 -14 7487.73 354.540  26
  -3   1 -14 7136.27 368.946  21
   3  -1  14 7892.16 410.642   5
   3   1  14 7058.07 398.314   5
  -3   2  15 5207.88 263.089  40
  -3  -2  15 5637.95 284.713  40
  -3  -2  14 9287.54 417.279  25
   3  -2 -14 9528.85 430.884   7
   3   2 -14 10641.4 453.079   7
  -3  -2  14 9757.07 442.540  30
  -3  -2  13 28096.5 994.704  25
   3  -2 -13 25800.4 979.087   7
   3   2 -13 27995.5 1004.49   7
  -3   2  13 30176.9 1130.93  40
  -3  -2  13 27679.4 1092.97  35
  -3  -2  13 28276.4 1016.30  30
  -3  -2  13 26635.1 921.842  28
  -3  -2  12 38905.3 1329.91  25
  -3   2  12 37853.5 1449.31  40
  -3  -2  12 40361.0 1469.90  35
   3  -2 -12 36043.1 1231.79  31
  -3  -2  12 38228.8 1271.95  28
   3  -2 -11 124.536 92.4265   8
   3   2 -11 56.9619 96.6842   8
  -3   2  11 176.474 114.045  38
  -3  -2  11 235.474 133.174  35
  -3  -2  11 210.782 97.8928  28
  -3   2  11 158.490 132.267  40
   3  -2 -11 104.079 71.1736  31
  -3   2  11 218.326 92.9585  18
  -3   2  10 32433.8 1294.00  40
  -3   2  10 30072.3 1198.80  38
  -3   2  10 29225.7 1064.11  18
   3  -2 -10 30372.5 1038.81  31
   3  -2 -10 30806.8 1146.74   8
   3   2 -10 28593.0 1137.10   8
  -3  -2  10 32291.9 1121.08  28
  -3   2   9 21182.2 909.098  38
  -3   2   9 21295.9 947.321  40
  -3   2   9 18982.9 765.457  18
   3  -2  -9 19566.5 724.664  31
   3   2  -9 18994.4 823.478   8
   3  -2  -9 18553.5 808.332   8
  -3  -2   9 19800.5 796.683  28
   3  -2  -8 2299.59 451.150  13
  -3   2   8 2152.15 258.495  40
  -3   2   8 1551.84 227.358  38
  -3   2   8 2217.40 263.131  35
  -3   2   8 1916.61 194.956  18
   3  -2  -8 1985.27 168.343  31
   3  -2  -8 1717.73 203.611   8
   3   2  -8 1902.79 212.351   8
   3   2  -7 27766.3 1033.94   8
   3  -2  -7 26654.3 1522.17  13
  -3   2   7 30069.5 1137.28  40
  -3   2   7 28750.3 1128.52  38
  -3   2   7 27495.7 1100.19  35
   3  -2  -7 28334.5 937.952  33
   3   2  -7 27602.3 1674.22  10
  -3   2   7 29522.2 1015.51  18
   3  -2  -7 29298.2 935.024  31
   3  -2  -7 29024.7 1038.13   8
   3  -2  -6 15389.9 1017.79  13
   3   2  -6 14319.5 1151.31  10
  -3   2   6 13802.9 685.220  38
   3  -2  -6 14819.8 531.475  33
  -3   2   6 14791.6 605.903  18
  -3   2   5 4641.41 344.609  38
   3  -2  -5 4426.24 494.366  13
   3   2  -5 4652.80 630.783  10
   3   2  -5 3394.78 458.638   3
  -3   2   5 4861.26 284.923  18
   3   2  -4 73176.1 3170.54  10
   3  -2  -4 75941.8 2831.59   3
   3   2  -4 75855.4 2854.53   3
  -3   2   4 81718.4 2348.40  18
   3   2  -3 2483.10 446.443  10
   3  -2  -3 2228.36 307.352  13
  -3  -2   3 2570.38 430.897  11
   3  -2  -3 2682.46 360.871   3
   3   2  -3 1959.98 319.410   3
  -3  -2   2 7897.48 377.602  25
   3  -2  -2 9549.82 590.207  13
  -3  -2   2 8247.17 747.623  11
  -3  -2   2 9583.30 751.963   9
  -3   2   2 8393.37 367.024  18
  -3  -2   2 8430.33 387.548  30
  -3  -2   2 8148.70 361.538  28
   3  -2  -2 7976.48 624.513   3
   3   2  -2 8937.40 653.405   3
  -3  -2   1 12519.3 490.927  25
   3  -2  -1 12397.9 776.100   3
   3  -2  -1 12781.5 652.581  13
   3   2  -1 12968.4 1013.35  10
  -3  -2   1 12038.8 906.706  11
  -3  -2   1 12700.3 880.783   9
  -3   2   1 12412.1 471.207  18
  -3  -2   1 12767.8 499.398  30
  -3  -2   1 11310.3 454.587  28
  -3   2   0 91011.3 2970.17  15
  -3  -2   0 85128.3 2959.21  15
  -3  -2   0 86117.9 2482.02  25
  -3  -2   0 86184.7 2488.19  30
   3  -2   0 85938.8 2643.86  13
  -3  -2   0 94057.2 3287.36  11
  -3  -2   0 87132.1 2450.14  28
   3   2   0 93934.6 3434.33  10
  -3   2  -1 80293.0 2769.71  15
  -3  -2  -1 78913.7 2768.61  15
  -3  -2  -1 73153.2 2858.38  14
  -3  -2  -1 79714.7 3037.36  11
  -3  -2  -1 76964.4 2281.11  20
   3   2   1 73787.9 3050.01  10
  -3  -2  -1 81082.6 2275.08  27
  -3  -2  -1 80636.8 2275.56  19
  -3  -2  -2 33313.8 1489.36  15
  -3   2  -2 32828.5 1474.88  15
  -3  -2  -2 33980.7 1590.35  14
  -3   2  -2 32170.1 1021.25  23
  -3  -2  -2 36176.5 1748.50  11
   3   2   2 32237.0 1702.40  10
  -3  -2  -2 35854.1 1059.81  20
  -3  -2  -2 31155.2 1027.37  19
  -3  -2  -2 32303.0 1027.81  27
  -3  -2  -3 10119.9 401.836  27
  -3  -2  -3 9911.29 782.739  14
  -3  -2  -3 9973.93 449.732  23
  -3   2  -3 10242.9 725.567   2
  -3  -2  -3 10041.9 423.496  22
  -3  -2  -3 10079.9 412.919  20
   3   2   3 9494.43 841.138  10
  -3  -2  -3 10109.9 399.160  19
  -3   2  -3 10466.1 432.553  23
  -3  -2  -4 13352.6 548.241   4
  -3   2  -4 12331.3 533.439   4
  -3  -2  -4 12544.0 919.380  17
  -3  -2  -4 12809.4 540.118  23
  -3   2  -4 13811.5 898.134   2
  -3   2  -4 14001.7 546.124  23
  -3  -2  -4 13622.9 535.775  34
  -3  -2  -4 11981.5 835.531   2
   3   2   4 12148.8 948.627  10
  -3  -2  -4 13001.5 495.589  20
  -3  -2  -4 12720.4 505.459  22
  -3  -2  -4 13069.0 529.747  29
  -3  -2  -5 16199.4 673.656   4
  -3   2  -5 16601.5 675.199   4
  -3  -2  -5 17643.8 657.835  24
  -3  -2  -5 16720.4 644.670  34
  -3   2  -5 17810.5 679.357  23
  -3  -2  -5 16860.0 617.747  22
  -3   2  -5 17387.6 1087.88   2
  -3  -2  -5 18013.2 1097.09   2
  -3  -2  -5 16219.4 660.228  23
   3   2   5 16492.3 1076.88  10
  -3  -2  -5 19003.9 1192.61  17
  -3  -2  -5 17310.0 655.204  29
  -3  -2  -5 15005.7 1034.33  16
  -3  -2  -6 22060.5 793.020  24
  -3  -2  -6 20424.5 822.845   4
  -3   2  -6 20515.2 818.795   4
  -3  -2  -6 21172.7 803.582  23
   3   2   6 21628.9 884.598  40
  -3   2  -6 21282.8 818.275  23
  -3   2  -6 21384.9 824.994  41
  -3  -2  -6 20605.4 774.128  34
  -3  -2  -6 21002.7 790.994  32
  -3  -2  -6 21692.1 1299.80   2
  -3   2  -6 20723.8 1266.88   2
  -3  -2  -6 19867.1 1326.52  17
  -3  -2  -6 23332.9 803.403  29
  -3  -2  -6 20322.8 1266.58  16
  -3  -2  -7 28660.7 1031.76  26
  -3  -2  -7 29588.0 1022.81  24
  -3   2  -7 29591.8 1063.72  41
  -3  -2  -7 28758.6 1027.96  23
  -3  -2  -7 28574.6 1084.34   4
  -3   2  -7 29572.7 1087.38   4
   3   2   7 29377.0 1130.77  40
  -3   2  -7 30315.8 1078.04  23
   3  -2   7 28622.3 1618.15   1
   3   2   7 29312.9 1670.03   1
  -3  -2  -7 30591.2 1016.80  34
  -3  -2  -7 27882.0 1596.98   2
  -3   2  -7 27038.6 1583.77   2
  -3  -2  -7 31382.2 1617.65  16
  -3  -2  -8 8434.16 451.207  26
  -3  -2  -8 9584.02 455.325  24
  -3   2  -8 7997.92 449.456  41
  -3  -2  -8 9939.01 523.901   4
  -3   2  -8 9081.78 505.818   4
  -3  -2  -8 9277.88 452.669  23
  -3   2  -8 8912.34 486.894  23
   3   2   8 8926.23 521.035  40
  -3  -2  -8 8692.31 433.789  34
  -3  -2  -8 8843.17 908.050  17
  -3   2  -8 8246.79 847.758   2
   3   2   8 8756.72 888.948   1
   3  -2   8 8925.64 879.082   1
  -3  -2  -8 8607.73 861.916   2
  -3  -2  -9 30823.8 1124.43  26
  -3  -2  -9 34962.4 1139.27  24
   3   2   9 32960.0 1242.86  40
  -3  -2  -9 31532.0 1112.01  23
  -3  -2  -9 31056.5 1098.02  34
   3   2   9 30648.2 1843.08   1
   3  -2   9 30232.9 1809.63   1
  -3  -2  -9 32691.9 1109.21  33
  -3  -2  -9 31882.1 1120.27  31
  -3  -2  -9 30757.6 1800.67   2
  -3  -2  -9 34088.7 1937.87  17
  -3   2  -9 34829.6 1917.71   2
  -3  -2 -10 22044.1 841.174  26
   3   2  10 21791.1 1525.70   1
   3   2  10 22205.5 939.130  40
  -3  -2 -10 22388.7 827.632  23
  -3  -2 -10 22153.5 822.651  34
  -3  -2 -10 21288.8 809.257  33
   3  -2  10 21496.2 1498.20   1
  -3  -2 -10 21584.2 824.842  31
  -3  -2 -10 19409.7 1423.05   2
  -3   2 -10 20374.0 1484.49   2
  -3  -2 -10 20682.5 1476.06  17
  -3  -2 -11 1336.07 164.221  26
   3   2  11 1542.69 210.270  40
  -3   2 -11 1389.96 192.896  21
   3   2  11 1574.16 201.148   5
   3  -2  11 1521.22 193.935   5
  -3  -2 -11 792.882 158.309  33
  -3  -2 -11 1245.27 155.368  31
   3   2  11 988.853 164.465  18
  -3  -2 -12 1552.99 169.561  26
   3   2  12 1466.35 187.321  40
   3   2  12 1829.97 192.985  18
   3   2  12 1809.06 203.405   5
   3  -2  12 1625.90 193.101   5
  -3  -2 -12 1638.41 164.933  31
  -3   2 -12 1877.80 206.728  21
   3   2  13 155.648 78.7314   5
   3  -2  13 84.0696 72.9936   5
  -3  -2 -13 203.786 77.0432  26
  -3   2 -13 236.420 88.6564  21
  -3  -2 -13 247.234 71.1225  31
   3   2  13 90.7355 56.9433  18
  -3  -2 -14 292.751 69.6496  26
  -3   2 -14 355.152 84.7992  21
  -3   3  14 6392.43 315.240  40
  -3  -3  13 2574.03 207.014  25
  -3   3  13 2414.36 221.832  40
  -3  -3  13 2132.58 185.793  35
  -3  -3  13 2242.02 206.568  30
  -3  -3  13 2068.50 170.103  28
  -3  -3  12 8699.24 458.580  25
  -3   3  12 8170.65 489.965  40
  -3  -3  12 8294.87 464.147  35
  -3  -3  12 9363.07 481.751  30
  -3  -3  12 8893.18 430.199  28
  -3   3  11 31546.9 1278.05  40
  -3   3  11 35639.3 1289.27  38
  -3  -3  11 34983.3 1274.14  35
  -3   3  11 33349.7 1150.05  18
  -3  -3  11 33250.4 1174.17  28
  -3   3  10 16915.2 836.915  40
  -3   3  10 16811.7 819.174  38
  -3   3  10 18333.7 734.048  18
  -3  -3  10 17887.6 751.339  28
   3  -3  -9 19307.0 1373.50  13
  -3   3   9 20346.2 939.512  40
  -3   3   9 20478.7 821.707  18
  -3   3   9 20577.0 934.575  38
   3  -3  -8 5297.84 688.768  13
  -3   3   8 5400.73 416.285  40
  -3   3   8 5151.25 418.118  38
  -3   3   8 5273.25 383.787  37
   3  -3  -8 4790.08 281.704  33
  -3   3   8 5258.98 348.001  18
   3  -3  -7 1407.37 341.151  13
  -3   3   7 1719.57 232.372  40
  -3   3   7 1600.31 225.675  37
   3   3  -7 1811.25 446.009  10
   3  -3  -7 1543.37 150.504  33
  -3   3   7 2284.33 222.673  18
   3  -3  -6 6367.26 692.724  13
  -3  -3   6 8015.03 846.869  12
  -3   3   6 6376.24 425.399  40
  -3   3   6 6877.76 474.985  37
   3   3  -6 5360.45 788.656  10
  -3   3   6 7220.67 405.163  18
  -3  -3   5 166.199 165.536  11
   3  -3  -5 274.542 178.982  13
  -3  -3   5 441.563 260.690  12
  -3   3   5 336.012 128.091  38
  -3   3   5 302.034 120.797  37
   3   3  -5 461.865 241.308  10
   3  -3  -4 4910.84 559.506  13
  -3   3   4 4697.11 369.707  38
  -3   3   4 4079.45 362.425  37
  -3   3   4 4781.48 299.899  18
  -3  -3   4 4050.43 621.634  11
   3   3  -4 3604.29 659.474  10
   3  -3  -3 36240.0 1626.38  13
  -3   3   3 36031.3 1183.30  41
   3   3  -3 37136.3 2132.85  10
  -3  -3   3 31581.7 1788.73  11
  -3   3   3 32238.0 1293.23  37
  -3  -3   3 31062.4 1816.53   9
  -3   3   3 35737.1 1154.12  18
  -3   3   3 32263.2 1267.02  38
  -3  -3   2 9714.91 449.214  25
   3  -3  -2 9404.88 705.149  13
  -3   3   2 8470.79 529.968  37
  -3  -3   2 9980.13 882.075  11
  -3   3   2 9736.89 470.955  41
  -3   3   2 9180.98 530.878  38
  -3   3   2 10341.7 442.753  18
  -3  -3   2 9340.03 448.591  30
  -3  -3   2 9205.75 421.655  28
  -3  -3   1 3266.71 223.909  25
   3  -3  -1 2840.31 357.542  13
  -3   3   1 3411.03 259.815  41
  -3  -3   1 3187.79 495.719  11
   3   3  -1 3125.78 582.552  10
  -3   3   1 3059.33 215.747  18
  -3   3   1 2993.56 283.530  38
  -3  -3   1 3271.03 227.618  30
  -3  -3   1 3241.47 209.784  28
  -3  -3   0 21725.1 782.813  25
  -3   3   0 22610.6 950.218  37
   3   3   0 24641.5 874.474  36
  -3   3   0 23700.8 879.376  41
   3   3   0 25603.6 1683.26  10
  -3  -3   0 25285.8 1477.27   9
  -3   3   0 22829.1 935.624  38
  -3  -3   0 21345.2 1369.94  11
  -3  -3  -1 900.475 279.322  14
  -3   3  -1 1373.53 195.771  37
  -3  -3  -1 1572.02 360.698   9
  -3  -3  -1 1448.27 148.451  20
   3   3   1 1427.78 167.009  36
  -3   3  -1 1353.04 193.781  38
  -3  -3  -1 1177.78 328.552  11
   3   3   1 1346.17 403.134  10
  -3  -3  -1 1422.42 147.943  27
  -3   3  -2 2099.18 244.752  37
  -3  -3  -2 1710.00 400.037  14
  -3   3  -2 1853.77 201.668  41
  -3   3  -2 1669.78 152.783  21
  -3  -3  -2 2000.47 168.520  20
   3   3   2 2107.10 198.767  36
  -3  -3  -2 2006.58 170.191  19
   3   3   2 2077.49 487.818  10
  -3  -3  -2 2261.61 418.144   9
  -3  -3  -2 1927.64 163.205  27
  -3   3  -3 11.9501 65.1174  41
  -3   3  -3-16.3553 50.8088  21
  -3   3  -3 30.8414 72.7704  37
   3   3   3 99.7871 71.9305  36
   3   3   3 57.0529 155.437  10
  -3  -3  -3 27.3032 49.9034  19
  -3  -3  -3 8.70370 56.1176  22
  -3  -3  -3 145.146 78.8878  23
  -3  -3  -4 4148.50 281.302  23
  -3   3  -4 3976.73 304.601  41
  -3  -3  -4 3751.62 246.571  22
  -3   3  -4 3760.04 263.370  21
  -3   3  -4 3590.91 318.073  37
   3   3   4 3598.62 267.462  36
   3   3   4 3780.74 601.009  10
  -3  -3  -4 4276.63 280.279  29
   3   3   5 3381.80 323.546  40
  -3   3  -5 2825.38 259.796  41
  -3   3  -5 2769.51 236.035  21
  -3  -3  -5 3093.89 215.882  22
   3   3   5 2150.84 449.996  10
  -3  -3  -5 3079.54 243.878  23
  -3  -3  -5 2663.11 226.859  34
  -3  -3  -5 2463.74 222.451  29
  -3  -3  -5 3181.18 534.548  16
  -3  -3  -6 7742.37 423.398  24
  -3  -3  -6 8921.18 446.236  23
  -3   3  -6 8226.16 478.447  41
   3   3   6 8878.56 548.720  40
  -3  -3  -6 7982.27 420.574  34
  -3   3  -6 8491.23 464.949  21
  -3  -3  -6 8544.19 432.168  29
  -3  -3  -6 7925.16 842.545  16
  -3  -3  -7 13588.1 600.503  24
  -3   3  -7 13308.7 650.226  41
  -3  -3  -7 13424.0 580.925  23
  -3   3  -7 13892.8 650.712  21
  -3  -3  -7 13161.5 579.603  34
  -3  -3  -7 13443.8 612.408  32
   3   3   7 13403.0 710.948  40
  -3  -3  -7 13386.4 1136.85  17
  -3  -3  -7 12680.7 1099.35  16
  -3  -3  -8 6412.55 400.300  26
   3   3   8 6984.41 478.838  40
  -3  -3  -8 5153.93 670.053  13
  -3  -3  -8 6951.66 388.677  24
  -3   3  -8 6824.31 424.857  41
  -3  -3  -8 6896.21 404.034  32
  -3   3  -8 6941.44 434.300  21
  -3  -3  -8 6500.81 364.970  34
  -3  -3  -8 5307.65 733.880  17
  -3  -3  -9 3506.90 277.797  26
  -3  -3  -9 3451.57 258.214  24
  -3   3  -9 3229.79 279.711  41
   3   3   9 3686.44 338.675  40
  -3   3  -9 4332.01 333.601  21
  -3  -3  -9 3684.08 255.493  34
   3   3   9 3212.18 299.983  18
  -3  -3  -9 3559.65 298.014  33
  -3  -3  -9 3905.24 288.518  32
  -3  -3  -9 3290.13 272.499  31
  -3  -3 -10 14605.5 630.777  26
  -3  -3 -10 14506.6 585.447  34
  -3   3 -10 13682.2 613.391  41
   3   3  10 14984.4 729.168  40
  -3   3 -10 15274.5 684.661  21
   3   3  10 14556.5 674.762  18
  -3  -3 -10 15121.4 622.406  33
  -3  -3 -10 14421.8 621.321  31
  -3  -3 -11 8193.70 414.767  26
   3   3  11 8826.09 493.117  40
   3   3  11 7910.42 440.450  18
  -3  -3 -11 7665.91 397.578  33
  -3  -3 -11 8734.38 413.507  31
  -3  -3 -12 4040.38 250.750  26
   3   3  12 3631.27 256.833  18
  -3  -3 -12 3601.76 232.563  31
  -3  -3 -13 105.511 56.1814  26
  -3   3 -13 156.838 66.9656  21
   3   4 -13 573.927 86.0896  41
  -3   4  12 4210.78 257.856  36
  -3  -4  12 4376.72 261.746  30
  -3  -4  12 4282.62 237.147  28
  -3  -4  11 1838.50 182.303  25
  -3   4  11 1831.95 189.296  36
  -3  -4  11 1917.16 190.037  30
  -3  -4  10 383.090 108.976  25
  -3   4  10 358.887 123.879  36
  -3   4  10 392.011 123.543  38
  -3   4  10 279.907 97.6045  40
  -3   4  10 267.759 91.3976  18
  -3  -4  10 310.398 105.236  30
  -3   4   9 10221.2 547.469  40
  -3   4   9 10705.9 577.672  38
  -3   4   9 10824.1 526.983  37
  -3   4   9 9612.45 490.762  18
  -3  -4   9 10924.8 547.623  30
  -3  -4   9 10876.5 523.104  28
  -3   4   8 4335.36 343.179  40
  -3   4   8 4754.83 357.692  37
  -3   4   8 4270.73 363.912  38
  -3  -4   8 4546.78 322.454  28
   3  -4  -7 12769.6 1070.12  13
  -3   4   7 13963.9 709.575  37
  -3   4   7 13192.5 653.968  40
  -3   4   7 14184.7 718.250  38
  -3  -4   7 11903.8 1176.38   9
  -3  -4   7 13901.1 630.535  28
   3  -4  -6 1082.27 325.997  13
  -3   4   6 1422.77 218.122  38
   3   4  -6 870.123 354.927  10
  -3  -4   6 1362.44 426.965   9
  -3   4   6 1203.66 171.919  18
  -3   4   6 1340.68 216.569  37
   3  -4  -5 2416.92 443.896  13
  -3   4   5 2239.94 268.498  38
  -3   4   5 2159.66 275.094  37
   3   4  -5 1751.18 494.676  10
  -3  -4   5 1978.82 479.376   9
  -3   4   5 2357.93 225.108  18
  -3  -4   5 2632.43 249.320  30
  -3   4   4 5527.39 423.142  38
  -3  -4   4 5733.37 367.838  25
   3  -4  -4 4542.07 592.674  13
  -3   4   4 5210.35 432.178  37
   3   4  -4 5931.25 899.814  10
  -3  -4   4 4905.85 764.300   9
  -3   4   4 6058.78 364.821  18
  -3  -4   4 6583.25 390.260  30
  -3  -4   3 38695.6 1292.25  25
  -3  -4   3 36660.4 1281.10  30
   3  -4  -3 36358.6 1797.86  13
  -3   4   3 34691.7 1440.26  37
  -3   4   3 36345.6 1397.66  38
   3   4  -3 34000.0 2284.67  10
  -3   4   3 37976.2 1414.34  36
  -3   4   3 39198.1 1309.95  41
  -3   4   3 39085.5 1280.17  18
  -3  -4   3 39426.0 1270.86  28
  -3   4   2 19106.7 772.146  41
  -3  -4   2 17544.0 707.634  25
  -3   4   2 17073.5 813.667  38
  -3   4   2 17346.1 808.304  36
  -3  -4   2 18161.0 694.024  28
  -3   4   1 12270.3 594.227  41
  -3   4   1 11419.3 613.505  38
  -3   4   1 11778.4 677.174  37
   3   4  -1 11912.1 1280.00  10
  -3   4   1 11797.0 609.190  36
  -3  -4   1 13885.9 1208.93   9
  -3   4   0 25749.6 982.103  41
  -3   4   0 23432.9 984.195  38
  -3  -4   0 24252.4 886.556  20
  -3   4   0 23986.6 1068.11  37
   3   4   0 25130.0 1879.58  10
  -3   4   0 24432.8 955.525  36
  -3  -4   0 26000.3 1668.53   9
  -3  -4   0 24086.3 896.738  27
  -3  -4  -1 99.8654 65.4900  27
  -3   4  -1 140.412 102.678  41
  -3   4  -1 58.6229 77.8764  38
  -3   4  -1 173.817 107.862  37
   3   4   1 285.535 127.517  36
   3   4   1-76.9511 132.616  10
  -3  -4  -1 278.972 225.477   9
   3   4   1 57.4247 59.5146  18
  -3  -4  -1 104.826 70.6721  19
  -3  -4  -2 2485.64 196.423  19
  -3   4  -2 2182.90 243.482  38
  -3   4  -2 2368.70 281.465  37
   3   4   2 2997.59 265.033  36
   3   4   2 2077.25 546.069  10
   3   4   2 2176.22 216.784  18
  -3  -4  -3 9453.56 978.239  14
  -3  -4  -3 9763.22 487.760  23
  -3   4  -3 8487.02 506.942  38
  -3  -4  -3 9766.83 459.551  22
  -3   4  -3 9409.87 569.162  37
   3   4   3 9655.99 503.819  36
   3   4   3 9251.85 1058.35  10
   3   4   3 8928.53 483.460  18
  -3  -4  -4 8583.28 954.355  14
  -3   4  -4 8302.94 498.764  38
  -3  -4  -4 9061.58 430.737  22
  -3   4  -4 9522.21 542.999  37
   3   4   4 9555.80 490.920  36
   3   4   4 9439.87 1042.25  10
  -3  -4  -4 10008.2 480.533  23
  -3   4  -4 8738.59 509.320  41
   3   4   4 8957.40 492.822  18
  -3  -4  -4 8575.79 458.045  29
  -3   4  -5 13058.9 664.228  41
   3   4   5 13868.3 665.629  18
  -3  -4  -5 13477.9 608.579  34
   3   4   5 15220.6 639.074  36
  -3  -4  -5 13949.3 611.747  29
  -3  -4  -5 13388.7 1207.05  16
  -3  -4  -6 748.038 134.304  24
  -3   4  -6 1113.19 183.987  41
  -3   4  -6 888.941 150.858  21
   3   4   6 790.376 132.939  36
  -3  -4  -6 883.930 143.867  34
   3   4   6 910.660 162.302  18
  -3  -4  -6 838.137 136.309  29
  -3  -4  -6 423.161 245.291  16
  -3  -4  -7 1077.91 155.388  24
  -3   4  -7 983.467 171.152  41
  -3  -4  -7 1028.13 143.088  34
  -3   4  -7 709.936 150.696  21
  -3  -4  -7 927.538 153.219  32
   3   4   7 1045.96 170.959  18
  -3  -4  -8 14537.5 628.449  32
  -3  -4  -8 13749.9 592.364  24
  -3   4  -8 15229.1 676.719  41
  -3   4  -8 16152.6 683.004  21
  -3  -4  -8 12925.2 561.477  34
   3   4   8 14045.5 658.499  18
  -3  -4  -9 17470.0 675.548  24
  -3   4  -9 18343.2 744.176  41
  -3  -4  -9 17984.1 711.188  33
  -3  -4  -9 18017.7 709.884  32
  -3  -4  -9 18770.3 730.610  31
  -3   4 -10 13643.5 574.183  41
  -3  -4 -10 14955.1 575.712  33
   3   4  10 13784.1 604.636  18
  -3  -4 -10 14764.8 585.206  31
  -3  -4 -11 3364.79 219.428  26
  -3   4 -11 3428.45 204.154  41
  -3  -4 -11 3458.03 219.732  33
   3   4  11 4232.88 255.139  18
  -3  -4 -11 3713.38 223.255  31
   3   5 -10 564.328 93.7936  41
  -3   5  10 586.866 96.7280  36
  -3  -5   9 5075.46 270.835  25
   3   5  -9 4880.20 294.927  41
  -3   5   9 4602.93 297.350  36
  -3  -5   9 5106.87 269.652  28
  -3  -5   8 8954.99 413.866  25
  -3   5   8 9259.10 447.855  38
  -3   5   8 9834.78 465.012  37
  -3  -5   8 8834.44 407.281  30
  -3  -5   8 9718.66 422.447  28
   3   5  -8 9059.71 456.357  41
  -3  -5   7 2893.42 221.717  25
  -3   5   7 3279.00 259.643  38
  -3   5   7 3280.13 273.542  37
  -3   5   7 3544.01 298.190  36
  -3  -5   7 2717.52 211.341  30
   3   5  -7 3106.38 257.266  41
  -3  -5   7 3338.81 229.584  28
  -3  -5   6 1486.60 160.492  25
   3   5  -6 1716.03 193.992  41
  -3   5   6 1547.19 188.720  38
  -3   5   6 2274.44 241.180  37
  -3   5   6 1930.04 236.013  36
  -3  -5   6 1571.70 166.846  28
   3   5  -5 386.375 103.397  41
  -3   5   5 267.892 115.586  37
  -3   5   5 386.921 113.174  38
  -3   5   5 392.623 129.519  36
  -3  -5   5 350.629 91.1143  28
  -3   5   4 67.4639 102.757  37
   3   5  -4 76.5086 61.6753  41
  -3   5   4 25.4981 71.1981  38
  -3   5   4 64.7588 85.9938  36
  -3  -5   4 50.7790 52.5991  28
  -3   5   3 14978.1 686.291  38
  -3  -5   3 15874.1 656.263  20
  -3   5   3 15936.3 743.710  36
  -3   5   2 3540.68 340.048  37
  -3   5   2 3410.43 286.376  38
  -3   5   2 3632.68 307.740  36
  -3  -5   2 3447.77 270.382  27
  -3   5   1 2526.52 235.160  41
  -3   5   1 2117.41 221.801  38
  -3   5   1 2440.27 283.291  37
  -3   5   1 2012.99 226.474  36
  -3  -5   1 2563.48 226.595  19
  -3  -5   1 2148.99 205.371  27
  -3   5   0 1040.01 165.551  36
  -3   5   0 1209.68 175.253  41
  -3   5   0 1197.18 207.769  37
  -3  -5   0 1064.52 144.392  19
  -3  -5  -1 5297.76 342.343  23
  -3   5  -1 6621.08 407.724  41
  -3   5  -1 5773.44 433.874  37
  -3   5  -1 5855.17 341.536  36
  -3   5  -2 10536.3 539.228  41
  -3  -5  -2 9421.35 458.400  22
  -3   5  -2 10440.4 580.681  37
  -3   5  -3 2359.38 244.056  41
  -3   5  -3 2517.63 256.244  37
  -3  -5  -3 2281.81 188.441  22
  -3  -5  -3 2427.13 217.841  29
   3   5   4 1534.29 176.004  18
  -3  -5  -4 1996.68 187.113  29
  -3  -5  -4 1791.55 185.427  34
  -3  -5  -5 3167.09 239.588  24
  -3   5  -5 2615.07 251.142  41
  -3  -5  -5 3018.72 224.613  34
   3   5   5 2910.74 236.965  18
  -3  -5  -5 2864.01 216.556  29
  -3  -5  -6 14112.9 567.304  24
  -3   5  -6 13997.2 625.698  41
  -3  -5  -6 13195.3 538.311  34
   3   5   6 13866.2 590.413  18
  -3  -5  -6 14351.5 597.578  32
  -3  -5  -7 9757.71 462.638  26
  -3  -5  -7 10101.8 429.134  24
   3   5   7 9848.82 458.908  18
  -3  -5  -7 10293.9 458.545  32
  -3   5  -7 10630.7 497.770  41
  -3  -5  -8 9325.03 408.284  26
  -3  -5  -8 7603.79 344.428  24
  -3  -5  -8 8344.17 395.605  33
   3   5   8 8962.82 403.424  18
  -3  -5  -8 9224.96 394.374  32
  -3   5  -8 9906.83 436.580  41
  -3  -5  -9 13584.8 511.051  26
  -3   5  -9 14046.6 528.569  41
  -3  -5  -9 14493.6 513.924  33
  -3  -5  -9 13403.7 513.487  31
  -3   5 -10 8210.20 313.140  41
  -3   6   7 5332.30 248.694  36
  -3   6   6 402.849 85.1957  37
  -3   6   6 346.622 82.2217  36
  -3   6   5 2529.36 197.546  37
  -3   6   5 2676.43 193.763  36
  -3   6   4 690.373 112.416  36
  -3   6   3 812.458 135.582  37
  -3   6   3 821.926 118.238  36
  -3   6   2 397.858 111.534  37
  -3  -6   2 337.497 76.1735  22
  -3   6   2 313.563 85.3776  36
  -3   6   1 6.13225 21.1480  36
  -3  -6   1 208.107 64.7473  22
  -3   6   1 129.701 89.3191  37
  -3  -6   0 1164.51 118.117  22
  -3  -6   0 1283.62 132.636  29
  -3   6  -1 2058.71 185.153  37
  -3  -6  -1 1932.09 160.853  34
  -3  -6  -1 1811.62 149.086  29
  -3  -6  -2 5278.21 224.923  34
  -3  -6  -2 5127.46 212.948  29
  -3  -6  -3 1619.33 139.635  24
  -3   6  -3 2049.27 170.380  41
  -3   6  -4 860.959 111.623  41
  -3  -6  -4 785.199 99.3546  32
  -3   6  -5 1895.80 151.559  41
   4   0 -15 2467.25 190.103   7
  -4   0  15 2548.31 209.686  40
  -4   0  14 376.833 114.602  40
  -4   0  13 4285.32 347.908  40
   4   0 -13 3649.55 307.321   8
   4   0 -12 863.037 188.166   8
  -4   0  11 13585.0 765.566  35
   4   0 -11 13011.1 675.468   8
  -4   0  11 11418.9 538.209  30
  -4   0  10 4159.84 285.271  25
  -4   0  10 4558.45 422.756  35
  -4   0  10 4081.48 294.152  30
   4   0 -10 4630.82 372.869   8
  -4   0   9 45336.3 1504.58  25
  -4   0   9 46823.8 1530.27  30
   4   0  -9 49133.1 1667.65   8
  -4   0   8 11666.0 531.271  25
  -4   0   8 11265.0 499.889  20
  -4   0   8 11955.3 549.258  30
   4   0  -8 12385.9 622.432   8
  -4   0   7 18701.5 720.720  25
  -4   0   7 17516.1 686.469  20
   4   0  -7 18604.5 1338.90   3
  -4   0   7 18502.0 733.023  30
  -4   0   6 4491.39 283.471  25
  -4   0   6 4219.34 315.912   6
  -4   0   6 4428.49 271.580  20
   4   0  -6 3637.99 563.040   3
  -4   0   6 4849.41 300.695  30
  -4   0   6 4097.30 221.788  19
  -4   0   6 4306.18 236.992  27
  -4   0   5 2795.24 215.446  25
   4   0  -5 2509.62 449.421   3
  -4   0   5 2781.44 208.052  20
  -4   0   5 2691.30 171.849  19
  -4   0   5 3340.13 236.632  30
  -4   0   5 2418.59 173.350  27
  -4   0   4 470.366 81.9397  27
  -4   0   4 732.937 109.854  25
   4   0  -4 419.065 223.207   3
  -4   0   4 550.755 80.4839  19
  -4   0   4 599.473 110.807  30
  -4   0   3 13097.8 493.306  27
   4   0  -3 13852.5 986.483   3
  -4   0   3 14347.2 542.560  25
  -4   0   3 13637.7 985.285  11
  -4   0   3 13392.5 526.687  20
  -4   0   3 11757.7 449.945  22
  -4   0   3 12749.9 479.460  19
  -4   0   3 14160.1 549.521  30
  -4   0   2 18404.3 639.240  27
  -4   0   2 18093.3 607.987  22
  -4   0   2 17363.6 1130.74  11
  -4   0   2 19643.7 679.980  20
  -4   0   2 17672.6 622.804  19
  -4   0   1 45333.4 1385.35  23
  -4   0   1 43134.5 1984.86  11
  -4   0   1 47784.2 1436.75  20
  -4   0   1 46300.9 1362.35  22
  -4   0   0 128501. 3562.46  23
  -4   0   0 122532. 4261.75  11
  -4   0   0 131694. 3593.07  20
  -4   0   0 133289. 3541.17  22
  -4   0   0 121036. 3513.25  29
  -4   0  -1 14868.6 569.363  23
  -4   0  -1 13225.5 963.226  11
  -4   0  -1 15644.7 528.243  34
  -4   0  -1 16004.7 544.707  29
  -4   0  -1 14066.9 990.795  15
  -4   0  -2 22857.9 1338.42  15
  -4   0  -2 22365.2 724.164  24
  -4   0  -2 22656.7 793.064  23
  -4   0  -2 23927.6 806.492  20
  -4   0  -2 21921.3 733.805  34
  -4   0  -3 859.588 292.689  15
  -4   0  -3 762.203 238.152   2
  -4   0  -3 1047.15 105.732  24
  -4   0  -3 983.334 126.368  23
  -4   0  -3 872.431 102.963  34
  -4   0  -3 1021.76 94.8410  32
  -4   0  -4 8741.27 376.513  24
  -4   0  -4 8404.10 415.109  23
  -4   0  -4 8125.57 773.101   2
  -4   0  -4 8597.48 380.271  34
  -4   0  -4 8626.60 349.534  32
  -4   0  -5 26196.6 876.208  24
  -4   0  -5 24204.4 1489.31   2
  -4   0  -5 25512.0 881.167  34
  -4   0  -6 8149.85 349.718  26
  -4   0  -6 7865.53 467.630   4
  -4   0  -6 8137.35 401.522  34
  -4   0  -6 8918.05 878.090   2
  -4   0  -7 91330.3 2620.13  26
  -4   0  -7 99373.8 2771.87  23
  -4   0  -7 92336.5 3761.37   2
  -4   0  -8 24835.1 841.399  26
  -4   0  -8 23965.2 1020.28   4
  -4   0  -8 23272.6 934.979  23
  -4   0  -8 24616.6 916.933  34
  -4   0  -9 1218.59 144.463  26
  -4   0  -9 1206.09 409.714   2
  -4   0  -9 1371.08 183.842  23
  -4   0  -9 1434.88 223.505   4
   4   0   9 1235.29 411.143   1
  -4   0  -9 1477.58 197.128  39
  -4   0 -10 491.507 102.698  26
  -4   0 -10 271.870 298.736   2
  -4   0 -10 317.024 113.070  23
  -4   0 -10 271.263 98.9848  39
  -4   0 -10 479.769 154.435   4
   4   0  10 211.319 297.456   1
  -4   0 -11 3414.83 240.999  26
  -4   0 -11 3586.63 292.080  23
  -4   0 -12 304.563 81.3362  26
  -4   0 -12 137.752 85.2859  23
   4   0  13 4641.53 328.955   5
  -4   0 -13 5112.26 311.282  21
   4   0  14 920.314 130.958   5
   4  -1 -15 2380.37 171.049   7
   4   1 -15 2226.61 164.716   7
  -4   1  15 2159.47 176.211  40
  -4  -1  15 2099.24 183.063  40
   4  -1 -14 3331.51 250.955   7
   4   1 -14 3270.67 246.079   7
  -4   1  14 3569.01 283.074  40
  -4  -1  14 3398.19 292.061  35
  -4  -1  14 3685.10 288.595  40
  -4   1  13 4104.11 337.770  40
  -4  -1  13 3681.69 353.192  35
   4  -1 -13 3917.86 312.728   8
   4   1 -13 4276.63 316.455   8
  -4  -1  13 4006.78 264.186  30
   4  -1 -12 1086.30 191.368   8
   4   1 -12 895.908 171.256   8
  -4  -1  12 981.379 151.592  25
  -4   1  12 1087.59 190.816  40
  -4  -1  12 1370.91 247.215  35
  -4  -1  12 1283.33 170.893  30
  -4  -1  11 4520.05 322.574  25
  -4  -1  11 4152.91 292.554  20
  -4   1  11 5098.42 433.906  35
  -4  -1  11 5454.03 459.400  35
   4  -1 -11 5189.50 398.085   8
   4   1 -11 4410.93 359.154   8
  -4  -1  11 4102.39 323.400  30
  -4   1  11 4769.26 394.691  40
  -4  -1  10 49920.7 1644.96  25
  -4   1  10 52209.1 1775.26  40
  -4   1  10 51237.4 1820.37  35
  -4  -1  10 49582.5 1663.27  30
   4  -1 -10 49041.9 1732.34   8
   4   1 -10 47521.8 1705.62   8
  -4   1  10 48560.8 1670.49  38
  -4  -1  10 49062.5 1595.20  28
   4  -1  -9 1169.85 205.810   8
   4   1  -9 1316.05 198.147   8
  -4   1   9 1265.70 217.428  35
  -4  -1   9 1497.76 186.835  25
  -4   1   9 1159.04 183.279  38
  -4   1   9 1378.06 213.027  40
  -4  -1   9 1296.69 183.149  30
  -4  -1   9 1309.34 165.366  28
  -4  -1   9 1302.23 144.818  27
  -4  -1   8 10586.8 526.588  25
  -4  -1   8 9422.83 433.720  19
  -4   1   8 10165.8 554.235  38
   4   1  -8 9336.96 930.288  10
  -4   1   8 10342.0 593.987  35
  -4  -1   8 10944.2 551.804  30
  -4  -1   8 11035.0 504.359  28
   4  -1  -8 10348.1 567.592   8
   4   1  -8 9272.34 538.136   8
  -4  -1   8 10502.8 467.686  27
   4  -1  -7 1000.14 165.194   8
   4   1  -7 948.868 163.030   8
  -4  -1   7 658.343 127.814  25
  -4   1   7 791.579 149.960  38
  -4  -1   7 720.360 109.456  19
  -4   1   7 953.640 169.620  35
  -4  -1   7 1094.98 163.220  30
  -4  -1   7 1140.71 148.081  28
  -4  -1   7 889.470 126.359  27
  -4  -1   6 993.630 147.431  25
   4  -1  -6 991.652 303.289   3
   4   1  -6 1283.45 353.350   3
  -4  -1   6 1100.97 169.889   6
  -4   1   6 899.535 159.025  38
  -4   1   6 862.880 151.349   6
  -4  -1   6 992.100 126.587  19
  -4  -1   6 1110.82 235.018   9
  -4  -1   6 1353.50 168.842  30
  -4  -1   6 1167.75 141.872  28
  -4  -1   6 936.648 127.978  27
  -4  -1   5 23026.8 827.988  25
  -4   1   5 20579.5 831.080   6
  -4  -1   5 20969.1 826.540   6
  -4  -1   5 20615.1 751.861  19
  -4  -1   5 21109.3 1096.39   9
   4  -1  -5 21171.3 1363.49   3
   4   1  -5 18168.1 1256.10   3
  -4  -1   5 20968.6 820.904  30
  -4  -1   5 22581.0 784.327  27
  -4   1   4 4119.11 502.349  11
  -4   1   4 3751.23 221.266  20
  -4  -1   4 4185.99 248.366  19
  -4  -1   4 3793.57 419.236   9
   4  -1  -4 3300.34 494.991   3
   4   1  -4 3668.39 507.579   3
  -4  -1   4 3947.94 250.379  28
  -4  -1   4 3763.42 244.534  27
   4  -1  -3 32275.7 1623.96   3
   4   1  -3 29599.4 1560.36   3
  -4  -1   3 29660.0 1005.75  25
  -4   1   3 29368.1 1443.69  11
  -4   1   3 29200.5 940.342  20
  -4  -1   3 28972.5 964.840  19
  -4  -1   3 31057.8 1377.70   9
  -4  -1   3 29714.7 1015.30  30
  -4  -1   3 27650.1 959.857  28
  -4  -1   3 29395.8 976.120  27
  -4  -1   2 44727.4 1410.30  25
  -4   1   2 48143.3 1913.80  11
  -4   1   2 46019.5 1362.42  20
  -4  -1   2 43181.0 1368.64  19
  -4  -1   2 47345.8 1832.66   9
  -4  -1   2 47215.2 1426.75  30
  -4  -1   2 43239.5 1364.00  28
  -4  -1   2 42641.0 1378.13  27
  -4  -1   1 73427.8 2571.75  14
  -4  -1   1 78265.5 2248.04  25
  -4   1   1 81309.7 2797.46  11
  -4  -1   1 73514.6 2201.70  22
  -4  -1   1 76560.2 2259.85  20
  -4   1   1 80854.3 2225.18  20
  -4  -1   1 73598.6 2248.64  30
  -4  -1   0 19989.1 1004.03  14
  -4   1   0 20804.3 1141.40  11
  -4  -1   0 21512.6 765.940  20
  -4  -1   0 21787.4 731.828  19
  -4  -1   0 20195.1 722.009  22
  -4  -1   0 21278.4 736.325  27
  -4  -1  -1 215955. 5827.88  27
  -4   1  -1 211014. 6614.28  15
  -4  -1  -1 219695. 6692.90  15
  -4  -1  -1 228471. 6316.37  14
  -4  -1  -1 204189. 5851.55  23
  -4  -1  -1 212391. 5856.65  20
  -4  -1  -1 209728. 5803.27  34
  -4  -1  -1 215725. 5814.79  19
  -4   1  -1 209174. 5755.98  34
  -4   1  -1 212918. 5800.06  23
  -4  -1  -1 215127. 5817.25  29
  -4  -1  -2 124594. 4646.84  15
  -4   1  -2 118421. 4553.72  15
  -4  -1  -2 136762. 3843.91  24
  -4   1  -2 137486. 3862.68  23
  -4  -1  -2 130914. 3858.45  22
  -4  -1  -2 142006. 3895.40  20
  -4  -1  -2 143324. 3864.85  34
  -4   1  -2 143909. 3829.32  34
  -4  -1  -2 141724. 3874.93  29
  -4   1  -3 2712.07 446.357  15
  -4  -1  -3 2722.37 459.691  15
  -4  -1  -3 3312.11 211.676  24
  -4  -1  -3 3560.88 220.316  34
  -4   1  -3 3066.11 211.948  23
  -4  -1  -3 3782.21 227.869  22
  -4  -1  -3 3180.61 219.931  20
  -4   1  -3 3342.82 205.540  34
  -4  -1  -3 2957.58 212.162  29
  -4  -1  -3 2478.33 314.825  16
  -4  -1  -4 14935.3 581.146  24
  -4  -1  -4 14824.0 622.505  23
  -4   1  -4 15371.7 605.289  23
  -4  -1  -4 14276.2 1050.49   2
  -4   1  -4 15440.5 1084.62   2
  -4  -1  -4 15860.4 597.618  34
  -4  -1  -4 14830.8 569.966  32
  -4  -1  -4 14862.0 838.581  16
  -4  -1  -5 19067.5 718.098  26
  -4  -1  -5 22019.3 761.888  24
  -4  -1  -5 21272.2 804.111  23
  -4   1  -5 20811.9 781.180  23
  -4  -1  -5 21012.6 1336.35   2
  -4   1  -5 18827.5 1280.76   2
  -4   1  -5 19241.4 794.353  39
  -4  -1  -5 21480.8 744.925  32
  -4  -1  -6 25132.3 861.500  26
  -4  -1  -6 24805.3 991.614   4
  -4   1  -6 22968.7 969.010   4
  -4  -1  -6 25273.8 891.680  24
  -4  -1  -6 28475.7 962.448  23
  -4   1  -6 25384.3 929.385  23
  -4   1  -6 24489.0 932.288  39
  -4  -1  -6 23564.9 1521.91   2
  -4   1  -6 23524.8 1510.26   2
  -4  -1  -6 25358.6 876.671  32
  -4  -1  -6 23538.6 828.408  31
  -4  -1  -7 21688.3 766.769  26
  -4  -1  -7 20941.1 895.778   4
  -4   1  -7 21028.2 895.477   4
  -4  -1  -7 19974.3 815.551  23
  -4   1  -7 19153.9 802.703  39
  -4   1  -7 19611.4 824.490  23
  -4  -1  -7 22401.7 1499.86   2
  -4   1  -7 22592.1 1497.43   2
  -4  -1  -7 22692.3 807.320  34
  -4  -1  -7 20688.4 775.293  32
  -4  -1  -7 20115.8 724.353  31
  -4  -1  -8 123178. 3611.75  26
  -4  -1  -8 127564. 3824.30   4
  -4  -1  -8 128790. 3703.65  23
   4   1   8 124964. 4866.06   1
   4  -1   8 131838. 4935.81   1
  -4   1  -8 128109. 3818.37   4
  -4  -1  -8 129079. 3671.72  34
  -4  -1  -8 125560. 4811.57   2
  -4   1  -8 129623. 4827.66   2
  -4  -1  -8 126430. 3575.52  31
  -4  -1  -9 33257.7 1165.61  26
  -4  -1  -9 36829.4 1260.44  23
  -4  -1  -9 35125.7 1354.75   4
  -4   1  -9 35758.4 1283.02  23
  -4   1  -9 34846.6 1349.84   4
   4   1   9 38346.0 2212.17   1
   4  -1   9 36612.7 2161.97   1
  -4  -1  -9 36400.5 2115.14   2
  -4  -1  -9 34454.0 1209.29  34
  -4   1  -9 35543.6 2107.42   2
  -4  -1  -9 35072.5 1133.51  31
  -4  -1 -10 18198.9 690.495  26
   4   1  10 16196.9 1409.65   1
   4  -1  10 15062.6 1363.38   1
  -4  -1 -10 17615.9 742.072  23
  -4   1 -10 17357.9 766.175  23
  -4  -1 -10 15820.2 807.400   4
  -4   1 -10 15665.2 798.999   4
  -4  -1 -10 15396.3 1339.50   2
  -4   1 -10 17561.5 1423.50   2
  -4  -1 -10 16894.7 632.711  31
  -4  -1 -11 12605.2 541.671  26
  -4  -1 -11 12761.7 587.712  23
  -4   1 -11 12247.6 606.941  23
  -4  -1 -12 8571.21 394.324  26
  -4   1 -12 8907.73 464.992  21
  -4  -1 -12 7444.84 401.602  23
  -4  -1 -12 7220.01 399.311  39
   4  -1  12 7686.79 455.190   5
  -4   1 -13 4291.67 281.611  21
  -4  -1 -13 3870.93 235.048  26
   4   1  13 4369.70 306.839   5
   4  -1  13 4531.68 304.528   5
   4  -2 -14 208.869 64.6706   7
   4   2 -14 285.385 64.5320   7
  -4   2  14 384.351 86.3239  40
  -4  -2  13 3276.21 236.761  25
   4  -2 -13 3118.04 232.804   7
   4   2 -13 3777.55 253.399   7
  -4   2  13 3897.47 287.704  40
  -4  -2  13 4113.56 320.191  35
  -4  -2  13 3451.33 252.129  30
  -4  -2  12 3362.37 269.865  25
  -4   2  12 3835.36 319.105  40
  -4  -2  12 3776.14 344.383  35
   4   2 -12 3768.69 288.249   8
  -4  -2  12 3760.25 290.536  30
  -4  -2  11 2181.57 233.710  25
  -4   2  11 2232.94 265.773  40
  -4   2  11 2420.08 257.058  38
   4  -2 -11 2635.42 257.261   8
   4   2 -11 2337.56 242.340   8
  -4  -2  11 2338.83 248.607  30
  -4  -2  11 2228.82 220.743  28
  -4  -2  10 1930.70 227.777  25
  -4   2  10 2113.20 261.729  40
  -4   2  10 2268.63 260.812  38
  -4  -2  10 1812.55 177.780  19
   4  -2 -10 1996.22 230.730   8
  -4  -2  10 2303.86 254.763  30
   4   2 -10 1737.78 226.174   8
  -4  -2  10 2177.93 221.243  28
  -4  -2  10 1904.95 193.089  27
  -4  -2   9 4478.17 351.128  25
  -4   2   9 4789.24 381.955  40
  -4  -2   9 4407.96 293.706  19
  -4  -2   9 4532.97 363.314  30
   4  -2  -9 4326.66 339.725   8
   4   2  -9 4745.83 355.908   8
  -4   2   9 5029.24 398.815  38
  -4  -2   9 5064.24 340.888  28
  -4  -2   8 7716.98 471.219  25
  -4   2   8 7964.77 513.396  38
  -4   2   8 7171.42 466.990  40
   4   2  -8 6023.55 808.863  10
  -4   2   8 7188.91 485.051  35
   4  -2  -8 7698.97 456.228   8
   4   2  -8 7398.63 450.638   8
  -4  -2   8 7436.14 429.664  28
   4   2  -7 12690.0 1228.24  10
  -4   2   7 16137.3 777.588  38
  -4   2   7 15100.7 725.863  35
  -4  -2   7 14905.5 1092.22   9
  -4   2   7 14929.7 647.733  18
   4  -2  -7 14088.2 665.440   8
   4   2  -7 15585.8 689.263   8
   4   2  -6 1547.07 189.143   8
  -4  -2   6 1525.60 201.247  25
  -4   2   6 1313.96 211.588  38
   4   2  -6 1967.01 481.118  10
  -4  -2   6 1907.73 399.390   9
  -4   2   6 1793.73 187.652  18
  -4  -2   6 1450.01 200.573  30
  -4  -2   6 1585.46 183.969  28
  -4   2   6 1607.44 227.270  37
   4  -2  -6 1544.73 187.789   8
  -4  -2   5 2125.71 211.206  25
  -4   2   5 1982.17 246.211  38
   4  -2  -5 1330.81 343.099   3
   4   2  -5 1628.46 379.101   3
  -4   2   5 1743.76 239.210  37
  -4  -2   5 1842.91 200.209   6
  -4   2   5 1931.15 207.425   6
  -4  -2   5 2150.88 490.356  11
   4   2  -5 2184.95 498.033  10
  -4  -2   5 1731.54 372.988   9
  -4   2   5 2151.45 200.293  18
  -4  -2   5 2311.19 230.756  30
  -4  -2   5 2331.46 208.086  28
  -4  -2   4 10479.3 495.616  25
  -4   2   4 8594.30 532.869  37
  -4  -2   4 10052.6 1007.82  11
  -4  -2   4 8361.39 449.640   6
   4   2  -4 9500.66 1017.56  10
  -4   2   4 9918.35 566.071  38
  -4   2   4 10089.9 484.614   6
  -4  -2   4 10522.1 868.283   9
   4  -2  -4 9741.57 829.940   3
   4   2  -4 9674.69 830.157   3
  -4  -2   4 10280.8 502.323  30
  -4  -2   4 10145.1 468.756  28
  -4  -2   3 11832.5 546.320  25
  -4  -2   3 12291.8 1084.78  11
   4   2  -3 11669.9 1108.64  10
  -4   2   3 12292.7 643.109  38
  -4  -2   3 12200.7 933.824   9
   4  -2  -3 12584.7 939.667   3
  -4  -2   3 12940.5 569.294  30
   4   2  -3 11851.2 922.649   3
  -4  -2   3 13139.8 536.144  28
  -4  -2   2 4911.45 650.617  11
   4   2  -2 4612.20 540.269   3
  -4  -2   2 4847.20 303.006  25
  -4   2   2 5016.81 309.074  41
  -4   2   2 5148.16 379.356  38
  -4  -2   2 4444.12 282.309  19
  -4  -2   2 4166.77 543.989   9
  -4  -2   2 4900.41 309.189  30
  -4  -2   2 5068.91 282.672  28
   4  -2  -2 4930.04 569.754   3
  -4  -2   2 4462.82 288.569  27
  -4  -2   1 30527.6 1751.14  11
  -4  -2   1 31019.9 1068.76  25
  -4  -2   1 31649.0 1063.58  19
   4  -2  -1 32437.5 1599.59   3
  -4   2   1 31900.5 1084.90  41
   4   2  -1 31550.3 1899.61  10
  -4   2   1 31829.3 1198.51  38
  -4  -2   1 29776.1 1085.75  20
  -4  -2   1 35429.1 1688.45   9
  -4  -2   1 32762.1 1083.21  30
  -4  -2   1 31393.4 1024.10  28
  -4  -2   1 32660.8 1074.03  27
  -4   2   0 28875.0 1505.68  15
  -4  -2   0 26414.5 1465.28  15
  -4  -2   0 28105.5 1498.52  14
  -4   2   0 30522.1 1021.80  41
  -4  -2   0 28165.3 982.750  19
  -4  -2   0 28602.6 1683.33  11
   4   2   0 29063.8 1770.79  10
  -4  -2   0 31068.4 1031.37  20
  -4  -2   0 29594.5 1564.06   9
  -4  -2   0 28540.2 990.009  27
  -4  -2  -1 15185.2 1041.08  15
  -4   2  -1 14200.4 1004.28  15
  -4  -2  -1 15076.2 1017.94  14
  -4   2  -1 13868.8 592.156  41
  -4  -2  -1 14376.4 1138.71  11
  -4  -2  -1 13865.8 577.902  22
   4   2   1 13874.4 1158.86  10
  -4  -2  -1 14640.9 602.664  20
  -4  -2  -1 14692.7 574.706  19
  -4  -2  -1 15104.5 581.016  27
  -4  -2  -2 27738.0 937.646  27
  -4  -2  -2 26698.9 1499.14  15
  -4   2  -2 28325.4 1515.24  15
  -4  -2  -2 27862.1 1483.19  14
  -4  -2  -2 27549.5 993.874  23
  -4   2  -2 26647.9 914.594  23
  -4  -2  -2 27359.0 952.198  22
  -4   2  -2 25633.1 957.517  41
   4   2   2 27797.4 1690.51  10
  -4  -2  -2 31005.7 983.106  20
  -4  -2  -2 28649.1 938.695  19
  -4  -2  -3 16685.9 1102.17  14
  -4  -2  -3 15956.8 658.561  23
  -4   2  -3 15033.0 629.183  41
  -4   2  -3 14675.7 599.666  23
  -4  -2  -3 16014.9 616.859  22
   4   2   3 14250.9 1158.29  10
  -4  -2  -3 14845.8 599.051  20
  -4  -2  -3 15596.6 630.433  29
  -4  -2  -4 3370.52 256.717  23
  -4  -2  -4 3048.25 232.435  24
  -4   2  -4 3802.53 258.897  23
  -4  -2  -4 3325.81 232.958  22
  -4   2  -4 2870.76 238.016  41
  -4  -2  -4 3142.68 225.220  20
   4   2   4 2774.21 510.090  10
  -4  -2  -4 2942.18 233.248  29
  -4  -2  -4 3580.60 475.408  16
  -4  -2  -5 1166.05 159.954  23
  -4   2  -5 950.583 147.500  41
  -4   2  -5 989.344 143.701  23
  -4  -2  -5 860.985 146.154   4
  -4   2  -5 776.333 142.813   4
  -4  -2  -5 867.100 136.195  34
  -4  -2  -5 618.622 116.551  32
  -4  -2  -5 1102.47 150.406  29
  -4  -2  -5 1057.45 288.328  16
  -4  -2  -6 985.335 304.222   2
  -4   2  -6 890.865 304.010   2
  -4   2  -6 1298.79 185.230   4
  -4  -2  -6 1531.37 184.903  23
  -4   2  -6 1028.07 153.712  23
  -4   2  -6 1155.39 157.029  41
  -4  -2  -6 1015.93 166.542   4
  -4  -2  -6 1354.48 164.758  34
  -4  -2  -6 1335.69 166.961  32
  -4  -2  -6 1358.32 165.192  29
  -4  -2  -6 1118.94 291.587  16
  -4  -2  -7 14687.8 633.744  26
  -4  -2  -7 15958.7 655.227  24
  -4  -2  -7 15271.7 712.891   4
  -4   2  -7 14298.4 693.054   4
  -4  -2  -7 16486.3 685.100  23
  -4   2  -7 15024.3 684.470  23
   4  -2   7 14238.8 1170.87   1
  -4  -2  -7 13584.8 1120.41   2
  -4   2  -7 15546.6 1193.98   2
   4   2   7 17222.1 1292.02   1
  -4  -2  -7 14560.2 630.690  34
  -4  -2  -7 14874.9 640.465  32
  -4  -2  -8 40497.0 1443.12   4
  -4  -2  -8 40339.6 1339.96  26
  -4  -2  -8 42500.1 1358.08  24
  -4   2  -8 40816.2 2131.45   2
  -4  -2  -8 36938.0 1348.28  23
  -4   2  -8 42955.3 1427.43  23
  -4  -2  -8 39973.9 2096.01   2
  -4   2  -8 39938.4 1435.35   4
  -4  -2  -8 40824.8 1338.18  34
   4   2   8 35894.2 2093.86   1
  -4  -2  -8 38918.9 1276.74  33
   4  -2   8 36759.5 2086.90   1
  -4  -2  -8 40704.9 1352.80  32
  -4  -2  -8 38973.4 1308.25  31
  -4  -2  -9 6897.54 384.543  26
   4   2   9 7806.52 894.927   1
   4  -2   9 5849.71 786.071   1
  -4  -2  -9 7104.78 405.112  23
  -4  -2  -9 6132.52 778.655   2
  -4   2  -9 5671.44 763.443   2
  -4   2  -9 7614.02 453.441  21
  -4  -2  -9 6669.61 382.543  34
  -4  -2  -9 7577.12 377.547  33
  -4  -2  -9 6502.69 361.887  31
  -4   2  -9 7068.41 442.826  23
  -4  -2 -10 10805.1 493.114  26
  -4  -2 -10 10712.9 509.502  23
  -4  -2 -10 10068.0 487.747  34
  -4  -2 -10 9502.47 440.889  33
  -4  -2 -10 10501.8 468.527  31
  -4  -2 -11 3869.49 258.683  26
  -4  -2 -11 3900.39 263.492  23
   4   2  11 4023.95 301.834  18
   4   2  11 4005.30 296.888   5
   4  -2  11 3344.33 275.764   5
  -4  -2 -11 3504.13 229.246  31
  -4  -2 -12 2225.88 180.133  26
   4   2  12 2205.78 197.380  18
   4   2  12 2532.93 219.234   5
   4  -2  12 2319.91 208.841   5
  -4  -2 -13 5.86198 45.7331  26
  -4  -2 -13-13.3665 25.7513  39
  -4   2 -13-16.5262 55.1437  21
  -4  -3  13 10943.4 456.969  35
  -4  -3  12 482.905 105.749  25
  -4  -3  12 507.880 123.420  35
  -4  -3  12 381.342 99.3475  30
  -4  -3  12 406.248 87.6254  28
  -4  -3  11 758.105 116.736  27
  -4  -3  11 1156.39 159.202  25
  -4   3  11 33.2706 45.1236  40
  -4   3  11 920.980 163.443  38
  -4  -3  11 695.245 162.292  35
  -4  -3  11 56.7712 43.5508  19
  -4  -3  11 863.394 132.253  28
  -4   3  10 8501.05 475.800  40
  -4   3  10 10012.2 555.386  38
  -4  -3  10 8307.23 422.811  19
  -4  -3  10 9173.25 466.219  28
  -4  -3  10 8732.46 448.911  27
  -4  -3   9 3303.45 295.415  25
  -4   3   9 2869.09 268.332  40
  -4   3   9 3781.76 347.741  38
  -4  -3   9 2923.74 287.370  30
  -4  -3   8 7584.39 480.000  25
  -4  -3   8 7074.18 940.100  11
  -4   3   8 9252.79 520.956  37
  -4  -3   8 6899.85 821.966   9
  -4   3   8 7981.97 449.547  18
  -4  -3   8 9210.56 525.274  30
  -4   3   8 8244.68 551.145  38
  -4  -3   8 8643.34 476.623  28
  -4  -3   7 4902.72 363.757  25
  -4  -3   7 3277.76 651.553  11
  -4   3   7 4641.64 407.280  38
  -4   3   7 4352.37 376.391  37
   4   3  -7 2860.69 608.145  10
  -4  -3   7 3644.45 603.643   9
  -4   3   7 3983.90 307.612  18
  -4  -3   7 4472.39 357.016  30
  -4  -3   7 4656.51 333.227  28
  -4  -3   6 3690.86 313.730  25
  -4   3   6 3369.27 345.701  38
  -4  -3   6 2758.91 589.657  11
  -4   3   6 3395.53 347.122  37
   4   3  -6 2737.01 621.504  10
  -4  -3   6 3964.47 630.271   9
  -4   3   6 3776.47 294.724  18
  -4  -3   6 3451.28 308.413  30
  -4  -3   6 3668.03 294.998  28
  -4  -3   5 12217.4 595.600  25
   4  -3  -5 10748.6 887.642  13
  -4  -3   5 12065.9 1178.93  11
  -4   3   5 11083.6 665.400  37
   4   3  -5 10780.4 1198.58  10
  -4  -3   5 13393.7 1148.00   9
  -4  -3   5 12770.7 612.401  30
  -4  -3   5 10922.5 550.408  28
  -4  -3   4 2162.22 228.093  25
   4  -3  -4 2399.36 392.553  13
  -4  -3   4 2350.32 528.430  11
  -4   3   4 2463.95 292.983  37
   4   3  -4 2057.44 557.189  10
  -4  -3   4 2914.80 523.669   9
  -4  -3   4 2321.33 234.955  30
  -4  -3   4 2210.56 212.969  28
  -4  -3   3 12661.6 587.836  25
  -4   3   3 12523.0 699.579  38
  -4   3   3 11577.1 675.524  37
  -4  -3   3 13049.8 1170.57  11
   4   3  -3 10582.4 1210.99  10
  -4  -3   3 9686.13 978.343   9
  -4  -3   3 14358.3 618.008  30
  -4  -3   3 13267.0 565.297  28
  -4  -3   2 5608.55 340.956  25
  -4   3   2 6170.60 373.224  41
  -4  -3   2 5257.39 741.846  11
  -4   3   2 5393.59 425.019  38
  -4   3   2 4625.90 401.190  37
  -4  -3   2 5883.88 721.598   9
  -4  -3   2 4805.66 327.799  30
  -4  -3   2 5466.44 314.082  28
  -4  -3   1 15087.1 615.994  25
   4   3  -1 15609.4 1438.04  10
  -4  -3   1 13140.8 1170.97  11
  -4   3   1 14497.7 742.858  38
  -4  -3   1 14495.4 645.252  20
  -4  -3   1 15547.7 635.610  19
  -4  -3   1 13327.3 1115.70   9
  -4  -3   1 13893.1 605.964  30
  -4  -3   1 15130.5 581.419  28
  -4  -3   1 14459.2 627.389  27
  -4  -3   0 5911.59 733.916  14
  -4   3   0 7236.40 416.862  41
  -4  -3   0 5402.74 749.198  11
   4   3   0 5915.84 889.752  10
  -4   3   0 6882.32 486.771  37
  -4  -3   0 7170.10 395.113  20
  -4  -3   0 6509.73 367.581  19
  -4   3   0 6481.92 460.795  38
  -4  -3   0 6776.34 374.517  27
  -4  -3  -1 13718.0 1109.54  14
  -4   3  -1 12688.3 598.120  41
  -4   3  -1 11479.3 652.104  38
  -4   3  -1 12613.0 698.047  37
   4   3   1 13337.1 1288.29  10
  -4  -3  -1 13246.2 570.759  20
  -4  -3  -1 13273.2 559.444  19
  -4  -3  -1 12567.8 548.428  27
  -4  -3  -2 10823.8 482.346  27
  -4  -3  -2 12086.5 1035.94  14
  -4  -3  -2 10885.9 513.242  22
  -4   3  -2 10977.2 544.215  41
   4   3   2 9715.63 1088.39  10
  -4  -3  -2 10756.6 490.854  20
  -4  -3  -2 11172.2 488.985  19
  -4  -3  -3 7193.75 819.995  14
  -4  -3  -3 8566.80 465.765  23
  -4   3  -3 8472.17 466.353  41
  -4  -3  -3 8546.18 430.535  22
  -4   3  -3 7950.71 395.214  21
  -4   3  -3 8263.18 544.260  37
   4   3   3 7100.47 900.391  10
  -4  -3  -3 7863.60 393.679  20
  -4  -3  -3 8160.99 390.114  19
  -4  -3  -3 8597.90 449.651  29
  -4  -3  -4 18961.5 771.595  23
  -4   3  -4 17678.9 770.443  41
  -4  -3  -4 18896.9 721.424  22
  -4   3  -4 18635.2 722.428  21
  -4   3  -4 17592.9 854.358  37
   4   3   4 16870.1 1370.22  10
  -4  -3  -4 16815.5 725.900  34
  -4  -3  -4 18497.4 748.204  29
  -4  -3  -4 16802.4 1233.93  16
  -4  -3  -5 8721.79 458.889  24
  -4  -3  -5 8670.22 468.627  23
  -4   3  -5 8197.39 472.063  41
  -4  -3  -5 8872.62 426.916  22
  -4   3  -5 8259.96 444.993  21
  -4   3  -5 7743.68 505.649  37
  -4  -3  -5 8757.38 455.089  34
  -4  -3  -5 8026.13 442.923  29
  -4  -3  -5 7899.00 833.779  16
  -4  -3  -6 23641.0 894.915  24
  -4   3  -6 21911.4 909.001  41
  -4  -3  -6 25293.0 925.123  23
  -4   3  -6 22910.7 903.666  21
  -4  -3  -6 22854.3 880.804  34
  -4  -3  -6 21572.0 883.458  32
  -4  -3  -6 23455.2 890.451  29
  -4  -3  -6 22444.0 1466.27  16
  -4  -3  -7 16051.1 699.942  26
  -4  -3  -7 14886.4 671.991  24
  -4   3  -7 17377.2 727.873  41
  -4  -3  -7 17743.7 712.872  23
  -4   3  -7 16552.9 722.981  21
  -4  -3  -7 15487.9 667.444  34
  -4  -3  -7 16319.6 697.520  32
  -4  -3  -7 17468.8 1235.79  16
  -4  -3  -8 4838.71 329.265  26
  -4  -3  -8 5347.74 335.383  24
  -4  -3  -8 5461.34 334.129  23
  -4   3  -8 5776.90 372.849  21
  -4   3  -8 5336.66 342.382  41
  -4  -3  -8 4897.73 316.185  34
  -4  -3  -8 4759.08 325.765  32
  -4  -3  -9 7938.92 411.155  26
  -4  -3  -9 7506.35 400.455  24
  -4   3  -9 7877.74 445.412  21
  -4   3  -9 7389.59 390.137  41
  -4  -3  -9 7488.43 390.934  34
   4   3   9 7681.47 463.546  18
  -4  -3  -9 8195.49 402.726  33
  -4  -3  -9 7314.37 392.338  31
  -4  -3 -10 4793.35 293.168  26
  -4   3 -10 5391.83 338.808  21
  -4  -3 -10 4655.54 280.845  34
   4   3  10 4675.28 331.411  18
  -4  -3 -10 4715.17 280.926  33
  -4  -3 -10 4842.40 285.528  31
  -4  -3 -11 3928.95 245.016  26
  -4   3 -11 4428.64 286.951  21
   4   3  11 4445.08 290.301  18
  -4  -3 -11 3740.86 226.994  31
  -4  -3 -12 745.917 96.6901  26
  -4   3 -12 887.032 121.810  21
   4   3  12 882.680 115.654  18
  -4   4  12 2921.17 187.487  36
  -4  -4  11 426.413 87.2917  25
  -4   4  11 556.256 108.335  36
  -4  -4  11 348.557 86.8195  20
  -4  -4  11 405.061 89.3900  30
  -4  -4  10 3603.24 258.883  25
  -4   4  10 3671.01 288.210  36
  -4  -4  10 3319.29 252.876  35
  -4  -4  10 3470.72 229.568  19
  -4  -4  10 3899.67 268.088  30
  -4  -4  10 3493.79 240.757  28
  -4  -4  10 4036.13 252.530  27
  -4  -4   9 3305.54 260.984  25
  -4   4   9 2642.13 219.582  37
  -4  -4   9 2927.64 232.574  19
  -4  -4   9 3600.66 272.493  30
  -4  -4   9 3362.66 248.189  28
  -4  -4   9 3275.54 250.510  27
  -4  -4   8 84.5880 85.9463  25
  -4   4   8 205.349 121.790  38
  -4   4   8 91.9296 80.1086  37
  -4  -4   8 172.120 105.998  30
  -4  -4   8 300.360 101.321  28
  -4  -4   7 5479.10 360.317  25
  -4   4   7 4306.31 382.406  38
  -4   4   7 4756.73 380.371  37
  -4  -4   7 5147.06 355.333  30
  -4  -4   7 5411.25 343.435  28
  -4  -4   6 525.216 130.393  25
  -4   4   6 620.199 178.343  38
  -4   4   6 589.682 168.591  37
  -4  -4   6 599.818 137.374  30
  -4  -4   6 411.510 112.284  28
  -4  -4   5 1959.42 216.236  25
  -4   4   5 1993.95 268.718  37
   4   4  -5 2090.71 565.277  10
  -4   4   5 2321.30 284.278  38
  -4  -4   5 1676.95 469.452   9
  -4  -4   5 1887.91 213.826  30
  -4  -4   5 1995.06 207.061  28
  -4  -4   4 25174.8 953.247  25
  -4   4   4 25731.7 1084.11  38
  -4   4   4 24273.2 1094.97  37
   4   4  -4 20544.4 1790.44  10
  -4  -4   4 23486.8 1663.97   9
  -4  -4   4 23620.7 941.090  30
  -4  -4   4 25359.3 920.467  28
  -4  -4   3 4570.18 317.641  25
  -4   4   3 4144.07 393.999  37
  -4   4   3 4213.35 358.152  36
   4   4  -3 3963.99 797.671  10
  -4  -4   3 4533.51 710.279   9
  -4  -4   3 4604.92 318.706  30
  -4   4   3 4375.81 388.134  38
  -4  -4   3 4914.33 305.108  28
  -4  -4   2 21772.3 839.314  25
  -4   4   2 24462.4 931.053  41
  -4   4   2 22300.0 998.864  38
  -4  -4   2 23937.1 918.831  20
  -4   4   2 21326.3 921.835  36
  -4  -4   2 22464.8 888.927  19
  -4  -4   2 24521.2 1671.85   9
  -4  -4   2 21893.1 807.878  28
  -4  -4   2 21411.9 878.864  27
  -4  -4   1 24978.2 1728.87  14
  -4   4   1 26229.3 995.463  41
  -4   4   1 24036.2 1046.64  38
  -4   4   1 22755.6 1085.45  37
  -4  -4   1 25331.1 946.130  20
   4   4  -1 21986.6 1877.58  10
  -4   4   1 23284.8 950.245  36
  -4  -4   1 24669.2 937.708  19
  -4  -4   1 24853.2 935.057  27
  -4  -4   0 1955.00 478.364  14
  -4   4   0 2211.06 270.595  38
  -4   4   0 2451.75 313.924  37
  -4  -4   0 2438.77 224.907  20
  -4   4   0 3018.79 279.690  41
  -4  -4   0 2623.58 230.330  19
   4   4   0 2078.50 581.808  10
  -4  -4   0 2119.54 510.247   9
  -4  -4   0 2745.66 231.827  27
  -4  -4  -1 980.618 335.310  14
  -4  -4  -1 1104.93 165.264  22
  -4   4  -1 1140.28 202.762  38
  -4   4  -1 1253.85 228.579  37
   4   4   1 1153.17 438.489  10
  -4  -4  -1 1316.82 158.084  19
  -4  -4  -1 1003.37 143.285  27
  -4  -4  -2 4682.96 701.447  14
  -4  -4  -2 4766.31 345.636  23
  -4   4  -2 5318.27 373.449  41
  -4  -4  -2 4868.55 328.556  22
  -4   4  -2 4761.75 391.055  38
  -4   4  -2 5452.53 452.752  37
   4   4   2 4475.88 780.807  10
  -4  -4  -2 5041.52 298.423  19
  -4  -4  -3 7401.49 878.999  14
  -4  -4  -3 7749.09 439.367  23
  -4   4  -3 7129.58 447.354  41
  -4  -4  -3 7229.76 402.374  22
  -4   4  -3 7958.26 510.986  38
  -4   4  -3 8035.14 538.064  37
   4   4   3 5795.49 872.978  10
  -4  -4  -3 8105.15 443.699  29
  -4  -4  -4 13173.9 601.437  23
  -4   4  -4 12842.4 629.221  41
  -4   4  -4 13564.5 694.005  38
  -4  -4  -4 13215.4 560.391  22
  -4   4  -4 12579.0 674.839  37
  -4  -4  -4 12591.0 588.910  34
  -4  -4  -4 12296.2 587.072  29
  -4  -4  -4 11880.8 1096.75  16
  -4  -4  -5 42264.9 1416.32  24
  -4   4  -5 43075.6 1469.44  41
  -4  -4  -5 43301.7 1419.52  23
  -4   4  -5 42997.9 1530.19  38
  -4   4  -5 39913.6 1458.64  37
  -4  -4  -5 41749.1 1409.32  34
   4   4   5 41085.9 1458.13  18
  -4  -4  -5 45375.2 1432.31  29
  -4  -4  -5 39147.6 2149.65  16
  -4  -4  -6 17848.2 729.318  24
  -4   4  -6 18690.8 777.483  41
  -4  -4  -6 18485.3 716.968  23
  -4   4  -6 17331.5 795.449  38
  -4  -4  -6 18034.3 721.154  34
   4   4   6 17720.9 771.033  18
  -4  -4  -6 18230.2 724.766  29
  -4  -4  -7 20732.4 599.443  26
  -4  -4  -7 20342.1 558.283  24
  -4   4  -7 20701.5 620.737  41
  -4  -4  -7 21308.6 551.986  34
   4   4   7 20615.7 633.900  18
  -4  -4  -8 3408.11 251.778  26
  -4  -4  -8 3695.63 246.804  24
  -4   4  -8 3391.92 257.829  41
  -4  -4  -8 3617.61 235.076  34
  -4  -4  -8 3665.60 265.083  33
   4   4   8 3039.54 257.578  18
  -4  -4  -8 3503.23 251.907  31
  -4  -4  -9 3947.29 252.615  26
  -4   4  -9 3943.99 248.190  41
  -4  -4  -9 4178.28 238.490  34
  -4  -4  -9 4713.83 264.550  33
  -4  -4  -9 4061.53 255.644  32
  -4  -4  -9 3838.03 244.913  31
  -4  -4 -10 11466.5 450.330  26
  -4   4 -10 10594.4 410.031  41
  -4  -4 -10 11938.0 441.912  31
   4   5  -9 13.8915 21.8923  41
  -4   5   9 3213.18 198.091  36
  -4   5   8 8221.73 326.058  38
  -4   5   8 8003.14 299.400  37
  -4  -5   8 7586.85 300.894  20
  -4   5   8 8322.99 354.922  36
  -4  -5   8 7892.46 290.432  19
  -4  -5   8 8046.88 298.050  27
  -4  -5   7 1759.76 143.702  25
  -4   5   7 2156.62 191.578  38
  -4   5   7 2244.72 193.372  37
  -4  -5   7 1749.21 164.707  20
  -4   5   7 2201.14 205.496  36
  -4  -5   7 2012.09 148.647  28
  -4  -5   7 2190.46 175.935  27
  -4   5   6 7397.94 428.064  37
  -4  -5   6 7448.33 383.717  20
  -4   5   6 7534.03 413.749  38
  -4   5   6 8004.30 440.413  36
  -4  -5   6 8113.87 393.115  19
  -4  -5   6 6824.01 334.370  28
  -4  -5   6 7369.10 382.096  27
  -4  -5   5 57.9320 69.6321  27
  -4   5   5 142.880 90.6236  38
  -4   5   5 98.5086 85.7588  37
  -4   5   5 64.0810 74.9206  36
  -4  -5   5 38.5714 61.0888  20
  -4  -5   5 105.776 75.0521  19
  -4  -5   5 109.353 56.5211  28
  -4  -5   4 270.075 93.0410  27
  -4   5   4 237.988 97.9332  38
  -4   5   4 233.273 113.871  37
  -4   5   4 265.271 98.7606  36
  -4  -5   4 262.445 87.2680  20
  -4  -5   4 200.722 84.9641  19
  -4  -5   3 856.946 135.520  27
  -4   5   3 758.974 148.418  38
  -4   5   3 662.972 132.100  36
  -4  -5   3 789.875 124.521  20
  -4  -5   3 757.569 128.805  19
  -4  -5   2 527.647 109.919  27
  -4   5   2 531.566 129.018  38
  -4   5   2 506.334 156.887  37
  -4   5   2 461.653 107.125  36
  -4  -5   2 495.422 110.981  19
  -4  -5   1 10807.4 495.786  22
  -4   5   1 10079.3 512.074  38
  -4   5   1 10637.4 599.885  37
  -4  -5   1 10829.3 465.380  19
  -4  -5   1 10357.9 448.165  27
  -4  -5   0 247.576 92.9107  22
  -4  -5   0 173.418 93.6092  23
  -4   5   0 225.650 95.5546  38
  -4   5   0 248.617 107.125  41
  -4  -5   0 228.428 78.0305  19
  -4   5   0 144.125 112.068  37
  -4  -5  -1 3215.95 254.930  23
  -4  -5  -1 3709.85 265.603  22
  -4   5  -1 3048.65 266.897  38
  -4   5  -1 3776.78 289.321  41
  -4   5  -1 3508.98 328.979  37
  -4  -5  -1 3673.55 279.684  29
  -4  -5  -2 4601.48 256.740  22
  -4   5  -2 4402.26 333.477  37
  -4  -5  -2 4649.72 268.601  23
  -4  -5  -2 4724.66 287.018  34
  -4  -5  -2 4758.44 286.553  29
  -4  -5  -3 2911.33 208.985  22
  -4   5  -3 2512.50 247.485  37
  -4  -5  -3 3161.80 240.433  34
  -4  -5  -3 3235.01 242.628  29
  -4  -5  -4 11420.8 516.192  24
  -4   5  -4 12327.7 558.291  41
  -4  -5  -4 11561.8 510.099  34
  -4  -5  -4 12117.2 513.733  29
  -4  -5  -5 2085.46 179.202  24
  -4   5  -5 2231.68 205.309  41
  -4  -5  -5 2125.93 176.406  34
   4   5   5 1617.13 161.946  18
  -4  -5  -5 2099.20 188.235  32
  -4  -5  -5 1636.83 160.271  29
  -4  -5  -6 50.6399 54.3358  24
  -4   5  -6 18.1970 73.5343  41
  -4  -5  -6 6.44499 47.1169  34
  -4  -5  -6-16.0554 53.5736  32
   4   5   6 22.6187 53.5656  18
  -4  -5  -7 606.392 88.9369  24
  -4   5  -7 912.548 123.973  41
  -4  -5  -7 750.320 103.953  32
  -4  -5  -7 774.020 112.015  31
   4   5   7 612.003 93.0183  18
  -4   5  -8 448.869 80.7168  41
  -4  -5  -9 3761.65 197.850  39
  -4   6   5 1190.23 115.895  37
  -4   6   3 1374.91 146.728  37
  -4   6   2 246.961 80.6354  37
  -4   6   1 1265.53 143.779  37
  -4  -6   1 1267.09 120.450  34
  -4   6   0 7833.16 363.981  37
  -4  -6   0 6663.32 309.376  34
  -4  -6  -1 3815.73 187.432  24
  -4   6  -1 12.3269 37.7832  37
   5   0 -15 4.34249 33.8782   7
  -5   0  14 445.593 92.2178  40
   5   0 -13 237.606 105.329   8
  -5   0  13 366.927 105.816  40
  -5   0  13 374.573 131.627  35
   5   0 -12 515.582 142.461   8
  -5   0  12 305.367 107.508  40
  -5   0  12 505.569 153.554  35
  -5   0  11 46312.8 1630.67  40
  -5   0  11 47170.1 1734.18  35
   5   0 -11 48101.3 1661.37   8
  -5   0  10 21731.7 1009.82  35
   5   0 -10 23023.5 974.460   8
  -5   0   9 28090.4 1939.36  11
   5   0  -9 27888.7 1141.67   8
   5   0  -8 1081.83 197.312   8
  -5   0   8 637.387 323.924  11
  -5   0   8 1011.97 138.941  20
   5   0  -7-62.6988 170.822   3
  -5   0   7 66.6706 162.467  11
  -5   0   7 60.1697 65.8099  20
   5   0  -6 837.663 342.325   3
  -5   0   6 433.473 261.876  11
  -5   0   6 398.361 134.320   6
  -5   0   6 851.017 133.222  20
  -5   0   5 7904.05 896.592  11
  -5   0   5 8681.27 502.543   6
  -5   0   5 9520.38 460.843  20
   5   0  -5 9736.96 968.435   3
  -5   0   4 4710.19 671.983  11
  -5   0   4 4447.10 339.489   6
  -5   0   4 5259.93 321.870  20
   5   0  -4 4656.65 655.676   3
  -5   0   3 108062. 3178.66  23
  -5   0   3 107636. 4195.92  11
  -5   0   3 110546. 3324.08   6
  -5   0   3 119994. 3279.71  20
  -5   0   2 421.043 87.0280  23
  -5   0   2 598.045 250.603  11
  -5   0   2 387.640 99.4037  20
  -5   0   2 412.332 118.722   6
  -5   0   1 7217.02 360.169  23
  -5   0   1 6837.93 761.440  11
  -5   0   1 8617.89 413.240  20
  -5   0   0 4743.94 343.682  39
  -5   0   0 5527.80 685.113  11
  -5   0   0 5482.79 301.295  23
  -5   0   0 5355.00 321.799  20
  -5   0   0 4881.90 241.337  34
  -5   0  -1 38111.8 2063.24  15
  -5   0  -1 41978.8 1246.55  24
  -5   0  -1 44316.8 1357.50  23
  -5   0  -1 43458.2 2144.82  11
  -5   0  -1 39831.9 1428.72  39
  -5   0  -1 41776.4 1271.43  34
  -5   0  -2 106.893 145.803  15
  -5   0  -2 320.498 67.3980  24
  -5   0  -2 292.892 94.7125  23
  -5   0  -2 276.338 69.8273  34
  -5   0  -3 23527.3 1593.12  15
  -5   0  -3 25723.1 842.712  24
  -5   0  -3 24846.8 917.963  23
  -5   0  -3 23141.2 965.557  39
  -5   0  -3 26049.0 862.085  34
  -5   0  -4 7303.00 404.674  23
  -5   0  -4 7150.67 439.807  39
  -5   0  -4 7158.62 360.241  34
  -5   0  -5 302.263 108.384  39
  -5   0  -5 332.962 107.731  23
  -5   0  -5 267.291 80.5733  34
  -5   0  -6 3459.63 326.419   4
  -5   0  -6 3572.78 606.173   2
  -5   0  -6 4088.74 332.786  39
  -5   0  -6 3600.67 263.288  34
  -5   0  -7 15965.8 790.300   4
  -5   0  -7 15661.7 746.641  39
  -5   0  -7 14780.5 1289.27   2
  -5   0  -7 16596.7 685.569  34
  -5   0  -8 599.792 293.147   2
  -5   0  -8 415.523 127.172  23
  -5   0  -8 829.982 166.153  39
  -5   0  -8 545.618 160.494   4
  -5   0  -9 3137.57 618.667   2
  -5   0  -9 2741.72 297.468   4
  -5   0  -9 2749.80 269.578  39
  -5   0  -9 2880.55 271.492  23
   5   0   9 3360.49 653.969   1
  -5   0 -10 16776.3 715.238  23
  -5   0 -10 14519.6 666.076  39
  -5   0 -10 16187.4 782.932   4
  -5   0 -11 782.874 143.861  23
  -5   0 -12 6825.76 365.104  23
   5   0  13 52.0476 70.9283   5
  -5   0 -13 93.4067 59.4090  21
   5  -1 -14 599.096 92.1032   7
   5   1 -14 631.156 97.7244   7
  -5  -1  14 551.829 97.8443  40
  -5  -1  13 6043.72 330.489  40
  -5  -1  13 6329.91 377.223  35
   5  -1 -13 6485.86 323.678   8
   5   1 -13 6342.07 319.073   8
  -5   1  12 5486.71 360.530  40
   5  -1 -12 5735.42 378.038   8
   5   1 -12 5674.68 371.028   8
   5  -1 -11 862.897 170.678   8
   5   1 -11 1038.86 182.451   8
  -5   1  11 881.172 160.874  40
  -5   1  11 1101.07 196.579  35
  -5  -1  11 727.097 137.633  30
  -5  -1  10 4782.70 334.341  25
  -5   1  10 5332.31 380.010  40
  -5   1  10 5284.84 350.109  38
  -5  -1  10 5151.11 323.907  20
  -5   1  10 5232.37 420.672  35
  -5  -1  10 4676.52 344.154  30
   5  -1 -10 5145.58 399.827   8
   5   1 -10 5422.48 397.630   8
  -5  -1   9 762.321 113.131  27
   5  -1  -9 845.819 191.151   8
   5   1  -9 697.223 166.584   8
  -5  -1   9 815.410 152.674  25
  -5   1   9 951.611 161.816  40
  -5   1   9 678.229 146.548  38
  -5  -1   9 793.625 139.419  20
  -5   1   9 718.278 172.150  35
  -5  -1   9 635.915 306.966  11
  -5  -1   9 872.485 158.747  30
   5  -1  -8 901.588 179.715   8
   5   1  -8 1214.76 202.605   8
  -5  -1   8 1241.51 184.882  25
  -5  -1   8 1407.77 477.338  11
  -5   1   8 792.816 302.158  11
  -5   1   8 1133.28 189.306  38
  -5  -1   8 1287.80 175.765  20
   5   1  -8 1306.52 380.130  10
  -5   1   8 1285.17 214.330  35
  -5  -1   8 922.019 120.765  19
  -5  -1   8 1097.41 176.926  30
  -5  -1   8 1135.13 141.227  27
   5  -1  -7 2496.72 267.202   8
  -5  -1   7 2095.92 227.487  25
   5  -1  -7 2294.10 535.163   3
   5   1  -7 2017.09 462.414   3
  -5   1   7 2130.02 454.709  11
  -5   1   7 1693.58 220.146  38
  -5  -1   7 1864.39 532.704  11
  -5  -1   7 2170.68 225.107  20
  -5   1   7 2153.56 257.472  35
  -5  -1   7 2125.32 183.640  19
  -5  -1   7 2142.40 236.566  30
  -5  -1   7 2050.26 191.180  27
  -5  -1   6 13837.1 635.682  25
  -5  -1   6 12980.9 654.666   6
  -5   1   6 13696.8 675.769   6
  -5  -1   6 13817.6 1291.57  11
  -5   1   6 11147.5 1029.61  11
  -5   1   6 12461.9 652.637  38
  -5  -1   6 14123.9 633.777  20
  -5  -1   6 12452.2 540.902  19
   5  -1  -6 13039.0 1167.63   3
   5   1  -6 12441.2 1135.69   3
  -5  -1   6 13753.3 646.977  30
  -5  -1   6 12657.7 559.140  27
  -5  -1   5 1773.79 202.692  25
   5  -1  -5 1083.07 362.741   3
   5   1  -5 1664.11 412.730   3
  -5   1   5 1177.32 181.275   6
  -5   1   5 1326.55 203.109  38
  -5  -1   5 1316.17 418.236  11
  -5   1   5 1518.65 376.516  11
  -5  -1   5 1336.04 175.711  20
  -5  -1   5 1283.93 133.441  22
  -5  -1   5 1167.29 185.003   6
  -5   1   5 1258.67 138.236  20
  -5  -1   5 1452.40 157.251  19
  -5  -1   5 1746.82 202.354  30
  -5  -1   5 1604.09 170.130  27
   5  -1  -4 1847.80 427.387   3
   5   1  -4 2464.28 473.737   3
  -5  -1   4 2030.25 169.363  22
  -5  -1   4 1945.00 221.354   6
  -5   1   4 2578.49 456.363  11
  -5  -1   4 2109.44 487.004  11
  -5  -1   4 2026.29 209.806  20
  -5   1   4 2233.31 185.059  20
  -5   1   4 1747.54 211.518   6
  -5  -1   4 2072.39 187.595  19
  -5   1   4 1803.93 235.854  38
  -5  -1   4 2083.96 188.926  27
  -5   1   3 23476.7 1408.26  11
  -5  -1   3 24218.4 849.588  22
  -5   1   3 22711.0 982.692  38
  -5  -1   3 23930.0 953.073   6
  -5   1   3 24000.6 951.270   6
  -5  -1   3 26517.3 946.792  20
  -5   1   3 25388.1 872.524  20
  -5  -1   3 25000.1 881.862  19
  -5  -1   3 24849.0 826.622  29
  -5  -1   3 24440.6 1638.40  11
   5  -1  -3 28083.1 1651.44   3
   5   1  -3 27781.9 1640.96   3
  -5  -1   3 23800.5 887.057  27
  -5  -1   2 7635.25 391.920  27
  -5   1   2 8190.32 443.780   6
   5  -1  -2 8235.93 853.211   3
   5   1  -2 8333.76 865.128   3
  -5  -1   2 8175.65 886.633  11
  -5   1   2 7378.66 726.710  11
  -5  -1   2 7557.87 369.059  22
  -5   1   2 6992.83 456.499  38
  -5  -1   2 8024.72 445.208   6
  -5   1   2 7736.99 385.990  20
  -5  -1   2 7216.33 333.609  34
  -5  -1   2 7537.59 383.987  19
  -5  -1   2 7609.52 352.978  29
  -5  -1   2 6571.20 415.929  39
  -5  -1   1 12529.7 593.785  39
  -5  -1   1 13461.6 1136.51  11
  -5  -1   1 13341.1 522.014  22
  -5   1   1 13029.1 967.433  11
  -5  -1   1 11955.0 577.134   6
  -5   1   1 11358.1 559.427   6
  -5  -1   1 10878.5 464.860  34
  -5  -1   1 12457.3 499.325  29
  -5   1   0 3883.48 575.319  15
  -5  -1   0 4495.68 245.976  24
  -5  -1   0 4505.77 298.158  23
  -5   1   0 4892.22 261.610  23
  -5  -1   0 5165.87 291.489  22
  -5  -1   0 4639.50 338.381  39
  -5  -1   0 5025.57 320.926  20
  -5  -1   0 4520.45 260.661  34
  -5  -1   0 4814.93 276.718  29
  -5  -1  -1 20477.6 1400.87  15
  -5   1  -1 18523.4 1323.79  15
  -5  -1  -1 20351.4 713.913  24
  -5  -1  -1 20237.6 786.968  23
  -5   1  -1 21296.1 736.332  23
  -5  -1  -1 21307.5 766.006  22
  -5  -1  -1 20568.7 792.751  20
  -5  -1  -1 18649.1 717.990  34
  -5  -1  -1 20930.7 854.021  39
  -5  -1  -1 20654.4 749.145  29
  -5  -1  -2 67535.0 2946.38  15
  -5   1  -2 64613.6 2870.93  15
  -5  -1  -2 63810.1 1926.39  24
  -5  -1  -2 66247.7 2017.13  23
  -5   1  -2 64661.9 1950.05  23
  -5  -1  -2 66472.1 2087.54  39
  -5  -1  -2 68657.5 2020.70  20
  -5  -1  -2 66685.3 1952.69  34
  -5  -1  -2 61167.3 1884.12  32
  -5  -1  -2 65862.1 1973.51  29
  -5   1  -3 15293.1 721.149  39
  -5  -1  -3 15694.3 1268.12  15
  -5   1  -3 15285.0 1233.52  15
  -5  -1  -3 16170.6 620.005  24
  -5  -1  -3 16031.4 688.113  23
  -5   1  -3 15933.6 643.474  23
  -5  -1  -3 15879.5 728.473  39
  -5  -1  -3 16712.4 683.026  20
  -5  -1  -3 15193.9 623.026  34
  -5  -1  -3 16262.5 593.552  32
  -5  -1  -3 17049.5 657.899  29
  -5  -1  -4 10084.3 444.262  24
  -5   1  -4 9704.76 527.376  39
  -5  -1  -4 9513.72 447.280  34
  -5  -1  -4 9850.90 416.911  32
  -5  -1  -5 6365.54 320.143  26
  -5  -1  -5 6778.85 366.521  24
  -5  -1  -5 6612.71 407.550  23
  -5   1  -5 6779.80 393.996  23
  -5   1  -5 6647.85 430.198  39
  -5  -1  -5 7399.82 382.545  34
  -5  -1  -5 6736.61 342.779  32
  -5  -1  -6 14859.1 567.490  26
  -5  -1  -6 14703.5 739.647   4
  -5   1  -6 14374.8 717.964   4
  -5  -1  -6 15875.9 636.947  24
  -5   1  -6 15360.6 679.756  23
  -5   1  -6 14004.4 685.602  39
  -5  -1  -6 16119.0 692.576  23
  -5  -1  -6 13684.1 619.042  34
  -5  -1  -6 14802.4 599.407  32
  -5  -1  -7 2052.21 176.567  26
  -5   1  -7 2969.90 570.297   2
  -5  -1  -7 1780.99 245.892   4
  -5   1  -7 2520.72 277.471   4
  -5  -1  -7 2638.34 250.652  23
  -5   1  -7 2593.17 262.452  23
  -5   1  -7 2023.24 236.522  39
  -5  -1  -8 12396.1 518.630  26
  -5  -1  -8 12738.3 692.775   4
  -5   1  -8 12740.9 680.806   4
   5  -1   8 11926.7 1183.58   1
  -5  -1  -8 14358.4 640.356  23
  -5   1  -8 13312.4 642.038  23
  -5   1  -8 10782.3 1095.81   2
  -5  -1  -8 12480.6 1180.88   2
  -5  -1  -9 17904.2 671.087  26
  -5  -1  -9 18903.8 778.708  23
  -5  -1  -9 17313.2 851.263   4
  -5   1  -9 16800.1 825.905   4
   5   1   9 19690.0 1568.52   1
  -5  -1  -9 18147.0 746.044  34
  -5  -1  -9 19280.1 838.386  39
  -5  -1 -10 8630.89 400.417  26
  -5  -1 -10 9584.93 491.336  23
  -5  -1 -10 9574.10 520.306  39
  -5  -1 -10 9956.52 570.951   4
  -5   1 -10 9592.63 551.151   4
  -5  -1 -11 5518.66 338.300  23
  -5   1 -11 5977.20 366.591  23
  -5  -1 -11 5765.32 354.781  39
  -5  -1 -12 2760.95 193.436  23
   5   1  12 2840.48 225.630   5
   5  -1  12 2683.44 214.700   5
   5  -2 -13 3080.58 183.961   7
   5   2 -13 2662.83 179.802   7
   5   2 -12 17.8875 68.0738   8
  -5  -2  12 57.3864 82.0059  35
  -5  -2  12 130.187 75.1741  30
  -5  -2  11 2497.28 225.349  25
  -5   2  11 2769.07 242.114  38
  -5  -2  11 2496.35 217.277  20
  -5  -2  11 2647.88 287.484  35
   5  -2 -11 2690.28 232.716   8
   5   2 -11 2243.49 226.745   8
  -5  -2  11 2537.11 237.496  30
  -5  -2  10 8.42090 53.3124  27
   5  -2 -10-38.5660 87.2070   8
   5   2 -10 13.0813 76.4368   8
  -5  -2  10 25.4755 76.0302  25
  -5   2  10-42.1507 85.5936  38
  -5  -2  10 11.9660 78.5116  20
  -5  -2  10 13.5462 82.5230  30
  -5  -2   9 1829.25 220.724  25
  -5   2   9 1798.58 235.956  38
  -5  -2   9 1829.82 219.310  20
  -5  -2   9 1644.93 169.218  19
  -5  -2   9 2103.91 238.357  30
   5  -2  -9 1718.16 216.196   8
   5   2  -9 1608.08 216.521   8
  -5  -2   9 1870.35 201.853  28
  -5  -2   9 1943.53 189.338  27
  -5  -2   8 7440.82 459.444  25
  -5  -2   8 6979.44 967.521  11
  -5   2   8 7379.42 489.867  38
  -5  -2   8 7044.27 445.177  20
  -5  -2   8 6411.41 366.188  19
   5  -2  -8 6507.69 425.256   8
   5   2  -8 6534.46 430.480   8
  -5  -2   8 6686.02 386.941  27
  -5  -2   7 177.063 94.4513  27
   5  -2  -7 341.790 111.223   8
   5   2  -7 157.908 97.5191   8
  -5  -2   7 111.405 63.7211  22
  -5  -2   7 156.756 233.971  11
  -5   2   7 166.296 105.720  38
  -5   2   7 336.535 117.886  37
  -5  -2   7 242.259 116.789  20
   5   2  -7 220.238 219.157  10
  -5  -2   7 226.910 88.4646  19
   5  -2  -6 16338.7 759.591   8
   5   2  -6 17497.4 777.584   8
  -5  -2   6 19206.1 817.291  25
  -5  -2   6 19471.9 1596.28  11
  -5  -2   6 20740.7 841.225  20
  -5   2   6 18182.4 874.935  38
   5   2  -6 16561.2 1499.99  10
  -5   2   6 16702.6 850.930  37
   5   2  -6 14558.8 1241.51   3
  -5  -2   6 17255.5 726.596  19
  -5  -2   6 19177.6 829.296  30
  -5  -2   6 19170.7 771.453  28
  -5  -2   6 17759.6 748.957  27
  -5  -2   5 1844.92 220.530  25
   5  -2  -5 1521.62 392.248   3
   5   2  -5 2222.00 472.075   3
  -5  -2   5 1667.85 208.193   6
  -5   2   5 1745.67 217.348   6
  -5   2   5 1991.15 263.992  38
  -5  -2   5 1851.65 496.941  11
  -5  -2   5 2521.38 258.178  20
  -5   2   5 1869.12 258.210  37
   5   2  -5 2019.79 546.149  10
  -5  -2   5 1990.18 204.947  19
  -5  -2   5 1676.75 357.564   9
  -5  -2   5 1890.46 226.914  30
  -5  -2   5 2229.17 219.702  28
  -5  -2   5 2048.71 214.101  27
  -5  -2   4 8211.67 470.897  25
  -5  -2   4 8738.15 1012.02  11
  -5   2   4 8276.93 469.746   6
  -5   2   4 8222.83 543.213  38
   5   2  -4 7920.58 1034.12  10
  -5  -2   4 8789.40 475.304   6
  -5  -2   4 8019.51 440.517  19
   5  -2  -4 7795.96 834.886   3
   5   2  -4 8941.77 902.563   3
  -5  -2   4 7237.99 739.659   9
  -5  -2   4 9198.33 498.240  30
  -5  -2   4 9285.26 458.542  28
  -5  -2   4 8995.69 467.034  27
  -5  -2   3 15280.2 1076.00  14
  -5  -2   3 17969.5 755.098  25
  -5  -2   3 17195.6 1430.23  11
  -5  -2   3 17861.4 711.904  22
  -5  -2   3 17772.5 745.833   6
   5   2  -3 16099.2 1472.87  10
  -5  -2   3 19070.0 785.863  20
  -5   2   3 17181.5 744.356   6
  -5   2   3 18384.9 871.061  38
  -5  -2   3 17986.2 727.954  19
  -5  -2   3 19437.0 1253.59   9
   5  -2  -3 18377.9 1276.28   3
   5   2  -3 18020.1 1283.50   3
  -5  -2   3 17970.4 766.383  30
  -5  -2   2 44135.7 2002.07  14
  -5  -2   2 46299.8 2464.32  11
  -5  -2   2 43776.6 1456.99  22
  -5   2   2 44424.6 1642.97  38
  -5  -2   2 44171.3 1490.39   6
  -5   2   2 45193.8 1504.50   6
  -5  -2   2 46985.6 1534.46  20
   5  -2  -2 46858.1 2221.21   3
   5   2  -2 45867.1 2216.35   3
  -5  -2   2 46578.4 1491.20  27
  -5   2   1 7727.67 821.697  15
  -5  -2   1 8023.61 832.269  15
  -5  -2   1 9143.01 781.032  14
   5  -2  -1 10110.6 922.281   3
   5   2  -1 8050.65 831.280   3
  -5  -2   1 8985.02 491.692  39
  -5  -2   1 8970.79 447.994  22
  -5   2   1 10112.1 588.223  38
   5   2  -1 9303.91 1062.74  10
  -5  -2   1 8194.07 451.213   6
  -5   2   1 8742.39 464.881   6
  -5  -2   1 8344.79 944.975  11
  -5  -2   1 9597.88 494.396  20
  -5  -2   1 9278.16 453.883  19
  -5  -2   1 9845.01 469.535  27
  -5  -2   0 30172.8 1015.80  27
  -5  -2   0 24788.9 1582.10  15
  -5   2   0 25792.7 1603.55  15
  -5  -2   0 26558.7 1466.36  14
  -5  -2   0 27687.1 991.735  22
  -5   2   0 31064.5 1035.83  41
  -5  -2   0 28947.4 1071.42  39
  -5   2   0 27382.3 1148.12  38
   5   2   0 27404.4 1873.82  10
  -5  -2   0 25212.9 990.525   6
  -5   2   0 27885.3 1022.49   6
  -5  -2   0 28277.2 1046.80  20
  -5  -2   0 25751.9 1768.98  11
  -5  -2   0 27033.3 981.013  19
  -5  -2   0 28368.3 992.596  29
  -5  -2  -1 122567. 4568.17  15
  -5   2  -1 128770. 4633.96  15
  -5  -2  -1 121071. 4306.58  14
  -5   2  -1 128170. 3660.35  41
  -5  -2  -1 126950. 3740.55  39
  -5  -2  -1 131516. 4923.12  11
   5   2   1 116608. 4813.44  10
  -5  -2  -1 133379. 3692.00  20
  -5  -2  -1 123505. 3619.82  34
  -5  -2  -1 128463. 3630.27  19
  -5  -2  -1 123461. 3633.16  29
  -5  -2  -2 3158.25 562.372  15
  -5   2  -2 3333.09 563.822  15
  -5   2  -2 3923.52 286.446  41
  -5   2  -2 4025.71 259.709  23
  -5  -2  -2 4258.15 291.120  22
  -5  -2  -2 4361.15 301.443  20
   5   2   2 3747.72 647.452  10
  -5  -2  -2 4353.29 289.276  34
  -5  -2  -2 4361.24 297.487  29
  -5  -2  -3 223.330 83.0381  24
  -5   2  -3 96.4780 71.6172  41
  -5  -2  -3 78.0266 74.3940  23
  -5   2  -3 58.3401 60.5017  23
  -5  -2  -3 178.067 84.7214  22
  -5  -2  -3 174.646 84.1795  20
   5   2   3 310.840 200.431  10
  -5  -2  -3 94.9870 77.2282  34
  -5  -2  -3 190.638 89.6582  29
  -5  -2  -4 35507.4 1192.03  24
  -5   2  -4 32945.8 1177.15  41
  -5  -2  -4 36498.0 1264.03  23
  -5   2  -4 34797.3 1188.11  23
   5   2   4 31876.1 1949.85  10
  -5  -2  -4 36054.8 1204.67  34
  -5  -2  -4 32709.9 1156.13  32
  -5  -2  -5 71049.9 2284.81   4
  -5   2  -5 70091.3 2275.95   4
  -5  -2  -5 74173.1 2200.57  24
  -5   2  -5 67560.9 2160.79  41
  -5  -2  -5 77894.3 2290.07  23
  -5   2  -5 71002.3 2207.87  23
  -5  -2  -5 68989.2 2164.16  32
  -5  -2  -5 74414.0 2225.87  29
  -5  -2  -6 25269.9 920.648  26
  -5  -2  -6 24768.8 1023.56   4
  -5   2  -6 25907.3 1036.50   4
  -5  -2  -6 26236.0 960.393  24
  -5  -2  -6 27082.8 1021.92  23
  -5   2  -6 24657.3 975.292  23
  -5  -2  -6 26086.6 941.371  32
  -5  -2  -7 66827.3 2117.54  26
  -5  -2  -7 66846.6 2164.09  24
  -5  -2  -7 73271.6 2292.32   4
  -5   2  -7 71796.9 2279.85   4
  -5  -2  -7 74998.7 2234.28  23
   5   2   7 68108.4 3131.15   1
  -5   2  -7 69047.3 2217.08  23
   5  -2   7 71583.2 3159.41   1
  -5  -2  -7 72496.0 2181.45  34
  -5  -2  -7 72541.2 2159.79  32
  -5  -2  -8 5803.82 334.519  26
  -5  -2  -8 6109.49 383.649  23
  -5  -2  -8 6339.86 428.479   4
  -5   2  -8 5926.44 416.973   4
  -5   2  -8 6777.64 412.700  23
  -5   2  -8 6634.99 401.570  21
  -5  -2  -8 6429.21 378.907  34
  -5  -2  -9 3550.45 245.080  26
  -5  -2  -9 3712.82 281.448  23
  -5   2  -9 4033.64 303.012  21
  -5  -2  -9 3671.59 312.889   4
  -5   2  -9 3679.54 312.059   4
  -5  -2  -9 4165.93 282.798  34
  -5  -2 -10 8421.28 381.673  26
  -5  -2 -10 7744.86 410.932  23
  -5   2 -10 8743.81 451.568  21
  -5  -2 -10 7800.50 401.907  34
  -5  -2 -11 491.377 85.2223  26
  -5  -2 -11 456.442 113.794  39
  -5  -2 -11 521.317 94.5984  23
  -5   2 -11 506.364 104.155  21
   5   2  11 451.594 106.072  18
   5   2  11 335.193 93.6631   5
   5  -2  11 479.859 100.641   5
  -5  -2 -12 4339.48 256.115  39
  -5   2 -12 4207.86 252.967  21
  -5   3  13 4708.31 229.297  36
  -5  -3  12 603.512 110.373  35
  -5  -3  11 305.235 89.3891  25
  -5   3  11 402.945 104.152  38
  -5  -3  11 418.875 96.5134  20
  -5  -3  11 348.299 112.817  35
  -5   3  10 1074.98 169.333  38
  -5  -3  10 1195.94 166.434  20
  -5  -3  10 1147.76 124.979  19
  -5  -3  10 1098.31 136.879  27
  -5  -3   9 3440.46 287.565  25
  -5   3   9 3742.59 320.529  38
  -5  -3   9 4113.98 307.319  20
  -5  -3   9 3455.11 244.870  19
  -5  -3   9 3533.42 295.836  30
  -5  -3   9 3375.36 251.581  27
  -5  -3   8 10479.2 541.784  25
  -5  -3   8 9277.17 432.092  22
  -5   3   8 9865.20 581.389  38
  -5   3   8 8335.33 490.313  37
  -5  -3   8 10101.0 540.786  20
  -5  -3   8 9202.96 467.997  19
  -5  -3   8 9574.39 534.905  30
  -5  -3   8 9933.74 502.119  28
  -5  -3   8 9247.84 481.228  27
  -5  -3   7 2413.18 256.922  25
  -5   3   7 2671.46 303.172  38
  -5   3   7 2508.59 281.365  37
  -5  -3   7 2459.59 235.032  19
  -5  -3   7 2489.08 261.283  30
  -5  -3   7 2641.98 248.188  28
  -5  -3   7 2628.95 248.637  27
  -5  -3   6 14733.0 710.876  25
  -5   3   6 15764.4 810.296  38
  -5   3   6 15264.8 798.090  37
  -5  -3   6 17573.8 774.649  20
   5   3  -6 14796.2 1461.36  10
  -5  -3   6 14674.5 675.970  19
  -5  -3   6 15694.1 1215.24   9
  -5  -3   6 15362.4 726.649  30
  -5  -3   6 15490.2 682.758  28
  -5  -3   6 16017.0 710.025  27
  -5  -3   5 14377.3 688.703  25
  -5  -3   5 11580.7 1260.87  11
  -5   3   5 14824.3 796.240  38
  -5   3   5 14555.3 793.798  37
  -5  -3   5 15357.5 727.228  20
   5   3  -5 13312.5 1435.31  10
  -5  -3   5 14446.5 672.303  19
  -5  -3   5 14380.2 1196.65   9
  -5  -3   5 15216.2 708.153  30
  -5  -3   5 15456.8 665.178  28
  -5  -3   4 4412.39 337.219  25
  -5   3   4 5050.20 428.765  38
  -5  -3   4 4031.53 736.263  11
  -5   3   4 4832.60 427.851  37
  -5  -3   4 5042.77 375.773  20
   5   3  -4 4593.16 852.099  10
  -5  -3   4 3915.84 628.463   9
  -5  -3   4 4881.02 355.299  30
  -5  -3   4 4674.84 317.302  28
  -5  -3   4 4847.32 349.471  27
  -5  -3   3 9080.26 929.547  14
  -5  -3   3 10209.5 528.556  25
  -5  -3   3 10087.5 1122.53  11
   5   3  -3 10261.8 1258.04  10
  -5   3   3 9749.05 638.161  37
  -5  -3   3 10554.2 562.575  20
  -5  -3   3 10202.5 526.381  19
  -5  -3   3 9931.13 989.210   9
  -5  -3   3 11332.3 556.981  30
  -5  -3   3 10345.6 533.813  27
  -5  -3   2 25280.1 1607.27  14
  -5  -3   2 27981.8 1030.88  22
   5   3  -2 27151.6 2095.62  10
  -5   3   2 26907.3 1207.91  37
  -5  -3   2 29303.8 1079.57  20
  -5  -3   2 27593.7 1026.26  19
  -5  -3   2 28346.8 1721.58   9
  -5  -3   2 25571.0 1829.76  11
  -5  -3   2 27336.1 1029.91  27
  -5  -3   1 10037.2 968.778  14
  -5  -3   1 12227.6 1195.62  11
   5   3  -1 10926.8 1294.93  10
  -5  -3   1 13619.8 615.486  20
  -5  -3   1 11220.0 546.431  19
  -5  -3   1 11548.0 558.509  27
  -5  -3   0 26532.4 1656.04  14
  -5   3   0 30797.4 1112.02  41
  -5  -3   0 29878.8 1102.00  39
  -5  -3   0 29896.1 1081.13  22
  -5  -3   0 25828.1 1841.44  11
  -5   3   0 27637.8 1217.92  38
   5   3   0 29493.6 2116.63  10
  -5   3   0 29919.6 1284.60  37
  -5  -3   0 30778.2 1110.41  20
  -5  -3   0 29768.6 1061.80  19
  -5  -3   0 29164.7 1062.36  27
  -5  -3  -1 60285.3 1921.50  27
  -5  -3  -1 67211.1 2826.32  14
  -5  -3  -1 67810.1 2044.08  23
  -5   3  -1 61699.6 1983.23  41
  -5  -3  -1 63422.3 2013.35  39
  -5  -3  -1 62001.8 1953.39  22
  -5   3  -1 61594.4 2148.20  38
   5   3   1 61587.6 3206.41  10
  -5  -3  -1 62363.6 1953.37  20
  -5  -3  -1 61708.9 1919.38  19
  -5  -3  -1 56417.2 1937.72  29
  -5   3  -2 46276.6 1544.47  41
  -5  -3  -2 50814.9 2361.39  14
  -5  -3  -2 47174.3 1575.81  23
  -5  -3  -2 48964.5 1527.08  22
  -5   3  -2 42330.4 1673.35  38
   5   3   2 42664.7 2539.02  10
  -5  -3  -2 43728.2 1477.83  20
  -5  -3  -2 44045.6 1504.52  34
  -5  -3  -3 64382.8 1981.85  24
  -5  -3  -3 62563.3 2033.30  23
  -5   3  -3 64797.2 2011.60  41
  -5  -3  -3 63194.2 1967.27  22
   5   3   3 59519.1 3052.36  10
  -5  -3  -3 60216.1 1922.62  20
  -5  -3  -3 64404.2 2002.35  29
  -5  -3  -3 56758.6 2602.03  16
  -5  -3  -4 19580.1 803.429  24
  -5   3  -4 21604.8 844.676  41
  -5  -3  -4 19793.5 840.504  23
  -5  -3  -4 18765.1 781.419  22
  -5   3  -4 19936.8 957.666  37
  -5  -3  -4 20474.4 827.472  29
  -5  -3  -5 2862.57 253.705  24
  -5   3  -5 3070.26 267.314  41
  -5  -3  -5 2997.06 276.034  23
  -5   3  -5 2928.78 238.247  21
  -5   3  -5 3084.47 316.912  37
  -5  -3  -5 3336.67 270.433  34
  -5  -3  -5 3179.33 261.127  32
  -5  -3  -5 2940.61 259.460  29
  -5  -3  -6 10505.3 523.278  26
  -5   3  -6 11979.0 557.176  41
  -5  -3  -6 12066.9 575.565  23
  -5   3  -6 11817.4 539.810  21
  -5   3  -6 10527.4 598.929  37
  -5  -3  -6 12239.5 556.336  34
  -5  -3  -6 11684.0 543.793  32
  -5  -3  -7 2123.01 202.389  26
  -5  -3  -7 2402.26 222.679  23
  -5   3  -7 2287.18 214.111  21
  -5   3  -7 2362.42 212.344  41
  -5  -3  -7 2165.19 207.200  34
  -5  -3  -7 2698.76 225.958  32
  -5  -3  -8 98.2310 71.4754  26
  -5  -3  -8 206.202 84.7033  24
  -5  -3  -8 100.261 67.0451  23
  -5   3  -8 184.962 87.7430  21
  -5  -3  -8 190.331 78.7568  34
  -5  -3  -8 268.544 92.1107  32
  -5  -3  -8 161.462 71.4713  31
  -5  -3  -9 2522.21 191.886  26
  -5  -3  -9 1997.02 183.418  23
  -5   3  -9 2630.94 213.514  21
  -5  -3  -9 2480.60 199.076  34
   5   3   9 2525.33 232.524  18
  -5  -3 -10 14565.4 540.722  26
  -5   3 -10 15418.6 588.209  21
  -5  -3 -10 14575.3 557.918  34
   5   3  10 14553.1 609.683  18
  -5  -3 -11 3600.39 222.542  39
  -5   3 -11-5.63143 11.8843  38
  -5  -3 -12 3098.33 175.721  39
  -5   4  10 308.245 90.8674  38
  -5   4  10 221.106 80.9593  36
  -5  -4  10 291.226 75.9173  35
  -5  -4   9 2199.05 190.623  25
  -5   4   9 2599.74 222.688  38
  -5   4   9 2471.47 224.356  36
  -5  -4   9 1833.31 160.902  19
  -5  -4   9 2518.00 202.650  30
  -5  -4   9 2203.70 177.946  27
  -5  -4   8 183.653 82.3423  27
  -5  -4   8 125.050 63.2792  25
  -5  -4   8 144.382 66.5633  22
  -5   4   8 151.753 73.2287  37
  -5  -4   8 205.365 94.1581  20
  -5  -4   8 247.978 82.8199  19
  -5  -4   8 215.493 83.6652  30
  -5  -4   7 4471.49 310.819  25
  -5  -4   7 5349.16 309.066  22
  -5   4   7 5448.83 368.487  37
  -5  -4   7 5642.11 355.562  20
  -5  -4   7 5633.67 329.292  19
  -5  -4   7 5160.55 328.961  30
  -5  -4   7 5203.71 310.309  28
  -5  -4   6 677.607 132.628  27
  -5  -4   6 353.484 102.412  25
  -5   4   6 723.890 164.479  37
  -5  -4   6 461.945 123.765  20
  -5  -4   6 439.126 113.847  30
  -5  -4   6 451.622 108.692  28
  -5  -4   5 3510.98 271.104  25
  -5   4   5 3500.03 337.605  38
  -5   4   5 2946.69 313.836  37
  -5  -4   5 2782.98 266.151  20
  -5  -4   5 3114.52 263.970  19
  -5  -4   5 3365.15 272.190  27
  -5   4   4 4170.89 369.861  38
  -5   4   4 3855.92 369.210  37
  -5  -4   4 4041.46 315.915  20
  -5   4   4 3807.17 312.788  36
  -5  -4   4 3426.43 283.116  19
  -5  -4   4 3968.96 301.374  27
  -5  -4   3 12.1860 75.7102  27
  -5   4   3 18.4529 100.549  38
  -5   4   3-20.9001 113.883  37
  -5   4   3 26.6309 81.1206  36
  -5  -4   3 106.882 90.6353  20
  -5  -4   3 24.0323 80.1919  19
  -5   4   2 11176.5 651.167  38
  -5   4   2 10785.6 681.236  37
  -5  -4   2 12803.8 593.403  20
  -5   4   2 9932.54 527.739  36
  -5  -4   2 13116.9 578.548  19
  -5  -4   2 11785.6 558.862  27
  -5  -4   1 5033.22 710.206  14
  -5  -4   1 4434.64 320.625  22
  -5   4   1 4432.69 388.069  38
  -5  -4   1 5146.39 340.859  20
  -5  -4   1 4395.84 308.169  19
  -5  -4   1 4142.62 302.737  27
  -5  -4   0 8096.84 428.672  27
  -5  -4   0 8628.38 499.043  23
  -5   4   0 8742.78 489.182  41
  -5  -4   0 8252.76 457.483  22
  -5   4   0 8983.10 566.602  38
  -5   4   0 8862.47 606.876  37
   5   4   0 7628.89 1070.54  10
  -5  -4   0 9066.39 453.896  20
  -5  -4   0 8666.55 441.023  19
  -5  -4  -1 6859.44 423.439  23
  -5   4  -1 6145.34 397.950  41
  -5  -4  -1 6363.60 381.406  22
  -5   4  -1 6024.18 455.873  38
  -5   4  -1 5677.59 486.331  37
  -5  -4  -1 6381.20 354.146  19
  -5  -4  -2 1461.50 188.970  23
  -5   4  -2 1488.06 195.884  41
  -5  -4  -2 1466.10 188.703  39
  -5  -4  -2 1520.72 178.797  22
  -5   4  -2 1544.45 235.120  38
  -5   4  -2 1459.31 249.016  37
  -5  -4  -2 1583.00 192.415  29
  -5  -4  -3 5979.85 365.635  24
  -5   4  -3 6359.99 395.188  41
  -5  -4  -3 5841.18 378.212  23
  -5  -4  -3 6247.53 358.560  22
  -5   4  -3 6158.54 471.945  37
  -5   4  -3 5953.77 448.886  38
  -5  -4  -3 6491.23 380.638  34
  -5  -4  -3 6459.45 386.942  29
  -5   4  -4 4606.75 321.998  41
  -5  -4  -4 4782.67 322.704  23
  -5   4  -4 4693.51 380.144  38
  -5   4  -4 4352.00 362.187  37
  -5  -4  -4 4477.21 305.912  34
  -5  -4  -4 4415.74 311.196  29
  -5   4  -5 12723.1 546.270  41
  -5  -4  -5 11604.2 513.353  23
  -5   4  -5 11012.1 585.215  38
  -5  -4  -5 11762.2 508.263  34
  -5  -4  -5 12281.8 521.353  32
  -5  -4  -5 12304.2 521.433  29
  -5  -4  -6 353.722 97.1660  26
  -5  -4  -6 481.296 106.636  24
  -5   4  -6 441.356 113.473  41
  -5  -4  -6 483.852 100.873  23
  -5   4  -6 532.404 134.400  38
  -5  -4  -6 521.937 104.806  34
  -5  -4  -6 832.915 129.198  32
   5   4   6 564.912 123.479  18
  -5  -4  -7 583.713 105.845  26
  -5  -4  -7 422.568 94.4672  24
  -5   4  -7 732.779 108.059  41
  -5   4  -7-21.1845 38.7592  38
  -5  -4  -7 594.422 100.881  34
  -5  -4  -7-11.6654 23.6398  33
  -5  -4  -7 490.984 104.584  32
  -5  -4  -7 534.873 96.9911  31
   5   4   7 384.152 99.7063  18
  -5  -4  -8 766.833 103.433  26
  -5  -4  -8 686.363 101.136  24
  -5   4  -8 665.543 97.4112  41
  -5  -4  -8 738.077 101.662  34
  -5  -4  -8 728.958 105.697  32
  -5  -4  -8 684.291 94.1689  31
   5   4   8 855.987 119.543  18
  -5  -4  -9 5144.02 301.487  39
   5   4   9 4863.19 267.914  18
  -5  -4 -10 3132.80 200.212  39
  -5   5   8 3647.50 196.440  36
  -5   5   7 724.482 104.444  38
  -5   5   7 711.976 97.2918  37
  -5   5   7 855.298 104.544  36
  -5   5   6 1243.70 145.369  38
  -5  -5   6 1289.56 127.832  22
  -5   5   6 1167.04 144.068  37
  -5   5   6 1165.82 130.585  36
  -5  -5   6 1233.39 126.051  19
  -5  -5   6 1390.47 133.642  27
  -5  -5   5 763.082 110.623  22
  -5   5   5 821.611 132.105  38
  -5   5   5 902.739 143.388  37
  -5  -5   5 779.258 108.385  20
  -5   5   5 652.738 104.187  36
  -5  -5   5 709.302 106.716  19
  -5  -5   5 817.976 111.736  27
  -5   5   4 2376.63 210.406  38
  -5   5   4 2585.17 239.108  37
  -5  -5   4 2361.44 177.096  20
  -5  -5   4 2258.65 169.882  19
  -5  -5   4 2643.22 184.486  27
  -5  -5   3 1011.12 133.755  22
  -5   5   3 840.033 144.193  38
  -5   5   3 1171.90 184.788  37
  -5  -5   3 973.222 124.944  19
  -5  -5   3 1078.79 129.961  27
  -5  -5   2 7416.70 367.530  27
  -5  -5   2 7715.29 393.926  22
  -5   5   2 8627.83 452.982  38
  -5  -5   2 8032.80 379.704  19
  -5  -5   1 3224.58 248.805  23
  -5  -5   1 2968.29 227.605  22
  -5   5   1 2887.99 254.810  38
  -5   5   1 2871.86 288.994  37
  -5  -5   1 3165.95 212.964  19
  -5  -5   0 2148.82 202.696  23
  -5   5   0 2267.04 221.804  38
  -5  -5   0 2565.76 205.062  22
  -5   5   0 2666.36 270.712  37
  -5  -5   0 2300.57 205.636  29
  -5  -5  -1 1357.26 157.292  23
  -5   5  -1 1159.53 160.914  38
  -5  -5  -1 1519.07 154.815  22
  -5   5  -1 1115.33 181.020  37
  -5  -5  -1 1261.40 148.814  34
  -5  -5  -1 1389.79 160.054  29
  -5  -5  -2 1717.78 159.654  23
  -5  -5  -2 1751.31 150.937  22
  -5   5  -2 1699.98 196.310  37
  -5  -5  -2 2259.98 183.179  34
  -5  -5  -2 1917.37 171.901  29
  -5  -5  -3 939.719 113.980  23
  -5   5  -3 8.12434 19.9355  38
  -5   5  -3 242.656 80.2419  37
  -5  -5  -3 1258.30 138.494  34
  -5  -5  -3 1005.54 126.014  29
  -5  -5  -4 59.1481 55.5446  24
  -5   5  -4 56.2022 68.4880  41
  -5  -5  -4 21.3527 51.3198  34
  -5  -5  -4 53.0441 57.6716  32
  -5  -5  -4 56.5018 55.1144  29
  -5  -5  -5 465.851 84.1624  26
  -5  -5  -5 542.159 87.5712  24
  -5   5  -5 536.739 96.3691  41
  -5  -5  -5 499.880 82.8038  34
  -5  -5  -5 499.049 89.3806  32
  -5  -5  -6 1774.42 131.315  39
   6   0 -13 206.671 61.2391   8
  -6   0  12 1016.62 159.756  35
   6   0 -12 1120.47 157.485   8
   6   0 -11-12.7411 85.0273   8
  -6   0  11 44.7581 90.8887  35
   6   0 -10 544.710 150.625   8
  -6   0  10 436.845 140.933  35
  -6   0   9 2548.89 299.151  35
   6   0  -9 2571.84 279.026   8
  -6   0   8 4707.90 751.849  11
   6   0  -8 5406.72 409.936   8
   6   0  -7 602.830 326.844   3
  -6   0   7 962.136 365.346  11
  -6   0   7 585.816 110.091  20
   6   0  -6 732.272 326.179   3
  -6   0   6 1722.89 232.952   6
  -6   0   6 1279.94 403.503  11
  -6   0   6 1194.30 158.729  20
   6   0  -5 717.521 346.605   3
  -6   0   5 783.618 318.449  11
  -6   0   5 460.213 150.279   6
  -6   0   5 340.179 105.815  20
   6   0  -4 129.070 208.032   3
  -6   0   4-63.6693 155.148  11
  -6   0   4 15.9394 82.3940   6
  -6   0   4 11.7239 63.8813  20
   6   0  -3 3516.10 645.829   3
  -6   0   3 3995.98 667.024  11
  -6   0   3 4788.88 372.029   6
  -6   0   3 5536.14 349.973  20
   6   0  -2 19370.0 1479.93   3
  -6   0   2 17477.4 688.610  23
  -6   0   2 18863.7 1452.99  11
  -6   0   2 17404.0 814.972   6
  -6   0   2 20071.3 778.875  20
  -6   0   1 1481.04 167.522  23
  -6   0   1 1403.28 203.272  38
  -6   0   1 1310.89 404.232  11
  -6   0   1 1530.22 185.737  20
  -6   0   1 1306.13 198.608   6
  -6   0   0 838.842 343.156  15
  -6   0   0 705.575 131.300  23
  -6   0   0 634.631 139.281  20
  -6   0   0 654.147 147.038   6
  -6   0  -1 11122.7 1130.25  15
  -6   0  -1 12459.1 554.841  23
  -6   0  -1 11223.7 629.225  39
  -6   0  -1 11194.4 458.535  34
  -6   0  -2 15087.9 1341.10  15
  -6   0  -2 16084.8 680.783  23
  -6   0  -2 15901.6 604.300  34
  -6   0  -3 5498.87 802.761  15
  -6   0  -3 6571.16 390.332  23
  -6   0  -3 6783.43 461.422  39
  -6   0  -3 6230.84 334.717  34
  -6   0  -4 3132.77 264.642  23
  -6   0  -4 2857.84 294.401  39
  -6   0  -4 3059.26 232.371  34
  -6   0  -5 2861.13 263.061  23
  -6   0  -5 2952.15 233.557  34
  -6   0  -5 2504.90 284.497  39
  -6   0  -6 13787.2 743.844   4
  -6   0  -6 15839.2 697.323  23
  -6   0  -6 14614.0 737.066  39
  -6   0  -6 15569.0 650.175  34
  -6   0  -7 12782.6 685.883   4
  -6   0  -7 12911.1 624.418  23
  -6   0  -7 12417.1 655.920  39
  -6   0  -8 4634.69 383.765   4
  -6   0  -8 4952.28 370.729  39
  -6   0  -9 16476.1 776.370   4
  -6   0  -9 16523.7 719.905  39
  -6   0 -10 12371.2 555.326  23
  -6   0 -10 11679.1 593.823   4
  -6   0 -11 3534.61 242.531  23
  -6  -1  13 34.6735 59.7518  35
   6  -1 -12 321.755 93.6758   8
   6   1 -12 548.979 112.035   8
  -6  -1  12 377.138 120.420  35
  -6  -1  11 4390.53 347.250  35
   6  -1 -11 4179.30 303.785   8
   6   1 -11 3708.37 291.531   8
  -6   1  10 10029.6 547.636  35
  -6  -1  10 10525.6 609.497  35
   6  -1 -10 10330.2 552.040   8
   6   1 -10 11186.9 565.640   8
  -6  -1   9 10047.1 491.998  20
  -6   1   9 10085.5 565.137  35
   6  -1  -9 11299.2 593.039   8
   6   1  -9 10768.0 581.051   8
  -6   1   8 1894.75 218.456  38
  -6  -1   8 2166.62 218.205  20
  -6   1   8 2018.27 239.473  35
   6  -1  -8 2179.84 259.874   8
   6   1  -8 2311.82 260.020   8
   6  -1  -7 1874.75 248.724   8
   6   1  -7 2259.45 259.803   8
  -6   1   7 1777.66 222.648  38
  -6  -1   7 2620.73 596.422  11
  -6  -1   7 2084.36 220.698  20
   6   1  -7 2294.26 538.454  10
  -6   1   7 2148.08 246.731  35
   6  -1  -6 2465.19 540.193   3
   6   1  -6 2603.44 553.419   3
  -6  -1   6 2325.53 268.611   6
  -6   1   6 2572.78 279.360   6
  -6   1   6 2466.27 268.001  38
  -6  -1   6 1893.05 517.964  11
  -6  -1   6 2829.31 263.809  20
  -6  -1   5 7426.55 392.878  23
  -6  -1   5 7553.83 484.537   6
  -6   1   5 6872.01 463.922   6
  -6  -1   5 7065.05 968.416  11
  -6   1   5 7158.53 475.625  38
  -6  -1   5 6765.13 339.300  22
  -6  -1   5 8971.84 482.790  20
   6  -1  -5 7977.15 930.379   3
   6   1  -5 6442.83 856.535   3
  -6  -1   4 3724.76 276.715  23
   6  -1  -4 4062.79 695.331   3
   6   1  -4 3931.62 688.038   3
  -6  -1   4 3865.53 338.173   6
  -6   1   4 3821.69 330.112   6
  -6   1   4 3701.75 338.674  38
  -6  -1   4 4026.73 251.820  22
  -6  -1   4 4226.78 737.705  11
  -6  -1   4 4491.65 338.863  20
  -6  -1   3 10410.5 508.015  23
  -6  -1   3 7663.12 981.491  11
  -6   1   3 10152.0 965.073  11
  -6   1   3 10067.9 591.930  38
  -6  -1   3 10542.9 468.799  22
  -6  -1   3 10239.3 570.673   6
  -6   1   3 9967.93 561.339   6
  -6  -1   3 11950.0 579.303  20
   6  -1  -3 10832.2 1086.88   3
   6   1  -3 9492.80 1028.43   3
   6  -1  -2 50606.1 2527.97   3
   6   1  -2 49807.0 2550.35   3
  -6  -1   2 46041.5 1506.70  23
  -6  -1   2 42020.9 2472.91  11
  -6   1   2 43147.0 2199.38  11
  -6  -1   2 46315.6 1458.03  22
  -6   1   2 44120.1 1634.89  38
  -6  -1   2 45216.8 1593.29   6
  -6   1   2 45755.4 1586.06   6
  -6  -1   2 46733.9 1560.89  20
  -6  -1   2 44590.4 1409.75  29
  -6   1   1 31271.0 1961.84  15
  -6  -1   1 28632.0 1884.58  15
   6  -1  -1 35375.7 2063.10   3
   6   1  -1 34587.7 2065.81   3
  -6  -1   1 35376.4 1160.33  23
  -6  -1   1 34464.2 2128.75  11
  -6  -1   1 30502.6 1079.09  22
  -6   1   1 33798.1 1287.67  38
  -6  -1   1 29487.2 1184.57   6
  -6   1   1 29449.5 1179.07   6
  -6  -1   1 30768.8 1014.65  34
  -6  -1   1 31951.9 1058.45  29
  -6  -1   0 5742.32 801.622  15
  -6   1   0 6988.95 889.700  15
  -6  -1   0 8253.38 456.048  23
  -6  -1   0 7553.92 501.460  39
  -6  -1   0 8849.83 1031.26  11
  -6  -1   0 8390.93 500.742   6
  -6   1   0 7033.30 465.860   6
  -6  -1   0 8108.86 466.578  20
  -6  -1   0 8426.82 385.027  34
  -6  -1   0 8878.93 415.117  29
  -6  -1  -1 2376.05 521.198  15
  -6   1  -1 1828.40 473.112  15
  -6  -1  -1 1758.78 156.117  24
  -6  -1  -1 2078.53 217.269  23
  -6   1  -1 1662.74 167.481  23
  -6  -1  -1 1839.28 242.749  39
  -6  -1  -1 1973.03 217.717  20
  -6  -1  -1 1641.23 165.272  34
  -6  -1  -1 1872.90 183.687  29
  -6  -1  -2 6653.31 877.520  15
  -6   1  -2 6149.44 835.548  15
  -6  -1  -2 6450.09 334.856  24
  -6  -1  -2 7016.70 420.767  23
  -6   1  -2 6821.26 366.215  23
  -6  -1  -2 6924.99 423.002  20
  -6  -1  -2 5910.08 434.123  39
  -6  -1  -2 6873.98 358.097  34
  -6  -1  -3 23297.2 843.163  24
  -6  -1  -3 25060.0 965.643  23
  -6   1  -3 24378.3 896.364  23
  -6  -1  -3 23042.5 1010.28  39
  -6  -1  -3 24158.9 872.130  34
  -6  -1  -4 760.269 126.303  24
  -6  -1  -4 983.483 163.325  23
  -6   1  -4 1011.67 149.723  23
  -6  -1  -4 1160.93 152.251  34
  -6   1  -5 1413.72 183.095  23
  -6  -1  -5 1246.87 159.951  34
  -6  -1  -6 21653.4 963.271   4
  -6   1  -6 21857.2 953.842   4
  -6   1  -6 22501.5 886.933  23
  -6  -1  -6 21914.0 964.675  39
  -6  -1  -6 21431.4 836.094  34
  -6  -1  -7 7019.64 477.331   4
  -6   1  -7 7068.97 472.637   4
  -6  -1  -7 7599.31 441.194  23
  -6   1  -7 7655.19 441.348  23
  -6  -1  -7 7070.86 480.847  39
  -6  -1  -7 6934.69 397.224  34
  -6  -1  -8 11891.7 649.998   4
  -6   1  -8 12258.7 647.174   4
  -6  -1  -8 12668.0 602.189  23
  -6   1  -8 13134.9 614.190  23
  -6  -1  -8 13595.4 670.878  39
  -6  -1  -8 12682.5 573.445  34
  -6  -1  -9 19442.6 767.120  23
  -6   1  -9 19331.4 776.542  23
  -6  -1  -9 19228.6 811.081  39
  -6  -1  -9 18189.7 821.260   4
  -6   1  -9 17377.9 798.330   4
  -6  -1 -10 5908.25 335.893  23
  -6   1 -10 5089.99 324.187  23
  -6  -1 -10 5517.50 342.520  39
  -6   1 -10 5442.50 327.518  21
  -6  -1 -11 465.024 89.5917  23
  -6   1 -11 425.548 88.5416  21
  -6  -2  12 11.7488 20.2628  40
  -6  -2  12 1389.33 159.045  35
  -6  -2  11 3216.14 275.866  35
   6  -2 -11 2720.68 199.076   8
   6   2 -11 2852.74 207.202   8
  -6   2  10 5197.72 314.792  38
  -6  -2  10 5422.47 311.483  20
   6  -2 -10 4494.57 298.697   8
   6   2 -10 5196.69 320.043   8
  -6   2   9 13231.7 625.601  38
  -6  -2   9 14936.4 625.455  20
   6  -2  -9 13989.0 619.528   8
   6   2  -9 13422.6 619.793   8
  -6  -2   8 3228.87 240.104  27
  -6   2   8 3243.35 296.101  38
  -6  -2   8 3297.35 278.377  20
  -6  -2   8 3235.85 230.307  19
   6  -2  -8 3386.70 280.351   8
   6   2  -8 3530.39 291.122   8
  -6  -2   7 24070.7 914.150  27
  -6   2   7 24669.3 1035.29  38
  -6  -2   7 26524.8 1003.85  20
  -6  -2   7 24395.0 890.124  19
   6  -2  -7 24437.0 973.617   8
   6   2  -7 25227.1 985.137   8
  -6  -2   6 2138.19 216.185  27
   6   2  -6 2252.26 247.575   8
  -6   2   6 2049.54 260.572  38
  -6  -2   6 2425.43 194.655  22
  -6  -2   6 2417.95 589.030  11
  -6   2   6 1943.78 258.903  37
  -6  -2   6 2809.66 268.825  20
   6   2  -6 2375.37 590.016  10
  -6  -2   6 2506.42 220.831  19
   6  -2  -6 2365.63 248.797   8
  -6  -2   5 5891.31 399.615   6
  -6   2   5 6059.51 411.420   6
  -6  -2   5 7052.32 982.964  11
  -6  -2   5 6113.04 342.012  22
  -6   2   5 6071.37 457.877  38
   6   2  -5 5997.63 946.573  10
  -6   2   5 6718.65 489.518  37
  -6  -2   5 6715.32 437.035  20
   6  -2  -5 4620.44 691.527   3
   6   2  -5 6043.18 787.940   3
  -6  -2   5 6402.42 376.832  19
  -6  -2   5 6758.82 399.473  27
  -6  -2   4 11429.7 551.065  27
  -6  -2   4 10171.0 546.327   6
  -6   2   4 11530.1 579.950   6
  -6  -2   4 9798.19 1158.77  11
  -6  -2   4 10937.7 500.713  22
  -6   2   4 10097.1 624.854  38
   6   2  -4 10114.8 1242.69  10
  -6   2   4 11129.0 663.593  37
  -6  -2   4 10615.8 521.538  19
   6  -2  -4 10134.4 994.169   3
   6   2  -4 9597.18 998.078   3
  -6  -2   4 9422.31 452.693  29
  -6  -2   3 23227.6 1835.63  11
  -6  -2   3 25958.2 1029.01   6
  -6   2   3 27584.5 1053.76   6
  -6  -2   3 29136.6 999.168  22
  -6   2   3 26385.7 1151.21  38
  -6  -2   3 30194.9 1104.10  20
  -6  -2   3 24939.8 908.156  34
  -6  -2   3 29381.6 1024.58  19
   6  -2  -3 25619.3 1666.45   3
   6   2  -3 29970.5 1798.63   3
  -6  -2   3 26315.0 948.228  29
  -6  -2   2 49115.6 1616.78  27
  -6   2   2 46189.9 2448.70  15
  -6  -2   2 46591.8 2466.95  15
  -6  -2   2 50443.3 1648.83  23
  -6  -2   2 47944.7 2716.20  11
  -6  -2   2 44505.2 1555.48  22
  -6   2   2 51500.1 1808.76  38
  -6  -2   2 45438.6 1614.33   6
  -6   2   2 48025.2 1640.30   6
   6   2  -2 45996.9 2782.95  10
  -6  -2   2 50040.5 1528.65  34
  -6  -2   2 48177.6 1551.85  29
   6  -2  -2 49046.4 2442.82   3
   6   2  -2 46145.5 2407.12   3
   6  -2  -1 47811.3 2413.27   3
   6   2  -1 48586.6 2437.99   3
  -6  -2   1 47281.1 2457.92  15
  -6   2   1 46816.0 2440.49  15
  -6  -2   1 48996.8 1476.77  24
  -6  -2   1 48369.3 1614.78  23
  -6  -2   1 44763.3 1619.98  39
  -6  -2   1 43976.0 2593.11  11
  -6  -2   1 46619.3 1540.12  22
  -6   2   1 47992.3 1761.51  38
  -6  -2   1 45354.9 1580.15   6
  -6   2   1 47311.7 1606.23   6
   6   2  -1 43072.1 2652.38  10
  -6  -2   1 48473.7 1617.77  20
  -6  -2   1 45739.8 1491.54  34
  -6  -2   1 49548.2 1539.77  29
  -6  -2   0 72503.0 3248.70  15
  -6   2   0 73302.7 3261.81  15
   6  -2   0 68904.1 3207.80   3
   6   2   0 78367.1 3312.40   3
  -6  -2   0 71228.3 2182.09  24
  -6  -2   0 74931.8 2331.56  23
  -6  -2   0 77650.7 2387.03  39
  -6  -2   0 71090.7 2247.24  22
  -6  -2   0 74928.1 3522.64  11
  -6   2   0 77068.1 2512.68  38
   6   2   0 71065.5 3510.70  10
  -6  -2   0 64998.6 2263.98   6
  -6   2   0 75399.3 2326.65   6
  -6  -2   0 74534.6 2313.86  20
  -6  -2   0 77457.5 2227.17  34
  -6  -2   0 75481.2 2250.23  29
  -6  -2  -1 19327.1 1475.46  15
  -6   2  -1 20809.1 1526.42  15
  -6  -2  -1 22908.4 821.561  24
  -6  -2  -1 21831.0 917.460  23
  -6  -2  -1 23940.5 979.447  39
  -6   2  -1 23806.4 1066.06  38
   6   2   1 21304.9 1693.21  10
  -6  -2  -1 19642.0 871.287   6
  -6   2  -1 23839.1 930.258   6
  -6  -2  -1 24051.0 923.168  20
  -6  -2  -1 20375.9 820.374  34
  -6  -2  -1 23723.6 875.956  29
  -6  -2  -2 37142.4 1218.16  24
  -6  -2  -2 37790.3 1378.42  39
   6   2   2 34160.1 2191.34  10
  -6  -2  -2 36891.4 1302.14   6
  -6  -2  -2 36898.2 1289.11  20
  -6  -2  -2 37267.7 1241.90  34
  -6  -2  -2 34984.7 1166.96  32
  -6  -2  -2 34341.5 1252.63  29
  -6  -2  -3 4556.38 296.494  24
  -6   2  -3 4658.67 291.976  23
  -6  -2  -3 4785.51 385.786  39
   6   2   3 4306.25 731.284  10
  -6  -2  -3 4182.49 295.174  34
  -6  -2  -3 4313.69 270.033  32
  -6  -2  -3 5324.68 345.683  29
  -6  -2  -4 6858.00 380.928  24
  -6  -2  -4 6707.15 435.889  23
  -6   2  -4 6581.36 372.618  23
  -6  -2  -4 7100.95 479.939  39
  -6  -2  -4 6334.29 377.218  34
  -6  -2  -4 7075.16 357.208  32
  -6  -2  -5 355.538 104.030  24
  -6  -2  -5 392.292 129.298  23
  -6  -2  -5 424.705 149.741  39
  -6   2  -5 350.457 103.023  23
  -6  -2  -5 513.504 138.098   4
  -6   2  -5 422.515 121.011   4
  -6   2  -5 566.208 107.671  21
  -6  -2  -5 341.017 103.477  34
  -6  -2  -5 311.981 83.1234  32
  -6  -2  -6 7463.54 465.845   4
  -6   2  -6 7772.00 472.275   4
  -6  -2  -6 7959.97 415.217  24
  -6  -2  -6 8059.80 458.130  23
  -6   2  -6 7491.48 418.624  23
  -6  -2  -6 8358.44 527.515  39
  -6   2  -6 7641.05 406.825  21
  -6  -2  -6 7648.40 417.733  34
  -6  -2  -6 7748.50 383.572  32
  -6  -2  -7 488.053 124.908  23
  -6   2  -7 357.663 104.347  23
  -6   2  -7 404.325 106.566  21
  -6  -2  -7 548.287 134.275   4
  -6   2  -7 434.859 126.120   4
  -6  -2  -8 1050.60 152.763  23
  -6  -2  -8 1129.80 191.554  39
  -6   2  -8 1265.11 177.423   4
  -6   2  -8 1269.13 157.354  21
  -6  -2  -8 1074.21 163.305   4
  -6  -2  -9 277.452 108.882  39
  -6  -2  -9 217.541 84.1938  23
  -6   2  -9 201.735 80.9925  21
  -6  -2  -9 409.846 92.8928  34
  -6  -2 -10 1463.91 149.395  23
  -6  -2 -10 1975.88 193.401  39
  -6   2 -10 1914.98 166.240  21
   6   2  10 1664.18 169.166  18
  -6  -2 -11 415.146 84.0549  39
  -6  -3  11 2713.38 208.081  35
  -6   3  10 1126.06 133.173  38
  -6  -3  10 1235.59 135.554  20
  -6  -3   9 979.245 120.452  27
  -6   3   9 1379.95 170.952  38
  -6  -3   9 1508.26 164.904  20
  -6  -3   8 12808.0 537.771  27
  -6   3   8 12557.6 614.016  38
  -6  -3   8 12971.3 585.493  20
  -6  -3   8 12471.8 514.861  19
  -6   3   7 6735.65 441.135  38
  -6  -3   7 5872.01 306.897  22
  -6   3   7 6588.65 409.001  37
  -6  -3   7 6252.03 348.922  19
  -6  -3   7 6165.27 356.702  27
  -6  -3   6 4722.86 286.784  22
  -6   3   6 4714.03 386.271  38
  -6   3   6 4381.17 369.596  37
  -6  -3   6 4510.30 303.576  19
  -6  -3   6 5067.61 330.087  27
  -6  -3   5 328.743 98.9298  22
  -6   3   5 331.082 132.859  38
  -6   3   5 417.779 142.885  37
  -6  -3   5 389.355 126.988  20
  -6  -3   5 436.709 113.214  19
  -6  -3   5 211.369 79.6377  29
  -6  -3   4 1574.91 187.625  22
  -6   3   4 1419.42 233.023  38
  -6   3   4 1417.86 243.996  37
  -6  -3   4 1881.84 228.245  20
  -6  -3   4 1776.35 185.527  29
  -6  -3   3 20117.8 789.579  27
  -6  -3   3 18060.9 748.573  22
  -6  -3   3 18946.0 1615.44  11
  -6   3   3 18209.7 894.507  38
  -6   3   3 16708.4 898.193  37
  -6  -3   3 19372.5 824.025  20
  -6  -3   3 17905.1 757.414  19
  -6  -3   3 17773.8 731.982  29
  -6  -3   2 6386.64 394.698  27
  -6  -3   2 6205.70 384.148  22
  -6  -3   2 6153.74 927.266  11
  -6   3   2 6573.55 494.394  38
  -6   3   2 7508.01 545.219  37
  -6  -3   2 6620.73 430.108  20
   6   3  -2 4996.31 901.522  10
  -6  -3   2 6149.30 360.360  34
  -6  -3   2 6786.68 396.545  19
  -6  -3   2 6088.88 372.912  29
  -6  -3   1 40701.4 1522.00  23
  -6  -3   1 44870.8 1487.06  22
  -6  -3   1 45414.6 2598.90  11
  -6   3   1 44273.9 1729.33  37
   6   3  -1 44008.2 2725.47  10
  -6  -3   1 45562.7 1528.51  20
  -6  -3   1 45449.1 1466.51  34
  -6  -3   1 46202.0 1490.77  19
  -6  -3   1 44704.7 1479.58  29
  -6  -3   0 40149.4 1384.84  39
   6   3   0 35531.4 2386.74  10
  -6  -3   0 39355.6 1358.11  20
  -6  -3   0 39884.1 1317.61  34
  -6  -3   0 37335.7 1323.72  29
  -6  -3  -1 5410.67 335.428  24
  -6  -3  -1 5639.62 392.976  23
  -6  -3  -1 5277.18 384.427  39
  -6  -3  -1 6120.64 371.171  22
  -6   3  -1 6249.54 509.375  37
   6   3   1 5257.07 834.926  10
  -6  -3  -1 5375.40 354.552  20
  -6  -3  -1 6130.12 361.533  34
  -6  -3  -1 5840.45 364.823  29
  -6  -3  -2 17597.6 716.273  24
  -6  -3  -2 18718.1 794.812  23
  -6  -3  -2 18016.2 806.670  39
  -6  -3  -2 17487.1 739.531  22
  -6   3  -2 17516.5 892.657  38
  -6   3  -2 17743.3 921.105  37
  -6  -3  -2 18413.2 741.463  20
  -6  -3  -2 17493.5 730.413  34
  -6  -3  -2 19025.5 766.505  29
  -6  -3  -3 13440.2 580.400  24
  -6  -3  -3 13320.8 636.562  23
  -6  -3  -3 12453.7 648.130  39
  -6   3  -3 14191.8 751.895  38
  -6   3  -3 12722.4 729.066  37
  -6  -3  -3 12453.7 579.618  34
  -6  -3  -3 12421.8 547.179  32
  -6  -3  -3 13086.0 602.163  29
  -6  -3  -4 15872.6 649.263  24
  -6  -3  -4 15808.2 704.967  23
  -6  -3  -4 15900.7 749.094  39
  -6   3  -4 16912.3 827.884  38
  -6   3  -4 14065.7 767.697  37
  -6  -3  -4 15100.1 648.042  34
  -6  -3  -4 14876.9 617.950  32
  -6  -3  -5 752.464 116.730  26
  -6  -3  -5 1204.33 154.085  24
  -6  -3  -5 767.913 142.676  23
  -6  -3  -5 1043.44 191.078  39
  -6   3  -5 676.465 179.621  38
  -6   3  -5 704.202 161.205  37
  -6  -3  -5 889.870 130.327  32
  -6  -3  -6 4255.03 251.986  26
  -6  -3  -6 5365.33 306.399  24
  -6  -3  -6 4721.71 310.717  23
  -6  -3  -6 5267.55 373.842  39
  -6   3  -6 4350.09 368.912  38
  -6  -3  -6 5139.72 285.013  32
  -6  -3  -7 3346.82 216.773  24
  -6  -3  -7 3268.58 224.844  23
  -6  -3  -7 3635.63 286.402  39
  -6   3  -7 3207.45 284.351  38
  -6  -3  -7 2935.09 202.925  34
  -6  -3  -8 23.1992 53.2985  23
  -6  -3  -8 47.1251 86.1253  39
  -6   3  -8-49.5672 82.6957  38
  -6  -3  -8-15.0262 50.9667  34
  -6   3  -9 1935.92 186.435  38
  -6  -3  -9 2058.17 159.081  34
   6   3   9 2307.83 187.095  18
  -6  -3 -10 1463.27 138.811  39
  -6   3 -10 657.389 86.0728  38
  -6   4   9 1529.04 135.480  38
  -6   4   9 1334.84 121.755  36
  -6   4   8 1126.42 136.774  38
  -6  -4   8 992.306 122.844  20
  -6   4   8 932.629 121.247  36
  -6  -4   7 2840.45 197.787  27
  -6   4   7 2563.20 228.044  38
  -6   4   7 2210.05 185.832  37
  -6  -4   7 2937.64 218.132  20
  -6   4   7 2311.54 196.125  36
  -6  -4   7 2326.87 178.176  19
  -6  -4   6 1825.01 151.729  22
  -6   4   6 1651.63 185.805  37
  -6  -4   6 1937.75 183.236  20
  -6   4   6 1398.53 154.022  36
  -6  -4   6 1848.45 160.891  19
  -6  -4   5 1727.38 172.336  27
  -6  -4   5 2083.18 173.546  22
  -6   4   5 1772.49 215.729  37
  -6  -4   5 1823.80 185.936  20
  -6   4   5 36.8271 46.2308  36
  -6  -4   5 293.115 71.4118  34
  -6  -4   5 1548.35 150.873  29
  -6  -4   4 3967.12 250.915  27
  -6  -4   4 3859.82 239.815  22
  -6   4   4 4282.46 339.266  37
  -6  -4   4 4369.99 286.856  20
  -6  -4   4 4039.04 248.958  19
  -6  -4   4 3731.76 232.340  29
  -6  -4   3 2774.49 227.667  27
  -6  -4   3 2637.50 223.109  22
  -6   4   3 2717.84 280.498  38
  -6   4   3 2735.50 299.232  37
  -6  -4   3 2817.05 239.908  20
  -6  -4   3 2270.00 195.051  34
  -6  -4   3 2873.22 226.162  19
  -6  -4   3 2617.98 215.843  29
  -6  -4   2 5230.76 359.007  23
  -6   4   2 5415.37 407.833  38
  -6   4   2 5725.05 447.362  37
  -6  -4   2 6091.10 353.819  20
  -6  -4   2 4970.23 311.225  34
  -6  -4   2 6249.49 343.351  19
  -6  -4   2 5838.10 342.975  29
  -6  -4   1 10977.9 544.470  23
  -6   4   1 10900.4 600.873  38
  -6  -4   1 10695.7 495.338  20
  -6  -4   1 9595.48 469.447  34
  -6  -4   1 10444.5 497.539  29
  -6  -4   0 1848.99 179.739  24
  -6  -4   0 2122.34 222.580  23
  -6   4   0 2033.31 252.943  38
  -6  -4   0 2113.36 198.064  22
  -6   4   0 2515.67 303.981  37
  -6  -4   0 2417.67 204.875  20
  -6  -4   0 1804.37 185.361  34
  -6  -4   0 1952.55 201.221  29
  -6  -4  -1 1893.00 183.280  24
  -6  -4  -1 1938.23 206.121  23
  -6   4  -1 1588.56 225.778  38
  -6  -4  -1 1810.05 184.018  22
  -6   4  -1 2416.66 285.038  37
  -6  -4  -1 1736.77 182.804  34
  -6  -4  -1 1843.33 192.580  29
  -6  -4  -2 5070.78 306.549  24
  -6  -4  -2 5164.49 339.489  23
  -6   4  -2 5278.37 394.192  38
  -6   4  -2 5726.70 424.049  37
  -6  -4  -2 5223.74 314.287  34
  -6  -4  -3 5528.35 313.276  24
  -6  -4  -3 5515.98 339.816  23
  -6  -4  -3 4869.38 317.232  39
  -6   4  -3 5508.54 391.091  38
  -6   4  -3 5874.49 407.379  37
  -6  -4  -3 5437.97 314.832  34
  -6  -4  -3 5595.50 305.959  32
  -6  -4  -3 5406.51 324.004  29
  -6  -4  -4 72.7620 54.7007  26
  -6  -4  -4 98.9284 65.1388  24
  -6  -4  -4 161.852 79.5607  23
  -6  -4  -4 40.6149 73.2276  39
  -6   4  -4 94.4657 94.4838  38
  -6   4  -4 99.8018 88.6606  37
  -6  -4  -4 121.100 64.5958  32
   6   4   4 60.1089 61.0515  18
  -6  -4  -5 1094.55 114.460  26
  -6  -4  -5 1060.76 120.916  24
  -6  -4  -5 1004.36 124.992  23
  -6  -4  -5 1219.97 150.888  39
  -6   4  -5 1188.00 164.885  38
  -6  -4  -5 1295.57 131.852  34
   6   4   5 1067.55 129.986  18
  -6  -4  -5 1029.18 117.835  32
  -6  -4  -6 3007.95 200.250  24
  -6  -4  -6 3135.90 201.801  23
  -6  -4  -6 3273.09 235.965  39
  -6   4  -6 2894.21 228.371  38
  -6  -4  -6 3264.67 206.491  34
   6   4   6 2974.68 207.879  18
  -6  -4  -6 3149.84 193.669  32
  -6  -4  -7 2805.32 191.074  39
  -6   4  -7 6.40435 22.0986  38
  -6  -4  -8 4888.50 256.603  39
  -6   5   6 1139.17 100.994  38
  -6   5   5 1658.55 138.217  38
  -6   5   5 1631.85 138.960  37
  -6   5   4 3742.01 230.295  38
  -6   5   4 3963.13 247.693  37
  -6   5   3 1250.27 138.574  38
  -6   5   3 1119.99 142.540  37
  -6  -5   2 1087.53 122.451  23
  -6   5   2 1124.19 135.927  38
  -6  -5   2 1023.95 108.723  22
  -6  -5   2 935.455 108.161  29
  -6  -5   1 2174.28 173.846  23
  -6   5   1 2331.97 190.985  38
  -6  -5   1 2023.03 154.165  22
  -6   5   1 2224.16 207.035  37
  -6  -5   1 2130.27 156.139  34
  -6  -5   1 1912.83 156.653  29
  -6   5   0 427.118 90.0924  38
  -6   5   0 322.354 98.0816  37
  -6  -5   0 509.703 84.0902  34
  -6   5  -1 3097.54 210.663  38
  -6   5  -1 3270.58 234.553  37
  -6  -5  -1 3306.30 199.330  34
  -6  -5  -1 3366.30 207.970  29
  -6   5  -2 5.82586 18.7846  38
  -6   5  -2 807.638 109.185  37
   7   0 -12 84.1255 51.1834   8
   7   0 -11 6965.00 355.047   8
  -7   0  10 7018.66 393.167  35
   7   0 -10 6775.94 387.351   8
  -7   0   9 10236.3 524.662  35
   7   0  -9 10217.5 528.772   8
  -7   0   8 1790.99 222.431  35
   7   0  -8 1704.76 219.337   8
   7   0  -7 2486.25 267.207   8
  -7   0   7 1961.63 179.690  20
  -7   0   7 2359.20 251.804  35
  -7   0   6 20493.8 893.597   6
  -7   0   6 19264.9 753.083  20
  -7   0   5 21512.3 939.292   6
  -7   0   5 20976.0 825.165  20
  -7   0   4 45388.9 1592.33   6
  -7   0   4 39191.8 2332.02  11
  -7   0   4 44203.4 1477.93  20
   7   0  -4 41580.4 2410.63   3
  -7   0   3 10907.9 1140.69  11
  -7   0   3 10404.9 594.812   6
  -7   0   3 10938.7 547.091  20
   7   0  -3 10070.1 1110.85   3
   7   0  -2 854.238 347.986   3
  -7   0   2 1203.45 399.986  11
  -7   0   2 1077.90 164.751  20
  -7   0   2 956.626 189.265   6
   7   0  -1 146.700 219.050   3
  -7   0   1 314.737 83.2534  23
  -7   0   1 308.069 136.967   6
   7   0   0 445.982 271.810   3
  -7   0   0 475.165 104.830  23
  -7   0   0 226.454 113.499  38
  -7   0   0 136.319 119.536   6
  -7   0  -1 108.015 75.6551  23
  -7   0  -1 168.801 106.905  38
  -7   0  -1 50.5590 106.734   6
  -7   0  -2 45320.7 1496.71  23
  -7   0  -3 4417.22 312.202  23
  -7   0  -4 19137.0 782.154  23
  -7   0  -5 36.1209 71.8985  23
  -7   0  -5 185.799 110.845   4
  -7   0  -6 970.742 153.530  23
  -7   0  -6 1016.26 179.894   4
  -7   0  -7 597.474 125.437  23
  -7   0  -7 638.154 143.305   4
  -7   0  -8 1782.13 210.349   4
  -7   0  -8 1974.02 191.071  23
  -7   0  -9 2733.57 214.473  23
  -7  -1  11 2877.56 221.750  35
   7  -1 -11 2779.73 195.044   8
   7   1 -11 2878.03 201.934   8
  -7  -1  10 7849.84 433.290  35
   7  -1 -10 7393.78 386.384   8
   7   1 -10 7397.70 391.415   8
  -7  -1   9 7199.00 439.519  35
   7  -1  -9 6662.65 395.875   8
   7   1  -9 7267.02 413.693   8
  -7  -1   8 1924.81 182.210  20
   7  -1  -8 2444.87 241.519   8
   7   1  -8 2556.56 250.124   8
  -7  -1   7 13660.3 593.049  20
   7  -1  -7 13600.1 660.062   8
   7   1  -7 14416.1 682.774   8
  -7   1   6 8775.09 480.995  38
  -7  -1   6 9256.20 474.046  20
  -7  -1   5 12348.6 645.634   6
  -7   1   5 11790.2 630.322   6
  -7   1   5 12245.2 614.562  38
  -7   1   5 11404.2 634.021  37
  -7  -1   5 12907.9 596.909  20
  -7  -1   4 22963.8 999.350   6
  -7   1   4 23852.9 1002.84   6
  -7  -1   4 22814.6 1771.24  11
  -7   1   4 24172.1 998.113  38
  -7  -1   4 25581.1 971.549  20
   7   1  -4 26707.4 1786.67   3
  -7   1   3 29470.4 1979.64  15
  -7  -1   3 31080.8 2029.08  15
  -7  -1   3 31724.9 1089.80  23
  -7  -1   3 30392.4 1207.19   6
  -7   1   3 29814.1 1194.38   6
  -7  -1   3 31766.8 2111.34  11
  -7   1   3 30296.2 1212.80  38
  -7  -1   3 32702.8 1174.54  20
   7  -1  -3 33713.2 2062.84   3
   7   1  -3 30478.8 1987.97   3
  -7  -1   2 5099.98 820.972  15
  -7   1   2 4686.89 781.001  15
  -7  -1   2 5234.14 335.846  23
   7   1  -2 3968.62 695.863   3
  -7   1   2 4814.30 400.319  38
  -7  -1   2 5156.39 394.297   6
  -7   1   2 5274.80 396.552   6
  -7  -1   2 4264.79 780.125  11
  -7  -1   2 5688.31 380.603  20
   7  -1  -2 5946.56 857.563   3
  -7  -1   1 10432.3 1190.82  15
  -7   1   1 12154.8 1273.24  15
   7  -1  -1 16500.1 1451.34   3
   7   1  -1 14937.9 1360.79   3
  -7  -1   1 15545.5 660.794  23
  -7   1   1 14805.4 764.239  38
  -7  -1   1 14063.5 711.191   6
  -7   1   1 14016.7 714.132   6
  -7  -1   0 4445.14 768.024  15
  -7   1   0 4682.21 788.431  15
  -7  -1   0 5627.26 365.371  23
   7  -1   0 4280.26 802.073   3
   7   1   0 5067.63 837.517   3
  -7   1   0 5647.54 447.149  38
  -7  -1   0 5447.75 403.781   6
  -7   1   0 5275.11 401.737   6
  -7  -1   0 6033.01 401.448  20
  -7  -1  -1 6337.93 893.652  15
  -7  -1  -1 6714.34 408.311  23
  -7   1  -1 6160.58 475.901  38
  -7  -1  -1 7202.17 464.267   6
  -7   1  -1 7080.78 461.389   6
  -7  -1  -1 5951.63 317.325  34
  -7  -1  -2 532.721 133.246  23
  -7  -1  -2 651.455 169.977  39
  -7   1  -2 507.232 101.549  23
  -7  -1  -2 526.809 141.010   6
  -7   1  -2 500.301 149.165   6
  -7  -1  -2 606.224 108.086  34
  -7  -1  -3 2140.91 226.224  23
  -7   1  -3 1959.44 193.415  23
  -7  -1  -3 1569.01 242.590  39
  -7  -1  -3 2059.86 184.734  34
  -7  -1  -4 321.476 105.419  23
  -7  -1  -4 228.112 128.537  39
  -7   1  -4 411.702 99.9643  23
  -7  -1  -4 260.708 86.7846  34
  -7  -1  -5 5385.55 393.712   4
  -7   1  -5 4871.56 381.051   4
  -7  -1  -5 4963.66 348.644  23
  -7   1  -5 5741.41 343.682  23
  -7  -1  -5 5548.63 323.318  34
  -7   1  -6 1349.58 192.696   4
  -7  -1  -6 1308.90 168.540  23
  -7   1  -6 1286.47 164.083  23
  -7  -1  -6 1296.29 207.130  39
  -7  -1  -6 1086.88 179.842   4
  -7  -1  -6 1169.06 149.587  34
  -7  -1  -7 504.477 137.015  39
  -7   1  -7 686.557 124.102  23
  -7  -1  -7 557.564 127.247   4
  -7   1  -7 738.435 147.118   4
  -7  -1  -8 9191.55 484.240   4
  -7   1  -8 9073.43 483.573   4
  -7   1  -8 9277.96 441.009  23
  -7  -1  -8 9478.41 493.123  39
  -7   1  -8 9537.57 423.261  21
  -7  -1  -9 16557.8 619.463  23
  -7   1  -9 16170.1 605.097  23
  -7  -1  -9 15022.1 633.380   4
  -7   1  -9 14845.0 634.148   4
  -7  -2  11 90.9362 59.0965  35
  -7  -2  10 1928.89 182.814  35
   7  -2 -10 1439.69 113.621   8
  -7   2   9 1538.56 138.956  38
  -7  -2   9 1325.79 135.783  20
   7  -2  -9 1491.22 146.296   8
   7   2  -9 1489.03 148.935   8
  -7   2   8 5885.21 332.864  38
  -7  -2   8 5559.25 320.938  20
   7  -2  -8 5964.44 332.228   8
   7   2  -8 5750.73 331.634   8
  -7   2   7 6488.06 391.446  38
  -7  -2   7 6439.29 374.695  20
   7  -2  -7 6541.50 371.986   8
   7   2  -7 6298.55 370.983   8
  -7   2   6 9699.23 515.618  38
  -7   2   6 10375.6 526.931  37
  -7  -2   6 10978.3 511.986  20
   7  -2  -6 10425.1 491.597   8
   7   2  -6 10886.6 501.469   8
   7  -2  -5 1320.17 178.758   8
  -7  -2   5 987.852 142.154  23
  -7   2   5 918.001 181.335  38
  -7   2   5 1512.74 223.539  37
  -7  -2   5 1152.95 176.195  20
  -7  -2   4 4668.14 312.799  23
  -7  -2   4 3734.54 301.487   6
  -7   2   4 4540.02 332.963   6
  -7   2   4 4480.42 377.424  38
  -7   2   4 4549.47 392.959  37
  -7  -2   3 3063.26 257.717  23
  -7  -2   3 2548.22 248.273   6
  -7   2   3 2669.90 261.153   6
  -7   2   3 3468.17 335.679  38
  -7   2   3 2577.99 309.684  37
  -7  -2   2 15624.4 680.383  23
  -7  -2   2 14529.2 671.893   6
  -7   2   2 15980.7 705.411   6
  -7   2   2 15190.8 788.017  38
  -7  -2   2 16009.7 706.284  20
  -7  -2   2 13866.8 580.995  29
  -7  -2   1 6350.71 392.867  23
  -7  -2   1 5982.06 387.633   6
  -7   2   1 5887.85 394.322   6
  -7   2   1 6544.41 484.977  38
  -7  -2   1 5841.02 388.003  20
  -7  -2   1 5362.25 295.506  34
  -7  -2   1 6189.19 339.450  29
  -7  -2   0 580.256 133.398  23
  -7   2   0 617.294 184.876  38
  -7  -2   0 720.133 147.945  20
  -7  -2   0 569.705 124.954   6
  -7   2   0 497.990 128.183   6
  -7  -2   0 551.681 100.538  34
  -7  -2   0 620.289 115.477  29
  -7  -2  -1 11655.7 575.982  23
  -7  -2  -1 10524.5 591.591  39
  -7   2  -1 11464.4 672.924  38
  -7  -2  -1 11123.5 559.595   6
  -7   2  -1 10876.1 559.886   6
  -7  -2  -1 11206.2 563.278  20
  -7  -2  -1 9804.85 464.488  34
  -7  -2  -2 1531.81 153.518  24
  -7  -2  -2 1589.22 210.995  23
  -7  -2  -2 1701.54 227.458  39
  -7   2  -2 2425.80 304.061  38
  -7  -2  -2 1860.08 213.938   6
  -7   2  -2 1926.21 221.856   6
  -7  -2  -2 1628.60 168.482  34
  -7  -2  -3 401.519 88.7899  24
  -7  -2  -3 554.560 130.199  23
  -7  -2  -3 343.948 134.348  39
  -7   2  -3 448.651 166.755  38
  -7  -2  -3 604.763 139.472   6
  -7   2  -3 483.633 129.310   6
  -7  -2  -3 328.882 93.1570  34
  -7  -2  -4-8.11754 57.6776  24
  -7  -2  -4 32.4323 102.668  39
  -7   2  -4 111.244 125.778  38
  -7  -2  -4 26.6604 70.8007   4
  -7   2  -4 40.2610 61.1877   4
  -7  -2  -4 107.294 79.5625   6
  -7   2  -4 12.0264 73.2702   6
  -7  -2  -4 54.6648 64.7333  34
  -7  -2  -5 3500.56 285.774   4
  -7   2  -5 3489.78 288.133   4
  -7  -2  -5 4299.20 349.387  39
  -7  -2  -5 3732.11 278.420   6
  -7   2  -5 3743.31 279.773   6
  -7  -2  -5 3590.00 249.093  34
  -7  -2  -6 2612.04 234.291   4
  -7   2  -6 2084.04 215.538   4
  -7  -2  -6 2689.62 229.726  23
  -7  -2  -6 3147.35 289.421  39
  -7  -2  -6 2068.96 202.815   6
  -7   2  -6 2351.92 211.921   6
  -7  -2  -6 2322.58 194.516  34
  -7  -2  -7 2970.12 215.515  23
  -7  -2  -7 3005.70 224.357   4
  -7   2  -7 2481.54 208.476   4
  -7  -2  -7 2666.10 195.133   6
  -7  -2  -7 2931.37 194.078  34
  -7  -2  -8 5193.98 286.281  23
  -7  -2  -8 4920.28 316.856  39
  -7  -2  -8 4334.10 250.743   6
  -7   2  -8 4973.49 270.243   6
  -7  -2  -9 705.321 110.099  39
  -7   2  -9 517.974 111.846  38
  -7  -2  -9 490.059 70.7045   6
  -7   2 -10 491.207 81.6595  38
  -7   3   9 733.859 89.3063  38
  -7   3   8 3170.77 217.155  38
  -7  -3   8 2993.96 202.147  20
  -7   3   7 131.575 83.8128  38
  -7  -3   7 276.397 83.0417  20
  -7  -3   6 608.752 107.649  23
  -7   3   6 609.622 129.565  38
  -7   3   6 526.064 115.121  37
  -7  -3   5 7062.24 375.831  23
  -7   3   5 7448.86 445.608  38
  -7  -3   5 6332.65 320.644  22
  -7   3   5 7233.98 444.255  37
  -7  -3   5 7246.40 398.166  20
  -7  -3   4-43.3859 72.3835  23
  -7  -3   4 24.5173 55.4403  22
  -7   3   4 30.8490 106.310  38
  -7   3   4-16.2906 90.9571  37
  -7  -3   4 57.0364 77.3843  20
  -7  -3   3 13521.0 604.875  23
  -7   3   3 13750.4 687.898  38
  -7  -3   3 13315.5 555.146  22
  -7   3   3 12920.5 700.659  37
  -7  -3   3 12893.0 593.968  20
  -7  -3   3 12515.3 520.090  29
  -7  -3   2 34013.5 1158.43  23
  -7   3   2 34826.3 1283.54  38
  -7  -3   2 33932.1 1103.68  22
  -7   3   2 34090.1 1310.32  37
  -7  -3   2 31251.5 1127.96  20
  -7  -3   2 32233.5 1068.70  29
  -7  -3   1 989.957 160.446  23
  -7   3   1 868.526 192.415  38
  -7   3   1 936.576 197.678  37
  -7  -3   1 1165.47 164.513  20
  -7  -3   1 889.599 121.065  34
  -7  -3   1 944.884 134.527  29
  -7  -3   0 5978.84 309.396  24
  -7  -3   0 7396.71 414.496  23
  -7   3   0 6745.93 476.912  38
  -7  -3   0 6478.69 381.374  20
  -7  -3   0 6613.17 342.474  34
  -7  -3   0 7309.32 374.360  29
  -7  -3  -1 19926.2 704.655  24
  -7   3  -1 20338.3 914.331  38
  -7   3  -1 20769.6 949.437  37
  -7  -3  -1 19265.8 722.796  34
  -7  -3  -1 19624.9 753.690  29
  -7  -3  -2 3692.85 234.200  24
  -7  -3  -2 3713.82 296.342  39
  -7   3  -2 4290.31 371.017  37
  -7  -3  -2 3964.77 250.914  34
  -7  -3  -3 890.003 117.175  24
  -7  -3  -3 1191.81 160.442  23
  -7  -3  -3 825.452 151.612  39
  -7   3  -3 1042.99 190.204  37
  -7  -3  -3 1109.42 133.156  34
  -7  -3  -4 612.257 98.6930  24
  -7  -3  -4 662.182 122.034  23
  -7  -3  -4 685.499 136.817  39
  -7   3  -4 615.606 149.480  38
  -7   3  -4 763.186 150.968  37
  -7  -3  -4 464.852 93.3875  34
  -7  -3  -5 6019.89 332.039  23
  -7  -3  -5 5909.63 367.790  39
  -7   3  -5 5924.23 391.917  38
  -7   3  -5 5997.64 363.158  37
  -7  -3  -5 5448.91 294.895  34
  -7  -3  -6 260.414 75.2381  23
  -7  -3  -6 229.270 89.7845  39
  -7   3  -6 248.290 101.863  38
  -7  -3  -6 208.754 66.5014  34
  -7  -3  -7 3598.85 246.424  39
  -7   3  -7 3461.61 251.791  38
  -7  -3  -7 3484.52 200.848  34
  -7  -3  -8 3419.46 210.556  39
  -7   3  -8 2600.67 188.644  38
  -7   4   7 1365.07 117.294  38
  -7   4   6 1022.21 123.469  38
  -7   4   5 2997.49 218.578  38
  -7   4   5 2328.89 190.162  37
  -7  -4   4 7417.96 353.790  23
  -7   4   4 7795.79 403.254  38
  -7   4   4 7720.06 402.297  37
  -7  -4   4 7032.55 338.655  20
  -7  -4   3 8867.72 405.106  23
  -7   4   3 8650.06 462.587  37
  -7  -4   3 8141.21 376.232  20
  -7  -4   2 8670.31 408.686  23
  -7   4   2 8771.74 480.741  37
  -7  -4   2 8175.67 375.967  20
  -7  -4   2 8173.53 358.641  29
  -7   4   1 1097.25 160.368  38
  -7  -4   1 944.964 115.539  20
  -7  -4   1 925.186 103.666  34
  -7  -4   1 924.830 117.592  29
  -7  -4   0 7875.25 383.869  23
  -7   4   0 7432.21 418.867  38
  -7   4   0 7740.01 449.237  37
  -7  -4   0 7020.69 322.140  34
  -7  -4   0 7219.43 343.370  29
  -7  -4  -1 10242.6 447.652  23
  -7   4  -1 9558.10 477.941  38
  -7   4  -1 10459.7 514.259  37
  -7  -4  -2 4761.80 275.058  23
  -7   4  -2 4387.36 299.525  38
  -7   4  -2 5058.63 321.961  37
  -7  -4  -2 4300.26 235.265  34
  -7  -4  -3 1282.77 132.031  23
  -7   4  -3 1227.54 153.748  38
  -7   4  -3 1109.80 142.491  37
  -7  -4  -3 1039.57 108.602  34
  -7   4  -4 4307.81 236.064  38
  -7   4  -4 5.76219 15.7115  37
  -7   4  -5 521.662 83.4486  38
   8   0 -10 280.810 64.0116   8
   8   0  -9 17030.6 636.935   8
   8   0  -8 38713.7 1272.61   8
   8   0  -7 9883.01 493.026   8
   8   0  -6 1452.72 188.544   8
  -8   0   5 5192.97 370.601   6
  -8   0   4 886.099 165.026   6
  -8   0   3-14.6756 91.1747   6
  -8   0   2 268.358 109.220   6
  -8   0   1 6666.83 438.336   6
  -8   0   0 4588.70 356.071   6
  -8   0  -1 43.6354 95.4411   6
  -8   0  -2 8895.24 414.922  23
  -8   0  -2 8619.43 468.078  38
  -8   0  -2 8313.35 491.333   6
  -8   0  -3 1024.56 135.045  23
  -8   0  -3 919.201 157.842  38
  -8   0  -3 872.828 166.342   6
  -8   0  -4-8.78671 58.6373  23
  -8   0  -4 36.6614 72.9424  38
  -8   0  -4 13.8626 82.7442   4
  -8   0  -4-25.3577 83.1890   6
  -8   0  -5 1056.57 135.211  23
  -8   0  -5 1248.92 169.938  38
  -8   0  -5 1115.96 163.398   6
  -8   0  -6 15.5354 47.3294  23
  -8   0  -6 31.2777 59.5886  38
  -8   0  -6 94.6471 75.8084   6
  -8   0  -7 869.198 127.021  38
  -8   0  -7 1089.51 138.480   6
  -8   0  -8 12781.8 530.754  38
  -8   0  -8 18396.0 593.109   6
   8  -1  -9 5472.12 271.893   8
   8   1  -9 5138.60 268.516   8
   8  -1  -8 4390.72 244.250   8
   8   1  -8 3974.82 230.920   8
   8  -1  -7 5097.14 286.639   8
   8   1  -7 5586.25 296.307   8
   8  -1  -6 5457.69 347.009   8
   8   1  -6 5550.88 349.661   8
  -8   1   5 3373.62 266.377  37
  -8  -1   5 3136.80 239.789  20
  -8  -1   4 1484.89 193.434   6
  -8   1   4 1372.44 189.905   6
  -8   1   4 1171.89 184.120  37
  -8  -1   4 1375.53 170.428  20
  -8  -1   3 4463.91 334.134   6
  -8   1   3 4446.79 337.673   6
  -8   1   3 4432.81 310.113  38
  -8  -1   2 10259.7 542.924   6
  -8   1   2 10409.6 549.579   6
  -8   1   2 9884.48 520.123  38
  -8  -1   1 3286.74 236.660  23
  -8  -1   1 3307.91 295.317   6
  -8   1   1 3752.92 309.230   6
  -8   1   1 3420.75 297.403  38
  -8  -1   0 797.178 124.961  23
  -8  -1   0 1198.24 183.826   6
  -8   1   0 827.626 163.869  38
  -8   1   0 908.441 159.690   6
  -8  -1  -1 4573.14 294.531  23
  -8   1  -1 4668.14 357.587  38
  -8  -1  -1 4385.42 333.014   6
  -8   1  -1 4700.70 345.063   6
  -8  -1  -2 29.1467 62.6390  23
  -8   1  -2 14.8331 82.8202  38
  -8  -1  -2-13.0230 82.4493   6
  -8   1  -2 25.9956 77.5835   6
  -8  -1  -3 4091.34 275.730  23
  -8   1  -3 4107.22 330.894  38
  -8  -1  -3 4399.69 319.751   6
  -8   1  -3 3988.21 305.113   6
  -8  -1  -4 2320.80 230.326   4
  -8   1  -4 1736.71 208.701   4
  -8  -1  -4 2201.74 197.571  23
  -8   1  -4 1972.10 227.355  38
  -8  -1  -4 2275.81 222.291   6
  -8   1  -4 2204.90 216.005   6
  -8  -1  -5 268.842 85.4546  23
  -8   1  -5 191.709 97.4791  38
  -8  -1  -5 328.094 101.518   4
  -8   1  -5 220.323 88.4893   4
  -8  -1  -5 280.156 97.3406   6
  -8   1  -5 248.591 90.3771   6
  -8  -1  -6 1083.09 140.575   4
  -8   1  -6 1332.65 156.562   4
  -8  -1  -6 1223.25 138.431  23
  -8   1  -6 1017.74 158.659  38
  -8  -1  -6 1116.21 143.650   6
  -8   1  -6 1061.19 140.409   6
  -8   1  -7 267.679 94.3283  38
  -8  -1  -7 314.127 83.4960   6
  -8   1  -7 425.400 90.4558   6
  -8  -1  -8 3489.08 193.910   6
  -8   1  -8 3497.19 194.852   6
  -8  -2   8 1423.24 139.113  35
   8  -2  -7 36.3018 45.5731   8
   8   2  -7 33.9268 39.5871   8
  -8   2   6 3078.20 203.518  38
  -8  -2   6 2835.22 205.676  20
   8  -2  -6 3121.88 205.804   8
   8   2  -6 2902.22 203.569   8
  -8   2   5 2245.39 195.242  38
  -8   2   5 2340.91 215.475  37
  -8  -2   5 1998.69 187.223  20
   8  -2  -5 2634.65 199.288   8
   8   2  -5 2241.65 190.932   8
   8  -2  -4 107.126 69.6891   8
   8   2  -4 126.884 72.4525   8
  -8   2   4 98.4928 76.6357  38
  -8   2   4 78.6641 76.6481  37
  -8  -2   4 59.4958 66.2193  20
  -8  -2   3 2280.73 190.335  23
  -8  -2   3 2564.62 215.132   6
  -8   2   3 2417.30 212.009   6
  -8   2   3 2772.53 250.832  38
  -8   2   3 2764.61 274.302  37
  -8  -2   2 21233.8 758.646  23
  -8  -2   2 20453.0 772.668   6
  -8   2   2 19950.6 778.374   6
  -8   2   2 20175.4 848.022  38
  -8   2   2 20881.8 902.229  37
  -8  -2   2 19193.6 782.091  20
  -8  -2   1 4799.85 295.242  23
  -8  -2   1 4377.39 290.016   6
  -8   2   1 4622.08 300.908   6
  -8   2   1 4681.25 351.903  38
  -8   2   1 5075.51 388.759  37
  -8  -2   0 8775.54 432.069  23
  -8  -2   0 8221.25 425.827   6
  -8   2   0 9224.64 446.091   6
  -8   2   0 9091.46 512.224  38
  -8  -2  -1 5794.81 328.716  23
  -8  -2  -1 5701.19 328.039   6
  -8   2  -1 5019.21 313.023   6
  -8   2  -1 4622.10 359.824  38
  -8  -2  -2 2776.92 237.128   4
  -8   2  -2 3008.16 243.639   4
  -8  -2  -2 3400.06 243.411  23
  -8   2  -2 3607.02 303.626  38
  -8  -2  -2 2939.58 227.284   6
  -8   2  -2 3107.17 233.227   6
  -8  -2  -3 948.058 131.817  23
  -8   2  -3 681.016 145.557  38
  -8  -2  -3 844.809 128.017   4
  -8   2  -3 759.918 125.765   4
  -8  -2  -3 754.845 117.040   6
  -8   2  -3 645.196 112.883   6
  -8  -2  -4 411.205 92.2392  23
  -8   2  -4 433.178 119.048  38
  -8  -2  -4 406.378 93.4369   4
  -8   2  -4 397.729 87.9096   4
  -8  -2  -4 269.744 78.9196   6
  -8   2  -4 334.010 83.6849   6
  -8  -2  -4 220.275 61.3646  34
  -8  -2  -5 3704.74 233.533  23
  -8   2  -5 3912.00 284.521  38
  -8  -2  -5 3394.48 207.727   6
  -8   2  -5 3695.27 220.087   6
  -8   2  -5 3652.19 263.493  37
  -8   2  -6 2280.68 194.086  38
  -8  -2  -6 1665.25 116.242   6
  -8   2  -7 7651.50 362.679  38
  -8   3   6 1301.86 112.977  38
  -8   3   5 1615.31 147.055  38
  -8   3   5 983.151 109.794  37
  -8   3   4 180.465 77.2030  38
  -8   3   4 303.030 86.4255  37
  -8  -3   4 247.547 70.2960  20
  -8   3   3 617.814 117.512  38
  -8   3   3 601.686 125.181  37
  -8  -3   3 572.985 95.8695  20
  -8  -3   2 10868.9 459.876  23
  -8   3   2 11337.8 524.520  38
  -8   3   2 11268.7 543.082  37
  -8  -3   1-30.7284 56.1600  23
  -8   3   1 66.3108 86.2215  38
  -8   3   1 74.5740 82.9445  37
  -8  -3   0 471.656 92.4270  23
  -8   3   0 661.990 129.014  38
  -8  -3  -1 8381.53 384.213  23
  -8   3  -1 7963.71 429.642  38
  -8   3  -1 8588.62 459.093  37
  -8  -3  -2 3730.76 229.314  23
  -8   3  -2 2988.45 242.662  38
  -8   3  -2 3755.96 274.507  37
  -8   3  -3 1195.02 149.852  38
  -8   3  -3 1569.13 169.366  37
  -8   3  -4 5526.47 285.508  37
   9   0  -7 233.816 56.4551   8
   9   0  -6-24.9480 52.6524   8
   9   0  -5 266.162 70.1310   8
   9   0  -4 3382.10 232.019   8
  -9   0   3 14.3465 46.2522  37
  -9   0   3 54.2030 66.9552   6
  -9   0   2 120.796 81.7014   6
  -9   0   1 2455.92 207.824   6
  -9   0   0 626.496 115.125   6
  -9   0  -1 89.3599 69.7544   6
  -9   0  -2-8.48973 58.5139   6
  -9   0  -3 3654.99 236.280   6
  -9   0  -4 254.339 61.9127   6
  -9   0  -5 72.1293 51.5190   6
   9  -1  -6 343.700 62.0729   8
   9   1  -6 285.050 59.4458   8
   9  -1  -5 390.861 78.5113   8
   9   1  -5 268.075 71.7155   8
   9  -1  -4 302.908 80.2929   8
   9   1  -4 181.305 69.2990   8
  -9   1   3 8943.50 408.963  37
  -9  -1   2 2804.67 206.514   6
  -9   1   2 2486.24 199.176   6
  -9   1   2 2611.46 217.820  37
  -9  -1   1 3561.82 236.770   6
  -9   1   1 3580.44 236.763   6
  -9   1   1 3644.75 270.167  37
  -9  -1   0 3277.27 222.800   6
  -9   1   0 3277.04 223.637   6
  -9  -1  -1 22.9786 59.7572   6
  -9   1  -1 7.63017 62.3644   6
  -9  -1  -2 4103.20 238.019   6
  -9   1  -2 4543.06 247.249   6
  -9  -1  -3 513.791 86.6345   6
  -9   1  -3 441.551 83.4721   6
  -9  -1  -4 63.1314 45.8124   6
  -9   1  -4 75.4227 46.9112   6
  -9   2   2 550.074 97.7493  37
  -9   2   1 5248.38 296.849  37
  -9   2   0 1976.49 148.707  38
  -9   2   0 2577.50 201.277  37
  -9   2  -1 4525.59 236.170  38
  -9   2  -1 5223.71 292.147  37
  -9   2  -2 2328.03 155.463  38
  -9   2  -2 2195.62 179.480  37
  -9   2  -3 5317.03 265.856  37
   0   0   0    0.00    0.00   0

TITL 190415c in P2(1)/m
REM P2(1)/m (#11 in standard setting)
CELL 1.54184   7.698919   5.608470  13.528043  90.0000  92.6522  90.0000
ZERR   11.00   0.000229   0.000185   0.000390   0.0000   0.0027   0.0000
LATT  1
SYMM -x, y+1/2,-z
SFAC C N O
UNIT 11.00 11.00 11.00
TREF
HKLF 4
END
;
_shelx_hkl_checksum              79448
_olex2_submission_special_instructions 'No special instructions were received'
_oxdiff_exptl_absorpt_empirical_details
;
Empirical correction (ABSPACK) includes:
- Absorption correction using spherical harmonics
- Frame scaling
;
_oxdiff_exptl_absorpt_empirical_full_max 1.524
_oxdiff_exptl_absorpt_empirical_full_min 0.691
loop_
_space_group_symop_operation_xyz
'x, y, z'
'-x, y+1/2, -z'
loop_
_atom_site_label
_atom_site_type_symbol
_atom_site_fract_x
_atom_site_fract_y
_atom_site_fract_z
_atom_site_U_iso_or_equiv
_atom_site_adp_type
_atom_site_occupancy
_atom_site_site_symmetry_order
_atom_site_calc_flag
_atom_site_refinement_flags_posn
_atom_site_refinement_flags_adp
_atom_site_refinement_flags_occupancy
_atom_site_disorder_assembly
_atom_site_disorder_group
O1 O 0.95619(17) 0.6393(3) 0.95368(10) 0.0381(4) Uani 1 1 d . . . . .
H1 H 0.9771 0.5347 0.9971 0.057 Uiso 1 1 calc GR . . . .
N1 N 0.1175(2) 0.1564(4) 0.83042(12) 0.0394(5) Uani 1 1 d . . . . .
C1 C 0.2245(3) 0.7393(5) 0.35782(16) 0.0462(6) Uani 1 1 d . . . . .
H1A H 0.3012 0.6310 0.3234 0.069 Uiso 1 1 calc GR . . . .
H1B H 0.2590 0.9046 0.3458 0.069 Uiso 1 1 calc GR . . . .
H1C H 0.1041 0.7152 0.3331 0.069 Uiso 1 1 calc GR . . . .
C2 C 0.2385(2) 0.6887(4) 0.46752(15) 0.0330(5) Uani 1 1 d . . . . .
C3 C 0.3195(3) 0.4858(5) 0.50609(15) 0.0367(5) Uani 1 1 d . . . . .
H3 H 0.3702 0.3756 0.4625 0.044 Uiso 1 1 calc R . . . .
C4 C 0.3279(3) 0.4408(4) 0.60728(15) 0.0343(5) Uani 1 1 d . . . . .
H4 H 0.3842 0.3008 0.6320 0.041 Uiso 1 1 calc R . . . .
C5 C 0.2549(2) 0.5986(4) 0.67225(14) 0.0276(4) Uani 1 1 d . . . . .
C6 C 0.1716(3) 0.7998(4) 0.63396(16) 0.0367(5) Uani 1 1 d . . . . .
H6 H 0.1190 0.9085 0.6774 0.044 Uiso 1 1 calc R . . . .
C7 C 0.1643(3) 0.8441(4) 0.53304(16) 0.0384(5) Uani 1 1 d . . . . .
H7 H 0.1074 0.9836 0.5084 0.046 Uiso 1 1 calc R . . . .
C8 C 0.2666(2) 0.5585(4) 0.78461(14) 0.0283(4) Uani 1 1 d . . . . .
H8 H 0.1995 0.6898 0.8152 0.034 Uiso 1 1 calc R . . . .
C9 C 0.1822(3) 0.3331(4) 0.80985(14) 0.0309(5) Uani 1 1 d . . . . .
C10 C 0.4525(2) 0.5690(4) 0.83024(13) 0.0263(4) Uani 1 1 d . . . . .
C11 C 0.5188(3) 0.3981(4) 0.89592(15) 0.0309(4) Uani 1 1 d . . . . .
H11 H 0.4487 0.2660 0.9126 0.037 Uiso 1 1 calc R . . . .
C12 C 0.6866(3) 0.4180(4) 0.93764(15) 0.0333(5) Uani 1 1 d . . . . .
H12 H 0.7307 0.2996 0.9823 0.040 Uiso 1 1 calc R . . . .
C13 C 0.7893(2) 0.6099(4) 0.91408(13) 0.0293(5) Uani 1 1 d . . . . .
C14 C 0.7256(3) 0.7817(4) 0.84924(15) 0.0355(5) Uani 1 1 d . . . . .
H14 H 0.7961 0.9137 0.8329 0.043 Uiso 1 1 calc R . . . .
C15 C 0.5579(3) 0.7609(4) 0.80779(16) 0.0348(5) Uani 1 1 d . . . . .
H15 H 0.5144 0.8800 0.7633 0.042 Uiso 1 1 calc R . . . .
loop_
_atom_site_aniso_label
_atom_site_aniso_U_11
_atom_site_aniso_U_22
_atom_site_aniso_U_33
_atom_site_aniso_U_23
_atom_site_aniso_U_13
_atom_site_aniso_U_12
O1 0.0247(7) 0.0585(11) 0.0305(7) 0.0042(7) -0.0043(5) -0.0054(7)
N1 0.0412(10) 0.0449(12) 0.0320(9) -0.0001(9) 0.0007(7) -0.0125(9)
C1 0.0424(12) 0.0624(18) 0.0331(12) 0.0036(11) -0.0036(9) -0.0028(11)
C2 0.0242(9) 0.0442(13) 0.0301(10) 0.0000(9) -0.0036(7) -0.0054(9)
C3 0.0350(11) 0.0436(13) 0.0316(11) -0.0068(9) 0.0023(8) 0.0039(9)
C4 0.0311(10) 0.0346(12) 0.0369(11) -0.0005(9) -0.0008(8) 0.0067(9)
C5 0.0218(8) 0.0315(11) 0.0292(9) -0.0009(8) -0.0020(7) -0.0035(8)
C6 0.0416(12) 0.0325(12) 0.0356(11) -0.0053(9) -0.0012(9) 0.0073(9)
C7 0.0417(11) 0.0355(12) 0.0371(11) 0.0023(9) -0.0065(9) 0.0065(10)
C8 0.0266(9) 0.0299(11) 0.0284(10) -0.0037(8) 0.0010(7) 0.0002(8)
C9 0.0274(9) 0.0416(13) 0.0236(9) -0.0027(9) -0.0013(7) -0.0033(9)
C10 0.0264(9) 0.0287(11) 0.0237(8) -0.0032(8) 0.0006(7) 0.0005(8)
C11 0.0303(10) 0.0306(11) 0.0319(10) 0.0042(8) 0.0006(8) -0.0029(8)
C12 0.0308(10) 0.0381(12) 0.0307(10) 0.0067(9) -0.0023(8) 0.0008(9)
C13 0.0246(9) 0.0418(12) 0.0216(9) -0.0049(8) 0.0007(7) -0.0039(8)
C14 0.0336(11) 0.0363(12) 0.0361(11) 0.0039(9) -0.0028(8) -0.0101(9)
C15 0.0347(11) 0.0328(12) 0.0361(11) 0.0078(9) -0.0057(9) -0.0029(9)
loop_
_atom_type_symbol
_atom_type_description
_atom_type_scat_dispersion_real
_atom_type_scat_dispersion_imag
_atom_type_scat_source
C C 0.0181 0.0091 'International Tables Vol C Tables 4.2.6.8 and 6.1.1.4'
H H 0.0000 0.0000 'International Tables Vol C Tables 4.2.6.8 and 6.1.1.4'
N N 0.0311 0.0180 'International Tables Vol C Tables 4.2.6.8 and 6.1.1.4'
O O 0.0492 0.0322 'International Tables Vol C Tables 4.2.6.8 and 6.1.1.4'
loop_
_geom_angle_atom_site_label_1
_geom_angle_atom_site_label_2
_geom_angle_atom_site_label_3
_geom_angle
_geom_angle_site_symmetry_1
_geom_angle_site_symmetry_3
_geom_angle_publ_flag
C3 C2 C1 122.3(2) . . ?
C7 C2 C1 119.9(2) . . ?
C7 C2 C3 117.82(19) . . ?
C2 C3 C4 121.2(2) . . ?
C5 C4 C3 120.5(2) . . ?
C4 C5 C6 118.51(18) . . ?
C4 C5 C8 121.89(18) . . ?
C6 C5 C8 119.59(18) . . ?
C7 C6 C5 120.7(2) . . ?
C2 C7 C6 121.2(2) . . ?
C9 C8 C5 110.49(16) . . ?
C9 C8 C10 110.74(16) . . ?
C10 C8 C5 113.80(15) . . ?
N1 C9 C8 179.2(2) . . ?
C11 C10 C8 122.69(17) . . ?
C11 C10 C15 118.26(17) . . ?
C15 C10 C8 119.02(17) . . ?
C10 C11 C12 120.80(19) . . ?
C13 C12 C11 119.98(18) . . ?
O1 C13 C12 122.42(18) . . ?
C14 C13 O1 117.51(19) . . ?
C14 C13 C12 120.07(18) . . ?
C13 C14 C15 119.7(2) . . ?
C14 C15 C10 121.20(19) . . ?
loop_
_geom_bond_atom_site_label_1
_geom_bond_atom_site_label_2
_geom_bond_distance
_geom_bond_site_symmetry_2
_geom_bond_publ_flag
O1 C13 1.379(2) . ?
N1 C9 1.149(3) . ?
C1 C2 1.510(3) . ?
C2 C3 1.388(3) . ?
C2 C7 1.385(3) . ?
C3 C4 1.391(3) . ?
C4 C5 1.385(3) . ?
C5 C6 1.386(3) . ?
C5 C8 1.535(3) . ?
C6 C7 1.386(3) . ?
C8 C9 1.468(3) . ?
C8 C10 1.534(3) . ?
C10 C11 1.388(3) . ?
C10 C15 1.390(3) . ?
C11 C12 1.390(3) . ?
C12 C13 1.382(3) . ?
C13 C14 1.378(3) . ?
C14 C15 1.389(3) . ?
