#------------------------------------------------------------------------------
#$Date: 2020-03-07 00:44:47 +0200 (Sat, 07 Mar 2020) $
#$Revision: 249136 $
#$URL: file:///home/coder/svn-repositories/cod/cif/4/51/74/4517472.cif $
#------------------------------------------------------------------------------
#
# This file is available in the Crystallography Open Database (COD),
# http://www.crystallography.net/
#
# All data on this site have been placed in the public domain by the
# contributors.
#
data_4517472
loop_
_publ_author_name
'Parr, Brendan T.'
'Pastor, Richard'
'Sellers, Benjamin D.'
'Pei, Zhonghua'
'Jaipuri, Firoz A.'
'Castanedo, Georgette M.'
'Gazzard, Lewis'
'Kumar, Sanjeev'
'Li, Xiaokai'
'Liu, Wen'
'Mendonca, Rohan'
'Pavana, Roheeth K.'
'Potturi, Hima'
'Shao, Cheng'
'Velvadapu, Venkata'
'Waldo, Jesse P.'
'Wu, Guosheng'
'Yuen, Po-wai'
'Zhang, Zuhui'
'Zhang, Yamin'
'Harris, Seth F.'
'Oh, Angela J.'
'DiPasquale, Antonio'
'Dement, Kevin'
'La, Hank'
'Goon, Leanne'
'Gustafson, Amy'
'VanderPorten, Erica C.'
'Mautino, Mario R.'
'Liu, Yichin'
_publ_section_title
;
 Implementation of the CYP Index for the Design of Selective
 Tryptophan-2,3-dioxygenase Inhibitors
;
_journal_name_full               'ACS Medicinal Chemistry Letters'
_journal_paper_doi               10.1021/acsmedchemlett.0c00004
_journal_year                    2020
_chemical_absolute_configuration ad
_chemical_formula_sum            'C16 H18 N2 O'
_chemical_formula_weight         254.32
_chemical_name_common            9
_chemical_name_systematic        9
_space_group.centring_type       primitive
_space_group_crystal_system      monoclinic
_space_group_IT_number           4
_space_group_name_Hall           'P 2yb'
_space_group_name_H-M_alt        'P 1 21 1'
_atom_sites_solution_hydrogens   geom
_atom_sites_solution_primary     iterative
_atom_sites_solution_secondary   difmap
_audit_creation_method           SHELXL-2018/3
_cell_angle_alpha                90
_cell_angle_beta                 111.019(5)
_cell_angle_gamma                90
_cell_formula_units_Z            2
_cell_length_a                   10.7972(5)
_cell_length_b                   4.73210(10)
_cell_length_c                   13.9575(6)
_cell_measurement_reflns_used    8522
_cell_measurement_temperature    90(2)
_cell_measurement_theta_max      74.4630
_cell_measurement_theta_min      3.3790
_cell_volume                     665.69(5)
_computing_cell_refinement       'CrysAlisPro 1.171.40.35a'
_computing_data_collection       'CrysAlisPro 1.171.40.35a'
_computing_data_reduction        'CrysAlisPro 1.171.40.35a'
_computing_molecular_graphics    ORTEP-32
_computing_publication_material  WinGX
_computing_structure_refinement  SHELXL-2018
_computing_structure_solution    SHELXT-2014
_diffrn_ambient_temperature      90(2)
_diffrn_detector_area_resol_mean 10.0000
_diffrn_measured_fraction_theta_full 1.000
_diffrn_measured_fraction_theta_max 0.972
_diffrn_measurement_device_type  'ROD, Synergy Custom system, HyPix'
_diffrn_measurement_method       '\w scans'
_diffrn_radiation_type           CuK\a
_diffrn_radiation_wavelength     1.54184
_diffrn_reflns_av_R_equivalents  0.0389
_diffrn_reflns_av_unetI/netI     0.0236
_diffrn_reflns_Laue_measured_fraction_full 1.000
_diffrn_reflns_Laue_measured_fraction_max 0.972
_diffrn_refln_scan_rate          0.05
_diffrn_refln_scan_width         0.5
_diffrn_reflns_limit_h_max       13
_diffrn_reflns_limit_h_min       -13
_diffrn_reflns_limit_k_max       5
_diffrn_reflns_limit_k_min       -5
_diffrn_reflns_limit_l_max       17
_diffrn_reflns_limit_l_min       -17
_diffrn_reflns_number            13517
_diffrn_reflns_point_group_measured_fraction_full 0.997
_diffrn_reflns_point_group_measured_fraction_max 0.953
_diffrn_reflns_theta_full        67.000
_diffrn_reflns_theta_max         74.741
_diffrn_reflns_theta_min         3.392
_diffrn_source                   'Rotating-anode X-ray tube'
_exptl_absorpt_coefficient_mu    0.631
_exptl_absorpt_correction_T_max  1.000
_exptl_absorpt_correction_T_min  0.626
_exptl_absorpt_correction_type   gaussian
_exptl_absorpt_process_details
; 
CrysAlisPro 1.171.40.35a (Rigaku Oxford Diffraction, 2018) 
Numerical absorption correction based on gaussian integration over 
   a multifaceted crystal model 
Empirical absorption correction using spherical harmonics, 
 implemented in SCALE3 ABSPACK scaling algorithm. 
;
_exptl_crystal_colour            colorless
_exptl_crystal_density_diffrn    1.269
_exptl_crystal_description       rod
_exptl_crystal_F_000             272
_exptl_crystal_size_max          0.070
_exptl_crystal_size_mid          0.030
_exptl_crystal_size_min          0.030
_refine_diff_density_max         0.189
_refine_diff_density_min         -0.144
_refine_diff_density_rms         0.031
_refine_ls_abs_structure_details
; 
 Flack x determined using 1065 quotients [(I+)-(I-)]/[(I+)+(I-)] 
 (Parsons, Flack and Wagner, Acta Cryst. B69 (2013) 249-259). 
;
_refine_ls_abs_structure_Flack   -0.12(13)
_refine_ls_extinction_coef       0.0134(16)
_refine_ls_extinction_expression Fc^*^=kFc[1+0.001xFc^2^\l^3^/sin(2\q)]^-1/4^
_refine_ls_extinction_method     'SHELXL-2018/3 (Sheldrick 2018)'
_refine_ls_goodness_of_fit_ref   1.061
_refine_ls_hydrogen_treatment    constr
_refine_ls_matrix_type           full
_refine_ls_number_parameters     174
_refine_ls_number_reflns         2595
_refine_ls_number_restraints     1
_refine_ls_restrained_S_all      1.061
_refine_ls_R_factor_all          0.0289
_refine_ls_R_factor_gt           0.0285
_refine_ls_shift/su_max          0.000
_refine_ls_shift/su_mean         0.000
_refine_ls_structure_factor_coef Fsqd
_refine_ls_weighting_details
'w=1/[\s^2^(Fo^2^)+(0.0472P)^2^+0.0970P] where P=(Fo^2^+2Fc^2^)/3'
_refine_ls_weighting_scheme      calc
_refine_ls_wR_factor_gt          0.0773
_refine_ls_wR_factor_ref         0.0777
_reflns_Friedel_coverage         0.740
_reflns_Friedel_fraction_full    0.994
_reflns_Friedel_fraction_max     0.929
_reflns_number_gt                2550
_reflns_number_total             2595
_reflns_threshold_expression     'I > 2\s(I)'
_cod_data_source_file            ml0c00004_si_004.cif
_cod_data_source_block           9
_cod_original_sg_symbol_H-M      'P 21'
_cod_database_code               4517472
_shelx_shelxl_version_number     2018/3
_shelx_space_group_comment
; 
The symmetry employed for this shelxl refinement is uniquely defined 
by the following loop, which should always be used as a source of 
symmetry information in preference to the above space-group names. 
They are only intended as comments. 
;
_shelx_estimated_absorpt_t_min   0.957
_shelx_estimated_absorpt_t_max   0.981
_shelx_res_file
; 
TITL shelxt_a.res in P2(1) 
    shelx.res 
    created by SHELXL-2018/3 at 11:06:41 on 04-Jan-2019 
CELL  1.54184  10.7972   4.7321  13.9575   90.000  111.019   90.000 
ZERR     2.00   0.0005   0.0001   0.0006    0.000    0.005    0.000 
LATT  -1 
SYMM  - X, 1/2 + Y, - Z 
SFAC  C    H    N    O 
UNIT  32 36 4 2 
MERG   2 
FMAP   2 
PLAN   20 
SIZE     0.030   0.030   0.070 
ACTA   134.00 
BOND   $H 
LIST   4 
WPDB  -2 
L.S.  10 
TEMP  -183.00 
WGHT    0.047200    0.097000 
EXTI    0.013357 
FVAR      16.15611 
C1    1    0.646617    0.395827    0.295081    11.00000    0.01814    0.01532 = 
         0.01344   -0.00209    0.00630    0.00015 
AFIX  13 
H1    2    0.652894    0.185260    0.292811    11.00000   -1.20000 
AFIX   0 
C2    1    0.764529    0.533360    0.277603    11.00000    0.01471    0.01691 = 
         0.01824    0.00357    0.00413    0.00306 
C3    1    0.812286    0.492541    0.198958    11.00000    0.01711    0.02438 = 
         0.01766    0.00152    0.00480    0.00398 
AFIX  43 
H3    2    0.770055    0.362662    0.145242    11.00000   -1.20000 
AFIX   0 
C4    1    0.923293    0.644625    0.199562    11.00000    0.01806    0.03470 = 
         0.02020    0.00695    0.00793    0.00662 
AFIX  43 
H4    2    0.956253    0.618588    0.145554    11.00000   -1.20000 
AFIX   0 
C5    1    0.986216    0.833641    0.278154    11.00000    0.01611    0.03151 = 
         0.02853    0.00754    0.00759    0.00000 
AFIX  43 
H5    2    1.060990    0.937216    0.276898    11.00000   -1.20000 
AFIX   0 
C6    1    0.940675    0.872523    0.358650    11.00000    0.01685    0.02265 = 
         0.02361    0.00041    0.00354   -0.00071 
AFIX  43 
H6    2    0.983944    1.000488    0.412778    11.00000   -1.20000 
AFIX   0 
C7    1    0.830617    0.720204    0.358126    11.00000    0.01438    0.01772 = 
         0.01821    0.00201    0.00391    0.00350 
C8    1    0.768800    0.695392    0.434918    11.00000    0.01423    0.01611 = 
         0.01758    0.00015    0.00269    0.00199 
C9    1    0.774617    0.769165    0.531514    11.00000    0.01688    0.01980 = 
         0.01807   -0.00351    0.00282    0.00110 
AFIX  43 
H9    2    0.831832    0.907954    0.574065    11.00000   -1.20000 
AFIX   0 
C10   1    0.623623    0.444737    0.476599    11.00000    0.01759    0.02102 = 
         0.01655    0.00170    0.00627    0.00307 
AFIX  43 
H10   2    0.556167    0.311678    0.472880    11.00000   -1.20000 
AFIX   0 
C11   1    0.509934    0.498645    0.219944    11.00000    0.01596    0.01445 = 
         0.01528   -0.00014    0.00552    0.00063 
AFIX  13 
H11   2    0.513034    0.709385    0.215981    11.00000   -1.20000 
AFIX   0 
C12   1    0.398121    0.419939    0.258551    11.00000    0.01879    0.01417 = 
         0.01482   -0.00105    0.00688   -0.00014 
AFIX  13 
H12   2    0.412629    0.524458    0.323958    11.00000   -1.20000 
AFIX   0 
C13   1    0.261710    0.498777    0.181898    11.00000    0.01712    0.02023 = 
         0.02052   -0.00026    0.00743    0.00071 
AFIX  23 
H13A  2    0.254076    0.707215    0.177207    11.00000   -1.20000 
H13B  2    0.192817    0.427808    0.207249    11.00000   -1.20000 
AFIX   0 
C14   1    0.236211    0.377705    0.074845    11.00000    0.01751    0.02363 = 
         0.01821   -0.00041    0.00228   -0.00240 
AFIX  23 
H14A  2    0.233679    0.168772    0.077299    11.00000   -1.20000 
H14B  2    0.149334    0.444782    0.026693    11.00000   -1.20000 
AFIX   0 
C15   1    0.346448    0.471996    0.037175    11.00000    0.02221    0.02262 = 
         0.01498    0.00018    0.00528   -0.00053 
AFIX  23 
H15A  2    0.331032    0.388680   -0.031205    11.00000   -1.20000 
H15B  2    0.344378    0.680261    0.030038    11.00000   -1.20000 
AFIX   0 
C16   1    0.482533    0.380362    0.111851    11.00000    0.01883    0.01986 = 
         0.01508   -0.00079    0.00655    0.00026 
AFIX  23 
H16A  2    0.551983    0.447631    0.086447    11.00000   -1.20000 
H16B  2    0.486714    0.171423    0.114987    11.00000   -1.20000 
AFIX   0 
N1    3    0.683917    0.609196    0.556920    11.00000    0.01804    0.02405 = 
         0.01728   -0.00190    0.00598    0.00345 
N2    3    0.671274    0.492513    0.401068    11.00000    0.01704    0.01651 = 
         0.01388   -0.00125    0.00447    0.00112 
O1    4    0.407450    0.124478    0.280210    11.00000    0.02388    0.01535 = 
         0.01933    0.00171    0.01045   -0.00146 
AFIX 147 
H1A   2    0.374895    0.089854    0.325321    11.00000   -1.50000 
AFIX   0 
HKLF    4 
  
  
  
  
REM  shelxt_a.res in P2(1) 
REM wR2 = 0.0777, GooF = S = 1.061, Restrained GooF = 1.061 for all data 
REM R1 = 0.0285 for 2550 Fo > 4sig(Fo) and 0.0289 for all 2595 data 
REM 174 parameters refined using 1 restraints 
  
END 
  
WGHT      0.0468      0.0930 
  
REM Highest difference peak  0.189,  deepest hole -0.144,  1-sigma level  0.031 
Q1    1   0.4562  0.4577  0.2412  11.00000  0.05    0.19 
Q2    1   0.5801  0.4528  0.2588  11.00000  0.05    0.19 
Q3    1   0.3324  0.4649  0.2148  11.00000  0.05    0.17 
Q4    1   0.2959  0.4459  0.0621  11.00000  0.05    0.17 
Q5    1   0.4138  0.4229  0.0802  11.00000  0.05    0.17 
Q6    1   0.6997  0.4826  0.2778  11.00000  0.05    0.16 
Q7    1   0.7971  0.7365  0.3952  11.00000  0.05    0.16 
Q8    1   0.8659  0.8709  0.3534  11.00000  0.05    0.14 
Q9    1   0.4953  0.4547  0.1644  11.00000  0.05    0.13 
Q10   1   0.9216  0.8214  0.2191  11.00000  0.05    0.13 
Q11   1   0.8239  0.5410  0.3361  11.00000  0.05    0.13 
Q12   1   0.6592  0.4448  0.3545  11.00000  0.05    0.13 
Q13   1   0.9010  0.7234  0.3621  11.00000  0.05    0.12 
Q14   1   0.7776  0.6714  0.3014  11.00000  0.05    0.12 
Q15   1   0.7359  0.5410  0.4243  11.00000  0.05    0.12 
Q16   1   0.7855  0.7386  0.4774  11.00000  0.05    0.11 
Q17   1   0.6613  0.6134  0.6004  11.00000  0.05    0.11 
Q18   1   0.6847  0.6468  0.4031  11.00000  0.05    0.11 
Q19   1   0.5036  0.1362  0.3136  11.00000  0.05    0.10 
Q20   1   0.2446  0.4462  0.1244  11.00000  0.05    0.10 
;
_shelx_res_checksum              96407
_shelx_hkl_file
; 
   0  -5   0 30.2862 171.327  51 
   0  -5   0-18.6287 133.298  79 
   0  -5   1 17472.4 1065.37  51 
   0  -5  -1 19190.4 895.777  79 
   0  -5  -2 16241.0 744.975  79 
   0  -5   2 14034.7 914.299  51 
   0  -5   2 14165.2 707.792  72 
   0  -5  -3 2846.57 297.183  81 
   0  -5   3 2757.10 344.954  78 
   0  -5  -3 2841.86 257.845  79 
   0  -5  -3 2942.92 409.991  46 
   0  -5   3 2820.77 350.870  80 
   0  -5   3 2618.77 364.038  51 
   0  -5  -3 2642.77 409.316  49 
   0  -5   4 45043.9 1787.39  78 
   0  -5   4 43997.5 1807.03  51 
   0  -5   4 44976.0 1784.33  80 
   0  -5  -4 45527.6 1674.50  81 
   0  -5   5 3789.45 382.300  78 
   0  -5   5 4419.97 414.870  80 
   0  -5  -5 3682.34 340.377  81 
   0  -5   6 15653.2 832.260  80 
   0  -5  -6 16420.1 770.398  81 
   0  -5   6 16232.3 817.913  78 
   0  -5  -6 16932.6 974.265  49 
   0  -5   7 13990.0 696.437  78 
   0  -5  -7 14912.7 852.012  49 
   0  -5  -7 15838.0 700.605  81 
   0  -5  -8 1745.05 236.017  49 
   0  -5   8 1944.31 203.826  80 
   0  -4   0 41958.1 2081.85  46 
   0  -4   0 39972.6 1920.52  49 
   0  -4   0 37845.6 2007.10  47 
   0  -4   0 39789.0 1772.90  78 
   0  -4   0 38990.1 1716.66  80 
   0  -4   1 2105.77 428.717  47 
   0  -4   1 2306.06 366.950  78 
   0  -4  -1 2439.21 474.704  46 
   0  -4   1 1832.01 416.252  46 
   0  -4   1 2020.50 338.268  80 
   0  -4  -1 1916.76 327.466  78 
   0  -4  -1 2485.48 429.572  49 
   0  -4   2 3902.47 482.118  80 
   0  -4  -2 3929.22 566.812  49 
   0  -4  -2 4523.39 434.648  79 
   0  -4   2 3887.77 571.108  47 
   0  -4   2 4764.68 541.170  78 
   0  -4  -2 4438.49 657.692  46 
   0  -4  -2 5022.39 628.749  10 
   0  -4   3 11691.5 991.934  47 
   0  -4   3 14194.7 949.186  80 
   0  -4  -3 13301.6 750.222  79 
   0  -4   3 12763.6 937.787  78 
   0  -4  -3 12953.4 1158.90  46 
   0  -4   3 13188.7 1040.85  51 
   0  -4  -3 14172.5 1078.90  10 
   0  -4   4 765.144 341.776  14 
   0  -4   4 695.700 279.501  47 
   0  -4   4 626.069 247.418  80 
   0  -4   4 824.651 275.634  78 
   0  -4  -4 608.274 280.968  10 
   0  -4  -4 791.247 179.069  79 
   0  -4   4 686.106 290.001  51 
   0  -4  -5 78739.3 3164.47  10 
   0  -4   5 75777.0 2945.96  78 
   0  -4   5 70778.3 2905.11  51 
   0  -4  -5 74873.1 3198.98  49 
   0  -4   5 76845.7 2931.98  80 
   0  -4  -5 72285.3 2409.29  79 
   0  -4  -5 77308.1 3253.77  48 
   0  -4   6 7693.48 715.199  78 
   0  -4  -6 7852.26 843.676  48 
   0  -4   6 6891.85 672.378  51 
   0  -4  -6 7528.88 797.537  10 
   0  -4  -6 7451.31 832.430  49 
   0  -4   6 5554.09 870.067  14 
   0  -4  -7 17788.3 1030.78  81 
   0  -4   7 18322.9 1138.91  80 
   0  -4  -7 19285.9 1330.18  48 
   0  -4  -7 19549.6 1304.98  10 
   0  -4   7 19394.9 1161.73  78 
   0  -4   7 20866.2 1163.28  51 
   0  -4  -7 19554.4 1341.38  49 
   0  -4   7 15692.5 1438.90  14 
   0  -4   8 446.022 378.053  14 
   0  -4   8 87.7580 192.300  80 
   0  -4   8 85.9585 149.474  78 
   0  -4  -8 166.561 229.617  49 
   0  -4  -8 310.290 240.376  10 
   0  -4  -8 45.0509 130.614  81 
   0  -4  -9 1189.32 310.130  49 
   0  -4   9 875.451 223.265  78 
   0  -4   9 997.709 253.553  80 
   0  -4  -9 668.310 189.397  81 
   0  -4  -9 825.936 262.088  10 
   0  -4  10 520.091 158.872  78 
   0  -4 -10 691.817 208.095  10 
   0  -4 -10 653.759 155.150  81 
   0  -4  10 389.765 150.726  80 
   0  -4 -10 548.006 210.140  49 
   0  -4 -11 12168.9 735.200  49 
   0  -4 -11 10757.8 647.479  10 
   0  -4  11 11386.0 597.138  80 
   0  -3   0-28.6431 157.932  49 
   0  -3   0-28.8145 150.283  10 
   0  -3   1 202437. 5912.26  62 
   0  -3  -1 197643. 5948.84  58 
   0  -3   1 187645. 6147.07  49 
   0  -3  -1 186599. 6310.15  48 
   0  -3  -1 190786. 6254.55  10 
   0  -3  -1 187821. 6242.44  49 
   0  -3   2 9748.94 707.050  49 
   0  -3  -2 10805.7 656.533  58 
   0  -3  -2 10505.0 816.220  10 
   0  -3   2 11287.3 846.844  46 
   0  -3   3 37625.1 2101.72  14 
   0  -3  -3 41571.2 1612.55  58 
   0  -3  -3 43197.0 2012.59  48 
   0  -3   3 35596.9 1884.62  47 
   0  -3  -3 44667.8 1960.45  10 
   0  -3   3 37228.4 2153.83  27 
   0  -3  -3 40892.4 1945.64  35 
   0  -3   4 5627.18 567.029  78 
   0  -3   4 5614.62 799.636  27 
   0  -3  -4 4933.39 607.098  49 
   0  -3   4 4883.47 575.661  51 
   0  -3  -4 5539.68 594.120  21 
   0  -3   4 5538.20 764.867  14 
   0  -3  -4 5947.98 642.911  35 
   0  -3  -4 5902.29 675.065  48 
   0  -3   4 4973.10 608.366  47 
   0  -3   5 48640.1 2646.02  14 
   0  -3   5 40919.8 2483.01  27 
   0  -3  -5 50012.7 2208.35  21 
   0  -3  -5 46325.7 1652.41  79 
   0  -3   5 47261.1 2230.30  47 
   0  -3   5 49754.8 2153.69  73 
   0  -3  -5 48140.7 2192.40  29 
   0  -3  -5 49514.5 2288.55  49 
   0  -3  -5 49176.5 2336.07  48 
   0  -3   5 50526.2 2113.61  78 
   0  -3   5 47111.3 2105.39  51 
   0  -3   6 18584.6 1178.36  73 
   0  -3   6 15838.0 1488.85  14 
   0  -3  -6 19053.0 1244.05  21 
   0  -3   6 19296.6 1175.30  78 
   0  -3  -6 19322.6 1333.60  48 
   0  -3  -6 18492.4 1249.72  29 
   0  -3   7 2845.79 561.705  38 
   0  -3   7 2006.59 388.551  73 
   0  -3   7 1737.27 568.796  14 
   0  -3  -7 2537.28 469.082  29 
   0  -3  -7 2095.61 455.273  48 
   0  -3  -7 2496.55 473.939  21 
   0  -3  -8 25467.2 1632.15  48 
   0  -3   8 25500.5 1452.41  73 
   0  -3   8 25839.7 1796.85  38 
   0  -3  -8 30709.0 1701.20  21 
   0  -3  -8 29632.8 1685.52  29 
   0  -3   8 22910.0 1939.22  14 
   0  -3   9 371.987 313.723  38 
   0  -3  -9 222.817 252.131  29 
   0  -3  -9 406.801 268.211  48 
   0  -3  -9 177.868 238.679  21 
   0  -3   9 138.727 191.276  78 
   0  -3  -9 49.4092 128.921  81 
   0  -3 -10 7671.55 776.987  21 
   0  -3 -10 6956.40 720.735  48 
   0  -3  10 6169.88 978.858  14 
   0  -3  10 7887.42 693.001  78 
   0  -3 -10 6093.21 515.584  81 
   0  -3  10 6745.66 888.575  38 
   0  -3  10 8424.40 1070.37  50 
   0  -3 -10 8057.50 797.801  29 
   0  -3  11 11859.4 1196.62  50 
   0  -3  11 10060.8 1056.77  38 
   0  -3 -11 11571.1 646.322  81 
   0  -3 -11 11206.7 908.856  29 
   0  -3 -11 11309.7 907.889  21 
   0  -3  11 10341.7 1161.06  14 
   0  -3 -11 11700.9 948.983  49 
   0  -3 -11 11430.9 840.272  48 
   0  -3  11 11202.6 785.597  78 
   0  -3  12 5644.05 473.800  78 
   0  -3 -12 7508.03 656.381  21 
   0  -3  12 7462.64 853.257  50 
   0  -3 -12 6414.56 621.765  49 
   0  -3 -13 1364.65 234.690  10 
   0  -3 -13 964.995 219.608  21 
   0  -3  13 1593.31 373.530  50 
   0  -3 -13 1019.54 216.687  49 
   0  -2   0 269859. 7899.52  58 
   0  -2   0 271107. 7959.39  62 
   0  -2   1 70553.2 2262.74  58 
   0  -2  -1 67448.3 2247.67  58 
   0  -2   1 65528.9 2282.74  62 
   0  -2  -2 65908.4 2123.67  58 
   0  -2   2 62552.6 2171.97  62 
   0  -2   3 15448.0 675.456  57 
   0  -2   3 15324.6 778.355  62 
   0  -2   4 31730.2 1304.59  62 
   0  -2  -4 33020.5 1220.52  58 
   0  -2   4 29644.1 1261.71  57 
   0  -2  -5 93573.4 2950.99  58 
   0  -2   5 85972.0 3115.96  57 
   0  -2  -6 7535.26 620.843  11 
   0  -2   6 7543.25 661.945  57 
   0  -2  -6 8718.35 539.471  58 
   0  -2   6 8275.58 915.391  27 
   0  -2  -6 7864.99 651.181  21 
   0  -2   6 8889.18 645.179  51 
   0  -2  -6 7074.72 637.387  29 
   0  -2  -7 21603.1 1322.32  48 
   0  -2   7 25076.6 1224.27  51 
   0  -2  -7 25796.9 1343.98  21 
   0  -2   7 23464.3 1564.02  38 
   0  -2  -7 22663.4 1055.32  58 
   0  -2  -7 23339.3 1258.31  11 
   0  -2   7 21759.7 1313.53  57 
   0  -2   7 24483.6 1726.47  14 
   0  -2  -7 22821.4 1288.14  29 
   0  -2  -8 36525.9 1772.35  21 
   0  -2  -8 34309.3 1687.56  11 
   0  -2   8 33942.6 2234.56  14 
   0  -2  -8 36343.3 1771.20  29 
   0  -2   8 33342.3 1609.88  73 
   0  -2   8 31586.3 1774.12  57 
   0  -2   8 39365.2 2192.85  38 
   0  -2  -8 33531.9 1767.41  48 
   0  -2   8 33618.9 1673.87  43 
   0  -2   9 23349.8 1271.60  73 
   0  -2   9 26169.6 1845.78  38 
   0  -2  -9 26216.5 1478.99  21 
   0  -2  -9 23760.8 1168.85  82 
   0  -2  -9 24964.0 1412.70  11 
   0  -2   9 22330.6 1495.73  57 
   0  -2   9 24768.9 1432.45  43 
   0  -2  -9 25225.7 1459.85  29 
   0  -2  -9 23336.6 1137.71  81 
   0  -2   9 23688.7 1885.95  14 
   0  -2  -9 24207.9 1465.91  48 
   0  -2 -10 24863.8 1507.40  29 
   0  -2  10 24436.7 1487.54  43 
   0  -2  10 22815.3 1827.26  38 
   0  -2 -10 26832.1 1273.16  82 
   0  -2 -10 27967.5 1513.88  11 
   0  -2 -10 28421.4 1579.24  21 
   0  -2  10 21050.4 1849.39  14 
   0  -2 -11 9548.20 681.554  82 
   0  -2 -11 9390.14 825.975  11 
   0  -2  11 9006.13 846.418  43 
   0  -2  11 8062.85 1072.42  38 
   0  -2 -11 7273.06 773.277  29 
   0  -2  11 7901.90 1096.73  14 
   0  -2 -11 9762.03 878.908  21 
   0  -2  12 1303.46 529.216  38 
   0  -2  12 1275.61 450.977  14 
   0  -2 -12 1512.43 359.919  21 
   0  -2 -12 1166.61 239.867  82 
   0  -2  12 1413.65 525.380  50 
   0  -2 -12 1373.07 326.430  11 
   0  -2 -12 1701.65 378.543  29 
   0  -2 -13 6320.13 631.458  21 
   0  -2 -13 5733.03 594.596  29 
   0  -2  13 4949.91 785.891  50 
   0  -2 -13 5759.91 581.852  11 
   0  -2  14 13952.3 1092.40  50 
   0  -2 -14 12899.1 816.766  21 
   0  -2 -14 11621.0 765.882  29 
   0  -1   0 20.9969 76.1584  62 
   0  -1   0-10.4339 62.2558  58 
   0  -1  -1 697635. 19143.8  62 
   0  -1   1 742806. 19083.4  58 
   0  -1  -1 719493. 19057.4  58 
   0  -1   1 675923. 19114.8  62 
   0  -1  -2 281552. 7607.22  66 
   0  -1  -2 266299. 7532.83  54 
   0  -1   2 287873. 7584.58  55 
   0  -1   3 23572.9 828.391  55 
   0  -1  -3 22543.0 836.172  66 
   0  -1   3 22875.8 814.323  63 
   0  -1   4 94898.3 2817.54  55 
   0  -1   4 93216.1 2762.58  63 
   0  -1  -4 88463.8 2717.00  69 
   0  -1  -4 87635.7 2820.62  66 
   0  -1  -5 185295. 5494.28  66 
   0  -1  -5 179781. 5367.36  69 
   0  -1   5 186118. 5413.08  63 
   0  -1  -6 281141. 7952.51  69 
   0  -1   6 291629. 7983.71  63 
   0  -1   7 5297.11 376.572  63 
   0  -1  -7 4758.76 360.496  69 
   0  -1  -8 822.863 166.455  69 
   0  -1   8 553.731 286.757  57 
   0  -1   8 1273.57 413.172  38 
   0  -1  -8 644.346 202.816  18 
   0  -1   8 945.593 352.280  14 
   0  -1  -8 783.954 207.353  20 
   0  -1   8 737.337 158.969  63 
   0  -1  -9 15271.0 931.987  20 
   0  -1  -9 14081.7 929.711  37 
   0  -1   9 14297.1 781.402  63 
   0  -1   9 14467.4 1070.02  43 
   0  -1  -9 16062.8 951.370  18 
   0  -1   9 13201.8 1184.24  57 
   0  -1   9 16006.2 1355.54  38 
   0  -1   9 12934.5 1234.38  14 
   0  -1  -9 14803.1 939.902  29 
   0  -1  10 6866.52 886.360  57 
   0  -1 -10 7097.81 680.343  37 
   0  -1  10 7503.46 998.876  38 
   0  -1  10 5798.26 864.040  14 
   0  -1  10 8822.07 865.608  43 
   0  -1 -10 7623.54 633.643  82 
   0  -1 -10 6672.91 640.520  18 
   0  -1 -10 7485.36 552.471  68 
   0  -1 -10 8398.90 723.259  29 
   0  -1  11 50243.9 2442.08  43 
   0  -1 -11 48035.7 2142.12  18 
   0  -1 -11 50945.8 2203.32  37 
   0  -1  11 45112.2 2590.92  57 
   0  -1 -11 52203.4 2234.23  29 
   0  -1 -11 49641.6 2082.21  82 
   0  -1  11 47218.7 2771.78  38 
   0  -1  12 17159.0 1331.24  43 
   0  -1 -12 19001.5 1192.51  37 
   0  -1 -12 19423.5 1215.46  29 
   0  -1  12 17004.8 1588.71  38 
   0  -1 -12 19602.8 1137.71  82 
   0  -1 -12 20307.2 1222.85  18 
   0  -1  13 19262.6 1383.43  43 
   0  -1 -13 22268.2 1186.76  82 
   0  -1 -13 21305.2 1226.81  11 
   0  -1  13 22545.1 1733.73  38 
   0  -1 -13 22371.1 1283.48  29 
   0  -1  13 21305.6 1690.12  50 
   0  -1  13 22036.3 1528.24  23 
   0  -1 -14 19686.2 1034.77  82 
   0  -1  14 18210.5 1434.78  38 
   0  -1 -14 19294.4 1090.46  11 
   0  -1  14 20348.0 1458.39  50 
   0  -1 -14 19328.9 1109.63  29 
   0  -1 -15 2229.85 292.539  11 
   0  -1 -15 1710.47 256.288  29 
   0  -1 -15 1791.37 295.545  21 
   0  -1  15 2166.00 371.053  50 
   0   0   1 215086. 6249.96  55 
   0   0  -1 226374. 6244.44  64 
   0   0  -2 258618. 7415.97  66 
   0   0  -2 257370. 7413.15  64 
   0   0   2 267623. 7435.09  55 
   0   0   3 5914.67 306.633  55 
   0   0  -3 5249.64 280.764  64 
   0   0  -3 5552.11 282.299  66 
   0   0   3 5336.37 230.478  63 
   0   0  -4 198597. 5604.81  66 
   0   0   4 206567. 5654.73  55 
   0   0  -4 181058. 5589.10  64 
   0   0   4 196223. 5516.03  53 
   0   0   4 184257. 5495.29  63 
   0   0  -5 2613.67 240.380  66 
   0   0   5 2731.37 264.634  55 
   0   0  -5 2854.80 239.717  69 
   0   0   5 2688.46 188.148  53 
   0   0   5 2493.15 179.413  63 
   0   0  -6 81078.9 2647.25  69 
   0   0  -6 83287.7 2691.44  66 
   0   0   6 78040.0 2518.31  53 
   0   0   7 10628.9 491.514  63 
   0   0  -7 10722.1 618.454  66 
   0   0   7 10287.5 476.789  53 
   0   0  -7 10162.8 581.190  69 
   0   0   8 39713.5 1342.73  63 
   0   0  -8 35356.7 1386.39  71 
   0   0  -8 37074.1 1477.69  69 
   0   0  -8 37894.4 1522.56  66 
   0   0   9 15486.9 913.992  12 
   0   0  -9 17083.6 876.150  20 
   0   0   9 18969.6 1399.01  38 
   0   0  -9 17528.0 962.728  66 
   0   0  -9 17595.3 925.204  69 
   0   0   9 14957.8 1278.22  57 
   0   0  -9 17508.7 857.464   9 
   0   0   9 17764.9 799.876  63 
   0   0  -9 18484.6 941.198  28 
   0   0   9 15697.6 1025.44  22 
   0   0  10 6062.51 446.410  63 
   0   0 -10 5167.22 485.420  18 
   0   0 -10 6086.78 536.826  69 
   0   0  10 6434.85 752.156  43 
   0   0  10 6164.83 841.411  38 
   0   0  10 4566.22 738.569  57 
   0   0 -10 6139.15 513.437   9 
   0   0 -10 6140.12 518.637  20 
   0   0 -10 5863.81 437.277   1 
   0   0  10 4525.95 567.943  22 
   0   0  11 91286.9 3969.78  38 
   0   0 -11 89933.2 3118.46  20 
   0   0  11 74873.4 3791.36  57 
   0   0 -11 87647.0 3202.62  82 
   0   0  11 90446.3 3661.82  43 
   0   0 -11 89415.9 3117.58  18 
   0   0  11 82160.4 2894.46  63 
   0   0 -11 81333.0 2885.10   1 
   0   0 -11 86305.9 3100.62  69 
   0   0  12 72289.3 3367.06  50 
   0   0  12 69582.4 3113.76  43 
   0   0 -12 66484.6 2598.66  20 
   0   0 -12 64117.3 2627.97  82 
   0   0 -12 65018.8 2580.30  18 
   0   0  12 64656.3 3290.68  38 
   0   0 -13 41309.9 1846.08  20 
   0   0  13 39587.0 2189.70  43 
   0   0 -13 40134.7 1815.11  18 
   0   0 -13 42368.8 1859.55  82 
   0   0 -13 43291.8 1911.35  37 
   0   0 -13 39909.9 1824.91  29 
   0   0  13 35181.1 2249.47  38 
   0   0  13 44577.9 2363.33  50 
   0   0  14 9021.74 933.790  38 
   0   0  14 9355.19 604.322  44 
   0   0  14 8730.08 871.313  43 
   0   0 -14 8833.21 689.264  29 
   0   0 -14 8915.31 687.282  37 
   0   0 -14 9303.16 696.758  82 
   0   0 -14 9549.51 708.121  18 
   0   0 -15 2526.07 315.365  11 
   0   0 -15 2336.24 298.425  29 
   0   0 -15 2859.81 336.885  82 
   0   0  15 3133.80 512.286  23 
   0   1   0-26.3442 59.5593  53 
   0   1   0 25.3861 58.1567  71 
   0   1   1 728326. 19690.4  52 
   0   1   1 715215. 19705.3  71 
   0   1  -1 764660. 19718.6  69 
   0   1   1 595539. 19695.8  57 
   0   1   1 772769. 19780.3  53 
   0   1  -1 691584. 19690.3  53 
   0   1   1 663491. 19760.8  65 
   0   1   2 277968. 7945.03  65 
   0   1   2 291268. 7995.66  53 
   0   1   2 267541. 7945.54  70 
   0   1  -2 278470. 7947.06  69 
   0   1  -3 22268.0 801.649  69 
   0   1  -3 20914.1 719.959  66 
   0   1   3 23177.5 793.317  55 
   0   1   3 20773.0 747.310  65 
   0   1  -4 90442.9 2715.48  66 
   0   1   4 88301.1 2811.20  53 
   0   1  -4 92400.8 2799.04  69 
   0   1  -5 185761. 5503.41  66 
   0   1   5 192440. 5584.19  53 
   0   1  -5 184401. 5578.92  69 
   0   1  -6 275074. 8010.51  66 
   0   1   6 281962. 7963.15  63 
   0   1  -6 284060. 8101.16  69 
   0   1   6 278833. 8073.84  53 
   0   1   7 4172.59 574.166  57 
   0   1   7 4917.15 334.214  63 
   0   1   7 4972.73 386.666  53 
   0   1  -7 4837.08 371.176  66 
   0   1  -7 4775.79 405.297  69 
   0   1  -8 539.308 137.496  28 
   0   1   8 539.843 186.192  12 
   0   1  -8 525.566 162.609  69 
   0   1   8 733.032 175.838   2 
   0   1  -8 604.139 153.784  66 
   0   1   8 328.172 245.101  57 
   0   1   8 453.214 135.362  53 
   0   1   8 784.176 189.003  25 
   0   1   8 713.266 141.184  63 
   0   1   8 798.440 242.566  22 
   0   1   8 517.569 200.833  30 
   0   1  -8 886.939 205.479  71 
   0   1   9 15393.3 1026.44  22 
   0   1   9 14575.9 777.596  53 
   0   1  -9 15109.2 880.863  71 
   0   1   9 12876.4 1178.71  57 
   0   1   9 16716.0 859.473   2 
   0   1   9 15251.9 1115.27  43 
   0   1  -9 14796.1 874.551  69 
   0   1   9 14859.3 925.359  12 
   0   1   9 13819.5 852.715  25 
   0   1  -9 15038.2 704.793   9 
   0   1   9 14301.9 713.513  63 
   0   1  -9 13966.9 733.351  28 
   0   1 -10 7458.10 602.336  71 
   0   1  10 7129.57 733.271  22 
   0   1 -10 7146.43 620.343  82 
   0   1  10 8169.86 637.158  25 
   0   1  10 6983.91 901.140  57 
   0   1  10 7441.84 576.527  31 
   0   1 -10 7508.62 512.897   9 
   0   1 -10 7993.48 561.272  28 
   0   1  10 7158.81 560.133   2 
   0   1  10 6808.93 641.754  12 
   0   1  10 7310.66 495.653  63 
   0   1  10 8098.19 838.126  43 
   0   1 -11 49248.1 1910.95  20 
   0   1 -11 51425.2 2099.39  82 
   0   1  11 47836.8 2435.37  43 
   0   1  11 47240.7 1905.47   2 
   0   1  11 44578.3 1968.38  25 
   0   1 -11 51878.9 1983.37  28 
   0   1  11 45103.3 2615.88  57 
   0   1 -11 52109.4 1897.95   9 
   0   1  11 49599.9 1940.68  31 
   0   1  11 51345.1 1854.47  63 
   0   1  11 44950.7 2088.06  12 
   0   1 -12 18979.4 1090.72  82 
   0   1 -12 19416.6 1018.96  20 
   0   1  12 16665.1 915.999  31 
   0   1 -12 20221.2 1008.13   9 
   0   1  12 18614.4 1364.20  43 
   0   1  13 18052.4 1335.11  43 
   0   1 -13 19896.9 1107.54  82 
   0   1  13 20475.5 1117.73  44 
   0   1 -13 20727.6 1077.56  18 
   0   1 -13 20234.6 1080.68  20 
   0   1 -14 21548.3 1064.28  18 
   0   1 -14 20048.9 1048.74  82 
   0   1 -14 20266.8 1051.44  20 
   0   1  14 21385.4 1064.14  44 
   0   1 -15 1534.71 223.039  29 
   0   1 -15 2372.33 276.508  18 
   0   1  15 2082.28 252.951  44 
   0   2   0 259358. 7467.05  52 
   0   2   0 260503. 7462.60  69 
   0   2   0 276912. 7689.02  71 
   0   2   0 269225. 7641.35  53 
   0   2  -1 69847.0 2112.83  69 
   0   2  -1 73665.2 2324.07  71 
   0   2  -1 67786.9 2169.31  53 
   0   2   1 73502.7 2299.56  65 
   0   2   1 66694.5 2191.52  71 
   0   2   1 71600.6 2264.23  53 
   0   2   2 66129.6 2126.18  53 
   0   2   2 63361.6 2083.13  65 
   0   2   2 66032.2 2114.40  70 
   0   2   2 58545.4 1937.85  71 
   0   2  -2 66742.8 2182.04  71 
   0   2  -2 64356.7 1985.12  69 
   0   2  -3 17939.1 738.267  69 
   0   2   3 17386.9 819.649  53 
   0   2  -3 18621.7 887.811  71 
   0   2   3 18634.9 781.717  70 
   0   2   3 17542.4 758.785  65 
   0   2   4 33497.9 1220.79  65 
   0   2  -4 33713.8 1415.34  71 
   0   2   4 33868.3 1355.11  53 
   0   2  -4 34988.2 1263.07  69 
   0   2  -5 101439. 3256.38  71 
   0   2  -5 97033.7 3034.48  69 
   0   2   6 7504.81 555.505  53 
   0   2   6 8166.12 502.198  63 
   0   2   6 7548.01 663.860  57 
   0   2  -6 7776.94 532.733  69 
   0   2  -7 24752.5 1132.31  69 
   0   2   7 25266.2 1243.84  12 
   0   2  -7 24468.2 1258.76  71 
   0   2   7 25124.0 1183.84  53 
   0   2   7 22680.4 1233.90  30 
   0   2   7 21317.9 1317.56  57 
   0   2   7 23325.4 1250.92  22 
   0   2   8 34230.2 1361.54  63 
   0   2   8 36812.0 1557.97  53 
   0   2  -8 35542.9 1515.23  69 
   0   2   8 34781.1 1687.23  22 
   0   2  -8 31882.4 1233.51  16 
   0   2   8 36245.1 1640.49  12 
   0   2  -8 33523.9 1614.62  71 
   0   2  -9 23738.1 1313.60  71 
   0   2   9 28619.0 1367.05  25 
   0   2   9 24614.7 1344.88  12 
   0   2   9 30341.7 1344.97   2 
   0   2   9 23213.5 1064.04  63 
   0   2   9 23549.3 1395.78  22 
   0   2  -9 22150.0 958.885  16 
   0   2   9 24075.2 1223.82  53 
   0   2  -9 24718.1 1239.70  69 
   0   2  10 28816.0 1361.06   2 
   0   2 -10 25303.2 1379.15  71 
   0   2  10 26036.8 1279.17  53 
   0   2  10 25933.5 1149.88  63 
   0   2 -10 25259.1 1314.00  69 
   0   2  10 27689.0 1403.11  25 
   0   2  10 23713.3 1479.42  22 
   0   2 -10 24608.2 1113.47  28 
   0   2  10 29660.1 1280.19   7 
   0   2  10 24209.8 1407.40  12 
   0   2  10 28926.8 1379.85  31 
   0   2  11 9027.39 733.573  25 
   0   2  11 8865.76 854.278  43 
   0   2  11 10995.0 764.956  31 
   0   2  11 8849.66 742.323  44 
   0   2 -11 9271.17 611.790  28 
   0   2 -11 9160.44 574.575   9 
   0   2  11 9432.20 696.451   2 
   0   2  11 9346.11 618.201   7 
   0   2  11 8200.22 817.843  22 
   0   2  12 1061.89 230.430   2 
   0   2  12 1125.19 244.492  31 
   0   2 -12 1135.29 226.342  28 
   0   2  12 1120.59 265.350  25 
   0   2  12 1353.65 297.798  44 
   0   2 -12 1474.06 247.458   9 
   0   2 -12 1068.76 226.550  82 
   0   2  13 5040.32 441.052  31 
   0   2 -13 5436.98 434.664   9 
   0   2 -13 5439.80 447.086  20 
   0   2 -14 12266.4 677.085  18 
   0   2  14 14437.3 879.121  24 
   0   2 -14 12521.8 690.173  20 
   0   3   0-20.5967 100.906  65 
   0   3   0 43.2889 63.2318  53 
   0   3   0 16.6319 98.6799  71 
   0   3   1 193737. 5997.00  53 
   0   3   1 196561. 6115.13  70 
   0   3  -1 204984. 6093.11  71 
   0   3   1 194626. 6071.60  65 
   0   3   2 10611.8 661.082  53 
   0   3   2 11337.6 685.522  70 
   0   3   2 9957.09 635.628  65 
   0   3  -2 11688.0 725.818  71 
   0   3   3 47268.8 1803.29  53 
   0   3  -3 43839.0 1847.80  71 
   0   3   3 45110.5 1712.32  70 
   0   3   3 43054.4 1673.53  65 
   0   3   4 5753.04 432.611  65 
   0   3   4 6703.18 552.007  53 
   0   3   4 5955.47 450.033  70 
   0   3  -4 5700.44 553.969  71 
   0   3   5 50171.8 1910.19  63 
   0   3  -5 48981.1 2126.90  71 
   0   3   5 54974.3 2084.68  12 
   0   3   5 47902.1 1925.24  44 
   0   3   5 53662.5 2089.21  53 
   0   3   6 20215.7 1104.11  12 
   0   3  -6 18272.5 1118.72  71 
   0   3   6 17305.1 976.014  44 
   0   3   6 17278.5 1040.88  53 
   0   3   6 17760.4 914.149  63 
   0   3   7 2269.23 345.840  44 
   0   3   7 1955.51 361.871  25 
   0   3   7 2346.39 379.838  12 
   0   3   7 1535.33 255.191  63 
   0   3  -7 2469.92 401.616  71 
   0   3   8 25827.5 1446.18  22 
   0   3   8 28898.9 1489.57  12 
   0   3   8 32510.8 1523.99   2 
   0   3   8 26654.6 1224.31  63 
   0   3   8 31113.6 1500.93  25 
   0   3   8 27128.7 1420.37  53 
   0   3   8 27843.1 1397.71  44 
   0   3   9 402.837 220.735  12 
   0   3  -9 185.083 104.886  16 
   0   3   9 70.4265 189.080  22 
   0   3   9 282.907 194.893  25 
   0   3   9 299.545 204.141  31 
   0   3   9 258.203 170.329  44 
   0   3  10 6659.16 643.129  25 
   0   3  10 6471.59 670.050  22 
   0   3 -10 6575.46 457.715  28 
   0   3  10 8033.44 606.611   7 
   0   3  10 6758.11 671.688  12 
   0   3  10 8441.27 678.706   2 
   0   3  10 7892.53 655.378  44 
   0   3  11 12093.3 790.309  31 
   0   3  11 11768.2 780.427  44 
   0   3 -11 11184.0 618.083  28 
   0   3  11 9973.48 799.974  12 
   0   3 -11 10698.8 587.026   9 
   0   3  11 12267.3 709.459   7 
   0   3  11 11620.7 771.229   2 
   0   3 -12 5834.00 412.659  28 
   0   3  12 6758.85 523.487  31 
   0   3 -12 6407.53 419.248   9 
   0   3  12 6952.12 536.316  44 
   0   3  12 6258.90 426.088   7 
   0   3  12 5539.44 478.020   2 
   0   3  13 1075.67 190.226  44 
   0   3 -13 1260.76 177.009   9 
   0   3 -13 1122.12 171.661  20 
   0   4   0 41912.4 1783.49  65 
   0   4   0 41937.0 1837.87  70 
   0   4   1 2523.14 339.525  65 
   0   4   1 2639.67 365.696  70 
   0   4  -1 1708.91 305.196  65 
   0   4  -1 3036.04 411.813  70 
   0   4   2 4476.35 438.093  65 
   0   4  -2 4580.75 506.394  65 
   0   4   2 4808.76 471.844  70 
   0   4   3 12766.7 754.827  65 
   0   4   3 12584.9 777.713  70 
   0   4  -3 13647.0 885.923  71 
   0   4  -3 12229.5 876.674  65 
   0   4   4 704.231 193.771  31 
   0   4   5 75558.6 2839.59  31 
   0   4   5 77724.2 2872.65  25 
   0   4   6 6970.98 591.020  31 
   0   4   6 6976.21 609.535  25 
   0   4   7 21141.5 1131.16   2 
   0   4   7 19771.8 1096.91  25 
   0   4   7 18021.7 1046.07  12 
   0   4   7 22278.1 1120.31   7 
   0   4   7 18183.1 1056.16  31 
   0   4   8 219.771 182.771  31 
   0   4   8 152.530 154.258  25 
   0   4   8 226.294 161.963   7 
   0   4  -8 66.6059 91.0693  16 
   0   4   8 75.0234 134.254  12 
   0   4   8 203.440 167.182   2 
   0   4   9 746.971 170.289  44 
   0   4   9 886.242 227.460   2 
   0   4  -9 868.016 135.354  16 
   0   4   9 646.413 190.598  25 
   0   4   9 882.449 219.121  31 
   0   4  10 395.511 129.504  44 
   0   4  10 500.543 154.325  31 
   0   4  10 683.154 180.217  25 
   0   4  10 409.574 137.229   7 
   0   4  10 503.814 157.489   2 
   0   4 -10 436.598 111.896  28 
   0   4  11 10852.5 600.991  31 
   0   4  11 10127.3 543.726   7 
   0   4 -11 10824.6 492.821   9 
   0   5   3 3000.75 311.013  34 
   0   5   4 53306.3 1799.69  34 
   0   5   4 42430.7 1661.80   7 
   0   5  -5 3663.23 264.218   4 
   0   5   5 3761.88 328.453   7 
   0   5   6 16290.2 788.413   7 
   0   5   6 19790.1 878.175  34 
   0   5  -7 11781.1 501.772  16 
   0   5   7 10901.7 587.916   2 
   0   5   8 2110.04 210.180  34 
  -1  -5   8 1387.60 195.897  80 
   1  -5  -7 8011.75 462.848  81 
  -1  -5   7 7509.58 515.943  80 
  -1  -5   6 21785.3 1046.49  80 
   1  -5  -6 20560.6 1153.11  49 
   1  -5  -6 23051.9 953.773  81 
  -1  -5   5 777.656 212.006  51 
  -1  -5   5 832.857 214.803  80 
   1  -5  -5 873.968 250.796  49 
   1  -5  -5 937.059 180.317  81 
   1  -5  -4 1811.31 205.595  79 
  -1  -5   4 1351.02 245.634  80 
  -1  -5   4 1153.85 264.200  51 
   1  -5  -4 1347.39 295.052  49 
   1  -5  -4 1283.83 195.887  81 
  -1  -5   3 11807.8 847.341  51 
   1  -5  -3 11486.9 609.921  81 
  -1  -5   3 11481.8 717.321  80 
   1  -5  -3 11988.8 612.052  79 
   1  -5  -3 11958.2 837.056  49 
   1  -5  -2 503.312 153.468  79 
  -1  -5   2 128.592 199.478  51 
  -1  -5   1 4610.52 415.160  79 
   1  -5  -1 4861.31 413.702  79 
  -1  -5   1 4189.17 528.115  51 
   1  -5   0 1829.15 274.970  79 
   1  -5   0 1363.01 263.658  51 
  -1  -5   0 1676.32 239.522  79 
   1  -5   1 5549.93 418.096  72 
   1  -5   1 5391.40 474.954  79 
  -1  -5  -1 5534.87 395.232  79 
  -1  -5  -1 5357.67 594.679  46 
   1  -5   1 5110.40 478.516  51 
   1  -5   2 486.766 178.481  78 
   1  -5   2 278.014 155.550  51 
  -1  -5  -2 230.764 130.390  81 
  -1  -5  -2 310.400 200.038  46 
  -1  -5  -2 143.803 100.162  79 
   1  -5   2 252.321 108.453  72 
   1  -5   3 318.181 149.021  51 
   1  -5   3 69.0105 127.073  78 
  -1  -5  -3 291.473 135.664  81 
  -1  -5  -3 479.645 233.507  46 
  -1  -5  -3 338.614 97.8653  79 
  -1  -5  -4 16725.1 1100.22  46 
  -1  -5  -4 18111.0 887.803  81 
  -1  -5  -4 19775.6 1101.41  49 
   1  -5   4 19849.5 1010.00  78 
  -1  -5  -5 20183.5 1175.06  46 
  -1  -5  -5 21318.7 1120.75  49 
   1  -5   5 20100.8 1011.70  78 
  -1  -5  -5 21166.7 945.577  81 
   1  -5   6 3703.11 332.868  80 
  -1  -5  -6 3684.21 399.157  49 
  -1  -5  -6 3313.11 409.906  46 
  -1  -5  -6 3436.23 309.597  81 
   1  -5   6 3329.93 338.235  78 
  -1  -5  -7 1918.19 256.293  49 
   1  -5   7 1936.85 225.027  78 
  -1  -5  -8 10258.3 465.516  81 
  -1  -4  12 1699.27 196.776  80 
   1  -4 -11 22030.4 1164.68  49 
  -1  -4  11 21955.0 1016.10  80 
   1  -4 -10 765.283 173.631  81 
   1  -4 -10 754.679 216.799  10 
   1  -4 -10 1172.66 300.573  49 
  -1  -4  10 817.202 222.225  80 
   1  -4  -9 9733.66 877.560  48 
   1  -4  -9 10270.0 793.071  10 
  -1  -4   9 9504.30 1055.97  14 
  -1  -4   9 9071.05 655.163  78 
   1  -4  -9 10056.2 648.076  81 
   1  -4  -9 10690.3 916.892  49 
   1  -4  -8 1796.65 308.984  81 
  -1  -4   8 1782.55 537.968  14 
  -1  -4   8 2279.14 362.742  78 
   1  -4  -8 2435.96 474.216  48 
   1  -4  -8 2029.07 449.348  49 
   1  -4  -8 2451.52 429.418  10 
  -1  -4   7 99374.9 3531.84  78 
  -1  -4   7 88810.2 4224.83  14 
   1  -4  -7 99718.6 3993.35  48 
   1  -4  -7 101770. 3766.48  10 
   1  -4  -6 8306.16 663.476  81 
  -1  -4   6 9098.92 741.298  78 
   1  -4  -6 10403.4 888.870  10 
   1  -4  -6 8972.57 927.554  48 
  -1  -4   5 74771.6 3164.85  47 
  -1  -4   5 75480.8 2870.13  78 
   1  -4  -5 74467.0 3179.47  49 
   1  -4  -5 73664.0 2726.69  81 
  -1  -4   5 72531.7 3016.12  51 
  -1  -4   5 80876.3 2974.13  80 
   1  -4  -5 75436.4 3058.11  10 
  -1  -4   5 67645.7 3480.00  27 
  -1  -4   5 65444.7 3364.41  14 
   1  -4  -5 71328.7 2468.63  79 
   1  -4  -4 801.180 304.820  46 
  -1  -4   4 1129.29 287.036  78 
  -1  -4   4 707.897 316.697  47 
   1  -4  -4 711.720 186.981  79 
  -1  -4   4 903.779 303.953  51 
   1  -4  -4 442.395 299.057  48 
  -1  -4   4 655.033 231.780  80 
   1  -4  -4 999.285 295.692  10 
  -1  -4   4 669.724 379.539  27 
   1  -4  -4 1292.29 370.323  49 
   1  -4  -4 893.159 238.290  81 
  -1  -4   3 19045.9 1117.51  80 
   1  -4  -3 15617.8 941.528  81 
  -1  -4   3 13503.3 1319.70  27 
  -1  -4   3 18565.7 1092.35  78 
   1  -4  -3 18718.6 942.449  79 
   1  -4  -3 17175.6 1218.23  49 
   1  -4  -3 20089.8 1246.67  10 
  -1  -4   3 14297.8 1202.99  47 
   1  -4  -3 18291.8 1297.94  46 
   1  -4  -2 25605.4 1225.49  81 
  -1  -4   2 30236.1 1422.03  80 
  -1  -4   2 27601.4 1380.70  78 
  -1  -4   2 27313.7 1608.60  46 
   1  -4  -2 28355.4 1567.08  49 
  -1  -4   2 21855.4 1664.95  27 
  -1  -4   2 23745.8 1600.54  47 
   1  -4  -2 24935.3 1534.35  46 
  -1  -4   1 9859.59 740.868  78 
  -1  -4   1 9097.76 966.216  47 
   1  -4  -1 12299.5 930.065  49 
   1  -4  -1 10248.1 883.575  46 
  -1  -4   1 11124.4 1005.89  46 
   1  -4  -1 10494.8 777.658  78 
   1  -4  -1 10200.1 659.411  81 
  -1  -4   1 10084.6 740.760  80 
   1  -4   0 13616.7 972.704  49 
   1  -4   0 12453.0 853.238  80 
  -1  -4   0 14656.6 1185.42  46 
  -1  -4   0 14208.2 849.609  80 
   1  -4   0 13217.1 985.066  46 
  -1  -4  -1 9258.78 980.319  46 
   1  -4   1 10530.6 826.033  78 
   1  -4   1 9853.81 753.745  80 
   1  -4   2 16490.6 1081.22  78 
  -1  -4  -2 16539.0 1343.65  46 
   1  -4   2 15826.1 1006.79  80 
  -1  -4  -2 16941.5 868.680  79 
   1  -4   2 14715.4 1068.11  51 
  -1  -4  -2 14156.9 1191.39  26 
  -1  -4  -2 16776.9 1194.88  49 
   1  -4   3 12937.8 972.719  78 
  -1  -4  -3 14336.5 1107.41  49 
  -1  -4  -3 13777.8 712.225  79 
   1  -4   3 12590.8 963.854  73 
  -1  -4  -3 12271.7 1089.34  26 
   1  -4   3 13149.2 962.065  51 
   1  -4   3 12759.6 733.157  72 
   1  -4   4 43315.0 2056.92  73 
  -1  -4  -4 44311.3 2219.36  10 
   1  -4   4 42377.8 1579.40  72 
  -1  -4  -4 43330.0 1546.27  79 
   1  -4   4 44988.2 2056.16  78 
  -1  -4  -4 46102.1 2230.72  49 
   1  -4   4 41519.8 1940.47  51 
  -1  -4  -4 39050.4 2121.37  26 
   1  -4   5 14651.0 1041.47  78 
   1  -4   5 13759.1 940.771  51 
  -1  -4  -5 13052.4 1079.64  49 
  -1  -4  -5 15249.9 1172.93  10 
   1  -4   5 13863.4 957.876  80 
   1  -4   6 3160.94 441.580  80 
   1  -4   6 3332.78 490.146  78 
  -1  -4  -6 2630.97 494.584  10 
  -1  -4  -6 2015.46 439.723  49 
   1  -4   7 800.489 260.624  78 
  -1  -4  -7 1026.37 316.338  49 
   1  -4   7 372.716 202.624  80 
  -1  -4  -7 485.536 274.047  10 
  -1  -4  -8 20560.8 1275.98  49 
  -1  -4  -8 20536.5 1314.97  10 
  -1  -4  -8 19814.6 1031.86  81 
   1  -4   8 20041.8 1091.11  80 
   1  -4   8 21279.7 1182.23  78 
  -1  -4  -9 6145.62 616.460  10 
   1  -4   9 5042.53 491.665  78 
  -1  -4  -9 5049.02 563.612  49 
   1  -4   9 5777.55 482.916  80 
  -1  -4  -9 5470.43 434.255  81 
  -1  -4 -10 525.800 175.493  49 
  -1  -4 -10 244.568 109.610  81 
   1  -4  10 217.481 127.277  78 
   1  -4  10 348.013 122.316  80 
  -1  -4 -10 412.359 176.481  10 
  -1  -3  14 558.653 206.618  50 
   1  -3 -13 8291.36 675.910  49 
  -1  -3  13 9138.42 887.917  50 
   1  -3 -12 20574.8 1133.73  10 
   1  -3 -12 18613.7 1182.40  29 
   1  -3 -12 19606.2 1142.14  21 
  -1  -3  12 17611.8 1334.51  38 
  -1  -3  12 16830.9 1458.28  14 
   1  -3 -12 20362.7 1248.80  49 
   1  -3 -12 18609.1 1109.12  48 
  -1  -3  12 19018.3 1482.95  50 
   1  -3 -11 14900.3 1095.82  48 
   1  -3 -11 15049.0 1121.88  29 
   1  -3 -11 15450.4 1062.26  21 
  -1  -3  11 13298.9 1374.01  14 
   1  -3 -11 15281.8 795.887  81 
  -1  -3  11 12081.8 1183.60  38 
  -1  -3  10 12857.0 890.887  78 
   1  -3 -10 15828.9 1112.28  21 
  -1  -3  10 13502.0 1252.88  38 
   1  -3 -10 13199.6 803.956  81 
  -1  -3  10 13696.8 1436.23  14 
   1  -3 -10 14829.0 1152.51  48 
   1  -3 -10 14003.3 1115.86  29 
  -1  -3   9 1425.91 327.461  78 
   1  -3  -9 1213.05 374.856  29 
   1  -3  -9 1177.32 260.034  81 
   1  -3  -9 965.320 315.986  21 
  -1  -3   9 1448.12 465.549  38 
   1  -3  -9 1402.49 412.071  48 
  -1  -3   8 10031.2 1056.93  38 
  -1  -3   8 11209.5 1292.84  14 
   1  -3  -8 10894.9 762.118  81 
  -1  -3   8 11348.5 858.817  78 
   1  -3  -8 12109.3 1091.72  48 
  -1  -3   8 11805.6 882.730  51 
   1  -3  -8 10754.6 935.579  21 
   1  -3  -8 11569.2 1014.13  29 
   1  -3  -7 16951.4 1233.75  29 
   1  -3  -7 18543.7 1353.52  48 
  -1  -3   7 18557.0 1116.34  78 
  -1  -3   7 17733.9 1342.17  38 
  -1  -3   7 17691.7 1123.13  51 
   1  -3  -7 16757.5 1175.34  21 
  -1  -3   7 17898.1 1592.56  14 
   1  -3  -6 106244. 4088.66  48 
  -1  -3   6 88573.0 4303.81  27 
   1  -3  -6 103199. 3234.79  79 
  -1  -3   6 103852. 3808.79  51 
  -1  -3   6 102059. 3976.69  47 
  -1  -3   6 105647. 3699.70  78 
   1  -3  -6 106470. 3853.76  21 
  -1  -3   6 102790. 4452.21  14 
   1  -3  -6 101227. 3550.42  58 
  -1  -3   6 104899. 3767.01  73 
   1  -3  -5 37159.8 1958.18  48 
  -1  -3   5 33734.1 2174.85  27 
  -1  -3   5 36920.8 1692.02  78 
   1  -3  -5 38677.1 1853.99  10 
  -1  -3   5 33451.5 1880.67  47 
   1  -3  -5 37343.2 1388.48  79 
   1  -3  -5 37764.6 1797.87  21 
   1  -3  -5 38260.6 1618.38  58 
  -1  -3   5 38008.8 2211.53  14 
  -1  -3   5 36304.0 1729.70  73 
   1  -3  -4 23095.4 1344.51  49 
   1  -3  -4 22193.8 1268.79  10 
  -1  -3   4 20915.6 1501.75  14 
  -1  -3   4 18356.9 1495.26  27 
   1  -3  -4 21675.8 1089.79  58 
  -1  -3   4 18640.8 1313.70  47 
   1  -3  -3 239.009 188.467  49 
  -1  -3   3 378.828 265.276  27 
  -1  -3   3 398.279 163.850  62 
   1  -3  -3 534.146 250.928  48 
  -1  -3   3 424.413 223.863  46 
  -1  -3   3 43.1599 211.627  47 
   1  -3  -3 461.631 171.636  58 
   1  -3  -3 188.982 173.889  10 
  -1  -3   2 10682.7 751.972  49 
  -1  -3   2 11260.3 902.928  46 
  -1  -3   2 9548.63 884.042  26 
   1  -3  -2 10211.3 786.924  10 
   1  -3  -2 10058.0 675.180  58 
  -1  -3   2 10518.0 718.067  62 
   1  -3  -2 10839.5 863.881  48 
   1  -3  -2 10920.1 822.175  49 
   1  -3  -1 204590. 6584.70  10 
   1  -3  -1 208260. 6708.82  48 
  -1  -3   1 209387. 6489.76  62 
   1  -3  -1 211918. 6403.83  58 
  -1  -3   1 210496. 6887.12  46 
   1  -3  -1 213011. 6649.31  49 
  -1  -3   1 207767. 6615.90  10 
  -1  -3   1 187582. 6835.07  26 
   1  -3   0 7562.51 666.127  48 
  -1  -3   0 8308.87 618.140  62 
  -1  -3   0 7681.47 675.033  10 
   1  -3   0 6224.17 586.039  49 
  -1  -3   0 6386.86 718.328  26 
  -1  -3   0 6676.93 633.468  49 
   1  -3   0 7466.20 554.417  58 
   1  -3   1 10525.3 744.622  49 
  -1  -3  -1 10206.5 891.895  35 
  -1  -3  -1 11502.3 949.859  26 
  -1  -3  -1 11308.0 857.297  10 
  -1  -3  -1 10548.1 827.354  49 
  -1  -3  -1 12749.3 798.024  62 
  -1  -3  -2 4116.85 517.837  49 
  -1  -3  -2 4142.41 571.228  35 
  -1  -3  -2 4685.42 598.967  26 
   1  -3   2 3850.24 609.253  27 
  -1  -3  -2 5053.69 581.041  48 
   1  -3   3 10503.0 828.820  47 
  -1  -3  -3 11482.6 965.183  35 
   1  -3   3 10326.1 1007.10  14 
   1  -3   3 9218.53 983.352  27 
   1  -3   3 11597.1 845.653  51 
  -1  -3  -3 12471.6 1005.11  26 
  -1  -3  -3 12634.5 958.931  48 
  -1  -3  -3 11587.3 908.013  49 
  -1  -3  -3 11323.0 869.032  21 
  -1  -3  -4 15189.4 1115.73  48 
  -1  -3  -4 16516.7 1197.77  35 
   1  -3   4 14908.8 985.295  51 
  -1  -3  -4 17008.2 1142.95  49 
  -1  -3  -4 14574.1 1129.72  26 
  -1  -3  -4 15666.5 1076.96  21 
   1  -3   4 16763.0 1052.23  78 
   1  -3   4 14658.4 1029.13  47 
   1  -3   4 14854.0 1318.85  14 
   1  -3   5 15456.6 990.590  51 
  -1  -3  -5 17173.9 1240.89  35 
  -1  -3  -5 17045.1 1201.00  26 
  -1  -3  -5 14918.1 1123.63  49 
   1  -3   5 13101.6 1303.82  14 
  -1  -3  -5 15462.6 1141.59  48 
   1  -3   5 13949.9 1228.26  50 
   1  -3   5 15515.9 1077.50  73 
  -1  -3  -6 565.129 265.511  29 
   1  -3   6 474.620 290.944  38 
   1  -3   6 186.712 272.901  50 
   1  -3   6 570.825 225.054  51 
   1  -3   6 145.915 345.450  14 
  -1  -3  -6 531.170 293.109  35 
  -1  -3  -6 572.444 289.603  48 
  -1  -3  -6 307.446 260.781  49 
   1  -3   6 114.854 174.899  73 
  -1  -3  -7 6039.52 699.373  29 
   1  -3   7 6078.02 666.008  73 
  -1  -3  -7 5845.35 717.232  49 
   1  -3   7 6739.31 940.220  50 
  -1  -3  -7 5216.55 658.447  48 
   1  -3   7 3980.12 675.985  38 
  -1  -3  -7 5110.11 687.036  35 
   1  -3   7 6189.19 930.951  14 
  -1  -3  -8 11758.5 997.635  29 
  -1  -3  -8 13174.7 1038.98  48 
   1  -3   8 12166.9 1277.91  50 
   1  -3   8 11720.5 936.417  73 
  -1  -3  -8 11604.0 1038.30  35 
   1  -3   8 10662.9 1144.97  38 
  -1  -3  -8 12431.5 1049.63  49 
  -1  -3  -9 11665.9 1008.85  49 
  -1  -3  -9 13966.6 1055.39  29 
   1  -3   9 12417.1 922.436  73 
  -1  -3  -9 12729.7 976.733  48 
  -1  -3  -9 12573.3 801.378  81 
   1  -3   9 12737.1 1299.06  50 
  -1  -3 -10 16737.7 889.480  81 
   1  -3  10 19152.2 1575.59  50 
  -1  -3 -10 18540.6 1221.77  49 
   1  -3  11 1740.69 300.640  78 
  -1  -3 -11 2033.70 393.689  21 
  -1  -3 -11 1965.63 358.256  49 
  -1  -3 -11 1901.91 228.708  81 
   1  -3  11 2352.16 535.168  50 
   1  -3  12 1991.99 424.155  50 
   1  -3  12 1958.57 268.257  78 
  -1  -3 -12 2024.40 334.250  21 
  -1  -3 -12 1623.03 274.022  49 
   1  -3  13 7740.71 640.046  50 
  -1  -2  15 6405.10 652.248  50 
   1  -2 -15 5324.11 424.479  21 
   1  -2 -15 6053.21 482.006  29 
  -1  -2  14 14273.1 1241.17  50 
   1  -2 -14 14583.1 942.218  29 
   1  -2 -14 13930.3 885.691  21 
   1  -2 -14 13973.9 894.274  11 
  -1  -2  13 5413.67 860.344  50 
  -1  -2  13 4740.48 765.001  14 
   1  -2 -13 6530.66 645.894  11 
   1  -2 -13 5969.03 617.547  21 
   1  -2 -13 6141.67 653.715  29 
  -1  -2  13 5544.27 609.681  43 
  -1  -2  12 31964.9 1765.33  43 
   1  -2 -12 35049.9 1852.15  29 
  -1  -2  12 32984.9 2211.90  38 
   1  -2 -12 35800.3 1562.26  82 
   1  -2 -12 37010.8 1826.96  11 
   1  -2 -12 37118.4 1819.06  21 
  -1  -2  12 33511.6 2252.45  14 
   1  -2 -11 21636.7 1397.07  29 
  -1  -2  11 20098.9 1318.60  43 
   1  -2 -11 19543.9 1340.26  48 
  -1  -2  11 19049.8 1640.69  38 
   1  -2 -11 22038.5 1345.90  11 
  -1  -2  11 20466.1 1774.41  14 
   1  -2 -11 23026.5 1370.34  21 
   1  -2 -11 21091.9 1114.41  82 
   1  -2 -10 21652.5 1329.16  11 
   1  -2 -10 22105.2 1402.31  29 
  -1  -2  10 20082.9 1745.52  14 
  -1  -2  10 22344.0 1367.26  43 
   1  -2 -10 20648.0 1105.85  82 
   1  -2 -10 22580.6 1433.65  48 
  -1  -2  10 23403.2 1763.15  38 
   1  -2 -10 21197.2 1038.10  81 
   1  -2 -10 22328.7 1355.87  21 
   1  -2  -9 12394.6 959.606  11 
   1  -2  -9 13803.4 992.646  21 
  -1  -2   9 11137.6 1015.91  57 
   1  -2  -9 12586.2 762.108  81 
   1  -2  -9 13100.0 1015.24  29 
  -1  -2   9 16931.3 1407.08  38 
   1  -2  -9 14260.8 1086.76  48 
  -1  -2   9 15329.5 1027.15  43 
  -1  -2   9 12700.3 1323.40  14 
   1  -2  -8 7476.78 689.259  11 
  -1  -2   8 7965.14 989.702  14 
  -1  -2   8 5625.15 831.951  27 
  -1  -2   8 6694.17 725.188  57 
   1  -2  -8 7800.24 699.261  21 
   1  -2  -8 7111.71 613.306   1 
  -1  -2   8 6898.54 603.611  51 
   1  -2  -8 6986.69 699.236  29 
   1  -2  -8 7720.31 770.557  48 
   1  -2  -8 7280.20 547.395  81 
   1  -2  -7 18385.0 1180.73  48 
   1  -2  -7 19439.7 1096.48  11 
  -1  -2   7 17668.3 1006.57  51 
  -1  -2   7 14967.6 1059.33  57 
   1  -2  -7 18633.7 1008.01   1 
  -1  -2   7 14890.4 1315.76  27 
   1  -2  -7 18437.4 1067.04  21 
  -1  -2   7 19001.6 1460.28  14 
   1  -2  -7 19001.9 1130.52  29 
  -1  -2   6 49973.4 2243.04  57 
   1  -2  -6 66358.5 2160.43  58 
  -1  -2   5 11899.8 761.629  57 
   1  -2  -5 14753.2 741.849  58 
   1  -2  -4 3492.13 311.810  58 
  -1  -2   4 2207.89 273.113  57 
  -1  -2   3 92153.4 2903.64  62 
   1  -2  -3 92698.2 2689.22  58 
  -1  -2   2 22317.5 1085.11  62 
   1  -2  -2 24801.8 1000.21  58 
  -1  -2   1 47338.5 1797.58  62 
   1  -2  -1 47832.5 1678.83  58 
  -1  -2   0 162353. 4902.60  58 
   1  -2   0 171600. 4880.41  62 
  -1  -2   0 167284. 5159.99  62 
   1  -2   0 160684. 5010.86  58 
  -1  -2  -1 35355.0 1244.97  58 
  -1  -2  -1 38088.8 1469.16  62 
   1  -2   1 37092.3 1351.37  58 
   1  -2   1 34705.0 1184.97  62 
   1  -2   2 69229.5 2202.28  57 
   1  -2   2 71668.1 2228.70  62 
  -1  -2  -3 39675.9 1392.83  58 
   1  -2   3 37731.1 1415.20  57 
  -1  -2  -4 23097.5 917.807  58 
  -1  -2  -4 24571.2 987.356  66 
   1  -2   4 21353.5 1028.66  57 
  -1  -2  -5 6688.19 467.551  66 
   1  -2   5 6015.86 531.291  57 
   1  -2   6 34112.0 1939.97  38 
  -1  -2  -6 34199.6 1561.85  11 
   1  -2   6 36978.1 1531.88  51 
   1  -2   6 30375.4 1973.86  14 
   1  -2   6 32851.9 1595.39  57 
  -1  -2  -6 34604.7 1624.85  29 
  -1  -2  -6 32814.1 1639.52  48 
   1  -2   7 24642.4 1333.19  73 
  -1  -2  -7 24652.5 1318.30  11 
  -1  -2  -7 24249.8 1350.39  29 
  -1  -2  -7 25026.4 1433.16  37 
   1  -2   7 26344.1 1720.93  38 
   1  -2   7 23802.0 1383.49  57 
   1  -2   7 22230.5 1713.32  14 
  -1  -2  -7 24018.3 1360.84  48 
   1  -2   8 4971.67 641.808  57 
  -1  -2  -8 4841.24 612.301  37 
  -1  -2  -8 5375.35 610.038  29 
   1  -2   8 4237.75 512.439  73 
   1  -2   8 3814.27 768.076  14 
   1  -2   8 5172.46 810.893  38 
  -1  -2  -8 5436.71 578.482  11 
   1  -2   8 4634.39 573.762  43 
   1  -2   9 4350.96 811.748  14 
   1  -2   9 3471.40 520.711  43 
  -1  -2  -9 4757.90 466.679  82 
  -1  -2  -9 5862.38 648.280  29 
   1  -2   9 4443.88 513.731  73 
   1  -2   9 3805.40 568.788  57 
  -1  -2  -9 4518.81 567.037  11 
   1  -2   9 5472.06 855.726  38 
  -1  -2 -10 12394.6 976.569  29 
   1  -2  10 10934.1 1270.56  38 
  -1  -2 -10 11598.4 773.272  82 
   1  -2  10 10113.2 1234.77  14 
  -1  -2 -10 12244.4 932.500  11 
  -1  -2 -11 60506.3 2571.69  29 
  -1  -2 -11 61054.8 2527.47  11 
   1  -2  11 62327.5 3297.77  50 
  -1  -2 -11 59079.4 2269.62  82 
   1  -2  11 53973.2 3075.05  38 
  -1  -2 -12 11602.3 721.206  82 
  -1  -2 -12 10783.7 844.220  29 
   1  -2  12 12348.9 1258.78  50 
  -1  -2 -12 11257.4 861.789  11 
  -1  -2 -13 3364.36 445.417  21 
  -1  -2 -13 2995.64 382.616  29 
  -1  -2 -13 2832.08 378.594  11 
   1  -2  13 3486.96 602.482  50 
  -1  -2 -14 29605.7 1360.85  21 
   1  -2  14 36074.2 1678.29  50 
   1  -1 -16 1067.08 190.668  11 
   1  -1 -15 4133.05 448.518  29 
   1  -1 -15 4204.52 438.220  21 
  -1  -1  15 3522.03 542.223  50 
   1  -1 -15 4089.11 437.917  11 
  -1  -1  15 3981.07 608.870  38 
  -1  -1  14 14085.0 1309.23  38 
  -1  -1  14 13683.9 1071.72  43 
   1  -1 -14 15102.6 906.034  82 
   1  -1 -14 14167.2 948.163  11 
  -1  -1  14 12616.7 1221.45  50 
   1  -1 -14 15434.9 1016.55  29 
   1  -1 -13 24911.7 1306.92  82 
   1  -1 -13 26442.9 1391.65  11 
  -1  -1  13 24546.5 1855.08  38 
   1  -1 -13 22739.1 1374.76  29 
   1  -1 -13 22531.6 1181.26   1 
  -1  -1  13 25366.9 1591.44  43 
   1  -1 -12 19955.6 1139.62  82 
  -1  -1  12 17992.6 1592.01  38 
   1  -1 -12 17654.4 1041.03   1 
  -1  -1  12 18779.7 1373.35  43 
   1  -1 -12 19129.6 1220.16  29 
  -1  -1  12 18799.5 1533.40  14 
   1  -1 -12 19268.3 1166.11  18 
  -1  -1  11 61526.6 3127.29  38 
  -1  -1  11 53608.1 2917.44  14 
   1  -1 -11 57388.1 2234.11   1 
  -1  -1  11 60329.1 2702.96  43 
   1  -1 -11 57729.2 2351.80  18 
   1  -1 -11 57994.6 2436.07  29 
   1  -1 -11 55949.4 2167.52  68 
   1  -1 -11 56973.0 2311.42  82 
  -1  -1  11 48420.0 2795.22  57 
   1  -1 -10 84440.9 3016.07  18 
   1  -1 -10 82827.7 2972.83  82 
  -1  -1  10 81416.9 2862.48  63 
   1  -1 -10 79994.3 2874.14   1 
  -1  -1  10 74289.0 3599.61  14 
   1  -1 -10 85505.4 2843.06  68 
   1  -1  -9 29968.6 1315.75   1 
   1  -1  -9 30796.4 1400.00  18 
   1  -1  -9 32587.8 1294.73  68 
  -1  -1   9 30052.3 1887.95  14 
  -1  -1   9 29327.3 1286.32  63 
  -1  -1   9 27807.4 1498.54  42 
  -1  -1   9 24762.6 1682.41  57 
   1  -1  -9 29609.5 1390.41  20 
   1  -1  -8 2674.43 280.324  68 
  -1  -1   8 2683.00 301.892  63 
  -1  -1   7 151312. 4650.30  55 
   1  -1  -7 147762. 4509.23  68 
  -1  -1   7 145676. 4559.50  63 
  -1  -1   6 161810. 5096.05  55 
   1  -1  -6 169617. 4977.37  68 
  -1  -1   6 168644. 5041.37  63 
  -1  -1   5 28533.4 1080.65  55 
   1  -1  -5 27929.0 1009.35  68 
  -1  -1   5 28914.8 1062.98  63 
  -1  -1   4 31673.3 1128.34  63 
   1  -1  -4 31961.7 1069.25  68 
  -1  -1   4 31853.3 1116.57  55 
   1  -1  -3 40833.7 1246.82  68 
  -1  -1   3 39507.3 1267.49  55 
  -1  -1   2 10500.3 391.361  55 
   1  -1  -2 9821.24 362.531  59 
  -1  -1   1 982225. 27243.2  62 
   1  -1  -1 962857. 26994.8  61 
   1  -1  -1 999999. 27105.2  58 
  -1  -1   1 936384. 27000.1  56 
  -1  -1   0 705452. 18945.2  58 
   1  -1   0 646934. 18923.5  57 
   1  -1   0 672069. 18912.2  62 
   1  -1   0 673338. 18933.4  60 
   1  -1   0 669519. 19031.8  58 
   1  -1   1 921843. 24849.8  57 
  -1  -1  -1 916791. 24757.1  58 
   1  -1   1 951850. 24872.5  58 
  -1  -1  -2 203271. 5739.73  62 
  -1  -1  -2 199016. 5551.78  64 
   1  -1   2 183609. 5702.80  57 
  -1  -1  -2 189573. 5460.17  69 
  -1  -1  -2 192567. 5589.80  54 
   1  -1   3 7920.93 539.542  57 
  -1  -1  -3 8419.72 410.391  64 
  -1  -1  -3 8694.66 351.192  69 
  -1  -1  -3 9125.45 437.982  66 
   1  -1   3 8735.54 367.363  63 
  -1  -1  -3 8676.67 436.564  54 
   1  -1   4 40777.2 1759.86  57 
  -1  -1  -4 45191.7 1516.86  64 
  -1  -1  -4 48597.9 1569.51  66 
  -1  -1  -4 44622.1 1426.42  69 
   1  -1   4 43337.5 1417.88  63 
   1  -1   5 3173.74 431.743  57 
  -1  -1  -5 3688.70 263.657  69 
  -1  -1  -5 4162.64 340.528  66 
  -1  -1  -5 3714.24 303.761  64 
   1  -1   5 3754.85 252.291  63 
   1  -1   6 9676.01 473.403  63 
  -1  -1  -6 8825.10 479.159  69 
   1  -1   6 8045.22 732.499  57 
  -1  -1  -6 8311.80 562.701  66 
   1  -1   7 7592.47 790.090  57 
   1  -1   7 9753.39 511.667  63 
  -1  -1  -7 10550.8 683.520  20 
  -1  -1  -7 8737.00 633.105  18 
   1  -1   7 9058.28 912.740  38 
  -1  -1  -7 9210.47 532.161  69 
   1  -1   8 10985.8 1120.35  14 
   1  -1   8 14461.6 1262.98  38 
  -1  -1  -8 15073.2 909.989  18 
   1  -1   8 13171.6 1124.20  57 
  -1  -1  -8 14474.0 938.699  26 
  -1  -1  -8 14260.0 895.591  29 
  -1  -1  -8 14579.0 956.862  37 
   1  -1   8 15146.5 1074.04  43 
  -1  -1  -8 15065.7 757.632  69 
  -1  -1  -9 15090.5 969.074  29 
   1  -1   9 13253.0 1268.80  14 
   1  -1   9 14889.7 1376.02  38 
  -1  -1  -9 15343.0 1045.27  37 
  -1  -1  -9 14951.1 995.814  26 
   1  -1   9 12494.2 1163.12  57 
  -1  -1  -9 15709.1 819.798  69 
  -1  -1  -9 14422.6 916.991  54 
   1  -1   9 14952.1 1138.49  43 
  -1  -1  -9 15047.1 969.917  18 
   1  -1  10 30513.2 2112.58  38 
  -1  -1 -10 32179.2 1615.90  26 
   1  -1  10 30589.4 1796.94  43 
  -1  -1 -10 30594.0 1581.72  18 
   1  -1  10 29171.0 1905.52  57 
  -1  -1 -10 31033.3 1576.45  29 
   1  -1  10 28262.3 1991.85  14 
  -1  -1 -10 32898.4 1690.67  37 
  -1  -1 -11 13607.4 980.641  29 
   1  -1  11 13269.8 1148.67  43 
  -1  -1 -11 13628.2 930.186  82 
  -1  -1 -11 15602.9 1098.87  37 
  -1  -1 -11 14096.3 1008.79  18 
   1  -1  11 13294.2 1416.25  50 
   1  -1  11 12157.6 1339.13  38 
  -1  -1 -12 61287.0 2452.48  11 
  -1  -1 -12 55188.2 2417.10  29 
  -1  -1 -12 58943.3 2371.23  82 
   1  -1  12 57228.1 3120.22  38 
   1  -1  12 55006.2 2720.36  43 
  -1  -1 -12 61611.1 2539.71  18 
   1  -1  12 61689.7 3009.37  23 
  -1  -1 -12 60549.1 2560.52  37 
   1  -1  12 66554.2 3270.13  50 
   1  -1  13 4060.01 716.775  38 
  -1  -1 -13 4978.34 516.886  11 
  -1  -1 -13 5277.10 535.921  29 
   1  -1  13 5061.80 711.210  23 
  -1  -1 -13 4788.80 535.798  37 
  -1  -1 -13 5444.40 522.216  82 
   1  -1  13 6826.32 863.993  50 
  -1  -1 -14 21811.4 1079.72  11 
  -1  -1 -14 21945.1 1047.97  82 
  -1  -1 -14 19278.3 1010.34  29 
  -1  -1 -14 22004.5 1173.64  21 
  -1  -1 -15 6678.83 499.917  21 
   1   0 -16 14988.2 760.627  11 
   1   0 -16 12888.8 712.513  29 
   1   0 -15 9002.35 660.449  29 
  -1   0  15 8361.26 787.792  43 
  -1   0  15 8953.44 554.888  44 
   1   0 -15 7907.09 584.016  18 
  -1   0  15 8047.23 806.079  38 
  -1   0  14 31364.0 1836.78  43 
   1   0 -14 32284.5 1539.48  82 
   1   0 -14 33826.7 1511.91  18 
   1   0 -14 30022.4 1348.46   1 
  -1   0  14 31721.1 1973.20  38 
   1   0 -14 33571.9 1573.30  29 
  -1   0  13 3494.10 620.827  43 
   1   0 -13 4012.52 422.493   1 
   1   0 -13 2851.21 445.492  82 
  -1   0  13 3436.82 663.354  38 
   1   0 -13 4075.20 468.226  18 
   1   0 -13 2989.06 415.312  20 
  -1   0  13 3475.88 654.685  50 
  -1   0  12 1704.37 460.629  43 
   1   0 -12 2251.57 335.888  68 
   1   0 -12 1889.55 342.487  82 
   1   0 -12 2053.85 339.443  18 
   1   0 -12 2038.88 337.009  20 
  -1   0  12 1525.35 360.996  22 
   1   0 -12 1928.80 292.757   1 
  -1   0  12 2048.09 300.527  63 
  -1   0  12 2259.29 560.273  38 
   1   0 -11 434.589 188.844  20 
  -1   0  11 549.795 232.290  22 
   1   0 -11 668.862 198.696  18 
   1   0 -11 981.796 261.153  82 
   1   0 -11 698.379 213.748   9 
   1   0 -11 335.313 270.747  40 
  -1   0  11 338.453 284.368  57 
  -1   0  11 570.332 163.626  63 
   1   0 -11 404.722 164.204   1 
  -1   0  11 189.145 309.232  38 
  -1   0  10 11929.0 898.839  22 
  -1   0  10 14325.1 744.173  63 
   1   0 -10 14446.3 788.601   9 
   1   0 -10 11290.1 930.065  40 
   1   0 -10 12597.7 747.389  18 
  -1   0  10 10042.0 1104.54  57 
  -1   0  10 11089.3 761.566  12 
   1   0 -10 13521.7 858.958  82 
   1   0 -10 14661.1 852.676  69 
   1   0 -10 13910.6 778.841  20 
  -1   0  10 13113.9 999.394  42 
   1   0  -9 6330.21 453.556   9 
  -1   0   9 5216.04 564.841  30 
   1   0  -9 6201.83 610.346  40 
   1   0  -9 5799.83 437.586  20 
   1   0  -9 5940.41 483.934  69 
  -1   0   9 6168.16 629.599  42 
  -1   0   9 5348.55 541.285  22 
   1   0  -9 6682.72 501.903  28 
  -1   0   9 6702.10 436.737  63 
  -1   0   8 10937.5 554.181  53 
   1   0  -8 11422.3 578.034  71 
   1   0  -8 12781.2 695.245  69 
  -1   0   8 12653.3 757.463  55 
  -1   0   8 13504.1 614.496  63 
  -1   0   7 434.878 104.804  63 
  -1   0   7 414.894 159.704  55 
  -1   0   7 353.332 99.9196  53 
   1   0  -7 433.300 108.155  71 
   1   0  -6 37877.7 1384.56  66 
   1   0  -6 38711.4 1302.34  71 
  -1   0   6 39697.4 1276.15  63 
  -1   0   6 38042.3 1430.66  55 
   1   0  -6 35878.2 1352.07  69 
  -1   0   5 502227. 14152.5  55 
   1   0  -5 485592. 14026.4  71 
   1   0  -5 497342. 14107.5  66 
  -1   0   5 494349. 13996.2  63 
  -1   0   4 35858.2 1212.17  55 
   1   0  -4 33125.4 1118.75  71 
   1   0  -4 37177.1 1189.88  66 
  -1   0   3 75926.0 2273.48  55 
   1   0  -3 74501.6 2210.50  71 
   1   0  -2 239715. 7058.20  71 
  -1   0   2 252777. 7054.87  63 
   1   0  -2 251920. 7088.33  69 
  -1   0   2 257537. 7114.12  56 
   1   0  -1 114436. 3233.68  68 
  -1   0   1 115753. 3214.03  63 
  -1   0   1 106177. 3254.36  56 
   1   0   0 242868. 7438.88  58 
   1   0   0 260064. 7424.01  65 
  -1   0   0 297464. 7510.79  54 
   1   0   0 292090. 7496.25  59 
  -1   0   0 265850. 7509.31  62 
   1   0   0 290486. 7525.17  57 
   1   0   1 18053.2 728.834  57 
  -1   0  -1 18566.8 637.030  67 
   1   0   1 19975.6 649.738  60 
   1   0   2 394657. 11141.4  63 
   1   0   2 400672. 11218.7  60 
  -1   0  -2 411914. 11214.9  67 
   1   0   2 397961. 11155.5  53 
   1   0   3 5203.52 443.434  57 
  -1   0  -3 6170.74 325.049  64 
   1   0   3 5736.72 243.428  63 
   1   0   3 5790.59 256.528  53 
  -1   0  -3 5759.17 308.601  69 
   1   0   4 153403. 4630.57  53 
  -1   0  -4 161054. 4745.59  69 
   1   0   4 168462. 4623.03  63 
  -1   0  -4 166560. 4769.46  64 
   1   0   5 980.079 283.129  57 
  -1   0  -5 1077.42 170.905  64 
   1   0   5 1212.32 119.936  63 
  -1   0  -5 1244.35 169.287  69 
  -1   0  -5 1202.71 184.511  66 
   1   0   5 1244.32 124.829  53 
  -1   0  -6 102676. 3259.75  66 
  -1   0  -6 101449. 3237.73  64 
   1   0   6 107680. 3045.96  63 
   1   0   6 98438.7 3022.82  53 
  -1   0  -6 100653. 3208.16  69 
  -1   0  -7 125552. 3985.67  66 
  -1   0  -7 122950. 3932.50  69 
   1   0   7 128538. 3741.94  63 
   1   0   8 886.058 364.021  38 
  -1   0  -8 836.289 209.989  66 
  -1   0  -8 917.002 198.065  69 
   1   0   8 789.993 325.586  57 
   1   0   8 1164.84 155.371  63 
  -1   0  -8 1072.89 187.169   9 
   1   0   8 858.189 303.349  43 
   1   0   8 687.536 231.494  22 
  -1   0  -8 823.086 177.406  20 
  -1   0  -9 8470.66 660.229  66 
   1   0   9 8396.20 975.251  38 
   1   0   9 8714.48 966.869  57 
   1   0   9 9283.01 533.116  63 
  -1   0  -9 9561.71 645.993  18 
   1   0   9 9299.87 889.856  43 
  -1   0  -9 10224.6 631.611   9 
  -1   0  -9 9728.77 663.805  69 
  -1   0  -9 9657.99 647.980  20 
  -1   0 -10 369.062 160.253   9 
   1   0  10 648.665 385.040  50 
  -1   0 -10 593.048 205.552  66 
   1   0  10 64.2320 293.189  38 
   1   0  10 438.119 326.643  57 
  -1   0 -10 380.465 181.884  18 
   1   0  10 840.087 385.515  43 
  -1   0 -10 423.874 173.157  69 
   1   0  11 53410.0 2936.39  57 
   1   0  11 56118.2 3033.83  38 
   1   0  11 60342.2 2861.11  43 
  -1   0 -11 58617.0 2315.10  69 
  -1   0 -11 60837.2 2396.96  18 
   1   0  11 64648.0 3135.63  50 
  -1   0 -12 672.243 245.507  18 
  -1   0 -12 704.264 249.044  82 
   1   0  12 1434.04 430.784  43 
  -1   0 -12 689.853 231.071  29 
   1   0  12 789.764 416.867  38 
   1   0  12 829.934 213.304  44 
   1   0  12 1305.10 438.137  50 
  -1   0 -13 13552.9 893.260  29 
  -1   0 -13 15470.4 979.180  18 
   1   0  13 15068.0 825.837  44 
  -1   0 -13 14577.7 939.847  82 
  -1   0 -13 16491.0 1043.38  37 
  -1   0 -14 1510.41 283.909  18 
  -1   0 -14 1234.94 246.742  11 
  -1   0 -14 2316.83 329.438  82 
  -1   0 -14 1743.13 305.123  37 
   1   0  14 1942.92 459.640  23 
   1   0  15 23413.9 1351.21  23 
  -1   0 -15 22064.1 996.012  11 
  -1   1  15 3798.90 379.476  44 
   1   1 -15 3956.42 367.972  18 
   1   1 -15 3898.76 382.447  20 
   1   1 -15 3703.80 383.628  29 
   1   1 -14 12900.5 717.998   1 
   1   1 -14 13987.4 818.583  18 
  -1   1  14 12900.7 1056.43  43 
   1   1 -14 14498.8 879.536  82 
   1   1 -14 14532.9 842.600  20 
   1   1 -13 23656.2 1073.33   1 
  -1   1  13 21385.4 1403.30  22 
   1   1 -13 25014.7 1190.22  18 
   1   1 -13 25507.0 1206.21   9 
  -1   1  13 25518.1 1590.21  43 
   1   1 -13 24925.3 1275.18  82 
   1   1 -13 24912.2 1193.49  20 
  -1   1  12 18683.9 1037.88  25 
  -1   1  12 19709.9 1003.00  31 
   1   1 -12 18480.9 983.228   9 
  -1   1  12 16016.8 1078.76  12 
   1   1 -12 19449.5 1003.97  20 
   1   1 -12 20447.8 1147.39  82 
  -1   1  12 19741.4 1407.97  43 
   1   1 -12 20322.2 1082.22  28 
   1   1 -11 55889.8 2299.03  69 
  -1   1  11 60746.7 2727.78  43 
   1   1 -11 58427.2 2105.45   9 
  -1   1  11 56485.4 2230.39  25 
   1   1 -11 58101.6 2323.85  82 
  -1   1  11 57266.5 2138.30   2 
  -1   1  11 51572.8 2884.44  57 
  -1   1  11 56141.4 2357.15  12 
   1   1 -11 58325.0 2185.13  28 
  -1   1  11 59171.4 2113.51  63 
   1   1 -10 85013.8 2755.04  16 
  -1   1  10 69775.4 3507.20  57 
   1   1 -10 81259.0 2976.49  82 
   1   1 -10 81446.8 2792.78  28 
  -1   1  10 79555.7 2818.55  53 
   1   1 -10 77610.5 2871.05  71 
   1   1 -10 83588.9 2988.93  69 
   1   1 -10 80985.0 2719.28   9 
  -1   1  10 85764.7 3058.68  12 
  -1   1  10 88792.7 2880.53   2 
  -1   1  10 84777.0 2762.65  63 
  -1   1  10 87020.5 2964.37  25 
  -1   1  10 75125.1 3193.89  30 
  -1   1   9 28329.5 1237.51  53 
   1   1  -9 28051.6 1144.12  28 
  -1   1   9 27019.3 1464.48  30 
   1   1  -9 29148.9 1318.68  69 
   1   1  -9 27650.0 1274.31  71 
  -1   1   9 28966.2 1510.07  42 
  -1   1   9 29074.1 1141.85  63 
   1   1  -9 28813.2 1113.07  16 
  -1   1   9 30936.9 1391.14  12 
   1   1  -8 2799.41 323.338  71 
  -1   1   8 2554.01 372.572  30 
  -1   1   8 2474.58 287.580  53 
  -1   1   8 2479.16 368.744  22 
   1   1  -8 2365.73 309.456  69 
  -1   1   8 2722.32 257.259  63 
   1   1  -7 147776. 4675.83  71 
  -1   1   7 147277. 4613.69  53 
  -1   1   7 157041. 4717.60  55 
   1   1  -7 147867. 4643.25  69 
   1   1  -6 162959. 5076.90  69 
  -1   1   6 169959. 5128.36  55 
   1   1  -6 169099. 5141.80  71 
  -1   1   6 171199. 5093.07  53 
   1   1  -5 26761.8 1093.46  71 
   1   1  -5 28453.0 1051.20  69 
  -1   1   5 29286.5 1076.92  55 
  -1   1   5 26931.1 981.379  63 
  -1   1   4 30772.5 1091.70  63 
   1   1  -4 33515.5 1136.71  69 
  -1   1   4 33846.7 1149.64  55 
   1   1  -4 32982.4 1203.87  71 
  -1   1   3 37515.6 1245.33  65 
  -1   1   3 40394.5 1285.78  63 
   1   1  -3 40261.7 1295.85  69 
  -1   1   3 41355.1 1300.25  55 
  -1   1   3 41348.5 1279.18  70 
  -1   1   3 41039.8 1313.81  52 
  -1   1   2 10475.2 412.394  65 
   1   1  -2 10816.0 482.258  71 
   1   1  -2 10950.4 407.036  69 
  -1   1   2 10991.3 436.146  52 
  -1   1   2 10091.0 350.369  71 
  -1   1   2 10301.5 397.372  55 
  -1   1   2 10310.7 431.298  70 
   1   1  -1 974661. 27122.5  71 
   1   1  -1 985981. 26999.1  69 
  -1   1   1 986481. 27073.5  65 
  -1   1   1 905950. 27008.6  56 
   1   1  -1 970432. 27011.4  61 
   1   1   0 680772. 18688.2  53 
   1   1   0 657762. 18679.5  71 
   1   1   0 633992. 18605.0  59 
   1   1   0 685131. 18619.0  57 
   1   1   1 924568. 25042.3  70 
  -1   1  -1 922481. 24969.3  67 
   1   1   1 926152. 25059.9  57 
   1   1   1 921433. 25068.2  53 
   1   1   1 831434. 24928.7  60 
   1   1   2 194482. 5690.16  70 
  -1   1  -2 199962. 5687.72  64 
  -1   1  -2 197260. 5664.73  67 
  -1   1  -2 210921. 5757.22  69 
  -1   1  -3 8633.66 445.987  69 
  -1   1  -3 8897.84 416.611  64 
   1   1   3 9280.56 452.822  53 
  -1   1  -4 44566.4 1549.08  64 
  -1   1  -4 49987.3 1615.57  69 
   1   1   4 47969.1 1590.82  53 
   1   1   4 41343.7 1799.46  57 
  -1   1  -5 4021.52 309.866  64 
  -1   1  -5 3694.90 326.164  69 
   1   1   5 3541.49 457.131  57 
   1   1   5 3912.11 310.076  53 
  -1   1  -5 3880.84 293.449  66 
   1   1   5 3524.08 274.003  63 
   1   1   6 9935.23 556.713  53 
   1   1   6 9571.47 489.463  63 
  -1   1  -6 9843.38 543.536  66 
  -1   1  -6 9874.32 588.885  69 
   1   1   6 8203.56 756.744  57 
   1   1   7 9080.90 486.812  63 
  -1   1  -7 9421.72 605.574  69 
   1   1   7 8956.87 539.930  53 
  -1   1  -7 8832.51 550.301  66 
   1   1   7 7741.66 655.931  22 
   1   1   7 9246.26 865.396  57 
  -1   1  -8 13469.5 682.228  28 
   1   1   8 14479.2 802.304   2 
  -1   1  -8 14197.7 832.514  69 
   1   1   8 15051.2 740.926   7 
   1   1   8 14810.6 684.565  63 
   1   1   8 13603.0 830.338  25 
   1   1   8 12138.9 1091.38  57 
   1   1   8 13965.6 888.095  12 
  -1   1  -8 15245.0 807.949  66 
   1   1   8 15281.0 826.903  31 
   1   1   8 14301.2 980.512  22 
   1   1   8 13719.1 1029.93  43 
   1   1   8 13973.9 733.771  53 
  -1   1  -9 13573.8 820.742  66 
   1   1   9 15711.8 1163.53  43 
   1   1   9 13588.6 871.269  25 
   1   1   9 14134.5 739.596   7 
   1   1   9 12638.5 984.350  22 
  -1   1  -9 15929.5 930.715  71 
   1   1   9 15115.1 854.330  31 
   1   1   9 13074.3 913.705  12 
   1   1   9 14046.2 830.420   2 
  -1   1  -9 14641.4 772.073  28 
  -1   1  -9 15382.5 734.351   9 
   1   1   9 15531.7 728.619  63 
   1   1   9 13465.2 1206.77  57 
   1   1  10 31881.7 1255.59  63 
  -1   1 -10 33469.4 1379.95  28 
   1   1  10 30184.4 1812.94  43 
   1   1  10 29116.6 1439.78  25 
   1   1  10 27309.6 1344.26   2 
  -1   1 -10 29668.8 1445.51  71 
   1   1  10 30329.5 1691.39  22 
   1   1  10 29588.6 1937.29  57 
   1   1  10 30877.1 1390.68  31 
  -1   1 -10 32779.3 1313.61   9 
  -1   1 -11 14696.0 823.126   9 
  -1   1 -11 15354.1 872.335  20 
   1   1  11 12341.4 1135.23  43 
   1   1  11 13152.7 809.913  31 
  -1   1 -11 15153.1 957.933  82 
   1   1  12 59628.8 2335.66  44 
  -1   1 -12 58726.8 2206.60   9 
  -1   1 -12 59275.8 2336.14  82 
   1   1  12 51945.8 2651.16  43 
  -1   1 -12 59170.0 2265.53  18 
  -1   1 -13 5141.70 495.083  82 
   1   1  13 4583.29 461.738  44 
  -1   1 -13 4872.94 479.449  18 
   1   1  13 5043.29 572.293  24 
  -1   1 -14 21284.8 1048.31  18 
  -1   1 -14 21629.1 1025.21  82 
   1   1  14 21548.8 987.348  44 
  -1   1 -14 19588.3 1075.01  37 
   1   1  15 7332.25 699.797  23 
  -1   1 -15 6347.62 440.724  18 
   1   2 -15 5806.79 395.258  20 
   1   2 -14 12381.2 629.390   1 
   1   2 -14 13781.0 714.819  18 
  -1   2  14 11292.6 651.409  31 
   1   2 -14 13927.0 724.980  20 
  -1   2  14 14099.3 808.133  44 
   1   2 -14 13915.2 731.447   9 
   1   2 -13 6033.60 471.198   9 
  -1   2  13 5149.71 446.323   2 
   1   2 -13 5719.54 458.585  20 
  -1   2  13 6096.49 569.690  44 
  -1   2  13 5481.99 506.718  25 
  -1   2  13 5417.31 616.213  22 
  -1   2  13 6055.24 504.835  31 
   1   2 -13 5792.67 496.052  28 
  -1   2  12 32854.4 1778.03  43 
  -1   2  12 33524.6 1785.06  22 
  -1   2  12 33908.7 1374.38   7 
   1   2 -12 34965.3 1455.77  28 
  -1   2  12 36183.8 1578.00  31 
  -1   2  12 32871.1 1673.15  12 
   1   2 -12 34797.5 1511.51  82 
  -1   2  12 33723.0 1592.01  25 
   1   2 -12 32920.5 1377.91   9 
  -1   2  12 35303.8 1519.92   2 
  -1   2  11 21558.4 1200.34  25 
   1   2 -11 19376.8 985.450  28 
   1   2 -11 20207.5 950.789   9 
  -1   2  11 22167.9 1058.63   7 
  -1   2  11 23661.2 1176.59   2 
   1   2 -11 21563.9 969.393  16 
  -1   2  11 20756.2 1345.63  22 
  -1   2  10 20734.3 1320.53  22 
   1   2 -10 21524.8 1218.25  71 
   1   2 -10 20907.7 943.504  16 
  -1   2  10 25061.8 1231.19   2 
   1   2 -10 20795.5 1165.98  69 
   1   2 -10 20444.6 977.403  28 
  -1   2  10 22086.9 1024.42  63 
  -1   2  10 22054.1 1175.21  53 
  -1   2  10 25575.3 1300.21  25 
   1   2  -9 12326.1 651.268  16 
   1   2  -9 14646.8 942.660  71 
   1   2  -9 14184.7 864.653  69 
  -1   2   9 14732.9 896.039  53 
  -1   2   9 14318.1 1018.04  30 
  -1   2   9 14844.6 1031.46  22 
  -1   2   9 15747.7 989.866  12 
  -1   2   8 8750.79 727.304  22 
   1   2  -8 7609.05 643.800  71 
  -1   2   8 7555.35 670.422  30 
   1   2  -8 7414.80 565.638  69 
  -1   2   8 6531.04 573.859  53 
  -1   2   8 8132.02 508.188  63 
  -1   2   7 17873.4 1030.04  30 
   1   2  -7 18446.0 914.488  69 
   1   2  -7 19240.5 1040.32  71 
  -1   2   7 17693.1 966.326  53 
  -1   2   7 15925.6 1095.20  57 
  -1   2   7 19390.8 850.672  63 
   1   2  -6 63805.9 2147.87  69 
  -1   2   6 64949.6 2087.95  63 
   1   2  -5 13617.8 671.597  69 
  -1   2   5 14917.1 784.358  53 
  -1   2   5 15792.4 692.454  63 
   1   2  -4 2885.04 330.682  71 
  -1   2   4 3142.81 313.893  53 
  -1   2   4 2830.97 237.589  65 
  -1   2   4 3310.62 265.441  70 
   1   2  -4 2749.32 238.135  69 
  -1   2   3 90987.8 2938.26  65 
  -1   2   3 98276.9 3061.19  53 
  -1   2   3 95309.3 2919.98  52 
  -1   2   3 95316.3 2987.73  70 
   1   2  -3 98656.8 3122.20  71 
   1   2  -3 95632.3 2889.27  69 
  -1   2   2 26081.4 959.295  65 
   1   2  -2 24799.8 1024.44  71 
  -1   2   2 24614.0 883.153  52 
   1   2  -2 24293.7 827.199  69 
  -1   2   2 26094.2 1001.47  70 
  -1   2   2 26060.6 993.645  53 
  -1   2   1 45900.8 1638.52  65 
   1   2  -1 49985.6 1684.83  71 
  -1   2   1 46135.1 1623.90  53 
  -1   2   1 47520.5 1600.43  71 
  -1   2   1 51083.1 1555.52  52 
   1   2   0 166415. 4971.37  53 
   1   2   0 168587. 4978.96  71 
  -1   2   0 169916. 5013.02  71 
  -1   2   0 164205. 4925.69  53 
   1   2   1 37425.5 1375.32  65 
   1   2   1 38112.2 1272.62  71 
   1   2   1 36418.6 1356.70  70 
  -1   2  -1 37884.1 1401.65  71 
  -1   2  -1 35324.1 1246.32  69 
  -1   2  -1 36136.3 1220.81  53 
   1   2   1 38310.8 1348.69  53 
   1   2   2 75426.8 2560.56  53 
  -1   2  -2 80719.2 2480.26  69 
   1   2   2 76760.0 2521.44  70 
   1   2   2 80429.7 2540.73  65 
   1   2   3 44036.7 1507.50  70 
  -1   2  -3 42043.9 1516.71  69 
   1   2   3 42913.5 1514.35  65 
   1   2   3 43864.9 1603.87  53 
  -1   2  -4 25449.8 1043.55  69 
   1   2   4 22997.0 1077.38  57 
   1   2   4 25573.6 979.571  65 
   1   2   5 6182.51 482.910  53 
  -1   2  -5 6551.20 473.528  69 
   1   2   6 35119.5 1493.47  53 
   1   2   6 34976.4 1390.94  63 
  -1   2  -6 35304.4 1461.38  69 
   1   2   6 38415.8 1593.14  12 
   1   2   6 33459.0 1636.78  57 
   1   2   6 37909.2 1565.03  25 
   1   2   6 34020.2 1575.36  22 
   1   2   7 23321.9 1312.82  22 
   1   2   7 25086.6 1215.37  53 
  -1   2  -7 23965.1 1304.80  71 
   1   2   7 24821.4 1284.32  12 
  -1   2  -7 24005.7 1181.27  69 
   1   2   7 27455.2 1302.13  25 
   1   2   7 28374.0 1292.35   2 
   1   2   7 25232.5 1093.39  63 
   1   2   8 3822.90 523.715  22 
   1   2   8 5006.57 458.885   7 
   1   2   8 5723.86 535.798  31 
   1   2   8 4815.27 538.431  12 
   1   2   8 4906.14 479.095  53 
   1   2   8 5790.47 555.242  44 
   1   2   8 4565.17 392.980  63 
  -1   2  -8 5397.32 504.244  69 
   1   2   8 5629.72 527.161   2 
  -1   2  -8 4930.72 542.775  71 
   1   2   9 5005.83 567.475  12 
   1   2   9 4596.58 590.120  22 
  -1   2  -9 5157.72 510.099  69 
   1   2   9 5043.66 408.727  63 
   1   2   9 4450.73 441.931   7 
  -1   2  -9 4881.25 551.809  71 
  -1   2  -9 4064.07 356.070  28 
   1   2   9 5299.19 522.929   2 
   1   2   9 4293.63 512.380  44 
   1   2   9 4918.72 505.756  31 
   1   2  10 12214.5 1002.32  22 
   1   2  10 12540.7 839.383  31 
  -1   2 -10 11427.9 635.558   9 
   1   2  10 10154.2 863.694  12 
   1   2  10 13430.5 771.499   7 
   1   2  10 12836.6 886.075  44 
  -1   2 -10 11493.3 665.327  28 
   1   2  10 10756.5 830.013  25 
   1   2  10 12100.6 828.774   2 
  -1   2 -11 58914.8 2071.48  28 
   1   2  11 53297.3 2189.80   2 
   1   2  11 56616.1 2216.30  31 
   1   2  11 52724.5 2246.84  25 
   1   2  11 53232.4 2020.10   7 
  -1   2 -11 58564.5 2019.18   9 
  -1   2 -11 56990.4 2152.89  82 
  -1   2 -12 11822.3 702.262  20 
   1   2  12 10054.4 691.528  31 
  -1   2 -12 10548.1 684.391  82 
  -1   2 -12 11687.5 656.314   9 
   1   2  13 3760.88 493.138  24 
  -1   2 -13 2940.53 327.878  18 
   1   2  13 3627.04 389.639  44 
  -1   2 -13 3373.51 343.637  20 
  -1   2 -13 2881.67 303.422   9 
   1   2  14 31081.4 1366.17  24 
   1   2  14 32130.3 1232.35  44 
  -1   2 -14 29190.5 1201.76  18 
  -1   3  14 566.889 130.359  44 
   1   3 -14 741.113 132.950   9 
  -1   3  13 8552.47 554.768  44 
   1   3 -13 8693.52 501.017  28 
   1   3 -13 7799.33 464.577  20 
  -1   3  13 7269.45 500.924   2 
   1   3 -13 8207.13 473.389   9 
  -1   3  13 7820.97 526.285  31 
  -1   3  13 6954.76 529.909  25 
   1   3 -12 19027.1 885.080  28 
  -1   3  12 19481.8 1003.45   2 
  -1   3  12 20119.3 1023.61  44 
   1   3 -12 18726.4 843.617   9 
  -1   3  12 17575.2 1060.90  12 
  -1   3  12 19333.8 1015.90  31 
  -1   3  12 20511.7 920.237   7 
  -1   3  11 14802.3 992.837  12 
  -1   3  11 16792.6 965.803  44 
  -1   3  11 17385.8 902.479   7 
  -1   3  11 13428.6 992.587  22 
   1   3 -11 14678.7 713.962  16 
  -1   3  11 16952.3 961.563   2 
   1   3 -11 14467.9 753.865  28 
  -1   3  10 14641.1 924.234  44 
   1   3 -10 12861.6 671.377  16 
  -1   3  10 13774.0 1003.77  22 
  -1   3  10 16185.8 982.495   2 
  -1   3  10 14941.9 980.547  25 
  -1   3  10 13442.3 970.083  12 
  -1   3   9 1706.93 343.984  12 
  -1   3   9 1663.55 312.668  44 
   1   3  -9 1436.64 207.900  16 
  -1   3   9 1666.05 347.051  22 
  -1   3   9 1301.24 326.468  25 
  -1   3   8 11992.4 891.053  12 
  -1   3   8 12126.6 701.825  63 
  -1   3   8 12210.5 818.617  44 
  -1   3   8 11673.7 894.967  22 
  -1   3   7 17446.4 992.182  44 
   1   3  -7 18369.3 1135.78  71 
  -1   3   7 17948.4 900.013  63 
  -1   3   7 17778.3 1087.96  22 
  -1   3   7 19080.2 1101.84  53 
  -1   3   6 111496. 3779.91  53 
  -1   3   6 100420. 3564.98  44 
  -1   3   6 110864. 3519.71  63 
   1   3  -6 110444. 3865.64  71 
   1   3  -5 38131.5 1737.26  71 
  -1   3   5 38265.2 1674.30  53 
  -1   3   5 38491.4 1500.91  63 
  -1   3   4 20613.0 980.010  70 
  -1   3   4 22737.3 1116.74  53 
   1   3  -4 22666.4 1163.35  71 
  -1   3   4 20909.9 942.244  65 
  -1   3   3 667.881 183.562  53 
   1   3  -3 616.816 173.080  71 
  -1   3   3 617.443 145.236  65 
  -1   3   3 385.357 138.191  70 
  -1   3   2 10393.9 669.594  70 
  -1   3   2 11109.2 646.164  65 
   1   3  -2 12198.7 730.614  71 
  -1   3   2 10439.9 653.726  53 
  -1   3   1 212670. 6532.29  70 
   1   3  -1 218041. 6470.48  71 
  -1   3   1 202829. 6377.98  53 
  -1   3   1 211960. 6442.11  65 
   1   3  -1 215702. 6582.86  65 
  -1   3   0 6383.20 502.433  65 
   1   3   0 7506.72 491.422  71 
  -1   3   0 6987.65 500.525  71 
  -1   3   0 6715.83 439.430  53 
   1   3   0 6872.42 540.207  65 
  -1   3  -1 12852.4 750.673  71 
   1   3   1 11738.1 721.442  65 
   1   3   2 4402.25 402.402  65 
   1   3   2 3933.57 402.614  53 
   1   3   2 4209.20 393.143  70 
  -1   3  -2 4637.64 455.669  71 
   1   3   3 10742.4 656.267  65 
   1   3   3 11746.7 680.604  70 
   1   3   3 12002.6 722.037  25 
  -1   3  -3 12278.6 813.508  71 
   1   3   3 12379.2 755.088  53 
   1   3   3 10163.8 642.785  44 
   1   3   4 14935.9 849.267  44 
  -1   3  -4 16394.1 1000.92  71 
   1   3   4 15158.8 801.016  65 
   1   3   4 17388.8 953.120  53 
   1   3   4 16793.2 924.240  25 
  -1   3  -5 14952.2 1003.92  71 
   1   3   5 16712.6 965.217  53 
   1   3   5 16713.9 961.957  31 
   1   3   5 17270.3 974.131  25 
   1   3   5 14238.8 869.889  44 
   1   3   5 15203.5 928.215  12 
  -1   3  -6 375.720 183.577  71 
   1   3   6 308.612 188.053  25 
   1   3   6 417.700 186.656   2 
   1   3   6 384.278 173.889  31 
   1   3   6 379.249 148.724  63 
   1   3   6 259.109 159.053  12 
   1   3   6 385.301 172.221  44 
  -1   3  -7 5029.24 583.425  71 
   1   3   7 5835.92 598.029  12 
   1   3   7 5697.00 571.560   2 
   1   3   7 5791.01 575.402  31 
   1   3   7 5236.23 537.815  44 
   1   3   7 6325.51 601.384  25 
   1   3   8 12955.4 881.078  44 
   1   3   8 11072.2 879.672  12 
   1   3   8 12157.5 873.633  31 
   1   3   8 12414.9 891.414  25 
   1   3   8 14694.0 877.412   7 
   1   3   8 13939.0 919.881   2 
   1   3   9 13374.6 885.920  44 
   1   3   9 11491.2 884.443  12 
   1   3   9 13265.0 898.150  31 
  -1   3  -9 10724.2 609.450  28 
   1   3   9 13107.3 907.003  25 
   1   3   9 13867.6 839.712   7 
   1   3  10 18055.7 1039.44   2 
   1   3  10 20336.7 1097.37  44 
  -1   3 -10 17099.4 811.839  28 
   1   3  10 17297.9 1061.15  25 
   1   3  10 19983.3 983.302   7 
   1   3  11 2120.19 316.277  31 
  -1   3 -11 1973.12 227.396   9 
   1   3  11 2191.83 323.957  44 
   1   3  11 2074.36 316.923   2 
   1   3  11 1840.75 248.718   7 
  -1   3 -12 1649.75 198.481   9 
  -1   3 -12 1634.02 212.332  20 
   1   3  12 1995.48 268.395  44 
   1   3  13 6537.00 417.548  44 
  -1   3 -13 5646.79 371.194  18 
  -1   3 -13 6605.77 393.629  20 
   1   4 -12 2360.06 189.458   9 
  -1   4  12 1838.75 205.931  31 
  -1   4  11 21602.5 893.618   7 
   1   4 -11 20292.8 782.729   9 
  -1   4  11 20742.7 936.952  31 
   1   4 -11 19180.4 794.910  28 
  -1   4  10 875.882 203.134   7 
   1   4 -10 655.077 137.879  28 
  -1   4  10 594.149 183.442  25 
  -1   4  10 1023.11 225.248  31 
  -1   4  10 1014.29 217.845  12 
  -1   4  10 891.311 222.082   2 
   1   4 -10 849.354 137.576  16 
  -1   4   9 10992.6 712.062  31 
  -1   4   9 10751.2 726.724  25 
  -1   4   9 8689.46 666.332  12 
   1   4  -9 8215.71 481.553  16 
  -1   4   9 10881.1 731.460   2 
  -1   4   8 2103.78 329.352   2 
  -1   4   8 2212.89 356.847  25 
  -1   4   8 2500.17 351.367  12 
  -1   4   8 2324.73 345.728  31 
  -1   4   7 107472. 3509.52  31 
  -1   4   7 107140. 3531.03  25 
  -1   4   7 100316. 3470.21  12 
  -1   4   6 9026.34 688.200  31 
  -1   4   6 10105.7 733.457  25 
  -1   4   5 79842.3 2905.34  25 
  -1   4   3 16758.2 966.134  53 
   1   4  -3 17693.7 1092.38  65 
  -1   4   3 17931.8 895.205  65 
  -1   4   3 16637.1 939.568  70 
   1   4  -3 18005.0 1054.84  71 
   1   4  -2 27266.6 1397.82  65 
  -1   4   2 26964.1 1295.93  70 
  -1   4   2 26591.7 1215.40  65 
   1   4  -1 11327.4 803.276  65 
  -1   4   1 10147.8 695.728  65 
  -1   4   1 12233.1 806.775  70 
   1   4   0 13210.2 863.648  65 
  -1   4   0 13849.1 837.724  65 
  -1   4   0 12255.7 858.137  70 
   1   4   0 14502.6 907.639  70 
   1   4   1 9557.13 692.795  65 
  -1   4  -1 9115.99 683.307  65 
  -1   4  -1 9518.70 755.138  70 
   1   4   1 10664.9 741.267  70 
   1   4   2 16071.8 908.931  65 
  -1   4  -2 14799.5 933.182  65 
   1   4   2 15798.6 902.029  70 
  -1   4  -3 12273.3 861.393  65 
   1   4   3 14716.8 855.710   2 
   1   4   4 53289.2 2038.53   7 
   1   4   4 52767.0 2047.61   2 
   1   4   5 15688.2 910.188   7 
   1   4   5 12638.4 833.957  25 
   1   4   5 15299.0 925.601   2 
   1   4   5 13084.2 837.698  31 
   1   4   6 2931.16 337.764  44 
   1   4   6 3058.39 394.293  31 
   1   4   6 2552.68 367.272  25 
   1   4   6 3229.97 410.057   2 
   1   4   6 2864.58 377.949   7 
   1   4   7 607.135 195.566  25 
   1   4   7 872.757 223.957   7 
   1   4   7 666.305 198.335  31 
   1   4   7 747.630 229.059   2 
   1   4   7 588.018 171.148  44 
   1   4   8 19806.3 978.893  44 
   1   4   8 19541.7 1053.62   2 
   1   4   8 19590.5 1035.08  31 
   1   4   8 20809.8 1027.11   7 
   1   4   8 18142.5 1018.65  25 
  -1   4  -9 4804.93 320.679  28 
   1   4   9 5449.38 469.226  31 
   1   4   9 5674.30 488.187   2 
   1   4   9 5271.56 424.885  44 
   1   4  10 242.819 110.961   7 
   1   4  10 392.372 112.577  44 
  -1   4 -10 285.593 87.3806   9 
   1   4  10 432.398 128.231  34 
  -1   4 -11 270.330 85.5085  20 
  -1   5   8 959.437 153.710   7 
  -1   5   8 1357.33 188.656  34 
  -1   5   7 6224.62 413.657   2 
   1   5  -7 5984.97 339.866  16 
   1   5  -6 19188.8 765.689   4 
  -1   5   6 19700.5 885.618   2 
  -1   5   5 753.405 169.736   7 
   1   5  -5 873.621 153.644   4 
  -1   5   4 1155.95 187.899   7 
   1   5  -1 4437.69 364.206   5 
   1   5   0 1679.61 250.684   5 
   1   5   2 384.219 130.853  34 
   1   5   3 244.041 125.368  34 
   1   5   4 16100.9 792.158   7 
   1   5   4 21299.1 921.202  34 
   1   5   5 19192.3 877.584   7 
   1   5   5 23032.9 976.493  34 
   1   5   6 4669.45 352.327   5 
   1   5   6 4106.31 341.657  34 
   1   5   6 3508.14 298.276   7 
   1   5   7 1813.90 197.304   5 
   1   5   7 1573.98 185.453   7 
  -2  -5   9 173.918 75.4982  80 
   2  -5  -8 19044.4 934.367  49 
  -2  -5   8 17628.2 817.589  80 
  -2  -5   7 3572.58 345.924  80 
   2  -5  -7 3688.99 409.785  49 
   2  -5  -6 15649.8 924.307  49 
  -2  -5   6 15599.6 819.794  80 
  -2  -5   6 14334.6 847.154  51 
  -2  -5   5 9409.17 615.388  80 
  -2  -5   5 8941.61 682.520  51 
   2  -5  -5 9472.06 708.071  49 
   2  -5  -4 23744.3 930.130  79 
  -2  -5   4 22102.0 1050.75  80 
   2  -5  -4 21481.7 1157.38  49 
  -2  -5   4 20138.4 1179.16  51 
  -2  -5   4 22403.9 1249.25  47 
  -2  -5   3 1744.33 355.273  47 
  -2  -5   3 1711.71 364.484  51 
   2  -5  -3 1948.76 241.166  79 
   2  -5  -2 4737.12 388.895  79 
  -2  -5   2 4515.68 561.432  51 
  -2  -5   2 4359.06 528.757  47 
  -2  -5   1 34805.7 1337.77  79 
   2  -5  -1 36232.3 1391.85  79 
  -2  -5   0 14640.4 685.504  79 
   2  -5   0 15067.4 791.467  79 
   2  -5   0 13621.8 729.797  72 
   2  -5   1 4007.30 394.796  79 
  -2  -5  -1 2629.41 299.501  81 
   2  -5   1 3234.14 303.544  72 
  -2  -5  -1 3239.04 483.028  46 
  -2  -5  -2 3004.05 466.976  46 
   2  -5   2 2891.44 261.876  72 
  -2  -5  -2 2994.49 323.408  81 
  -2  -5  -3 23631.0 1069.14  81 
   2  -5   3 24009.8 1167.67  78 
  -2  -5  -3 22930.4 1363.35  46 
  -2  -5  -4 11694.0 886.760  46 
  -2  -5  -4 9846.44 609.721  81 
   2  -5   4 11132.4 710.215  78 
  -2  -5  -5 4258.61 354.376  81 
   2  -5   5 4193.43 399.758  78 
  -2  -5  -5 4811.93 529.939  46 
  -2  -5  -6 1276.28 185.979  81 
  -2  -5  -6 1042.89 235.923  46 
   2  -5   6 1135.33 198.921  78 
   2  -5   7 1772.33 194.058  78 
   2  -4 -12 11793.6 720.463  49 
  -2  -4  12 11564.2 618.990  80 
   2  -4 -11 19696.8 1105.12  48 
   2  -4 -11 21598.1 1165.55  49 
   2  -4 -10 9399.81 814.811  48 
   2  -4 -10 10492.6 609.980  81 
  -2  -4  10 8907.24 984.012  14 
   2  -4  -9 13073.7 743.732  81 
   2  -4  -9 12576.3 1034.28  48 
   2  -4  -9 12812.0 841.929  10 
  -2  -4   9 10413.7 1120.88  14 
  -2  -4   8 2706.60 413.955  51 
   2  -4  -8 3099.83 430.373  10 
  -2  -4   8 2473.68 603.309  14 
  -2  -4   8 2658.48 349.346  78 
   2  -4  -8 2844.92 530.742  48 
   2  -4  -8 3585.72 566.445  49 
  -2  -4   7 15957.5 1504.04  27 
   2  -4  -7 19288.1 1180.58  10 
  -2  -4   7 14545.6 1409.43  14 
   2  -4  -7 19248.0 1359.36  49 
   2  -4  -7 19734.7 1412.25  48 
  -2  -4   7 19155.4 1045.66  78 
  -2  -4   7 17197.4 1126.35  51 
   2  -4  -7 18327.5 997.057  81 
   2  -4  -6 32279.9 1830.00  49 
  -2  -4   6 33661.6 1743.42  51 
   2  -4  -6 32071.2 1458.61  81 
   2  -4  -6 34048.7 1277.20  79 
  -2  -4   6 32524.8 1526.81  78 
  -2  -4   6 27840.1 1991.54  14 
   2  -4  -6 34505.2 1698.66  10 
  -2  -4   6 30947.6 1826.89  47 
   2  -4  -5 4866.05 570.886  10 
   2  -4  -5 4517.52 461.142  81 
   2  -4  -5 5132.72 711.545  48 
  -2  -4   5 3971.51 471.061  78 
  -2  -4   5 3935.92 512.945  80 
  -2  -4   5 3973.78 735.367  27 
  -2  -4   5 3723.92 694.974  14 
   2  -4  -5 4279.55 616.623  49 
   2  -4  -5 4911.28 401.518  79 
  -2  -4   5 3147.93 586.975  47 
   2  -4  -4 2072.13 289.309  79 
   2  -4  -4 2205.68 449.756  49 
  -2  -4   4 2521.90 616.881  27 
   2  -4  -4 2302.15 327.955  81 
  -2  -4   4 2373.75 359.444  78 
  -2  -4   4 1951.41 347.760  80 
   2  -4  -4 1847.15 451.684  48 
  -2  -4   4 2124.77 497.435  47 
  -2  -4   3 1450.64 394.561  46 
   2  -4  -3 1301.98 251.184  79 
  -2  -4   3 828.789 357.963  47 
   2  -4  -3 1014.91 221.500  81 
  -2  -4   3 2090.67 345.051  80 
   2  -4  -3 1141.63 357.666  48 
  -2  -4   3 1021.47 245.152  78 
  -2  -4   3 1343.83 481.971  27 
   2  -4  -3 1148.66 270.760  58 
   2  -4  -3 1194.60 328.166  49 
  -2  -4   2 4571.39 731.526  27 
  -2  -4   2 4475.27 472.076  78 
   2  -4  -2 4712.03 579.013  49 
  -2  -4   2 4225.27 472.521  80 
   2  -4  -2 4008.63 464.599  78 
   2  -4  -2 4066.51 430.534  79 
  -2  -4   2 4162.98 671.889  47 
   2  -4  -2 4239.53 398.284  81 
  -2  -4   2 4439.80 646.578  46 
  -2  -4   1 19195.0 1014.05  80 
  -2  -4   1 16959.8 1341.49  46 
   2  -4  -1 17280.6 1105.90  49 
   2  -4  -1 15720.3 1022.22  78 
  -2  -4   0 49573.9 2194.63  49 
  -2  -4   0 44589.1 1816.69  80 
  -2  -4   0 49942.1 2526.52  46 
   2  -4   0 47796.0 2060.49  78 
   2  -4   0 47497.0 2036.86  73 
   2  -4   0 44420.7 2022.64  51 
  -2  -4   0 42992.4 2414.85  26 
  -2  -4  -1 2212.91 517.867  26 
  -2  -4  -1 2339.93 453.090  10 
  -2  -4  -1 2777.80 576.486  46 
   2  -4   1 3109.69 450.434  78 
   2  -4   1 2844.50 439.758  73 
  -2  -4  -1 2582.08 456.865  49 
   2  -4   1 2556.71 400.401  51 
  -2  -4  -2 28462.9 1632.25  10 
   2  -4   2 25820.8 1468.84  73 
   2  -4   2 26110.3 1351.74  80 
  -2  -4  -2 27694.7 1848.95  46 
  -2  -4  -2 26253.0 1729.18  26 
   2  -4   2 26167.0 1352.77  51 
   2  -4   2 24323.5 1160.68  72 
  -2  -4  -2 25817.9 1532.67  49 
   2  -4   3 3678.18 353.656  72 
   2  -4   3 3839.89 460.962  51 
   2  -4   3 3616.41 519.071  78 
   2  -4   3 3259.07 503.401  73 
   2  -4   3 3690.58 471.964  80 
  -2  -4  -3 3220.39 520.031  49 
  -2  -4  -3 3532.96 568.693  10 
  -2  -4  -3 3821.57 640.887  26 
  -2  -4  -4 14523.4 1110.26  49 
  -2  -4  -4 15241.6 1183.03  10 
  -2  -4  -4 13728.6 1173.09  26 
   2  -4   4 13456.0 918.877  80 
   2  -4   4 12952.1 1025.23  73 
   2  -4   4 14373.8 717.722  72 
   2  -4   4 13950.6 1039.14  78 
   2  -4   4 16303.2 963.290  51 
   2  -4   5 4159.71 481.497  80 
  -2  -4  -5 4654.88 604.849  49 
   2  -4   5 3956.71 540.684  78 
  -2  -4  -5 4063.85 625.668  35 
  -2  -4  -5 3513.12 551.601  26 
  -2  -4  -6 9753.25 929.639  35 
   2  -4   6 11497.8 788.211  80 
   2  -4   6 10553.8 873.710  73 
   2  -4   6 10159.2 866.777  78 
  -2  -4  -6 10605.7 895.641  49 
   2  -4   7 2782.24 436.249  78 
   2  -4   7 3695.62 410.097  80 
  -2  -4  -7 3418.58 485.426  49 
  -2  -4  -8 5129.90 608.982  10 
   2  -4   8 5270.58 446.708  80 
  -2  -4  -8 4625.87 425.825  81 
   2  -4   8 5834.41 555.977  78 
  -2  -4  -8 5134.31 541.463  49 
   2  -4   9 5418.62 480.651  78 
  -2  -4  -9 5746.14 409.902  81 
  -2  -4  -9 5381.88 477.164  49 
  -2  -4  -9 5744.71 569.571  10 
   2  -4  10 2399.60 259.905  78 
  -2  -4 -10 1852.10 280.889  10 
  -2  -4 -10 2374.32 199.645  81 
   2  -3 -14 22198.9 1109.03  49 
  -2  -3  14 22182.9 1303.75  50 
   2  -3 -13 20201.7 1181.73  49 
  -2  -3  13 18977.5 1285.92  38 
   2  -3 -13 19158.3 1055.49  48 
  -2  -3  13 16174.3 1305.41  14 
  -2  -3  13 19866.2 1410.14  50 
   2  -3 -12 18638.8 1201.92  29 
  -2  -3  12 16150.6 1301.88  38 
   2  -3 -12 17408.1 1046.90  21 
  -2  -3  12 17009.1 1479.71  14 
   2  -3 -12 17089.0 1151.33  48 
  -2  -3  11 27910.5 1857.21  38 
  -2  -3  11 25428.3 1997.41  14 
   2  -3 -11 30845.3 1285.32  81 
   2  -3 -11 29110.3 1538.39  21 
   2  -3 -11 29960.5 1735.80  48 
   2  -3 -11 29277.8 1507.04  10 
   2  -3 -10 30692.6 1378.87  81 
   2  -3 -10 31399.8 1880.42  48 
   2  -3 -10 32473.2 1649.74  10 
   2  -3 -10 33922.4 1704.22  21 
  -2  -3  10 28593.9 1913.25  38 
   2  -3  -9 7699.29 615.588  81 
   2  -3  -9 8053.06 777.909  21 
  -2  -3   9 9170.51 750.400  51 
  -2  -3   9 7740.39 940.446  38 
   2  -3  -9 9790.76 986.930  48 
  -2  -3   8 22935.8 1595.14  38 
   2  -3  -8 21579.4 1145.74  81 
   2  -3  -8 25789.7 1657.20  48 
  -2  -3   8 19560.7 1728.53  27 
   2  -3  -8 25572.7 1413.82  10 
   2  -3  -8 21134.0 1228.53  58 
  -2  -3   8 21750.6 1817.97  14 
   2  -3  -8 23315.8 1376.33  21 
  -2  -3   8 22894.9 1306.98  51 
   2  -3  -8 23191.3 1487.51  29 
   2  -3  -7 799.752 261.387  10 
  -2  -3   7 716.301 374.466  14 
  -2  -3   7 950.062 251.252  78 
   2  -3  -7 1011.58 226.517  81 
  -2  -3   7 819.746 286.289  51 
   2  -3  -7 1007.46 319.628  29 
   2  -3  -7 740.576 216.784  58 
   2  -3  -7 1358.46 323.955  21 
   2  -3  -7 1024.28 373.033  48 
   2  -3  -6 63927.8 2591.38  10 
  -2  -3   6 62185.6 2405.45  78 
   2  -3  -6 63556.3 2097.17  79 
   2  -3  -6 57847.6 2385.09  58 
   2  -3  -6 63185.0 2661.45  29 
  -2  -3   6 63779.3 3153.28  14 
   2  -3  -6 63260.1 2558.57  21 
  -2  -3   6 58528.9 2593.89  51 
  -2  -3   6 56022.5 3083.63  27 
   2  -3  -6 63818.8 2856.67  48 
  -2  -3   6 56764.7 2746.72  47 
   2  -3  -5 4128.99 456.224  58 
   2  -3  -5 4118.00 428.424  81 
  -2  -3   5 4171.12 524.371  62 
  -2  -3   5 4159.79 693.423  14 
  -2  -3   5 4074.39 623.678  47 
  -2  -3   5 4520.69 470.838  78 
   2  -3  -5 4420.68 531.774  10 
   2  -3  -5 4072.10 347.941  79 
  -2  -3   5 4827.23 783.040  27 
  -2  -3   4 62176.7 2976.73  47 
  -2  -3   4 72684.8 2928.32  46 
  -2  -3   4 70027.8 2796.01  62 
  -2  -3   4 73045.5 3222.41  14 
   2  -3  -4 70713.3 2411.14  79 
   2  -3  -4 72872.6 2994.81  48 
  -2  -3   4 68652.9 3275.04  27 
   2  -3  -4 71639.7 2865.74  49 
   2  -3  -4 69938.4 2733.93  10 
   2  -3  -4 70561.1 2626.93  58 
  -2  -3   3 13061.3 919.300  62 
   2  -3  -3 12217.9 903.881  49 
   2  -3  -3 12919.5 877.378  10 
   2  -3  -3 12575.7 976.901  48 
  -2  -3   3 11618.9 1115.59  27 
  -2  -3   3 12347.9 979.575  46 
   2  -3  -3 12503.8 814.014  58 
  -2  -3   2 52821.0 2525.04  27 
   2  -3  -2 45861.9 1995.77  10 
  -2  -3   2 49672.3 2309.73  46 
   2  -3  -2 50224.1 1969.38  58 
  -2  -3   2 47298.2 2100.34  62 
   2  -3  -2 49398.8 2083.63  49 
  -2  -3   2 43887.6 2281.55  26 
  -2  -3   2 48908.8 2007.45  49 
   2  -3  -2 49012.9 2169.80  48 
   2  -3  -1 5828.27 549.870  49 
  -2  -3   1 5205.26 653.898  46 
   2  -3  -1 5374.98 492.868  58 
   2  -3  -1 4613.52 532.500  48 
  -2  -3   1 5675.04 562.614  49 
  -2  -3   1 5033.66 546.352  10 
  -2  -3   1 4765.14 536.007  62 
  -2  -3   1 5041.28 663.552  26 
   2  -3   0 17244.2 1012.80  49 
  -2  -3   0 20410.9 1139.29  62 
  -2  -3   0 20166.2 1352.81  26 
   2  -3   0 18082.8 995.552  58 
  -2  -3   0 17940.6 1266.36  35 
  -2  -3   0 19395.1 1162.89  10 
  -2  -3   0 18652.1 1107.83  49 
  -2  -3  -1 4882.13 644.378  35 
  -2  -3  -1 5186.67 676.960  26 
  -2  -3  -1 6236.24 631.059  10 
  -2  -3  -1 5403.18 552.961  62 
   2  -3   1 5864.06 503.224  49 
  -2  -3  -1 5654.17 586.021  49 
   2  -3   2 9735.13 747.776  51 
  -2  -3  -2 12837.8 872.867  62 
  -2  -3  -2 10180.2 951.809  35 
  -2  -3  -2 11725.7 915.401  10 
  -2  -3  -2 11164.1 869.308  49 
   2  -3   2 9595.51 964.922  14 
  -2  -3  -2 10406.4 969.497  26 
   2  -3   3 40070.1 1804.78  75 
   2  -3   3 35387.2 2164.06  14 
   2  -3   3 39705.2 1756.23  51 
   2  -3   3 40808.4 1532.78  72 
  -2  -3  -3 40449.0 1943.52  49 
  -2  -3  -3 42884.3 1955.92  21 
  -2  -3  -3 42395.8 2174.99  35 
  -2  -3  -3 38907.6 2099.83  26 
   2  -3   3 42596.7 1952.64  73 
  -2  -3  -3 38425.5 1923.38  48 
   2  -3   4 126.842 174.901  75 
  -2  -3  -4 156.616 221.539  48 
   2  -3   4 272.329 165.269  51 
   2  -3   4 126.630 89.1048  72 
  -2  -3  -4 113.664 185.671  21 
   2  -3   4 294.818 232.604  50 
  -2  -3  -4 202.891 231.380  35 
  -2  -3  -4 77.8807 197.080  49 
   2  -3   4 319.105 312.696  14 
  -2  -3  -4 193.954 212.519  26 
  -2  -3  -5 24256.4 1605.61  26 
   2  -3   5 26144.3 1324.81  51 
   2  -3   5 22110.8 1789.29  14 
  -2  -3  -5 23807.1 1483.12  21 
  -2  -3  -5 27653.5 1551.86  48 
   2  -3   5 24727.6 1016.37  72 
  -2  -3  -5 28808.9 1776.86  35 
   2  -3   5 26232.0 1512.28  73 
   2  -3   5 25886.7 1740.81  50 
  -2  -3  -5 25730.2 1520.11  49 
  -2  -3  -6 5789.82 661.890  48 
  -2  -3  -6 5813.75 789.983  35 
  -2  -3  -6 4468.13 662.171  26 
   2  -3   6 5959.07 852.291  50 
   2  -3   6 4925.93 622.623  73 
  -2  -3  -6 5111.89 654.483  21 
   2  -3   6 2929.62 698.967  14 
  -2  -3  -6 4895.81 633.917  49 
  -2  -3  -7 22093.2 1495.76  26 
  -2  -3  -7 24381.3 1526.31  21 
   2  -3   7 25865.4 1824.44  50 
  -2  -3  -7 25633.6 1682.52  35 
  -2  -3  -7 24397.5 1496.53  49 
  -2  -3  -7 20172.0 1326.34  48 
   2  -3   7 23128.0 1419.28  73 
   2  -3   8 1133.35 325.039  73 
  -2  -3  -8 636.806 305.448  21 
  -2  -3  -8 1054.63 360.041  35 
   2  -3   8 469.129 360.505  50 
  -2  -3  -8 1072.00 318.193  49 
  -2  -3  -9 13245.3 997.719  49 
   2  -3   9 14685.0 981.390  73 
  -2  -3  -9 12148.6 1035.71  21 
   2  -3   9 13732.6 1299.69  50 
  -2  -3  -9 13687.2 1120.25  35 
  -2  -3 -10 9920.19 855.348  21 
   2  -3  10 12136.4 1112.31  50 
  -2  -3 -10 10349.7 849.426  35 
  -2  -3 -10 10250.0 780.393  49 
  -2  -3 -10 8580.32 558.046  81 
  -2  -3 -11 20866.1 1216.02  21 
   2  -3  11 22353.4 1138.36  78 
   2  -3  11 24096.2 1468.60  50 
   2  -3  12 913.680 181.674  78 
  -2  -3 -12 1312.75 246.845  10 
  -2  -2  15 417.143 264.364  50 
   2  -2 -15 708.558 203.325  29 
  -2  -2  14 2653.22 525.645  14 
   2  -2 -14 2844.42 376.519  21 
   2  -2 -14 3163.32 435.722  11 
  -2  -2  14 2446.90 380.145  43 
   2  -2 -14 2669.04 427.730  29 
  -2  -2  13 57664.7 2513.22  43 
  -2  -2  13 62574.3 3112.17  38 
   2  -2 -13 62650.7 2485.79  21 
   2  -2 -13 64775.0 2656.64  29 
  -2  -2  13 54753.7 2998.01  14 
   2  -2 -13 57532.1 2519.04  48 
   2  -2 -12 5824.75 629.552  21 
  -2  -2  12 5817.67 667.818  43 
   2  -2 -12 5349.01 672.678  48 
  -2  -2  12 5427.44 901.181  14 
   2  -2 -12 5728.20 690.132  29 
  -2  -2  12 5519.15 880.154  38 
  -2  -2  11 43798.4 2104.60  43 
   2  -2 -11 41091.6 2007.92  21 
  -2  -2  11 47328.7 2665.77  38 
   2  -2 -11 44005.4 1672.77  81 
   2  -2 -11 44463.0 2173.79  29 
  -2  -2  11 39877.4 2614.25  14 
   2  -2 -11 42897.2 2219.99  48 
   2  -2 -10 54478.8 2348.25  21 
   2  -2 -10 54592.2 2005.92  81 
  -2  -2  10 57006.2 2425.29  43 
   2  -2 -10 56306.0 2304.00   1 
   2  -2 -10 54695.9 2105.93  82 
  -2  -2  10 51190.0 2963.79  14 
   2  -2 -10 54535.5 2568.19  48 
  -2  -2   9 31701.9 2133.94  27 
   2  -2  -9 38294.5 1973.76  48 
   2  -2  -9 39279.6 1777.18  21 
   2  -2  -9 37322.8 1721.09   1 
  -2  -2   9 29520.3 1823.28  57 
  -2  -2   9 37755.2 2342.53  14 
   2  -2  -9 35768.2 1493.28  81 
  -2  -2   8 13088.8 1047.55  57 
   2  -2  -8 17307.4 1033.71  21 
   2  -2  -8 14988.3 841.179  81 
  -2  -2   8 18830.8 1498.87  14 
  -2  -2   8 15309.8 1357.28  27 
   2  -2  -8 16021.4 1045.63   8 
   2  -2  -8 18012.1 1038.53   1 
  -2  -2   8 17060.1 986.093  51 
   2  -2  -8 16386.9 1039.08  11 
  -2  -2   7 124894. 3938.21  55 
  -2  -2   7 111649. 4784.31  27 
  -2  -2   7 129091. 4895.92  14 
   2  -2  -7 125786. 4184.16  21 
   2  -2  -7 120289. 4257.19  29 
   2  -2  -7 128377. 4177.52   1 
   2  -2  -7 127785. 4231.04  11 
   2  -2  -7 123768. 4291.43   8 
  -2  -2   7 119357. 4154.66  51 
  -2  -2   7 121794. 4424.86  47 
  -2  -2   6 75562.5 2511.13  55 
   2  -2  -6 77871.6 2670.11  58 
   2  -2  -5 46026.0 1740.10  58 
  -2  -2   5 46292.0 1587.20  55 
   2  -2  -4 19648.2 789.798  61 
   2  -2  -4 22193.5 979.778  58 
  -2  -2   4 21442.9 797.206  55 
   2  -2  -3 14872.7 578.892  61 
  -2  -2   3 15422.7 584.960  55 
   2  -2  -3 17050.8 797.917  58 
  -2  -2   3 16906.4 977.576  62 
  -2  -2   2 14892.3 898.786  62 
  -2  -2   2 14697.5 522.900  55 
   2  -2  -2 15325.0 751.220  58 
  -2  -2   1 20030.8 1068.79  62 
   2  -2  -1 20859.9 928.781  58 
  -2  -2   0 33073.5 1391.04  62 
   2  -2   0 32817.9 1228.83  58 
  -2  -2   0 28303.8 941.985  56 
  -2  -2   0 29655.3 933.979  66 
  -2  -2  -1 235165. 6637.73  62 
  -2  -2  -1 205169. 6076.98  64 
  -2  -2  -1 220008. 6138.31  66 
   2  -2   1 229868. 6408.28  58 
  -2  -2  -1 202257. 6112.96  58 
  -2  -2  -2 177640. 5218.99  66 
  -2  -2  -2 178521. 5609.77  62 
   2  -2   2 175955. 5241.55  57 
  -2  -2  -2 175889. 5145.08  64 
   2  -2   3 35459.1 1414.15  57 
  -2  -2  -3 39745.7 1388.38  66 
  -2  -2  -3 38002.9 1302.66  64 
  -2  -2  -4 1894.85 239.050  66 
  -2  -2  -4 1874.29 207.517  64 
   2  -2   4 1811.78 269.739  57 
   2  -2   5 31833.7 1473.11  57 
  -2  -2  -5 32725.5 1551.19  21 
  -2  -2  -5 31117.7 1446.41  11 
  -2  -2  -5 32207.0 1515.98  29 
   2  -2   5 28827.9 1777.66  38 
  -2  -2  -5 34717.0 1366.06  66 
   2  -2   6 13677.9 961.155  57 
  -2  -2  -6 13008.6 919.474  29 
   2  -2   6 13797.1 1215.19  38 
   2  -2   6 13777.0 1293.55  50 
  -2  -2  -6 14720.2 1082.11  37 
   2  -2   6 11894.1 1230.03  14 
  -2  -2  -6 14294.3 910.250  11 
  -2  -2  -6 16087.4 1034.89  21 
   2  -2   6 14343.9 929.496  75 
  -2  -2  -6 14974.8 841.016  66 
  -2  -2  -6 15785.2 1112.69  26 
  -2  -2  -7 339.775 234.732  26 
  -2  -2  -7 439.346 255.184  37 
  -2  -2  -7 592.403 234.726  21 
   2  -2   7 748.032 255.285  57 
   2  -2   7 722.954 242.996  73 
   2  -2   7 438.944 307.625  38 
  -2  -2  -7 476.838 183.077  66 
  -2  -2  -7 665.695 242.400  29 
  -2  -2  -7 731.358 238.164  11 
   2  -2   7 620.954 390.634  50 
   2  -2   7 702.392 397.667  14 
  -2  -2  -8 9742.41 896.132  26 
  -2  -2  -8 7922.00 745.636  29 
  -2  -2  -8 10240.9 879.622  21 
   2  -2   8 7693.77 1008.80  38 
   2  -2   8 8978.61 776.921  73 
   2  -2   8 7649.18 779.206  57 
  -2  -2  -8 8050.86 718.794  11 
  -2  -2  -8 8750.77 871.411  37 
   2  -2   8 8660.56 1110.89  50 
   2  -2   8 7659.16 1063.20  14 
   2  -2   9 75602.3 2984.64  73 
   2  -2   9 75625.0 3742.08  38 
  -2  -2  -9 77682.3 3078.22  29 
  -2  -2  -9 79087.6 3211.46  21 
  -2  -2  -9 77260.0 3017.53  11 
  -2  -2  -9 77245.9 3205.52  26 
  -2  -2 -10 7665.73 776.147  21 
  -2  -2 -10 6475.04 652.612  11 
  -2  -2 -10 7051.45 684.406  29 
  -2  -2 -10 6914.34 578.984  82 
   2  -2  10 5640.40 913.748  38 
  -2  -2 -11 5309.29 551.831  11 
  -2  -2 -11 5184.31 624.359  21 
  -2  -2 -11 4552.35 521.649  29 
  -2  -2 -11 4139.02 427.747  82 
   2  -2  11 4574.75 838.622  50 
   2  -2  12 5874.44 780.819  50 
  -2  -2 -12 5612.86 608.080  21 
  -2  -2 -13 10262.8 733.043  21 
   2  -2  13 11360.3 932.062  50 
   2  -1 -16 8378.60 572.200  11 
   2  -1 -16 7654.29 564.667  29 
  -2  -1  16 7348.22 715.633  38 
  -2  -1  16 7275.53 651.121  50 
   2  -1 -15 3336.99 423.280  11 
  -2  -1  15 3447.36 494.555  43 
   2  -1 -15 4432.00 492.958  29 
   2  -1 -15 3560.66 397.384  21 
  -2  -1  15 3862.30 632.877  38 
  -2  -1  15 3036.36 565.132  50 
   2  -1 -14 2670.70 367.660   1 
   2  -1 -14 2873.24 455.838  29 
  -2  -1  14 2485.17 603.153  38 
  -2  -1  14 3011.49 521.174  43 
   2  -1 -14 3272.55 446.925  11 
  -2  -1  13 17358.1 1293.13  43 
   2  -1 -13 17189.0 1063.61  82 
  -2  -1  13 17330.3 1562.16  38 
   2  -1 -13 16308.9 1004.83   1 
   2  -1 -13 16582.6 1142.62  29 
   2  -1 -12 23537.0 1254.61   1 
  -2  -1  12 25604.2 1606.35  43 
   2  -1 -12 24592.7 1419.15  29 
  -2  -1  12 26182.3 1927.67  38 
  -2  -1  12 20268.3 1656.64  14 
   2  -1 -12 24463.0 1312.40  82 
   2  -1 -12 22434.5 1256.06  18 
   2  -1 -11 3467.80 439.677  82 
   2  -1 -11 3556.21 435.784  18 
  -2  -1  11 2853.38 615.638  14 
   2  -1 -11 3927.89 518.052  29 
  -2  -1  11 3588.43 434.344  63 
  -2  -1  11 3196.79 506.142  42 
   2  -1 -11 3601.22 431.898   1 
   2  -1 -11 3076.66 376.874  68 
  -2  -1  11 2762.57 587.991  57 
   2  -1 -10 37575.0 1608.01   1 
   2  -1 -10 39017.3 1572.20  68 
  -2  -1  10 37690.9 2220.63  14 
   2  -1 -10 33880.2 1583.65  18 
  -2  -1  10 36693.7 1816.43  42 
   2  -1 -10 35645.6 1996.53  40 
   2  -1 -10 36690.8 1632.90  82 
  -2  -1  10 37111.1 1604.78  63 
   2  -1  -9 31652.5 1394.62  18 
  -2  -1   9 31920.3 1574.72  42 
   2  -1  -9 29795.5 1704.58  40 
  -2  -1   9 33683.5 1473.48  55 
  -2  -1   9 33612.3 1407.03  63 
   2  -1  -9 32434.2 1339.82  68 
   2  -1  -9 33312.9 1402.61   1 
  -2  -1   9 32576.1 1947.17  14 
   2  -1  -9 29880.3 1408.74   3 
   2  -1  -8 103495. 3365.76  68 
  -2  -1   8 104144. 3428.16  63 
  -2  -1   8 106269. 3490.67  55 
   2  -1  -7 70060.0 2341.68  68 
  -2  -1   7 70276.1 2406.83  63 
  -2  -1   7 70982.6 2425.70  55 
   2  -1  -6 59099.3 1958.82  68 
  -2  -1   6 60720.8 2027.41  55 
  -2  -1   6 56872.5 2019.05  63 
  -2  -1   5 85404.9 2637.52  55 
  -2  -1   5 80164.3 2661.90  63 
   2  -1  -5 83280.8 2593.75  68 
   2  -1  -4 25722.8 915.204  68 
  -2  -1   4 24529.5 926.801  55 
   2  -1  -3 2683.52 195.415  59 
  -2  -1   3 2799.63 208.816  56 
  -2  -1   2 2297.43 179.139  56 
   2  -1  -2 2159.98 175.859  61 
   2  -1  -2 2055.84 167.366  59 
  -2  -1   1 35993.3 1045.86  67 
  -2  -1   1 32316.0 980.902  52 
   2  -1  -1 35823.8 1112.02  59 
  -2  -1   1 34212.6 1111.72  56 
  -2  -1   0 106386. 3447.18  62 
   2  -1   0 103599. 3216.83  60 
   2  -1   0 109994. 3254.70  57 
  -2  -1   0 112911. 3182.57  67 
   2  -1   1 870550. 22595.2  60 
  -2  -1  -1 856828. 22658.7  54 
  -2  -1  -1 896258. 22451.8  69 
  -2  -1  -1 888489. 22822.4  62 
  -2  -1  -1 880809. 22551.5  67 
   2  -1   1 867338. 22634.3  58 
   2  -1   1 881518. 22678.2  57 
  -2  -1  -2 111787. 3261.92  54 
   2  -1   2 109222. 3342.85  57 
   2  -1   2 113926. 3217.44  60 
  -2  -1  -2 113976. 3373.81  62 
  -2  -1  -2 110629. 3064.11  69 
  -2  -1  -3 12808.0 669.754  62 
   2  -1   3 11425.5 701.315  57 
  -2  -1  -3 11552.7 474.920  69 
  -2  -1  -3 12137.6 613.745  54 
  -2  -1  -4 47853.9 1457.54  69 
  -2  -1  -4 48586.7 1654.63  54 
  -2  -1  -4 48792.7 1566.16  64 
   2  -1   4 46476.5 1854.03  57 
  -2  -1  -5 29879.0 1290.30  54 
  -2  -1  -5 31391.1 1229.98  64 
  -2  -1  -5 30958.1 1121.32  69 
   2  -1   5 28839.9 1494.90  57 
  -2  -1  -5 32262.9 1272.14  66 
  -2  -1  -6 28805.4 1224.05  66 
   2  -1   6 25473.3 1476.05  57 
  -2  -1  -6 27242.2 1066.97  69 
  -2  -1  -6 25727.0 1231.64  54 
  -2  -1  -6 27415.4 1167.79  64 
  -2  -1  -7 84589.2 2990.62  20 
   2  -1   7 71917.3 3487.29  14 
   2  -1   7 81713.2 3233.84  43 
  -2  -1  -7 87629.3 3018.74  18 
   2  -1   7 79129.2 3575.57  38 
  -2  -1  -7 87538.4 3148.11  26 
  -2  -1  -7 84368.4 2955.33  29 
  -2  -1  -7 83962.0 2732.82  69 
  -2  -1  -7 80489.4 2962.41  54 
   2  -1   7 77322.9 3347.37  57 
  -2  -1  -7 87234.7 3172.21  37 
  -2  -1  -8 51150.5 2204.16  37 
   2  -1   8 47824.6 2699.96  50 
   2  -1   8 46776.8 2272.87  43 
  -2  -1  -8 48906.5 2152.90  26 
   2  -1   8 42493.7 2535.89  38 
  -2  -1  -8 44938.4 1988.62  54 
  -2  -1  -8 50195.4 2082.97  18 
  -2  -1  -8 48063.4 1998.24  29 
   2  -1   8 49943.3 2464.99  57 
  -2  -1  -8 49733.3 1791.75  69 
   2  -1   8 42222.7 2485.82  14 
   2  -1   9 1621.70 430.188  43 
  -2  -1  -9 1753.39 394.345  37 
   2  -1   9 1827.96 462.778  57 
  -2  -1  -9 2441.36 371.798  29 
   2  -1   9 1687.89 551.956  50 
  -2  -1  -9 1867.77 336.365  54 
  -2  -1  -9 2155.30 403.973  26 
   2  -1   9 2461.40 605.863  38 
  -2  -1 -10 102186. 3832.61  37 
  -2  -1 -10 101139. 3771.31  26 
   2  -1  10 106372. 4584.76  50 
   2  -1  10 88499.9 4318.82  38 
   2  -1  10 108741. 4449.29  23 
  -2  -1 -10 98995.1 3560.71  29 
   2  -1  10 89548.0 3896.75  43 
  -2  -1 -10 96125.5 3507.30  11 
   2  -1  10 88408.6 3995.14  57 
   2  -1  11-66.8504 338.245  23 
   2  -1  11 71.5380 286.157  50 
  -2  -1 -11 42.2073 199.765  37 
  -2  -1 -11 60.4812 132.510  11 
   2  -1  11-73.8058 323.406  38 
  -2  -1 -11-62.2863 180.526  29 
  -2  -1 -11-38.1303 173.904  26 
   2  -1  12 10024.8 1086.14  50 
   2  -1  12 8481.42 989.301  23 
  -2  -1 -12 7629.48 649.457  11 
  -2  -1 -12 8636.49 797.082  37 
  -2  -1 -12 8106.89 664.842  82 
   2  -1  13 13915.7 1175.81  23 
  -2  -1 -13 15524.7 887.667  11 
  -2  -1 -13 16564.8 909.482  82 
  -2  -1 -13 16921.6 1034.36  37 
  -2  -1 -14 24095.2 1065.19  82 
  -2  -1 -14 24884.0 1196.25  21 
  -2   0  16 12870.2 645.528  44 
  -2   0  16 11379.7 859.410  43 
   2   0 -16 13460.0 760.410  11 
   2   0 -16 13729.8 784.693  29 
   2   0 -15 1086.79 260.567  29 
  -2   0  15 710.052 334.238  38 
  -2   0  15 852.535 291.470  43 
   2   0 -15 778.169 185.946   1 
  -2   0  14 5897.96 748.247  43 
   2   0 -14 5196.03 553.891  82 
   2   0 -14 4976.27 484.547   1 
  -2   0  14 5606.58 805.528  38 
   2   0 -14 5695.44 518.305  18 
  -2   0  13 19099.1 1391.66  43 
   2   0 -13 18395.4 1032.90  18 
   2   0 -13 19235.2 1150.76  82 
  -2   0  13 15762.7 1125.08  22 
  -2   0  13 17977.4 1527.07  38 
   2   0 -13 18829.5 1065.66  20 
   2   0 -13 18055.8 1003.24   1 
  -2   0  12 189332. 5820.50  63 
  -2   0  12 197944. 6930.19  38 
   2   0 -12 189788. 5856.02  20 
   2   0 -12 178573. 6324.45  40 
  -2   0  12 165801. 6029.71  22 
   2   0 -12 186627. 5817.76  18 
   2   0 -12 180649. 5882.60  68 
   2   0 -12 184810. 5761.07   1 
   2   0 -12 192388. 6025.26  82 
  -2   0  11 627.356 289.945  42 
  -2   0  11 340.877 197.853  22 
   2   0 -11 338.771 268.017  40 
  -2   0  11 306.904 146.646  12 
   2   0 -11 387.829 154.506  18 
   2   0 -11 568.800 175.726   1 
   2   0 -11 361.039 166.641  68 
  -2   0  11 263.557 276.610  57 
   2   0 -11 175.841 166.096  82 
  -2   0  11 304.424 132.299  63 
   2   0 -11 488.708 182.385  20 
   2   0 -10 4364.38 568.553  40 
   2   0 -10 5505.76 442.524  18 
   2   0 -10 5389.98 441.145  20 
   2   0 -10 5788.78 501.930  28 
  -2   0  10 6003.14 460.825  63 
  -2   0  10 5201.77 546.245  22 
  -2   0  10 5411.16 471.476  12 
  -2   0  10 4785.95 557.381  30 
  -2   0  10 4885.79 592.381  42 
  -2   0  10 5812.75 576.474  55 
   2   0 -10 5451.62 529.834  82 
  -2   0   9 31.3394 148.328  42 
  -2   0   9 50.3768 110.372  22 
   2   0  -9 89.4914 164.477  40 
  -2   0   9-48.6839 123.164  55 
   2   0  -9 35.4099 105.045  28 
  -2   0   9-13.0765 70.1776  53 
  -2   0   9-57.9602 175.805  30 
  -2   0   9 75.3523 85.2531  63 
   2   0  -9 75.2381 100.720   9 
  -2   0   8 154638. 4843.76  55 
   2   0  -8 148930. 4521.80  71 
  -2   0   8 155346. 4615.60  63 
   2   0  -8 151115. 4739.19  69 
  -2   0   7 22380.5 839.787  63 
  -2   0   7 21163.1 961.461  55 
   2   0  -6 41062.3 1363.50  71 
  -2   0   6 42904.9 1531.20  55 
   2   0  -5 68305.9 2139.99  71 
  -2   0   5 70619.3 2268.25  55 
  -2   0   5 72607.5 2161.29  63 
   2   0  -4 3942.92 216.844  71 
  -2   0   4 3635.57 218.921  63 
   2   0  -3 191373. 5485.97  68 
   2   0  -3 185781. 5434.38  71 
  -2   0   3 190396. 5443.32  63 
  -2   0   3 194516. 5531.62  56 
  -2   0   2 434659. 12223.8  63 
   2   0  -2 428843. 12262.5  68 
  -2   0   2 434507. 12307.1  56 
  -2   0   1 128541. 3669.68  63 
   2   0  -1 124196. 3734.06  59 
   2   0  -1 129223. 3733.06  61 
   2   0  -1 127667. 3751.99  57 
   2   0   0 207907. 5993.99  58 
   2   0   0 211277. 6083.30  59 
   2   0   0 220626. 6142.81  57 
  -2   0   0 206338. 6114.37  62 
  -2   0   0 216721. 6115.17  54 
  -2   0  -1 716903. 19652.1  67 
   2   0   1 683227. 19662.3  60 
  -2   0  -1 682609. 19677.5  62 
   2   0   1 699738. 19807.6  57 
  -2   0  -2 233156. 7025.77  67 
   2   0   2 231953. 7242.80  57 
  -2   0  -2 256178. 7042.82  62 
   2   0   2 247975. 7041.18  60 
  -2   0  -3 7530.40 396.697  69 
   2   0   3 7505.14 299.553  63 
  -2   0  -3 6929.80 392.348  67 
   2   0   3 7750.34 407.359  60 
   2   0   3 6321.66 534.508  57 
  -2   0  -4 5783.25 371.362  69 
  -2   0  -4 6243.58 395.874  64 
   2   0   4 6477.66 284.253  63 
   2   0   4 6499.12 577.725  57 
  -2   0  -5 22824.3 997.932  64 
   2   0   5 24375.3 820.362  63 
  -2   0  -5 24286.0 985.578  69 
   2   0   5 22317.2 1297.88  57 
  -2   0  -6 18508.6 878.664  69 
  -2   0  -6 20579.7 938.528  66 
   2   0   6 19122.7 715.759  63 
   2   0   6 18720.7 1224.54  57 
  -2   0  -6 19122.3 915.247  64 
   2   0   7 691.065 248.622  43 
  -2   0  -7 825.991 174.219  20 
  -2   0  -7 896.296 208.768  66 
   2   0   7 481.679 292.937  38 
   2   0   7 786.742 116.110  63 
  -2   0  -7 818.641 198.343  64 
   2   0   7 407.019 250.210  57 
  -2   0  -7 648.890 167.271  69 
   2   0   8 100650. 3973.46  43 
   2   0   8 100095. 4274.05  50 
  -2   0  -8 103852. 3449.60  20 
   2   0   8 97876.3 4190.45  38 
  -2   0  -8 105837. 3384.73   9 
  -2   0  -8 106806. 3486.87  69 
   2   0   8 94545.1 4075.29  57 
  -2   0  -8 107998. 3573.89  66 
   2   0   9 36608.1 1755.89  24 
  -2   0  -9 30330.1 1488.90  66 
  -2   0  -9 30874.1 1439.71  18 
   2   0   9 30591.1 2019.11  38 
  -2   0  -9 31448.2 1424.04  69 
   2   0   9 30156.3 1820.69  43 
   2   0   9 32320.2 2042.54  50 
   2   0   9 29895.7 1952.51  57 
  -2   0  -9 32905.6 1455.33  20 
  -2   0 -10 5418.04 540.350  20 
   2   0  10 4130.97 677.602  43 
   2   0  10 6463.48 888.996  50 
  -2   0 -10 5460.93 513.984  69 
  -2   0 -10 5099.43 540.859  66 
   2   0  10 4466.82 740.908  57 
   2   0  10 4444.50 448.997  44 
   2   0  10 4047.15 732.260  38 
   2   0  10 5450.48 634.917  24 
   2   0  11 31007.1 1945.18  43 
  -2   0 -11 34151.9 1628.42  20 
   2   0  11 33209.4 1481.68  44 
   2   0  12 71759.6 2612.93  44 
  -2   0 -12 77049.0 2985.94  26 
  -2   0 -12 78307.1 2911.51  20 
  -2   0 -12 72850.0 3024.35  37 
  -2   0 -12 76853.2 2872.92  82 
   2   0  12 83213.3 3372.57  50 
  -2   0 -13 31385.3 1429.83  11 
   2   0  13 37271.2 2151.56  23 
   2   0  13 36546.3 1949.79  15 
  -2   0 -13 35991.5 1682.85  37 
  -2   0 -13 32931.6 1550.48  26 
  -2   0 -13 34746.6 1531.10  82 
  -2   0 -13 32937.9 1575.81  18 
   2   0  14 173.482 251.685  23 
  -2   0 -14 323.289 180.454  37 
  -2   0 -14 627.503 183.993  18 
  -2   0 -14 452.935 154.193  82 
  -2   1  16 7696.97 487.334  44 
   2   1 -16 7499.38 519.481  29 
   2   1 -15 3038.44 338.913  20 
  -2   1  15 3173.32 481.527  43 
   2   1 -15 3397.91 326.115   1 
  -2   1  14 3999.41 581.225  43 
   2   1 -14 2619.87 331.578  18 
   2   1 -14 3132.88 347.187   1 
   2   1 -14 3609.15 384.919  20 
  -2   1  14 2283.83 417.495  22 
  -2   1  13 15042.0 986.427  12 
   2   1 -13 16589.1 1028.36  82 
  -2   1  13 15548.5 899.653  25 
   2   1 -13 17089.2 920.185  18 
   2   1 -13 17679.9 941.067  20 
  -2   1  13 15439.4 1128.04  22 
  -2   1  13 17947.4 1304.44  43 
  -2   1  12 21604.2 1244.20  12 
   2   1 -12 24452.3 1301.68  82 
  -2   1  12 22579.4 1409.62  22 
  -2   1  12 23856.2 1564.03  43 
   2   1 -12 24236.3 1130.10  20 
  -2   1  12 24091.0 1204.39  25 
   2   1 -12 24426.1 1214.48  28 
  -2   1  11 3789.00 460.279  12 
   2   1 -11 3717.02 392.192  28 
  -2   1  11 2775.18 483.779  42 
   2   1 -11 3199.03 465.289  40 
  -2   1  11 3557.26 371.088   2 
  -2   1  11 3020.79 505.496  30 
   2   1 -11 3720.51 459.090  82 
  -2   1  11 2353.21 556.557  57 
  -2   1  11 3397.79 354.225  63 
  -2   1  11 3402.59 501.360  22 
  -2   1  11 3459.76 404.143  25 
   2   1 -10 35778.3 1459.16  28 
  -2   1  10 35305.1 1819.92  42 
   2   1 -10 32872.8 1639.53  40 
  -2   1  10 39439.3 1695.49  12 
  -2   1  10 35609.8 1816.94  30 
  -2   1  10 39084.4 1469.73  63 
   2   1 -10 37096.3 1634.75  69 
  -2   1  10 37570.6 1546.89  53 
   2   1 -10 35904.3 1626.95  82 
   2   1 -10 37139.8 1544.85  71 
   2   1 -10 39882.7 1464.59  16 
   2   1  -9 28858.1 1383.20  40 
  -2   1   9 33632.6 1378.14  53 
   2   1  -9 32075.9 1219.36  16 
  -2   1   9 32341.9 1596.50  42 
   2   1  -9 29337.8 1218.86  28 
  -2   1   9 35816.8 1512.10  55 
   2   1  -9 32805.2 1372.05  71 
  -2   1   9 32465.2 1591.02  30 
   2   1  -9 33651.7 1429.95  69 
   2   1  -8 107136. 3473.88  71 
   2   1  -8 104458. 3480.61  69 
  -2   1   8 108286. 3548.83  55 
  -2   1   8 105008. 3453.94  53 
  -2   1   7 73002.6 2293.45  63 
   2   1  -7 69096.0 2419.82  69 
   2   1  -7 70808.4 2441.69  71 
  -2   1   7 74043.5 2482.23  55 
  -2   1   6 62864.6 2104.84  55 
   2   1  -6 61223.9 2107.17  71 
  -2   1   6 61350.3 1957.56  63 
   2   1  -6 61060.3 2070.22  69 
  -2   1   5 85135.6 2658.83  55 
  -2   1   5 84579.3 2547.94  63 
   2   1  -5 80078.9 2681.81  71 
   2   1  -5 84400.6 2632.39  69 
  -2   1   4 23843.5 861.970  63 
  -2   1   4 27337.1 964.643  52 
  -2   1   4 25051.0 934.366  55 
   2   1  -4 25999.1 988.019  71 
   2   1  -4 25522.5 922.660  69 
  -2   1   3 2781.70 176.881  63 
  -2   1   3 3293.46 226.778  56 
  -2   1   3 2955.82 184.677  70 
   2   1  -3 2728.55 194.939  69 
  -2   1   3 2760.74 221.580  52 
   2   1  -2 2000.72 173.571  61 
  -2   1   2 2362.41 139.018  65 
   2   1  -2 2221.94 150.850  68 
   2   1  -2 2156.81 198.757  71 
  -2   1   2 2276.79 141.107  63 
  -2   1   2 2632.78 189.390  56 
  -2   1   2 2480.82 168.427  70 
   2   1  -1 37107.9 1178.33  71 
  -2   1   1 32453.5 1093.45  54 
  -2   1   1 36264.6 1052.01  63 
  -2   1   1 35049.4 1085.20  65 
   2   1  -1 33297.2 1141.65  59 
  -2   1   1 33882.7 1139.94  56 
   2   1   0 107589. 3026.82  59 
   2   1   0 110207. 3077.33  65 
   2   1   0 108475. 3073.86  57 
   2   1   1 852863. 24197.2  65 
   2   1   1 863335. 24291.5  57 
  -2   1  -1 859717. 24172.1  67 
   2   1   1 854060. 24157.2  70 
  -2   1  -2 103664. 3166.09  67 
   2   1   2 108478. 3156.85  65 
   2   1   2 108739. 3364.71  57 
   2   1   2 104282. 3141.47  60 
  -2   1  -3 11525.8 584.374  69 
  -2   1  -3 11343.1 525.144  67 
   2   1   3 11484.0 702.126  57 
   2   1   3 12580.7 569.383  53 
   2   1   4 47358.8 1950.21  57 
   2   1   4 49204.2 1658.12  53 
  -2   1  -4 49716.4 1664.47  64 
  -2   1  -4 45390.2 1695.81  69 
   2   1   5 28452.2 1496.92  57 
  -2   1  -5 29611.6 1210.95  64 
   2   1   5 32008.9 1198.96  53 
   2   1   5 32575.6 1149.76  63 
  -2   1  -5 31080.8 1262.28  69 
  -2   1  -6 27120.2 1209.18  69 
  -2   1  -6 28785.2 1167.30  66 
  -2   1  -6 26839.1 1171.62  64 
   2   1   6 26776.0 1525.55  57 
   2   1   6 28794.6 1065.75  63 
   2   1   7 82589.6 3271.57  43 
   2   1   7 80609.3 3130.97  22 
   2   1   7 87494.5 2700.43  63 
   2   1   7 87116.9 2900.31  31 
   2   1   7 84557.3 2787.57   7 
  -2   1  -7 84787.5 2875.15  66 
   2   1   7 80144.4 3410.74  57 
   2   1   7 84722.4 2902.97   2 
   2   1   7 80557.0 2925.54  25 
   2   1   8 45724.2 2246.11  43 
  -2   1  -8 49384.3 1866.59  66 
   2   1   8 44349.2 1831.91   2 
   2   1   8 46035.9 1631.75  63 
  -2   1  -8 47628.3 1643.73   9 
   2   1   8 48868.2 1867.00  31 
   2   1   8 45414.3 1715.27   7 
   2   1   8 47604.8 2418.79  57 
   2   1   8 44325.3 1894.57  25 
   2   1   9 1834.06 326.262  25 
   2   1   9 2292.99 356.836  44 
   2   1   9 2022.42 471.410  43 
  -2   1  -9 2589.01 285.739   9 
   2   1   9 1732.47 288.107   2 
  -2   1  -9 1974.17 325.307  69 
   2   1   9 1793.19 221.823  63 
   2   1   9 2416.81 530.409  57 
   2   1   9 2307.30 326.195  31 
   2   1   9 1992.50 258.568   7 
  -2   1  -9 2289.09 326.743  66 
   2   1  10 91710.2 3876.19  43 
   2   1  10 90722.5 4001.27  57 
  -2   1 -10 93832.1 3395.76  69 
  -2   1 -10 101809. 3211.29   9 
   2   1  10 101112. 3449.88  44 
   2   1  10 86626.2 3231.47  31 
  -2   1 -10 96221.3 3260.52  20 
  -2   1 -11 96.1412 139.325  20 
  -2   1 -11 20.9114 132.259   9 
   2   1  11-27.6801 160.453  44 
   2   1  12 8894.97 659.928  44 
   2   1  12 8711.96 809.429  24 
  -2   1 -12 8506.76 658.729  20 
  -2   1 -12 8431.72 666.150  82 
   2   1  13 17057.8 872.913  44 
  -2   1 -13 16409.4 929.436  20 
  -2   1 -13 17590.1 928.933  82 
   2   1  13 16169.6 1029.06  24 
  -2   1 -14 22648.0 1123.65  37 
  -2   1 -14 23166.9 1016.61  82 
  -2   1 -14 24273.0 1090.59  18 
  -2   2  15 521.415 156.804  44 
   2   2 -15 458.933 119.906   1 
   2   2 -15 350.803 114.493  20 
  -2   2  14 3247.98 384.144  44 
  -2   2  14 2796.70 427.799  22 
   2   2 -14 2581.35 286.135  18 
   2   2 -14 2864.08 322.083   9 
  -2   2  14 3028.80 315.308  31 
   2   2 -14 2869.38 308.188  20 
  -2   2  14 2384.17 300.148  25 
  -2   2  13 63846.0 2314.27  31 
  -2   2  13 60248.3 2210.45   2 
  -2   2  13 58707.4 2584.10  22 
   2   2 -13 60154.0 2155.31  20 
  -2   2  13 59346.8 2321.68  25 
   2   2 -13 62604.9 2268.27  28 
  -2   2  13 59047.3 2433.45  12 
  -2   2  12 5659.26 612.394  12 
  -2   2  12 5212.66 637.204  43 
  -2   2  12 6414.82 593.985  25 
   2   2 -12 5585.95 493.774  28 
  -2   2  12 6246.26 695.686  22 
  -2   2  12 6542.52 547.328   2 
  -2   2  12 6802.34 499.130   7 
   2   2 -11 39371.4 1633.79  28 
  -2   2  11 46085.3 2011.91  12 
   2   2 -11 42022.3 1608.90  16 
  -2   2  11 42636.6 2089.36  22 
  -2   2  11 45530.6 1938.71  25 
  -2   2  10 54367.1 1973.58  63 
   2   2 -10 53822.1 2211.79  71 
  -2   2  10 55271.7 2399.56  22 
   2   2 -10 52688.9 1890.78  16 
  -2   2  10 54307.9 2189.13  53 
  -2   2  10 52185.4 2377.25  30 
   2   2  -9 38999.6 1747.26  71 
   2   2  -9 34601.0 1545.46  40 
  -2   2   9 37248.0 1691.02  53 
   2   2  -9 41645.8 1687.46  69 
  -2   2   9 42641.2 1926.27  22 
   2   2  -9 37350.5 1429.10  16 
  -2   2   9 39969.5 1875.99  30 
  -2   2   9 41575.1 1522.02  63 
   2   2  -8 16088.3 823.471  40 
   2   2  -8 17230.7 999.701  71 
  -2   2   8 16376.5 793.757  63 
  -2   2   8 17140.9 978.754  53 
  -2   2   8 16640.9 1051.42  30 
   2   2  -8 16989.4 738.335   4 
   2   2  -8 18371.1 929.606  69 
   2   2  -7 133286. 4303.84  71 
   2   2  -7 132736. 4119.56  69 
  -2   2   7 132355. 4348.45  30 
  -2   2   7 127238. 3987.81  63 
  -2   2   7 138006. 4117.32  55 
   2   2  -7 124672. 4010.56  40 
   2   2  -7 124292. 3923.69   4 
   2   2  -6 77406.7 2593.23  69 
  -2   2   6 77829.6 2525.08  63 
  -2   2   6 80745.7 2583.13  55 
  -2   2   5 43708.0 1566.89  63 
  -2   2   5 47620.8 1757.36  53 
   2   2  -5 48036.5 1616.27  69 
   2   2  -4 22589.8 1028.80  71 
  -2   2   4 21054.5 856.267  63 
   2   2  -4 22082.4 852.881  69 
  -2   2   4 22724.7 917.875  52 
  -2   2   4 22061.1 829.144  65 
  -2   2   4 22608.0 885.011  70 
  -2   2   3 15976.1 665.753  65 
   2   2  -3 16439.1 807.494  71 
  -2   2   3 17034.4 678.425  63 
  -2   2   3 16231.7 714.240  52 
  -2   2   3 16602.4 725.512  70 
  -2   2   2 16327.2 689.484  52 
  -2   2   2 15487.3 723.595  70 
  -2   2   2 16500.1 656.990  71 
  -2   2   2 15735.1 666.610  65 
   2   2  -2 15487.6 752.340  71 
   2   2  -1 20832.5 873.670  71 
   2   2  -1 19200.6 711.132  59 
  -2   2   1 20476.1 809.661  65 
   2   2   0 35272.3 1226.16  71 
  -2   2   0 31893.0 1155.60  53 
  -2   2  -1 209866. 6020.39  67 
  -2   2  -1 197870. 6031.94  53 
  -2   2  -2 175637. 5413.37  69 
   2   2   2 183441. 5383.78  70 
   2   2   2 181579. 5467.32  53 
  -2   2  -3 36613.6 1289.49  64 
   2   2   3 37333.2 1421.41  57 
   2   2   4 1643.42 248.163  57 
  -2   2  -4 1563.73 184.578  64 
  -2   2  -4 1597.62 234.383  69 
   2   2   5 33680.0 1441.50  44 
   2   2   5 30560.0 1438.75  12 
  -2   2  -5 31951.5 1380.97  69 
   2   2   5 32286.6 1503.44  57 
   2   2   5 34173.0 1445.24  31 
   2   2   5 34581.2 1463.85  25 
   2   2   5 34233.5 1412.03  53 
   2   2   5 36555.6 1478.76   2 
   2   2   6 13392.2 842.201  44 
   2   2   6 13640.5 911.782  22 
  -2   2  -6 14664.0 836.812  69 
   2   2   6 12937.5 866.792  12 
   2   2   6 14053.3 754.044  63 
   2   2   6 16017.5 831.559   7 
   2   2   6 14067.5 868.861  25 
   2   2   7 674.105 226.872  44 
   2   2   7 457.124 215.290  12 
   2   2   7 406.470 210.578  22 
  -2   2  -7 537.520 180.995  69 
   2   2   7 990.244 256.238  25 
   2   2   7 617.109 149.604  63 
   2   2   7 654.384 189.559   7 
   2   2   8 9014.72 724.134  44 
   2   2   8 7764.05 727.294  12 
  -2   2  -8 8504.72 676.042  69 
   2   2   8 9418.90 710.633  31 
   2   2   8 8854.95 570.252  63 
  -2   2  -8 8304.56 739.754  71 
   2   2   8 9305.25 637.431   7 
   2   2   8 9987.86 723.219   2 
   2   2   9 73031.8 2659.81   7 
   2   2   9 77580.3 2847.80   2 
  -2   2  -9 76167.8 2966.42  71 
   2   2   9 75421.3 2559.57  63 
   2   2   9 77045.0 2843.49  31 
  -2   2  -9 73860.9 2471.99   9 
   2   2  10 6042.56 490.876   7 
   2   2  10 6118.24 566.862  31 
   2   2  10 5007.11 524.814   2 
  -2   2 -10 7125.14 470.454   9 
   2   2  11 5920.56 561.827  44 
  -2   2 -11 5154.57 448.619  20 
  -2   2 -11 4855.31 398.452   9 
  -2   2 -11 5065.55 458.751  82 
   2   2  12 5087.15 610.457  24 
   2   2  12 4740.81 457.913  44 
  -2   2 -12 4249.35 411.793  18 
  -2   2 -12 4705.49 376.881   9 
  -2   2 -12 4648.84 413.419  20 
   2   2  13 11327.7 797.636  24 
  -2   2 -13 9794.52 592.357  20 
   2   2  13 9825.15 599.906  44 
  -2   3  14 21945.5 904.823  44 
   2   3 -14 20113.9 820.288  20 
   2   3 -14 21860.7 868.334   9 
  -2   3  14 20432.1 874.779  31 
  -2   3  13 18931.3 828.675   7 
  -2   3  13 21239.3 981.545  44 
  -2   3  13 19347.1 927.742   2 
  -2   3  13 18722.8 1026.74  12 
  -2   3  13 18569.5 971.278  25 
   2   3 -13 20348.2 902.305  28 
   2   3 -13 19384.1 836.960  20 
  -2   3  13 21514.3 986.688  31 
  -2   3  12 18681.3 1006.83  31 
  -2   3  12 15734.8 1053.22  22 
  -2   3  12 19179.9 916.205   7 
  -2   3  12 17639.5 1059.03  12 
   2   3 -12 17443.2 814.477  16 
  -2   3  12 17055.0 955.446  44 
   2   3 -12 18033.7 865.208  28 
  -2   3  12 19541.8 1002.43   2 
  -2   3  11 29507.4 1390.19  44 
  -2   3  11 31944.5 1542.58  12 
  -2   3  11 27138.4 1505.95  22 
  -2   3  11 34195.8 1477.76   2 
   2   3 -11 25357.0 1159.31  28 
   2   3 -11 28945.3 1157.77  16 
  -2   3  10 30964.7 1589.21  12 
  -2   3  10 30693.3 1456.62  44 
   2   3 -10 29371.5 1213.99  16 
  -2   3  10 30522.8 1620.60  22 
  -2   3  10 35618.8 1620.76  25 
   2   3  -9 8073.62 482.165   4 
  -2   3   9 9102.19 685.544  44 
  -2   3   9 9300.32 795.147  22 
   2   3  -9 7269.60 498.783  16 
  -2   3   9 9659.86 794.891  12 
   2   3  -8 22388.9 954.350   4 
  -2   3   8 22784.7 1162.82  44 
  -2   3   8 21207.2 1011.25  63 
  -2   3   8 24313.0 1333.21  22 
   2   3  -7 1157.60 182.274   8 
  -2   3   7 930.723 180.491  63 
   2   3  -7 1025.02 273.189  71 
  -2   3   7 1284.21 281.509  53 
   2   3  -7 757.976 166.403  40 
   2   3  -6 68494.0 2279.98  40 
  -2   3   6 60024.5 2199.91  63 
   2   3  -6 66855.7 2571.39  71 
  -2   3   6 63068.6 2485.25  53 
   2   3  -5 5043.76 514.143  71 
  -2   3   5 4076.98 349.712  63 
  -2   3   5 4185.13 453.091  53 
  -2   3   4 70434.4 2343.81  65 
  -2   3   4 68236.3 2355.76  63 
   2   3  -4 76120.5 2681.99  71 
  -2   3   4 74800.8 2618.05  53 
  -2   3   4 69625.7 2438.03  70 
  -2   3   3 11545.0 629.905  65 
  -2   3   3 13590.1 771.345  53 
  -2   3   3 12498.4 709.315  70 
   2   3  -3 13889.3 820.479  71 
  -2   3   3 11645.7 615.527  63 
   2   3  -2 53788.3 1964.67  71 
  -2   3   2 50015.5 1871.94  53 
  -2   3   2 51893.5 1918.14  70 
  -2   3   2 46906.5 1781.58  65 
   2   3  -1 5472.93 498.444  65 
   2   3  -1 5728.58 458.337  71 
  -2   3   1 5040.66 406.251  65 
  -2   3   1 4955.36 396.219  53 
   2   3   0 19155.7 993.563  65 
  -2   3   0 18120.3 937.159  71 
  -2   3   0 17296.7 897.032  65 
   2   3   0 20441.9 997.984  70 
   2   3   1 4931.94 399.393  44 
   2   3   1 5186.82 456.462  65 
  -2   3  -1 5087.84 476.655  71 
   2   3   1 5152.42 446.373  70 
   2   3   2 10810.9 678.004  65 
   2   3   2 10208.9 648.486  31 
   2   3   2 11086.8 658.425  70 
  -2   3  -2 10978.5 755.556  71 
   2   3   2 10792.5 659.251  44 
   2   3   2 12486.7 716.815   2 
   2   3   3 47631.1 1791.39   2 
   2   3   3 42643.9 1655.96  65 
   2   3   3 42171.2 1721.87  31 
  -2   3  -3 43814.9 1873.76  71 
   2   3   3 40972.3 1687.18  44 
   2   3   3 40022.4 1689.84  25 
   2   3   4 72.1087 136.173  25 
   2   3   4 216.084 132.587  31 
   2   3   4 561.562 190.527   2 
   2   3   4 278.209 143.859  44 
  -2   3  -4 407.314 181.770  71 
   2   3   5 22009.8 1241.57  12 
   2   3   5 25655.1 1295.94  25 
  -2   3  -5 25616.2 1407.77  71 
   2   3   5 25272.9 1266.48  44 
   2   3   5 26225.6 1290.40  31 
  -2   3  -5 24565.5 1175.75  69 
   2   3   5 26642.3 1306.38   2 
   2   3   5 27112.3 1274.47   7 
   2   3   6 5225.39 530.643  44 
   2   3   6 4565.40 515.102  12 
   2   3   6 5546.21 551.555   2 
   2   3   6 5338.08 478.472  63 
  -2   3  -6 4920.93 581.773  71 
   2   3   6 5021.99 539.197  25 
   2   3   6 5447.52 546.467  31 
  -2   3  -6 4978.37 474.793  69 
   2   3   6 5666.58 526.855   7 
   2   3   7 25278.9 1277.00   2 
   2   3   7 22775.8 1225.93  44 
   2   3   7 23862.4 1252.39  31 
   2   3   7 21861.0 1229.17  25 
   2   3   8 848.433 249.540  44 
   2   3   8 1100.29 258.159   7 
   2   3   8 943.065 264.813   2 
   2   3   8 1022.42 270.198  31 
   2   3   8 621.429 258.970  25 
   2   3   9 14222.8 909.586  44 
   2   3   9 13020.4 801.404   7 
   2   3   9 13443.6 892.902  31 
   2   3   9 12263.3 875.956  25 
   2   3  10 7749.25 561.216   7 
  -2   3 -10 8484.72 487.618   9 
   2   3  10 9531.81 698.660  44 
  -2   3 -11 18976.5 817.508   9 
  -2   3 -11 19787.1 877.263  20 
   2   3  12 1071.27 188.981  44 
  -2   3 -12 1176.75 174.717  18 
  -2   3 -12 999.743 160.933  20 
  -2   4  12 11606.7 533.237   7 
  -2   4  12 11428.1 582.273  31 
  -2   4  12 10199.5 562.829   2 
  -2   4  12 10058.0 576.246  25 
   2   4 -12 11048.5 512.539  28 
  -2   4  11 17745.0 938.711  12 
   2   4 -11 19134.6 771.629  16 
  -2   4  11 21046.4 962.966  31 
  -2   4  11 22337.0 921.942   7 
   2   4 -11 18432.9 796.584  28 
  -2   4  11 20216.8 962.375  25 
  -2   4  10 9252.00 668.466  12 
  -2   4  10 9906.37 658.017  31 
   2   4 -10 8415.35 477.712  16 
  -2   4  10 10076.3 673.456  25 
  -2   4   9 12524.5 830.214  12 
  -2   4   9 14865.7 886.918   2 
   2   4  -9 11720.4 622.289  16 
  -2   4   9 14053.4 845.492  31 
  -2   4   9 13774.8 856.533  25 
   2   4  -8 2583.16 258.008   4 
  -2   4   8 3361.97 414.299  12 
  -2   4   8 3172.79 410.385  25 
   2   4  -7 16561.4 786.146   8 
   2   4  -7 17535.3 829.266   4 
   2   4  -6 32256.3 1324.33   8 
  -2   4   6 34767.6 1554.88  12 
   2   4  -5 4505.51 401.848  40 
   2   4  -4 2518.38 283.764  32 
   2   4  -3 1544.20 283.057  71 
  -2   4   3 1908.20 277.663  70 
   2   4  -3 1359.44 301.176  65 
   2   4  -3 1401.28 223.543   5 
   2   4  -2 3815.22 475.984  65 
   2   4  -2 3515.25 451.189  70 
  -2   4   2 4115.67 433.657  70 
  -2   4   1 17836.9 1007.01  70 
   2   4  -1 16540.3 1013.94  70 
   2   4  -1 17810.4 1051.34  65 
  -2   4   0 48211.2 2017.04  70 
   2   4   0 44572.6 1964.69  65 
   2   4   0 44876.8 1955.69  70 
   2   4   1 2767.09 358.990  70 
  -2   4  -1 2910.90 398.754  70 
   2   4   1 3453.18 400.555  65 
   2   4   2 28353.2 1287.55   7 
   2   4   3 3556.06 409.091   2 
   2   4   3 3720.93 414.502   7 
   2   4   4 14897.9 896.329   2 
   2   4   4 13310.1 799.841  44 
   2   4   4 15547.2 892.569   7 
   2   4   4 13991.0 848.259  31 
   2   4   5 4619.48 442.200  44 
   2   4   5 4140.41 459.125   2 
   2   4   5 4196.85 443.452  31 
   2   4   5 4425.50 455.253   7 
   2   4   5 3780.07 420.701  25 
   2   4   6 10769.4 713.162   7 
   2   4   6 9841.29 665.717  44 
   2   4   6 9303.49 706.088   2 
   2   4   6 9493.84 691.361  31 
   2   4   7 3073.65 354.615  44 
   2   4   7 2887.49 384.852   2 
   2   4   7 3228.79 379.357  31 
   2   4   7 3379.42 377.075   7 
   2   4   8 4978.55 441.678   7 
   2   4   8 5501.31 451.100  44 
   2   4   8 5161.72 479.109   2 
   2   4   8 6371.25 491.488  34 
   2   4   8 6290.69 421.798   5 
   2   4   9 6543.01 442.765  34 
  -2   4  -9 5132.11 307.850   9 
   2   4   9 5850.73 426.571  44 
   2   4  10 2889.74 362.582  24 
   2   4  10 2294.62 225.874  44 
  -2   5   8 17618.9 734.320   7 
  -2   5   8 16389.2 728.101   2 
   2   5  -8 15685.1 629.877  16 
  -2   5   7 3342.72 297.429   2 
   2   5  -7 2804.29 209.498   4 
   2   5  -7 2943.69 234.187  16 
  -2   5   7 3463.76 301.239   7 
   2   5  -6 13241.9 614.842   4 
  -2   5   6 15634.3 737.683   7 
  -2   5   6 14944.4 723.142   2 
   2   5  -5 8302.22 460.064   8 
   2   5  -5 8571.01 490.992   4 
   2   5  -4 21488.0 923.855   8 
   2   5  -3 1478.54 186.222  32 
   2   5  -3 1616.51 215.162  40 
   2   5  -2 5265.57 391.052  32 
   2   5  -1 38497.8 1452.93   5 
   2   5   0 16025.8 807.870   5 
   2   5   1 4098.08 382.537   5 
   2   5   2 3477.91 325.116  34 
   2   5   2 4146.64 378.904   5 
   2   5   3 26939.4 1156.87  34 
   2   5   3 29894.4 1224.09   5 
   2   5   4 13833.6 707.483   5 
   2   5   4 11977.1 668.703  34 
   2   5   5 5175.49 385.439  34 
   2   5   6 1296.18 181.982  34 
   2   5   6 1411.28 177.370   5 
  -3  -5   9 1782.98 181.948  80 
   3  -5  -8 15447.8 786.758  49 
   3  -5  -8 16184.0 660.281  72 
  -3  -5   8 16017.2 729.872  80 
  -3  -5   7 10938.5 658.741  51 
  -3  -5   7 10991.9 606.529  80 
   3  -5  -7 10726.6 667.070  49 
  -3  -5   6 6856.88 550.504  51 
  -3  -5   6 6987.38 481.116  80 
   3  -5  -6 7693.85 562.747  49 
   3  -5  -5 3533.94 386.108  49 
  -3  -5   5 3629.44 337.184  80 
   3  -5  -4 11926.7 590.766  79 
  -3  -5   4 11002.2 861.337  47 
   3  -5  -3 11049.1 580.923  79 
  -3  -5   3 9341.40 820.684  47 
   3  -5  -2 3613.03 351.495  72 
   3  -5  -2 3430.98 316.843  79 
  -3  -5   2 2589.66 446.245  47 
   3  -5  -1 4428.49 377.514  72 
  -3  -5   1 3977.21 540.532  47 
   3  -5   0 13361.4 672.693  72 
  -3  -5   0 13042.4 979.838  46 
  -3  -5   0 11446.2 944.417  47 
   3  -5   1 24935.6 1004.34  72 
   3  -5   1 27439.7 1116.54  79 
   3  -5   1 24489.1 1170.64  78 
  -3  -5  -1 26219.0 1470.30  46 
  -3  -5  -1 22678.5 1384.06  47 
  -3  -5  -2 939.645 307.874  46 
   3  -5   2 992.999 226.752  78 
  -3  -5  -2 774.705 267.470  47 
   3  -5   2 944.852 187.864  79 
   3  -5   2 1061.29 157.488  72 
  -3  -5  -3 48662.6 2185.84  46 
   3  -5   3 50452.4 1777.27  79 
  -3  -5  -4 596.181 154.365  81 
   3  -5   4 921.022 157.684  79 
  -3  -5  -4 406.701 221.170  46 
  -3  -5  -5 5058.33 512.569  46 
   3  -5   5 4640.61 304.980  79 
   3  -5   5 5360.45 411.626  78 
  -3  -5  -5 4680.60 352.082  81 
   3  -5   6 5125.61 354.887  78 
  -3  -4  12 11600.1 627.472  80 
   3  -4 -12 10473.8 693.092  49 
  -3  -4  12 10384.2 851.351  14 
  -3  -4  11 35346.4 2008.97  14 
   3  -4 -11 41035.0 1802.91  49 
   3  -4 -11 41126.2 1824.07  48 
   3  -4 -10 13102.4 962.921  49 
   3  -4 -10 12662.2 983.335  48 
   3  -4  -9 17553.0 896.297  81 
  -3  -4   9 15681.5 1385.77  14 
  -3  -4   9 16757.4 995.159  51 
   3  -4  -9 17998.6 1223.09  49 
   3  -4  -9 15512.4 1205.41  48 
  -3  -4   8 1101.22 485.923  27 
  -3  -4   8 1138.46 290.639  51 
  -3  -4   8 1242.04 454.181  14 
   3  -4  -8 1387.26 377.477  49 
  -3  -4   7 1537.72 549.521  27 
   3  -4  -7 1416.10 257.914  81 
  -3  -4   7 1714.60 440.530  47 
  -3  -4   7 996.493 413.734  14 
  -3  -4   7 1501.20 364.039  51 
   3  -4  -7 1618.26 412.359  49 
   3  -4  -7 1705.86 459.566  48 
   3  -4  -6 3658.04 405.373  81 
   3  -4  -6 3673.64 562.362  49 
  -3  -4   6 5569.64 809.482  14 
  -3  -4   6 4054.65 413.654  78 
  -3  -4   6 4130.03 802.599  27 
  -3  -4   6 4617.53 613.161  51 
   3  -4  -6 4033.05 358.317  79 
   3  -4  -6 3641.73 615.496  48 
  -3  -4   6 3857.71 620.589  47 
   3  -4  -5 619.184 168.811  79 
  -3  -4   5 434.150 156.507  78 
  -3  -4   5 709.816 250.498  80 
   3  -4  -5 594.565 186.809  81 
  -3  -4   5 837.747 363.376  14 
  -3  -4   5 673.530 444.311  27 
   3  -4  -5 573.185 254.237  49 
   3  -4  -5 543.277 318.973  48 
  -3  -4   5 714.794 399.876  47 
   3  -4  -4 9166.09 611.431  81 
  -3  -4   4 7216.70 1020.91  27 
   3  -4  -4 8194.19 581.786  79 
   3  -4  -4 9010.28 805.645  49 
  -3  -4   4 8980.05 710.230  80 
  -3  -4   4 8199.46 619.805  78 
   3  -4  -4 8332.49 853.587  48 
  -3  -4   4 7354.77 927.848  47 
  -3  -4   3 7492.73 824.822  46 
  -3  -4   3 7102.58 607.098  80 
   3  -4  -3 7304.60 563.583  79 
  -3  -4   3 7313.81 965.913  27 
   3  -4  -3 7145.52 522.831  81 
   3  -4  -3 6518.08 674.026  49 
   3  -4  -3 7389.18 775.431  48 
  -3  -4   3 7314.17 913.967  47 
  -3  -4   2 21388.9 1508.51  46 
  -3  -4   2 18170.4 1022.99  80 
  -3  -4   2 19457.0 1595.05  27 
   3  -4  -2 19158.5 1090.28  78 
   3  -4  -2 21009.8 1207.41  49 
  -3  -4   1 14434.5 1237.50  46 
   3  -4  -1 11760.4 850.378  78 
  -3  -4   1 12248.2 1208.83  27 
   3  -4  -1 12516.5 859.507  73 
   3  -4  -1 11482.2 823.682  49 
  -3  -4   1 12226.0 1185.98  26 
  -3  -4   0 18822.5 1459.02  46 
   3  -4   0 17208.5 1099.93  78 
  -3  -4   0 17635.7 1220.24  10 
   3  -4   0 17966.6 1125.90  73 
  -3  -4   0 16758.2 1424.00  26 
  -3  -4   0 17646.3 1146.46  49 
  -3  -4  -1 10728.2 1113.14  46 
   3  -4   1 10283.3 834.034  78 
   3  -4   1 10285.5 731.794  80 
   3  -4   1 10266.8 668.000  72 
  -3  -4  -1 10148.6 912.234  10 
   3  -4   1 9209.52 812.870  73 
  -3  -4  -1 8181.31 981.794  26 
  -3  -4  -1 8878.30 805.290  49 
   3  -4   2 37340.3 1828.56  78 
   3  -4   2 37131.0 1665.51  80 
   3  -4   2 35002.5 1471.87  72 
  -3  -4  -2 35421.4 2187.75  26 
   3  -4   2 38394.5 1894.32  73 
  -3  -4  -2 37690.2 1988.46  10 
   3  -4   2 39707.5 1629.20  51 
  -3  -4  -2 37017.8 1863.13  49 
  -3  -4  -2 39048.6 2294.96  46 
  -3  -4  -3 6902.15 792.251  10 
   3  -4   3 7141.33 751.682  73 
   3  -4   3 8239.04 645.696  80 
  -3  -4  -3 6457.64 855.505  35 
   3  -4   3 6681.21 475.322  72 
  -3  -4  -3 6935.38 886.891  26 
  -3  -4  -3 8161.82 773.570  49 
  -3  -4  -4 39527.7 2188.73  26 
  -3  -4  -4 40056.8 2059.64  10 
  -3  -4  -4 37278.3 1857.88  49 
   3  -4   4 39580.5 1942.95  73 
  -3  -4  -4 34702.9 2116.07  35 
   3  -4   4 39666.1 1686.68  80 
   3  -4   4 36303.4 1405.98  72 
   3  -4   5 7338.73 587.880  80 
  -3  -4  -5 6847.83 773.085  10 
  -3  -4  -5 5951.24 775.536  35 
   3  -4   5 6838.97 702.265  78 
  -3  -4  -5 7276.49 819.678  26 
  -3  -4  -5 6556.87 671.408  49 
  -3  -4  -6 17869.8 1297.52  35 
   3  -4   6 19273.8 1181.40  73 
  -3  -4  -6 18851.2 1282.15  10 
   3  -4   6 19399.5 1200.98  78 
   3  -4   6 17202.4 929.180  80 
  -3  -4  -6 16869.3 1203.82  26 
  -3  -4  -6 18856.3 1117.47  49 
   3  -4   7 1495.40 224.900  80 
   3  -4   7 1394.47 331.978  78 
  -3  -4  -7 1591.64 359.033  35 
   3  -4   7 1834.16 342.101  73 
  -3  -4  -7 1498.89 363.409  10 
  -3  -4  -7 1289.62 278.325  49 
  -3  -4  -8 7888.09 688.525  10 
  -3  -4  -8 6478.99 472.925  81 
  -3  -4  -8 7092.08 517.511  49 
   3  -4   8 8642.15 638.471  78 
   3  -4   9 5411.34 438.973  78 
  -3  -4  -9 5363.71 340.128  81 
   3  -4  10 507.737 110.004  78 
  -3  -3  14 7124.10 676.462  38 
  -3  -3  14 7396.79 748.934  14 
   3  -3 -14 8781.77 662.696  49 
  -3  -3  14 8857.79 802.661  50 
   3  -3 -14 8047.88 573.381  48 
  -3  -3  13 10822.1 955.985  38 
  -3  -3  13 11983.6 1121.12  14 
   3  -3 -13 12799.1 906.701  48 
  -3  -3  12 13597.1 1177.29  38 
   3  -3 -12 14006.2 1042.80  29 
  -3  -3  12 14387.0 1369.35  14 
   3  -3 -12 16260.7 1152.70  48 
   3  -3 -11 638.259 317.340  48 
  -3  -3  11 1126.40 409.766  38 
   3  -3 -11 550.607 299.006  29 
  -3  -3  11 892.593 480.205  14 
  -3  -3  10 20171.3 1521.46  38 
  -3  -3  10 17047.4 1602.09  27 
   3  -3 -10 20478.3 1210.40  21 
   3  -3 -10 21868.7 1420.25  29 
   3  -3 -10 18907.0 1439.04  48 
   3  -3 -10 22161.9 1071.74  81 
  -3  -3   9 33244.3 2359.81  27 
  -3  -3   9 40341.7 1831.84  51 
   3  -3  -9 36828.6 2017.35  29 
   3  -3  -9 39677.4 1645.58  81 
  -3  -3   9 41639.2 2263.06  38 
  -3  -3   9 37849.5 2504.33  14 
   3  -3  -9 37568.8 2171.42  48 
   3  -3  -8 14974.3 868.043  81 
   3  -3  -8 14640.6 1002.53  58 
  -3  -3   8 13841.2 1414.68  14 
  -3  -3   8 14247.1 1199.41  38 
  -3  -3   8 10917.5 1291.52  27 
  -3  -3   8 12969.4 975.661  51 
   3  -3  -8 13463.6 1204.66  48 
   3  -3  -8 15797.0 1150.56  29 
  -3  -3   8 13039.0 1124.88  47 
   3  -3  -7 7574.46 682.873  58 
  -3  -3   7 7699.61 1007.24  14 
   3  -3  -7 7132.06 751.339  29 
  -3  -3   7 6599.11 693.814  51 
  -3  -3   7 7527.41 1043.65  27 
  -3  -3   7 6956.16 817.004  47 
   3  -3  -6 19219.2 1396.24  48 
   3  -3  -6 19985.4 881.179  79 
   3  -3  -6 18336.0 1108.20  10 
   3  -3  -6 20160.1 1023.46  81 
   3  -3  -6 18971.4 1224.80  29 
  -3  -3   6 20140.7 1349.74  62 
  -3  -3   6 18705.4 1533.10  14 
   3  -3  -6 18017.9 1117.06  58 
  -3  -3   5 46322.2 2661.49  27 
   3  -3  -5 48907.5 2042.93  10 
   3  -3  -5 43784.2 1828.58  81 
   3  -3  -5 49109.9 1751.40  79 
  -3  -3   5 48965.6 2299.67  62 
   3  -3  -5 50762.3 2378.66  48 
   3  -3  -5 47485.0 2039.90  58 
  -3  -3   5 50667.8 2609.80  14 
   3  -3  -5 49180.1 2225.10  49 
  -3  -3   4 12526.0 995.797  46 
   3  -3  -4 11375.7 655.368  79 
   3  -3  -4 11342.5 785.385  10 
   3  -3  -4 10782.4 676.040  81 
  -3  -3   4 11994.0 969.269  62 
   3  -3  -4 11750.6 816.129  58 
  -3  -3   4 11391.9 1075.10  14 
  -3  -3   4 11842.8 1174.96  27 
   3  -3  -4 11870.6 902.677  49 
  -3  -3   4 10416.6 1008.24  26 
   3  -3  -4 10312.4 924.759  48 
  -3  -3   3 35844.4 1877.96  46 
  -3  -3   3 33575.6 1891.22  14 
   3  -3  -3 34344.7 1578.02  58 
  -3  -3   3 35344.7 2099.89  27 
  -3  -3   3 33416.2 1756.30  62 
   3  -3  -3 34345.5 1659.45  49 
  -3  -3   3 32437.0 1913.06  26 
   3  -3  -3 35101.0 1774.99  48 
  -3  -3   2 2115.47 337.559  49 
   3  -3  -2 2344.55 348.570  58 
  -3  -3   2 2401.48 515.704  27 
  -3  -3   2 2102.20 399.226  62 
  -3  -3   2 2393.75 382.490  10 
   3  -3  -2 2075.05 340.997  49 
  -3  -3   2 1945.64 443.931  46 
   3  -3  -2 2286.78 400.465  48 
  -3  -3   1 7228.16 711.993  62 
  -3  -3   1 7773.54 870.088  27 
   3  -3  -1 7554.90 612.650  58 
  -3  -3   1 7293.83 669.867  10 
   3  -3  -1 6906.62 588.177  49 
  -3  -3   1 6764.30 621.384  49 
   3  -3  -1 6680.44 635.367  48 
  -3  -3   1 7991.58 853.418  46 
  -3  -3   0 20117.2 1166.31  49 
  -3  -3   0 18551.3 1355.89  35 
  -3  -3   0 21611.0 1274.88  62 
  -3  -3   0 19426.1 1196.44  10 
  -3  -3   0 19992.1 1407.90  27 
   3  -3   0 19276.4 1071.04  58 
  -3  -3   0 21241.1 1449.89  26 
  -3  -3  -1 24577.2 1535.48  27 
   3  -3   1 24288.9 1354.88  73 
  -3  -3  -1 23643.5 1382.54  10 
   3  -3   1 24383.5 1293.53  78 
  -3  -3  -1 22879.7 1538.49  35 
   3  -3   1 23480.6 1166.78  80 
  -3  -3  -1 22481.6 1325.77  62 
  -3  -3  -1 23068.0 1553.59  26 
  -3  -3  -1 22292.7 1292.69  49 
  -3  -3  -2 98311.2 3576.75  49 
  -3  -3  -2 96412.2 3951.61  35 
  -3  -3  -2 99397.9 3694.94  10 
  -3  -3  -2 88308.5 3675.82  39 
   3  -3   2 97491.2 3334.49  80 
   3  -3   2 95917.2 3511.02  78 
   3  -3   2 96366.0 3318.67  76 
   3  -3   2 94928.1 3485.90  75 
   3  -3   2 92228.4 3153.80  77 
   3  -3   2 93576.2 3135.01  72 
   3  -3   2 98772.3 3635.95  73 
   3  -3   2 95932.9 3286.76  51 
  -3  -3  -2 102976. 4021.40  26 
  -3  -3  -2 93922.9 3595.41  62 
   3  -3   3 80896.5 2765.09  72 
   3  -3   3 83192.3 2840.59  77 
  -3  -3  -3 86745.4 3297.20  21 
   3  -3   3 83615.6 3193.75  75 
   3  -3   3 83400.4 2969.86  51 
  -3  -3  -3 91770.0 3742.82  35 
   3  -3   3 82985.4 3021.06  80 
   3  -3   3 85843.7 3342.68  73 
  -3  -3  -3 86061.2 3640.75  26 
  -3  -3  -3 83406.1 3255.84  49 
   3  -3   4 29116.4 1191.99  72 
   3  -3   4 29655.4 1570.22  75 
  -3  -3  -4 30373.6 1659.73  21 
   3  -3   4 29849.2 1282.92  77 
  -3  -3  -4 33214.1 1988.27  35 
  -3  -3  -4 32149.2 1937.87  26 
   3  -3   4 34473.1 1913.73  50 
  -3  -3  -4 30681.2 1636.39  49 
   3  -3   4 29535.6 1438.09  80 
   3  -3   5 46304.0 2231.26  73 
   3  -3   5 45904.8 1651.27  72 
  -3  -3  -5 44271.5 2198.18  21 
   3  -3   5 45413.7 1940.53  80 
  -3  -3  -5 48431.7 2569.37  35 
   3  -3   5 47604.3 2479.03  50 
  -3  -3  -5 49063.6 2517.02  26 
  -3  -3  -5 45382.6 2154.52  49 
   3  -3   6 34710.4 1833.22  73 
  -3  -3  -6 33038.8 1829.39  21 
  -3  -3  -6 33321.9 2116.25  35 
  -3  -3  -6 33855.3 2017.62  26 
   3  -3   6 33259.7 1541.46  80 
   3  -3   6 35878.3 2126.42  50 
  -3  -3  -6 32072.2 1735.99  49 
   3  -3   7 15876.5 1163.28  73 
  -3  -3  -7 17104.8 1244.12  21 
   3  -3   7 16409.1 966.330  80 
  -3  -3  -7 18303.4 1448.96  35 
   3  -3   7 18144.4 1476.63  50 
  -3  -3  -7 19695.1 1407.39  26 
  -3  -3  -7 17162.9 1153.08  49 
   3  -3   8 23742.4 1383.74  73 
   3  -3   8 22228.9 1115.81  80 
  -3  -3  -8 24730.3 1523.60  26 
  -3  -3  -8 24848.2 1486.60  21 
  -3  -3  -8 21919.7 1290.59  49 
  -3  -3  -8 21775.3 1569.44  35 
   3  -3   8 26759.1 1771.20  50 
  -3  -3  -9 451.079 247.672  21 
  -3  -3  -9 682.069 276.386  35 
   3  -3   9 210.405 258.274  50 
  -3  -3  -9 687.999 178.415  81 
   3  -3   9 981.211 255.674  73 
  -3  -3 -10 5827.05 629.645  35 
   3  -3  10 6779.94 605.958  78 
  -3  -3 -10 6620.46 639.255  21 
   3  -3  10 7541.43 794.050  50 
  -3  -3 -11 7123.83 579.617  21 
   3  -3  11 6349.26 513.689  78 
   3  -3  11 7970.89 701.656  50 
   3  -3  12 3880.68 298.356  78 
   3  -2 -15 27059.2 1342.22  29 
   3  -2 -15 28518.3 1310.71  11 
  -3  -2  15 26752.2 1661.34  50 
   3  -2 -14 28309.7 1408.88  11 
  -3  -2  14 25308.7 1342.74  43 
  -3  -2  14 26064.9 1749.64  38 
   3  -2 -14 25903.5 1389.00  48 
  -3  -2  13 7628.27 725.371  43 
   3  -2 -13 7150.27 760.785  48 
   3  -2 -13 8125.61 735.855  11 
   3  -2 -13 6667.45 621.707  21 
  -3  -2  13 7344.32 972.974  38 
  -3  -2  13 6467.84 920.411  14 
   3  -2 -12 576.131 285.716  48 
  -3  -2  12 746.487 286.354  43 
  -3  -2  12 759.928 446.141  38 
   3  -2 -12 863.999 289.889  11 
   3  -2 -12 1056.59 290.083  21 
  -3  -2  12 675.921 425.430  14 
  -3  -2  11 1535.21 551.176  14 
   3  -2 -11 1245.51 323.534  11 
   3  -2 -11 1841.35 353.455  21 
   3  -2 -11 1569.69 378.436  29 
   3  -2 -11 1948.66 381.414   1 
   3  -2 -11 1802.28 458.956  48 
   3  -2 -10 47960.9 2153.91  11 
  -3  -2  10 45061.7 2061.76  42 
   3  -2 -10 49243.1 2083.21  21 
   3  -2 -10 51681.1 1836.57  81 
   3  -2 -10 48708.4 2254.28  29 
   3  -2 -10 48805.8 2126.81   1 
  -3  -2  10 37643.5 2464.34  27 
  -3  -2  10 33898.6 2162.38  57 
   3  -2 -10 49136.2 2192.80   8 
  -3  -2  10 48449.3 2794.81  14 
  -3  -2   9 26887.5 1390.58  42 
  -3  -2   9 26784.7 1280.77  55 
   3  -2  -9 27851.7 1477.53  11 
   3  -2  -9 27538.6 1450.67   1 
   3  -2  -9 27812.5 1402.74  21 
  -3  -2   9 25813.8 1877.84  27 
   3  -2  -9 27635.1 1221.34  81 
  -3  -2   9 27783.6 1351.49  51 
   3  -2  -9 28128.2 1548.47  29 
  -3  -2   9 28129.5 1972.22  14 
   3  -2  -9 25297.4 1478.39   8 
   3  -2  -8 6885.90 624.334  11 
   3  -2  -8 5625.15 471.568  81 
   3  -2  -8 6437.04 620.199   1 
   3  -2  -8 5816.77 616.686   3 
   3  -2  -8 6344.98 640.204  29 
   3  -2  -8 5686.17 536.300  58 
  -3  -2   8 6062.06 491.418  55 
  -3  -2   8 6714.64 884.232  14 
  -3  -2   8 5814.43 841.719  27 
   3  -2  -8 6671.22 577.063  21 
   3  -2  -8 5546.40 617.968   8 
  -3  -2   8 6241.23 568.559  51 
  -3  -2   8 5706.72 667.600  47 
   3  -2  -7 1497.12 287.028  11 
   3  -2  -7 1810.42 320.542   1 
   3  -2  -7 1439.82 267.773  58 
  -3  -2   7 1562.45 305.251  51 
   3  -2  -7 1711.14 325.970  29 
  -3  -2   7 1532.72 228.273  55 
  -3  -2   7 1245.39 419.691  27 
   3  -2  -7 1283.89 299.451   3 
   3  -2  -7 1569.58 336.174   8 
  -3  -2   7 1458.74 365.542  47 
   3  -2  -6 60161.5 2423.20   8 
   3  -2  -6 61534.5 2411.43   3 
   3  -2  -6 63478.3 2254.50  58 
  -3  -2   6 62044.1 2807.75  14 
  -3  -2   6 60275.8 2065.35  55 
  -3  -2   6 60449.9 2832.60  27 
  -3  -2   6 51409.7 2482.57  47 
   3  -2  -5 33507.3 1388.80  58 
   3  -2  -5 32338.3 1231.43  61 
  -3  -2   5 32786.8 1220.71  55 
   3  -2  -4 16931.4 722.329  61 
  -3  -2   4 16788.2 1077.90  62 
   3  -2  -4 18390.4 890.094  58 
  -3  -2   4 16599.1 707.377  55 
   3  -2  -3 28165.3 1009.72  60 
  -3  -2   3 31562.7 1064.41  55 
  -3  -2   3 31395.8 1535.31  62 
   3  -2  -3 31619.8 1277.98  58 
  -3  -2   2 94621.8 3287.14  62 
   3  -2  -2 88454.0 2704.29  60 
   3  -2  -2 95095.0 2998.07  58 
  -3  -2   2 86026.0 2709.86  56 
   3  -2  -1 77485.3 2365.59  60 
   3  -2  -1 76145.6 2582.13  58 
  -3  -2   1 73642.9 2337.62  56 
  -3  -2   1 74830.0 2828.46  62 
  -3  -2   0 43907.7 1553.94  56 
   3  -2   0 51029.0 1613.94  60 
  -3  -2  -1 110718. 3362.78  66 
   3  -2   1 110841. 3437.68  57 
  -3  -2  -2 243750. 7146.14  64 
  -3  -2  -2 247030. 7194.07  66 
   3  -2   2 246287. 7284.27  57 
  -3  -2  -2 239005. 7606.16  62 
  -3  -2  -3 123827. 3857.53  66 
  -3  -2  -3 121747. 3789.46  64 
  -3  -2  -3 131087. 4216.43  62 
   3  -2   3 118990. 3953.24  57 
  -3  -2  -4 153834. 5097.16  21 
  -3  -2  -4 151381. 4714.95  64 
   3  -2   4 164868. 5703.98  50 
  -3  -2  -4 162269. 5418.68  26 
  -3  -2  -4 162866. 4828.11  66 
   3  -2   4 152178. 4952.70  57 
  -3  -2  -5 6799.60 528.457  66 
  -3  -2  -5 5624.05 683.092  26 
   3  -2   5 4810.26 696.203  23 
  -3  -2  -5 5740.69 442.293  64 
  -3  -2  -5 6371.83 554.770  11 
  -3  -2  -5 5964.81 605.739  21 
   3  -2   5 6932.77 626.388  75 
   3  -2   5 5425.69 788.852  50 
  -3  -2  -5 6654.73 591.400  29 
  -3  -2  -5 5966.22 648.595  39 
   3  -2   5 5624.71 561.156  57 
  -3  -2  -6 5791.38 721.656  37 
   3  -2   6 5781.28 789.927  23 
  -3  -2  -6 6197.35 659.072  21 
  -3  -2  -6 5920.94 527.516  66 
   3  -2   6 5495.42 592.957  57 
  -3  -2  -6 4839.18 534.370  29 
   3  -2   6 5285.12 569.033  75 
  -3  -2  -6 5612.67 550.420  11 
  -3  -2  -6 6163.93 749.000  26 
   3  -2   6 6486.88 887.442  50 
   3  -2   7 9361.67 825.551  73 
   3  -2   7 7421.76 935.237  23 
  -3  -2  -7 8897.49 753.181  29 
  -3  -2  -7 9795.80 863.478  21 
  -3  -2  -7 9780.39 940.775  37 
  -3  -2  -7 9016.08 732.431  11 
  -3  -2  -7 10246.6 735.349  66 
   3  -2   7 10992.6 1212.80  50 
   3  -2   7 8251.96 777.427  57 
  -3  -2  -7 9319.19 927.213  26 
   3  -2   8 3674.75 694.442  23 
  -3  -2  -8 3663.27 474.480  11 
  -3  -2  -8 4778.03 617.756  21 
   3  -2   8 4145.36 541.574  73 
  -3  -2  -8 4288.03 483.952  66 
  -3  -2  -8 4402.56 645.485  26 
  -3  -2  -9 37731.9 1785.49  11 
  -3  -2  -9 39905.6 2006.34  21 
   3  -2   9 41988.3 1883.79  73 
  -3  -2  -9 43288.7 2171.00  26 
  -3  -2 -10 15627.7 1153.65  26 
   3  -2  10 18886.5 1541.62  50 
  -3  -2 -10 17864.1 1209.64  21 
  -3  -2 -10 16692.2 931.148  82 
  -3  -2 -11 3997.72 535.798  21 
  -3  -2 -11 4107.29 386.829  82 
   3  -2  11 4490.87 690.780  50 
  -3  -2 -12 1466.46 293.223  21 
   3  -2  12 1620.41 415.313  50 
   3  -2  13 6267.18 553.124  50 
  -3  -2 -13 5298.78 442.477  21 
  -3  -1  16 3998.10 465.455  43 
  -3  -1  16 3763.36 553.625  38 
   3  -1 -16 4568.41 455.602  29 
   3  -1 -16 4348.65 417.278  11 
  -3  -1  16 4161.32 544.477  50 
  -3  -1  15 258.306 223.929  43 
   3  -1 -15 223.167 144.055   1 
   3  -1 -15 365.508 211.107  29 
   3  -1 -15 136.349 169.084  11 
  -3  -1  15-54.2269 314.386  38 
   3  -1 -14 5695.53 545.854   1 
   3  -1 -14 5026.30 562.928  11 
  -3  -1  14 5865.93 704.819  43 
   3  -1 -14 4932.36 509.620  21 
  -3  -1  14 4879.09 835.295  38 
   3  -1 -14 4838.17 593.850  29 
   3  -1 -14 4723.00 572.176  48 
   3  -1 -13 71328.0 2759.05   1 
  -3  -1  13 67251.1 3315.84  14 
  -3  -1  13 76064.2 3603.55  38 
   3  -1 -12 35011.3 1588.45   1 
   3  -1 -12 33251.8 1573.62  82 
  -3  -1  12 32310.2 1762.39  42 
  -3  -1  12 29568.9 1517.68  63 
  -3  -1  12 29070.9 2013.94  14 
   3  -1 -12 31423.4 1470.18  68 
   3  -1 -11 13847.1 1223.16  40 
   3  -1 -11 15293.9 943.992   1 
   3  -1 -11 15730.0 976.423  82 
   3  -1 -11 13346.6 938.783   3 
  -3  -1  11 15260.1 1112.73  42 
   3  -1 -11 14264.1 886.242  68 
  -3  -1  11 15227.5 965.008  63 
  -3  -1  11 14030.1 965.320  55 
  -3  -1  11 12956.8 1284.26  14 
  -3  -1  10 9333.89 793.026  42 
  -3  -1  10 8880.14 677.633  63 
   3  -1 -10 8065.82 645.514   1 
   3  -1 -10 8458.60 688.731   3 
  -3  -1  10 8094.07 697.888  30 
   3  -1 -10 7770.33 846.225  40 
  -3  -1  10 9365.85 719.158  55 
  -3  -1  10 8262.21 976.059  14 
   3  -1 -10 8744.24 639.598  68 
   3  -1 -10 8811.05 680.190  82 
  -3  -1   9 7652.93 672.682  42 
  -3  -1   9 7358.54 674.506  41 
   3  -1  -9 7890.78 626.157   3 
  -3  -1   9 7874.61 600.148  63 
  -3  -1   9 6760.23 582.336  30 
   3  -1  -9 7868.69 790.612  40 
   3  -1  -9 7364.05 620.082   8 
  -3  -1   9 7520.41 886.485  14 
  -3  -1   9 8097.16 621.329  55 
  -3  -1   9 6090.07 765.459  27 
   3  -1  -9 7404.15 545.657  68 
   3  -1  -9 7729.03 581.549   1 
   3  -1  -8 35073.7 1758.92  40 
   3  -1  -8 36346.3 1440.25  68 
  -3  -1   8 38246.6 1532.85  63 
   3  -1  -8 35677.6 1473.48   1 
  -3  -1   8 35864.2 1511.16  55 
   3  -1  -7 17525.1 825.193  68 
  -3  -1   7 18031.8 885.931  63 
  -3  -1   7 17218.1 858.136  55 
  -3  -1   6 33136.2 1306.13  55 
   3  -1  -6 35000.7 1293.74  68 
   3  -1  -5 15417.2 681.553  68 
  -3  -1   5 13862.5 670.441  55 
  -3  -1   4 59492.7 1997.47  63 
  -3  -1   4 63596.0 1962.83  56 
   3  -1  -3 36941.9 1288.64  61 
  -3  -1   3 36545.1 1291.81  56 
  -3  -1   3 37630.1 1167.99  52 
   3  -1  -3 36371.8 1279.37  59 
   3  -1  -2 62254.7 1937.25  61 
  -3  -1   2 60231.9 1953.47  56 
  -3  -1   2 59283.4 1801.48  52 
   3  -1  -2 63053.2 1972.45  58 
   3  -1  -2 59612.7 1929.47  59 
  -3  -1   1 44526.7 1439.08  67 
  -3  -1   1 43274.2 1736.02  62 
   3  -1  -1 46737.2 1524.59  59 
   3  -1  -1 46927.3 1546.89  58 
   3  -1   0 5212.64 328.225  60 
  -3  -1   0 4984.12 292.252  67 
   3  -1   0 6015.18 376.729  57 
  -3  -1   0 5170.77 440.579  62 
   3  -1   0 4688.59 329.407  58 
   3  -1   1 169219. 5132.22  60 
  -3  -1  -1 173041. 5088.76  67 
  -3  -1  -1 177993. 5242.77  54 
  -3  -1  -1 162968. 5329.28  62 
   3  -1   1 175507. 5241.31  57 
   3  -1   1 176492. 5136.59  58 
  -3  -1  -2 495507. 14544.3  69 
  -3  -1  -2 529771. 14907.6  62 
   3  -1   2 534698. 14727.7  60 
   3  -1   2 515620. 14872.3  57 
  -3  -1  -2 512116. 14811.0  54 
  -3  -1  -3 119972. 3991.12  54 
  -3  -1  -3 126921. 3754.56  69 
  -3  -1  -3 129812. 4047.87  62 
   3  -1   3 125678. 4133.57  57 
  -3  -1  -4 10071.5 667.055  54 
  -3  -1  -4 11263.0 619.000  64 
  -3  -1  -4 11789.2 541.390  69 
   3  -1   4 11800.4 816.230  57 
  -3  -1  -5 6318.25 401.798  69 
  -3  -1  -5 6615.18 547.763  54 
   3  -1   5 7566.69 681.485  57 
  -3  -1  -5 6786.14 492.632  64 
   3  -1   6 12923.7 1148.02  23 
   3  -1   6 10721.6 1073.69  38 
  -3  -1  -6 12026.5 790.114  18 
  -3  -1  -6 11780.2 616.999  69 
   3  -1   6 12652.9 1183.48  50 
  -3  -1  -6 11343.9 709.467  64 
  -3  -1  -6 11163.3 726.166  66 
   3  -1   6 10799.3 914.428  57 
  -3  -1  -6 11791.3 799.059  54 
  -3  -1  -6 11894.4 890.955  26 
  -3  -1  -6 12214.9 892.627  37 
  -3  -1  -7 16522.3 976.373  66 
  -3  -1  -7 17239.8 1155.86  26 
   3  -1   7 16969.4 1445.48  38 
   3  -1   7 15664.2 959.834  75 
  -3  -1  -7 17400.3 1048.98  18 
  -3  -1  -7 17575.7 836.995  69 
  -3  -1  -7 17395.7 954.556  64 
   3  -1   7 21213.3 1513.83  15 
   3  -1   7 17239.4 1252.83  57 
  -3  -1  -7 17942.5 1177.46  37 
   3  -1   7 18287.5 1468.89  23 
  -3  -1  -7 15828.7 1019.51  54 
   3  -1   7 17328.9 1482.13  50 
   3  -1   8 108366. 4885.04  38 
   3  -1   8 127800. 5146.72  50 
  -3  -1  -8 113152. 3994.03  11 
   3  -1   8 126021. 5019.02  23 
  -3  -1  -8 126630. 4436.39  26 
  -3  -1  -8 110817. 4152.32  54 
   3  -1   8 106509. 4506.71  57 
  -3  -1  -8 124381. 4239.47  18 
  -3  -1  -8 128417. 4475.06  37 
   3  -1   8 134183. 5019.07  15 
  -3  -1  -9 14513.8 941.028  11 
  -3  -1  -9 16195.3 1097.93  18 
  -3  -1  -9 16809.0 1210.24  37 
   3  -1   9 17737.9 1456.20  15 
  -3  -1  -9 14001.4 1012.19  54 
   3  -1   9 14104.7 1211.93  57 
   3  -1   9 17477.8 1544.13  23 
  -3  -1  -9 16136.7 1177.63  26 
   3  -1   9 18712.2 1608.11  50 
  -3  -1 -10 30651.3 1761.97  37 
   3  -1  10 31744.8 2142.16  23 
  -3  -1 -10 30242.2 1622.47  18 
  -3  -1 -10 27287.2 1414.22  11 
   3  -1  10 32325.9 2148.26  50 
   3  -1  10 29068.1 1942.31  15 
  -3  -1 -10 32016.5 1745.91  26 
  -3  -1 -11 2076.88 429.776  37 
   3  -1  11 2172.31 574.008  23 
  -3  -1 -11 2149.18 407.179  18 
   3  -1  11 2721.78 619.043  50 
  -3  -1 -11 1961.82 395.393  26 
  -3  -1 -12 15743.7 900.083  82 
  -3  -1 -12 15543.3 1066.68  37 
  -3  -1 -12 14896.8 979.256  26 
   3  -1  12 17327.2 1268.29  50 
  -3  -1 -13 30816.9 1272.14  82 
  -3  -1 -13 31329.7 1413.53  21 
  -3  -1 -14 3832.63 281.566  82 
   3   0 -16 159.924 153.020  29 
  -3   0  16 160.542 190.581  43 
   3   0 -16 411.994 162.822  11 
   3   0 -16 146.251 96.5722   1 
  -3   0  16 206.696 190.024  38 
  -3   0  15 333.698 269.221  43 
  -3   0  15 251.932 255.133  38 
   3   0 -15 314.379 198.257  29 
   3   0 -15 438.049 175.501   1 
  -3   0  14 13260.3 1129.79  43 
  -3   0  14 10923.7 857.579  22 
  -3   0  14 14580.3 1293.69  38 
   3   0 -14 12384.0 809.145   1 
  -3   0  13 2077.18 381.424  22 
   3   0 -13 2608.63 520.903  40 
  -3   0  13 2235.40 567.486  38 
   3   0 -13 2513.97 368.101  20 
   3   0 -13 2256.29 400.179  82 
   3   0 -13 1936.01 322.522   1 
   3   0 -12 21827.6 1192.26  68 
  -3   0  12 20886.6 1404.23  42 
  -3   0  12 20258.8 1261.06  22 
   3   0 -12 22323.0 1477.63  40 
   3   0 -12 22195.9 1125.75   1 
   3   0 -12 22837.5 1268.92  82 
   3   0 -12 22461.4 1131.48  20 
  -3   0  12 21832.3 1154.69  63 
  -3   0  12 20927.4 1355.76  30 
  -3   0  11 7095.57 758.902  42 
   3   0 -11 7633.46 667.917  82 
  -3   0  11 7432.73 686.705  22 
   3   0 -11 8188.57 816.891  40 
  -3   0  11 8181.71 613.099  63 
   3   0 -11 10045.0 670.474   9 
   3   0 -11 9306.29 619.011   1 
   3   0 -11 8813.74 602.617  20 
  -3   0  11 8352.06 778.816  30 
   3   0 -11 7704.97 630.415  68 
  -3   0  11 8274.35 721.224  55 
  -3   0  10 11374.0 898.492  42 
  -3   0  10 10989.2 791.828  22 
   3   0 -10 10324.0 861.110  40 
   3   0 -10 11564.9 746.825  68 
   3   0 -10 11461.0 781.218  82 
   3   0 -10 11497.9 682.585   9 
  -3   0  10 9822.85 814.481  30 
  -3   0  10 10894.2 792.771  55 
   3   0 -10 11918.2 663.220  20 
  -3   0  10 11430.8 688.974  63 
  -3   0   9 92261.8 3416.56  42 
  -3   0   9 95608.4 3455.31  41 
   3   0  -9 87090.8 3347.87  40 
  -3   0   9 88107.0 3527.47  36 
  -3   0   9 92728.7 3355.75  30 
   3   0  -9 97915.4 3051.91   9 
   3   0  -9 95258.1 3112.08  28 
  -3   0   9 98323.3 3302.12  55 
   3   0  -8 124907. 3749.38  71 
  -3   0   8 126748. 4086.90  55 
   3   0  -7 8321.50 413.625  71 
  -3   0   7 8824.71 560.882  55 
  -3   0   7 9405.89 491.735  63 
   3   0  -6 162247. 4710.96  71 
   3   0  -6 159438. 4859.11  68 
  -3   0   6 161482. 4905.46  55 
  -3   0   6 159651. 4788.18  63 
  -3   0   5 11312.0 498.384  63 
   3   0  -5 10796.4 535.884  68 
  -3   0   5 11091.1 531.697  52 
   3   0  -4 371475. 10778.5  68 
  -3   0   4 381331. 10725.6  63 
  -3   0   4 379537. 10839.3  56 
  -3   0   4 370297. 10767.0  52 
   3   0  -3 346.464 115.780  61 
  -3   0   3 235.407 88.6583  52 
  -3   0   3 369.334 86.9596  63 
   3   0  -3 201.034 90.5434  68 
  -3   0   3 360.147 126.431  56 
   3   0  -2 3790.48 279.118  59 
   3   0  -2 4355.24 284.206  61 
  -3   0   2 3961.15 232.497  63 
  -3   0   2 3861.79 286.643  56 
   3   0  -1 108444. 3186.52  58 
   3   0  -1 107185. 3309.59  59 
  -3   0   1 109674. 3336.43  54 
   3   0  -1 114328. 3357.84  57 
  -3   0   0 67143.8 2207.27  62 
   3   0   0 73632.8 2263.81  57 
   3   0   0 70489.3 2183.22  59 
  -3   0   0 72432.6 2230.19  54 
   3   0   0 65875.1 2036.54  58 
   3   0   1 124528. 3664.98  60 
  -3   0  -1 114659. 3668.46  62 
  -3   0  -1 124890. 3638.13  67 
  -3   0  -1 122606. 3743.29  54 
   3   0   1 119498. 3805.27  57 
  -3   0  -2 131261. 4048.73  62 
  -3   0  -2 134006. 4053.22  67 
   3   0   2 135216. 4297.12  57 
   3   0   2 139370. 4080.84  60 
  -3   0  -2 135073. 4181.65  54 
   3   0   3 388435. 11673.3  60 
  -3   0  -3 411607. 11656.4  69 
  -3   0  -3 418046. 11665.6  67 
   3   0   3 403122. 11440.7  63 
   3   0   3 399626. 11969.9  57 
   3   0   4 6310.50 281.429  63 
  -3   0  -4 6381.75 421.311  69 
   3   0   4 5673.31 577.701  57 
   3   0   5 45246.4 2027.54  57 
  -3   0  -5 44050.4 1631.76  69 
  -3   0  -5 44526.1 1671.86  64 
   3   0   5 43639.6 1382.64  63 
   3   0   6 22523.4 1399.72  43 
  -3   0  -6 26777.4 1115.72  20 
  -3   0  -6 27495.3 1173.12  69 
  -3   0  -6 27524.7 1215.13  64 
   3   0   6 26900.8 1540.08  57 
   3   0   6 26240.8 1640.42  38 
   3   0   7 318328. 9627.78  44 
   3   0   7 304329. 10231.8  43 
  -3   0  -7 325375. 9664.01  20 
   3   0   7 288740. 10478.9  38 
  -3   0  -7 324670. 9690.27  18 
  -3   0  -7 327957. 9768.00  64 
  -3   0  -7 323926. 9694.41  69 
   3   0   7 308465. 10356.4  57 
  -3   0  -7 329023. 9791.23  66 
   3   0   7 350361. 10701.0  50 
   3   0   8 137015. 5367.06  43 
   3   0   8 148662. 5576.41  57 
   3   0   8 138413. 5681.50  38 
  -3   0  -8 151450. 4945.19  66 
  -3   0  -8 150873. 4851.87  69 
   3   0   8 145731. 4774.18  44 
  -3   0  -8 150419. 4891.69  18 
  -3   0  -8 153154. 4876.60  20 
   3   0   8 163525. 5806.90  50 
   3   0   8 171067. 5408.35  24 
   3   0   9 76026.9 3093.44  24 
   3   0   9 69740.8 2546.44  44 
   3   0   9 78000.0 3429.75  50 
   3   0   9 71119.7 3282.94  57 
  -3   0  -9 73052.9 2722.66  18 
  -3   0  -9 69384.7 2712.70  66 
  -3   0  -9 70526.9 2624.17  69 
  -3   0  -9 65076.7 2859.27  54 
  -3   0  -9 71139.0 2680.48  20 
   3   0  10 18901.0 1303.64  24 
   3   0  10 19638.6 1480.81  50 
  -3   0 -10 19462.4 1153.76  18 
  -3   0 -10 18426.1 1115.63  20 
   3   0  11 1324.61 493.816  23 
  -3   0 -11 1359.82 330.687  20 
  -3   0 -11 1380.70 319.483  18 
  -3   0 -11 1075.96 328.566  37 
   3   0  11 1199.86 391.413  50 
  -3   0 -11 1208.66 315.261  26 
  -3   0 -12 16392.3 1107.64  37 
  -3   0 -12 16667.9 978.596  82 
   3   0  12 16143.7 1417.97  23 
  -3   0 -12 16686.0 1078.70  26 
   3   0  12 18260.9 1428.65  15 
  -3   0 -12 17240.7 1043.68  18 
  -3   0 -13 1159.44 277.816  37 
   3   0  13 1355.76 418.525  23 
  -3   0 -13 1569.21 261.928  82 
  -3   0 -13 1627.92 290.206  18 
  -3   0 -13 1560.94 279.777  26 
   3   0  14 1090.10 274.832  23 
  -3   0 -14 1452.87 220.047  21 
  -3   0 -14 1500.74 201.880  82 
  -3   1  16 3976.15 363.415  44 
  -3   1  16 3627.47 440.738  43 
   3   1 -16 4185.23 396.442  29 
   3   1 -16 3885.55 336.397   1 
  -3   1  15 332.772 224.492  43 
   3   1 -15 327.584 144.059   1 
  -3   1  14 4163.22 452.744  12 
  -3   1  14 4612.20 582.154  22 
   3   1 -14 5338.02 457.273  20 
   3   1 -14 4542.29 437.048   1 
  -3   1  14 4967.35 648.211  43 
  -3   1  13 68863.8 2529.83  25 
  -3   1  13 65519.7 2861.44  22 
   3   1 -13 66696.6 2889.96  40 
   3   1 -13 71441.2 2520.81  20 
   3   1 -13 68774.4 2475.01  18 
   3   1 -13 73757.6 2589.43   9 
  -3   1  13 69418.9 2693.21  12 
   3   1 -13 75154.8 2708.62  28 
  -3   1  12 33462.8 1570.54  12 
   3   1 -12 33470.5 1482.40  28 
  -3   1  12 31703.7 1775.99  42 
  -3   1  12 34555.8 1757.47  22 
   3   1 -12 29803.8 1671.78  40 
   3   1 -12 33719.2 1598.63  82 
   3   1 -12 31916.4 1354.85  20 
  -3   1  12 24584.0 1932.23  57 
   3   1 -12 34584.1 1419.86   9 
  -3   1  12 30555.6 1418.40  63 
   3   1 -12 31219.2 1533.03  68 
  -3   1  12 29211.2 1736.51  30 
  -3   1  12 34566.4 1486.39  25 
  -3   1  11 14419.4 941.357  12 
  -3   1  11 14760.1 1095.06  42 
  -3   1  11 14471.3 1050.26  22 
   3   1 -11 13388.6 989.478  40 
  -3   1  11 15527.3 1110.29  30 
   3   1 -11 15123.8 955.533  82 
   3   1 -11 15391.8 797.197   9 
   3   1 -11 15288.4 938.002  68 
  -3   1  11 16319.7 1027.32  55 
  -3   1  11 14990.2 876.758  53 
   3   1 -10 8649.02 552.648  16 
  -3   1  10 9276.31 800.077  42 
  -3   1  10 8873.27 567.518  63 
   3   1 -10 8197.42 681.203  40 
   3   1 -10 8563.02 516.700   9 
   3   1 -10 8398.78 662.966  82 
   3   1 -10 8489.91 585.794  71 
   3   1 -10 8179.61 636.237  68 
  -3   1  10 9906.89 738.543  55 
  -3   1  10 8823.97 631.144  53 
  -3   1  10 8010.72 748.505  30 
  -3   1   9 7475.09 674.890  42 
  -3   1   9 8176.98 720.140  41 
   3   1  -9 7837.39 598.854  40 
   3   1  -9 8147.94 553.640  71 
   3   1  -9 7953.16 484.730  16 
  -3   1   9 8745.18 722.121  30 
  -3   1   9 7814.83 737.549  17 
  -3   1   9 7993.27 503.371  63 
  -3   1   9 7902.25 619.046  55 
   3   1  -8 36026.5 1421.95  71 
   3   1  -8 33979.4 1262.52  16 
  -3   1   8 35039.1 1303.58  63 
  -3   1   8 37168.3 1515.17  55 
   3   1  -7 16954.1 821.353  71 
  -3   1   7 16606.6 711.969  63 
  -3   1   7 16992.7 853.440  55 
  -3   1   6 33356.8 1180.56  63 
   3   1  -6 34867.2 1311.49  71 
  -3   1   6 33547.4 1315.68  52 
  -3   1   6 35103.4 1325.25  55 
  -3   1   5 12763.6 557.398  63 
   3   1  -5 15060.6 648.931  68 
   3   1  -5 13826.5 669.537  71 
  -3   1   5 14522.2 671.651  55 
  -3   1   5 14983.4 686.041  52 
   3   1  -4 59327.0 1903.89  68 
  -3   1   4 57644.2 1808.13  63 
   3   1  -4 60972.7 1966.54  71 
  -3   1   4 56950.1 1955.53  56 
  -3   1   4 61883.9 1965.98  52 
   3   1  -3 36227.9 1239.87  68 
  -3   1   3 37996.3 1176.17  63 
   3   1  -3 35441.5 1302.92  61 
  -3   1   3 39408.9 1319.28  56 
  -3   1   3 39101.1 1329.39  52 
  -3   1   2 61662.9 1840.21  70 
  -3   1   2 57730.8 1786.83  63 
   3   1  -2 60750.4 1971.85  59 
  -3   1   2 62729.4 1966.95  56 
  -3   1   1 40430.0 1216.51  65 
   3   1  -1 43293.8 1408.18  59 
  -3   1   1 40889.5 1207.76  63 
  -3   1   1 42081.9 1378.04  54 
   3   1   0 5703.29 328.588  59 
   3   1   0 5154.10 350.573  57 
   3   1   0 5456.93 264.872  70 
   3   1   0 5365.04 304.823  65 
  -3   1   0 5174.49 343.698  54 
   3   1   1 172769. 5138.97  57 
   3   1   1 172530. 4947.51  65 
  -3   1  -1 163566. 4983.99  67 
   3   1   2 503780. 14558.8  65 
   3   1   2 519006. 14630.7  60 
   3   1   2 514821. 14873.8  57 
  -3   1  -2 517703. 14647.9  67 
  -3   1  -3 129915. 3893.76  69 
   3   1   3 120457. 3771.95  60 
  -3   1  -3 122543. 3799.24  67 
   3   1   3 127964. 4109.34  57 
  -3   1  -4 12305.1 665.173  69 
  -3   1  -4 11035.7 615.622  64 
   3   1   4 11602.3 812.717  57 
  -3   1  -5 6071.26 464.032  64 
   3   1   5 6437.04 397.157  63 
   3   1   6 12159.8 726.867  44 
   3   1   6 10368.7 615.857   7 
   3   1   6 10775.4 692.187   2 
  -3   1  -6 11264.1 691.704  64 
   3   1   6 11113.0 918.788  57 
   3   1   6 10930.1 681.744  31 
   3   1   6 11004.6 556.462  63 
   3   1   6 10551.0 719.778  25 
   3   1   7 17516.7 967.255  44 
   3   1   7 15520.2 814.585   7 
  -3   1  -7 17336.8 927.769  66 
  -3   1  -7 16685.8 928.956  64 
   3   1   7 16849.9 920.215  31 
   3   1   7 17440.8 750.407  63 
   3   1   7 17186.4 1248.75  57 
   3   1   8 118848. 3903.26  44 
   3   1   8 106592. 3767.98  31 
  -3   1  -8 114122. 3572.71   9 
  -3   1  -8 115298. 3881.32  69 
  -3   1  -8 113132. 3821.73  66 
   3   1   8 108532. 4422.75  57 
   3   1   9 16401.0 977.426  44 
  -3   1  -9 15601.0 865.468  20 
  -3   1  -9 14528.5 939.997  69 
  -3   1  -9 14981.3 924.231  66 
   3   1   9 17289.5 1331.38  57 
  -3   1  -9 15142.3 797.280   9 
   3   1  10 34157.0 1867.52  24 
   3   1  10 29483.6 1429.51  44 
  -3   1 -10 29293.4 1365.41  20 
  -3   1 -10 28519.5 1274.58   9 
  -3   1 -10 29650.2 1396.19  18 
   3   1  11 2127.37 333.718  44 
   3   1  11 2672.13 477.461  24 
  -3   1 -11 1822.97 309.074  20 
  -3   1 -11 2595.76 368.015  18 
   3   1  12 15381.5 1064.16  24 
   3   1  12 14563.2 806.073  44 
  -3   1 -12 14819.4 875.868  20 
   3   1  12 17602.0 1466.16  23 
  -3   1 -12 14322.8 877.899  18 
  -3   1 -12 16537.0 903.020  82 
   3   1  13 31119.5 1826.00  23 
  -3   1 -13 31740.6 1344.74  18 
  -3   1 -13 31789.7 1277.91  82 
   3   1  13 34140.9 1835.75  15 
  -3   1 -13 28754.7 1401.95  37 
  -3   1 -13 29377.2 1366.27  26 
  -3   1 -14 3913.54 278.041  82 
  -3   2  15 28149.5 1200.87  44 
   3   2 -15 26336.7 1081.67   1 
  -3   2  14 24655.1 1273.00  12 
  -3   2  14 25597.8 1415.96  22 
   3   2 -14 28509.4 1256.17  28 
   3   2 -14 26262.8 1117.26  20 
   3   2 -14 28229.4 1188.35   9 
  -3   2  14 28674.6 1210.38  31 
  -3   2  14 25397.3 1196.58  25 
  -3   2  13 7904.70 682.256  12 
   3   2 -13 7329.44 531.625   9 
  -3   2  13 7531.65 744.866  22 
   3   2 -13 7360.89 573.559  28 
   3   2 -13 7575.27 511.929  20 
  -3   2  13 8234.92 576.809   2 
  -3   2  13 7808.30 626.070  25 
  -3   2  12 951.063 288.392  12 
  -3   2  12 718.320 282.063  22 
  -3   2  12 1004.58 250.041  25 
  -3   2  12 950.797 318.964  30 
   3   2 -12 623.569 186.149   9 
   3   2 -12 854.291 216.101  16 
   3   2 -12 1012.49 217.141  28 
  -3   2  11 1911.68 369.549  12 
  -3   2  11 1420.31 344.442  22 
   3   2 -11 1186.23 276.747  40 
   3   2 -11 1519.09 228.601   9 
  -3   2  11 1472.38 349.323  30 
   3   2 -11 1149.71 221.383  28 
   3   2 -11 1600.05 251.308  16 
   3   2 -10 45475.3 1939.74  40 
  -3   2  10 51203.3 2272.26  30 
   3   2 -10 45325.8 1994.55  71 
   3   2 -10 49567.6 1984.96  68 
  -3   2  10 48598.3 2048.35  53 
   3   2 -10 48988.9 1767.19  16 
  -3   2  10 46231.4 1798.02  63 
  -3   2   9 26987.8 1342.79  53 
   3   2  -9 24939.6 1050.18   4 
   3   2  -9 24217.2 1179.53  40 
   3   2  -9 29578.5 1374.93  71 
   3   2  -9 26251.0 1247.73  68 
  -3   2   9 28078.2 1479.85  30 
   3   2  -9 25364.4 1077.07  16 
  -3   2   9 27325.1 1131.78  63 
   3   2  -8 5657.25 446.180  40 
   3   2  -8 5816.16 541.076  71 
   3   2  -8 5225.60 370.083   8 
  -3   2   8 5642.40 584.023  30 
  -3   2   8 6411.56 427.608  63 
   3   2  -8 5851.80 390.468   4 
  -3   2   8 6235.48 551.343  53 
   3   2  -7 1367.38 209.979  40 
   3   2  -7 1248.65 174.529   8 
   3   2  -7 1596.53 226.507  68 
  -3   2   7 1467.09 189.437  63 
   3   2  -7 1815.62 282.635  71 
   3   2  -7 1368.61 186.884   4 
   3   2  -6 61996.6 2238.16  71 
   3   2  -6 58004.5 2023.13  68 
  -3   2   6 56988.7 1946.86  63 
  -3   2   6 61347.2 2050.01  55 
  -3   2   5 33944.3 1197.89  63 
  -3   2   5 35267.9 1260.85  55 
   3   2  -5 33300.9 1241.22  68 
  -3   2   5 34545.8 1349.29  52 
   3   2  -5 32806.0 1271.68  61 
  -3   2   4 17580.4 806.147  52 
   3   2  -4 17523.0 875.138  71 
  -3   2   4 18493.4 728.246  70 
   3   2  -4 16030.0 725.888  61 
  -3   2   4 16412.0 668.972  63 
   3   2  -4 16019.1 678.307  68 
   3   2  -3 30938.1 1256.70  71 
  -3   2   3 31264.3 1126.32  70 
  -3   2   3 28572.1 1017.90  65 
  -3   2   3 29690.5 1025.26  63 
  -3   2   3 32732.4 1206.01  52 
  -3   2   2 83819.8 2670.11  63 
   3   2  -2 90392.0 2825.81  59 
   3   2  -2 95615.7 2948.45  71 
  -3   2   2 93338.2 2857.77  70 
  -3   2   2 90610.7 2736.64  65 
  -3   2   2 96903.8 2912.56  52 
   3   2  -1 80969.8 2537.87  65 
  -3   2   1 76367.2 2338.09  65 
   3   2   0 50492.5 1761.28  65 
   3   2   0 50778.8 1709.69  70 
  -3   2   0 46802.7 1640.09  54 
  -3   2  -1 101459. 3220.15  67 
   3   2   1 109289. 3300.95  70 
   3   2   1 108607. 3364.83  65 
   3   2   1 108078. 3298.37  57 
  -3   2  -2 252573. 7074.56  69 
  -3   2  -2 219503. 6857.55  67 
  -3   2  -2 237993. 6876.57  64 
   3   2   2 227176. 6990.74  57 
   3   2   2 250720. 6989.42  65 
   3   2   3 122276. 3641.04  65 
  -3   2  -3 111774. 3571.90  67 
  -3   2  -3 121938. 3793.71  69 
  -3   2  -3 113802. 3599.25  64 
   3   2   3 120470. 3798.64  57 
   3   2   4 165718. 4858.10   2 
   3   2   4 155183. 4830.72  44 
   3   2   4 132504. 4790.03  12 
  -3   2  -4 156708. 4806.07  69 
  -3   2  -4 144638. 4602.18  64 
   3   2   4 158495. 4829.22  31 
   3   2   4 153789. 4877.19  57 
   3   2   4 146919. 4813.54  25 
   3   2   5 6301.43 498.633   7 
   3   2   5 6255.84 541.776  44 
   3   2   5 6592.46 544.160   2 
  -3   2  -5 6835.32 546.098  69 
   3   2   5 5952.44 525.499  31 
   3   2   5 6267.50 547.072  25 
  -3   2  -6 6262.86 544.091  69 
   3   2   6 5801.19 536.689   2 
   3   2   6 6227.10 512.411   7 
   3   2   6 5478.10 442.778  63 
   3   2   6 5491.27 538.078  25 
   3   2   7 9329.71 705.403  31 
   3   2   7 8858.33 628.221   7 
  -3   2  -7 8864.59 685.041  69 
   3   2   7 8686.91 557.708  63 
   3   2   7 7849.10 689.957  25 
   3   2   8 3838.40 416.042   7 
   3   2   8 4113.33 367.640  63 
  -3   2  -8 3969.87 323.451   9 
   3   2   8 3699.77 466.552   2 
   3   2   8 5097.47 442.519  34 
  -3   2  -8 4722.58 504.195  69 
   3   2   8 4619.69 498.860  31 
   3   2   9 33942.1 1506.27   7 
  -3   2  -9 37525.1 1400.60   9 
   3   2   9 36851.8 1664.10  31 
   3   2  10 17214.8 1012.72  44 
  -3   2 -10 15751.7 882.703  82 
  -3   2 -10 15847.5 846.269  20 
  -3   2 -10 16384.6 787.181   9 
   3   2  11 4183.89 585.377  24 
   3   2  11 3175.60 388.612  44 
  -3   2 -11 3428.67 361.527  20 
   3   2  12 1510.57 335.297  24 
   3   2  12 2231.31 472.526  23 
  -3   2 -12 1809.03 246.687  20 
  -3   2 -12 1454.77 223.164  18 
   3   2  12 1446.41 234.023  44 
   3   2  13 4538.99 535.442  23 
  -3   2 -13 4474.51 338.204  20 
  -3   2 -13 5394.60 377.310  18 
  -3   3  14 8203.92 480.486  44 
   3   3 -14 9054.81 473.481   9 
  -3   3  14 6993.45 437.884   2 
   3   3 -14 8373.05 489.811  28 
  -3   3  14 8459.69 494.957  31 
  -3   3  14 7123.98 483.658  25 
  -3   3  13 12009.3 687.061   2 
  -3   3  13 11717.9 685.077  44 
   3   3 -13 12452.6 620.601   9 
  -3   3  13 10426.3 779.709  22 
   3   3 -13 11839.4 583.423  20 
  -3   3  13 11919.0 782.503  12 
  -3   3  13 13295.8 749.707  31 
   3   3 -13 12055.4 656.043  28 
  -3   3  13 11574.8 724.890  25 
  -3   3  13 12318.7 623.053   7 
  -3   3  12 15407.6 860.385  44 
  -3   3  12 15967.5 983.174  12 
   3   3 -12 15336.4 754.122  16 
  -3   3  12 13970.6 972.734  22 
   3   3 -12 13733.1 704.634   9 
  -3   3  12 17217.7 920.574   2 
   3   3 -12 13961.7 753.295  28 
  -3   3  12 15818.7 941.834  25 
  -3   3  11 1011.14 231.463  44 
  -3   3  11 832.195 263.746  12 
  -3   3  11 1158.65 318.292  22 
   3   3 -11 863.641 195.877  28 
   3   3 -11 992.747 192.135  16 
  -3   3  10 19451.2 1072.88  44 
  -3   3  10 21351.5 1278.45  22 
   3   3 -10 19605.2 882.937   4 
  -3   3  10 23252.3 1296.96  12 
   3   3 -10 19816.7 926.474  16 
  -3   3   9 37064.8 1612.81  44 
   3   3  -9 36585.3 1392.00   4 
  -3   3   9 40524.2 1865.36  22 
   3   3  -9 34849.0 1498.41  40 
   3   3  -9 35446.8 1419.24  16 
   3   3  -8 13374.1 764.927  40 
   3   3  -8 12936.8 688.583   4 
   3   3  -8 12680.8 921.208  71 
   3   3  -8 13552.3 675.370   8 
  -3   3   8 12805.4 701.412  63 
  -3   3   8 12859.7 912.566  53 
   3   3  -7 7863.40 551.900  40 
   3   3  -7 7320.50 484.869   8 
  -3   3   7 7410.67 483.353  63 
  -3   3   7 7106.00 646.415  53 
   3   3  -7 7412.36 503.199   4 
   3   3  -6 20644.0 1160.35  71 
  -3   3   6 18964.2 876.072  63 
  -3   3   6 19883.4 1126.13  53 
   3   3  -6 19490.4 888.402  32 
   3   3  -5 50015.4 2063.17  71 
   3   3  -5 54007.2 1821.85  32 
  -3   3   5 47475.1 1719.05  63 
  -3   3   5 49357.7 2020.32  53 
   3   3  -4 12245.0 793.957  71 
  -3   3   4 9820.52 547.382  63 
  -3   3   4 12207.1 657.826  70 
   3   3  -4 13695.5 662.557   5 
  -3   3   4 11036.3 735.960  53 
   3   3  -3 32637.2 1517.60  71 
  -3   3   3 34655.3 1427.79  70 
  -3   3   3 34787.6 1498.44  53 
  -3   3   2 2372.96 290.756  70 
   3   3  -2 2313.12 337.795  65 
   3   3  -2 2592.80 285.613  34 
  -3   3   2 2295.08 280.788  53 
   3   3  -1 6995.57 579.945  65 
   3   3  -1 8044.53 544.031  34 
   3   3  -1 7034.84 552.222  70 
  -3   3   1 7042.46 535.715  70 
   3   3   0 20111.1 931.005   7 
   3   3   0 19033.1 938.475  44 
   3   3   0 20016.1 1034.64  65 
   3   3   0 21949.5 1026.90  70 
  -3   3   0 20540.5 1031.31  71 
   3   3   1 21532.8 1069.40  44 
   3   3   1 24872.5 1094.53   7 
  -3   3  -1 23146.5 1198.50  71 
   3   3   1 24039.8 1083.49  70 
   3   3   1 24354.1 1134.61  65 
   3   3   2 98872.8 3305.45   2 
   3   3   2 93305.3 3282.01  44 
   3   3   2 99436.0 3263.24  65 
  -3   3  -2 98865.7 3468.37  71 
   3   3   2 91357.9 3262.46  31 
   3   3   2 96689.2 3167.14  70 
   3   3   2 103508. 3294.92   7 
   3   3   3 86478.4 3015.36   2 
   3   3   3 85733.0 3008.88  44 
  -3   3  -3 86108.0 3186.37  71 
   3   3   3 82822.7 2991.49  31 
   3   3   3 86150.8 2881.20  65 
  -3   3  -3 86742.9 2934.23  69 
   3   3   3 94368.6 3008.39   7 
   3   3   4 29624.6 1398.63   2 
  -3   3  -4 32038.6 1570.14  71 
  -3   3  -4 28430.8 1314.25  69 
   3   3   4 30612.9 1409.45  44 
   3   3   4 28465.5 1379.34  31 
   3   3   4 25249.7 1337.97  25 
   3   3   4 30844.1 1370.64   7 
   3   3   5 48705.3 1967.57  44 
   3   3   5 46241.2 1953.99   2 
   3   3   5 43327.0 1903.48  31 
   3   3   5 47850.0 1878.48   7 
  -3   3  -5 42567.5 1817.11  69 
  -3   3  -5 45105.9 2075.51  71 
   3   3   5 41857.4 1896.76  25 
   3   3   6 34326.7 1505.93   7 
   3   3   6 33263.6 1567.94  44 
   3   3   6 32175.8 1549.23   2 
   3   3   6 32206.2 1550.63  31 
   3   3   6 29519.4 1530.99  25 
   3   3   7 18569.4 1092.12  44 
   3   3   7 15783.3 1024.50   2 
   3   3   7 16403.6 1033.59  31 
   3   3   8 24873.2 1273.86  44 
   3   3   8 21328.2 1127.29   7 
   3   3   8 22311.0 1216.11  31 
   3   3   8 20412.4 1194.20   2 
   3   3   9 457.688 206.337  44 
   3   3   9 334.563 151.955   7 
  -3   3  -9 457.282 123.207   9 
   3   3   9 583.729 167.919  34 
   3   3  10 7281.78 749.605  24 
   3   3  10 6985.07 554.863  44 
   3   3  11 7840.56 672.094  24 
   3   3  11 7460.90 495.011  44 
  -3   3 -11 6018.63 402.292  20 
  -3   4  12 10905.6 583.941   2 
  -3   4  12 10494.6 605.131  12 
   3   4 -12 11006.1 495.746   9 
   3   4 -12 11224.8 532.924  28 
  -3   4  12 11443.0 601.498  31 
  -3   4  12 11418.4 611.377  25 
  -3   4  12 11797.7 558.083   7 
  -3   4  11 37047.8 1537.69  12 
   3   4 -11 35553.8 1290.63   9 
  -3   4  11 41548.5 1536.05  31 
   3   4 -11 37366.0 1329.58  16 
   3   4 -11 35496.4 1337.86  28 
  -3   4  11 43362.2 1502.33   7 
  -3   4  11 39872.8 1543.81  25 
  -3   4  10 12104.3 775.742  12 
   3   4 -10 10888.8 583.763  16 
  -3   4  10 13452.2 787.027  31 
  -3   4  10 13866.5 807.130   2 
  -3   4  10 13591.5 802.453  25 
   3   4  -9 13802.4 674.487   4 
  -3   4   9 16391.6 950.120  12 
   3   4  -9 14982.6 720.614  16 
  -3   4   9 18027.3 980.931  25 
  -3   4   8 1518.63 294.729  12 
   3   4  -8 1120.83 188.140   4 
   3   4  -8 979.367 164.274   8 
   3   4  -7 1168.75 206.092  40 
   3   4  -7 1323.39 220.615   4 
   3   4  -7 1449.92 206.727   8 
   3   4  -6 4353.37 403.753  40 
   3   4  -6 4552.51 400.975   8 
   3   4  -5 801.044 173.518  32 
   3   4  -4 9496.50 603.502  32 
   3   4  -3 8347.75 557.810   5 
  -3   4   2 19635.8 1060.07  70 
   3   4  -2 25524.6 1134.03   5 
   3   4  -1 12224.9 818.011  70 
  -3   4   1 13066.9 820.039  70 
   3   4  -1 14225.4 794.734  34 
   3   4   0 19555.5 1018.38  34 
   3   4   1 9077.22 617.770   7 
   3   4   1 11487.8 735.934  34 
   3   4   2 36168.8 1580.30   7 
   3   4   2 43263.9 1744.65  34 
   3   4   3 7159.22 570.082   7 
   3   4   3 6126.48 541.212   2 
   3   4   4 36709.5 1596.15   7 
   3   4   4 38137.5 1591.03  44 
   3   4   4 33469.1 1589.89   2 
   3   4   5 6132.62 536.429   7 
   3   4   5 6070.35 521.257  44 
   3   4   5 9049.05 617.138   5 
   3   4   5 8066.48 623.101  34 
   3   4   5 5448.94 524.880   2 
   3   4   6 16558.4 938.161   7 
   3   4   6 18637.9 977.168  44 
   3   4   7 1588.43 252.066  44 
   3   4   7 1486.81 239.316   7 
   3   4   7 1387.78 326.339  24 
   3   4   7 1612.44 217.491   5 
   3   4   7 1889.50 274.672  34 
   3   4   8 8805.91 711.980  24 
   3   4   8 6906.99 493.280  44 
   3   4   8 8660.51 522.613  34 
   3   4   9 6004.64 527.098  24 
   3   4   9 5466.31 354.287  34 
   3   5  -8 15096.1 622.552  16 
  -3   5   8 17419.8 721.623   7 
   3   5  -7 9375.12 459.859   4 
   3   5  -7 9141.05 471.206  16 
  -3   5   7 11348.9 572.749   2 
  -3   5   7 12061.7 586.142   7 
   3   5  -6 6416.01 380.691   4 
   3   5  -6 5744.72 348.880   8 
   3   5  -5 3927.39 301.594   8 
   3   5  -5 3954.59 314.274   4 
   3   5  -4 12249.3 608.013  40 
   3   5  -4 10729.4 543.225  32 
   3   5  -4 11317.6 602.078   8 
   3   5  -3 12572.0 663.836  40 
   3   5  -3 11460.2 594.350  32 
   3   5  -2 3000.13 276.957   5 
   3   5  -2 3486.83 311.022  32 
   3   5  -1 5062.95 403.813  32 
   3   5  -1 4847.61 377.721   5 
   3   5   0 14884.3 749.760   5 
   3   5   1 28833.9 1155.27   5 
   3   5   1 25410.6 1087.50  34 
   3   5   2 1168.00 195.680  34 
   3   5   2 1121.00 198.029   5 
   3   5   3 50689.4 1875.42  34 
   3   5   3 57612.2 1916.71   5 
   3   5   4 681.183 151.374  34 
   3   5   5 5102.66 357.926  34 
   3   5   5 5237.16 337.229   5 
  -4  -5   8 4048.79 279.256  80 
   4  -5  -8 4482.71 261.817  72 
   4  -5  -7 5423.69 339.766  72 
  -4  -5   7 5951.22 447.465  51 
  -4  -5   7 5201.50 343.282  80 
   4  -5  -6 83.3680 103.311  72 
  -4  -5   6 102.675 132.473  51 
   4  -5  -5 1075.65 187.413  72 
  -4  -5   5 1205.27 271.286  51 
  -4  -5   5 1144.94 281.830  47 
   4  -5  -4 23868.9 996.709  72 
  -4  -5   4 21703.7 1211.26  51 
  -4  -5   4 22190.6 1294.86  47 
   4  -5  -3 5300.31 397.339  72 
  -4  -5   3 5589.58 589.521  51 
  -4  -5   3 4773.41 576.356  47 
   4  -5  -2 6996.62 429.600  79 
  -4  -5   2 5289.54 630.202  47 
   4  -5  -1 9954.26 548.920  72 
   4  -5  -1 10004.5 542.875  79 
  -4  -5   1 8878.33 821.149  47 
  -4  -5   0 16852.0 1083.52  46 
   4  -5   0 15549.5 717.613  72 
   4  -5   0 16280.3 743.113  79 
  -4  -5   0 14790.0 1079.28  47 
   4  -5   1 14051.2 647.543  79 
   4  -5   1 12980.9 601.979  72 
  -4  -5  -1 13393.7 954.439  46 
   4  -5   1 13211.0 723.266  78 
  -4  -5  -2 3269.20 462.422  46 
   4  -5   2 3497.91 338.957  78 
   4  -5   2 3605.31 282.179  79 
  -4  -5  -2 2888.04 437.945  47 
   4  -5   3 22183.9 851.170  79 
   4  -5   3 22540.0 998.256  78 
  -4  -5  -3 22271.6 1223.84  46 
  -4  -5  -4 4546.03 335.898  81 
   4  -5   4 5066.91 372.954  78 
   4  -5   5 8776.54 466.397  78 
  -4  -4  12 9407.98 808.389  14 
   4  -4 -12 10735.6 665.525  49 
   4  -4 -12 10263.0 697.729  48 
  -4  -4  12 10524.0 589.922  80 
   4  -4 -11 19367.1 1074.49  49 
  -4  -4  11 17522.1 1297.62  14 
   4  -4 -11 20099.3 1170.85  48 
  -4  -4  10 1453.44 454.426  14 
   4  -4 -10 2020.76 388.136  49 
  -4  -4   9 27581.6 1331.84  51 
   4  -4  -9 29545.5 1555.47  49 
  -4  -4   8 16862.8 1424.11  14 
  -4  -4   8 17375.5 1069.55  51 
   4  -4  -8 17850.7 1180.70  49 
   4  -4  -8 16952.9 1299.27  48 
  -4  -4   7 9402.48 1058.79  14 
  -4  -4   7 7913.44 1075.20  27 
  -4  -4   7 9900.64 841.025  51 
   4  -4  -7 9565.58 848.633  49 
   4  -4  -7 11507.9 1046.05  48 
  -4  -4   6 13227.6 889.284  80 
  -4  -4   6 11507.4 1293.72  27 
  -4  -4   6 11474.7 1181.34  14 
  -4  -4   6 13579.3 1064.26  51 
   4  -4  -6 14510.1 1028.88  49 
   4  -4  -6 13380.9 1123.95  48 
  -4  -4   5 5496.62 534.745  80 
  -4  -4   5 4432.91 814.441  27 
   4  -4  -5 4791.24 577.744  49 
   4  -4  -5 6514.40 757.809  48 
  -4  -4   5 5303.23 778.999  47 
  -4  -4   4 105102. 3521.44  80 
  -4  -4   4 94586.9 4431.64  27 
   4  -4  -4 100085. 3672.20  49 
   4  -4  -4 104296. 3916.93  48 
  -4  -4   4 95214.3 4222.27  47 
  -4  -4   3 37232.7 2065.33  46 
   4  -4  -3 40585.6 1559.54  79 
   4  -4  -3 37698.5 1598.63  78 
  -4  -4   3 38702.3 2398.06  27 
   4  -4  -3 34906.3 1543.44  77 
   4  -4  -3 36610.4 1706.13  49 
  -4  -4   3 35641.1 2235.97  47 
  -4  -4   2 17479.3 1351.47  46 
  -4  -4   2 17604.3 1523.99  27 
   4  -4  -2 17488.6 928.284  79 
   4  -4  -2 16876.8 989.749  78 
   4  -4  -2 15769.5 883.507  77 
  -4  -4   1 15674.2 1309.03  46 
   4  -4  -1 15364.3 1005.26  73 
   4  -4  -1 15395.4 889.811  79 
   4  -4  -1 17286.0 1024.99  78 
   4  -4  -1 15326.0 844.936  77 
  -4  -4   1 15226.0 1371.12  27 
  -4  -4   1 15544.5 1382.49  26 
  -4  -4   0 30611.1 1940.72  46 
   4  -4   0 29187.4 1457.24  75 
   4  -4   0 29584.7 1273.31  77 
  -4  -4   0 30969.4 1651.51  10 
   4  -4   0 28948.1 1487.62  78 
   4  -4   0 28166.0 1288.54  72 
  -4  -4   0 26862.6 1905.16  26 
   4  -4   0 30563.1 1571.43  73 
  -4  -4  -1 78607.2 3604.25  46 
  -4  -4  -1 77307.6 3204.10  10 
   4  -4   1 80482.7 3056.33  78 
   4  -4   1 78692.2 2709.00  72 
   4  -4   1 79679.0 3155.33  73 
  -4  -4  -1 75510.7 3611.83  26 
  -4  -4  -2 63990.2 2796.28  10 
   4  -4   2 68872.6 2694.79  78 
   4  -4   2 63371.4 2747.35  73 
   4  -4   2 64709.5 2257.54  72 
  -4  -4  -2 63658.2 3173.16  26 
  -4  -4  -2 62664.9 2591.74  49 
  -4  -4  -2 66559.5 3197.15  46 
   4  -4   3 12921.8 1021.11  73 
  -4  -4  -3 12599.2 1031.61  10 
   4  -4   3 13419.6 977.519  78 
  -4  -4  -3 14079.4 1245.79  35 
   4  -4   3 13573.7 694.081  72 
   4  -4   3 12045.8 762.668  80 
  -4  -4  -3 13524.6 1249.15  26 
  -4  -4  -3 12115.0 892.793  49 
  -4  -4  -4 20668.5 1529.94  35 
  -4  -4  -4 22282.9 1392.28  10 
   4  -4   4 19617.5 1004.17  80 
   4  -4   4 21503.7 1274.41  78 
   4  -4   4 21584.8 1319.95  73 
  -4  -4  -4 19731.0 1508.99  26 
  -4  -4  -4 22364.3 1194.18  49 
  -4  -4  -5 16514.4 1170.66  10 
   4  -4   5 16573.9 835.281  80 
  -4  -4  -5 17922.1 1361.53  35 
  -4  -4  -5 17626.3 1298.46  26 
  -4  -4  -5 17386.7 986.262  49 
  -4  -4  -6 4422.97 558.630  10 
  -4  -4  -6 4380.95 608.099  35 
   4  -4   6 4622.22 533.975  73 
  -4  -4  -6 4374.40 568.765  26 
  -4  -4  -7 3619.18 461.087  10 
   4  -4   7 3478.38 412.812  73 
  -4  -4  -8 3565.65 396.901  10 
  -4  -4  -8 3205.37 266.918  81 
   4  -4   8 3007.12 339.917  78 
   4  -4   9 3526.93 290.613  78 
  -4  -3  14 3040.74 447.817  38 
  -4  -3  14 3026.08 485.234  14 
   4  -3 -14 3294.49 406.424  49 
   4  -3 -14 3395.91 398.101  48 
  -4  -3  13 1225.39 359.292  38 
  -4  -3  13 921.088 406.638  14 
   4  -3 -13 1113.47 321.913  48 
   4  -3 -12 16552.8 1123.11  29 
  -4  -3  12 18411.0 1329.37  38 
  -4  -3  12 18065.7 1530.44  14 
   4  -3 -12 16435.1 1216.58  48 
   4  -3 -11 14958.6 1106.71  29 
  -4  -3  11 15185.7 1272.21  38 
   4  -3 -11 16880.8 1283.86  48 
  -4  -3  11 15144.0 1479.26  14 
  -4  -3  10 72286.2 3253.51  38 
  -4  -3  10 60775.3 3391.40  27 
   4  -3 -10 71582.5 2971.39  29 
   4  -3 -10 69460.8 3199.00  48 
   4  -3  -9 84105.1 3350.25  29 
   4  -3  -9 84904.5 2931.18  81 
  -4  -3   9 81676.8 4023.03  14 
  -4  -3   9 74151.2 3888.31  27 
  -4  -3   9 80868.0 3103.30  51 
  -4  -3   9 85197.7 3519.79  47 
   4  -3  -8 22311.1 1081.37  81 
  -4  -3   8 19086.4 1458.90  62 
   4  -3  -8 20432.9 1251.00  58 
   4  -3  -8 19153.3 1281.33  29 
  -4  -3   8 21014.1 1754.25  14 
  -4  -3   8 18531.6 1692.59  27 
  -4  -3   8 20055.9 1241.86  51 
  -4  -3   8 19261.5 1434.26  47 
  -4  -3   7 6734.01 822.040  62 
   4  -3  -7 8024.55 758.061  29 
  -4  -3   7 8593.37 1072.10  14 
  -4  -3   7 7070.06 1023.52  27 
   4  -3  -7 7218.13 696.070  58 
  -4  -3   7 7934.90 774.408  51 
   4  -3  -7 7839.62 884.976  48 
  -4  -3   7 8269.85 913.762  47 
   4  -3  -6 1099.14 223.307  81 
  -4  -3   6 1079.73 339.431  62 
   4  -3  -6 1054.29 278.256  58 
  -4  -3   6 1434.00 467.489  14 
   4  -3  -6 1132.52 364.566  48 
  -4  -3   6 1275.62 416.256  47 
   4  -3  -5 82178.2 3508.71  48 
  -4  -3   5 91818.1 3901.41  14 
  -4  -3   5 93057.6 3708.42  62 
   4  -3  -5 84708.7 3249.56  58 
  -4  -3   5 86012.6 4017.10  27 
   4  -3  -5 90538.8 2994.70  81 
   4  -3  -5 90453.0 3377.37  49 
  -4  -3   5 79374.3 3695.66  47 
  -4  -3   4 21780.7 1426.00  62 
   4  -3  -4 20705.9 973.330  81 
   4  -3  -4 20605.0 950.173  79 
   4  -3  -4 19580.0 975.331  78 
   4  -3  -4 21034.8 1195.63  58 
  -4  -3   4 20891.5 1375.63  46 
  -4  -3   4 22389.0 1545.82  14 
  -4  -3   4 21912.4 1682.02  27 
   4  -3  -4 18571.3 1160.45  49 
   4  -3  -4 18288.6 1048.33  76 
  -4  -3   4 19022.3 1426.91  26 
   4  -3  -4 20907.8 1332.97  48 
  -4  -3   3 39871.2 2069.14  46 
   4  -3  -3 37912.9 1752.39  58 
   4  -3  -3 38658.0 1477.18  81 
   4  -3  -3 39123.1 1525.68  79 
   4  -3  -3 37162.6 1595.80  78 
  -4  -3   3 37379.0 1986.29  62 
  -4  -3   3 37756.1 2063.26  14 
  -4  -3   3 42809.2 2371.13  27 
   4  -3  -3 35612.4 1694.63  49 
  -4  -3   3 36093.0 2094.02  26 
   4  -3  -3 39267.9 1886.76  48 
  -4  -3   2 2780.11 522.341  46 
   4  -3  -2 4042.08 432.303  78 
  -4  -3   2 3360.02 579.787  35 
  -4  -3   2 3647.29 465.838  10 
   4  -3  -2 3612.12 448.189  58 
  -4  -3   2 3726.46 549.191  62 
   4  -3  -2 3434.02 407.780  76 
  -4  -3   2 3996.62 676.685  27 
   4  -3  -2 4107.96 494.882  48 
  -4  -3   2 3188.48 588.779  26 
  -4  -3   1 7716.11 695.197  10 
   4  -3  -1 6488.66 581.599  78 
   4  -3  -1 6796.93 612.116  58 
   4  -3  -1 5854.30 512.947  77 
   4  -3  -1 7085.48 655.364  73 
   4  -3  -1 7010.74 588.999  76 
  -4  -3   1 8050.38 915.375  27 
  -4  -3   1 6920.12 838.085  35 
   4  -3  -1 6668.82 609.970  75 
  -4  -3   1 7475.96 765.846  62 
  -4  -3   1 6765.77 843.624  26 
  -4  -3   1 6397.44 591.509  49 
  -4  -3   1 8222.36 888.169  46 
  -4  -3   0 4146.05 619.771  39 
   4  -3   0 4535.35 429.487  80 
   4  -3   0 3952.35 404.575  77 
   4  -3   0 3820.34 439.804  76 
  -4  -3   0 4375.73 542.942  10 
  -4  -3   0 4664.45 696.811  27 
   4  -3   0 5122.59 548.207  75 
  -4  -3   0 4583.40 600.436  62 
   4  -3   0 4668.94 507.618  78 
   4  -3   0 4918.30 568.253  73 
  -4  -3   0 3898.90 476.484  49 
   4  -3   1 105455. 3719.99  77 
   4  -3   1 113889. 3784.26  80 
   4  -3   1 116859. 4048.35  78 
  -4  -3  -1 117926. 4196.91  10 
  -4  -3  -1 109979. 4365.43  39 
  -4  -3  -1 115814. 4521.30  27 
  -4  -3  -1 122611. 4270.45  62 
   4  -3   1 112922. 3670.89  72 
   4  -3   1 110764. 3888.04  76 
   4  -3   1 114123. 4169.51  73 
  -4  -3  -1 122225. 4653.62  26 
  -4  -3  -1 112907. 4000.09  49 
   4  -3   1 113377. 4051.70  75 
  -4  -3  -2 100952. 4100.55  35 
  -4  -3  -2 95611.1 3694.35  10 
  -4  -3  -2 94115.5 3848.78  39 
   4  -3   2 91557.8 3265.45  80 
   4  -3   2 92121.3 3518.32  78 
   4  -3   2 95536.4 3394.08  76 
   4  -3   2 94772.3 3120.07  72 
   4  -3   2 96399.8 3693.54  73 
   4  -3   2 91359.4 3535.11  75 
  -4  -3  -2 106678. 3750.83  62 
  -4  -3  -2 100964. 3982.26  27 
   4  -3   2 92918.2 3215.94  77 
  -4  -3  -2 99584.1 4083.04  26 
  -4  -3  -2 89995.1 3467.07  49 
   4  -3   3 175145. 5537.31  72 
   4  -3   3 188174. 5907.17  76 
  -4  -3  -3 177052. 6367.85  39 
  -4  -3  -3 178567. 6112.51  21 
   4  -3   3 178796. 6079.30  75 
  -4  -3  -3 189697. 6705.68  26 
   4  -3   3 183771. 5684.92  77 
  -4  -3  -3 187571. 6723.00  35 
   4  -3   3 175604. 5735.17  80 
  -4  -3  -3 178180. 6001.65  49 
   4  -3   3 181358. 6235.48  73 
  -4  -3  -4 22472.5 1514.78  39 
  -4  -3  -4 23319.7 1426.28  21 
   4  -3   4 23227.1 1173.14  80 
   4  -3   4 27843.8 1684.74  50 
   4  -3   4 22659.5 1124.42  77 
  -4  -3  -4 25323.7 1769.31  35 
   4  -3   4 23521.5 1488.93  73 
  -4  -3  -4 24210.1 1743.68  26 
   4  -3   4 24761.7 1041.09  72 
  -4  -3  -4 21923.0 1308.52  49 
  -4  -3  -5 1153.78 422.116  35 
   4  -3   5 982.719 215.975  80 
   4  -3   5 1012.11 312.025  75 
  -4  -3  -5 741.152 286.466  21 
   4  -3   5 1007.25 333.399  73 
   4  -3   5 700.810 313.576  50 
  -4  -3  -5 1069.55 406.631  26 
  -4  -3  -6 42194.9 2138.17  21 
   4  -3   6 51468.5 2532.14  50 
   4  -3   6 44103.9 2198.97  73 
  -4  -3  -6 47026.7 2591.84  35 
  -4  -3  -6 45855.4 2493.19  26 
   4  -3   7 28233.6 1574.30  73 
   4  -3   7 31335.6 1878.27  50 
  -4  -3  -7 27328.3 1578.47  21 
  -4  -3  -7 27143.2 1750.66  26 
  -4  -3  -7 28646.7 1867.18  35 
   4  -3   8 23593.3 1513.95  50 
   4  -3   8 18967.5 1176.84  73 
  -4  -3  -8 19599.7 1229.66  21 
  -4  -3  -8 19496.1 1421.05  35 
  -4  -3  -8 21507.6 1399.48  26 
  -4  -3  -9 968.864 271.978  21 
  -4  -3  -9 525.633 276.575  35 
   4  -3   9 882.737 233.470  73 
   4  -3   9 1492.44 371.660  50 
   4  -3  10 601.238 192.559  78 
   4  -3  10 553.830 243.448  50 
  -4  -3 -10 361.851 186.822  35 
   4  -3  11 1504.61 217.718  78 
   4  -2 -16 2649.50 308.857  29 
  -4  -2  16 2916.97 432.323  50 
  -4  -2  15 7925.99 830.987  38 
   4  -2 -15 7805.40 639.738  29 
  -4  -2  15 7955.74 761.663  14 
   4  -2 -15 7786.28 626.044  48 
   4  -2 -14 6373.45 602.738  11 
  -4  -2  14 7422.98 888.695  38 
   4  -2 -14 5409.44 627.205  48 
  -4  -2  14 5938.75 585.856  43 
   4  -2 -14 5500.27 599.748  29 
  -4  -2  14 5296.75 750.340  14 
  -4  -2  13 2861.75 448.924  43 
   4  -2 -13 3204.46 461.240  11 
  -4  -2  13 3587.21 663.589  38 
  -4  -2  13 2985.00 658.891  14 
   4  -2 -13 2958.61 476.145  29 
   4  -2 -13 2635.26 488.099  48 
   4  -2 -12 10698.9 861.629  11 
   4  -2 -12 10566.5 933.367  29 
  -4  -2  12 9422.52 1182.15  14 
   4  -2 -12 9778.06 981.928  48 
  -4  -2  11 47192.3 2156.61  42 
   4  -2 -11 51184.5 2237.58  11 
   4  -2 -11 49541.6 2222.24   1 
  -4  -2  11 49763.7 2890.56  14 
  -4  -2  11 42372.3 2582.31  27 
   4  -2 -11 48695.8 2291.08  29 
   4  -2 -11 51801.4 2326.37   8 
   4  -2 -10 4062.17 502.434  58 
  -4  -2  10 3564.14 483.444  42 
   4  -2 -10 4203.88 534.209  11 
   4  -2 -10 4282.58 551.760   1 
   4  -2 -10 3537.30 532.624  29 
   4  -2 -10 3957.30 557.607   3 
  -4  -2  10 4188.57 449.086  55 
   4  -2 -10 3197.19 527.208   8 
  -4  -2  10 3358.31 674.719  27 
  -4  -2  10 4669.27 824.491  14 
   4  -2  -9 7596.15 729.969  29 
  -4  -2   9 6952.69 643.264  42 
   4  -2  -9 7102.61 672.353  11 
   4  -2  -9 8355.78 571.745  81 
   4  -2  -9 7757.70 709.522   1 
   4  -2  -9 8350.60 786.428   3 
   4  -2  -9 8363.67 693.348  58 
  -4  -2   9 8113.39 1021.55  14 
   4  -2  -9 6260.26 566.441  61 
  -4  -2   9 6892.69 943.699  27 
  -4  -2   9 7857.49 604.383  55 
   4  -2  -9 8245.93 797.909   8 
  -4  -2   9 7499.34 613.839  51 
  -4  -2   9 7586.40 789.585  47 
   4  -2  -8 15718.6 967.577  11 
   4  -2  -8 16125.1 816.941  81 
  -4  -2   8 14707.2 1099.16  36 
   4  -2  -8 15073.1 1053.31   3 
   4  -2  -8 14756.2 972.192   1 
   4  -2  -8 14498.8 990.639  29 
   4  -2  -8 12992.8 813.927  61 
  -4  -2   8 17505.4 1446.14  14 
   4  -2  -8 13931.6 907.567  58 
  -4  -2   8 13002.3 1274.20  27 
  -4  -2   8 14682.5 828.502  55 
   4  -2  -8 13557.2 1029.86   8 
  -4  -2   8 13763.4 892.526  51 
  -4  -2   8 12994.9 1062.73  47 
   4  -2  -7 7286.27 618.421  11 
   4  -2  -7 8375.42 758.685   8 
   4  -2  -7 8845.48 699.407  29 
   4  -2  -7 9842.84 801.280   3 
   4  -2  -7 7760.75 562.802  61 
   4  -2  -7 8598.66 654.567  58 
  -4  -2   7 8577.81 771.714  36 
  -4  -2   7 9382.11 1018.59  27 
  -4  -2   7 8123.79 552.576  55 
  -4  -2   7 8508.16 692.104  51 
  -4  -2   7 7739.24 794.684  47 
   4  -2  -6 2400.23 391.843   3 
   4  -2  -6 1845.50 251.160  61 
   4  -2  -6 1766.19 288.262  58 
  -4  -2   6 2022.74 248.731  55 
  -4  -2   6 2077.34 493.286  27 
   4  -2  -6 1348.99 321.241   8 
  -4  -2   6 1806.08 401.005  47 
   4  -2  -5 70416.2 2518.47  58 
   4  -2  -5 72571.3 2341.09  61 
  -4  -2   5 70338.1 2925.07  62 
  -4  -2   5 65846.7 2300.65  55 
  -4  -2   4 31840.1 1687.91  62 
   4  -2  -4 31985.2 1390.19  58 
  -4  -2   3 73744.8 2393.59  56 
   4  -2  -3 71349.3 2342.31  60 
   4  -2  -2 22937.4 923.503  60 
  -4  -2   2 23215.4 943.070  56 
  -4  -2   1 38604.8 1436.01  56 
   4  -2  -1 41466.9 1455.92  60 
   4  -2  -1 39295.3 1593.34  58 
  -4  -2   0 21579.6 1213.88  62 
   4  -2   0 21250.5 1000.12  58 
   4  -2   0 19712.4 884.837  60 
  -4  -2   0 18902.0 874.474  56 
   4  -2   1 65782.6 2298.33  57 
  -4  -2  -1 69587.8 2656.74  62 
   4  -2   1 64149.1 2345.97  58 
   4  -2   2 284861. 8578.03  57 
  -4  -2  -2 287700. 8897.80  62 
  -4  -2  -3 51706.5 2380.19  39 
  -4  -2  -3 49130.3 2126.05  21 
  -4  -2  -3 52991.8 1894.86  64 
   4  -2   3 47976.0 2642.68  15 
  -4  -2  -3 51744.5 2444.55  26 
  -4  -2  -3 55804.4 2455.00  27 
   4  -2   3 51973.3 2059.05  57 
  -4  -2  -3 55038.6 2249.22  62 
  -4  -2  -3 56182.6 1968.93  66 
   4  -2   3 59428.4 2639.74  50 
  -4  -2  -4 9342.95 872.344  39 
  -4  -2  -4 9895.27 769.675  21 
   4  -2   4 9455.49 697.857  76 
   4  -2   4 8693.43 600.673  77 
  -4  -2  -4 9912.88 640.687  66 
  -4  -2  -4 8679.12 575.806  64 
   4  -2   4 8340.34 994.822  15 
   4  -2   4 8777.50 744.149  75 
  -4  -2  -4 10318.9 911.416  27 
   4  -2   4 9281.19 713.754  57 
   4  -2   4 7772.57 743.615  74 
  -4  -2  -4 10018.6 935.734  26 
   4  -2   4 10147.3 1005.38  50 
  -4  -2  -5 2354.59 320.570  66 
   4  -2   5 2412.83 434.536  74 
  -4  -2  -5 2334.17 457.982  39 
  -4  -2  -5 1502.92 342.472  21 
  -4  -2  -5 1933.67 270.841  64 
   4  -2   5 2194.84 384.105  75 
   4  -2   5 1977.59 348.795  57 
   4  -2   5 2221.87 544.028  50 
  -4  -2  -5 2411.20 499.703  26 
   4  -2   6 9927.65 1118.25  23 
  -4  -2  -6 11152.5 904.917  21 
  -4  -2  -6 10699.5 973.532  39 
   4  -2   6 11777.4 891.093  75 
  -4  -2  -6 11209.4 768.938  66 
   4  -2   6 9608.37 820.159  57 
  -4  -2  -6 10558.6 1033.44  26 
   4  -2   6 11415.6 1184.90  50 
   4  -2   7 51964.0 2298.32  75 
  -4  -2  -7 51825.9 2401.00  21 
   4  -2   7 52642.3 2400.55  73 
  -4  -2  -7 51537.5 2492.54  39 
  -4  -2  -7 54285.4 2209.90  66 
  -4  -2  -7 56329.3 2741.37  26 
  -4  -2  -8 4602.09 599.266  21 
   4  -2   8 5059.89 586.471  73 
  -4  -2  -8 5258.90 737.578  26 
  -4  -2  -9 4759.55 595.939  21 
   4  -2   9 5282.34 552.048  73 
  -4  -2  -9 4838.01 666.554  26 
   4  -2  10 4628.57 578.627  45 
  -4  -2 -10 6232.35 641.332  21 
  -4  -2 -10 6568.46 496.971  82 
  -4  -2 -10 5885.56 655.958  26 
  -4  -2 -11 1545.66 298.754  21 
   4  -2  11 3035.04 508.516  50 
   4  -2  12 2466.22 368.480  50 
  -4  -2 -12 1702.20 258.393  21 
  -4  -1  16 4426.22 493.473  43 
   4  -1 -16 4700.99 437.415  11 
  -4  -1  16 5472.04 671.163  38 
  -4  -1  16 5156.66 628.461  50 
  -4  -1  15 5898.78 661.225  43 
   4  -1 -15 7036.30 605.714  11 
   4  -1 -15 5911.94 540.316   1 
  -4  -1  15 5808.00 792.504  38 
   4  -1 -15 5136.24 555.963  48 
   4  -1 -14 1229.52 293.178   1 
   4  -1 -14 1087.49 295.706  11 
  -4  -1  14 1298.03 472.599  38 
   4  -1 -14 882.571 294.424  29 
   4  -1 -13 5386.76 587.329  11 
  -4  -1  13 4901.07 648.678  42 
   4  -1 -13 5583.82 580.253   3 
   4  -1 -13 5907.31 649.445  29 
   4  -1 -13 4969.88 558.428   1 
  -4  -1  13 5706.53 837.964  14 
   4  -1 -12 37264.7 1841.05  29 
  -4  -1  12 38352.8 1959.58  42 
   4  -1 -12 37506.6 2195.53  40 
   4  -1 -12 38389.8 1765.75   1 
   4  -1 -12 38079.7 1806.86   3 
  -4  -1  12 35573.7 1765.15  63 
   4  -1 -12 37380.8 1693.44  68 
  -4  -1  12 35648.8 2292.56  14 
  -4  -1  11 18337.4 1220.27  42 
   4  -1 -11 18033.8 1401.46  40 
   4  -1 -11 20201.1 1121.92   1 
   4  -1 -11 18634.0 1150.95   3 
   4  -1 -11 16993.9 1031.38  68 
  -4  -1  11 19701.4 1148.52  63 
  -4  -1  11 16657.7 1098.67  30 
   4  -1 -11 18814.6 1156.24  29 
   4  -1 -11 18735.3 1153.08   8 
  -4  -1  11 19556.5 1589.40  14 
  -4  -1  11 18974.6 1132.59  55 
  -4  -1  10 2292.71 411.183  42 
  -4  -1  10 2135.04 394.537  41 
   4  -1 -10 1999.99 338.975   1 
   4  -1 -10 2381.02 490.558  40 
   4  -1 -10 2541.57 390.825   3 
  -4  -1  10 2533.16 499.696  36 
  -4  -1  10 2397.66 373.707  63 
  -4  -1  10 2767.47 385.657  30 
   4  -1 -10 2855.38 365.707  68 
  -4  -1  10 2858.67 395.033  55 
  -4  -1  10 2781.07 596.412  14 
   4  -1 -10 2379.31 401.249   8 
  -4  -1   9 8148.54 703.926  42 
   4  -1  -9 8123.69 618.321   1 
   4  -1  -9 8908.73 623.622  68 
  -4  -1   9 8299.81 716.329  41 
   4  -1  -9 8463.85 675.668   3 
   4  -1  -9 7944.96 678.923   8 
  -4  -1   9 8217.26 647.724  63 
  -4  -1   9 8261.33 638.403  30 
  -4  -1   9 9242.09 966.867  14 
  -4  -1   9 8701.13 651.112  55 
  -4  -1   8 51437.3 2199.90  41 
   4  -1  -8 54772.1 2376.39  40 
  -4  -1   8 54788.9 2424.29  17 
   4  -1  -8 56890.4 2210.50   8 
   4  -1  -8 57876.5 2084.17  68 
  -4  -1   8 56686.5 2109.85  55 
   4  -1  -7 11589.8 671.437  68 
  -4  -1   7 12066.3 696.866  55 
  -4  -1   6 59128.1 2032.38  55 
  -4  -1   6 60228.5 2103.04  63 
   4  -1  -6 53393.1 2015.95  59 
   4  -1  -5 148947. 4547.08  59 
  -4  -1   5 154320. 4613.24  63 
   4  -1  -5 138066. 4560.93  61 
  -4  -1   5 149565. 4557.94  56 
   4  -1  -4 39340.2 1503.95  59 
  -4  -1   4 42091.9 1529.36  56 
  -4  -1   4 42728.0 1371.21  52 
   4  -1  -4 42032.2 1518.43  61 
  -4  -1   3 247685. 7071.25  52 
   4  -1  -3 260157. 7255.53  61 
   4  -1  -3 238241. 7227.72  59 
  -4  -1   3 244803. 7263.00  56 
   4  -1  -3 237433. 7231.77  58 
  -4  -1   2 241810. 7335.26  62 
  -4  -1   2 237453. 7017.62  56 
   4  -1  -2 239746. 6997.33  59 
   4  -1  -2 232365. 6975.37  58 
  -4  -1   1 58279.4 1866.84  67 
  -4  -1   1 54240.4 2170.06  62 
   4  -1  -1 58418.2 1935.96  58 
  -4  -1   0 17698.5 746.893  67 
   4  -1   0 20169.7 890.178  57 
  -4  -1   0 17354.9 952.642  62 
   4  -1   0 17967.1 795.483  60 
   4  -1   0 17040.1 770.949  58 
  -4  -1  -1 128735. 3816.43  67 
   4  -1   1 131845. 4018.80  57 
  -4  -1  -1 128021. 4089.73  62 
   4  -1   1 122600. 3809.47  58 
  -4  -1  -2 69134.0 2195.41  69 
  -4  -1  -2 64373.4 2463.51  62 
   4  -1   2 70870.6 2363.41  60 
   4  -1   2 72098.6 2528.02  57 
  -4  -1  -2 67453.4 2465.41  54 
  -4  -1  -2 70094.3 2308.23  67 
  -4  -1  -3 23425.7 906.403  69 
  -4  -1  -3 22515.0 1119.54  62 
   4  -1   3 22078.0 1174.93  57 
  -4  -1  -3 22452.5 1126.02  54 
  -4  -1  -4 2976.96 416.951  37 
  -4  -1  -4 2674.04 371.118  54 
  -4  -1  -4 3028.65 265.318  69 
  -4  -1  -4 3021.27 324.264  64 
   4  -1   4 2759.97 408.154  57 
   4  -1   4 2539.21 495.262  50 
   4  -1   5 2144.29 423.003  24 
   4  -1   5 2563.52 561.832  23 
   4  -1   5 3333.65 497.546  57 
  -4  -1  -5 3210.80 418.044  54 
  -4  -1  -5 2825.24 367.935  18 
  -4  -1  -5 2719.11 268.170  69 
  -4  -1  -5 2713.22 429.171  37 
  -4  -1  -5 2449.09 318.102  64 
   4  -1   5 4067.61 680.416  15 
  -4  -1  -5 3007.34 465.164  26 
   4  -1   5 2888.09 581.942  50 
   4  -1   6 40255.1 2164.93  24 
   4  -1   6 46113.6 2602.86  23 
   4  -1   6 50712.5 2657.27  15 
  -4  -1  -6 49752.0 2239.57  26 
  -4  -1  -6 47251.3 2017.17  18 
   4  -1   6 46184.3 1968.15  75 
   4  -1   6 46112.2 2054.43  74 
  -4  -1  -6 47605.3 1896.38  64 
   4  -1   6 47987.1 2270.83  57 
  -4  -1  -6 43014.5 2017.80  54 
   4  -1   6 51575.5 2658.81  50 
  -4  -1  -6 50531.1 1980.83  66 
   4  -1   7 21539.2 1757.52  23 
   4  -1   7 22724.7 1296.85  74 
  -4  -1  -7 24595.3 1342.56  18 
  -4  -1  -7 22959.9 1239.22  66 
  -4  -1  -7 21994.7 1182.34  64 
   4  -1   7 24684.3 1805.77  15 
   4  -1   7 23032.4 1503.47  57 
  -4  -1  -7 23478.6 1343.99  54 
  -4  -1  -7 24131.2 1493.54  26 
   4  -1   7 27928.9 1907.11  50 
   4  -1   8 59591.1 3245.41  23 
   4  -1   8 65573.0 3285.12  15 
  -4  -1  -8 64780.0 2628.71  18 
  -4  -1  -8 59830.8 2469.01  66 
   4  -1   8 59134.3 2796.15  57 
  -4  -1  -8 61819.1 2822.44  37 
  -4  -1  -8 65163.2 2847.39  26 
   4  -1   8 72806.4 3378.78  50 
  -4  -1  -8 56747.0 2550.73  54 
   4  -1   9 25110.8 2001.64  23 
  -4  -1  -9 29516.8 1587.38  18 
   4  -1   9 30458.5 2063.86  15 
  -4  -1  -9 29761.6 1766.36  37 
  -4  -1  -9 28467.2 1717.15  26 
   4  -1   9 31447.4 2045.20  50 
   4  -1  10 1473.81 447.471  15 
   4  -1  10 1337.78 512.716  23 
  -4  -1 -10 1023.73 308.906  39 
  -4  -1 -10 766.782 319.413  37 
  -4  -1 -10 1490.39 389.570  26 
   4  -1  10 1644.30 476.813  50 
   4  -1  11 299.085 311.973  23 
  -4  -1 -11 121.214 167.085  21 
  -4  -1 -11-78.2644 197.999  37 
   4  -1  11-143.573 283.942  50 
  -4  -1 -11 36.8258 167.955  26 
   4  -1  12 5122.92 577.224  50 
  -4  -1 -12 3654.73 371.099  82 
   4  -1  12 3301.08 553.135  23 
  -4  -1 -12 3779.88 425.322  21 
   4  -1  12 3596.03 488.436  45 
  -4  -1 -12 3901.28 448.214  26 
  -4  -1 -13 20789.4 953.680  21 
  -4  -1 -13 21375.0 875.789  82 
  -4   0  17 2171.27 310.614  43 
  -4   0  16 131.012 207.224  43 
   4   0 -16 185.256 127.674  11 
  -4   0  16 258.525 198.277  38 
   4   0 -16 205.412 139.852   1 
  -4   0  15 3847.83 575.688  43 
  -4   0  15 4226.40 648.380  38 
   4   0 -15 3918.51 434.596   1 
   4   0 -14 26001.5 1276.23   1 
  -4   0  14 21022.1 1262.08  22 
   4   0 -14 26168.7 1642.50  40 
  -4   0  14 25460.1 1782.09  38 
  -4   0  13 2942.37 531.440  42 
  -4   0  13 2859.19 440.737  22 
   4   0 -13 2976.55 558.972  40 
  -4   0  13 3410.26 531.541  30 
   4   0 -13 2901.07 398.669   1 
  -4   0  12 17287.1 1247.52  42 
  -4   0  12 17270.4 1101.08  22 
   4   0 -12 15385.5 1224.68  40 
  -4   0  12 17325.8 1021.68  63 
   4   0 -12 17439.7 1044.09  68 
  -4   0  12 15517.3 1143.06  30 
   4   0 -12 16374.4 956.448   1 
  -4   0  12 17653.2 1125.09  55 
  -4   0  11 931.694 290.877  42 
  -4   0  11 534.864 245.314  41 
  -4   0  11 1106.33 267.608  22 
   4   0 -11 1139.40 342.664  40 
   4   0 -11 623.807 208.511   9 
  -4   0  11 733.734 271.682  30 
   4   0 -11 955.357 237.954  68 
  -4   0  11 993.313 260.664  55 
   4   0 -11 1041.26 232.506   1 
  -4   0  10 29825.6 1589.30  42 
  -4   0  10 31023.8 1621.82  41 
   4   0 -10 28329.6 1560.72  40 
  -4   0  10 27694.9 1658.25  36 
   4   0 -10 31586.3 1304.53   9 
  -4   0  10 28443.4 1511.54  30 
   4   0 -10 29815.1 1373.34   8 
   4   0 -10 31219.6 1362.30  28 
  -4   0  10 32231.8 1509.75  55 
  -4   0   9 47854.5 2104.16  41 
   4   0  -9 46959.9 2044.74  40 
   4   0  -9 48232.7 1871.72   8 
  -4   0   9 48411.4 2225.32  36 
   4   0  -9 49361.4 1775.52   9 
  -4   0   9 48398.8 2261.94  17 
  -4   0   9 50299.6 1858.18  63 
   4   0  -9 50138.2 1829.85  28 
  -4   0   9 50432.4 1993.99  55 
   4   0  -8 77147.3 2647.14  68 
  -4   0   8 77820.6 2583.82  63 
  -4   0   8 75661.0 2709.13  55 
   4   0  -7 50784.5 1779.79  68 
  -4   0   7 46405.1 1696.74  63 
  -4   0   7 48044.9 1807.02  55 
  -4   0   6 4830.25 346.020  63 
   4   0  -6 4986.43 379.189  68 
  -4   0   6 4494.66 349.547  52 
   4   0  -5 5409.03 378.061  68 
  -4   0   5 4983.32 336.301  63 
  -4   0   5 5606.48 412.927  56 
  -4   0   5 5323.59 362.037  52 
   4   0  -4 191354. 6062.12  61 
  -4   0   4 208333. 5953.05  63 
  -4   0   4 205932. 6084.58  56 
  -4   0   4 204237. 5984.38  52 
   4   0  -3 108247. 3255.06  61 
  -4   0   3 97778.5 3114.99  63 
   4   0  -3 102268. 3251.47  59 
  -4   0   3 107374. 3264.76  56 
  -4   0   2 4016.01 334.247  56 
   4   0  -2 4379.90 244.581  58 
   4   0  -2 3817.64 324.247  59 
  -4   0   1 2983.37 299.429  54 
  -4   0   1 3237.91 316.589  62 
   4   0  -1 2879.04 190.690  58 
   4   0  -1 3523.21 315.626  57 
   4   0  -1 2969.63 275.994  59 
   4   0   0 46317.3 1559.36  59 
  -4   0   0 41705.4 1542.40  62 
   4   0   0 41222.0 1333.18  58 
   4   0   0 46374.3 1639.12  57 
  -4   0   0 43803.2 1596.36  54 
  -4   0  -1 158943. 5006.22  62 
  -4   0  -1 165693. 4987.43  67 
   4   0   1 167171. 5024.45  60 
   4   0   1 177463. 5227.12  57 
  -4   0  -1 168893. 5141.52  54 
  -4   0  -2 18397.1 944.802  54 
  -4   0  -2 18300.2 804.529  62 
   4   0   2 19532.6 860.663  60 
   4   0   2 18260.9 995.397  57 
  -4   0  -2 20086.9 844.042  67 
  -4   0  -3 191054. 5693.06  69 
   4   0   3 185644. 5390.32  63 
   4   0   3 193961. 5739.61  60 
   4   0   3 201106. 6078.37  57 
  -4   0  -3 184107. 5878.86  54 
  -4   0  -3 189110. 5702.98  67 
   4   0   4 2571.88 410.151  57 
  -4   0  -4 3198.04 317.359  69 
   4   0   5 2173.97 389.891  24 
  -4   0  -5 1677.88 236.518  18 
  -4   0  -5 1575.03 237.419  69 
  -4   0  -5 1099.12 222.156  64 
   4   0   5 1187.73 316.663  57 
   4   0   5 1137.10 364.999  50 
   4   0   6 43999.6 2078.19  24 
  -4   0  -6 38551.6 1588.36  20 
  -4   0  -6 40865.9 1629.16  18 
  -4   0  -6 39852.9 1628.49  69 
  -4   0  -6 40554.1 1685.54  64 
   4   0   6 40857.3 2076.68  57 
  -4   0  -6 36770.6 1821.26  54 
   4   0   6 43709.9 2221.39  50 
   4   0   7 46884.1 2190.53  24 
  -4   0  -7 38217.4 1744.01  64 
  -4   0  -7 41778.4 1724.84  20 
  -4   0  -7 41371.4 1708.24  69 
  -4   0  -7 41070.7 1784.46  66 
  -4   0  -7 42044.6 1751.52  18 
   4   0   7 40821.2 2190.18  57 
  -4   0  -7 37389.5 1913.17  54 
   4   0   7 50132.3 2440.21  50 
   4   0   8-52.5808 188.125  57 
   4   0   8 47.4229 224.453  24 
  -4   0  -8 78.8079 152.278  20 
  -4   0  -8 27.8102 157.324  18 
  -4   0  -8-24.2828 110.753  69 
  -4   0  -8 174.689 156.253  66 
  -4   0  -8 84.7188 123.746  64 
  -4   0  -8 39.3896 179.650  54 
   4   0   8-57.8700 242.784  50 
   4   0   9 6849.82 791.400  24 
  -4   0  -9 8148.86 677.009  20 
  -4   0  -9 7302.10 668.785  18 
   4   0   9 8303.96 941.644  50 
   4   0  10 7565.27 820.371  24 
  -4   0 -10 9002.42 746.437  18 
   4   0  10 10853.2 1203.49  15 
  -4   0 -10 9724.26 874.957  26 
   4   0  10 10201.8 975.323  50 
   4   0  11 28022.3 2005.45  23 
   4   0  11 31321.0 2037.11  15 
  -4   0 -11 31781.9 1523.39  18 
  -4   0 -11 27395.4 1594.69  37 
  -4   0 -11 28885.7 1592.97  26 
   4   0  12 3183.79 624.703  23 
  -4   0 -12 3767.28 473.114  37 
  -4   0 -12 3773.86 460.474  26 
  -4   0 -12 3797.59 431.064  18 
  -4   0 -12 3121.36 366.170  82 
   4   0  12 3001.08 547.573  15 
   4   0  13 6192.57 584.391  45 
   4   0  13 5394.43 639.673  23 
  -4   0 -13 6389.29 461.527  21 
  -4   0 -13 6484.53 443.313  82 
  -4   0 -13 6639.36 538.617  37 
  -4   1  16 4556.97 504.711  43 
   4   1 -16 5817.24 429.307   1 
  -4   1  15 5713.09 646.823  43 
  -4   1  15 5902.32 574.167  22 
   4   1 -15 5568.24 590.234  40 
   4   1 -15 5942.68 494.446   1 
   4   1 -14 1104.54 234.058   1 
  -4   1  14 657.335 196.403  12 
  -4   1  14 820.112 279.186  22 
   4   1 -14 1424.30 365.215  40 
   4   1 -13 5408.08 499.184   9 
  -4   1  13 5191.58 532.972  12 
  -4   1  13 6265.62 720.357  42 
   4   1 -13 5302.12 660.047  40 
  -4   1  13 5757.14 694.002  30 
  -4   1  13 5310.28 476.548  25 
  -4   1  13 6027.67 665.594  22 
  -4   1  12 40508.5 1754.76  12 
  -4   1  12 39252.5 1986.01  42 
  -4   1  12 37167.6 1874.81  22 
   4   1 -12 35201.1 1861.33  40 
   4   1 -12 37117.8 1483.75  20 
   4   1 -12 38340.4 1559.90   9 
  -4   1  12 36363.4 1615.44  63 
  -4   1  12 36513.3 1938.01  30 
   4   1 -12 40111.7 1661.97  28 
   4   1 -12 35591.1 1706.26  68 
  -4   1  11 19367.5 1277.72  42 
   4   1 -11 17322.5 1142.84  40 
   4   1 -11 19784.5 932.044   9 
  -4   1  11 18269.1 978.535  63 
  -4   1  11 19604.2 1277.07  30 
   4   1 -11 20115.0 993.213  28 
   4   1 -11 18674.0 1076.85  68 
  -4   1  11 19180.3 1156.37  55 
  -4   1  11 19534.5 1064.41  53 
  -4   1  10 2239.12 394.222  42 
  -4   1  10 2767.36 436.256  41 
   4   1 -10 2484.98 385.677  40 
   4   1 -10 2697.85 306.043  28 
  -4   1  10 2502.95 441.539  36 
  -4   1  10 3407.25 345.767  63 
   4   1 -10 2559.99 273.318   9 
   4   1 -10 2409.70 288.106  71 
   4   1 -10 2506.64 356.092  68 
  -4   1  10 2876.94 458.270  30 
   4   1 -10 2777.51 310.931  16 
   4   1 -10 2259.86 288.888   8 
  -4   1  10 2509.97 371.383  55 
  -4   1  10 1917.65 416.753  17 
  -4   1   9 7673.96 703.429  42 
  -4   1   9 7465.74 701.577  41 
   4   1  -9 8280.08 623.753  40 
   4   1  -9 9453.28 483.232   9 
  -4   1   9 8534.75 743.959  36 
  -4   1   9 8832.55 661.993  55 
   4   1  -9 8714.76 568.290  71 
  -4   1   9 7962.50 760.786  17 
   4   1  -9 8379.36 519.017   8 
   4   1  -9 8627.38 514.540  16 
  -4   1   9 9077.44 550.551  63 
   4   1  -9 7447.40 486.921  28 
   4   1  -9 8029.13 602.453  68 
   4   1  -8 57734.3 2037.72  71 
  -4   1   8 55826.0 2274.56  41 
   4   1  -8 53905.2 2046.88  40 
   4   1  -8 56925.1 1917.65   4 
   4   1  -8 57272.3 2087.10  68 
  -4   1   8 58576.3 1958.65  63 
  -4   1   8 56183.2 2146.64  55 
  -4   1   7 11535.8 694.878  55 
   4   1  -7 11852.0 651.421  71 
   4   1  -7 12511.0 676.079  68 
  -4   1   7 11983.9 694.623  52 
  -4   1   7 12347.8 589.050  63 
   4   1  -6 59488.6 2098.88  68 
  -4   1   6 62893.9 1992.80  63 
   4   1  -6 64192.2 2123.29  71 
  -4   1   6 60037.3 2148.55  55 
  -4   1   6 61757.9 2150.36  52 
   4   1  -5 160521. 4695.52  68 
   4   1  -5 155108. 4788.42  61 
   4   1  -5 156449. 4719.32  71 
  -4   1   5 163456. 4781.82  56 
  -4   1   5 149185. 4570.60  63 
  -4   1   5 150794. 4749.56  52 
   4   1  -4 43722.3 1469.53  68 
   4   1  -4 41778.0 1544.30  61 
  -4   1   4 41361.6 1355.70  63 
  -4   1   4 43550.9 1542.70  56 
  -4   1   4 42072.5 1534.72  52 
  -4   1   3 229224. 6910.53  63 
   4   1  -3 237970. 7166.75  59 
  -4   1   3 252801. 7158.94  56 
  -4   1   2 216419. 6345.43  70 
  -4   1   2 226757. 6368.07  63 
  -4   1   2 232472. 6633.95  56 
   4   1  -2 228136. 6628.97  59 
   4   1  -1 58140.6 1725.29  70 
   4   1  -1 54711.5 1931.08  59 
  -4   1   1 56338.0 1932.96  54 
   4   1  -1 58055.6 1827.62  65 
   4   1   0 18372.3 700.197  65 
   4   1   0 19390.8 816.322  59 
   4   1   0 18771.7 869.417  57 
  -4   1   0 17283.2 826.216  54 
  -4   1  -1 119667. 3757.15  67 
   4   1   1 123815. 3624.55  65 
   4   1   1 124113. 3761.22  60 
   4   1   1 127198. 3946.94  57 
  -4   1  -1 116295. 3872.95  54 
   4   1   2 68637.8 2497.61  57 
  -4   1  -2 70330.7 2290.20  67 
   4   1   2 68286.1 2291.40  60 
  -4   1  -3 23521.3 987.793  67 
   4   1   3 22279.3 975.557  60 
   4   1   3 22025.9 1175.56  57 
  -4   1  -4 2608.38 302.534  64 
   4   1   4 2757.25 414.008  57 
   4   1   5 2940.37 344.625  44 
   4   1   5 2972.58 463.681  57 
  -4   1  -5 2232.22 305.183  64 
   4   1   5 2475.98 232.408  63 
   4   1   6 48273.1 1902.82  44 
  -4   1  -6 43011.9 1875.14  69 
  -4   1  -6 47318.1 1879.09  64 
   4   1   6 48866.0 1620.92  63 
   4   1   6 44435.0 2226.62  57 
   4   1   7 22931.0 1170.94  44 
  -4   1  -7 21600.3 1027.47  20 
  -4   1  -7 23458.5 1195.56  69 
  -4   1  -7 21461.6 1144.52  64 
   4   1   7 21348.6 1458.87  57 
  -4   1  -7 23356.9 1163.82  66 
   4   1   8 64673.0 2410.55  44 
  -4   1  -8 61099.3 2258.18  20 
  -4   1  -8 59283.6 2396.92  69 
  -4   1  -8 60624.3 2374.12  66 
   4   1   8 64339.9 2886.58  57 
  -4   1  -8 54387.4 2594.48  54 
   4   1   9 33441.9 1895.99  24 
   4   1   9 29171.4 1398.34  44 
  -4   1  -9 28473.0 1366.20  18 
  -4   1  -9 29381.3 1355.29  20 
   4   1  10 1168.08 245.908  44 
   4   1  10 1384.08 387.970  24 
   4   1  10 1909.44 595.743  23 
  -4   1 -10 1093.33 248.296  20 
  -4   1 -10 1062.26 252.039  18 
   4   1  11-18.5166 112.331  44 
   4   1  11 41.2907 221.594  24 
   4   1  11-64.6554 365.753  23 
  -4   1 -11 111.880 138.662  20 
  -4   1 -11 119.803 157.490  18 
   4   1  12 3861.48 513.528  45 
   4   1  12 3349.06 459.048  24 
   4   1  12 3580.38 636.758  23 
  -4   1 -12 4101.85 370.364  82 
  -4   1 -12 3904.46 399.149  18 
   4   1  12 5053.87 699.089  15 
  -4   1 -12 3902.60 452.061  26 
   4   1  13 21172.8 1267.58  23 
  -4   1 -13 20482.6 921.850  18 
  -4   1 -13 20722.4 847.355  82 
   4   2 -16 2240.23 220.558   1 
  -4   2  16 3105.74 268.919  44 
  -4   2  15 7838.88 546.404  44 
  -4   2  15 7149.06 522.842  12 
   4   2 -15 8283.93 505.926   1 
  -4   2  14 5676.02 531.588  12 
  -4   2  14 5365.39 587.842  22 
   4   2 -14 6393.02 472.746   9 
  -4   2  14 5975.38 483.406  25 
  -4   2  13 3152.10 437.353  12 
  -4   2  13 3665.01 530.370  22 
   4   2 -13 3703.46 480.221  40 
   4   2 -13 3246.16 312.267  20 
  -4   2  13 3138.04 501.923  30 
  -4   2  13 3777.36 388.321   2 
   4   2 -13 3531.96 353.991   9 
  -4   2  13 3556.55 415.040  25 
  -4   2  12 12061.3 887.918  12 
  -4   2  12 12320.1 966.040  22 
   4   2 -12 10218.5 812.653  40 
   4   2 -12 10076.8 623.248   9 
   4   2 -12 11334.9 695.754  16 
  -4   2  12 10824.7 937.657  30 
  -4   2  11 54702.3 2344.90  22 
   4   2 -11 43961.0 2011.24  40 
   4   2 -11 47188.1 1726.64   9 
   4   2 -11 51533.8 1838.57  16 
  -4   2  11 51426.5 2313.81  30 
   4   2 -11 44752.0 1794.31  28 
   4   2 -10 3424.70 419.325  40 
   4   2 -10 3891.71 367.639  16 
   4   2 -10 3649.25 413.944  68 
   4   2 -10 3667.22 339.812   8 
  -4   2  10 3918.26 373.641  63 
  -4   2  10 4244.16 564.197  30 
   4   2 -10 3685.82 434.517  71 
  -4   2  10 3725.92 458.701  53 
   4   2  -9 7717.62 491.737   4 
   4   2  -9 6736.28 548.723  40 
   4   2  -9 8101.27 637.971  71 
   4   2  -9 7718.45 583.455  68 
   4   2  -9 6798.50 468.320   8 
   4   2  -9 7816.66 499.559  16 
  -4   2   9 7943.46 516.928  63 
  -4   2   9 7595.86 651.074  53 
   4   2  -8 13919.7 691.958   4 
   4   2  -8 14353.2 787.946  40 
  -4   2   8 15055.2 718.901  63 
   4   2  -8 15206.9 900.226  71 
   4   2  -8 13473.8 684.282   8 
   4   2  -8 13701.5 784.240  68 
   4   2  -8 12661.4 690.245  32 
   4   2  -7 8764.86 507.216   4 
   4   2  -7 8390.84 550.860  68 
   4   2  -7 10036.0 596.362  40 
   4   2  -7 7762.34 485.003   8 
   4   2  -7 8902.21 640.162  71 
   4   2  -7 8125.66 489.924  32 
  -4   2   7 8986.13 492.988  63 
   4   2  -7 8403.68 592.270  61 
   4   2  -6 2373.41 278.907  40 
   4   2  -6 1658.56 205.079  32 
   4   2  -6 1674.34 225.289  68 
   4   2  -6 1985.45 226.618   8 
   4   2  -6 1959.67 283.733  71 
  -4   2   6 1723.22 190.590  63 
  -4   2   6 1616.27 225.076  55 
   4   2  -6 1599.81 230.024  61 
  -4   2   6 2256.60 291.802  52 
   4   2  -6 1842.83 222.767   4 
  -4   2   5 67496.3 2275.47  55 
   4   2  -5 65556.1 2230.37  68 
  -4   2   5 68600.8 2153.85  63 
   4   2  -5 68768.2 2318.06  61 
  -4   2   5 72724.6 2423.17  52 
   4   2  -4 33078.6 1320.82  71 
  -4   2   4 29705.8 1041.49  63 
   4   2  -4 28737.2 1259.66  59 
  -4   2   4 32048.1 1285.41  52 
   4   2  -3 72440.4 2514.67  59 
  -4   2   3 74549.4 2433.52  56 
  -4   2   3 80209.7 2577.96  52 
  -4   2   3 75560.0 2384.10  70 
  -4   2   2 23456.1 937.793  70 
   4   2  -2 25835.1 1086.97  65 
   4   2  -2 24019.6 993.715  59 
  -4   2   2 24047.6 960.590  56 
   4   2  -1 42809.6 1477.84  70 
   4   2  -1 43068.0 1467.24  59 
   4   2  -1 42356.1 1562.56  65 
   4   2   0 20214.2 902.263  65 
  -4   2   0 19475.0 831.311  67 
   4   2   0 20099.1 815.601  70 
  -4   2   0 19580.9 874.793  56 
  -4   2  -1 61217.9 2106.13  67 
   4   2   1 65885.0 2166.35  65 
   4   2   1 68525.7 2251.06  57 
  -4   2  -1 61054.9 2229.05  54 
   4   2   2 269812. 7943.75   7 
   4   2   2 278750. 8045.98  44 
   4   2   2 251340. 7978.48   2 
  -4   2  -2 262348. 7829.43  67 
   4   2   2 250966. 7973.53  31 
   4   2   2 267954. 8012.00  57 
   4   2   2 281325. 7847.97  65 
   4   2   3 51480.7 1905.42   7 
  -4   2  -3 53903.8 1985.03  69 
   4   2   3 48440.8 1943.06   2 
   4   2   3 51244.2 1976.80  44 
  -4   2  -3 52284.5 1819.30  64 
   4   2   3 48929.7 1942.19  31 
   4   2   3 55319.3 2037.00  57 
  -4   2  -3 47667.6 1775.16  67 
   4   2   4 8636.29 651.236  31 
   4   2   4 7773.06 635.184   2 
  -4   2  -4 8934.40 651.604  69 
   4   2   5 1996.41 306.572   7 
   4   2   5 2878.66 344.541  34 
  -4   2  -5 2004.98 319.740  69 
   4   2   5 1587.74 299.278   2 
   4   2   5 1415.07 285.783  31 
   4   2   5 2551.29 274.253   5 
   4   2   6 9976.87 693.330   7 
  -4   2  -6 10483.7 769.352  69 
   4   2   6 10661.4 643.062  63 
   4   2   7 54310.5 2171.63  44 
   4   2   7 41714.5 1910.96   7 
   4   2   7 60632.4 2015.04  34 
  -4   2  -7 49338.6 2098.08  69 
   4   2   7 51106.2 1848.17  63 
   4   2   8 4223.82 495.969  44 
   4   2   8 5045.08 416.726  34 
   4   2   9 4503.77 484.796  44 
  -4   2  -9 4168.15 392.125  20 
   4   2  10 7086.55 773.062  24 
   4   2  10 6724.45 557.676  44 
   4   2  10 6684.73 883.228  23 
  -4   2 -10 5787.92 462.541  20 
  -4   2 -10 6443.27 505.854  18 
   4   2  11 2306.62 419.086  24 
   4   2  11 1984.19 471.041  23 
  -4   2 -11 2849.35 293.659  20 
  -4   2 -11 2174.28 276.521  18 
   4   2  11 1949.43 270.435  44 
   4   2  12 1999.32 210.690  44 
   4   2  12 1777.23 310.083  24 
   4   2  12 1422.63 336.356  23 
  -4   2 -12 2048.65 278.679  37 
  -4   2 -12 1631.64 204.943  20 
  -4   2 -12 1997.49 238.642  18 
   4   2  12 2564.26 466.584  15 
  -4   3  14 3011.61 270.284  44 
  -4   3  14 2963.37 266.801   2 
  -4   3  14 3243.17 367.175  22 
  -4   3  14 3297.50 304.195  31 
   4   3 -14 3697.13 314.159  28 
   4   3 -14 3643.63 283.144   9 
  -4   3  14 3369.45 314.811  25 
  -4   3  13 1196.69 235.542  25 
  -4   3  13 1467.13 224.341  44 
  -4   3  13 1459.65 300.863  22 
   4   3 -13 1436.99 198.296   9 
  -4   3  13 1770.98 248.368   2 
  -4   3  12 18104.9 1060.40  12 
  -4   3  12 16785.2 900.174  44 
  -4   3  12 16635.5 1075.30  22 
   4   3 -12 18358.6 855.409  16 
   4   3 -12 16622.7 786.502   9 
  -4   3  12 20492.5 1069.01  25 
  -4   3  11 18379.2 1106.84  12 
  -4   3  11 15694.7 888.505  44 
  -4   3  11 16983.9 1101.10  22 
   4   3 -11 14589.7 892.865  40 
   4   3 -11 16194.3 801.779  16 
  -4   3  11 15977.6 1035.75  30 
   4   3 -10 63522.6 2426.16  40 
   4   3 -10 66908.7 2261.19   4 
   4   3 -10 66620.3 2287.54  16 
   4   3 -10 62490.7 2206.01   8 
  -4   3  10 64785.8 2656.71  30 
   4   3  -9 80313.3 2627.81   4 
   4   3  -9 78699.8 2769.66  40 
   4   3  -9 74581.6 2569.86   8 
   4   3  -9 76764.5 2622.92  16 
  -4   3   9 83298.3 3063.93  30 
   4   3  -8 20211.3 929.889   4 
   4   3  -8 20905.2 1022.27  40 
   4   3  -8 22098.8 1210.87  71 
   4   3  -8 19054.1 895.713   8 
  -4   3   8 21594.7 931.827  63 
  -4   3   8 20105.5 1179.17  53 
   4   3  -7 8763.53 608.670  40 
   4   3  -7 7952.59 528.515   8 
   4   3  -7 7926.13 518.289  32 
  -4   3   7 7711.94 682.400  53 
   4   3  -7 8511.31 546.769   4 
   4   3  -6 1058.67 230.908  40 
   4   3  -6 1112.97 267.057  71 
   4   3  -6 1063.44 208.035  32 
  -4   3   6 970.575 238.789  53 
   4   3  -6 1301.65 225.177   8 
   4   3  -5 92781.5 3320.48  71 
   4   3  -5 96398.5 3097.75  32 
  -4   3   5 89467.6 3282.35  53 
   4   3  -4 24772.9 1061.22  32 
   4   3  -4 23071.3 999.878   5 
  -4   3   4 20214.2 932.687  70 
  -4   3   4 20732.3 1102.01  53 
   4   3  -3 45418.5 1595.96   5 
  -4   3   3 37217.9 1491.96  70 
   4   3  -3 42872.1 1779.63  65 
   4   3  -3 38756.6 1525.91  34 
  -4   3   3 35782.5 1581.05  53 
   4   3  -2 4656.67 412.637   5 
  -4   3   2 3429.18 346.410  70 
   4   3  -2 3928.81 396.428  70 
   4   3  -2 3976.09 438.134  65 
   4   3  -2 4103.97 382.078  34 
   4   3  -1 8689.47 587.941  34 
   4   3  -1 6706.64 515.949  70 
  -4   3   1 6986.23 523.945  70 
   4   3  -1 7712.91 602.005  65 
   4   3  -1 8930.35 597.182   5 
   4   3   0 4381.16 390.071   7 
   4   3   0 4728.58 443.990  34 
  -4   3   0 4087.65 444.141  71 
   4   3   0 4514.61 389.986  70 
   4   3   0 4805.75 454.245  65 
   4   3   1 105923. 3566.24   7 
   4   3   1 107390. 3640.11  44 
   4   3   1 110318. 3468.03  70 
  -4   3  -1 107451. 3588.56  69 
   4   3   1 114376. 3623.62  65 
  -4   3  -2 89619.1 3193.79  69 
   4   3   2 90415.9 3180.04   7 
   4   3   2 93477.4 3272.97  44 
   4   3   2 85276.5 3204.18   2 
   4   3   2 94840.3 3145.53  65 
   4   3   3 174009. 5433.89   7 
   4   3   3 180064. 5535.76  44 
  -4   3  -3 169830. 5430.72  69 
   4   3   3 158835. 5443.40   2 
   4   3   4 22672.8 1170.93   7 
   4   3   4 22419.2 1222.87  44 
  -4   3  -4 21267.2 1149.30  69 
   4   3   4 28851.8 1227.74   5 
   4   3   4 20938.7 1191.57   2 
   4   3   4 27654.8 1282.61  34 
  -4   3  -4 21184.1 1309.14  71 
   4   3   5 1005.19 263.716  44 
   4   3   5 861.704 235.015   7 
   4   3   5 1299.20 265.497  34 
   4   3   5 958.902 269.299   2 
   4   3   5 1296.18 240.443   5 
   4   3   6 51684.1 1871.17   5 
   4   3   6 51737.7 2011.78  34 
   4   3   7 25717.6 1367.24  44 
   4   3   7 28442.3 1152.34   5 
   4   3   8 20173.3 1118.36  44 
   4   3   8 22304.0 1030.76  34 
   4   3   9 834.098 207.702  44 
  -4   3  -9 788.765 158.968  20 
   4   3   9 1073.29 169.658  34 
   4   3  10 670.221 258.861  24 
  -4   3 -10 461.623 118.763  20 
  -4   3 -10 477.935 127.622  18 
  -4   4  12 9222.83 564.071  12 
   4   4 -12 9767.61 452.912   9 
  -4   4  12 10158.0 556.096  31 
  -4   4  12 11037.9 530.097   7 
  -4   4  12 10250.2 568.722  25 
  -4   4  12 10935.8 570.701   2 
  -4   4  11 19242.0 948.100  12 
   4   4 -11 17051.0 722.416   9 
  -4   4  11 20458.6 939.580  31 
   4   4 -11 18617.0 779.668  16 
  -4   4  11 20114.9 950.135  25 
  -4   4  10 1645.56 282.623  12 
   4   4 -10 1757.61 223.312  16 
  -4   4  10 2220.95 313.965  25 
   4   4  -9 26524.8 1020.50   4 
   4   4  -9 24204.3 1079.95  40 
   4   4  -9 22159.8 951.563   8 
   4   4  -9 24761.9 1019.67  16 
   4   4  -8 16734.6 790.059   4 
   4   4  -8 16530.8 839.040  40 
   4   4  -8 16305.5 767.147   8 
   4   4  -7 9948.09 588.384   4 
   4   4  -7 10656.2 649.304  40 
   4   4  -7 9457.88 565.160   8 
   4   4  -7 8460.06 527.255  32 
   4   4  -6 14690.4 802.830  40 
   4   4  -6 12528.8 691.855  32 
   4   4  -6 13689.5 738.755   8 
   4   4  -6 13965.3 756.161   4 
   4   4  -5 5731.72 483.048   8 
   4   4  -5 6224.83 463.541  32 
   4   4  -4 99804.0 3412.21   5 
   4   4  -4 115216. 3538.30  32 
   4   4  -3 42687.8 1687.18   5 
   4   4  -3 45985.3 1767.06  32 
   4   4  -2 16344.5 896.221  34 
   4   4  -2 20277.2 976.547   5 
   4   4  -1 16549.0 912.199  34 
   4   4  -1 17948.8 949.177   5 
   4   4   0 34051.1 1522.83  34 
   4   4   0 37670.5 1572.96   5 
   4   4   1 96929.0 3303.84   5 
   4   4   1 93214.8 3287.83  34 
   4   4   2 52179.9 2169.73   7 
   4   4   2 75303.1 2438.36  34 
   4   4   3 17205.8 932.458  34 
   4   4   3 16361.4 887.991   5 
   4   4   4 24368.9 1086.68   5 
   4   4   4 24074.3 1142.82  34 
   4   4   5 20972.7 977.060   5 
   4   4   6 5151.21 560.738  24 
   4   4   6 4956.77 372.368   5 
   4   4   6 5451.15 447.751  34 
   4   4   7 3978.64 465.159  24 
   4   4   7 3301.63 262.513   5 
   4   4   7 4109.39 350.914  34 
   4   4   8 3223.65 267.513  34 
   4   4   8 3011.96 369.636  24 
  -4   5   8 5198.01 336.475   7 
   4   5  -7 5003.20 300.138   4 
   4   5  -7 4120.21 267.136   8 
  -4   5   7 5269.60 357.883   2 
   4   5  -6 231.147 90.0166  40 
   4   5  -6 163.208 93.4012   4 
  -4   5   6 192.682 98.9515   2 
   4   5  -6 107.888 82.1472   8 
   4   5  -5 1195.17 171.802   4 
   4   5  -5 1147.23 168.031  40 
   4   5  -5 1247.50 172.734   8 
   4   5  -5 1066.03 146.790  32 
   4   5  -4 23134.0 948.388   8 
   4   5  -4 21199.3 894.514  32 
   4   5  -4 22988.8 949.108   4 
   4   5  -3 5563.92 423.458  40 
   4   5  -3 5698.53 380.813  32 
   4   5  -3 5735.03 402.474   8 
   4   5  -2 7153.86 444.648  32 
   4   5  -2 6216.45 402.940   5 
   4   5  -1 10309.0 568.835   5 
   4   5  -1 10865.2 593.214  32 
   4   5   0 16579.5 766.235   5 
   4   5   0 17355.0 790.698  32 
   4   5   1 13866.8 683.548   5 
   4   5   1 15746.2 725.385  32 
   4   5   2 3782.11 318.125  34 
   4   5   2 3673.30 313.889   5 
   4   5   3 21410.5 938.813  34 
   4   5   3 24987.6 954.258  32 
   4   5   4 4846.20 316.180   5 
   4   5   4 5199.69 325.050  32 
   4   5   4 4743.53 337.728  34 
   5  -5  -7 7765.83 381.556  72 
  -5  -5   7 8610.77 513.144  51 
   5  -5  -6 17082.5 701.223  72 
  -5  -5   6 16600.0 855.369  51 
  -5  -5   5 28415.8 1294.35  51 
   5  -5  -5 29390.2 1074.34  72 
  -5  -5   5 26195.9 1376.72  47 
   5  -5  -4 15554.9 688.886  72 
  -5  -5   4 14860.4 901.263  51 
  -5  -5   4 13221.6 941.241  47 
   5  -5  -3 13751.9 635.124  72 
  -5  -5   3 12613.4 865.367  51 
  -5  -5   3 11634.8 895.555  47 
   5  -5  -2 2431.38 216.379  79 
  -5  -5   2 1743.93 357.021  47 
   5  -5  -1 3168.71 243.857  79 
   5  -5  -1 3382.46 271.762  72 
   5  -5   0 6073.66 343.098  79 
   5  -5   0 6157.56 365.554  72 
  -5  -5  -1 7730.87 636.817  46 
   5  -5   1 7259.30 360.210  79 
  -5  -5  -2 1120.59 259.308  46 
  -5  -5  -2 886.211 239.407  47 
  -5  -5  -3 2656.66 331.807  46 
  -5  -5  -3 2562.21 241.420  81 
   5  -5   3 3030.34 240.825  78 
  -5  -5  -4 305.976 85.7990  81 
  -5  -4  12 1482.82 192.643  80 
  -5  -4  12 1011.76 270.483  14 
   5  -4 -12 1022.52 228.058  48 
  -5  -4  11 4533.33 389.204  80 
  -5  -4  11 3758.88 550.214  14 
   5  -4 -11 4643.56 433.786  49 
  -5  -4  10 31883.2 1378.78  80 
  -5  -4  10 28974.7 1805.71  14 
   5  -4 -10 32591.0 1488.58  49 
   5  -4 -10 33285.6 1689.50  48 
  -5  -4   9 33842.1 1475.85  80 
   5  -4  -9 34982.6 1834.18  48 
  -5  -4   9 31260.8 2018.65  27 
  -5  -4   9 31370.2 1962.95  14 
  -5  -4   9 34439.1 1480.69  51 
   5  -4  -9 31747.4 1553.69  49 
  -5  -4   8 11483.4 770.080  80 
   5  -4  -8 11487.4 651.234  72 
  -5  -4   8 12960.3 1198.32  14 
  -5  -4   8 11991.0 840.734  51 
   5  -4  -8 13423.3 905.793  49 
   5  -4  -8 13364.1 1077.87  48 
  -5  -4   8 12089.3 1013.36  47 
  -5  -4   7 2194.68 325.258  80 
  -5  -4   7 1716.21 530.663  27 
  -5  -4   7 1888.81 378.919  51 
  -5  -4   7 2155.60 533.404  14 
   5  -4  -7 2091.45 349.989  49 
   5  -4  -7 2526.71 485.882  48 
  -5  -4   7 1981.92 469.331  47 
  -5  -4   6 40852.5 1700.06  80 
  -5  -4   6 40471.8 2538.87  27 
  -5  -4   6 41122.6 2311.26  14 
  -5  -4   6 41427.8 2022.59  51 
   5  -4  -6 40468.2 1810.20  49 
   5  -4  -6 43741.9 2104.45  48 
  -5  -4   6 37178.5 2167.57  47 
   5  -4  -5 9256.01 560.993  79 
  -5  -4   5 9376.84 1142.13  27 
   5  -4  -5 8320.00 808.749  48 
   5  -4  -4 77110.1 2865.45  77 
   5  -4  -4 86353.1 2742.05  79 
   5  -4  -4 81209.3 2854.94  72 
  -5  -4   4 81567.0 3911.22  27 
   5  -4  -4 77741.4 3133.73  48 
  -5  -4   3 7858.78 866.579  46 
   5  -4  -3 7734.31 528.452  79 
   5  -4  -3 7867.72 571.554  78 
   5  -4  -3 7338.22 585.811  77 
   5  -4  -3 7908.78 584.595  72 
  -5  -4   3 8043.85 1040.90  27 
  -5  -4   3 6266.78 858.506  26 
  -5  -4   2 571.259 335.325  46 
   5  -4  -2 601.262 171.634  79 
   5  -4  -2 525.188 176.767  78 
   5  -4  -2 475.955 178.773  76 
   5  -4  -2 570.209 178.317  77 
   5  -4  -2 533.578 193.152  72 
  -5  -4   2 828.494 380.993  27 
  -5  -4   2 622.227 361.021  26 
  -5  -4   1 217.421 291.712  46 
   5  -4  -1 113.213 126.310  79 
   5  -4  -1 106.266 154.008  78 
   5  -4  -1-41.7130 111.944  77 
   5  -4  -1 97.2563 134.073  76 
   5  -4  -1 172.894 158.891  75 
   5  -4  -1 31.5465 159.627  73 
  -5  -4   1 193.621 270.773  27 
  -5  -4   0 1513.35 452.692  46 
   5  -4   0 2209.63 288.761  72 
   5  -4   0 2305.74 291.897  79 
   5  -4   0 2035.99 343.993  78 
   5  -4   0 2298.33 374.961  75 
   5  -4   0 2476.57 414.847  73 
   5  -4   0 2290.05 303.996  77 
  -5  -4   0 2667.32 579.254  27 
  -5  -4   0 2151.72 558.090  26 
  -5  -4  -1 18001.4 1432.46  46 
   5  -4   1 18088.9 872.139  72 
  -5  -4  -1 18122.3 1174.05  10 
   5  -4   1 17258.2 888.141  79 
   5  -4   1 17865.2 1083.71  78 
   5  -4   1 18535.8 1112.37  75 
   5  -4   1 16059.7 1135.59  73 
   5  -4   1 16766.4 879.797  77 
  -5  -4  -1 17683.7 1474.31  26 
  -5  -4  -2 50553.5 2616.90  46 
  -5  -4  -2 48336.7 2239.78  10 
   5  -4   2 49102.1 1845.87  79 
   5  -4   2 51685.9 2156.70  78 
   5  -4   2 50543.1 1857.16  77 
   5  -4   2 48624.1 2259.71  73 
   5  -4   2 51825.1 1821.81  72 
  -5  -4  -2 49936.4 2666.01  26 
  -5  -4  -3 19068.3 1206.07  10 
   5  -4   3 18449.3 860.301  79 
   5  -4   3 18547.2 1108.72  78 
  -5  -4  -3 16834.6 1373.60  35 
   5  -4   3 17388.2 1172.24  73 
  -5  -4  -3 16833.9 1406.94  26 
  -5  -4  -3 19494.5 1457.46  46 
  -5  -4  -4 12265.9 940.417  10 
   5  -4   4 15281.2 955.062  78 
   5  -4   4 14066.9 985.027  73 
  -5  -4  -4 13597.9 1171.17  35 
  -5  -4  -4 14631.7 1211.97  26 
  -5  -4  -4 13773.6 1181.36  46 
  -5  -4  -5 18457.6 1101.61  10 
   5  -4   5 18526.7 1033.22  78 
  -5  -4  -5 16234.8 1190.10  26 
  -5  -4  -5 17879.4 1288.55  46 
  -5  -4  -6 2016.34 397.058  46 
  -5  -4  -6 2006.00 323.378  10 
   5  -4   6 1656.85 276.148  78 
  -5  -4  -6 1707.35 364.210  35 
   5  -4   6 1605.92 293.504  73 
  -5  -4  -6 1862.83 350.422  26 
  -5  -4  -7 5836.59 484.408  10 
  -5  -4  -7 5160.05 356.618  81 
   5  -4   7 5799.03 451.658  78 
  -5  -4  -7 6174.63 589.523  46 
  -5  -3  14 23926.1 1473.10  14 
   5  -3 -14 27449.5 1273.89  49 
   5  -3 -14 27683.4 1320.54  48 
  -5  -3  13 303.264 225.268  38 
  -5  -3  13 633.835 340.918  14 
   5  -3 -13 531.481 228.887  48 
  -5  -3  12 4322.66 625.021  38 
  -5  -3  12 4015.53 718.052  14 
   5  -3 -12 4741.70 642.607  48 
  -5  -3  11 28815.4 2010.60  27 
  -5  -3  11 35045.0 1955.22  38 
   5  -3 -11 31406.2 1632.03  29 
   5  -3 -11 31116.2 1873.25  48 
   5  -3 -10 74062.5 3058.38  29 
  -5  -3  10 71747.6 3705.79  27 
  -5  -3  10 82097.8 2873.85  51 
  -5  -3   9 13202.9 1410.22  14 
  -5  -3   9 12091.7 1349.44  27 
  -5  -3   9 12474.0 880.053  51 
   5  -3  -9 14061.5 1244.50  48 
  -5  -3   9 14029.8 1160.29  47 
   5  -3  -8 19395.1 1158.05  76 
  -5  -3   8 23862.6 1852.07  14 
  -5  -3   8 21337.9 1820.08  27 
  -5  -3   8 21934.3 1271.32  51 
   5  -3  -8 21330.0 1551.40  48 
  -5  -3   8 19878.2 1468.39  47 
   5  -3  -7 1843.77 343.177  76 
  -5  -3   7 1975.41 468.190  62 
   5  -3  -7 2088.03 390.463  58 
  -5  -3   7 2012.66 410.543  51 
  -5  -3   7 1498.90 549.448  27 
  -5  -3   7 2488.93 599.311  14 
   5  -3  -7 2157.52 396.900  49 
   5  -3  -7 2429.74 524.848  48 
  -5  -3   7 1726.39 470.633  47 
   5  -3  -6 17993.1 812.492  79 
  -5  -3   6 15312.0 1298.82  62 
   5  -3  -6 17458.9 1129.01  58 
  -5  -3   6 17134.7 1490.46  14 
   5  -3  -6 15883.6 1020.22  76 
   5  -3  -6 17664.5 1132.61  49 
   5  -3  -6 15664.6 1225.55  48 
  -5  -3   6 15469.7 1341.14  47 
   5  -3  -5 48325.0 1709.97  79 
  -5  -3   5 45672.0 2409.71  62 
   5  -3  -5 45518.3 2075.20  58 
   5  -3  -5 44214.4 1973.21  76 
  -5  -3   5 42891.7 2383.56  26 
   5  -3  -5 44794.1 2232.55  48 
  -5  -3   4 46759.7 2264.88  46 
   5  -3  -4 42699.5 1631.00  79 
   5  -3  -4 43709.8 1917.38  76 
  -5  -3   4 45045.2 2327.18  62 
   5  -3  -4 42307.5 1963.80  58 
  -5  -3   4 47700.2 2483.24  14 
  -5  -3   4 43012.4 2372.35  26 
   5  -3  -4 42737.3 2078.55  48 
  -5  -3   4 45948.8 2636.15  27 
  -5  -3   3 53045.0 2535.15  46 
   5  -3  -3 50654.3 1864.36  79 
   5  -3  -3 48989.7 2098.98  76 
  -5  -3   3 48243.6 2472.48  62 
  -5  -3   3 53391.9 2836.50  27 
  -5  -3   3 52223.0 2586.52  14 
  -5  -3   3 47945.1 2597.75  26 
   5  -3  -3 52391.2 2161.63  75 
  -5  -3   2 15024.9 1238.04  46 
  -5  -3   2 14844.4 986.353  10 
   5  -3  -2 15396.6 806.774  79 
   5  -3  -2 15793.3 915.912  78 
   5  -3  -2 15946.6 1022.76  75 
   5  -3  -2 14730.6 829.179  72 
   5  -3  -2 13490.9 920.785  76 
  -5  -3   2 15611.8 1203.15  62 
  -5  -3   2 16203.5 1410.86  27 
  -5  -3   2 14521.3 1241.37  35 
  -5  -3   2 14701.6 1288.10  26 
   5  -3  -1 30336.5 1328.69  72 
   5  -3  -1 30131.2 1583.96  75 
  -5  -3   1 30316.0 1588.17  10 
   5  -3  -1 33498.8 1351.85  79 
   5  -3  -1 28956.8 1477.76  76 
   5  -3  -1 32097.6 1499.82  78 
  -5  -3   1 32695.1 1976.65  35 
   5  -3  -1 28812.4 1398.69  77 
  -5  -3   1 31625.7 1808.38  62 
   5  -3  -1 30088.6 1517.26  58 
  -5  -3   1 34288.2 2105.10  27 
  -5  -3   1 31821.5 1988.43  26 
  -5  -3   1 33305.9 1958.07  46 
   5  -3   0 16847.2 956.355  77 
  -5  -3   0 16627.0 1126.32  10 
  -5  -3   0 15117.0 1298.60  39 
   5  -3   0 17929.2 1070.78  78 
   5  -3   0 16561.8 1034.17  76 
   5  -3   0 17489.3 1143.31  75 
  -5  -3   0 16108.8 1363.96  35 
  -5  -3   0 16311.1 1212.85  62 
  -5  -3   0 17611.7 1453.68  27 
  -5  -3   0 17961.7 1450.77  26 
  -5  -3   0 17783.9 1014.24  49 
  -5  -3  -1 13011.5 998.137  10 
  -5  -3  -1 15166.6 1293.06  27 
  -5  -3  -1 11730.7 1127.34  39 
   5  -3   1 13944.0 959.469  78 
   5  -3   1 12922.7 894.234  76 
   5  -3   1 13508.2 994.898  75 
  -5  -3  -1 15032.6 1309.76  35 
   5  -3   1 11799.9 781.186  77 
   5  -3   1 11838.7 698.118  72 
  -5  -3  -1 11350.0 811.476  49 
  -5  -3  -2 34696.0 1798.76  10 
  -5  -3  -2 32324.1 1965.59  39 
   5  -3   2 31082.6 1362.61  80 
   5  -3   2 32349.8 1668.47  78 
   5  -3   2 31626.1 1434.70  77 
   5  -3   2 32795.4 1326.94  72 
  -5  -3  -2 29476.9 2014.35  35 
   5  -3   2 31391.7 1695.15  75 
   5  -3   2 38992.3 1880.32  50 
  -5  -3  -2 33317.6 2039.69  27 
   5  -3   2 31556.4 1563.78  76 
  -5  -3  -2 31207.6 2049.09  26 
  -5  -3  -3 106388. 4469.47  39 
   5  -3   3 109290. 4149.53  75 
   5  -3   3 111891. 3791.00  77 
   5  -3   3 112744. 3636.66  72 
  -5  -3  -3 114359. 4757.74  26 
  -5  -3  -4 4314.87 679.165  39 
   5  -3   4 3630.93 404.569  77 
  -5  -3  -4 4835.25 768.341  26 
   5  -3   4 3611.95 563.201  73 
   5  -3   4 3793.49 617.008  50 
  -5  -3  -5 26300.3 1669.34  39 
  -5  -3  -5 27644.9 1563.97  21 
   5  -3   5 29139.9 1575.05  75 
   5  -3   5 29130.5 1672.42  73 
  -5  -3  -5 30777.3 1990.17  35 
  -5  -3  -5 29473.0 1955.30  26 
   5  -3   5 32710.9 1857.14  50 
  -5  -3  -6 8202.93 768.430  21 
  -5  -3  -6 9321.76 1014.25  26 
   5  -3   6 9848.24 864.210  73 
  -5  -3  -6 9719.07 1054.55  35 
   5  -3   6 11581.0 1035.79  50 
  -5  -3  -7 6957.79 841.634  35 
  -5  -3  -7 6915.12 661.846  21 
   5  -3   7 6803.64 670.806  73 
   5  -3   7 7537.76 794.737  50 
  -5  -3  -7 6230.82 766.045  26 
   5  -3   8 5641.27 543.671  73 
  -5  -3  -8 5531.56 677.038  35 
   5  -3   8 6133.01 681.115  50 
  -5  -3  -8 5377.74 634.154  26 
  -5  -3  -9 2184.10 336.732  10 
  -5  -3  -9 1874.25 349.927  35 
   5  -3   9 1738.85 242.747  73 
   5  -3   9 2232.26 375.500  50 
   5  -3  10 182.866 114.048  78 
  -5  -2  16 10261.0 774.544  38 
  -5  -2  15 4842.30 640.456  38 
   5  -2 -15 4213.80 458.385  29 
  -5  -2  15 4703.67 598.407  14 
   5  -2 -15 4793.82 508.142  48 
  -5  -2  14 2617.79 405.104  43 
   5  -2 -14 3482.41 416.638  11 
  -5  -2  14 3193.21 602.284  38 
   5  -2 -14 2558.92 402.938  29 
  -5  -2  14 2486.87 547.487  14 
   5  -2 -14 3072.16 486.225  48 
   5  -2 -13 987.768 269.799  11 
   5  -2 -13 1368.89 345.674  29 
  -5  -2  13 1066.59 447.468  14 
   5  -2 -13 1588.88 406.655  48 
  -5  -2  12 274.206 212.491  42 
   5  -2 -12 199.326 192.668  11 
   5  -2 -12 269.356 212.253  29 
  -5  -2  12-73.5500 360.378  14 
   5  -2 -12 239.224 214.060   8 
  -5  -2  11 5816.89 624.602  42 
   5  -2 -11 7208.13 678.844  11 
   5  -2 -11 6341.34 679.413  29 
   5  -2 -11 7124.06 753.905   3 
  -5  -2  11 6127.11 881.007  27 
   5  -2 -11 5690.47 699.236   8 
  -5  -2  11 5486.32 911.024  14 
  -5  -2  10 2788.15 425.378  42 
   5  -2 -10 2899.69 424.507  11 
   5  -2 -10 2372.55 428.857  29 
   5  -2 -10 3082.30 440.896  58 
   5  -2 -10 2365.44 453.483   3 
  -5  -2  10 2300.25 602.845  27 
  -5  -2  10 3488.83 737.304  14 
   5  -2 -10 2752.76 497.133   8 
  -5  -2   9 61273.5 2526.85  42 
  -5  -2   9 64813.5 2555.51  41 
   5  -2  -9 60457.4 2489.93  11 
  -5  -2   9 64200.4 2870.35  36 
   5  -2  -9 67121.3 2800.60   3 
   5  -2  -9 59202.0 2412.25  61 
   5  -2  -9 62605.4 2593.20  29 
   5  -2  -9 65564.4 2578.30  58 
  -5  -2   9 68519.9 3369.56  14 
  -5  -2   9 61473.2 3228.86  27 
  -5  -2   9 66417.3 2431.58  55 
   5  -2  -9 65248.8 2798.07   8 
  -5  -2   9 63988.1 2796.38  47 
  -5  -2   8 13903.1 921.065  41 
   5  -2  -8 15100.3 930.216  11 
   5  -2  -8 15307.4 1116.37   3 
  -5  -2   8 13362.3 1080.71  36 
   5  -2  -8 14709.6 967.780  29 
   5  -2  -8 14981.6 882.481  61 
   5  -2  -8 16312.5 1004.47  58 
  -5  -2   8 15302.0 1396.76  27 
  -5  -2   8 15432.7 873.875  55 
   5  -2  -8 15016.3 1107.08   8 
  -5  -2   8 15634.7 1169.27  47 
   5  -2  -7 787.344 191.862  61 
   5  -2  -7 958.339 241.174  29 
   5  -2  -7 661.349 213.398  58 
  -5  -2   7 942.992 199.686  55 
  -5  -2   7 741.364 350.323  27 
  -5  -2   7 867.546 238.292  51 
  -5  -2   7 1106.85 298.592  36 
   5  -2  -7 1008.12 311.138   8 
  -5  -2   7 804.970 315.886  47 
   5  -2  -6 34313.0 1707.58   3 
  -5  -2   6 36087.8 1981.77  62 
   5  -2  -6 37003.3 1461.29  61 
  -5  -2   6 38470.0 2165.79  27 
  -5  -2   6 36203.1 1428.89  55 
  -5  -2   6 34554.3 1704.51  36 
  -5  -2   6 29780.6 1711.75  26 
  -5  -2   6 29494.4 1800.21  47 
  -5  -2   5 78179.7 3081.01  46 
   5  -2  -5 80624.2 3055.77   3 
  -5  -2   5 81574.5 3401.89  62 
   5  -2  -5 86378.1 2731.27  59 
  -5  -2   5 90032.3 3644.40  27 
   5  -2  -5 80234.4 3112.74   8 
  -5  -2   5 74163.9 3206.70  26 
  -5  -2   5 79498.1 3350.42  13 
  -5  -2   4 22750.8 1319.61  46 
   5  -2  -4 22674.8 1238.31   3 
   5  -2  -4 22826.7 1168.75  58 
  -5  -2   4 26483.3 1657.12  27 
  -5  -2   4 24605.8 1503.49  19 
  -5  -2   4 24704.4 1062.25  56 
   5  -2  -4 24421.2 1303.56   8 
  -5  -2   4 24554.1 1465.09  26 
  -5  -2   4 24073.5 1459.05  13 
  -5  -2   3 7799.76 792.778  39 
   5  -2  -3 7545.90 484.336  60 
   5  -2  -3 7459.58 585.255  58 
  -5  -2   3 7895.84 510.470  56 
  -5  -2   3 7108.19 757.213  19 
  -5  -2   3 6535.59 728.641  26 
  -5  -2   2 22508.9 1375.17  26 
  -5  -2   2 21000.7 1320.08  19 
  -5  -2   2 21374.8 1323.36  62 
  -5  -2   2 20286.2 949.835  56 
   5  -2  -2 20249.7 928.008  60 
   5  -2  -2 19482.2 1050.57  58 
  -5  -2   2 23159.7 1472.10  27 
  -5  -2   1 20508.9 1312.55  35 
  -5  -2   1 19078.5 1228.01  62 
   5  -2  -1 18874.0 902.230  60 
   5  -2  -1 18280.0 984.418  58 
  -5  -2   1 21089.3 1386.21  27 
  -5  -2   1 18549.8 919.637  56 
  -5  -2   1 19873.5 1290.35  26 
  -5  -2   0 15490.4 1144.64  39 
  -5  -2   0 16672.0 1127.70  19 
  -5  -2   0 15447.0 1077.45  62 
   5  -2   0 16034.8 824.174  60 
   5  -2   0 16134.4 882.739  58 
  -5  -2   0 15527.6 1181.94  27 
  -5  -2   0 14480.3 816.430  56 
  -5  -2   0 17081.3 1193.44  26 
   5  -2   1 16027.8 1386.28  24 
   5  -2   1 19770.3 1452.32   6 
  -5  -2  -1 18554.4 1297.31  39 
   5  -2   1 20512.0 1002.90  60 
  -5  -2  -1 19583.4 1219.69  62 
   5  -2   1 18966.0 1578.94  15 
  -5  -2  -1 21296.8 1409.61  27 
  -5  -2  -1 20580.7 1370.01  26 
   5  -2   1 24017.3 1377.07  50 
  -5  -2  -1 20660.2 1287.26  19 
   5  -2   2 6061.22 499.481  77 
   5  -2   2 3985.53 704.229  24 
   5  -2   2 6709.09 438.491  72 
  -5  -2  -2 5263.91 692.041  39 
   5  -2   2 6565.78 630.280  75 
   5  -2   2 5933.28 564.375  76 
  -5  -2  -2 6327.56 650.232  62 
   5  -2   2 5341.75 821.934  15 
  -5  -2  -2 6167.35 746.424  27 
   5  -2   2 6324.56 552.905  57 
  -5  -2  -2 6090.83 733.504  26 
   5  -2   2 6598.45 754.598  50 
  -5  -2  -2 5805.93 647.334  19 
   5  -2   3 33644.0 1574.84  57 
   5  -2   3 26676.8 1899.94  24 
  -5  -2  -3 34177.9 1902.90  39 
  -5  -2  -3 32486.8 1587.65  21 
   5  -2   3 33700.2 1459.73  77 
   5  -2   3 34397.9 1589.78  76 
   5  -2   3 34652.9 1694.26  75 
   5  -2   3 34571.4 1763.07  74 
  -5  -2  -3 34470.1 1444.35  66 
  -5  -2  -3 32307.2 1390.09  64 
   5  -2   3 39847.4 2078.08  50 
   5  -2   3 28925.3 2102.13  15 
  -5  -2  -3 36787.3 1977.49  27 
   5  -2   4 72480.5 3234.80  45 
   5  -2   4 87038.5 2965.96  77 
  -5  -2  -4 87554.2 3579.21  39 
  -5  -2  -4 82828.4 3178.51  21 
   5  -2   4 87386.6 3283.03  75 
  -5  -2  -4 83695.9 2972.53  66 
  -5  -2  -4 80429.5 2895.19  64 
   5  -2   4 84703.2 3369.97  74 
   5  -2   4 74110.9 3875.30  15 
  -5  -2  -4 84990.6 3575.03  27 
   5  -2   4 87908.4 3134.07  76 
   5  -2   4 83648.4 3158.15  57 
  -5  -2  -4 87387.5 3659.07  26 
   5  -2   4 100108. 3852.22  50 
   5  -2   5 4119.48 592.833  45 
  -5  -2  -5 5128.97 718.085  39 
  -5  -2  -5 5351.51 607.923  21 
   5  -2   5 4757.66 634.268  74 
  -5  -2  -5 5333.64 517.156  66 
  -5  -2  -5 4650.51 455.236  64 
  -5  -2  -5 5208.88 713.287  27 
   5  -2   5 4676.52 844.007  15 
   5  -2   5 5712.90 602.630  57 
  -5  -2  -5 5990.14 804.569  26 
   5  -2   5 6167.02 832.551  50 
   5  -2   5 5316.93 603.547  75 
   5  -2   6 10382.3 954.218  45 
  -5  -2  -6 11891.0 1070.48  39 
  -5  -2  -6 11408.1 917.819  21 
   5  -2   6 10101.8 851.228  75 
   5  -2   6 10862.7 1251.62  15 
  -5  -2  -6 12163.4 1143.80  26 
   5  -2   6 13328.0 1264.50  50 
   5  -2   7 4427.29 622.314  45 
  -5  -2  -7 4168.84 616.902  39 
  -5  -2  -7 6041.92 655.126  21 
   5  -2   7 6057.15 676.330  73 
  -5  -2  -7 6138.19 802.426  26 
   5  -2   7 6387.03 874.488  50 
   5  -2   8 1905.92 400.357  45 
  -5  -2  -8 2461.20 451.977  39 
  -5  -2  -8 1826.89 379.391  21 
   5  -2   8 2398.09 398.588  73 
  -5  -2  -8 2555.89 528.831  26 
   5  -2   9 21258.7 1318.13  45 
  -5  -2  -9 24626.4 1319.66  21 
   5  -2   9 25003.4 1231.47  73 
  -5  -2  -9 25203.4 1523.57  26 
  -5  -2 -10 1547.86 283.584  21 
  -5  -2 -10 1412.84 319.956  26 
  -5  -2 -11 1120.88 199.324  21 
   5  -2  11 1208.56 275.466  50 
   5  -1 -16 4840.92 463.636  29 
  -5  -1  16 4453.87 497.790  43 
   5  -1 -16 4685.36 414.187  11 
  -5  -1  16 5372.84 650.245  38 
   5  -1 -16 4440.57 439.454  48 
  -5  -1  15 6514.29 679.157  43 
   5  -1 -15 6127.30 557.714   1 
   5  -1 -15 5551.57 529.929  11 
  -5  -1  15 6575.26 827.210  38 
   5  -1 -15 6436.69 612.278  29 
   5  -1 -15 5756.71 617.045  48 
   5  -1 -14 13971.8 919.925  11 
  -5  -1  14 14401.1 1068.42  42 
   5  -1 -14 14432.0 948.077   3 
   5  -1 -14 14584.9 1011.74  29 
   5  -1 -14 14177.8 953.707   1 
   5  -1 -13 6487.06 623.079  11 
  -5  -1  13 6367.38 703.931  42 
   5  -1 -13 6012.35 644.927   3 
   5  -1 -13 5832.11 622.616   8 
   5  -1 -13 6338.27 665.803  29 
   5  -1 -13 5795.61 624.765   1 
  -5  -1  13 6110.16 867.867  14 
  -5  -1  12 1178.51 342.203  42 
   5  -1 -12 1308.46 294.649  11 
   5  -1 -12 1320.12 442.630  40 
  -5  -1  12 626.971 234.304  30 
   5  -1 -12 763.268 262.406   1 
   5  -1 -12 1079.24 293.628  29 
   5  -1 -12 1193.12 301.373   3 
  -5  -1  12 1608.30 487.856  14 
   5  -1 -12 1502.10 354.191   8 
  -5  -1  11 43951.3 2043.52  42 
  -5  -1  11 39590.7 1985.14  41 
   5  -1 -11 39780.6 1903.85   3 
   5  -1 -11 37131.0 1824.04  29 
  -5  -1  11 40314.0 1884.06  63 
  -5  -1  11 36019.1 1780.14  30 
   5  -1 -11 38823.3 1788.98  59 
   5  -1 -11 40679.8 1931.17   8 
  -5  -1  11 42108.3 2448.84  14 
  -5  -1  11 41875.7 1865.93  55 
  -5  -1  10 74860.2 3048.46  42 
   5  -1 -10 80730.6 3047.98   8 
  -5  -1  10 77195.3 3066.17  41 
   5  -1 -10 77704.7 3313.15  40 
   5  -1 -10 78506.6 2902.04  29 
   5  -1 -10 78470.1 2991.38   3 
  -5  -1  10 75236.1 2872.26  30 
   5  -1 -10 71980.5 2833.22  59 
  -5  -1  10 81609.7 3649.69  14 
  -5  -1  10 77286.3 2910.51  55 
   5  -1  -9 18796.2 1024.65   1 
  -5  -1   9 18000.9 1128.12  41 
   5  -1  -9 18164.4 1243.84  40 
   5  -1  -9 17523.8 1062.92   3 
  -5  -1   9 17303.5 1260.73  17 
  -5  -1   9 18850.0 1087.49  63 
  -5  -1   9 17598.2 1009.29  30 
   5  -1  -9 19894.4 1052.32  29 
   5  -1  -9 15781.6 977.051  59 
   5  -1  -9 18581.7 1121.87   8 
  -5  -1   9 19281.2 1049.02  55 
  -5  -1   8 10665.9 904.638  17 
   5  -1  -8 10288.0 712.550  59 
  -5  -1   8 10546.9 788.286  41 
  -5  -1   8 8964.88 837.305  36 
   5  -1  -8 9853.81 722.639  61 
   5  -1  -8 11767.7 907.980  40 
   5  -1  -8 11631.0 722.255   1 
  -5  -1   8 11001.1 763.120  63 
   5  -1  -8 10065.7 673.339  29 
   5  -1  -8 11781.5 818.857   8 
  -5  -1   8 12052.4 1047.99  27 
  -5  -1   8 10070.2 695.663  55 
  -5  -1   8 10291.7 962.900  13 
  -5  -1   7 57213.8 2403.10  36 
  -5  -1   7 58837.3 2207.38  63 
   5  -1  -7 58889.4 2185.09  61 
   5  -1  -7 54260.4 2120.83  59 
   5  -1  -7 59984.0 2263.16   8 
  -5  -1   7 55045.8 2123.55  55 
  -5  -1   7 56539.5 2566.34  13 
   5  -1  -6 47068.5 1776.89  61 
  -5  -1   6 47968.1 1771.01  56 
   5  -1  -5 71810.8 2403.42  61 
  -5  -1   5 70334.8 2400.25  56 
   5  -1  -5 66590.4 2380.85  59 
  -5  -1   5 66374.4 2187.41  52 
   5  -1  -4 43441.1 1593.21  61 
   5  -1  -4 40677.2 1590.82  59 
   5  -1  -4 43768.1 1564.98  58 
  -5  -1   4 39905.1 1585.03  56 
  -5  -1   4 40240.7 1400.96  52 
  -5  -1   3 48071.9 2181.26  62 
   5  -1  -3 53507.6 1913.11  59 
   5  -1  -3 53307.1 1873.90  58 
  -5  -1   3 53043.9 1934.39  56 
  -5  -1   3 54892.0 1740.93  52 
  -5  -1   2 20034.1 842.455  67 
  -5  -1   2 20187.2 1147.02  62 
   5  -1  -2 20368.5 946.935  59 
   5  -1  -2 21211.1 908.251  58 
  -5  -1   2 20020.2 959.281  56 
  -5  -1   1 34466.6 1590.30  62 
  -5  -1   1 34296.7 1283.08  67 
   5  -1  -1 35082.0 1321.72  58 
  -5  -1   0 143292. 4333.37  67 
  -5  -1   0 138365. 4646.21  62 
   5  -1   0 136611. 4411.34  60 
   5  -1   0 141469. 4324.15  58 
   5  -1   0 144847. 4555.55  57 
  -5  -1  -1 59936.5 2114.49  67 
   5  -1   1 64247.8 2194.56  60 
   5  -1   1 62888.1 2326.76  57 
  -5  -1  -1 55601.7 2302.14  62 
  -5  -1  -2 2966.36 317.695  67 
  -5  -1  -2 3232.30 276.686  69 
  -5  -1  -2 2916.36 373.431  62 
   5  -1   2 2711.31 327.088  60 
  -5  -1  -2 3008.57 398.377  54 
   5  -1   2 3231.28 415.991  57 
   5  -1   3 29843.8 1780.38  24 
   5  -1   3 34299.4 2077.78  15 
  -5  -1  -3 32836.6 1251.05  69 
   5  -1   3 31118.2 1981.69  23 
  -5  -1  -3 34420.3 1667.05  37 
   5  -1   3 33967.2 1616.65  57 
  -5  -1  -3 33148.7 1564.70  54 
  -5  -1  -3 31737.4 1661.78  26 
   5  -1   4 46207.2 2423.24  24 
   5  -1   4 46316.3 2682.63  23 
   5  -1   4 56619.8 1990.11  77 
  -5  -1  -4 49812.2 2296.83  37 
  -5  -1  -4 49985.0 2068.26  18 
  -5  -1  -4 52178.9 2010.06  64 
   5  -1   4 52655.8 2818.74  15 
   5  -1   4 49876.5 2261.79  57 
  -5  -1  -4 52135.3 2211.22  54 
  -5  -1  -4 52418.3 2355.07  26 
   5  -1   4 61625.1 2719.67  50 
   5  -1   5 7225.65 842.714  24 
   5  -1   5 6712.16 958.997  23 
  -5  -1  -5 8219.54 686.448  18 
  -5  -1  -5 8291.78 632.246  64 
   5  -1   5 7827.63 1030.52  15 
   5  -1   5 7236.66 697.022  74 
  -5  -1  -5 9569.29 855.800  37 
   5  -1   5 8879.22 812.558  57 
  -5  -1  -5 7665.39 722.160  54 
   5  -1   5 8074.36 682.783  75 
   5  -1   5 10064.8 1033.55  50 
   5  -1   6 1025.49 356.016  24 
   5  -1   6 753.492 416.531  23 
   5  -1   6 1048.81 277.573  75 
  -5  -1  -6 995.361 344.684  37 
   5  -1   6 1464.65 324.089  74 
  -5  -1  -6 1326.07 307.616  18 
  -5  -1  -6 1052.48 251.079  66 
  -5  -1  -6 824.591 225.187  64 
   5  -1   6 1571.33 510.579  15 
   5  -1   6 655.640 278.063  57 
  -5  -1  -6 1234.47 304.465  54 
   5  -1   6 1704.06 487.801  50 
  -5  -1  -6 1158.41 352.947  26 
   5  -1   7 6650.50 831.050  24 
  -5  -1  -7 7203.98 813.452  37 
   5  -1   7 7453.07 1070.93  15 
   5  -1   7 5688.98 995.325  23 
   5  -1   7 7553.08 711.409  74 
  -5  -1  -7 7655.10 713.392  18 
  -5  -1  -7 7793.57 678.141  66 
  -5  -1  -7 7017.00 617.064  64 
   5  -1   7 7017.64 782.245  57 
  -5  -1  -7 7544.91 738.288  54 
  -5  -1  -7 7228.65 826.404  26 
   5  -1   7 8214.19 991.154  50 
   5  -1   8 12991.1 1443.72  23 
  -5  -1  -8 16421.3 1113.21  18 
   5  -1   8 15745.8 1525.04  15 
  -5  -1  -8 17528.7 1308.27  26 
   5  -1   8 18919.1 1516.09  50 
   5  -1   9 1840.10 549.649  23 
  -5  -1  -9 3230.20 517.234  39 
   5  -1   9 2940.65 653.028  15 
  -5  -1  -9 3272.16 558.184  26 
   5  -1  10 1350.39 384.190  45 
   5  -1  10 1323.83 466.800  23 
  -5  -1 -10 1304.35 315.819  39 
  -5  -1 -10 1568.67 308.910  21 
  -5  -1 -10 2121.61 433.774  37 
   5  -1  10 936.281 377.440  15 
   5  -1  10 1938.83 457.425  50 
  -5  -1 -10 1575.94 381.324  26 
   5  -1  11 9362.71 796.187  45 
  -5  -1 -11 8870.22 642.903  21 
  -5  -1 -11 9350.37 611.336  82 
  -5  -1 -11 8554.97 737.647  26 
   5  -1  12 14195.8 886.292  45 
  -5  -1 -12 17828.5 756.389  82 
  -5   0  17 2253.76 313.177  43 
   5   0 -17 2189.24 246.265   1 
   5   0 -17 2478.67 275.242  29 
  -5   0  16 11799.6 880.210  43 
   5   0 -16 12650.4 720.870  11 
  -5   0  16 10726.3 907.662  38 
   5   0 -16 11716.7 755.490  29 
   5   0 -16 10963.2 695.513   1 
  -5   0  15 17484.5 1334.08  38 
   5   0 -15 17386.8 955.684   1 
   5   0 -15 16246.1 991.273  29 
  -5   0  14 1952.89 429.061  42 
   5   0 -14 2254.08 356.153   1 
   5   0 -14 1554.79 288.729   3 
  -5   0  14 1456.49 304.774  22 
   5   0 -14 1935.27 488.680  40 
  -5   0  13 8385.69 842.403  42 
  -5   0  13 7408.12 673.647  22 
   5   0 -13 7158.53 851.355  40 
   5   0 -13 7605.45 667.366   3 
  -5   0  13 6658.18 738.480  30 
   5   0 -13 7914.20 670.364   1 
  -5   0  12 22777.8 1445.88  42 
  -5   0  12 21720.6 1252.32  22 
   5   0 -12 21653.0 1466.26  40 
  -5   0  12 22883.9 1376.10  30 
   5   0 -12 20606.3 1205.56   8 
  -5   0  12 23123.3 1324.81  55 
  -5   0  11 115820. 4408.05  42 
  -5   0  11 121899. 4485.08  41 
  -5   0  11 124743. 4215.03  22 
   5   0 -11 114809. 4445.67  40 
  -5   0  11 123509. 4142.89  63 
  -5   0  11 118278. 4610.12  36 
   5   0 -11 121877. 4158.92   8 
  -5   0  11 123343. 4366.91  30 
  -5   0  11 122130. 4269.02  55 
  -5   0  10 98377.6 3707.22  41 
   5   0 -10 96991.3 3663.22  40 
  -5   0  10 97031.0 3832.82  36 
  -5   0  10 88554.9 3817.22  17 
  -5   0  10 95872.3 3377.39  63 
   5   0 -10 97787.5 3276.36   1 
   5   0 -10 98229.5 3423.67   8 
   5   0 -10 103742. 3367.28  28 
  -5   0  10 99908.2 3525.27  55 
  -5   0   9 191184. 6278.83  41 
  -5   0   9 189512. 6436.79  36 
   5   0  -9 187827. 5812.66   9 
   5   0  -9 193943. 6002.96   8 
   5   0  -9 193819. 6037.47  68 
  -5   0   9 189650. 6470.05  17 
   5   0  -9 200009. 5911.96  28 
  -5   0   9 193579. 6100.36  55 
  -5   0   9 185229. 5950.92  63 
   5   0  -8 1265.52 257.011  40 
   5   0  -8 1312.27 243.377  68 
  -5   0   8 1287.86 312.815  17 
  -5   0   8 1406.96 230.560  63 
   5   0  -8 1525.00 243.240   8 
  -5   0   8 1629.87 339.320  36 
  -5   0   8 1708.75 286.663  55 
   5   0  -7 17840.9 907.830  68 
  -5   0   7 18954.1 882.417  63 
  -5   0   7 18203.1 878.063  52 
  -5   0   6 11473.2 621.310  63 
   5   0  -6 12278.5 731.056  61 
  -5   0   6 12529.6 724.938  56 
  -5   0   6 11035.6 621.841  52 
   5   0  -5 371031. 10507.6  61 
  -5   0   5 350517. 10328.0  63 
  -5   0   5 360840. 10489.7  56 
  -5   0   5 346580. 10351.5  52 
  -5   0   4 176030. 5361.64  63 
   5   0  -4 180918. 5516.79  61 
  -5   0   4 183233. 5526.66  56 
  -5   0   4 180201. 5399.55  52 
   5   0  -3 70910.2 2470.95  59 
   5   0  -3 73602.5 2274.55  58 
  -5   0   3 72126.5 2486.39  56 
  -5   0   2 21302.9 1019.91  62 
   5   0  -2 21970.3 954.611  59 
   5   0  -2 19010.2 752.076  58 
  -5   0   2 21287.0 971.007  56 
  -5   0   1 11458.9 689.929  62 
   5   0  -1 13648.5 705.774  59 
   5   0  -1 12098.8 504.665  58 
   5   0  -1 13943.8 766.295  57 
  -5   0   0 64242.8 2267.62  62 
   5   0   0 67971.6 2425.51  57 
  -5   0   0 66188.9 2380.53  54 
  -5   0  -1 54268.9 1984.95  62 
   5   0   1 55710.0 2026.19  60 
  -5   0  -1 58668.2 2184.15  54 
   5   0   2 49990.8 1842.53  60 
   5   0   2 49339.5 2050.67  57 
  -5   0  -2 48728.3 1804.46  67 
  -5   0  -2 48469.5 1973.46  54 
   5   0   3 5146.83 610.600  24 
   5   0   3 4632.95 677.919  23 
  -5   0  -3 5133.99 432.325  67 
  -5   0  -3 5375.32 432.505  69 
   5   0   3 5259.59 455.373  60 
   5   0   3 5733.81 590.239  57 
  -5   0  -3 5331.57 539.582  54 
   5   0   4 62347.6 2682.53  24 
  -5   0  -4 59300.8 2196.93  69 
   5   0   4 64093.4 3037.18  23 
  -5   0  -4 57270.0 2144.44  18 
   5   0   4 59447.9 2566.06  57 
   5   0   5 23178.1 1499.86  24 
  -5   0  -5 21865.1 1160.70  64 
   5   0   5 26632.8 1868.40  23 
  -5   0  -5 23385.4 1097.08  20 
  -5   0  -5 23994.6 1132.46  18 
  -5   0  -5 22989.2 1127.91  69 
   5   0   5 23827.6 1448.63  57 
   5   0   5 28367.4 1671.27  50 
   5   0   6 1744.74 431.078  24 
   5   0   6 2106.95 569.096  23 
  -5   0  -6 2076.54 318.252  18 
  -5   0  -6 1716.29 286.491  20 
  -5   0  -6 1846.14 286.653  69 
  -5   0  -6 2306.23 337.989  64 
   5   0   6 1836.94 418.358  57 
  -5   0  -6 1861.50 382.229  54 
   5   0   6 2046.76 477.158  50 
   5   0   7 9876.43 995.331  24 
   5   0   7 9994.84 1235.21  23 
  -5   0  -7 11000.5 929.723  37 
  -5   0  -7 9842.62 748.555  18 
  -5   0  -7 9106.72 687.263  69 
  -5   0  -7 10028.6 766.026  66 
  -5   0  -7 9787.60 747.475  64 
   5   0   7 11619.9 1039.27  57 
  -5   0  -7 10124.0 890.733  54 
  -5   0  -7 10659.9 749.813  20 
   5   0   7 13202.1 1172.89  50 
   5   0   8 10279.3 1028.69  24 
  -5   0  -8 10687.8 785.204  20 
   5   0   8 11738.6 1346.46  23 
  -5   0  -8 10691.5 959.787  37 
  -5   0  -8 10853.0 812.377  18 
   5   0   8 12591.6 1372.77  15 
   5   0   8 12338.2 1121.23  50 
   5   0   9 10447.3 1027.52  24 
   5   0   9 13218.8 1366.19  15 
  -5   0  -9 11437.1 842.768  18 
  -5   0  -9 11875.5 1011.62  37 
  -5   0  -9 11929.6 1011.41  26 
   5   0   9 13327.2 1109.90  50 
   5   0  10 7935.93 828.189  24 
  -5   0 -10 9176.04 837.379  37 
  -5   0 -10 9411.93 734.970  18 
   5   0  10 10852.1 1175.72  15 
  -5   0 -10 9812.67 873.735  26 
   5   0  11 3007.02 504.439  45 
  -5   0 -11 3845.54 424.001  18 
   5   0  11 3861.07 666.557  15 
  -5   0 -11 3646.25 484.789  26 
   5   0  12 15805.9 1018.22  45 
   5   0  12 14154.5 1120.14  23 
  -5   0 -12 17537.7 833.442  21 
  -5   0 -12 18684.6 978.157  26 
  -5   0 -12 18997.1 847.720  82 
  -5   1  16 4702.50 499.721  43 
   5   1 -16 5180.59 421.095   1 
  -5   1  15 5842.21 652.249  43 
  -5   1  15 5142.35 542.692  22 
   5   1 -15 5485.54 620.646  40 
   5   1 -15 6086.88 492.020   1 
  -5   1  14 13214.4 823.565  12 
  -5   1  14 14172.3 1047.00  42 
  -5   1  14 13129.3 957.539  22 
   5   1 -14 14317.5 1076.68  40 
   5   1 -14 14578.1 841.547   1 
  -5   1  13 5722.65 548.768  12 
  -5   1  13 6102.15 705.368  42 
  -5   1  13 6264.01 670.258  22 
   5   1 -13 5500.60 677.327  40 
   5   1 -13 6291.64 526.490   9 
   5   1 -13 7121.24 600.787  28 
  -5   1  12 1015.66 318.339  42 
  -5   1  12 1227.67 327.628  22 
   5   1 -12 914.015 327.376  40 
   5   1 -12 1468.97 249.411   9 
   5   1 -12 1205.39 260.927  28 
   5   1 -12 995.521 236.134   8 
   5   1 -11 37776.1 1759.91  68 
  -5   1  11 39247.6 1991.55  42 
  -5   1  11 41525.8 2044.29  41 
   5   1 -11 38143.4 1878.06  40 
  -5   1  11 39996.6 1986.61  30 
  -5   1  11 37233.8 2081.54  17 
   5   1 -11 39240.1 1650.65   8 
  -5   1  11 41011.4 1686.46  63 
   5   1 -11 41144.6 1632.42  28 
  -5   1  11 41169.2 1868.42  55 
  -5   1  11 40384.7 2053.54  36 
   5   1 -11 39747.1 1552.04   9 
   5   1 -10 78638.1 2665.04  28 
  -5   1  10 78363.5 3122.53  42 
  -5   1  10 76635.3 3131.83  41 
  -5   1  10 80743.5 3297.08  17 
   5   1 -10 80946.5 2974.29  40 
  -5   1  10 77165.0 3181.54  36 
   5   1 -10 79576.6 2893.02  68 
  -5   1  10 79259.3 2758.07  63 
   5   1 -10 78686.9 2733.11   8 
   5   1 -10 77480.6 2594.13   9 
  -5   1  10 80850.9 2972.10  55 
  -5   1   9 17257.7 1119.26  41 
   5   1  -9 16763.6 969.388  40 
   5   1  -9 16791.7 751.423   9 
  -5   1   9 17920.3 1163.12  36 
   5   1  -9 19398.1 1007.74  68 
  -5   1   9 15849.1 1164.43  17 
   5   1  -9 18142.0 875.924   8 
  -5   1   9 17098.1 877.196  63 
   5   1  -9 17246.1 810.838  28 
  -5   1   9 19253.6 1047.75  55 
   5   1  -9 19253.6 859.306  16 
  -5   1   8 10207.8 781.443  41 
   5   1  -8 10868.2 678.955  40 
   5   1  -8 10920.7 688.461  68 
  -5   1   8 10779.5 860.769  17 
   5   1  -8 10590.3 595.707   8 
   5   1  -8 9376.91 607.346  32 
   5   1  -8 10905.4 567.819  16 
   5   1  -8 10103.8 733.686  61 
  -5   1   8 10769.1 602.342  63 
  -5   1   8 10095.2 700.908  55 
  -5   1   8 10190.6 810.551  36 
   5   1  -7 57634.2 1928.43   4 
   5   1  -7 56336.9 1929.08   8 
   5   1  -7 61513.2 2103.25  68 
  -5   1   7 59569.4 1953.55  63 
   5   1  -7 55764.1 2175.26  61 
  -5   1   7 57440.8 2124.31  55 
  -5   1   7 61500.0 2141.96  52 
  -5   1   6 44290.3 1546.29  63 
   5   1  -6 47053.7 1687.03  68 
   5   1  -6 44318.6 1772.96  61 
  -5   1   6 44564.9 1746.33  56 
  -5   1   6 44802.4 1718.70  52 
   5   1  -5 68668.9 2477.47  59 
  -5   1   5 67513.6 2196.48  63 
   5   1  -5 66256.6 2421.98  61 
  -5   1   5 73071.1 2441.41  56 
  -5   1   5 72885.5 2417.66  52 
  -5   1   4 40733.7 1404.43  63 
   5   1  -4 46772.2 1651.92  61 
   5   1  -4 40650.1 1645.74  59 
  -5   1   4 42674.7 1629.97  56 
  -5   1   4 44365.1 1619.13  52 
   5   1  -3 53191.0 1845.25  59 
  -5   1   3 51104.3 1828.47  56 
   5   1  -2 20757.8 782.420  65 
   5   1  -2 20019.1 949.881  59 
  -5   1   2 20262.5 965.979  56 
   5   1  -1 35147.0 1187.76  65 
   5   1  -1 35967.1 1400.89  59 
  -5   1   1 35966.4 1416.87  54 
   5   1   0 144271. 4406.90  57 
  -5   1   0 129817. 4197.51  67 
   5   1   0 136892. 3993.90  65 
  -5   1   0 132822. 4326.42  54 
   5   1   1 59143.5 2054.28  60 
  -5   1  -1 59546.8 2038.69  67 
   5   1   1 61074.6 2250.92  57 
  -5   1  -1 53945.1 2153.17  54 
   5   1   2 2617.69 295.431  60 
   5   1   2 2904.85 390.293  57 
  -5   1  -2 2793.66 363.680  54 
  -5   1  -2 2624.18 289.394  67 
   5   1   3 38099.5 1826.86  24 
   5   1   3 32931.9 1394.32  44 
   5   1   3 35816.8 1973.93  23 
  -5   1  -3 31474.7 1360.26  67 
   5   1   3 34308.3 1391.51  60 
   5   1   3 34930.5 1643.58  57 
  -5   1  -3 32653.0 1554.57  54 
   5   1   4 59803.6 2536.96  24 
   5   1   4 52245.0 1999.33  44 
   5   1   4 55106.3 2737.29  23 
  -5   1  -4 51588.9 2041.59  69 
  -5   1  -4 51377.5 1990.66  64 
   5   1   4 50511.3 1766.17  63 
   5   1   4 52333.2 2305.73  57 
  -5   1  -4 48459.0 2189.57  54 
   5   1   4 55352.4 1891.60  34 
   5   1   5 8049.45 609.175  44 
   5   1   5 10078.9 1114.26  23 
  -5   1  -5 7604.17 622.797  69 
  -5   1  -5 8282.47 618.279  64 
   5   1   5 8108.92 785.403  57 
  -5   1  -5 7129.81 707.510  54 
   5   1   6 1357.90 263.472  44 
   5   1   6 1409.24 497.406  23 
  -5   1  -6 1049.95 201.224  20 
  -5   1  -6 1266.81 261.852  69 
  -5   1  -6 1437.56 273.778  64 
   5   1   6 1275.91 353.606  57 
  -5   1  -6 928.962 287.492  54 
   5   1   7 9063.79 949.152  24 
   5   1   7 8042.43 626.529  44 
   5   1   7 7539.49 1050.45  23 
  -5   1  -7 5547.55 545.763  66 
  -5   1  -7 6980.31 532.233  20 
  -5   1  -7 7572.63 642.531  69 
  -5   1  -7 6907.21 600.796  64 
   5   1   7 7271.12 796.458  57 
  -5   1  -7 7021.22 731.582  54 
   5   1   8 18011.8 1378.23  24 
   5   1   8 16369.8 952.359  44 
   5   1   8 16052.3 1572.16  23 
  -5   1  -8 17321.8 930.469  20 
  -5   1  -8 15664.5 929.686  18 
   5   1   9 3069.80 362.952  44 
   5   1   9 2906.71 532.226  24 
   5   1   9 3972.35 750.191  23 
  -5   1  -9 3836.65 438.142  18 
  -5   1  -9 3260.92 385.945  20 
   5   1  10 1599.67 406.920  45 
   5   1  10 1615.49 234.964  44 
   5   1  10 1219.95 372.826  24 
   5   1  10 1561.70 528.753  23 
  -5   1 -10 1477.20 251.166  20 
  -5   1 -10 1397.20 320.525  37 
  -5   1 -10 1631.21 284.381  18 
   5   1  11 8594.79 779.729  45 
   5   1  11 8077.30 754.412  24 
   5   1  11 8170.50 926.755  23 
  -5   1 -11 9177.57 588.564  82 
  -5   1 -11 9152.84 711.942  37 
  -5   1 -11 8920.46 606.653  18 
   5   1  11 10764.2 1043.25  15 
  -5   1 -11 8458.33 690.273  26 
   5   1  12 15373.5 914.109  45 
   5   1  12 15544.9 1088.87  23 
  -5   1 -12 16440.3 730.138  82 
  -5   1 -12 16793.0 790.568  18 
   5   1  12 17925.4 1155.96  15 
  -5   1 -12 17365.7 895.548  37 
  -5   1 -12 16006.1 874.985  26 
   5   2 -16 10947.6 550.020   1 
  -5   2  15 3794.05 368.845  12 
   5   2 -15 4746.29 370.875   1 
  -5   2  14 3221.59 390.243  12 
   5   2 -14 3591.30 449.274  40 
   5   2 -14 3110.89 319.989   9 
   5   2 -14 3235.26 371.821  28 
  -5   2  14 2815.14 328.143  25 
  -5   2  13 1542.84 319.113  12 
   5   2 -13 754.384 261.520  40 
   5   2 -13 1477.40 231.464   9 
  -5   2  13 1366.45 351.339  30 
   5   2 -13 1275.56 249.427  28 
  -5   2  12 344.960 247.282  22 
   5   2 -12 130.838 160.344  40 
   5   2 -12 256.531 120.115   9 
   5   2 -12 142.641 163.118  16 
  -5   2  12 121.209 191.307  30 
   5   2 -12 237.058 162.041  28 
   5   2 -11 6477.65 614.735  40 
   5   2 -11 6481.35 446.736   9 
   5   2 -11 6056.66 485.887   8 
   5   2 -11 6404.24 504.855  16 
  -5   2  11 5279.97 648.912  30 
   5   2 -11 6294.22 482.347  28 
   5   2 -10 2248.70 359.019  40 
   5   2 -10 2435.40 344.414  68 
   5   2 -10 2447.08 293.603   8 
  -5   2  10 2543.30 309.061  63 
  -5   2  10 2901.35 478.415  30 
  -5   2  10 3009.82 425.059  53 
   5   2  -9 58438.8 2268.22  40 
   5   2  -9 65237.1 2134.87   4 
   5   2  -9 62442.5 2286.30  68 
   5   2  -9 59440.8 2105.65   8 
  -5   2   9 61603.6 2149.22  63 
   5   2  -8 15777.9 760.758   4 
   5   2  -8 15732.6 849.372  40 
   5   2  -8 13826.7 731.674   8 
   5   2  -8 15133.5 837.510  68 
   5   2  -8 12997.5 749.876  32 
   5   2  -8 14788.7 726.349  16 
  -5   2   8 15127.4 743.446  63 
   5   2  -7 1014.76 204.676  40 
   5   2  -7 707.755 166.057   4 
   5   2  -7 967.126 181.546  32 
  -5   2   7 1119.50 168.382  63 
  -5   2   7 785.219 203.497  52 
   5   2  -7 848.338 176.159   8 
   5   2  -6 42174.8 1516.00  40 
   5   2  -6 36455.2 1351.34   8 
   5   2  -6 35106.9 1349.20  32 
   5   2  -6 29402.7 1288.90   5 
  -5   2   6 34686.3 1266.93  63 
   5   2  -6 36936.8 1471.84  61 
  -5   2   6 36260.3 1527.87  52 
   5   2  -5 75034.3 2579.70   5 
   5   2  -5 84948.6 2617.44   8 
   5   2  -5 84289.7 2623.00  32 
   5   2  -5 79931.9 2819.77  59 
  -5   2   5 83434.6 2811.25  52 
   5   2  -5 82732.3 2603.64   4 
   5   2  -4 24095.9 1018.26   5 
   5   2  -4 25904.9 1166.87  59 
  -5   2   4 22762.5 1046.83  56 
  -5   2   4 24030.4 1144.49  52 
   5   2  -3 8335.64 507.579   5 
   5   2  -3 8030.99 519.096  34 
   5   2  -3 8599.82 562.897  65 
   5   2  -3 7860.18 542.647  59 
  -5   2   3 7465.62 500.104  56 
  -5   2   3 8225.11 578.003  52 
   5   2  -2 24487.0 974.869   5 
   5   2  -2 19819.8 844.868  70 
   5   2  -2 22126.7 985.732  65 
   5   2  -2 21686.4 977.696  59 
  -5   2   2 19240.4 936.086  56 
   5   2  -2 22611.0 987.324  34 
   5   2  -1 20440.9 934.231  34 
   5   2  -1 19235.6 769.615  70 
   5   2  -1 18847.7 882.455  65 
   5   2  -1 21901.4 924.175   5 
  -5   2   1 17808.8 907.844  56 
   5   2   0 15647.5 845.597  44 
  -5   2   0 14467.5 765.047  67 
   5   2   0 17604.2 814.667   5 
   5   2   0 16621.5 768.094  65 
  -5   2   0 15015.8 820.227  56 
   5   2   0 17394.3 856.283  34 
   5   2   1 20955.4 1234.31  24 
   5   2   1 18647.6 982.077  44 
   5   2   1 22817.7 954.254   5 
  -5   2  -1 18087.0 878.666  67 
   5   2   1 19954.4 858.115  65 
  -5   2  -1 17148.5 961.167  54 
   5   2   2 7559.69 735.408  24 
   5   2   2 5282.14 458.812   7 
   5   2   2 7055.15 479.276   5 
   5   2   2 7705.61 542.912  34 
  -5   2  -2 5741.90 449.039  67 
  -5   2  -2 6117.18 543.198  54 
   5   2   3 41459.0 1965.07  24 
   5   2   3 27332.3 1347.69   7 
   5   2   3 37993.7 1378.95   5 
   5   2   3 40693.7 1508.69  34 
  -5   2  -3 33988.6 1514.61  69 
  -5   2  -3 30129.6 1326.48  67 
  -5   2  -3 28718.3 1506.48  54 
   5   2   4 104021. 3767.92  24 
   5   2   4 82779.9 3116.16  44 
   5   2   4 96830.2 3067.83  34 
  -5   2  -4 77891.0 3078.07  69 
   5   2   4 92145.6 2905.12   5 
  -5   2  -4 75885.1 3174.33  54 
   5   2   5 5433.28 725.366  24 
   5   2   5 5115.88 528.649  44 
   5   2   5 6309.45 514.166  34 
   5   2   5 5422.07 404.845   5 
  -5   2  -5 5113.63 518.607  69 
   5   2   5 5265.01 428.730  63 
  -5   2  -5 5079.01 584.218  54 
   5   2   6 14732.0 1210.50  24 
   5   2   6 10582.1 983.565  45 
   5   2   6 12337.5 857.369  44 
   5   2   6 11958.6 1202.06  23 
   5   2   6 12199.6 738.766  34 
   5   2   7 5729.47 786.717  24 
   5   2   7 4777.84 658.341  45 
   5   2   7 5113.72 529.281  44 
   5   2   7 5894.75 844.888  23 
  -5   2  -7 4471.31 386.790  20 
   5   2   7 5819.94 455.476  34 
   5   2   8 1720.71 408.506  45 
   5   2   8 2417.03 353.413  44 
   5   2   8 2607.47 562.780  24 
   5   2   8 2339.76 557.263  23 
  -5   2  -8 1906.38 258.703  20 
   5   2   9 27247.5 1224.49  44 
   5   2   9 25499.2 1712.37  23 
  -5   2  -9 22954.0 1054.86  20 
  -5   2  -9 23694.3 1100.86  18 
   5   2  10 1797.94 249.016  44 
   5   2  10 2453.98 456.413  24 
   5   2  10 1549.34 389.196  23 
  -5   2 -10 1319.02 200.704  20 
  -5   2 -10 1458.17 229.088  18 
   5   2  10 1977.03 478.293  15 
   5   2  11 889.463 143.973  44 
   5   2  11 863.623 258.717  24 
  -5   2 -11 800.854 191.601  37 
  -5   2 -11 841.221 163.183  18 
  -5   3  14 26427.4 1151.29  12 
  -5   3  14 23578.8 1170.55  22 
   5   3 -14 26570.0 997.220   9 
  -5   3  14 27795.6 1102.58  31 
   5   3 -14 27552.4 1076.86  28 
  -5   3  14 27696.3 1102.66  25 
  -5   3  13 599.317 182.962  25 
  -5   3  13 522.352 193.335  22 
   5   3 -13 788.738 149.771   9 
  -5   3  13 493.418 153.067   2 
   5   3 -13 493.916 154.615  28 
  -5   3  12 4212.19 484.961  12 
   5   3 -12 4262.52 323.283   9 
  -5   3  12 4185.32 498.931  22 
   5   3 -12 3248.42 397.830  40 
   5   3 -12 4666.42 389.833  16 
  -5   3  12 3644.51 447.520  30 
   5   3 -12 3749.66 347.097  28 
  -5   3  11 34397.1 1658.78  22 
   5   3 -11 29374.6 1406.33  40 
   5   3 -11 31315.4 1177.21   9 
   5   3 -11 29319.0 1218.45   8 
   5   3 -11 31748.1 1271.85  16 
  -5   3  11 31644.5 1555.27  30 
   5   3 -11 30017.1 1241.18  28 
   5   3 -10 72594.1 2734.67  40 
   5   3 -10 77293.4 2570.47   4 
   5   3 -10 74502.5 2541.52   8 
  -5   3  10 79867.6 2993.30  30 
   5   3  -9 13454.8 721.246   4 
   5   3  -9 13277.7 807.153  40 
   5   3  -9 12870.4 698.827   8 
  -5   3   9 15199.9 997.493  30 
   5   3  -8 22749.1 1006.30   4 
   5   3  -8 22505.1 1100.24  40 
   5   3  -8 20417.8 970.985   8 
   5   3  -8 19277.1 967.987  32 
   5   3  -7 2226.64 280.807   4 
   5   3  -7 2273.73 318.626  40 
   5   3  -7 2159.79 279.265   8 
   5   3  -7 1701.38 254.020  32 
  -5   3   7 1974.16 340.498  53 
   5   3  -6 17213.8 872.738  32 
   5   3  -6 18139.1 896.098   8 
  -5   3   6 17191.5 1048.47  53 
  -5   3   6 17270.5 985.416  52 
   5   3  -6 17149.5 876.834   4 
   5   3  -5 53072.3 1872.11   8 
   5   3  -5 45681.7 1772.17   5 
   5   3  -5 51581.4 1847.16  32 
  -5   3   5 45495.7 1982.95  53 
  -5   3   5 47483.6 1931.31  52 
   5   3  -4 40771.1 1702.90  34 
   5   3  -4 46890.9 1718.05   5 
   5   3  -4 45977.5 1931.32  65 
  -5   3   4 43354.1 1839.43  53 
  -5   3   4 43355.8 1816.22  52 
   5   3  -3 54686.3 1945.11   5 
   5   3  -3 50867.0 1965.83  34 
   5   3  -3 50275.0 1936.75  70 
   5   3  -3 49942.1 2069.11  65 
  -5   3   3 45884.8 1972.83  52 
   5   3  -2 17318.0 871.623   5 
   5   3  -2 16573.7 876.978  34 
   5   3  -2 14579.7 887.347  65 
  -5   3   2 14083.2 860.450  52 
   5   3  -1 35088.2 1484.82  34 
   5   3  -1 33394.7 1471.79  65 
  -5   3   1 29778.0 1440.78  52 
   5   3   0 19672.8 965.376   5 
   5   3   0 18481.1 987.149  34 
  -5   3   0 15271.4 900.433  69 
   5   3   0 16238.7 895.821  65 
   5   3   1 12995.5 824.871  44 
  -5   3  -1 12292.5 791.251  69 
   5   3   1 11940.4 716.941  65 
   5   3   2 38327.6 1506.18   5 
   5   3   2 37667.1 1571.14  34 
   5   3   3 127796. 4474.74  24 
   5   3   3 110132. 3968.06  44 
   5   3   3 133265. 3903.98   5 
  -5   3  -3 100896. 3863.26  69 
   5   3   4 5068.79 673.274  24 
   5   3   4 4071.89 483.485  44 
   5   3   4 4594.37 427.774   5 
   5   3   4 4717.53 479.312  34 
   5   3   5 32422.3 1833.27  24 
   5   3   5 26624.1 1408.56  44 
   5   3   5 29965.4 1253.44   5 
   5   3   5 31623.1 1406.90  34 
   5   3   6 11465.3 1014.87  24 
   5   3   6 9154.82 714.554  44 
   5   3   6 8987.96 551.848   5 
   5   3   6 10536.7 677.561  34 
   5   3   7 6548.12 757.806  24 
   5   3   7 6703.98 579.129  44 
   5   3   7 6889.79 507.049  34 
   5   3   8 4891.96 608.452  24 
  -5   3  -8 4495.83 328.406  20 
   5   3   8 4635.00 359.978  34 
   5   3   9 2141.03 378.524  24 
  -5   3  -9 1637.42 195.365  18 
   5   3   9 2689.70 480.073  15 
  -5   4  12 1205.05 191.504  12 
  -5   4  12 1442.95 192.688  31 
   5   4 -12 1123.21 153.524  28 
  -5   4  12 1295.04 177.222   2 
  -5   4  12 1382.79 193.938  25 
  -5   4  11 5024.46 418.063  12 
   5   4 -11 4067.48 264.598   9 
   5   4 -11 4985.65 332.243  16 
   5   4 -11 4289.38 308.174  28 
  -5   4  11 5143.03 418.509  25 
   5   4 -10 28939.6 1211.56  40 
   5   4 -10 27092.3 1068.02   8 
   5   4  -9 29346.7 1263.18  40 
   5   4  -9 31907.3 1188.04   4 
   5   4  -9 29262.6 1147.15   8 
   5   4  -8 11188.6 606.826   4 
   5   4  -8 11873.9 681.804  40 
   5   4  -8 10514.8 589.422   8 
   5   4  -8 9190.31 555.129  32 
   5   4  -8 11243.2 603.132  16 
   5   4  -7 1775.20 256.788   4 
   5   4  -7 1499.64 250.191  40 
   5   4  -7 1780.31 246.054   8 
   5   4  -7 1741.19 232.768  32 
   5   4  -6 43459.7 1621.94   4 
   5   4  -6 40412.7 1604.42   8 
   5   4  -6 38758.9 1566.92  32 
   5   4  -5 10347.3 639.408   8 
   5   4  -5 9863.96 621.677  32 
   5   4  -5 8530.52 555.158   5 
   5   4  -4 91275.2 2996.79   8 
   5   4  -4 91746.1 2983.79  32 
   5   4  -3 8288.38 567.530   5 
   5   4  -3 9067.62 609.789  32 
   5   4  -2 489.870 171.722  34 
   5   4  -2 379.177 203.319  32 
   5   4  -2 453.679 165.981   5 
   5   4  -1 21.5239 105.464  34 
   5   4  -1 141.904 133.257   5 
   5   4   0 2771.00 346.938   5 
   5   4   0 2651.40 348.029  34 
   5   4   1 20983.3 1044.90   5 
   5   4   1 19580.9 1049.41  34 
   5   4   2 55339.5 2134.93  34 
   5   4   3 21325.7 1003.96   5 
   5   4   3 20441.7 1055.04  34 
   5   4   4 16442.0 817.285   5 
   5   4   5 17840.1 899.686  34 
   5   4   5 17198.8 796.419   5 
   5   4   5 17783.3 781.204  32 
   5   4   6 1821.01 240.831  34 
   5   4   6 1589.15 182.640   5 
   5   4   7 5685.64 369.629  34 
   5   5  -7 7397.13 376.397   4 
   5   5  -7 6732.40 355.940   8 
   5   5  -7 7407.35 362.892  16 
   5   5  -6 16306.3 664.388   4 
   5   5  -6 15619.3 682.833  40 
   5   5  -6 15204.5 652.037   8 
   5   5  -6 15830.0 637.045  16 
   5   5  -5 28340.7 1040.77  40 
   5   5  -5 26974.2 988.302   8 
   5   5  -5 23433.2 938.979  32 
   5   5  -5 25333.9 937.071  16 
   5   5  -4 13233.8 638.185  32 
   5   5  -4 15291.6 664.909   4 
   5   5  -4 16545.8 730.571  40 
   5   5  -4 14543.9 662.382   8 
   5   5  -3 12783.9 597.845   4 
   5   5  -3 12798.5 612.676  32 
   5   5  -3 11179.7 565.690   5 
   5   5  -2 2562.95 276.420  40 
   5   5  -2 1789.35 212.090   8 
   5   5  -2 2037.93 226.719  32 
   5   5  -2 1972.25 211.786   5 
   5   5  -2 1740.81 198.313   4 
   5   5  -1 3464.03 279.142   8 
   5   5  -1 3051.14 269.453   5 
   5   5  -1 3630.42 293.650  32 
   5   5  -1 3151.71 255.443   4 
   5   5   0 6523.23 371.864   8 
   5   5   0 5901.77 386.082  34 
   5   5   0 5763.30 388.924   5 
   5   5   0 6749.07 412.909  32 
   5   5   0 5706.97 336.616   4 
   5   5   1 6584.38 354.757   8 
   5   5   1 6453.95 406.768  34 
   5   5   1 6759.87 410.717   5 
   5   5   2 1217.60 174.358  34 
   5   5   2 1283.14 164.365  32 
   5   5   2 1193.80 161.501   5 
   6  -5  -6 20759.8 752.737  72 
   6  -5  -5 15566.4 621.865  72 
  -6  -5   5 15020.7 773.327  51 
  -6  -5   5 14197.6 870.565  47 
   6  -5  -4 11178.9 509.750  72 
  -6  -5   4 10457.8 668.169  51 
  -6  -5   4 11157.6 767.261  47 
   6  -5  -3 3259.78 246.201  72 
  -6  -5   3 2963.32 358.071  51 
  -6  -5   3 3066.28 413.381  47 
   6  -5  -2 102.633 78.8457  72 
  -6  -5   2 252.029 166.184  47 
  -6  -5   1 384.788 180.973  47 
  -6  -5   0 333.096 200.013  47 
  -6  -4  11 5396.27 367.283  80 
  -6  -4  11 4354.04 568.443  14 
   6  -4 -11 5828.48 530.329  48 
  -6  -4  10 6357.78 443.213  80 
  -6  -4  10 6592.49 770.057  27 
  -6  -4  10 6952.94 762.745  14 
   6  -4 -10 6549.63 628.356  48 
  -6  -4   9 734.045 170.214  80 
  -6  -4   9 445.851 315.979  27 
  -6  -4   9 741.062 192.985  51 
  -6  -4   9 781.445 333.366  14 
   6  -4  -9 1129.21 306.795  48 
   6  -4  -8 13054.8 627.182  72 
  -6  -4   8 13141.0 1159.57  14 
  -6  -4   8 12736.4 811.118  51 
   6  -4  -8 13040.4 977.141  48 
  -6  -4   8 11736.0 975.098  47 
   6  -4  -7 36543.9 1384.29  72 
  -6  -4   7 37664.5 2330.23  27 
  -6  -4   7 36922.6 2088.73  14 
  -6  -4   7 34481.5 1655.82  51 
   6  -4  -7 37413.2 1813.80  48 
  -6  -4   7 34242.7 1925.32  47 
   6  -4  -6 18482.5 869.045  72 
   6  -4  -6 16974.4 956.783  77 
  -6  -4   6 17095.7 1524.57  27 
  -6  -4   6 18202.8 1368.47  14 
  -6  -4   6 17985.2 1160.12  51 
   6  -4  -6 17896.6 1128.70  48 
  -6  -4   6 15798.3 1287.89  47 
   6  -4  -5 14314.5 871.159  77 
   6  -4  -5 15506.2 798.083  72 
  -6  -4   5 15496.4 1453.35  27 
  -6  -4   5 13844.0 1251.24  47 
   6  -4  -4 2039.84 240.302  79 
   6  -4  -4 1578.88 280.575  77 
   6  -4  -4 1901.62 306.099  76 
   6  -4  -4 1709.06 258.624  72 
  -6  -4   4 1825.72 535.266  27 
  -6  -4   4 1238.23 462.462  47 
  -6  -4   3 25641.6 1576.75  46 
   6  -4  -3 23812.8 1012.94  79 
   6  -4  -3 23874.9 1171.83  77 
   6  -4  -3 24728.9 1107.17  72 
   6  -4  -3 25629.1 1226.74  76 
  -6  -4   3 24204.5 1828.18  27 
  -6  -4   3 21659.8 1617.91  26 
  -6  -4   2 15277.9 1202.12  46 
   6  -4  -2 15751.1 873.036  77 
   6  -4  -2 14721.4 734.236  79 
   6  -4  -2 14687.1 815.401  78 
   6  -4  -2 17071.3 944.074  76 
   6  -4  -2 14888.5 799.502  72 
   6  -4  -2 14902.6 939.560  75 
  -6  -4   2 18191.6 1510.00  27 
  -6  -4   2 15418.8 1355.95  26 
  -6  -4   1 2420.81 504.108  46 
   6  -4  -1 2930.49 289.080  79 
   6  -4  -1 2550.28 335.717  78 
   6  -4  -1 3537.60 370.851  77 
   6  -4  -1 2983.80 407.878  75 
   6  -4  -1 2901.42 377.617  76 
   6  -4  -1 3011.37 423.372  73 
   6  -4  -1 3166.43 331.538  72 
  -6  -4   1 3733.66 702.537  27 
  -6  -4   1 1617.27 474.052  26 
  -6  -4   0 14373.0 1169.68  46 
   6  -4   0 13022.0 655.637  79 
   6  -4   0 13658.5 829.935  78 
   6  -4   0 12696.8 745.395  77 
   6  -4   0 13620.3 915.047  75 
   6  -4   0 13859.5 963.681  73 
  -6  -4   0 13825.8 1221.70  27 
  -6  -4  -1 242.507 267.457  46 
   6  -4   1 146.576 165.891  75 
   6  -4   1 193.123 127.647  77 
   6  -4   1 162.489 136.098  72 
   6  -4   1 138.128 79.8651  79 
   6  -4   1 97.3611 141.157  78 
   6  -4   1 174.063 186.876  73 
  -6  -4  -1 231.346 327.207  26 
  -6  -4  -2 419.145 294.567  46 
  -6  -4  -2 315.546 177.793  10 
   6  -4   2 24.2655 133.831  78 
   6  -4   2 100.663 185.036  73 
  -6  -4  -2-54.9027 318.268  26 
  -6  -4  -3 15059.3 1137.21  46 
  -6  -4  -3 14069.7 915.188  10 
   6  -4   3 15811.3 893.121  78 
   6  -4   3 14649.6 975.126  73 
  -6  -4  -3 13613.7 1165.44  26 
  -6  -4  -4 10859.3 903.956  46 
  -6  -4  -4 9082.40 687.153  10 
   6  -4   4 11051.4 694.636  78 
   6  -4   4 10581.7 766.760  73 
  -6  -4  -4 10214.1 919.979  26 
  -6  -4  -5 15864.1 1014.14  46 
  -6  -4  -5 14373.5 812.880  10 
   6  -4   5 15130.2 792.954  78 
  -6  -4  -5 13498.9 959.970  26 
  -6  -4  -6 996.835 220.372  46 
   6  -4   6 643.498 147.168  78 
   6  -4   6 668.717 165.003  73 
  -6  -3  14 107.311 186.610  14 
   6  -3 -14 193.741 146.981  48 
  -6  -3  13 298.304 201.226  38 
  -6  -3  13 295.339 271.517  14 
   6  -3 -13 200.325 152.112  49 
   6  -3 -13 436.900 225.088  48 
  -6  -3  12 9523.46 877.845  38 
  -6  -3  12 9692.05 1051.77  14 
   6  -3 -12 9219.10 751.811  49 
  -6  -3  11 18791.9 1550.00  27 
   6  -3 -11 24527.3 1540.87  48 
   6  -3 -10 15397.6 954.308  76 
  -6  -3  10 15313.3 1471.28  14 
  -6  -3  10 17008.2 1520.62  27 
   6  -3 -10 15920.1 1275.06  48 
   6  -3  -9 28935.5 1499.48  76 
  -6  -3   9 33130.6 2237.63  14 
  -6  -3   9 32026.8 2255.07  27 
  -6  -3   9 30681.1 1460.71  51 
   6  -3  -9 32022.6 1663.99  49 
   6  -3  -9 31550.8 1910.07  48 
  -6  -3   9 34537.3 1885.41  47 
   6  -3  -8 15599.5 1024.88  76 
  -6  -3   8 16034.1 1519.25  14 
  -6  -3   8 15411.6 1540.64  27 
  -6  -3   8 15794.8 1024.90  51 
   6  -3  -8 17142.3 1109.34  49 
   6  -3  -8 17216.6 1320.34  48 
  -6  -3   8 15908.1 1287.21  47 
   6  -3  -7 13827.9 766.460  72 
  -6  -3   7 16668.0 1493.21  14 
  -6  -3   7 14933.7 1500.46  27 
  -6  -3   7 14437.3 1034.76  51 
   6  -3  -7 14799.5 1197.00  48 
   6  -3  -7 14142.6 968.896  76 
  -6  -3   7 13011.9 1228.17  47 
   6  -3  -6 42324.9 1670.66  72 
  -6  -3   6 42965.2 2399.41  62 
   6  -3  -6 39174.5 1894.96  76 
  -6  -3   6 47935.5 2624.12  14 
  -6  -3   6 47211.3 2773.34  27 
   6  -3  -6 46145.3 2217.03  48 
  -6  -3   6 39048.8 2339.19  47 
   6  -3  -5 29881.1 1556.18  76 
   6  -3  -5 32005.5 1230.32  79 
   6  -3  -5 30621.8 1333.39  72 
  -6  -3   5 29883.7 1935.21  62 
  -6  -3   5 33864.7 2109.37  14 
  -6  -3   5 27651.8 1850.19  26 
   6  -3  -5 32874.7 1735.90  48 
  -6  -3   4 15547.0 1195.47  46 
   6  -3  -4 15980.1 1047.63  76 
   6  -3  -4 16621.8 790.174  79 
   6  -3  -4 16725.2 879.096  72 
  -6  -3   4 15869.6 1318.22  62 
   6  -3  -4 15319.1 1054.77  58 
  -6  -3   4 17381.6 1426.37  14 
  -6  -3   4 17379.8 1563.49  27 
   6  -3  -4 17139.1 1087.79  75 
  -6  -3   4 16429.0 1380.42  26 
  -6  -3   3 2922.23 536.495  46 
   6  -3  -3 3289.80 308.192  79 
   6  -3  -3 2792.57 425.134  76 
   6  -3  -3 3230.86 464.247  75 
   6  -3  -3 3181.41 349.809  72 
  -6  -3   3 2354.92 504.445  62 
   6  -3  -3 2429.41 396.234  58 
  -6  -3   3 2887.23 682.250  27 
  -6  -3   3 3450.18 635.104  14 
  -6  -3   3 2977.42 610.938  26 
  -6  -3   2 3401.88 593.355  46 
   6  -3  -2 3374.43 430.841  77 
   6  -3  -2 2861.89 300.753  79 
   6  -3  -2 2521.42 414.246  76 
  -6  -3   2 2926.85 587.377  35 
   6  -3  -2 3094.89 339.764  72 
  -6  -3   2 3998.24 615.432  62 
   6  -3  -2 3718.59 470.207  58 
   6  -3  -2 3908.63 523.357  75 
  -6  -3   2 3016.63 669.878  27 
  -6  -3   2 2673.28 579.232  26 
  -6  -3   1 1897.54 488.162  46 
  -6  -3   1 2042.97 540.368  39 
   6  -3  -1 2146.03 257.094  79 
   6  -3  -1 1693.49 323.869  78 
   6  -3  -1 2106.04 366.289  76 
   6  -3  -1 2434.76 430.110  75 
  -6  -3   1 2078.50 549.745  35 
   6  -3  -1 1686.74 257.053  72 
   6  -3  -1 2136.65 335.963  77 
  -6  -3   1 3146.10 655.565  27 
  -6  -3   1 1711.71 503.937  26 
   6  -3   0 4355.58 584.925  75 
  -6  -3   0 4982.08 572.397  10 
  -6  -3   0 4438.86 728.854  39 
   6  -3   0 5463.08 548.576  78 
   6  -3   0 5478.41 515.838  77 
   6  -3   0 4744.94 545.198  76 
   6  -3   0 4951.02 421.067  72 
  -6  -3   0 4899.96 763.596  35 
  -6  -3   0 4682.07 801.008  27 
  -6  -3   0 4379.09 745.872  26 
  -6  -3   0 4647.77 715.760  46 
  -6  -3  -1 36543.3 1798.73  10 
   6  -3   1 35014.4 1696.28  76 
  -6  -3  -1 34942.8 2105.86  39 
   6  -3   1 32189.0 1633.69  78 
   6  -3   1 33765.4 1537.48  77 
   6  -3   1 32145.8 1763.50  75 
  -6  -3  -1 37131.1 2220.62  35 
  -6  -3  -1 36403.6 2252.32  27 
  -6  -3  -1 38856.7 2282.53  26 
  -6  -3  -2 33717.3 1755.25  10 
  -6  -3  -2 32069.7 2022.01  39 
   6  -3   2 33630.2 1678.14  78 
   6  -3   2 33266.8 1500.02  77 
   6  -3   2 32492.0 1755.45  75 
  -6  -3  -2 34419.0 2161.19  35 
  -6  -3  -2 35859.0 2186.37  27 
   6  -3   2 32890.1 1628.61  76 
  -6  -3  -3 51142.4 2353.98  10 
  -6  -3  -3 48780.1 2615.97  39 
   6  -3   3 50349.6 2264.42  78 
   6  -3   3 50436.4 2028.82  77 
  -6  -3  -3 55090.7 2844.65  35 
  -6  -3  -3 49735.8 2649.91  27 
  -6  -3  -4 29118.1 1614.80  10 
  -6  -3  -4 25716.3 1719.32  39 
  -6  -3  -4 30139.5 1980.25  35 
   6  -3   4 30109.4 1684.12  73 
   6  -3   4 28960.3 1575.21  75 
  -6  -3  -4 27768.7 1906.35  26 
  -6  -3  -5 25854.7 1483.77  10 
  -6  -3  -5 25355.6 1571.64  39 
   6  -3   5 25111.4 1417.78  75 
   6  -3   5 26145.0 1517.02  73 
  -6  -3  -5 26792.0 1787.67  26 
   6  -3   5 31399.3 1712.88  50 
  -6  -3  -6 4540.91 545.766  10 
   6  -3   6 4366.64 505.872  78 
   6  -3   6 3718.45 524.486  73 
  -6  -3  -6 3679.54 609.502  26 
  -6  -3  -7 5278.89 544.680  10 
   6  -3   7 5700.11 543.206  78 
  -6  -3  -7 5698.88 696.164  35 
   6  -3   7 5293.24 531.517  73 
   6  -3   7 7310.92 691.931  50 
  -6  -3  -7 6300.65 700.151  26 
  -6  -3  -8 491.050 171.479  10 
   6  -3   8 504.307 170.664  78 
  -6  -3  -8 516.910 235.250  35 
   6  -3   8 508.390 151.372  73 
  -6  -3  -8 845.635 244.916  26 
   6  -3   9 828.137 171.044  78 
  -6  -2  15 4543.09 603.626  38 
   6  -2 -15 3974.57 404.602  29 
  -6  -2  15 3678.01 533.152  14 
   6  -2 -15 4722.46 510.352  48 
  -6  -2  14 3209.90 411.357  43 
  -6  -2  14 3053.18 581.465  38 
   6  -2 -14 2774.67 386.605  29 
  -6  -2  14 2941.89 592.518  14 
   6  -2 -14 2627.39 447.360  48 
  -6  -2  13 14071.3 938.756  42 
   6  -2 -13 13306.0 936.125  29 
  -6  -2  13 15990.3 1401.06  14 
   6  -2 -13 13726.1 1128.67  48 
  -6  -2  12 21529.1 1256.61  42 
   6  -2 -12 21499.3 1269.91  29 
  -6  -2  12 20921.3 1739.38  14 
  -6  -2  12 18830.2 1487.05  27 
   6  -2 -12 22934.8 1421.34   8 
  -6  -2  11 99459.7 3750.56  42 
   6  -2 -11 103776. 3988.67   3 
   6  -2 -11 105543. 3807.76  29 
  -6  -2  11 106118. 4670.69  14 
  -6  -2  11 92269.2 4309.74  27 
   6  -2 -11 110631. 4071.57   8 
  -6  -2  10 106673. 3948.96  42 
  -6  -2  10 104894. 3937.79  41 
  -6  -2  10 106399. 4304.77  36 
   6  -2 -10 109054. 3937.54  29 
   6  -2 -10 114067. 4225.32   3 
  -6  -2  10 123008. 5010.35  14 
  -6  -2  10 105841. 4677.19  27 
   6  -2 -10 114114. 4251.63   8 
  -6  -2   9 22597.9 1287.38  42 
  -6  -2   9 22989.0 1292.53  41 
  -6  -2   9 22188.9 1498.83  36 
   6  -2  -9 22509.6 1441.25   3 
   6  -2  -9 21395.8 1243.35  29 
  -6  -2   9 26660.3 1928.05  14 
  -6  -2   9 24218.8 1829.70  27 
  -6  -2   9 23224.7 1195.15  55 
   6  -2  -9 24234.9 1511.74   8 
  -6  -2   9 22082.4 1427.23  47 
   6  -2  -8 3116.92 390.870  61 
  -6  -2   8 3298.43 438.098  41 
  -6  -2   8 2357.52 476.928  36 
  -6  -2   8 2386.22 552.583  62 
   6  -2  -8 2348.44 388.439  58 
  -6  -2   8 2778.99 365.863  55 
  -6  -2   8 3104.62 696.891  27 
   6  -2  -8 2814.63 500.330   8 
  -6  -2   8 2327.64 473.134  47 
  -6  -2   7 66676.7 2555.11  41 
  -6  -2   7 64471.4 2800.28  36 
   6  -2  -7 64742.1 2777.14   3 
  -6  -2   7 71782.3 3229.09  62 
   6  -2  -7 65211.3 2601.19  58 
  -6  -2   7 75490.2 3446.17  27 
  -6  -2   7 63481.2 2401.19  55 
  -6  -2   7 64691.5 2918.53  47 
  -6  -2   6 1118.50 388.025  13 
   6  -2  -6 1200.40 269.553  58 
   6  -2  -6 1324.73 305.078   3 
  -6  -2   6 884.091 280.957  36 
  -6  -2   6 893.399 202.072  55 
  -6  -2   6 1119.89 431.950  27 
   6  -2  -6 992.667 338.073   8 
  -6  -2   6 844.997 289.139  26 
  -6  -2   6 774.897 313.610  47 
  -6  -2   5 41079.6 1901.94  46 
  -6  -2   5 40795.1 1911.72  36 
  -6  -2   5 41097.4 2230.85  19 
   6  -2  -5 42572.0 1932.13   3 
  -6  -2   5 39301.2 2212.43  62 
   6  -2  -5 41382.6 1806.06  58 
  -6  -2   5 47746.4 2467.83  27 
  -6  -2   5 43231.4 1696.58  56 
   6  -2  -5 41598.6 1972.83   8 
  -6  -2   5 41692.5 2122.88  26 
  -6  -2   5 40139.4 2179.40  13 
  -6  -2   4 11996.1 909.463  46 
   6  -2  -4 11306.0 676.378  60 
  -6  -2   4 12000.6 854.418  36 
  -6  -2   4 12351.9 1066.90  39 
  -6  -2   4 10901.8 937.532  35 
   6  -2  -4 10148.4 786.373  76 
  -6  -2   4 10981.3 1025.22  62 
   6  -2  -4 12189.0 864.490   3 
   6  -2  -4 12062.1 801.633  58 
  -6  -2   4 13751.2 1204.86  27 
  -6  -2   4 11925.8 715.648  56 
   6  -2  -4 12000.1 889.396   8 
  -6  -2   4 11613.7 1002.79  26 
  -6  -2   4 10664.6 982.479  13 
  -6  -2   3 17307.3 1146.89  46 
  -6  -2   3 17683.8 1295.93  39 
   6  -2  -3 16198.8 1009.26  76 
  -6  -2   3 17275.6 1279.26  19 
  -6  -2   3 16829.4 1209.74  35 
  -6  -2   3 17081.8 1267.81  62 
   6  -2  -3 16332.8 866.721  60 
   6  -2  -3 16358.6 965.224  58 
  -6  -2   3 18312.2 1394.59  27 
  -6  -2   3 15645.3 874.319  56 
   6  -2  -3 19074.3 1092.94   8 
  -6  -2   3 15958.2 1206.67  26 
  -6  -2   3 18676.5 1264.81  13 
  -6  -2   2 54759.7 2590.69  39 
  -6  -2   2 52895.8 2520.70  19 
  -6  -2   2 56029.0 2538.56  35 
  -6  -2   2 54035.3 2515.49  62 
   6  -2  -2 53723.1 2002.79  60 
   6  -2  -2 54504.3 2120.77  58 
  -6  -2   2 53323.4 2040.20  56 
   6  -2  -2 51889.8 2157.28   8 
  -6  -2   2 56666.4 2589.02  26 
  -6  -2   2 51273.9 2406.48  13 
  -6  -2   2 54800.6 2431.04  46 
   6  -2  -1 2868.08 448.923  74 
   6  -2  -1 4051.64 496.413  75 
  -6  -2   1 3991.20 586.247  35 
  -6  -2   1 3231.85 536.549  19 
   6  -2  -1 3590.34 318.471  72 
   6  -2  -1 3452.02 396.046  77 
  -6  -2   1 3258.20 505.749  62 
   6  -2  -1 3689.18 378.887  60 
   6  -2  -1 3410.12 388.586  58 
  -6  -2   1 4327.09 665.726  27 
  -6  -2   1 2774.85 362.048  56 
  -6  -2   1 3970.79 602.801  26 
  -6  -2   1 3533.32 508.408  13 
   6  -2   0 21894.5 1782.75  24 
   6  -2   0 28266.6 1946.66   6 
  -6  -2   0 28735.5 1750.03  39 
  -6  -2   0 28047.6 1671.24  19 
   6  -2   0 28984.5 1436.00  76 
   6  -2   0 26242.3 1498.37  74 
   6  -2   0 29164.2 1167.74  72 
  -6  -2   0 27799.7 1587.92  62 
   6  -2   0 30081.0 1323.08  60 
  -6  -2   0 29945.5 1827.86  27 
  -6  -2   0 24313.4 1276.98  56 
  -6  -2   0 31076.4 1788.82  26 
   6  -2   0 37771.9 1793.98  50 
   6  -2   1 8511.17 771.914  45 
   6  -2   1 8938.10 811.991  74 
   6  -2   1 6754.97 946.038  24 
   6  -2   1 10178.8 1096.81   6 
  -6  -2  -1 10344.9 992.311  39 
   6  -2   1 9195.47 740.742  76 
  -6  -2  -1 8119.95 849.465  19 
   6  -2   1 10703.3 851.813  75 
   6  -2   1 9421.19 569.801  72 
  -6  -2  -1 10683.8 879.568  62 
   6  -2   1 7700.57 1094.92  15 
  -6  -2  -1 9621.57 1012.99  27 
  -6  -2  -1 7914.62 647.296  56 
  -6  -2  -1 10820.6 1037.44  26 
   6  -2   1 10962.4 960.039  50 
   6  -2   2 64773.4 2784.48  45 
   6  -2   2 57308.6 3221.01  24 
   6  -2   2 62019.4 3149.98   6 
  -6  -2  -2 68544.2 3109.73  39 
   6  -2   2 67732.7 2641.72  76 
  -6  -2  -2 68544.9 2962.18  19 
   6  -2   2 67084.0 2769.53  75 
  -6  -2  -2 63160.5 2753.32  62 
   6  -2   2 61383.3 3458.25  15 
  -6  -2  -2 69739.4 3162.52  27 
  -6  -2  -2 69718.0 3148.82  26 
   6  -2   3 8540.61 833.364  45 
   6  -2   3 7170.90 990.929  24 
   6  -2   3 9311.67 878.281  74 
  -6  -2  -3 9059.89 959.928  39 
   6  -2   3 10399.5 790.567  76 
  -6  -2  -3 8624.63 858.084  19 
  -6  -2  -3 10176.3 700.439  66 
  -6  -2  -3 9576.30 658.375  64 
  -6  -2  -3 10509.9 1053.68  27 
   6  -2   3 8981.63 755.250  57 
   6  -2   3 9004.41 810.988  75 
  -6  -2  -3 8914.57 987.800  26 
   6  -2   3 11815.0 1079.75  50 
   6  -2   3 9290.90 1240.00  15 
   6  -2   4 28093.0 1705.62  45 
   6  -2   4 25256.8 1924.50  24 
  -6  -2  -4 32580.2 1955.84  39 
   6  -2   4 33831.0 1711.34  75 
  -6  -2  -4 30705.2 1451.64  66 
   6  -2   4 31570.5 1761.83  74 
   6  -2   4 27655.5 2184.12  15 
  -6  -2  -4 34411.7 2013.90  27 
   6  -2   5 37728.9 2070.99  45 
  -6  -2  -5 43366.4 2328.51  39 
  -6  -2  -5 41378.1 1931.60  21 
   6  -2   5 42853.4 2020.35  75 
   6  -2   5 41722.9 2106.82  74 
   6  -2   5 37746.9 2573.91  15 
  -6  -2  -5 44628.7 2319.49  27 
   6  -2   6 15776.3 1186.31  45 
  -6  -2  -6 17817.7 1349.27  39 
  -6  -2  -6 16654.4 1079.33  21 
   6  -2   6 18056.9 1123.43  75 
   6  -2   6 12936.6 1420.43  15 
  -6  -2  -6 17252.5 1300.77  27 
  -6  -2  -6 17678.2 1417.33  26 
   6  -2   6 21305.7 1541.50  50 
   6  -2   7 19915.2 1298.27  45 
  -6  -2  -7 21335.0 1402.26  39 
  -6  -2  -7 21490.5 1207.17  21 
   6  -2   7 21282.8 1272.62  73 
  -6  -2  -7 23585.6 1570.34  26 
   6  -2   8 16113.8 1070.43  45 
  -6  -2  -8 17757.6 1137.64  39 
  -6  -2  -8 16591.2 987.888  21 
   6  -2   8 16866.0 1008.06  73 
  -6  -2  -8 18376.7 1300.66  26 
  -6  -2  -9 9530.12 633.320  21 
  -6  -2  -9 9279.89 805.472  26 
   6  -2   9 11212.0 922.475  50 
  -6  -2 -10 14476.1 928.668  35 
  -6  -1  16 9729.47 717.924  43 
  -6  -1  16 9329.12 843.620  38 
   6  -1 -16 9417.99 633.877  29 
   6  -1 -16 9093.75 676.419  48 
   6  -1 -15 31414.6 1391.41  11 
   6  -1 -15 33775.6 1511.29   1 
   6  -1 -15 32101.8 1509.43  29 
  -6  -1  14 223.632 194.402  42 
   6  -1 -14 25.4067 136.366  11 
   6  -1 -14-31.0937 166.883  29 
   6  -1 -14 59.5177 172.515   1 
   6  -1 -14 159.656 193.719   3 
  -6  -1  14 156.382 246.726  14 
   6  -1 -14 90.4756 166.299   8 
  -6  -1  13 4650.98 603.809  42 
   6  -1 -13 5151.21 525.632  11 
   6  -1 -13 5278.12 615.892   3 
   6  -1 -13 5644.57 595.332  29 
  -6  -1  13 5267.74 790.636  14 
   6  -1 -13 5106.30 601.330   8 
  -6  -1  12 27467.1 1589.05  42 
   6  -1 -12 27478.5 1365.01  11 
  -6  -1  12 28369.1 1604.67  41 
   6  -1 -12 25525.1 1761.14  40 
   6  -1 -12 28333.0 1547.81   3 
  -6  -1  12 23595.9 1354.05  30 
   6  -1 -12 26878.0 1438.23  29 
   6  -1 -12 24997.7 1409.55   1 
   6  -1 -12 28030.4 1555.78   8 
  -6  -1  12 28817.3 1960.52  14 
  -6  -1  11 64563.0 2750.83  42 
   6  -1 -11 62402.2 2454.87  11 
  -6  -1  11 63403.4 2767.13  41 
   6  -1 -11 64831.8 3019.22  40 
  -6  -1  11 64013.8 3005.53  36 
   6  -1 -11 64549.8 2689.04   3 
  -6  -1  11 59609.1 2506.91  30 
   6  -1 -11 66116.5 2573.31  29 
   6  -1 -11 62876.5 2639.81  61 
   6  -1 -11 64306.8 2561.36   1 
   6  -1 -11 62346.2 2560.09  59 
   6  -1 -11 66211.6 2754.41   8 
  -6  -1  11 66501.9 3310.22  14 
  -6  -1  11 68056.1 2635.67  55 
  -6  -1  10 170071. 5650.69  41 
   6  -1 -10 164221. 5870.91  40 
   6  -1 -10 165453. 5541.27   3 
  -6  -1  10 164464. 5951.43  17 
  -6  -1  10 163345. 5382.63  30 
   6  -1 -10 170057. 5426.03   1 
   6  -1 -10 164666. 5372.78  29 
   6  -1 -10 167006. 5520.39  61 
   6  -1 -10 153081. 5377.87  59 
   6  -1 -10 168695. 5623.23   8 
  -6  -1  10 154158. 5479.75  63 
  -6  -1  10 175430. 6350.06  14 
  -6  -1  10 161644. 5413.20  55 
  -6  -1   9 8275.07 745.955  41 
   6  -1  -9 7226.20 775.687  40 
   6  -1  -9 7482.61 676.153   3 
  -6  -1   9 6235.47 622.199  63 
   6  -1  -9 7552.50 623.705   1 
   6  -1  -9 7798.85 613.158  29 
   6  -1  -9 7968.48 686.159  61 
  -6  -1   9 6673.77 769.952  17 
   6  -1  -9 6758.73 625.517  59 
   6  -1  -9 7807.86 727.111   8 
  -6  -1   9 7171.61 621.350  55 
  -6  -1   8 858.987 351.351  13 
   6  -1  -8 866.575 299.126  40 
  -6  -1   8 1116.46 323.812  36 
  -6  -1   8 1078.28 316.173  17 
   6  -1  -8 1001.25 248.073  61 
   6  -1  -8 991.939 236.839  59 
   6  -1  -8 1400.15 268.478   1 
  -6  -1   8 1014.62 235.490  55 
  -6  -1   8 965.340 353.275  27 
   6  -1  -8 1346.10 313.225   8 
   6  -1  -7 9763.22 795.288  40 
  -6  -1   7 9848.22 850.427  36 
  -6  -1   7 10053.1 924.594  19 
  -6  -1   7 10818.8 882.696  17 
   6  -1  -7 10063.4 726.906  61 
   6  -1  -7 9777.76 717.671  59 
  -6  -1   7 11003.5 1014.48  27 
   6  -1  -7 10266.8 674.735   1 
  -6  -1   7 9432.52 934.541  13 
   6  -1  -6 106607. 3462.42  61 
   6  -1  -6 100333. 3976.23  33 
   6  -1  -6 101861. 3446.40  59 
   6  -1  -6 99444.2 3363.27  58 
  -6  -1   6 99520.7 3934.78  27 
  -6  -1   6 100053. 3432.81  56 
   6  -1  -6 99872.3 3509.67   8 
  -6  -1   6 103109. 3675.23  17 
  -6  -1   6 98469.4 3868.97  13 
  -6  -1   6 96143.6 3818.63  19 
  -6  -1   6 99339.6 3679.43  36 
   6  -1  -5 29971.8 1861.83   6 
  -6  -1   5 29646.9 1625.86  19 
   6  -1  -5 29724.6 1691.57  33 
   6  -1  -5 34812.1 1404.99  61 
   6  -1  -5 29596.8 1337.42  59 
   6  -1  -5 31640.3 1307.52  58 
  -6  -1   5 29994.3 1352.86  56 
  -6  -1   5 28232.2 1138.35  52 
  -6  -1   4 91444.8 3529.40  62 
   6  -1  -4 95448.2 3155.12  59 
   6  -1  -4 94346.6 3073.95  58 
  -6  -1   4 90490.4 3159.76  56 
  -6  -1   4 90602.9 2904.81  52 
  -6  -1   3 11602.1 914.589  62 
   6  -1  -3 12985.1 746.590  59 
   6  -1  -3 11869.1 669.754  58 
  -6  -1   3 11249.2 726.776  56 
  -6  -1   3 11234.3 572.347  52 
  -6  -1   2 30246.3 1531.66  62 
  -6  -1   2 29525.4 1189.20  67 
   6  -1  -2 29639.4 1214.29  58 
  -6  -1   2 27308.7 1314.69  56 
  -6  -1   1 4391.33 371.525  67 
  -6  -1   1 4295.43 505.358  62 
   6  -1  -1 3707.99 388.009  60 
   6  -1  -1 4092.55 353.673  58 
  -6  -1   1 3699.71 419.126  56 
   6  -1   0 26211.4 1769.26  24 
   6  -1   0 30956.2 1807.30   6 
  -6  -1   0 32522.4 1672.03  39 
  -6  -1   0 31560.9 1291.28  67 
  -6  -1   0 29197.0 1488.97  62 
   6  -1   0 31938.4 1492.42  57 
   6  -1   0 30644.7 1356.70  60 
  -6  -1   0 29172.4 1565.83  26 
   6  -1   1 13727.1 1049.91  45 
   6  -1   1 13693.6 1222.45  24 
   6  -1   1 17555.2 1282.84   6 
  -6  -1  -1 15339.2 1104.98  39 
  -6  -1  -1 14382.1 999.144  37 
  -6  -1  -1 15012.0 814.890  67 
  -6  -1  -1 15273.7 960.456  62 
   6  -1   1 16332.1 898.416  60 
   6  -1   1 13888.8 1343.53  15 
   6  -1   1 15954.7 993.588  57 
  -6  -1  -1 15211.3 1072.27  26 
   6  -1   1 19138.1 1247.83  50 
   6  -1   2 170.057 215.164  45 
   6  -1   2 333.665 281.417  24 
  -6  -1  -2 219.788 185.407  37 
   6  -1   2 31.2318 162.959  74 
  -6  -1  -2 150.513 99.0454  69 
  -6  -1  -2 189.228 132.521  62 
   6  -1   2 210.898 294.966  15 
   6  -1   2 195.733 165.129  57 
  -6  -1  -2 235.673 192.489  26 
   6  -1   3 30376.3 1808.89  45 
   6  -1   3 30273.8 1974.49  24 
   6  -1   3 34766.0 1448.45  77 
  -6  -1  -3 29270.3 1712.41  37 
   6  -1   3 34787.5 1534.02  76 
   6  -1   3 32362.2 1605.35  75 
   6  -1   3 32805.2 1657.56  74 
   6  -1   3 32787.2 2253.92  15 
   6  -1   3 35289.0 1741.77  57 
  -6  -1  -3 37840.8 1900.02  26 
   6  -1   4 12449.6 1117.56  45 
   6  -1   4 11554.5 1175.67  24 
   6  -1   4 12275.8 1108.13   6 
   6  -1   4 13355.9 1392.46  23 
   6  -1   4 13771.1 953.332  75 
   6  -1   4 13132.6 990.130  74 
  -6  -1  -4 14932.8 895.365  64 
   6  -1   4 14634.5 1483.84  15 
   6  -1   4 14390.3 1068.44  57 
  -6  -1  -4 14695.7 1159.59  26 
  -6  -1  -4 14839.9 1133.97  37 
   6  -1   4 17747.2 1375.70  50 
   6  -1   5 483.842 272.875  45 
   6  -1   5 682.815 351.819  24 
   6  -1   5 640.354 430.116  23 
  -6  -1  -5 987.028 337.018  37 
   6  -1   5 899.271 267.281  75 
   6  -1   5 992.745 306.234  74 
  -6  -1  -5 821.486 225.521  64 
   6  -1   5 902.365 508.812  15 
   6  -1   5 949.676 299.860  57 
  -6  -1  -5 399.834 221.521  54 
   6  -1   5 999.426 401.055  50 
  -6  -1  -5 1137.11 391.151  26 
   6  -1   6 1890.90 495.941  45 
   6  -1   6 1895.21 492.617  24 
   6  -1   6 1479.12 553.153  23 
  -6  -1  -6 2413.29 514.787  39 
  -6  -1  -6 1717.52 438.471  37 
   6  -1   6 2445.18 378.730  75 
   6  -1   6 2651.08 450.694  74 
   6  -1   6 1756.02 591.853  15 
   6  -1   6 2178.37 549.770  50 
   6  -1   7 7691.96 895.611  45 
   6  -1   7 6723.60 861.121  24 
   6  -1   7 6951.30 1048.25  23 
  -6  -1  -7 8028.08 685.006  21 
  -6  -1  -7 9732.89 958.355  39 
   6  -1   7 8306.64 1136.60  15 
  -6  -1  -7 8448.08 900.017  37 
   6  -1   8 1837.31 468.195  45 
   6  -1   8 1345.11 520.138  23 
  -6  -1  -8 1816.49 421.155  39 
  -6  -1  -8 1665.17 307.905  21 
  -6  -1  -8 1623.00 405.210  37 
   6  -1   8 1537.53 526.265  15 
  -6  -1  -8 1867.24 415.329  27 
   6  -1   8 2577.94 537.246  50 
  -6  -1  -8 1983.38 456.538  26 
   6  -1   9 14755.1 1143.16  45 
  -6  -1  -9 16331.0 1119.88  39 
  -6  -1  -9 15411.9 918.928  21 
   6  -1   9 14547.4 1325.74  15 
  -6  -1  -9 15957.9 1173.24  26 
   6  -1   9 18534.8 1285.96  50 
   6  -1  10 6620.57 660.983  45 
  -6  -1 -10 6086.90 568.611  39 
  -6  -1 -10 7067.84 675.006  26 
   6  -1  11 16356.0 928.401  45 
  -6  -1 -11 18080.1 773.566  82 
  -6   0  17 591.266 173.583  43 
   6   0 -17 454.932 134.020   1 
   6   0 -16 59.0020 121.898   1 
  -6   0  16 153.581 182.256  43 
  -6   0  16 108.426 214.445  38 
   6   0 -16 63.0813 130.323  29 
   6   0 -15 16648.6 906.034  11 
  -6   0  15 18276.6 1166.10  42 
   6   0 -15 16205.4 1206.01  40 
   6   0 -15 16498.5 949.168   3 
   6   0 -15 16393.4 966.334   1 
   6   0 -15 18064.2 1014.09  29 
  -6   0  14 1597.81 409.828  42 
  -6   0  14 1208.66 263.721  22 
   6   0 -14 1568.32 448.660  40 
  -6   0  14 1392.84 343.181  30 
   6   0 -14 1313.41 290.846   3 
   6   0 -13 15457.2 958.834   1 
  -6   0  13 15127.1 1156.50  42 
  -6   0  13 14369.1 964.025  22 
   6   0 -13 15434.2 1265.32  40 
  -6   0  13 15577.9 1095.32  30 
   6   0 -13 16231.4 1030.54   8 
  -6   0  12 78302.4 3313.22  42 
  -6   0  12 80780.4 3355.92  41 
  -6   0  12 82424.6 3057.17  22 
   6   0 -12 77350.4 3374.69  40 
  -6   0  12 79538.8 3481.06  36 
  -6   0  12 80790.0 3199.90  30 
   6   0 -12 81129.3 3086.52   8 
   6   0 -12 82192.2 2962.14   1 
  -6   0  11 110610. 4155.60  42 
  -6   0  11 111103. 4172.80  41 
  -6   0  11 116179. 4397.99  36 
  -6   0  11 105075. 4377.76  17 
  -6   0  11 106609. 3862.58  63 
  -6   0  11 114862. 4060.93  30 
   6   0 -11 103428. 3996.74  61 
   6   0 -11 110591. 3905.59   8 
  -6   0  11 109809. 3957.93  55 
   6   0 -11 114214. 3765.88   1 
  -6   0  10 7546.97 765.120  41 
   6   0 -10 8075.16 769.502  40 
  -6   0  10 7847.54 646.156  63 
   6   0 -10 6664.51 673.238  61 
   6   0 -10 8135.89 674.878   8 
  -6   0  10 8914.45 882.280  36 
   6   0 -10 7570.72 579.048   1 
  -6   0  10 7363.82 665.526  55 
  -6   0  10 7896.80 868.765  17 
  -6   0   9 55170.7 2451.04  41 
   6   0  -9 58805.5 2417.84  40 
  -6   0   9 62531.9 2686.73  36 
   6   0  -9 55708.1 2383.11  61 
  -6   0   9 56301.1 2620.92  17 
  -6   0   9 61079.5 2284.31  63 
   6   0  -9 61747.7 2295.28   8 
   6   0  -9 58936.6 2143.56   1 
  -6   0   9 59176.4 2342.09  55 
  -6   0   9 58227.1 2670.98  13 
   6   0  -8 10419.2 751.228  40 
  -6   0   8 11241.4 910.170  36 
   6   0  -8 11863.0 996.481  33 
  -6   0   8 11277.2 933.649  17 
  -6   0   8 11200.1 715.763  63 
   6   0  -8 10819.8 709.352   8 
   6   0  -8 9874.66 754.543  61 
   6   0  -8 10396.2 781.817  59 
   6   0  -8 11329.6 640.962   1 
  -6   0   8 10126.4 728.218  55 
  -6   0   8 10791.3 940.942  13 
   6   0  -7 14014.5 821.373  40 
   6   0  -7 13059.1 1029.20  33 
  -6   0   7 15493.0 817.473  63 
   6   0  -7 14671.1 790.881   8 
   6   0  -7 14943.4 904.367  61 
   6   0  -7 13164.1 870.479  59 
  -6   0   7 15000.4 886.573  56 
  -6   0   7 14406.3 783.271  52 
  -6   0   7 13332.3 1020.10  13 
  -6   0   6 11922.1 700.422  63 
   6   0  -6 13823.4 818.881  61 
  -6   0   6 12910.0 799.628  56 
  -6   0   6 12576.9 703.705  52 
  -6   0   5 104752. 3513.10  63 
  -6   0   5 110992. 3694.87  56 
  -6   0   5 107601. 3536.68  52 
   6   0  -4 102.312 77.4804  58 
  -6   0   4 43.2240 119.190  56 
  -6   0   4 110.627 105.813  52 
  -6   0   3 5490.93 525.155  62 
   6   0  -3 5730.96 476.879  59 
   6   0  -3 4682.73 319.704  58 
  -6   0   3 5006.56 467.877  56 
  -6   0   2 62695.8 2386.70  62 
   6   0  -2 67914.4 2346.35  59 
   6   0  -2 63820.6 2022.71  58 
  -6   0   2 61627.8 2348.90  56 
  -6   0   1 43918.8 1797.68  62 
   6   0  -1 50226.0 1867.12  59 
  -6   0   0 1873.60 264.432  62 
   6   0   0 2115.49 288.014  60 
   6   0   0 2647.40 376.787  57 
   6   0   1 20652.9 1343.22  45 
   6   0   1 22978.7 1471.70  24 
   6   0   1 19810.4 1509.29  23 
   6   0   1 25186.7 1709.52  15 
   6   0   1 24608.1 1149.00  60 
   6   0   1 23564.5 1279.12  57 
  -6   0  -1 24648.8 1273.14  54 
   6   0   2 2035.15 419.839  45 
   6   0   2 1938.54 502.144  23 
  -6   0  -2 2178.04 348.792  37 
   6   0   2 2328.43 320.787  60 
  -6   0  -2 2237.27 303.295  67 
   6   0   2 2740.59 597.922  15 
   6   0   2 1905.26 367.291  57 
  -6   0  -2 1914.11 350.195  54 
   6   0   2 2495.03 455.110  50 
   6   0   3 16303.7 1264.59  45 
   6   0   3 19518.2 1385.70  24 
   6   0   3 18648.0 1554.11  23 
  -6   0  -3 19371.0 1156.63  37 
  -6   0  -3 18667.2 983.428  69 
  -6   0  -3 17277.1 985.119  67 
   6   0   3 24159.1 1757.42  15 
   6   0   3 20360.8 1067.34  60 
   6   0   3 21149.6 1273.72  57 
  -6   0  -3 19846.1 1207.02  54 
   6   0   3 24863.0 1489.69  50 
   6   0   4 51593.1 2550.47  24 
   6   0   4 46050.0 2748.18  23 
  -6   0  -4 49952.1 2214.67  37 
   6   0   4 46200.2 2065.75  74 
  -6   0  -4 47215.1 1950.89  69 
   6   0   4 54208.8 2950.92  15 
   6   0   4 53267.2 2392.44  57 
  -6   0  -4 47978.5 2229.67  54 
   6   0   5 4623.05 724.481  24 
   6   0   5 3452.91 716.499  23 
  -6   0  -5 4905.55 598.201  37 
   6   0   5 3992.71 492.164  74 
  -6   0  -5 4528.45 463.351  18 
  -6   0  -5 3638.53 408.663  69 
  -6   0  -5 4075.05 462.849  64 
   6   0   5 4487.06 626.156  57 
   6   0   5 5655.92 747.142  50 
   6   0   6 9365.31 1001.50  24 
   6   0   6 9633.01 1227.28  23 
  -6   0  -6 8920.61 698.557  18 
  -6   0  -6 8595.90 642.808  69 
  -6   0  -6 7791.24 666.600  64 
   6   0   6 9274.99 1218.93  15 
   6   0   6 8750.88 891.866  57 
  -6   0  -6 8637.32 835.019  37 
  -6   0  -6 7636.00 800.160  54 
   6   0   6 11112.4 1059.91  50 
   6   0   7 1965.21 505.296  24 
   6   0   7 2706.01 707.497  23 
  -6   0  -7 2815.43 495.781  37 
  -6   0  -7 2784.00 400.494  18 
   6   0   7 2662.58 702.177  15 
   6   0   7 3318.49 596.966  50 
  -6   0  -7 2647.26 500.461  26 
   6   0   8 1012.24 397.826  45 
   6   0   8 1266.19 419.499  24 
   6   0   8 945.329 489.610  23 
  -6   0  -8 1574.47 389.956  37 
  -6   0  -8 1216.18 266.775  18 
   6   0   8 1268.67 550.635  15 
   6   0   8 2359.46 477.191  50 
   6   0   9 2291.69 519.440  45 
   6   0   9 2767.13 531.967  24 
   6   0   9 3435.83 692.624  23 
  -6   0  -9 3500.82 525.777  37 
  -6   0  -9 3530.73 428.960  18 
   6   0   9 3292.54 703.249  15 
   6   0  10 1167.33 351.331  45 
   6   0  10 1832.05 503.311  23 
  -6   0 -10 1521.55 327.458  39 
  -6   0 -10 1170.21 304.761  37 
   6   0  10 1673.28 458.964  15 
  -6   0 -10 1536.54 340.354  26 
   6   0  11 11905.5 830.794  45 
  -6   0 -11 10957.1 713.891  39 
  -6   0 -11 11953.6 633.654  82 
  -6   0 -11 11515.0 761.068  37 
   6   0  11 11037.0 927.344  15 
  -6   0 -11 10426.6 733.491  26 
  -6   1  16 9598.41 699.873  43 
   6   1 -16 9308.64 587.837  29 
  -6   1  15 32088.1 1475.20  22 
   6   1 -15 29630.6 1610.51  40 
   6   1 -14 110.035 136.397   1 
  -6   1  14 125.601 135.042  12 
  -6   1  14 37.2596 205.454  42 
  -6   1  14-31.8559 156.083  22 
   6   1 -14 244.832 236.547  40 
  -6   1  13 5421.54 519.758  12 
  -6   1  13 5066.84 636.634  42 
  -6   1  13 5847.27 630.257  22 
   6   1 -13 5004.28 649.923  40 
   6   1 -13 5289.17 484.736   1 
   6   1 -13 4414.58 479.815   8 
  -6   1  12 29042.3 1634.14  42 
  -6   1  12 26497.4 1601.13  41 
   6   1 -12 25937.1 1553.93  40 
   6   1 -12 29047.5 1255.93   9 
   6   1 -12 27142.2 1354.72   8 
   6   1 -12 28702.2 1334.47  28 
  -6   1  11 64953.8 2768.37  42 
  -6   1  11 63369.6 2766.25  41 
   6   1 -11 62293.5 2634.42  40 
   6   1 -11 65183.2 2239.22   9 
  -6   1  11 62285.9 2805.94  36 
   6   1 -11 63897.6 2526.40  68 
  -6   1  11 61408.8 2891.71  17 
  -6   1  11 59682.8 2398.44  63 
   6   1 -11 65605.9 2426.14   8 
   6   1 -11 63841.5 2650.01  61 
   6   1 -11 65600.5 2337.41  28 
  -6   1  11 61461.1 2568.87  55 
  -6   1  10 163721. 5854.75  36 
  -6   1  10 161586. 5760.58  41 
   6   1 -10 166654. 5593.14  40 
   6   1 -10 171999. 5532.69  68 
  -6   1  10 173098. 6018.56  17 
  -6   1  10 168365. 5385.63  63 
   6   1 -10 163204. 5363.13   8 
   6   1 -10 180611. 5360.32  16 
   6   1 -10 173389. 5695.03  61 
   6   1 -10 169474. 5249.71  28 
  -6   1  10 173877. 5611.47  55 
  -6   1   9 6579.47 678.450  41 
  -6   1   9 6997.94 734.839  36 
   6   1  -9 7084.59 599.011  68 
  -6   1   9 8362.31 822.199  17 
   6   1  -9 6829.82 529.732   8 
  -6   1   9 7079.84 534.737  63 
   6   1  -9 7557.52 517.542  16 
   6   1  -9 7974.62 687.263  61 
   6   1  -9 7303.77 470.735  28 
  -6   1   9 6516.96 595.496  55 
   6   1  -8 981.418 221.136  40 
  -6   1   8 940.319 290.979  36 
   6   1  -8 1100.83 309.434  33 
   6   1  -8 1069.99 229.995  68 
   6   1  -8 1050.62 227.818  32 
  -6   1   8 1344.69 220.318  63 
   6   1  -8 1113.20 194.375  16 
   6   1  -8 1351.70 283.479  61 
   6   1  -8 1259.68 171.541  28 
  -6   1   8 1295.74 260.938  55 
   6   1  -8 1156.99 205.776   8 
   6   1  -8 611.288 206.840   5 
   6   1  -7 10313.2 638.643  40 
   6   1  -7 9727.15 572.463   8 
   6   1  -7 8836.72 591.367  32 
  -6   1   7 10585.8 593.972  63 
   6   1  -7 11321.8 558.312  16 
   6   1  -7 10828.0 750.273  61 
   6   1  -7 10030.0 761.961  59 
   6   1  -7 8864.31 618.232   5 
   6   1  -6 105025. 3243.32  40 
   6   1  -6 104774. 3132.88   4 
   6   1  -6 87779.7 3150.54  32 
  -6   1   6 100778. 3149.56  63 
   6   1  -6 111312. 3467.90  61 
   6   1  -6 100256. 3481.10  59 
   6   1  -6 86487.1 3203.06   5 
  -6   1   6 103701. 3416.78  56 
   6   1  -5 28443.6 1122.72   8 
  -6   1   5 29449.8 1127.21  63 
   6   1  -5 31927.7 1368.51  61 
   6   1  -5 29689.2 1383.00  59 
  -6   1   5 30177.0 1341.72  56 
   6   1  -4 93513.1 3188.87  59 
  -6   1   4 90493.9 3157.15  56 
   6   1  -3 11745.5 737.070  59 
  -6   1   3 11554.8 729.999  56 
   6   1  -2 31474.7 1345.43  59 
  -6   1   2 28634.7 1336.49  56 
   6   1  -1 4720.67 428.529  59 
  -6   1   1 3662.50 413.832  56 
   6   1   0 27924.2 1527.75  45 
   6   1   0 30454.8 1633.02  24 
   6   1   0 29524.1 1223.38  34 
  -6   1   0 28255.5 1233.54  67 
   6   1   0 27413.7 1142.94   5 
   6   1   0 32434.4 1461.04  57 
  -6   1   0 29945.3 1379.40  54 
   6   1   1 14376.4 1062.43  45 
   6   1   1 15449.8 1135.83  24 
   6   1   1 15068.1 804.248  44 
   6   1   1 15388.0 791.489  34 
   6   1   1 13768.5 706.720   5 
  -6   1  -1 14288.3 797.489  67 
   6   1   1 15123.8 830.290  60 
   6   1   1 15828.2 989.443  57 
  -6   1  -1 14659.4 932.160  54 
   6   1   2 84.2640 192.242  45 
   6   1   2 80.4667 124.795  44 
   6   1   2 44.0949 223.183  24 
   6   1   2 54.1664 216.747  23 
   6   1   2 309.705 128.889  34 
  -6   1  -2 390.376 158.194  67 
   6   1   2 444.485 141.790  60 
   6   1   2 129.383 153.200  57 
  -6   1  -2 271.749 198.545  54 
   6   1   2 156.570 105.144   5 
   6   1   3 29181.4 1789.89  45 
   6   1   3 37908.2 1996.13  24 
   6   1   3 34448.0 1459.00  44 
   6   1   3 33109.2 2067.43  23 
   6   1   3 33994.4 1379.63  34 
  -6   1  -3 35122.7 1530.29  69 
  -6   1  -3 33075.1 1448.94  67 
   6   1   3 30773.0 1262.74   5 
   6   1   3 35274.4 1485.27  60 
   6   1   3 34465.8 1727.15  57 
  -6   1  -3 32023.0 1634.02  54 
   6   1   4 12197.2 1107.59  45 
   6   1   4 13879.7 1183.55  24 
   6   1   4 12964.8 807.306  44 
   6   1   4 13606.9 1313.35  23 
   6   1   4 12583.8 720.149  34 
  -6   1  -4 13323.7 858.930  69 
  -6   1  -4 13358.8 839.365  64 
   6   1   4 14916.6 1080.22  57 
  -6   1  -4 13671.2 998.608  54 
   6   1   5 755.538 342.170  45 
   6   1   5 889.896 224.854  44 
   6   1   5 506.419 366.839  23 
  -6   1  -5 881.935 193.991  18 
  -6   1  -5 746.470 222.484  69 
  -6   1  -5 763.550 209.375  64 
   6   1   5 1430.09 360.265  57 
  -6   1  -5 1066.32 300.703  54 
   6   1   6 2240.80 524.731  45 
   6   1   6 2388.11 343.188  44 
   6   1   6 3038.79 695.979  23 
  -6   1  -6 2147.47 300.028  18 
   6   1   7 6994.03 859.301  45 
   6   1   7 8469.71 967.086  24 
   6   1   7 8320.02 615.819  44 
   6   1   7 6860.24 1016.68  23 
  -6   1  -7 7458.66 595.130  18 
   6   1   7 9740.24 1231.58  15 
   6   1   8 1550.75 440.681  45 
   6   1   8 1287.00 232.105  44 
   6   1   8 1255.38 404.821  24 
   6   1   8 1445.58 502.573  23 
  -6   1  -8 1616.78 279.709  18 
  -6   1  -8 1969.61 381.373  37 
   6   1   8 2315.39 656.282  15 
   6   1   9 14441.6 1148.53  45 
   6   1   9 16524.3 1237.56  24 
   6   1   9 13457.7 1306.35  23 
  -6   1  -9 15892.7 1036.29  37 
  -6   1  -9 15492.2 868.783  18 
  -6   1  -9 15671.5 1065.92  26 
   6   1  10 6317.06 653.919  45 
   6   1  10 7030.91 720.375  24 
   6   1  10 6720.15 817.621  23 
  -6   1 -10 6846.75 607.207  37 
  -6   1 -10 6696.74 496.865  18 
   6   1  11 16193.8 928.856  45 
  -6   1 -11 17445.0 747.646  82 
   6   1  11 17840.3 1189.46  15 
  -6   1 -11 17393.0 898.632  37 
  -6   2  15 3782.62 342.896  12 
  -6   2  15 4040.62 430.124  22 
   6   2 -15 3816.47 420.424  40 
   6   2 -15 4088.07 340.374   1 
  -6   2  14 2887.72 357.878  12 
   6   2 -14 2662.24 401.300  40 
  -6   2  14 2882.41 432.321  30 
   6   2 -14 3452.70 340.320   1 
  -6   2  14 3712.70 363.411  25 
  -6   2  13 16480.7 961.528  12 
   6   2 -13 13790.8 991.402  40 
   6   2 -13 13633.4 724.937   9 
  -6   2  13 14587.1 1038.92  30 
   6   2 -13 14367.7 808.680  28 
   6   2 -12 21818.3 1277.42  40 
   6   2 -12 21990.0 975.128   9 
  -6   2  12 22811.3 1391.61  30 
   6   2 -12 21800.2 1078.19   8 
   6   2 -12 21951.4 1049.43  28 
   6   2 -11 99163.6 3759.22  40 
   6   2 -11 105360. 3354.01   9 
  -6   2  11 106931. 4012.82  30 
   6   2 -11 106716. 3529.77   8 
   6   2 -11 109009. 3515.76  16 
   6   2 -11 106178. 3462.52  28 
  -6   2  10 112998. 3921.71  41 
   6   2 -10 103951. 3712.83  40 
   6   2 -10 104466. 3308.77   9 
   6   2 -10 103954. 3499.78   8 
  -6   2  10 101564. 3506.65  63 
   6   2 -10 113140. 3487.86  16 
   6   2 -10 105327. 3410.61  28 
   6   2  -9 21336.9 1138.17  40 
   6   2  -9 23069.3 1035.67   4 
  -6   2   9 22809.3 1400.32  17 
   6   2  -9 21638.5 1026.23   8 
   6   2  -9 19911.8 1053.48  32 
   6   2  -9 22933.2 996.800  16 
  -6   2   9 21516.9 1020.07  63 
   6   2  -9 21000.7 1286.45  59 
   6   2  -8 2875.36 314.312   4 
   6   2  -8 2637.24 345.372  40 
   6   2  -8 2768.61 310.915   8 
   6   2  -8 2493.09 314.020  32 
   6   2  -8 3039.53 301.766  16 
   6   2  -8 2385.51 406.288  59 
  -6   2   8 3439.44 426.796  52 
   6   2  -7 63470.7 2194.25   8 
   6   2  -7 60098.0 2210.90  32 
   6   2  -7 66579.5 2139.58  16 
   6   2  -7 55238.8 2190.43   5 
   6   2  -7 64487.7 2538.04  59 
  -6   2   7 69199.9 2484.82  52 
   6   2  -6 1126.59 223.819  40 
   6   2  -6 1081.08 195.660   4 
   6   2  -6 661.716 190.891  34 
   6   2  -6 1035.28 193.131  32 
   6   2  -6 903.124 166.273  16 
   6   2  -6 985.515 250.754  59 
  -6   2   6 985.863 234.319  52 
   6   2  -6 1050.86 188.931   8 
   6   2  -6 874.115 188.411   5 
   6   2  -5 41191.5 1505.69   4 
   6   2  -5 36730.8 1602.93  34 
   6   2  -5 40818.8 1527.43   8 
   6   2  -5 39974.4 1540.09  32 
   6   2  -5 37362.9 1540.34   5 
   6   2  -5 43175.3 1781.74  59 
  -6   2   5 41596.1 1740.87  52 
   6   2  -4 12611.0 630.265   4 
   6   2  -4 12397.2 645.163   8 
   6   2  -4 10688.8 693.672  34 
   6   2  -4 12403.2 688.874   5 
   6   2  -4 11776.5 691.665  65 
   6   2  -4 12073.5 777.147  59 
  -6   2   4 12336.6 789.660  52 
   6   2  -3 17807.7 816.389   8 
   6   2  -3 16080.9 878.812  34 
   6   2  -3 17852.2 865.286   5 
   6   2  -3 19357.1 866.965  32 
   6   2  -3 18115.7 864.724  65 
   6   2  -3 17301.3 931.320  59 
  -6   2   3 16153.5 946.431  52 
   6   2  -3 17783.2 784.838   4 
   6   2  -2 53205.5 1882.87   8 
   6   2  -2 56063.8 2039.05  34 
   6   2  -2 53841.4 1956.77   5 
   6   2  -2 52617.0 1911.78  65 
   6   2  -2 52628.2 1845.07   4 
   6   2  -1 3730.15 311.931   8 
   6   2  -1 4002.46 387.562  34 
   6   2  -1 4194.87 359.934  32 
  -6   2   1 3452.42 351.638  67 
   6   2  -1 3425.87 304.513  65 
   6   2   0 28301.6 1606.41  24 
   6   2   0 27790.2 1109.05   8 
   6   2   0 30291.5 1236.01   5 
  -6   2   0 26379.1 1226.01  67 
   6   2   0 28200.8 1119.61  65 
   6   2   1 10546.5 930.845  24 
   6   2   1 9067.71 639.389  34 
   6   2   1 9887.24 608.156   5 
   6   2   1 11314.7 622.083  32 
  -6   2  -1 9405.57 620.496  67 
   6   2   2 69222.1 3043.40  24 
   6   2   2 68555.7 2579.83  44 
   6   2   2 70310.6 2520.37  34 
   6   2   2 70809.5 2419.20   5 
  -6   2  -2 64808.7 2584.86  69 
   6   2   2 79043.1 2404.97  32 
  -6   2  -2 60499.4 2408.19  67 
   6   2   3 11525.3 1046.67  24 
   6   2   3 9642.15 723.605  44 
   6   2   3 10686.2 695.012  34 
   6   2   3 9274.71 588.109   5 
  -6   2  -3 9417.11 722.591  69 
  -6   2  -3 9310.93 768.023  54 
   6   2   4 37471.8 2028.40  24 
   6   2   4 32181.6 1498.22  44 
   6   2   4 34262.8 1416.06  34 
  -6   2  -4 27648.0 1445.49  69 
   6   2   4 29154.7 1239.96   5 
  -6   2  -4 26716.5 1523.00  54 
   6   2   5 46462.6 2423.43  24 
   6   2   5 39522.9 2124.75  45 
   6   2   5 43104.1 1874.52  44 
   6   2   5 43854.4 1726.37  34 
   6   2   6 18365.4 1411.09  24 
   6   2   6 16874.4 1227.20  45 
   6   2   6 16923.5 1005.74  44 
   6   2   6 15576.1 1374.78  23 
   6   2   6 16592.5 882.147  34 
   6   2   7 22952.5 1563.62  24 
   6   2   7 19865.3 1313.29  45 
   6   2   7 21741.9 1111.74  44 
   6   2   7 20849.4 1585.05  23 
  -6   2  -7 19865.6 964.775  18 
   6   2   8 18024.5 1319.97  24 
   6   2   8 18150.8 935.312  44 
   6   2   8 16302.3 1317.61  23 
  -6   2  -8 16065.1 834.963  18 
   6   2   9 8859.41 537.882  44 
   6   2   9 7252.55 769.283  23 
  -6   2  -9 8136.82 618.643  37 
  -6   2  -9 8266.15 509.934  18 
   6   2   9 9909.20 1013.45  15 
   6   2  10 13406.6 912.409  24 
  -6   2 -10 12371.6 709.119  37 
   6   2  10 15593.3 1091.34  15 
  -6   2 -10 13417.4 777.358  26 
  -6   3  14 329.946 114.798  25 
  -6   3  14 289.119 127.824  12 
  -6   3  14 238.339 131.330  22 
   6   3 -14 117.106 84.8478   1 
  -6   3  13 387.082 188.988  22 
   6   3 -13 417.378 171.457  40 
   6   3 -13 458.283 145.123  28 
  -6   3  13 352.417 157.803  25 
  -6   3  12 9543.05 732.360  22 
   6   3 -12 8324.11 636.688  40 
  -6   3  12 8492.47 670.868  30 
   6   3 -12 7733.72 502.059   8 
   6   3 -12 8926.50 530.653  28 
   6   3 -12 8758.20 469.435   9 
   6   3 -11 23131.7 1174.05  40 
   6   3 -11 22170.3 903.145   9 
   6   3 -11 21874.5 996.841   8 
  -6   3  11 23555.0 1271.57  30 
   6   3 -11 23276.9 989.721  28 
   6   3 -10 14921.7 915.763  40 
   6   3 -10 15967.8 807.759   8 
   6   3 -10 15822.7 796.560  16 
  -6   3  10 16648.1 1066.37  30 
   6   3  -9 30574.3 1403.21  40 
   6   3  -9 31500.5 1277.80   4 
   6   3  -9 29419.7 1254.29   8 
   6   3  -9 26998.2 1270.57  32 
   6   3  -9 30879.9 1243.07  16 
  -6   3   9 31064.9 1567.98  30 
   6   3  -8 17046.9 843.534   4 
   6   3  -8 18084.3 970.442  40 
   6   3  -8 16217.1 836.240   8 
   6   3  -8 14333.2 829.375  32 
   6   3  -8 16394.9 814.214  16 
   6   3  -7 13748.6 774.376   8 
   6   3  -7 14143.0 801.479  32 
   6   3  -6 43815.1 1649.53   4 
   6   3  -6 44483.3 1669.09   8 
   6   3  -6 40765.7 1659.58  32 
   6   3  -6 44958.5 1895.04  65 
   6   3  -6 37167.0 1614.25   5 
  -6   3   6 37584.3 1831.12  53 
  -6   3   6 43614.0 1838.85  52 
   6   3  -5 26105.6 1281.31  34 
   6   3  -5 31954.0 1308.01  32 
   6   3  -5 29713.6 1271.52   5 
   6   3  -5 29507.8 1420.34  65 
  -6   3   5 27612.3 1409.56  53 
  -6   3   5 28016.5 1384.05  52 
   6   3  -5 32016.3 1265.23   4 
   6   3  -4 17311.5 879.889   8 
   6   3  -4 14896.1 891.274  34 
   6   3  -4 15846.4 864.753   5 
   6   3  -4 18264.3 908.457  32 
   6   3  -4 15086.5 937.025  65 
  -6   3   4 16468.0 978.075  52 
   6   3  -4 18034.9 866.070   4 
   6   3  -3 3570.32 361.085   8 
   6   3  -3 2970.91 365.540  34 
   6   3  -3 3803.30 383.624   5 
   6   3  -3 3048.14 369.257  65 
  -6   3   3 3410.35 408.806  52 
   6   3  -2 3142.59 341.722   8 
   6   3  -2 3100.79 380.054  34 
   6   3  -2 3046.04 355.208   5 
   6   3  -2 3097.45 364.124  65 
  -6   3   2 2794.60 375.993  52 
   6   3  -1 2434.25 343.106  34 
   6   3  -1 1834.48 284.299   5 
   6   3  -1 2605.02 326.502  32 
   6   3  -1 1877.29 263.458  65 
  -6   3   1 1822.32 304.324  52 
   6   3   0 5555.73 515.792  34 
  -6   3   0 4571.75 471.529  69 
   6   3   0 5207.35 428.669  65 
   6   3   1 37300.6 1400.23   8 
   6   3   1 38561.2 1625.48  34 
   6   3   1 39431.1 1554.68   5 
   6   3   2 33602.9 1861.60  24 
   6   3   2 35239.6 1468.03   5 
   6   3   3 48496.6 2479.20  24 
   6   3   3 51548.1 2096.28  34 
   6   3   3 52916.0 2008.24   5 
   6   3   4 27710.7 1702.17  24 
   6   3   4 28401.6 1400.50  44 
   6   3   4 29076.8 1342.11  34 
   6   3   4 27854.6 1216.88   5 
   6   3   4 30666.7 1186.27  32 
   6   3   5 28943.1 1692.18  24 
   6   3   5 26342.6 1278.12  44 
   6   3   5 26127.2 1200.71  34 
   6   3   5 24004.9 1060.12   5 
   6   3   6 3530.97 562.663  24 
   6   3   6 4321.61 387.341  34 
   6   3   6 5219.94 718.052  15 
   6   3   7 5471.26 631.729  24 
   6   3   7 4866.35 368.994  34 
   6   3   7 6487.95 731.368  15 
   6   3   8 568.923 236.853  24 
   6   3   8 341.194 216.150  15 
  -6   4  11 6139.87 446.803  12 
   6   4 -11 5089.10 393.174  40 
   6   4 -11 6262.65 371.352  16 
   6   4 -11 5762.03 344.940  28 
  -6   4  11 6380.92 444.145  25 
  -6   4  10 7241.29 531.717  12 
  -6   4  10 6398.81 488.027  22 
   6   4 -10 6122.69 455.862  40 
   6   4 -10 5614.96 370.846   8 
   6   4 -10 6821.32 400.965  16 
   6   4 -10 5769.18 360.985  28 
  -6   4   9 821.772 193.649  22 
   6   4  -9 655.681 170.116  40 
   6   4  -9 550.799 152.229   4 
   6   4  -9 850.855 165.629  16 
   6   4  -9 577.814 147.098   8 
   6   4  -8 13055.3 653.321   4 
   6   4  -8 12782.0 717.352  40 
   6   4  -8 11578.8 626.954   8 
   6   4  -8 11403.5 634.259  32 
   6   4  -8 12052.6 610.651  16 
   6   4  -7 37244.1 1389.30   4 
   6   4  -7 34174.8 1369.51   8 
   6   4  -7 33513.4 1375.37  32 
   6   4  -7 35391.5 1330.48  16 
   6   4  -6 18018.7 876.402   8 
   6   4  -6 17335.8 870.187  32 
   6   4  -5 15790.1 784.506   4 
   6   4  -5 14662.1 776.096   8 
   6   4  -5 14984.1 792.070  32 
   6   4  -5 14073.7 766.168   5 
   6   4  -4 2161.05 288.323  32 
   6   4  -4 1427.66 236.308   5 
   6   4  -4 1907.76 256.080   4 
   6   4  -3 24758.1 1123.80   5 
   6   4  -3 24370.1 1104.11   8 
   6   4  -3 23032.3 1130.23  34 
   6   4  -3 23927.5 1066.81   4 
   6   4  -2 15997.8 807.608   8 
   6   4  -2 14454.6 848.700  34 
   6   4  -2 15786.2 855.276   5 
   6   4  -2 15822.2 777.159   4 
   6   4  -1 3219.85 321.140   8 
   6   4  -1 3058.31 359.737  34 
   6   4  -1 2922.07 343.173   5 
   6   4  -1 3105.10 296.129   4 
   6   4   0 13907.4 706.275   8 
   6   4   0 13073.2 799.236  34 
   6   4   0 14021.4 785.039   5 
   6   4   0 12722.9 650.578   4 
   6   4   1 64.3888 135.766  34 
   6   4   1 206.777 115.361  32 
   6   4   1 37.3615 77.2111   8 
   6   4   2 82.5362 145.346  34 
   6   4   2 107.714 111.845  32 
   6   4   2 84.2760 126.162   5 
   6   4   3 13225.2 769.870  34 
   6   4   3 14188.1 732.073   5 
   6   4   3 15119.8 706.296  32 
   6   4   4 9446.65 531.662   5 
   6   4   5 14464.5 693.234  34 
   6   4   5 12534.4 586.667   5 
   6   4   6 773.675 141.627  34 
   6   5  -6 18463.1 713.173   8 
   6   5  -5 14659.4 588.199   4 
   6   5  -5 14671.1 639.156  40 
   6   5  -5 14061.9 593.478   8 
   6   5  -4 9596.37 463.602   4 
   6   5  -4 9887.45 488.239  32 
   6   5  -3 2586.63 212.560   4 
   6   5  -3 2801.04 226.170   8 
   6   5  -3 2680.14 234.903  32 
   6   5  -3 2417.81 218.320   5 
   6   5  -2 58.4078 93.4562  40 
   6   5  -2-46.9115 75.8245   4 
   6   5  -2 58.6345 67.7095  32 
   6   5  -2 24.3577 71.8948   8 
   6   5  -2 87.4661 62.6865   5 
   6   5  -1 437.338 112.072  32 
   6   5  -1 286.963 86.1442   8 
   6   5  -1 341.133 103.549   5 
   6   5   0 638.031 119.369   5 
   6   5   1 1026.11 143.554   5 
   7  -4 -11 2974.32 258.264  77 
   7  -4 -10 2770.49 277.232  77 
  -7  -4  10 2192.39 450.333  27 
  -7  -4  10 2542.16 432.308  14 
   7  -4 -10 1943.85 309.441  48 
   7  -4  -9 4707.58 405.223  77 
  -7  -4   9 4771.50 664.004  27 
  -7  -4   9 5529.71 642.161  14 
   7  -4  -9 5383.46 497.212  48 
   7  -4  -8 7430.92 542.131  77 
  -7  -4   8 8176.03 817.564  14 
  -7  -4   8 7682.00 526.093  51 
  -7  -4   8 8392.62 740.806  47 
   7  -4  -7 9599.92 643.524  77 
   7  -4  -7 10091.0 521.345  72 
  -7  -4   7 10426.4 700.876  51 
  -7  -4   7 10719.8 902.448  47 
   7  -4  -6 851.393 206.542  77 
   7  -4  -6 859.932 161.000  72 
  -7  -4   6 505.669 400.488  27 
  -7  -4   6 1109.13 272.734  51 
  -7  -4   6 706.128 311.740  47 
   7  -4  -5 2331.15 311.881  77 
   7  -4  -5 2846.68 342.031  76 
   7  -4  -5 2619.26 266.323  72 
  -7  -4   5 1998.18 574.949  27 
  -7  -4   5 1989.79 456.427  47 
   7  -4  -4 8568.20 615.046  77 
   7  -4  -4 9081.65 641.238  76 
   7  -4  -4 8998.18 541.375  72 
  -7  -4   4 8838.91 1038.64  27 
  -7  -4   4 8443.64 934.974  47 
   7  -4  -3 9161.09 653.236  76 
   7  -4  -3 9357.95 553.815  72 
   7  -4  -3 8961.59 619.105  77 
  -7  -4   3 10440.2 1123.08  27 
  -7  -4   3 7723.08 870.255  26 
  -7  -4   3 7920.99 938.016  47 
  -7  -4   2 900.499 293.466  46 
   7  -4  -2 926.515 208.441  77 
   7  -4  -2 609.588 195.045  76 
   7  -4  -2 901.796 227.443  75 
   7  -4  -2 883.188 181.824  72 
  -7  -4   2 779.366 401.930  27 
  -7  -4   2 679.079 324.515  26 
  -7  -4   1 2862.38 456.900  46 
   7  -4  -1 2916.22 324.364  77 
   7  -4  -1 2254.27 319.568  76 
   7  -4  -1 3095.87 398.360  75 
   7  -4  -1 3194.20 391.553  73 
  -7  -4   1 1887.79 517.134  27 
  -7  -4   1 3340.87 610.115  26 
  -7  -4   0 9834.34 854.274  46 
   7  -4   0 9558.88 594.105  77 
   7  -4   0 10174.4 723.351  75 
   7  -4   0 9287.99 722.769  73 
  -7  -4   0 9027.14 898.786  27 
  -7  -4   0 8777.39 928.819  26 
  -7  -4  -1 10223.7 857.017  46 
   7  -4   1 9680.17 571.878  77 
   7  -4   1 10116.1 756.941  73 
   7  -4   1 10093.0 712.745  75 
  -7  -4  -2 1602.53 338.694  46 
   7  -4   2 1422.62 288.303  73 
  -7  -4  -3 11940.6 825.860  46 
   7  -4   3 11407.6 753.972  73 
  -7  -4  -3 12464.9 973.564  26 
  -7  -4  -4 92108.4 3234.88  46 
   7  -4   4 95901.2 3166.78  73 
  -7  -4  -4 95690.7 3418.22  26 
  -7  -3  14 645.222 246.466  14 
  -7  -3  13 11404.9 988.834  14 
   7  -3 -13 11421.9 824.617  48 
  -7  -3  12 12395.4 1046.40  27 
   7  -3 -12 16157.9 1085.90  48 
   7  -3 -11 314.762 158.580  76 
  -7  -3  11 56.9572 322.320  27 
   7  -3 -11 627.660 290.037  48 
   7  -3 -10 7914.72 656.282  76 
  -7  -3  10 8171.62 1035.13  14 
  -7  -3  10 8459.74 1028.58  27 
   7  -3 -10 7635.02 825.246  48 
   7  -3  -9 17020.3 1069.07  76 
  -7  -3   9 20341.2 1666.59  14 
  -7  -3   9 18301.6 1628.03  27 
   7  -3  -9 18369.2 1318.82  48 
  -7  -3   9 18713.8 1272.12  47 
   7  -3  -8 1255.60 287.817  76 
  -7  -3   8 2057.48 603.270  27 
  -7  -3   8 1341.43 522.248  14 
   7  -3  -8 1558.40 399.455  48 
  -7  -3   8 1352.74 402.695  47 
   7  -3  -7 4487.57 540.877  76 
   7  -3  -7 4111.11 345.405  72 
  -7  -3   7 4783.81 888.827  27 
  -7  -3   7 3548.50 718.402  14 
   7  -3  -7 3835.59 567.160  48 
  -7  -3   7 3209.29 611.756  47 
   7  -3  -6 33472.4 1709.73  76 
   7  -3  -6 34721.0 1381.54  72 
  -7  -3   6 42077.1 2400.78  14 
  -7  -3   6 41065.2 2541.38  27 
   7  -3  -6 34025.1 1785.95  48 
  -7  -3   6 31627.2 2026.62  47 
   7  -3  -5 22107.9 1313.59  76 
   7  -3  -5 25135.8 1371.90  75 
   7  -3  -5 23842.0 1062.37  72 
  -7  -3   5 24407.9 1779.22  14 
  -7  -3   5 22185.3 1597.14  26 
  -7  -3   4 1734.81 397.170  46 
   7  -3  -4 1729.20 322.580  77 
   7  -3  -4 2094.84 399.596  76 
   7  -3  -4 1949.94 383.424  75 
   7  -3  -4 2084.50 272.080  72 
  -7  -3   4 2278.58 625.086  27 
  -7  -3   4 1778.52 493.738  14 
  -7  -3   4 2545.88 563.160  26 
  -7  -3   3 9052.55 894.720  46 
   7  -3  -3 9212.13 504.571  79 
   7  -3  -3 7727.57 676.382  77 
   7  -3  -3 9506.14 821.463  75 
   7  -3  -3 9106.71 789.751  76 
   7  -3  -3 8679.76 576.002  72 
  -7  -3   3 10925.4 1229.82  27 
  -7  -3   3 9117.68 1040.76  26 
  -7  -3   2 78096.9 3363.30  46 
   7  -3  -2 75517.1 2912.94  77 
   7  -3  -2 78205.6 3179.50  75 
  -7  -3   2 80762.2 3577.50  35 
   7  -3  -2 80813.1 2727.68  72 
   7  -3  -2 78188.3 3074.75  76 
  -7  -3   2 83971.6 3723.00  26 
  -7  -3   1 9428.90 941.378  46 
  -7  -3   1 8561.51 1008.92  39 
   7  -3  -1 8776.75 773.776  76 
   7  -3  -1 9007.15 821.783  75 
  -7  -3   1 9022.44 1012.86  35 
   7  -3  -1 9049.59 587.515  72 
  -7  -3   1 9689.60 1149.25  27 
   7  -3  -1 8177.13 664.777  77 
  -7  -3   1 8999.12 1051.87  26 
  -7  -3   0 16986.7 1328.70  46 
  -7  -3   0 18302.8 1480.67  39 
   7  -3   0 15755.2 978.886  77 
   7  -3   0 17882.3 1114.45  76 
   7  -3   0 18797.7 1230.03  75 
  -7  -3   0 16604.7 1409.55  35 
  -7  -3   0 17582.0 1530.17  27 
  -7  -3   0 18475.9 1529.43  26 
  -7  -3  -1 3525.67 613.231  46 
   7  -3   1 3551.50 534.635  75 
  -7  -3  -1 3546.65 670.717  39 
   7  -3   1 3756.97 454.592  78 
   7  -3   1 3412.23 415.250  77 
  -7  -3  -1 4025.39 688.984  35 
   7  -3   1 3746.93 497.595  76 
  -7  -3  -1 3879.75 718.000  27 
  -7  -3  -1 3711.26 694.355  26 
  -7  -3  -2 36702.0 2131.64  39 
   7  -3   2 34509.8 1633.51  78 
  -7  -3  -2 34531.4 2133.59  35 
   7  -3   2 33171.8 1513.55  77 
  -7  -3  -2 37003.7 2186.50  27 
  -7  -3  -2 34811.5 2165.40  26 
  -7  -3  -2 36712.0 2029.19  46 
  -7  -3  -3 28216.8 1770.24  39 
   7  -3   3 28389.4 1417.93  78 
   7  -3   3 29476.5 1546.91  75 
  -7  -3  -3 26199.0 1803.66  35 
  -7  -3  -3 27455.5 1750.56  27 
  -7  -3  -4 3002.38 423.942  10 
  -7  -3  -4 3664.95 583.633  39 
   7  -3   4 3944.59 459.883  78 
   7  -3   4 3736.60 485.809  75 
  -7  -3  -4 3705.31 623.007  35 
   7  -3   4 3368.01 515.968  73 
  -7  -3  -5 7182.21 608.846  10 
  -7  -3  -5 7098.09 717.390  39 
   7  -3   5 7924.88 619.321  78 
  -7  -3  -5 8249.65 864.755  35 
   7  -3   5 8093.34 717.146  73 
  -7  -3  -5 8131.57 874.055  26 
  -7  -3  -6 14481.1 833.022  10 
   7  -3   6 14012.8 829.433  78 
   7  -3   6 16919.7 957.165  73 
  -7  -3  -6 16913.3 1150.57  26 
  -7  -3  -6 15721.5 1002.50  46 
   7  -3   7-15.1322 108.290  78 
   7  -3   7 69.3447 98.0824  73 
  -7  -3  -7 252.823 162.843  26 
  -7  -2  15 19866.5 1208.57  38 
  -7  -2  15 16394.1 1087.77  14 
   7  -2 -15 17850.6 1047.65  48 
  -7  -2  14 4441.70 650.827  14 
   7  -2 -14 4841.91 585.622  48 
  -7  -2  13 892.526 233.448  42 
   7  -2 -13 1077.62 241.336  29 
  -7  -2  13 1024.62 411.363  14 
   7  -2 -13 709.447 259.032   8 
  -7  -2  12 7765.98 697.349  42 
  -7  -2  12 9589.06 1122.92  14 
   7  -2 -12 8053.85 815.247   8 
  -7  -2  11 15090.0 1030.51  42 
  -7  -2  11 15484.5 1040.79  41 
   7  -2 -11 16335.1 1192.31   3 
  -7  -2  11 15718.0 1502.34  14 
  -7  -2  11 14192.9 1323.90  27 
   7  -2 -11 17911.8 1265.34   8 
  -7  -2  10 11544.0 895.848  42 
  -7  -2  10 12151.3 915.591  41 
  -7  -2  10 12532.5 1343.54  14 
  -7  -2  10 11935.2 1258.74  27 
   7  -2 -10 13304.8 1095.32   8 
  -7  -2  10 14361.4 1182.36  36 
  -7  -2   9 61535.8 2554.22  41 
  -7  -2   9 62446.1 2872.55  36 
   7  -2  -9 62000.1 2786.89   3 
  -7  -2   9 69181.2 3459.08  14 
  -7  -2   9 63392.3 3294.62  27 
   7  -2  -9 66601.8 2892.75   8 
  -7  -2   9 60383.7 2702.36  47 
  -7  -2   8 12317.5 904.641  41 
  -7  -2   8 13916.1 1110.34  36 
   7  -2  -8 12359.8 873.243  75 
   7  -2  -8 12551.4 1024.33   3 
   7  -2  -8 13241.3 939.027  58 
  -7  -2   8 13402.5 1335.73  27 
  -7  -2   8 12598.9 828.042  55 
  -7  -2   8 11478.6 1001.82  47 
  -7  -2   7 10555.1 932.745  36 
   7  -2  -7 9829.68 788.958  75 
  -7  -2   7 9956.76 878.860  17 
   7  -2  -7 10829.1 911.932   3 
  -7  -2   7 9547.30 1071.64  62 
   7  -2  -7 10395.5 808.042  58 
  -7  -2   7 10567.5 1178.99  27 
  -7  -2   7 10088.9 713.258  55 
   7  -2  -7 12060.3 1000.54   8 
  -7  -2   7 9939.62 944.759  47 
  -7  -2   7 9853.05 1080.60  13 
  -7  -2   6 13693.8 1035.44  36 
   7  -2  -6 10759.7 865.619  76 
   7  -2  -6 11382.9 883.106  75 
   7  -2  -6 12697.7 964.141   3 
  -7  -2   6 13027.5 1208.87  62 
   7  -2  -6 13044.5 896.351  58 
  -7  -2   6 14485.6 1356.58  27 
   7  -2  -6 12534.3 1004.94   8 
  -7  -2   6 11393.0 1061.71  47 
  -7  -2   6 13158.4 1199.01  13 
  -7  -2   5 493.191 310.393  13 
   7  -2  -5 468.968 208.175  75 
  -7  -2   5 914.902 383.060  19 
   7  -2  -5 787.582 159.047  72 
   7  -2  -5 570.637 251.686  76 
  -7  -2   5 1011.30 369.616  62 
   7  -2  -5 630.690 168.071  60 
   7  -2  -5 621.633 222.078  58 
   7  -2  -5 340.857 202.842   3 
  -7  -2   5 519.312 172.050  56 
  -7  -2   5 196.390 262.328  27 
  -7  -2   5 634.119 241.101  36 
   7  -2  -5 379.697 220.657   8 
  -7  -2   5 467.523 258.257  26 
   7  -2  -4 24060.5 1314.67  74 
  -7  -2   4 22526.2 1595.36  39 
   7  -2  -4 26679.5 1051.88  72 
  -7  -2   4 23423.8 1614.69  62 
   7  -2  -4 22623.0 1344.57  75 
   7  -2  -4 23377.7 1158.80  60 
   7  -2  -4 23169.6 1261.94  58 
  -7  -2   4 28859.0 1892.36  27 
  -7  -2   4 22927.9 1350.56  36 
  -7  -2   4 25102.1 1224.21  56 
   7  -2  -4 24065.1 1367.71   8 
  -7  -2   4 24734.7 1586.59  26 
  -7  -2   4 25172.4 1641.33  13 
  -7  -2   3 22641.6 1574.50  39 
   7  -2  -3 18887.4 1217.01  75 
  -7  -2   3 20234.9 1489.50  19 
  -7  -2   3 19776.4 1376.88  35 
   7  -2  -3 20088.7 1229.06  74 
   7  -2  -3 21813.2 938.194  72 
  -7  -2   3 20550.6 1446.47  62 
   7  -2  -3 21516.0 1075.19  60 
   7  -2  -3 19294.9 1101.65  58 
  -7  -2   3 22437.4 1653.82  27 
  -7  -2   3 20226.3 1088.37  56 
   7  -2  -3 20313.4 1193.53   8 
  -7  -2   3 21835.1 1491.49  26 
  -7  -2   3 20567.9 1439.15  13 
  -7  -2   2 551.798 304.654  39 
   7  -2  -2 515.557 193.551  77 
   7  -2  -2 688.107 252.612  76 
   7  -2  -2 471.111 234.273  75 
   7  -2  -2 709.256 259.110  74 
  -7  -2   2 584.627 276.052  35 
  -7  -2   2 532.452 294.003  19 
   7  -2  -2 614.812 155.124  72 
  -7  -2   2 426.826 261.964  62 
   7  -2  -2 501.062 166.061  60 
   7  -2  -2 536.345 183.434  58 
  -7  -2   2 593.928 193.887  56 
  -7  -2   2 465.369 292.933  26 
  -7  -2   2 753.896 292.413  13 
   7  -2  -1 13880.4 963.077  76 
  -7  -2   1 15223.1 1265.77  39 
   7  -2  -1 12684.7 846.774  77 
  -7  -2   1 16406.7 1279.30  19 
  -7  -2   1 12538.4 1124.68  35 
   7  -2  -1 14431.6 1065.74  74 
   7  -2  -1 14801.4 752.949  72 
  -7  -2   1 13277.6 1097.37  62 
   7  -2  -1 14822.6 882.269  60 
   7  -2  -1 13264.1 836.067  58 
  -7  -2   1 14930.7 1325.22  27 
  -7  -2   1 13191.4 874.730  56 
  -7  -2   1 15112.4 1251.04  26 
  -7  -2   1 14200.0 1125.35  13 
   7  -2   0 25988.7 1953.17   6 
   7  -2   0 24649.9 1243.44  77 
  -7  -2   0 24190.1 1629.95  19 
   7  -2   0 22834.6 1414.86  75 
   7  -2   0 27511.7 1546.44  74 
  -7  -2   0 26572.0 1704.51  35 
  -7  -2   0 23462.1 1475.05  62 
   7  -2   0 23458.3 1233.72  60 
  -7  -2   0 27469.9 1827.57  27 
  -7  -2   0 22256.5 1250.20  56 
   7  -2   0 24567.3 1359.70  76 
  -7  -2   0 28710.6 1783.28  26 
   7  -2   1 5173.98 913.281  24 
   7  -2   1 5728.05 535.515  77 
  -7  -2  -1 6133.80 825.472  39 
   7  -2   1 6171.62 628.151  76 
  -7  -2  -1 6047.32 774.133  19 
   7  -2   1 5742.25 654.770  75 
   7  -2   1 6389.91 926.563   6 
  -7  -2  -1 5569.14 660.417  62 
  -7  -2  -1 7595.63 926.062  27 
  -7  -2  -1 5298.73 550.941  56 
   7  -2   1 6338.95 715.114  74 
  -7  -2  -1 6938.78 871.287  26 
   7  -2   2 21781.6 1887.84  24 
  -7  -2  -2 25423.5 1766.26  39 
   7  -2   2 28377.4 1341.71  77 
   7  -2   2 27131.3 1432.48  76 
  -7  -2  -2 26944.9 1695.29  19 
   7  -2   2 24644.5 1562.94  74 
   7  -2   2 24002.4 2098.92  15 
  -7  -2  -2 29529.8 1920.02  27 
   7  -2   2 28582.7 1574.57  75 
  -7  -2  -2 25828.3 1791.38  26 
   7  -2   3 9701.09 909.643  45 
   7  -2   3 7952.30 1060.29  24 
  -7  -2  -3 9276.61 1040.26  39 
   7  -2   3 10027.1 720.379  77 
   7  -2   3 10773.7 813.498  76 
   7  -2   3 8952.37 836.984  75 
  -7  -2  -3 9838.90 924.811  19 
   7  -2   3 9310.80 893.290  74 
   7  -2   3 10020.0 1305.50  15 
  -7  -2  -3 8849.89 1016.27  27 
  -7  -2  -3 9775.86 1067.37  26 
   7  -2   3 12814.8 1160.80  50 
   7  -2   4 36475.2 1969.78  45 
   7  -2   4 31777.3 2192.47  24 
  -7  -2  -4 38554.6 2190.89  39 
   7  -2   4 40201.8 1914.66  75 
   7  -2   4 34854.1 1929.94  74 
   7  -2   4 36502.8 2565.84  15 
  -7  -2  -4 38208.0 2221.32  27 
  -7  -2  -4 40261.9 2311.95  26 
   7  -2   5 41966.8 2147.23  45 
  -7  -2  -5 45472.7 2385.71  39 
   7  -2   5 44109.0 2033.26  75 
   7  -2   5 40640.2 2653.94  15 
  -7  -2  -5 46618.0 2401.20  27 
   7  -2   6 11925.7 954.643  45 
  -7  -2  -6 12296.9 1072.79  39 
   7  -2   6 13873.7 902.130  75 
  -7  -2  -6 12376.7 1024.65  27 
   7  -2   7 536.717 213.952  45 
  -7  -2  -7 333.497 199.497  39 
   7  -2   7 833.295 238.829  73 
  -7  -2  -7 759.744 310.040  26 
   7  -2   8 666.930 175.810  73 
  -7  -2  -8 350.611 226.664  26 
  -7  -1  16 13771.7 833.845  43 
  -7  -1  16 15149.5 1031.30  38 
   7  -1 -16 13000.9 835.834  48 
  -7  -1  15 3573.45 452.112  42 
   7  -1 -15 4246.58 419.671  29 
   7  -1 -14-28.2116 181.989   1 
  -7  -1  14 69.6307 170.591  42 
   7  -1 -14 104.612 132.364  29 
   7  -1 -14 321.865 199.480   3 
  -7  -1  14 49.5880 266.140  14 
   7  -1 -14 220.328 190.968   8 
   7  -1 -13 24129.7 1329.64   1 
  -7  -1  13 24616.0 1465.10  42 
   7  -1 -13 23929.3 1646.44  40 
   7  -1 -13 27180.2 1480.43   3 
   7  -1 -13 24280.4 1295.70  29 
   7  -1 -13 26354.9 1474.03   8 
  -7  -1  13 24932.5 1769.08  14 
  -7  -1  12 31450.8 1690.94  42 
  -7  -1  12 29544.2 1665.87  41 
   7  -1 -12 28280.1 1828.48  40 
  -7  -1  12 29807.8 1851.36  36 
   7  -1 -12 28957.1 1622.86   3 
   7  -1 -12 29084.4 1464.27  29 
  -7  -1  12 31588.5 2080.05  14 
   7  -1 -12 30200.3 1666.22   8 
   7  -1 -12 30098.8 1530.72   1 
  -7  -1  11 44111.5 2198.45  41 
   7  -1 -11 48527.0 2463.13  40 
   7  -1 -11 47148.2 2198.67   3 
  -7  -1  11 49428.3 2756.21  14 
   7  -1 -11 47251.7 2248.06   8 
   7  -1 -11 49250.0 2088.33   1 
  -7  -1  10 13903.3 1063.66  41 
   7  -1 -10 14386.6 1174.71  40 
   7  -1 -10 13092.8 1005.00   3 
  -7  -1  10 15173.8 1244.19  17 
   7  -1 -10 15731.1 1036.41  61 
   7  -1 -10 13718.4 954.274  59 
   7  -1 -10 14545.6 959.582  58 
   7  -1 -10 15546.9 1107.05   8 
  -7  -1  10 14764.1 985.461  55 
   7  -1 -10 15069.1 971.537   1 
   7  -1  -9 31486.4 1775.92  40 
  -7  -1   9 32152.3 1856.88  36 
  -7  -1   9 31535.0 1853.90  17 
   7  -1  -9 32252.0 1601.71  61 
   7  -1  -9 30880.2 1552.77  59 
   7  -1  -9 31029.3 1516.23  58 
   7  -1  -9 33019.7 1700.55   8 
  -7  -1   9 31661.7 1546.33  55 
   7  -1  -9 32809.4 1527.37   1 
  -7  -1   9 32900.3 2027.83  13 
   7  -1  -8 29146.1 1638.05  40 
   7  -1  -8 31163.9 1558.84   3 
  -7  -1   8 30885.6 1754.38  36 
  -7  -1   8 30649.5 1753.74  17 
   7  -1  -8 31346.9 1529.73  61 
   7  -1  -8 30931.6 1504.70  59 
   7  -1  -8 31415.6 1461.65  58 
  -7  -1   8 32072.7 1927.80  27 
  -7  -1   8 30832.6 1480.05  55 
  -7  -1   8 30095.6 1899.96  13 
   7  -1  -8 29551.0 1412.54   1 
   7  -1  -7 21513.6 1083.27   1 
   7  -1  -7 21131.3 1250.89  40 
  -7  -1   7 19522.5 1416.19  19 
   7  -1  -7 22695.9 1213.32   3 
  -7  -1   7 19895.2 1322.43  36 
  -7  -1   7 20501.2 1319.94  17 
   7  -1  -7 20988.6 1180.66  61 
   7  -1  -7 20092.8 1145.14  59 
   7  -1  -7 19984.2 1086.21  58 
   7  -1  -7 21736.8 1242.56   8 
  -7  -1   7 22682.0 1542.51  27 
  -7  -1   7 20371.8 1150.80  56 
  -7  -1   7 21405.3 1501.93  13 
  -7  -1   6 188.107 245.314  19 
   7  -1  -6 347.175 165.565   3 
   7  -1  -6 291.451 157.276  59 
   7  -1  -6 68.1822 111.451  58 
  -7  -1   6 54.2872 128.563  56 
  -7  -1   6 405.414 279.460  27 
   7  -1  -6 267.327 198.874   8 
  -7  -1   6 145.522 212.608  13 
  -7  -1   5 4982.99 631.430  39 
   7  -1  -5 4092.58 732.033   6 
   7  -1  -5 4207.82 452.686   3 
   7  -1  -5 3064.70 559.891  33 
  -7  -1   5 3114.06 534.330  62 
   7  -1  -5 3340.32 414.679  59 
   7  -1  -5 4165.82 413.408  58 
   7  -1  -5 5577.88 528.395   8 
  -7  -1   5 3632.03 602.665  27 
  -7  -1   5 4412.85 470.773  56 
  -7  -1   5 3725.23 325.760  52 
  -7  -1   5 4256.45 616.351  19 
   7  -1  -4 8796.34 1036.43   6 
  -7  -1   4 9610.53 866.443  39 
  -7  -1   4 9041.25 868.678  19 
   7  -1  -4 7163.27 586.088   3 
   7  -1  -4 9487.06 904.372  33 
  -7  -1   4 8129.10 824.088  62 
   7  -1  -4 8640.26 661.011  59 
   7  -1  -4 8595.36 602.596  58 
   7  -1  -4 9167.32 683.567   8 
  -7  -1   4 9424.24 940.753  27 
  -7  -1   4 9306.51 710.524  56 
  -7  -1   4 9579.18 541.153  52 
  -7  -1   4 8981.49 868.291  13 
   7  -1  -3 10218.4 1150.89  24 
   7  -1  -3 12492.3 1189.36   6 
  -7  -1   3 12294.1 993.767  39 
  -7  -1   3 10754.9 953.434  19 
   7  -1  -3 11236.0 968.206  33 
  -7  -1   3 11060.2 658.280  67 
  -7  -1   3 11409.8 931.533  62 
   7  -1  -3 10762.1 657.351  58 
   7  -1  -3 10209.2 706.017   8 
  -7  -1   3 11437.8 1030.16  27 
  -7  -1   3 10563.5 767.260  56 
  -7  -1   3 10147.1 580.080  52 
   7  -1  -2 8340.70 1029.55  24 
   7  -1  -2 9378.47 1025.15   6 
  -7  -1   2 10834.6 938.162  39 
   7  -1  -2 8707.35 829.095  33 
  -7  -1   2 8612.40 580.690  67 
  -7  -1   2 8000.22 758.820  62 
   7  -1  -2 9010.34 1132.35  15 
   7  -1  -2 9062.34 574.758  58 
  -7  -1   2 11269.4 1003.93  27 
  -7  -1   2 9230.38 710.982  56 
  -7  -1   2 8936.16 805.659  26 
   7  -1  -1 68471.1 3169.35   6 
  -7  -1   1 64687.8 2845.65  39 
  -7  -1   1 68210.3 2861.41  19 
   7  -1  -1 60850.7 2536.45  75 
   7  -1  -1 65284.4 2740.24  33 
  -7  -1   1 67811.4 2351.93  67 
  -7  -1   1 60877.2 2626.51  62 
   7  -1  -1 65445.8 2449.53  60 
   7  -1  -1 61293.9 3347.77  15 
  -7  -1   1 74164.6 3064.21  27 
  -7  -1   1 59171.7 2507.38  56 
  -7  -1   1 65081.7 2746.11  26 
   7  -1   0 9441.29 889.403  45 
   7  -1   0 6782.05 964.983  24 
   7  -1   0 8748.63 994.776   6 
  -7  -1   0 10356.8 953.597  39 
   7  -1   0 9797.90 660.254  77 
   7  -1   0 9420.90 716.507  76 
   7  -1   0 11336.4 838.783  75 
  -7  -1   0 9001.46 638.010  67 
  -7  -1   0 9967.30 797.098  62 
   7  -1   0 9126.57 688.377  60 
  -7  -1   0 10568.6 1007.03  27 
  -7  -1   0 11565.9 949.801  26 
   7  -1   1 45624.7 2270.53  45 
   7  -1   1 40922.5 2502.03  24 
   7  -1   1 47276.3 2512.74   6 
  -7  -1  -1 47097.9 2325.90  39 
   7  -1   1 45565.2 1798.13  77 
   7  -1   1 46334.5 1927.21  76 
   7  -1   1 45302.7 2030.05  75 
   7  -1   1 44092.1 2030.13  74 
  -7  -1  -1 43946.8 1804.61  67 
  -7  -1  -1 41643.4 1917.94  62 
   7  -1   1 43275.3 1882.97  60 
  -7  -1  -1 46905.1 2262.92  26 
   7  -1   2 248.674 266.968  45 
   7  -1   2 279.352 306.071  24 
   7  -1   2 418.181 282.802   6 
  -7  -1  -2 302.624 270.738  39 
   7  -1   2 134.921 127.330  77 
   7  -1   2 194.429 149.167  76 
   7  -1   2 172.726 163.596  75 
   7  -1   2 221.960 224.486  74 
   7  -1   2 85.4387 404.415  15 
   7  -1   2 344.459 211.102  57 
  -7  -1  -2 46.9761 214.320  26 
   7  -1   3 18028.5 1373.99  45 
   7  -1   3 15450.0 1477.32  24 
   7  -1   3 18289.3 1466.72   6 
   7  -1   3 20445.9 1035.73  77 
  -7  -1  -3 17870.6 1297.40  37 
   7  -1   3 19204.8 1082.26  76 
   7  -1   3 18084.1 1158.81  75 
   7  -1   3 16846.9 1195.11  74 
   7  -1   3 18096.3 1750.70  15 
   7  -1   3 18094.7 1240.86  57 
  -7  -1  -3 18924.3 1377.25  26 
   7  -1   4 40808.9 2278.46  45 
   7  -1   4 36980.1 2405.89  24 
   7  -1   4 44102.3 2379.61   6 
  -7  -1  -4 43871.5 2230.82  37 
   7  -1   4 41191.6 1940.70  75 
   7  -1   4 41941.0 2069.64  74 
  -7  -1  -4 39978.2 1825.69  64 
   7  -1   4 41940.4 2789.30  15 
   7  -1   4 45539.4 2178.10  57 
  -7  -1  -4 45248.8 2321.16  26 
   7  -1   5 118206. 4840.09  45 
   7  -1   5 107935. 5020.04  24 
  -7  -1  -5 128712. 4796.97  37 
  -7  -1  -5 129139. 4938.13  39 
   7  -1   5 121661. 4348.61  75 
   7  -1   5 126130. 4572.88  74 
   7  -1   5 122473. 5571.36  15 
  -7  -1  -5 132136. 4956.51  26 
   7  -1   6 33454.4 2012.59  45 
   7  -1   6 28945.1 2030.70  24 
  -7  -1  -6 37262.6 2060.18  39 
  -7  -1  -6 32672.4 1741.91  19 
   7  -1   6 37395.1 1804.31  74 
   7  -1   6 32198.9 2391.84  15 
  -7  -1  -6 36525.8 2057.66  27 
  -7  -1  -6 36722.5 2050.35  26 
   7  -1   6 43597.0 2283.46  50 
   7  -1   7 4811.18 671.776  45 
   7  -1   7 3157.29 610.175  24 
  -7  -1  -7 3769.78 594.041  39 
  -7  -1  -7 5589.08 696.278  27 
   7  -1   7 5205.54 889.264  15 
   7  -1   7 6785.57 807.878  50 
   7  -1   8 9860.88 890.687  45 
  -7  -1  -8 9996.54 861.362  39 
   7  -1   8 8048.43 1002.86  15 
  -7  -1  -8 8946.20 794.121  27 
   7  -1   9 1117.86 282.221  45 
  -7  -1  -9 1341.12 282.236  39 
   7  -1   9 1305.98 382.771  15 
  -7  -1  -9 786.760 270.526  26 
  -7  -1 -10 1791.58 197.657  82 
  -7   0  16 32.8909 181.352  38 
   7   0 -16-16.8453 102.192  29 
   7   0 -16 127.940 132.812   1 
  -7   0  15 4171.84 523.674  42 
   7   0 -15 3841.94 584.127  40 
   7   0 -15 3998.37 429.998   3 
   7   0 -15 4344.12 437.493  29 
   7   0 -15 4277.62 444.034   1 
  -7   0  14 6186.88 697.360  42 
   7   0 -14 6202.16 761.102  40 
   7   0 -14 6552.98 620.671   3 
   7   0 -14 6389.86 579.148   1 
  -7   0  14 6174.53 625.098  30 
   7   0 -14 6254.81 561.616  29 
   7   0 -14 6687.59 613.319   8 
  -7   0  13 3417.94 533.193  42 
  -7   0  13 2441.94 477.693  41 
  -7   0  13 2820.24 389.218  22 
   7   0 -13 3450.30 429.315   1 
  -7   0  13 3588.55 503.900  30 
   7   0 -13 3623.40 490.177   8 
  -7   0  12 32651.1 1805.50  42 
  -7   0  12 33450.9 1827.53  41 
   7   0 -12 31283.5 1508.24   1 
  -7   0  12 34176.1 1580.73  22 
  -7   0  12 33085.7 1951.09  36 
  -7   0  12 32359.6 2001.32  17 
  -7   0  12 31467.6 1686.27  30 
   7   0 -12 33367.6 1674.43   8 
   7   0 -11 6853.58 593.405   1 
  -7   0  11 7924.35 810.660  41 
   7   0 -11 7149.79 784.740  40 
  -7   0  11 6549.15 826.360  36 
  -7   0  11 6116.16 813.132  17 
  -7   0  11 6545.32 642.481  63 
   7   0 -11 6356.49 682.785  61 
   7   0 -11 6134.03 684.713  59 
   7   0 -11 7434.63 697.523   8 
  -7   0  11 8411.16 948.935  14 
  -7   0  11 6272.26 647.739  55 
  -7   0  10 21201.4 1348.84  41 
   7   0 -10 21586.8 1327.24  40 
  -7   0  10 20533.2 1433.76  36 
  -7   0  10 20416.4 1461.78  17 
  -7   0  10 18777.8 1130.43  63 
   7   0 -10 20253.9 1247.61  61 
   7   0 -10 21576.7 1205.70   8 
   7   0 -10 19718.2 1254.00  59 
  -7   0  10 19523.3 1179.51  55 
   7   0 -10 20448.5 1062.48   1 
  -7   0  10 19536.7 1435.63  13 
  -7   0   9 2732.87 535.426  13 
   7   0  -9 3432.64 474.834  40 
  -7   0   9 3302.99 543.864  36 
   7   0  -9 2277.24 510.104  33 
  -7   0   9 3118.51 543.646  17 
  -7   0   9 2171.94 353.976  63 
   7   0  -9 2786.42 428.445  61 
   7   0  -9 3157.65 421.151   8 
   7   0  -9 3405.12 476.483  59 
  -7   0   9 2647.66 392.925  55 
   7   0  -9 2678.19 338.165   1 
  -7   0   8 234.645 237.451  13 
   7   0  -8 28.6267 149.306  40 
  -7   0   8 42.5906 186.630  36 
   7   0  -8 56.2550 116.208   1 
   7   0  -8 351.188 261.660  33 
  -7   0   8-25.4031 101.621  63 
   7   0  -8 219.353 168.175  61 
   7   0  -8-32.6757 149.031  59 
  -7   0   8 22.5849 94.7586  52 
   7   0  -7 71104.9 2666.20  40 
   7   0  -7 67496.3 3206.25   6 
   7   0  -7 72001.7 3130.96  33 
  -7   0   7 66629.4 2594.23  63 
   7   0  -7 74120.1 2639.85   8 
   7   0  -7 78954.6 2838.60  61 
  -7   0   7 78882.2 2824.37  56 
  -7   0   7 74579.7 2606.32  52 
  -7   0   7 74416.5 3116.73  13 
   7   0  -6 56400.8 2157.85  40 
   7   0  -6 55291.9 2750.69   6 
  -7   0   6 59005.7 2545.35  19 
   7   0  -6 58248.2 2616.41  33 
   7   0  -6 60672.2 2180.57   8 
   7   0  -6 59009.5 2079.88  58 
  -7   0   6 57984.5 2325.33  56 
  -7   0   6 60483.7 2181.86  52 
  -7   0   6 59788.3 2634.00  13 
   7   0  -5 3202.81 607.408  24 
   7   0  -5 4433.79 662.767   6 
  -7   0   5 3892.15 520.633  19 
   7   0  -5 4572.76 586.122  33 
   7   0  -5 4426.36 390.027   8 
   7   0  -5 3984.55 336.376  58 
  -7   0   5 4351.13 472.968  56 
  -7   0   5 3732.36 376.416  52 
   7   0  -5 3829.35 445.066   5 
   7   0  -4 19454.7 1382.30   6 
   7   0  -4 18225.6 876.739   8 
  -7   0   4 17190.7 1101.16  62 
   7   0  -4 19846.0 1059.89  59 
  -7   0   4 18840.7 1053.92  56 
  -7   0   4 18208.3 922.405  52 
   7   0  -3 69200.3 3388.51  24 
  -7   0   3 76594.6 2979.38  62 
   7   0  -3 90422.5 2985.28  59 
   7   0  -3 74203.6 3573.79  15 
  -7   0   3 89522.6 3272.88  27 
  -7   0   3 84407.3 2994.59  56 
   7   0  -3 78188.5 2849.69   5 
   7   0  -2 1173.60 371.871  24 
  -7   0   2 1541.58 341.610  39 
   7   0  -2 1556.23 273.756  34 
  -7   0   2 1798.41 266.563  67 
   7   0  -2 1453.84 282.414  59 
   7   0  -2 1509.41 485.651  15 
  -7   0   2 1403.13 289.124  56 
   7   0  -2 1255.86 245.362   5 
   7   0  -1 109730. 3769.48  45 
   7   0  -1 89993.6 3860.48  24 
  -7   0   1 103225. 3587.00  39 
   7   0  -1 78157.5 3088.23  34 
  -7   0   1 95361.2 3151.04  67 
   7   0  -1 97856.8 4175.26  15 
  -7   0   1 90491.3 3340.20  56 
   7   0  -1 93176.8 3162.17   5 
   7   0   0 169310. 5580.23  45 
   7   0   0 151883. 5731.23  24 
   7   0   0 131856. 4839.59  34 
   7   0   0 166430. 6169.55  15 
   7   0   0 174426. 5088.75  60 
   7   0   0 146587. 4884.14   5 
  -7   0   0 173877. 5259.79  26 
   7   0   1 86550.4 3491.15  45 
   7   0   1 86461.7 3690.50  24 
   7   0   1 92691.1 4088.66  15 
   7   0   1 86805.4 3033.68  60 
   7   0   1 94387.7 3340.93  57 
   7   0   1 80040.2 2864.34   5 
  -7   0  -1 89474.5 3231.48  26 
   7   0   2 11341.9 1053.45  45 
   7   0   2 10289.2 1199.31  23 
  -7   0  -2 12198.8 898.399  37 
   7   0   2 12350.4 1349.54  15 
   7   0   2 13169.6 853.997  60 
   7   0   2 14322.2 1036.51  57 
  -7   0  -2 11266.1 936.138  54 
  -7   0  -2 12047.3 935.253  26 
   7   0   3 1461.68 414.913  45 
  -7   0  -3 2546.13 421.466  37 
   7   0   3 989.628 494.388  23 
  -7   0  -3 1828.36 303.706  69 
   7   0   3 2368.81 367.025  60 
   7   0   3 1856.85 400.081  57 
  -7   0  -3 2669.26 451.626  54 
  -7   0  -3 2239.75 421.171  26 
   7   0   4 1200.96 464.388  45 
   7   0   4 1085.63 436.273  24 
   7   0   4 1205.38 529.221  23 
  -7   0  -4 919.464 313.483  37 
   7   0   4 1098.83 283.447  74 
  -7   0  -4 1525.87 278.681  69 
  -7   0  -4 1203.89 270.937  64 
   7   0   4 1627.82 584.546  15 
   7   0   4 1566.14 372.643  57 
  -7   0  -4 756.740 283.348  54 
  -7   0  -4 1291.74 378.805  26 
   7   0   5 10458.5 1097.68  45 
   7   0   5 11034.1 1177.03  24 
   7   0   5 10598.9 1308.75  23 
  -7   0  -5 11881.7 994.597  37 
   7   0   5 11300.3 884.074  74 
  -7   0  -5 12023.6 1038.09  26 
   7   0   6 29168.2 1862.14  45 
   7   0   6 25340.0 1837.04  24 
  -7   0  -6 28614.2 1633.22  37 
   7   0   6 24355.8 2020.09  23 
  -7   0  -6 27785.1 1658.01  26 
   7   0   7 1190.16 418.052  45 
   7   0   7 1734.27 497.559  24 
   7   0   7 1233.94 508.385  23 
  -7   0  -7 1313.26 346.525  37 
  -7   0  -7 1359.58 274.244  18 
   7   0   7 1132.34 523.119  15 
  -7   0  -7 1759.87 414.554  26 
   7   0   8 5710.77 744.180  45 
   7   0   8 4717.56 672.701  24 
   7   0   8 4193.73 796.319  23 
  -7   0  -8 4934.20 603.435  37 
   7   0   8 5097.46 860.808  15 
  -7   0  -8 4999.32 615.948  26 
   7   0   9 13833.8 1012.84  45 
   7   0   9 12085.3 986.793  24 
  -7   0  -9 14792.9 984.687  39 
  -7   0  -9 12762.6 894.531  37 
   7   0   9 12628.4 1193.26  15 
  -7   0 -10 38364.1 1628.49  39 
   7   0  10 35906.8 1891.60  15 
  -7   1  16 13080.2 801.564  43 
   7   1 -16 13258.6 855.250  40 
   7   1 -16 12623.8 673.418   1 
   7   1 -16 11951.8 644.144  29 
  -7   1  15 4336.43 486.803  42 
  -7   1  15 3720.08 416.170  22 
   7   1 -15 4430.54 408.339   1 
   7   1 -15 3710.98 513.126  40 
  -7   1  15 3569.06 456.318  30 
   7   1 -15 3739.80 386.320   3 
  -7   1  14 103.980 210.315  42 
  -7   1  14 201.664 170.991  22 
   7   1 -14 197.402 228.902  40 
   7   1 -14 192.299 152.962   1 
  -7   1  14 69.4244 186.348  30 
   7   1 -14 215.193 157.228   8 
  -7   1  13 24169.5 1451.61  42 
  -7   1  13 26485.9 1404.14  22 
   7   1 -13 24825.1 1500.53  40 
   7   1 -13 24089.4 1266.86   8 
   7   1 -13 24988.4 1200.95   1 
  -7   1  12 30267.9 1688.78  42 
  -7   1  12 30908.8 1703.77  41 
   7   1 -12 27835.9 1630.11  40 
  -7   1  12 29932.6 1721.95  36 
  -7   1  12 30210.5 1826.74  17 
   7   1 -12 31129.4 1478.14   8 
   7   1 -12 29410.6 1343.78   1 
  -7   1  11 47637.4 2249.31  42 
  -7   1  11 47767.9 2286.93  41 
  -7   1  11 46895.7 2320.97  36 
  -7   1  11 45608.7 2400.25  17 
   7   1 -11 46822.9 1838.23   1 
   7   1 -11 47256.5 1980.72   8 
   7   1 -11 49033.7 1868.42  28 
  -7   1  10 14910.8 1097.03  41 
  -7   1  10 13199.2 1084.99  36 
  -7   1  10 15027.1 1212.20  17 
  -7   1  10 13907.6 865.762  63 
   7   1 -10 14411.3 882.060   8 
   7   1 -10 13320.2 975.017  61 
   7   1 -10 12937.7 1019.09  59 
   7   1 -10 14335.5 775.032  28 
  -7   1  10 13571.4 946.699  55 
   7   1  -9 31403.1 1506.99  40 
  -7   1   9 31778.4 1746.97  36 
   7   1  -9 29078.5 1742.81  33 
  -7   1   9 31420.0 1804.20  17 
  -7   1   9 28930.4 1366.72  63 
   7   1  -9 30354.7 1379.07   8 
   7   1  -9 33188.6 1614.80  61 
   7   1  -9 31824.0 1660.25  59 
  -7   1   9 31646.2 1536.31  55 
   7   1  -8 29982.8 1371.54  40 
   7   1  -8 27727.5 1643.45  33 
   7   1  -8 30425.0 1303.50   8 
  -7   1   8 26411.6 1263.82  63 
   7   1  -8 31793.8 1246.64  16 
   7   1  -8 31453.3 1515.15  61 
   7   1  -8 28223.9 1533.28  59 
  -7   1   8 30032.6 1657.46  36 
  -7   1   8 29416.3 1443.30  55 
  -7   1   8 28280.6 1398.51  52 
   7   1  -8 26045.5 1374.87   5 
   7   1  -7 19712.1 1004.33  40 
   7   1  -7 17595.8 978.200  32 
   7   1  -7 21669.0 907.998  16 
   7   1  -7 23199.1 1200.21  61 
   7   1  -7 18505.2 1155.71  59 
  -7   1   7 22736.0 1184.10  56 
   7   1  -7 17626.2 1032.22   5 
  -7   1   7 19558.6 1075.75  52 
  -7   1   7 21442.9 1324.23  13 
   7   1  -6 292.148 128.717  40 
   7   1  -6 294.100 137.667  32 
   7   1  -6 182.407 158.652  59 
  -7   1   6-26.9811 123.180  56 
  -7   1   6 341.960 169.320  52 
   7   1  -6 190.817 115.681   8 
   7   1  -6 201.578 167.703   5 
   7   1  -5 4373.12 369.935  40 
   7   1  -5 3139.09 390.203  34 
   7   1  -5 3669.38 329.885   8 
   7   1  -5 3238.41 327.389  32 
   7   1  -5 3942.53 465.456  59 
   7   1  -5 3700.75 393.332   5 
  -7   1   5 4482.57 466.913  56 
  -7   1   5 4093.22 433.346  52 
   7   1  -4 10440.5 565.337  40 
   7   1  -4 7753.70 612.285  34 
   7   1  -4 8646.65 509.784   8 
   7   1  -4 8652.40 537.626  32 
   7   1  -4 7363.93 560.650   5 
   7   1  -4 9618.02 714.652  59 
  -7   1   4 8337.03 663.215  56 
   7   1  -3 8281.07 876.832  24 
   7   1  -3 8660.31 637.521  34 
   7   1  -3 9927.34 535.678   8 
   7   1  -3 10345.7 569.383  32 
   7   1  -3 11189.6 759.473  59 
  -7   1   3 10340.7 745.146  56 
   7   1  -2 9569.30 928.776  24 
   7   1  -2 8916.89 625.448  34 
   7   1  -2 8597.78 484.024   8 
   7   1  -2 9135.88 519.054  32 
   7   1  -2 8574.18 582.169   5 
   7   1  -2 10931.4 734.931  59 
  -7   1   2 8438.98 687.587  56 
   7   1  -1 59554.6 2780.40  24 
   7   1  -1 57779.1 2203.50  34 
  -7   1   1 66563.8 2272.39  67 
   7   1  -1 59231.7 2013.91  32 
   7   1  -1 58959.3 2144.57   5 
   7   1  -1 60155.6 2949.75  15 
  -7   1   1 59092.4 2390.11  56 
   7   1   0 10756.8 935.802  45 
   7   1   0 10891.9 1021.39  24 
   7   1   0 9413.26 642.439  34 
  -7   1   0 9171.04 652.570  67 
   7   1   0 8256.69 569.128   5 
   7   1   0 9706.73 1074.29  15 
   7   1   0 10395.0 703.384  60 
   7   1   1 46046.7 2254.47  45 
   7   1   1 47246.3 2395.08  24 
   7   1   1 41997.8 1732.20  34 
  -7   1  -1 44389.2 1787.04  67 
   7   1   1 40288.6 1649.99   5 
   7   1   1 46635.0 2628.43  15 
   7   1   1 46175.7 1838.73  60 
  -7   1  -1 43116.1 1965.35  54 
   7   1   2 247.088 272.553  45 
   7   1   2 332.159 305.309  24 
   7   1   2 641.279 380.531  23 
   7   1   2 275.655 142.081  34 
  -7   1  -2 316.485 144.590  67 
   7   1   2 329.774 160.574  60 
   7   1   2-363.750 379.481  15 
   7   1   2 228.213 186.454  57 
  -7   1  -2 142.615 174.793  54 
   7   1   2 229.948 116.448   5 
   7   1   3 18621.1 1392.82  45 
   7   1   3 18189.9 1449.29  24 
   7   1   3 18917.9 988.637  44 
   7   1   3 15930.7 1472.58  23 
   7   1   3 16652.3 911.065  34 
  -7   1  -3 17816.9 1049.11  69 
  -7   1  -3 17213.9 998.156  67 
   7   1   3 19035.5 1247.95  57 
  -7   1  -3 16886.8 1168.84  54 
   7   1   4 37981.5 2181.67  45 
   7   1   4 42869.0 2385.55  24 
   7   1   4 41821.8 1684.91  44 
   7   1   4 36706.5 2428.08  23 
  -7   1  -4 41288.1 1871.35  37 
   7   1   4 34559.0 1546.71  34 
  -7   1  -4 39376.5 1769.98  69 
  -7   1  -4 38967.9 1729.90  64 
   7   1   4 48174.2 2852.04  15 
   7   1   4 45142.4 2124.87  57 
  -7   1  -4 38437.3 1973.53  54 
   7   1   5 109044. 4622.60  45 
   7   1   5 128231. 4949.63  24 
   7   1   5 120727. 3957.08  44 
   7   1   5 110023. 5006.70  23 
  -7   1  -5 118165. 4252.43  37 
   7   1   5 136364. 5548.84  15 
   7   1   6 34672.6 2041.20  45 
   7   1   6 31523.3 2224.43  23 
  -7   1  -6 35603.6 1757.85  37 
   7   1   6 38944.1 2550.00  15 
   7   1   7 3983.66 651.507  45 
   7   1   7 3471.79 628.911  24 
   7   1   7 4042.99 734.958  23 
  -7   1  -7 4563.25 537.076  37 
   7   1   7 4495.52 843.168  15 
  -7   1  -7 4813.46 585.892  26 
   7   1   8 9589.01 874.251  45 
   7   1   8 9698.26 951.620  24 
   7   1   8 7735.14 952.005  23 
  -7   1  -8 8971.91 737.221  37 
   7   1   8 11284.2 1192.93  15 
  -7   1  -8 9987.57 805.669  26 
   7   1   9 1546.83 323.715  45 
   7   1   9 1055.46 322.242  24 
  -7   1  -9 1182.19 253.930  37 
   7   1   9 898.022 379.506  15 
  -7   1  -9 1280.89 288.353  26 
  -7   1 -10 1917.14 196.905  82 
  -7   1 -10 1476.37 247.023  39 
  -7   1 -10 1791.20 265.249  26 
  -7   2  15 16786.0 786.254  12 
  -7   2  15 18571.7 931.500  22 
   7   2 -15 16134.0 942.093  40 
   7   2 -15 17666.0 785.026   1 
  -7   2  14 4974.87 431.738  12 
  -7   2  14 4412.25 479.200  22 
   7   2 -14 3663.19 473.838  40 
  -7   2  14 4318.71 494.541  30 
   7   2 -14 4470.72 374.503   1 
  -7   2  14 4606.44 387.398  25 
   7   2 -13 701.187 255.909  40 
  -7   2  13 743.903 271.389  30 
   7   2 -13 776.777 179.791  28 
   7   2 -13 952.926 211.052   8 
   7   2 -13 705.034 175.164   1 
   7   2 -12 7744.27 717.932  40 
  -7   2  12 9094.59 808.539  30 
   7   2 -12 9033.20 639.606   8 
   7   2 -12 8455.02 568.671  28 
  -7   2  11 15685.1 1055.08  41 
   7   2 -11 16328.3 1040.04  40 
  -7   2  11 15374.6 1148.28  17 
   7   2 -11 15668.0 895.630   8 
   7   2 -11 16832.8 886.253  16 
   7   2 -11 15253.8 804.176  28 
  -7   2  10 12718.6 938.818  41 
   7   2 -10 13082.2 893.965  40 
  -7   2  10 13208.2 1051.85  17 
   7   2 -10 12422.2 767.359   8 
   7   2 -10 13030.7 742.204  16 
   7   2 -10 11607.7 659.434  28 
  -7   2   9 61963.0 2524.47  41 
  -7   2   9 65573.2 2756.07  17 
   7   2  -9 59743.5 2213.93   8 
   7   2  -9 55807.6 2260.18  32 
   7   2  -9 63060.0 2156.96  16 
   7   2  -9 58978.9 2055.41  28 
   7   2  -9 60301.6 2575.01  59 
   7   2  -8 13519.8 1026.71  33 
   7   2  -8 12947.4 746.087   8 
   7   2  -8 11286.9 754.090  32 
   7   2  -8 13228.4 689.848  16 
   7   2  -8 12339.1 932.229  59 
   7   2  -8 11944.0 788.563   5 
  -7   2   8 14665.5 923.791  52 
   7   2  -7 9957.55 687.646  40 
   7   2  -7 9672.72 600.767   4 
   7   2  -7 9049.29 635.133  32 
   7   2  -7 11023.2 576.514  16 
   7   2  -7 10398.3 816.721  59 
   7   2  -7 9250.53 668.556   5 
  -7   2   7 10270.0 765.760  52 
   7   2  -6 12555.7 679.110   4 
   7   2  -6 15066.4 814.010  40 
   7   2  -6 11487.4 798.487  34 
   7   2  -6 12142.9 692.315   8 
   7   2  -6 11630.0 709.132  32 
   7   2  -6 12366.0 615.301  16 
   7   2  -6 12018.9 757.254   5 
   7   2  -6 12172.9 873.267  59 
  -7   2   6 13194.0 865.115  52 
   7   2  -5 1009.46 213.965  40 
   7   2  -5 490.927 149.332   4 
   7   2  -5 665.334 212.077  34 
   7   2  -5 481.346 190.265  59 
  -7   2   5 555.487 208.528  52 
   7   2  -5 645.077 174.315   8 
   7   2  -5 525.445 176.061   5 
   7   2  -4 25405.4 1042.90   4 
   7   2  -4 21899.1 1183.26  34 
   7   2  -4 24724.4 1064.45   8 
   7   2  -4 24895.7 1105.22  32 
   7   2  -4 22643.2 1118.93   5 
   7   2  -4 25109.5 1261.97  59 
  -7   2   4 25464.9 1287.69  52 
   7   2  -3 20406.7 864.822   4 
   7   2  -3 19447.2 1051.30  34 
   7   2  -3 20037.2 900.046   8 
   7   2  -3 20337.3 954.804  32 
   7   2  -3 19198.4 986.488   5 
  -7   2   3 21499.7 1148.17  52 
   7   2  -2 588.189 193.424  34 
  -7   2   2 607.178 176.244  67 
   7   2  -2 611.794 165.336  32 
   7   2  -2 389.098 131.178   8 
   7   2  -1 12557.2 634.804   8 
   7   2  -1 14615.0 730.444  32 
  -7   2   1 11524.9 746.856  67 
   7   2  -1 13692.6 775.731   5 
   7   2   0 25842.5 1626.38  24 
   7   2   0 25005.9 1238.08  34 
   7   2   0 27793.9 1113.75  32 
  -7   2   0 24719.9 1190.93  67 
   7   2   0 24663.4 1157.98   5 
   7   2   1 6610.43 797.981  24 
   7   2   1 5937.55 533.813  34 
  -7   2  -1 5087.82 470.034  67 
   7   2   1 6376.26 430.339  32 
   7   2   1 5514.46 466.642   5 
   7   2   2 26605.0 1751.37  24 
   7   2   2 27882.1 1292.59  34 
  -7   2  -2 26499.1 1364.01  69 
   7   2   2 24563.8 1155.09   5 
   7   2   2 28286.4 1945.45  15 
   7   2   3 8546.44 961.547  24 
   7   2   3 9033.24 874.312  45 
   7   2   3 10145.7 687.526  34 
   7   2   3 9234.45 602.088   5 
   7   2   3 10037.7 1164.87  15 
   7   2   4 42432.3 2271.90  24 
   7   2   4 35073.4 1906.99  45 
   7   2   4 38518.8 1651.82  44 
   7   2   4 36071.6 1536.70  34 
   7   2   4 31352.5 1373.65   5 
   7   2   4 44505.8 2547.52  15 
   7   2   5 45415.3 2426.92  24 
   7   2   5 43574.8 2147.88  45 
   7   2   5 43487.4 1811.47  44 
   7   2   5 40704.4 1693.60  34 
   7   2   5 49201.4 2736.94  15 
   7   2   6 11870.4 1130.90  24 
   7   2   6 13416.2 1324.93  15 
   7   2   7 525.871 284.210  24 
  -7   2  -7 816.964 201.064  37 
   7   2   7 300.623 340.599  15 
   7   2   8 635.968 284.917  24 
  -7   2  -8 623.225 166.362  37 
   7   2   8 492.211 271.913  15 
  -7   2  -8 610.189 195.394  26 
   7   2   9 9943.03 836.275  15 
  -7   2  -9 9397.47 603.827  26 
  -7   3  14 1395.37 212.105  22 
  -7   3  13 12678.2 704.490  12 
  -7   3  13 12362.6 743.810  22 
   7   3 -13 11011.4 706.383  40 
  -7   3  13 10169.2 664.481  30 
   7   3 -13 10689.3 540.048   1 
   7   3 -13 12328.4 585.343  28 
  -7   3  12 17502.4 990.262  22 
   7   3 -12 14502.0 888.618  40 
  -7   3  12 15634.9 915.651  30 
   7   3 -12 15293.9 762.880   8 
   7   3 -12 16054.0 735.294  28 
   7   3 -11 365.747 177.577  40 
   7   3 -11 663.115 170.471  16 
  -7   3  11 505.966 207.667  30 
   7   3 -11 326.112 125.140  28 
   7   3 -11 383.368 146.557   8 
   7   3 -10 7941.47 630.865  40 
   7   3 -10 7909.07 545.585   8 
  -7   3  10 7470.01 675.531  30 
   7   3 -10 8316.04 526.031  16 
   7   3 -10 7830.54 476.441  28 
   7   3  -9 16876.3 971.864  40 
   7   3  -9 18471.8 891.438   4 
   7   3  -9 17573.4 878.728   8 
   7   3  -9 15360.7 886.937  32 
   7   3  -9 18074.7 834.540  16 
   7   3  -8 1397.02 276.961  40 
   7   3  -8 1236.32 252.691  32 
   7   3  -8 1372.24 213.902  16 
   7   3  -8 1249.58 229.892   8 
   7   3  -7 3949.45 380.244   4 
   7   3  -7 4356.78 404.325   8 
   7   3  -7 3698.29 396.980  32 
   7   3  -7 3819.37 333.230  16 
   7   3  -7 3771.34 391.790   5 
   7   3  -6 34876.8 1358.04   4 
   7   3  -6 33411.4 1402.23  32 
   7   3  -6 35350.2 1277.04  16 
   7   3  -6 31262.8 1397.98   5 
   7   3  -5 24669.8 1044.32   4 
   7   3  -5 19024.7 1100.90  34 
   7   3  -5 22386.9 1053.29   8 
   7   3  -5 23862.3 1097.82  32 
   7   3  -5 21693.3 931.715  16 
   7   3  -5 20642.6 1081.03   5 
   7   3  -4 1631.66 238.783   4 
   7   3  -4 2048.46 318.647  34 
   7   3  -4 1757.59 257.699   8 
   7   3  -4 1492.33 265.767   5 
   7   3  -3 9511.56 562.664   4 
   7   3  -3 7817.20 643.567  34 
   7   3  -3 9408.13 588.054   8 
   7   3  -3 10056.8 636.201  32 
   7   3  -3 9032.16 642.063   5 
   7   3  -2 78205.0 2617.97   4 
   7   3  -2 78656.3 2907.13  34 
   7   3  -2 79895.6 2688.54   8 
   7   3  -2 76125.4 2788.78   5 
   7   3  -1 8061.18 658.384  34 
   7   3  -1 8500.10 531.398   8 
   7   3  -1 10000.9 633.880  32 
   7   3   0 18060.8 1021.38  34 
   7   3   0 15844.5 761.321   8 
   7   3   0 15562.5 893.642   5 
   7   3   0 19103.8 903.091  32 
   7   3   1 4448.84 385.323  32 
   7   3   1 3931.02 404.550   5 
   7   3   2 34901.7 1556.69  34 
   7   3   2 36595.7 1376.09  32 
   7   3   2 32720.8 1433.31   5 
   7   3   3 25284.7 1577.52  24 
   7   3   3 26091.1 1225.62  34 
   7   3   3 24017.7 1099.20   5 
   7   3   4 4400.21 618.019  24 
   7   3   4 3728.28 389.041  34 
   7   3   4 3576.31 333.554   5 
   7   3   5 7316.63 765.621  24 
   7   3   5 6993.45 501.743  34 
   7   3   6 15966.3 1080.71  24 
   7   3   6 13635.2 685.387  34 
   7   3   7 88.2883 170.610  24 
  -7   4  11 3696.59 310.681  12 
  -7   4  10 2543.90 280.393  22 
   7   4 -10 2620.15 285.004  40 
   7   4 -10 2469.29 231.930   8 
   7   4 -10 3055.94 245.732  16 
  -7   4   9 5182.47 427.803  22 
   7   4  -9 4625.11 397.748  40 
   7   4  -9 4396.78 340.129   8 
   7   4  -9 4752.36 322.555  16 
   7   4  -8 7524.07 525.458  40 
   7   4  -8 7945.73 476.650   8 
   7   4  -8 6938.35 473.191  32 
   7   4  -8 8016.76 437.710  16 
   7   4  -7 11392.6 661.881  40 
   7   4  -7 10031.5 559.667   4 
   7   4  -7 10197.8 575.254   8 
   7   4  -7 9291.94 576.545  32 
   7   4  -7 10075.8 511.929  16 
   7   4  -6 683.216 183.505  40 
   7   4  -6 772.142 176.931   4 
   7   4  -6 864.207 177.772  32 
   7   4  -6 683.341 134.790  16 
   7   4  -6 600.687 154.688   5 
   7   4  -5 2397.23 261.333   4 
   7   4  -5 2358.62 269.976   8 
   7   4  -5 2062.62 268.349  32 
   7   4  -5 2062.16 209.013  16 
   7   4  -5 2358.72 285.238   5 
   7   4  -4 9114.75 516.484   4 
   7   4  -4 8372.97 525.819   8 
   7   4  -4 8744.48 557.297  32 
   7   4  -4 9039.33 574.247   5 
   7   4  -3 9097.94 514.021   4 
   7   4  -3 8351.29 606.750  34 
   7   4  -3 9153.10 538.678   8 
   7   4  -3 8090.92 569.384   5 
   7   4  -2 685.714 143.988   4 
   7   4  -2 648.216 191.721  34 
   7   4  -2 724.538 180.918  32 
   7   4  -2 833.848 163.481   8 
   7   4  -2 561.912 169.606   5 
   7   4  -1 2585.61 338.846  34 
   7   4  -1 3080.21 277.134   8 
   7   4  -1 3206.62 321.225  32 
   7   4  -1 2680.05 315.338   5 
   7   4   0 8816.76 616.858  34 
   7   4   0 8239.22 453.078   8 
   7   4   0 9671.82 556.892  32 
   7   4   1 9895.59 634.654  34 
   7   4   1 10714.2 559.416  32 
   7   4   1 9014.14 570.461   5 
   7   4   2 1251.60 226.006  34 
   7   4   2 1394.33 175.243  32 
   7   4   2 1145.21 194.266   5 
   7   4   3 11932.6 600.545   5 
   7   4   4 89899.5 2882.44  34 
   8  -4 -10 1688.56 197.857  77 
  -8  -4  10 2022.12 363.526  27 
   8  -4  -9 484.740 137.588  77 
  -8  -4   9 968.371 294.416  27 
   8  -4  -8 5178.84 399.079  77 
  -8  -4   8 4009.51 608.944  27 
  -8  -4   8 5589.14 517.060  47 
   8  -4  -7 8975.38 562.334  77 
  -8  -4   7 8555.94 715.636  47 
   8  -4  -6 13991.6 745.506  77 
  -8  -4   6 13361.8 1176.46  27 
  -8  -4   6 12749.8 950.273  47 
   8  -4  -5 2481.41 298.634  77 
   8  -4  -5 2648.99 305.531  76 
  -8  -4   5 2751.28 567.447  27 
  -8  -4   5 2762.88 347.708  51 
  -8  -4   5 2485.17 444.009  47 
   8  -4  -4 1906.40 259.939  77 
   8  -4  -4 1641.84 255.849  76 
  -8  -4   4 1066.53 401.518  27 
  -8  -4   4 1234.08 366.925  47 
   8  -4  -3 5824.88 452.130  77 
   8  -4  -3 6597.16 497.323  76 
  -8  -4   3 6376.92 791.665  27 
  -8  -4   3 5415.25 678.549  47 
   8  -4  -2 3498.14 331.960  77 
   8  -4  -2 4273.36 393.784  76 
  -8  -4   2 3046.49 544.257  27 
  -8  -4   2 2800.29 501.292  26 
   8  -4  -1 5196.82 395.094  77 
   8  -4  -1 5055.93 452.073  75 
  -8  -4   1 5155.80 662.071  27 
  -8  -4   1 5072.71 634.609  26 
  -8  -4   0 1447.24 260.661  46 
   8  -4   0 1487.10 201.164  77 
  -8  -4   0 1389.36 367.599  26 
  -8  -4  -1 7290.27 549.303  46 
   8  -4   1 8105.24 562.329  73 
  -8  -4  -1 8040.23 735.855  26 
   8  -4   2 15847.9 804.244  73 
   8  -4   3 13673.4 678.720  73 
  -8  -3  13 748.419 255.954  14 
   8  -3 -13 803.233 208.549  48 
  -8  -3  12 1131.17 312.446  27 
   8  -3 -12 1801.93 324.132  48 
   8  -3 -11 185.640 125.285  76 
  -8  -3  11 388.585 281.630  27 
  -8  -3  11 53.9887 305.475  14 
   8  -3 -11 332.819 197.562  48 
   8  -3 -10 14289.0 892.689  76 
  -8  -3  10 15401.3 1333.15  14 
  -8  -3  10 14726.6 1302.80  27 
   8  -3 -10 15047.1 1051.76  48 
  -8  -3   9 13333.6 1288.57  14 
  -8  -3   9 12723.3 1276.69  27 
   8  -3  -9 12985.9 874.693  76 
   8  -3  -9 13549.1 998.637  48 
  -8  -3   9 12646.5 957.929  47 
   8  -3  -8 4163.78 497.491  76 
  -8  -3   8 2693.34 660.353  27 
  -8  -3   8 4021.72 726.946  14 
   8  -3  -8 3550.23 486.204  48 
  -8  -3   8 3286.36 524.083  47 
   8  -3  -7 19217.5 1170.11  76 
  -8  -3   7 20296.2 1707.09  27 
  -8  -3   7 16172.6 1275.32  47 
   8  -3  -6 2470.38 417.268  76 
   8  -3  -6 2614.71 404.581  75 
   8  -3  -6 2405.25 261.459  72 
  -8  -3   6 2544.37 645.675  27 
  -8  -3   6 2160.00 537.449  14 
  -8  -3   6 2541.91 525.338  47 
   8  -3  -5 4087.83 515.310  76 
   8  -3  -5 3734.95 492.226  75 
   8  -3  -5 3884.37 344.059  72 
  -8  -3   5 4585.45 841.365  27 
  -8  -3   5 4099.20 692.008  14 
  -8  -3   5 3555.46 596.510  26 
  -8  -3   5 3429.88 617.237  47 
   8  -3  -4 4597.04 568.017  76 
   8  -3  -4 6817.18 676.184  75 
   8  -3  -4 5716.01 429.121  72 
  -8  -3   4 5581.95 799.559  14 
  -8  -3   4 5554.25 763.174  26 
  -8  -3   3 23509.8 1399.57  46 
   8  -3  -3 25749.3 1404.87  76 
   8  -3  -3 23498.4 1407.53  75 
   8  -3  -3 26165.1 1106.09  72 
  -8  -3   3 25085.3 1929.80  27 
  -8  -3   3 24987.0 1726.27  26 
  -8  -3   2 22508.0 1397.67  46 
   8  -3  -2 24102.8 1343.19  76 
   8  -3  -2 22455.2 1381.92  75 
  -8  -3   2 26839.0 1948.66  27 
  -8  -3   2 25705.8 1751.38  26 
  -8  -3   1 19378.8 1298.59  46 
   8  -3  -1 22328.8 1261.45  76 
   8  -3  -1 21769.0 1346.91  75 
  -8  -3   1 22457.8 1568.35  35 
  -8  -3   1 26396.0 1867.03  27 
  -8  -3   1 22955.2 1654.20  26 
  -8  -3   0 7228.59 751.248  46 
  -8  -3   0 7999.00 950.270  39 
   8  -3   0 8266.07 776.699  75 
  -8  -3   0 7192.75 868.844  35 
  -8  -3   0 8238.23 1038.44  27 
  -8  -3   0 8585.12 978.883  26 
  -8  -3  -1 3527.92 515.452  46 
  -8  -3  -1 3388.05 614.832  39 
   8  -3   1 3903.45 413.756  77 
  -8  -3  -1 3653.90 625.698  35 
  -8  -3  -1 4172.52 702.381  27 
  -8  -3  -1 2759.19 581.297  26 
  -8  -3  -2 280.979 193.783  46 
  -8  -3  -2 199.059 251.895  39 
   8  -3   2 262.727 169.718  77 
   8  -3   2 420.712 242.285  75 
  -8  -3  -2 50.4295 270.729  35 
   8  -3   2 109.539 221.615  73 
  -8  -3  -2 361.799 292.467  27 
  -8  -3  -2 380.502 350.672  26 
  -8  -3  -3 27399.4 1611.31  39 
   8  -3   3 27764.2 1395.54  75 
  -8  -3  -3 26356.6 1639.25  35 
  -8  -3  -3 27288.6 1584.14  27 
  -8  -3  -3 28282.2 1738.71  26 
  -8  -3  -4 19698.3 1216.06  39 
   8  -3   4 20581.5 1080.69  75 
  -8  -3  -4 21487.8 1345.10  35 
   8  -3   4 20746.5 1158.75  73 
  -8  -3  -5 1639.76 343.759  35 
   8  -3   5 2141.69 314.344  73 
  -8  -3  -6 785.533 210.515  35 
   8  -3   6 1193.34 191.229  73 
   8  -2 -15 142.376 79.5024  76 
   8  -2 -15 22.7493 131.922  48 
   8  -2 -14 3006.44 338.083  76 
  -8  -2  14 3331.27 540.394  14 
  -8  -2  13 3728.31 423.183  42 
  -8  -2  13 4614.70 711.710  14 
   8  -2 -13 5054.35 581.422   8 
   8  -2 -13 5839.17 651.075  48 
  -8  -2  12 13578.3 907.919  42 
  -8  -2  12 15240.6 1377.66  14 
   8  -2 -12 15794.3 1122.27   8 
   8  -2 -12 15378.0 1160.15  48 
  -8  -2  11 4233.53 511.773  42 
  -8  -2  11 5455.65 568.924  41 
  -8  -2  11 5693.94 782.159  27 
   8  -2 -11 5197.35 678.373   8 
  -8  -2  11 4351.16 807.754  14 
  -8  -2  10 35932.4 1757.83  42 
  -8  -2  10 36551.7 1759.70  41 
  -8  -2  10 38411.7 2063.47  36 
   8  -2 -10 38943.7 1974.69   3 
  -8  -2  10 41104.8 2517.65  14 
  -8  -2  10 36725.9 2262.32  27 
  -8  -2   9 2176.03 382.855  41 
  -8  -2   9 3059.24 542.692  36 
   8  -2  -9 2539.90 390.956  75 
   8  -2  -9 2899.49 500.060   3 
  -8  -2   9 2709.52 625.978  27 
   8  -2  -9 3606.89 583.949   8 
  -8  -2   8 4245.66 520.765  41 
   8  -2  -8 3849.74 531.624  76 
  -8  -2   8 4925.97 659.180  36 
   8  -2  -8 3834.85 495.508  75 
   8  -2  -8 3778.65 550.117   3 
  -8  -2   8 4489.93 814.319  27 
   8  -2  -8 3837.74 594.657   8 
  -8  -2   7 20719.2 1376.40  36 
   8  -2  -7 19645.9 1227.03  75 
   8  -2  -7 20748.1 1313.80   3 
  -8  -2   7 20914.7 1731.11  27 
   8  -2  -7 21675.9 1406.22   8 
  -8  -2   7 20082.5 1586.54  13 
  -8  -2   6 3505.97 651.872  13 
  -8  -2   6 2664.12 467.959  36 
   8  -2  -6 2588.68 440.942  75 
  -8  -2   6 3065.14 590.123  62 
   8  -2  -6 3496.43 458.762  58 
   8  -2  -6 3269.35 522.555   8 
  -8  -2   6 3064.70 667.947  27 
  -8  -2   6 2990.98 535.286  47 
  -8  -2   5 28201.7 1592.87  36 
  -8  -2   5 27779.1 1902.11  19 
  -8  -2   5 25260.3 1765.84  62 
   8  -2  -5 29007.4 1450.19  58 
   8  -2  -5 27771.4 1558.14  75 
  -8  -2   5 32720.6 2157.43  27 
   8  -2  -5 30138.3 1599.51   8 
  -8  -2   5 27506.8 1849.81  13 
  -8  -2   4 3672.30 638.134  13 
  -8  -2   4 3779.46 666.402  39 
   8  -2  -4 2643.62 391.312  77 
  -8  -2   4 3618.81 507.230  36 
   8  -2  -4 3315.56 478.681  76 
   8  -2  -4 2920.83 470.692  75 
   8  -2  -4 3646.13 492.836  74 
  -8  -2   4 4217.58 656.727  62 
   8  -2  -4 3483.95 406.580  60 
   8  -2  -4 3450.82 442.442  58 
  -8  -2   4 3107.27 411.043  56 
  -8  -2   4 3120.85 680.372  27 
   8  -2  -4 3902.77 509.395   8 
  -8  -2   4 3266.05 577.820  26 
   8  -2  -3 13136.1 896.932  77 
  -8  -2   3 13932.4 1274.59  39 
   8  -2  -3 14088.9 1016.31  76 
   8  -2  -3 14699.1 1084.71  75 
  -8  -2   3 15692.3 1346.50  19 
   8  -2  -3 15775.6 1093.42  74 
  -8  -2   3 14500.3 1157.40  35 
  -8  -2   3 13474.3 1163.73  62 
   8  -2  -3 15135.4 910.873  60 
   8  -2  -3 14603.1 915.710  58 
  -8  -2   3 15756.9 1450.86  27 
  -8  -2   3 14298.9 925.910  56 
  -8  -2   3 14115.2 1223.03  26 
  -8  -2   3 15974.3 1285.41  13 
  -8  -2   2 22653.3 1670.67  39 
   8  -2  -2 23375.5 1208.63  77 
   8  -2  -2 22107.0 1305.96  76 
  -8  -2   2 24168.8 1692.42  19 
  -8  -2   2 22554.2 1530.88  35 
   8  -2  -2 22871.4 1406.06  74 
  -8  -2   2 20683.9 1457.95  62 
   8  -2  -2 19833.7 1146.23  60 
  -8  -2   2 23151.4 1596.17  26 
  -8  -2   2 22774.2 1550.03  13 
  -8  -2   1 35445.1 2172.34  39 
   8  -2  -1 34786.4 1592.46  77 
   8  -2  -1 36488.1 1763.21  76 
  -8  -2   1 37124.0 2147.34  19 
  -8  -2   1 37271.9 2076.40  35 
   8  -2  -1 34222.4 1852.14  74 
  -8  -2   1 34925.6 1910.51  62 
   8  -2  -1 33842.0 1611.13  60 
  -8  -2   1 37316.1 2152.65  26 
  -8  -2   1 34770.7 1953.92  13 
  -8  -2   0 26522.3 1819.98  39 
   8  -2   0 24107.7 1261.99  77 
   8  -2   0 26744.6 1437.55  76 
  -8  -2   0 25625.6 1731.51  19 
   8  -2   0 25217.6 1513.96  75 
  -8  -2   0 29125.9 1805.28  35 
   8  -2   0 25097.4 1553.42  74 
  -8  -2   0 27024.1 1916.21  27 
  -8  -2   0 29103.5 1836.79  26 
   8  -2   1 22012.1 1162.67  77 
   8  -2   1 21608.2 1268.45  76 
   8  -2   1 21121.1 1359.42  75 
  -8  -2  -1 21546.4 1534.08  19 
  -8  -2  -1 24120.3 1644.57  35 
  -8  -2  -1 24980.2 1783.04  27 
  -8  -2  -1 22062.4 1639.68  26 
  -8  -2  -2 4355.02 730.288  39 
   8  -2   2 4033.36 449.698  77 
   8  -2   2 4182.54 510.726  76 
   8  -2   2 4595.25 597.703  75 
  -8  -2  -2 4481.05 649.990  19 
  -8  -2  -2 5016.56 738.565  35 
   8  -2   2 4600.50 650.869  74 
  -8  -2  -2 4110.77 726.000  27 
  -8  -2  -2 4828.88 751.291  26 
  -8  -2  -3 4082.83 698.656  39 
   8  -2   3 4391.44 569.721  75 
  -8  -2  -3 4252.42 602.597  19 
   8  -2   3 3922.16 584.851  74 
  -8  -2  -3 4659.14 740.976  27 
  -8  -2  -3 5060.02 751.635  26 
  -8  -2  -4 12441.9 1126.99  39 
   8  -2   4 10614.2 841.720  75 
   8  -2   4 11434.6 933.284  74 
  -8  -2  -4 11314.0 1073.74  27 
  -8  -2  -4 10983.4 1073.89  26 
  -8  -2  -5 1307.40 375.602  39 
   8  -2   5 1162.86 252.635  75 
  -8  -2  -5 1000.64 341.064  27 
  -8  -2  -5 1941.43 448.342  26 
  -8  -2  -6 10782.1 879.449  39 
  -8  -2  -6 11035.7 931.652  35 
   8  -2   6 10594.2 761.254  73 
  -8  -2  -7 566.312 197.610  39 
  -8  -2  -7 946.313 273.999  35 
   8  -2   7 445.550 151.003  73 
  -8  -1  16 14162.7 939.076  38 
   8  -1 -16 14573.7 838.966  48 
  -8  -1  15 3946.29 446.032  42 
   8  -1 -15 4377.81 432.551   8 
  -8  -1  14 17754.4 1086.59  42 
   8  -1 -14 17417.7 1070.74   3 
  -8  -1  14 15996.8 1216.27  14 
   8  -1 -14 17093.7 1064.35   8 
  -8  -1  13 7721.41 729.943  42 
  -8  -1  13 7685.37 735.946  41 
   8  -1 -13 8126.92 750.569   3 
   8  -1 -13 7224.71 640.828   1 
  -8  -1  13 8104.45 927.084  14 
   8  -1 -13 8192.06 766.347   8 
  -8  -1  12 508.316 275.802  42 
  -8  -1  12 275.737 217.720  41 
   8  -1 -12 858.751 383.686  40 
   8  -1 -12 836.698 256.812   1 
   8  -1 -12 419.669 236.908   3 
  -8  -1  12 578.967 345.568  14 
   8  -1 -12 644.636 284.160   8 
  -8  -1  11 4155.63 572.847  41 
   8  -1 -11 3998.03 635.399  40 
   8  -1 -11 3889.64 482.929   1 
  -8  -1  11 3037.44 588.494  17 
  -8  -1  11 4652.15 805.401  14 
   8  -1 -11 4204.32 594.249   8 
  -8  -1  10 18283.7 1254.60  41 
   8  -1 -10 17866.4 1320.30  40 
   8  -1 -10 20284.6 1143.63   1 
   8  -1 -10 20242.6 1279.91   3 
  -8  -1  10 21858.4 1515.19  17 
   8  -1 -10 20472.1 1329.22   8 
   8  -1  -9 62258.1 2736.07  40 
  -8  -1   9 62716.5 2881.94  36 
   8  -1  -9 60050.1 2582.27   3 
  -8  -1   9 62294.5 2854.74  17 
   8  -1  -9 60471.5 2390.81   1 
   8  -1  -9 59288.7 2494.87  59 
   8  -1  -9 57462.8 2397.09  58 
  -8  -1   9 62237.6 2491.23  55 
  -8  -1   9 62207.7 3077.31  13 
   8  -1  -8 46148.6 2208.31  40 
   8  -1  -8 51149.6 2188.62   3 
  -8  -1   8 46335.3 2373.04  36 
  -8  -1   8 50697.7 2407.86  17 
  -8  -1   8 45127.1 2520.48  62 
   8  -1  -8 46385.4 2074.16  59 
   8  -1  -8 45711.4 1987.00  58 
   8  -1  -8 50808.4 2247.25   8 
  -8  -1   8 52510.3 2636.42  27 
  -8  -1   8 49010.6 2606.58  13 
   8  -1  -7 6607.16 644.640   3 
  -8  -1   7 7085.32 868.088  19 
  -8  -1   7 7390.75 790.640  17 
  -8  -1   7 6967.22 860.169  62 
   8  -1  -7 7194.72 658.276  59 
   8  -1  -7 6795.74 586.951  58 
   8  -1  -7 7573.15 724.952   8 
  -8  -1   7 7597.96 815.419  36 
  -8  -1   7 7048.05 884.822  27 
  -8  -1   7 7662.59 680.297  56 
  -8  -1   7 7821.34 916.363  13 
   8  -1  -6 16109.1 983.953   3 
  -8  -1   6 14713.5 1250.96  19 
   8  -1  -6 16120.9 1375.48  33 
  -8  -1   6 13437.5 1175.88  62 
   8  -1  -6 15001.4 976.586  59 
   8  -1  -6 14146.5 877.215  58 
   8  -1  -6 15277.7 1023.78   8 
  -8  -1   6 16182.1 1337.29  27 
  -8  -1   6 14428.5 968.018  56 
  -8  -1   6 16327.5 1309.50  13 
  -8  -1   5 3020.95 540.948  39 
   8  -1  -5 2827.53 671.096   6 
   8  -1  -5 2463.05 398.337  76 
   8  -1  -5 3116.84 394.356   3 
  -8  -1   5 3828.91 621.277  19 
   8  -1  -5 3236.30 611.261  33 
  -8  -1   5 3169.88 362.295  67 
  -8  -1   5 2744.63 512.281  62 
   8  -1  -5 3306.36 434.177  59 
   8  -1  -5 3352.52 379.352  58 
   8  -1  -5 3156.64 440.196   8 
  -8  -1   5 2649.30 403.560  56 
  -8  -1   5 3782.63 664.021  27 
  -8  -1   4 4003.07 607.585  39 
   8  -1  -4 3283.70 696.600   6 
   8  -1  -4 3034.06 374.191  77 
   8  -1  -4 3002.99 437.072  76 
  -8  -1   4 3403.15 579.398  19 
   8  -1  -4 2566.45 564.964  33 
  -8  -1   4 3067.86 350.545  67 
  -8  -1   4 3390.37 541.868  62 
   8  -1  -4 3217.35 428.963   8 
  -8  -1   4 3325.54 437.159  56 
  -8  -1   4 3943.20 659.266  27 
  -8  -1   4 3351.56 592.118  13 
   8  -1  -3 23970.0 2023.33  24 
  -8  -1   3 28719.2 1759.02  39 
   8  -1  -3 28703.0 1473.99  76 
  -8  -1   3 29861.2 1811.54  19 
   8  -1  -3 30719.8 1828.46  33 
  -8  -1   3 29246.4 1320.51  67 
  -8  -1   3 28368.1 1639.54  62 
  -8  -1   3 33029.6 1958.59  27 
  -8  -1   3 30951.5 1527.42  56 
   8  -1  -3 28864.3 1345.49  77 
   8  -1  -2 74569.5 3965.50  24 
   8  -1  -2 87819.0 4011.56   6 
  -8  -1   2 90772.9 3632.45  39 
   8  -1  -2 80208.7 2937.07  77 
   8  -1  -2 86346.0 3150.50  76 
   8  -1  -2 84602.3 3240.63  75 
   8  -1  -2 82183.5 3488.71  33 
  -8  -1   2 81941.3 2938.58  67 
  -8  -1   2 81773.8 3290.48  62 
   8  -1  -2 90155.5 3128.34  60 
   8  -1  -2 72686.6 4069.83  15 
  -8  -1   2 90649.3 3773.67  27 
  -8  -1   2 78906.2 3162.71  56 
  -8  -1   2 89447.3 3454.80  26 
   8  -1  -1 71213.8 3436.72   6 
   8  -1  -1 66195.6 2597.81  76 
  -8  -1   1 70835.9 3086.24  39 
   8  -1  -1 69455.9 2460.59  77 
  -8  -1   1 68798.4 3055.49  19 
   8  -1  -1 60235.7 2673.56  75 
   8  -1  -1 61520.0 2834.10  33 
  -8  -1   1 64044.8 2430.06  67 
  -8  -1   1 61952.2 2667.50  62 
   8  -1  -1 67815.0 2582.71  60 
   8  -1  -1 55539.5 3472.30  15 
  -8  -1   1 73347.9 3230.93  27 
  -8  -1   1 62707.4 2644.91  56 
  -8  -1   1 67505.4 2914.57  26 
   8  -1   0 11663.2 1386.19  24 
  -8  -1   0 17653.9 1312.04  19 
   8  -1   0 12777.0 1346.64   6 
  -8  -1   0 16019.4 1293.02  39 
   8  -1   0 15829.8 891.668  77 
   8  -1   0 14657.5 960.167  76 
   8  -1   0 14814.9 1055.88  75 
  -8  -1   0 15046.5 896.165  67 
   8  -1   0 14476.1 957.457  60 
   8  -1   0 14742.7 1611.38  15 
  -8  -1   0 16894.7 1379.26  27 
  -8  -1   0 13842.1 1013.99  56 
  -8  -1   0 15873.3 1219.03  26 
   8  -1   1 2305.22 509.228  45 
   8  -1   1 3182.14 749.354  24 
  -8  -1  -1 2807.80 594.787  39 
   8  -1   1 2277.06 569.692   6 
   8  -1   1 2573.81 345.453  77 
   8  -1   1 2384.83 382.174  76 
   8  -1   1 2499.43 427.459  75 
   8  -1   1 2335.11 438.817  74 
   8  -1   1 2692.97 401.839  60 
  -8  -1  -1 2025.43 382.619  56 
  -8  -1  -1 2044.78 468.499  26 
   8  -1   2 45371.3 2359.49  45 
   8  -1   2 41872.3 2490.17   6 
  -8  -1  -2 43865.9 2385.72  39 
   8  -1   2 44623.5 1793.16  77 
   8  -1   2 43319.1 1877.58  76 
   8  -1   2 42161.4 2006.64  75 
   8  -1   2 41869.8 2079.65  74 
  -8  -1  -2 44125.3 2436.28  27 
  -8  -1  -2 44704.8 2314.22  26 
   8  -1   3 36831.6 2125.64  45 
   8  -1   3 31522.3 2295.25  24 
   8  -1   3 36940.7 2279.76   6 
  -8  -1  -3 36650.8 2151.95  39 
   8  -1   3 39062.0 1835.33  75 
   8  -1   3 38115.2 1943.24  74 
   8  -1   3 31856.9 2513.71  15 
  -8  -1  -3 39712.8 2263.67  27 
  -8  -1  -3 39769.6 2166.14  26 
   8  -1   4 9862.60 1004.16  45 
   8  -1   4 9281.95 1140.36  24 
   8  -1   4 8780.29 992.418   6 
  -8  -1  -4 10437.6 950.369  19 
   8  -1   4 9534.37 773.048  75 
   8  -1   4 10411.8 894.009  74 
   8  -1   4 9465.14 1318.35  15 
  -8  -1  -4 10699.0 1089.26  27 
  -8  -1  -4 10088.4 1006.29  26 
   8  -1   5 37331.3 2087.57  45 
   8  -1   5 34330.0 2274.51  24 
  -8  -1  -5 36671.5 2097.58  39 
  -8  -1  -5 38155.8 1920.26  19 
   8  -1   5 40750.1 1904.28  74 
   8  -1   5 34535.9 2493.81  15 
  -8  -1  -5 40826.0 2185.49  27 
  -8  -1  -5 39459.2 2147.51  26 
   8  -1   6 26844.0 1593.25  45 
  -8  -1  -6 26147.4 1594.61  39 
   8  -1   6 24975.2 1949.78  15 
  -8  -1  -6 26111.4 1585.57  27 
  -8  -1  -6 27238.2 1611.46  26 
   8  -1   7 8723.30 786.952  45 
  -8  -1  -7 8844.40 808.484  39 
   8  -1   7 6483.70 899.094  15 
  -8  -1  -7 9705.62 811.767  27 
  -8  -1  -7 9082.53 841.334  26 
   8  -1   8 5186.76 530.729  45 
  -8  -1  -8 5779.23 552.463  39 
   8  -1   8 4405.51 623.693  15 
  -8  -1  -8 6160.03 611.901  26 
  -8   0  16 193.744 164.219  38 
   8   0 -16 15.2896 92.7627   1 
   8   0 -16 47.4729 87.2613   3 
  -8   0  15 669.651 221.535  42 
   8   0 -15 545.717 175.983   1 
   8   0 -15 664.411 201.966   3 
   8   0 -15 440.625 174.748   8 
  -8   0  14 3420.51 491.061  42 
   8   0 -14 3926.58 597.415  40 
   8   0 -14 3192.20 428.403   3 
  -8   0  14 3404.91 445.942  30 
   8   0 -14 3371.03 438.849   8 
   8   0 -14 2804.25 374.551   1 
  -8   0  13-39.6142 224.098  42 
  -8   0  13-80.4320 273.948  41 
   8   0 -13-92.4322 241.040  40 
  -8   0  13-47.6450 225.504  36 
  -8   0  13 231.760 187.297  30 
   8   0 -13 96.0307 156.824   3 
   8   0 -13 77.3887 145.932   1 
   8   0 -13 168.618 200.087   8 
  -8   0  12 4454.35 610.211  42 
  -8   0  12 4828.51 627.071  41 
   8   0 -12 4569.21 652.190  40 
  -8   0  12 4836.97 684.452  36 
   8   0 -12 4508.01 490.892   1 
  -8   0  12 5027.11 739.354  17 
  -8   0  12 4768.34 573.032  30 
   8   0 -12 3939.94 540.856   8 
  -8   0  11 563.792 290.427  41 
   8   0 -11 219.718 222.530  40 
  -8   0  11 311.002 285.942  36 
   8   0 -11 540.075 200.745   1 
  -8   0  11 54.6976 317.194  17 
   8   0 -11 458.042 244.283   8 
  -8   0  10-54.5051 257.978  13 
  -8   0  10 256.091 269.956  41 
   8   0 -10 40.2487 197.193  40 
  -8   0  10 50.9610 232.432  36 
   8   0 -10 218.051 150.152   1 
  -8   0  10 105.870 284.092  17 
   8   0 -10 74.2745 162.744  61 
   8   0 -10 77.0567 154.131  59 
  -8   0  10 102.016 177.365  55 
   8   0 -10-67.2614 212.713   8 
   8   0  -9 93328.4 3531.23  40 
  -8   0   9 97771.0 3874.04  36 
   8   0  -9 89224.4 3194.48   1 
   8   0  -9 91402.0 4036.65  33 
   8   0  -9 101546. 3592.14  61 
   8   0  -9 90912.3 3531.88  59 
  -8   0   9 94309.3 3463.62  55 
  -8   0   9 93382.9 3912.60  13 
   8   0  -8 64319.8 2607.64  40 
  -8   0   8 65638.1 2926.55  36 
   8   0  -8 65452.5 3124.94  33 
   8   0  -8 68069.4 2596.03   8 
   8   0  -8 64410.5 2706.77  59 
  -8   0   8 65851.4 2471.25  52 
  -8   0   8 68513.2 3076.72  13 
   8   0  -7 653.902 221.818  40 
   8   0  -7 818.220 382.479   6 
  -8   0   7 712.173 319.289  19 
   8   0  -7 905.231 381.685  33 
  -8   0   7 970.262 266.080  56 
  -8   0   7 709.255 188.104  52 
   8   0  -7 919.730 258.452   8 
  -8   0   7 1009.99 350.595  13 
   8   0  -6 19369.3 1562.35   6 
  -8   0   6 19488.4 1332.09  19 
   8   0  -6 21111.8 1463.71  33 
  -8   0   6 17674.2 1259.83  62 
   8   0  -6 21424.7 1098.47   8 
  -8   0   6 19157.1 1166.78  56 
  -8   0   6 20884.2 1059.61  52 
  -8   0   6 21681.4 1455.41  13 
   8   0  -5 39329.6 2281.91   6 
  -8   0   5 38079.1 1997.28  19 
  -8   0   5 35168.5 1840.27  62 
   8   0  -5 40761.4 1628.70   8 
  -8   0   5 36633.6 1755.87  56 
  -8   0   5 40766.3 1637.65  52 
   8   0  -4 10137.8 1129.53  24 
   8   0  -4 12456.1 1192.60   6 
   8   0  -4 9302.12 723.729  76 
   8   0  -4 12960.0 1044.60  33 
  -8   0   4 10667.3 957.243  19 
   8   0  -4 10946.0 692.197   8 
   8   0  -4 11855.5 847.034  59 
  -8   0   4 10650.1 964.641  27 
  -8   0   4 11801.2 857.433  56 
  -8   0   4 11469.4 732.219  52 
   8   0  -4 10148.8 804.247   5 
   8   0  -3 109989. 4936.57  24 
  -8   0   3 123585. 4467.33  39 
  -8   0   3 122560. 4090.75  67 
   8   0  -3 133535. 4332.87  59 
   8   0  -3 105531. 5033.51  15 
  -8   0   3 134558. 4705.25  27 
  -8   0   3 122341. 4310.41  56 
   8   0  -3 122652. 4231.35   5 
   8   0  -2 18338.8 1569.94  24 
  -8   0   2 22389.5 1372.74  39 
  -8   0   2 19677.6 1056.21  67 
   8   0  -2 16258.1 1592.17  15 
  -8   0   2 22075.6 1454.22  27 
  -8   0   2 21712.6 1251.34  56 
   8   0  -2 20080.6 1142.89   5 
   8   0  -1 84598.9 4036.86  24 
  -8   0   1 100852. 3719.19  39 
  -8   0   1 94069.4 3230.60  67 
   8   0  -1 94839.1 3339.71  60 
   8   0  -1 88135.5 4313.46  15 
  -8   0   1 85980.5 3410.34  56 
   8   0  -1 89415.7 3270.62   5 
   8   0   0 7869.69 1025.44  24 
  -8   0   0 11425.3 990.924  39 
   8   0   0 9150.35 761.256  75 
   8   0   0 10546.7 776.123  60 
   8   0   0 9576.15 1232.79  15 
  -8   0   0 9515.76 820.347  56 
  -8   0   0 10412.1 865.842  26 
   8   0   0 9138.09 712.327   5 
   8   0   1 8099.98 932.389  45 
   8   0   1 8773.68 1079.95  24 
  -8   0  -1 7448.12 829.148  39 
   8   0   1 7787.63 692.375  75 
   8   0   1 8503.90 701.899  60 
   8   0   1 7949.65 1169.19  15 
  -8   0  -1 9049.92 826.769  26 
   8   0   2 2756.78 598.786  45 
  -8   0  -2 3765.57 424.254  69 
   8   0   2 3224.66 438.835  60 
   8   0   2 3827.31 832.822  15 
  -8   0  -2 3408.74 542.009  26 
   8   0   3 25284.5 1734.43  45 
  -8   0  -3 24794.3 1454.18  37 
   8   0   3 24489.3 1423.95  74 
   8   0   3 25390.5 2115.61  15 
  -8   0  -3 25106.6 1560.60  26 
   8   0   4 57150.6 2819.32  45 
   8   0   4 51684.8 2921.92  24 
  -8   0  -4 55713.1 2492.00  37 
   8   0   4 51980.3 2348.33  74 
   8   0   4 54674.1 3345.96  15 
  -8   0  -4 61110.8 2659.30  26 
   8   0   5 66943.3 3118.17  45 
   8   0   5 60215.4 3259.72  24 
  -8   0  -5 68969.5 2840.40  37 
   8   0   5 65267.8 2661.39  74 
   8   0   5 65347.3 3641.49  15 
  -8   0  -5 70765.6 2988.36  26 
   8   0   6-50.1932 291.047  45 
   8   0   6 366.106 362.098  24 
   8   0   6 311.539 225.309   6 
  -8   0  -6 500.978 276.385  39 
  -8   0  -6 222.656 225.242  37 
  -8   0  -6 253.953 233.489  26 
   8   0   7 18276.5 1267.81  45 
   8   0   7 15149.4 1278.61  24 
  -8   0  -7 19032.7 1220.89  26 
   8   0   8 19386.9 1161.84  45 
   8   0   8 15549.8 1137.69  24 
  -8   0  -8 17339.8 1080.10  39 
   8   0   8 15037.7 1277.90  15 
  -8   0  -8 18754.5 1109.77  27 
  -8   0  -8 19449.2 1125.13  26 
   8   0   9 5776.48 511.943  45 
  -8   0  -9 5579.52 488.448  26 
   8   1 -16 14213.4 855.831  40 
  -8   1  15 3934.53 437.101  42 
  -8   1  15 3765.39 370.032  22 
   8   1 -15 3660.42 481.902  40 
   8   1 -15 3268.94 359.364   3 
   8   1 -15 4371.24 371.257   1 
  -8   1  15 3927.22 441.898  30 
  -8   1  14 17515.1 1079.49  42 
  -8   1  14 17144.7 983.525  22 
   8   1 -14 17284.9 1162.47  40 
   8   1 -14 17489.7 905.585   1 
  -8   1  14 17830.2 1089.55  30 
   8   1 -14 17668.5 980.672   8 
   8   1 -13 7686.13 571.394   1 
  -8   1  13 8095.29 749.429  42 
  -8   1  13 6943.40 714.593  41 
  -8   1  13 8519.14 759.323  30 
   8   1 -13 7402.08 653.244   8 
  -8   1  12 427.594 241.676  42 
  -8   1  12 678.066 290.490  41 
   8   1 -12 706.515 199.964   1 
  -8   1  12 599.073 265.888  36 
  -8   1  12 744.795 314.645  17 
  -8   1  12 1155.53 331.027  30 
   8   1 -12 786.415 253.337   8 
  -8   1  11 3545.28 546.270  41 
   8   1 -11 3036.34 476.831  40 
  -8   1  11 3943.37 596.101  36 
  -8   1  11 3781.51 638.056  17 
   8   1 -11 3873.32 471.954   8 
   8   1 -11 3611.78 389.238   1 
  -8   1  10 20294.7 1324.06  41 
   8   1 -10 20827.8 1242.96  40 
  -8   1  10 19987.6 1373.39  36 
   8   1 -10 18712.9 1421.43  33 
  -8   1  10 21019.1 1483.06  17 
   8   1 -10 21432.7 1152.91   8 
   8   1 -10 19297.0 981.482   1 
   8   1  -9 59206.9 2414.99  40 
  -8   1   9 62592.7 2767.75  36 
   8   1  -9 56053.3 2800.21  33 
  -8   1   9 61572.8 2836.65  17 
   8   1  -9 60306.0 2342.65   8 
   8   1  -9 61448.4 2628.33  59 
  -8   1   9 61072.1 2467.31  55 
   8   1  -8 47057.2 1967.61  40 
  -8   1   8 49000.1 2338.08  36 
   8   1  -8 46097.3 2385.94  33 
   8   1  -8 48099.0 2182.41  59 
  -8   1   8 47141.2 2010.26  52 
  -8   1   8 47302.2 2316.70  13 
   8   1  -7 7466.73 580.218  40 
   8   1  -7 7068.94 799.205  33 
   8   1  -7 7567.02 563.965   8 
   8   1  -7 6415.90 666.884  59 
  -8   1   7 6997.49 659.493  56 
   8   1  -7 5906.08 606.985   5 
  -8   1   7 7440.54 629.342  52 
  -8   1   7 7662.40 811.881  13 
   8   1  -6 13653.5 791.532  40 
   8   1  -6 12530.4 802.244  32 
   8   1  -6 14412.8 793.771   8 
   8   1  -6 14162.3 983.468  59 
  -8   1   6 15236.6 977.120  56 
   8   1  -6 12710.8 886.115   5 
  -8   1   6 15122.4 926.708  52 
   8   1  -5 3168.96 332.561  40 
   8   1  -5 2531.61 323.088  32 
   8   1  -5 2989.94 329.865   8 
   8   1  -5 2626.74 401.481  59 
   8   1  -5 3061.85 407.113   5 
  -8   1   5 4124.33 479.237  56 
  -8   1   5 2703.66 373.246  52 
   8   1  -4 2929.97 308.187  40 
   8   1  -4 2586.48 380.925  34 
   8   1  -4 3005.49 334.341  32 
   8   1  -4 3069.47 311.621   8 
   8   1  -4 3660.53 466.091  59 
   8   1  -4 2253.63 348.727   5 
  -8   1   4 2838.92 414.562  56 
  -8   1   4 3623.25 425.857  52 
   8   1  -3 25336.3 1768.23  24 
   8   1  -3 26289.7 1171.51  32 
   8   1  -3 26934.2 1134.92   8 
   8   1  -3 29706.3 1467.33  59 
  -8   1   3 30215.0 1476.60  56 
   8   1  -2 77857.5 3558.60  24 
   8   1  -2 71014.3 2835.63  34 
  -8   1   2 84183.6 2866.47  67 
   8   1  -2 76923.8 2621.11  32 
   8   1  -2 78447.7 2813.03   5 
  -8   1   2 82017.8 3051.72  56 
   8   1  -1 59242.3 2988.83  24 
   8   1  -1 56162.5 2313.17  34 
  -8   1   1 64657.3 2361.56  67 
   8   1  -1 61951.5 2403.92  60 
   8   1  -1 62968.0 3232.71  15 
   8   1  -1 60589.9 2289.86   5 
  -8   1   1 59832.0 2509.03  56 
   8   1   0 13246.2 1260.02  24 
   8   1   0 13419.2 863.210  34 
  -8   1   0 14380.4 883.773  67 
   8   1   0 16351.7 1514.01  15 
   8   1   0 14952.6 924.745  60 
   8   1   0 13066.1 822.167   5 
  -8   1   0 13962.7 996.151  56 
   8   1   1 1508.17 425.789  45 
   8   1   1 2588.51 582.149  24 
   8   1   1 2284.85 341.825  34 
  -8   1  -1 2562.49 363.706  67 
   8   1   1 2188.12 344.170  60 
   8   1   1 2089.29 306.562   5 
   8   1   1 1892.67 626.062  15 
  -8   1  -1 2619.46 428.818  56 
   8   1   2 44155.4 2283.67  45 
   8   1   2 40241.9 2389.07  24 
   8   1   2 35722.1 1642.32  34 
  -8   1  -2 39138.4 1770.42  69 
  -8   1  -2 39271.3 1721.79  67 
   8   1   2 40973.2 2643.54  15 
   8   1   2 41813.0 1781.99  60 
   8   1   2 35951.4 1598.33   5 
  -8   1  -2 43906.4 1953.52  26 
   8   1   3 38497.8 2134.79  45 
   8   1   3 38130.0 2300.27  24 
   8   1   3 40035.5 2589.28  15 
  -8   1  -3 39603.0 1844.40  26 
   8   1   4 9052.76 981.992  45 
   8   1   4 9148.77 1080.17  24 
   8   1   4 7726.97 671.654  74 
   8   1   4 10389.8 1282.08  15 
  -8   1  -4 9261.36 815.932  26 
   8   1   5 38904.4 2121.89  45 
   8   1   5 35813.4 2242.45  24 
  -8   1  -5 34617.0 1717.28  37 
  -8   1  -5 38823.6 1882.41  26 
   8   1   6 26976.1 1598.92  45 
  -8   1  -6 22808.7 1276.24  37 
   8   1   6 25784.6 1934.03  15 
  -8   1  -6 26245.6 1435.97  26 
   8   1   7 8553.95 792.692  45 
   8   1   7 7553.97 861.036  24 
  -8   1  -7 7855.52 632.924  37 
   8   1   7 9320.07 1047.60  15 
  -8   1  -7 8577.53 714.604  26 
   8   1   8 5495.13 549.465  45 
   8   1   8 5033.22 615.532  24 
  -8   1  -8 5943.27 552.431  39 
  -8   1  -8 5264.17 450.086  37 
   8   1   8 5379.71 731.852  15 
  -8   1  -8 6369.69 547.421  26 
  -8   2  15 159.855 108.929  22 
   8   2 -15 20.4955 129.659  40 
  -8   2  14 3465.58 330.411  12 
   8   2 -14 3311.95 293.991   1 
  -8   2  14 3377.95 388.031  22 
   8   2 -14 3665.39 446.772  40 
  -8   2  14 3093.76 393.547  30 
   8   2 -14 3312.68 322.032   8 
  -8   2  13 4829.99 514.024  22 
   8   2 -13 4171.52 514.453  40 
  -8   2  13 5030.26 543.621  30 
   8   2 -13 5109.00 451.916   8 
   8   2 -13 4292.12 360.777   1 
   8   2 -12 15978.1 1026.32  40 
  -8   2  12 16317.1 1068.40  30 
   8   2 -12 14935.9 871.838   8 
   8   2 -12 14535.5 757.477   1 
  -8   2  11 5597.10 579.855  41 
  -8   2  11 5088.83 650.129  17 
   8   2 -11 5744.02 524.255   8 
   8   2 -11 5357.48 418.099   1 
  -8   2  10 35441.5 1756.68  41 
  -8   2  10 36766.2 1952.48  17 
   8   2 -10 38564.7 1603.73   8 
  -8   2   9 2593.16 419.014  41 
   8   2  -9 2949.59 398.899  40 
  -8   2   9 2977.59 521.786  17 
   8   2  -9 2736.24 353.938   8 
   8   2  -9 3335.30 335.873  16 
  -8   2   8 4327.53 520.083  41 
   8   2  -8 3928.73 451.416  40 
   8   2  -8 3647.06 584.600  33 
   8   2  -8 3559.39 430.257  32 
   8   2  -8 4653.24 386.354  16 
   8   2  -8 3986.89 463.687   5 
   8   2  -7 21398.9 1080.87  40 
   8   2  -7 19817.7 984.023   8 
   8   2  -7 19231.0 1026.17  32 
   8   2  -7 20156.6 882.806  16 
   8   2  -7 18279.6 1155.32  59 
   8   2  -7 17763.5 1057.87   5 
   8   2  -6 3733.76 401.279  40 
   8   2  -6 2542.05 400.365  34 
   8   2  -6 2920.04 336.065   8 
   8   2  -6 3152.16 438.278  59 
   8   2  -6 2797.23 385.899   5 
  -8   2   6 3079.75 420.437  52 
   8   2  -5 27995.4 1155.86   4 
   8   2  -5 27828.7 1193.26   8 
   8   2  -5 25130.7 1208.97  32 
   8   2  -5 27001.5 1319.57   5 
  -8   2   5 28898.4 1446.68  52 
   8   2  -4 4179.26 398.659  40 
   8   2  -4 3455.98 312.272   4 
   8   2  -4 2569.81 391.142  34 
   8   2  -4 3397.63 343.245   8 
   8   2  -4 3314.48 361.556  32 
   8   2  -4 3271.08 396.553   5 
  -8   2   4 3381.48 444.414  52 
   8   2  -3 15248.0 955.576  34 
   8   2  -3 14167.2 735.345   8 
  -8   2   3 13821.2 873.303  67 
   8   2  -3 14251.3 789.597  32 
   8   2  -3 13089.1 854.338   5 
  -8   2   3 13661.3 948.444  52 
   8   2  -2 20526.1 1159.75  34 
   8   2  -2 18921.7 897.179   8 
  -8   2   2 20168.4 1081.82  67 
   8   2  -2 21426.1 993.495  32 
   8   2  -1 30268.2 1914.75  24 
  -8   2   1 33200.2 1471.44  67 
   8   2  -1 31984.0 1313.76  32 
   8   2  -1 32952.7 1445.06   5 
   8   2   0 22528.3 1633.35  24 
   8   2   0 24287.6 1248.33  34 
   8   2   0 24105.1 1036.32  32 
   8   2   0 24792.0 1176.22   5 
   8   2   1 19594.2 1509.49  24 
   8   2   1 17796.2 1038.60  34 
   8   2   1 19492.7 1000.69   5 
   8   2   2 3324.77 658.105  24 
   8   2   2 3558.42 415.081  34 
   8   2   2 3717.59 382.897   5 
   8   2   2 3519.33 697.486  15 
   8   2   3 3368.78 641.751  24 
   8   2   3 3237.19 390.683  34 
   8   2   3 3475.65 362.481   5 
   8   2   3 4518.88 771.039  15 
   8   2   4 11107.4 1102.21  24 
   8   2   4 8349.48 607.877  34 
   8   2   4 9495.52 1104.91  15 
   8   2   5 622.482 301.901  24 
   8   2   5 672.089 387.371  15 
  -8   2  -5 1378.63 272.740  26 
   8   2   6 10051.0 958.258  24 
   8   2   6 10880.8 1045.60  15 
  -8   2  -6 9703.58 692.583  26 
   8   2   7 748.356 292.554  24 
   8   2   7 503.656 296.374  15 
  -8   2  -7 894.027 202.371  26 
  -8   3  13 829.131 166.736  12 
  -8   3  13 505.406 152.377  22 
   8   3 -13 810.358 188.842  40 
  -8   3  12 1842.39 289.762  22 
   8   3 -12 1397.18 259.271  40 
  -8   3  12 1582.52 260.447  30 
   8   3 -12 1573.83 216.029   8 
   8   3 -11 90.5805 131.283  40 
  -8   3  11 48.8956 123.717  30 
   8   3 -11 98.4348 122.790   8 
   8   3 -10 14390.5 871.543  40 
   8   3 -10 14828.0 794.742   8 
  -8   3  10 16502.1 978.636  30 
   8   3 -10 16059.4 763.356  16 
   8   3  -9 12225.6 722.241   8 
   8   3  -9 14304.6 693.206  16 
   8   3  -8 3559.83 363.230   8 
   8   3  -8 3685.12 395.425  32 
   8   3  -8 3390.40 304.744  16 
   8   3  -8 3015.91 362.725   5 
   8   3  -7 19281.0 1005.83  40 
   8   3  -7 19674.3 914.608   4 
   8   3  -7 17989.2 959.074  32 
   8   3  -7 18562.2 813.523  16 
   8   3  -7 17408.1 969.276   5 
   8   3  -6 2247.20 320.772  40 
   8   3  -6 2645.21 297.598   4 
   8   3  -6 1722.73 316.534  34 
   8   3  -6 2807.41 316.394   8 
   8   3  -6 2435.88 324.803  32 
   8   3  -6 2091.22 319.618   5 
   8   3  -5 3827.01 347.334   4 
   8   3  -5 3022.05 408.267  34 
   8   3  -5 3214.69 339.138   8 
   8   3  -5 3580.68 402.896   5 
   8   3  -4 4937.80 385.329   4 
   8   3  -4 4594.43 495.438  34 
   8   3  -4 5058.49 418.222   8 
   8   3  -4 5056.24 448.456  32 
   8   3  -4 4722.52 479.148   5 
   8   3  -3 23046.0 974.822   4 
   8   3  -3 23463.9 1236.41  34 
   8   3  -3 22705.2 1023.76   8 
   8   3  -3 22977.0 1093.87  32 
   8   3  -3 21149.0 1127.30   5 
   8   3  -2 20978.4 1159.87  34 
   8   3  -2 21087.5 930.349   8 
   8   3  -2 22289.6 1019.16  32 
   8   3  -2 20561.5 1071.97   5 
   8   3  -1 19594.8 1092.50  34 
   8   3  -1 19661.2 859.141   8 
   8   3  -1 21364.4 962.988  32 
   8   3   0 7615.51 499.187  32 
   8   3   0 7332.70 567.621   5 
   8   3   1 3658.30 310.620  32 
   8   3   1 3134.78 355.450   5 
   8   3   2 242.984 155.666  34 
   8   3   2 159.678 127.069   5 
   8   3   3 23484.9 1420.20  24 
   8   3   3 24164.4 1118.00  34 
   8   3   3 22334.3 1006.30   5 
   8   3   4 17142.2 1142.91  24 
   8   3   4 16631.0 835.121  34 
   8   3   5 1737.25 336.315  24 
   8   3   5 1358.79 184.772  34 
   8   4 -10 2156.55 245.968  40 
   8   4  -9 725.436 156.725  40 
   8   4  -9 571.883 124.104   8 
   8   4  -8 4611.79 380.336  40 
   8   4  -8 4660.69 347.800   8 
   8   4  -7 7225.49 471.790  32 
   8   4  -6 14266.8 664.231   8 
   8   4  -6 12487.4 674.563  32 
   8   4  -6 11964.7 661.036   5 
   8   4  -5 2773.34 299.924  40 
   8   4  -5 2973.73 255.318   4 
   8   4  -5 2763.56 265.969   8 
   8   4  -5 2215.59 266.489  32 
   8   4  -5 2564.71 290.118   5 
   8   4  -4 1733.37 236.802  40 
   8   4  -4 1261.21 176.518   4 
   8   4  -4 1157.90 212.861  34 
   8   4  -4 1595.15 204.583   8 
   8   4  -4 1684.90 239.384   5 
   8   4  -3 7057.62 469.779  40 
   8   4  -3 4548.98 425.554  34 
   8   4  -3 6186.77 383.044   8 
   8   4  -3 5864.27 413.478  32 
   8   4  -3 4910.63 419.304   5 
   8   4  -2 4013.14 339.629  40 
   8   4  -2 2969.41 341.944  34 
   8   4  -2 2856.13 250.423   8 
   8   4  -2 3552.90 308.153  32 
   8   4  -2 3340.67 335.191   5 
   8   4  -1 4243.30 400.569  34 
   8   4  -1 4520.90 337.600  32 
   8   4  -1 4160.88 375.716   5 
   8   4   0 1216.08 170.711  40 
   8   4   0 1138.95 208.923  34 
   8   4   0 1387.89 178.137  32 
   8   4   1 6218.65 456.743  34 
   8   4   1 6571.95 425.021   5 
   8   4   2 14702.8 664.615   5 
   9  -4  -9 5629.84 331.083  77 
   9  -4  -8 41889.9 1420.52  77 
  -9  -4   8 36673.9 1820.86  27 
   9  -4  -7 23720.8 955.501  77 
   9  -4  -6 7559.35 452.528  77 
  -9  -4   6 6467.12 717.931  27 
  -9  -4   6 6907.68 552.306  47 
   9  -4  -5 2608.36 258.486  77 
  -9  -4   5 2115.99 331.454  47 
   9  -4  -4 2970.57 274.351  77 
   9  -4  -4 2982.06 285.108  76 
  -9  -4   4 3092.24 483.951  27 
  -9  -4   4 2185.49 344.594  47 
   9  -4  -3 11.8874 88.9654  77 
  -9  -4   3 146.405 196.429  27 
  -9  -4   3 55.3636 167.932  47 
   9  -4  -2 6584.34 404.614  77 
  -9  -4   2 7290.47 676.841  27 
  -9  -4   2 5973.22 570.616  47 
  -9  -4   1 3664.85 435.416  47 
   9  -3 -13 3356.96 255.793  77 
   9  -3 -11 6724.09 489.438  76 
  -9  -3  11 5753.41 653.917  27 
   9  -3 -10 5960.39 508.712  76 
  -9  -3  10 6698.36 797.744  14 
  -9  -3  10 5522.08 717.009  27 
   9  -3  -9 17295.8 990.486  76 
  -9  -3   9 19058.4 1418.68  14 
  -9  -3   9 17339.7 1391.40  27 
   9  -3  -8 31245.3 1422.48  77 
   9  -3  -8 31230.6 1494.96  76 
  -9  -3   8 35706.9 2024.65  14 
  -9  -3   8 31114.2 2009.62  27 
  -9  -3   8 30566.2 1527.76  47 
   9  -3  -7 13596.1 847.295  77 
   9  -3  -7 14837.7 947.938  76 
  -9  -3   7 13722.9 1229.90  14 
  -9  -3   7 14489.5 1353.91  27 
  -9  -3   7 12780.8 961.063  47 
   9  -3  -6 9027.29 687.912  77 
   9  -3  -6 10065.2 778.158  76 
   9  -3  -6 9707.65 741.079  75 
  -9  -3   6 12074.5 1114.32  14 
  -9  -3   6 10153.5 1137.23  27 
  -9  -3   6 9780.61 875.372  47 
   9  -3  -5 18973.6 1050.49  77 
   9  -3  -5 20166.7 1162.31  76 
   9  -3  -5 19671.7 1156.60  75 
  -9  -3   5 20257.0 1457.89  14 
  -9  -3   5 22262.1 1735.77  27 
  -9  -3   5 18409.6 1262.62  26 
  -9  -3   5 17744.7 1292.17  47 
   9  -3  -4 24766.0 1230.39  77 
   9  -3  -4 24275.0 1309.92  76 
   9  -3  -4 23779.1 1331.96  75 
  -9  -3   4 26469.6 1634.43  14 
  -9  -3   4 24916.8 1557.64  26 
   9  -3  -3 5327.53 499.076  77 
   9  -3  -3 6088.52 624.063  75 
  -9  -3   3 5086.35 828.593  27 
  -9  -3   3 5143.63 700.341  26 
   9  -3  -2 8032.63 606.422  77 
   9  -3  -2 8283.22 733.061  75 
  -9  -3   2 8309.25 997.081  27 
  -9  -3   2 7059.59 833.117  26 
   9  -3  -1 26247.8 1410.78  75 
  -9  -3   1 27950.7 1853.05  27 
  -9  -3   1 25627.3 1649.78  26 
   9  -3   0 10592.7 729.835  76 
   9  -3   0 8622.24 752.330  73 
  -9  -3   0 10760.4 1051.52  27 
  -9  -3   0 9986.09 957.790  26 
  -9  -3  -1 3808.46 534.101  35 
   9  -3   1 3935.51 484.348  73 
  -9  -3  -1 3738.25 589.578  27 
  -9  -3  -1 4374.75 618.119  26 
   9  -3   2 1763.21 298.355  75 
  -9  -3  -2 1648.99 356.092  35 
   9  -3   2 1991.64 335.893  73 
  -9  -3  -2 1894.24 402.050  27 
  -9  -3  -2 2128.19 431.151  26 
   9  -3   3 6698.02 511.173  75 
  -9  -3  -3 5598.67 571.782  35 
  -9  -3  -3 5682.69 632.048  26 
   9  -3   4 5911.93 461.684  73 
  -9  -3  -4 5825.29 556.881  26 
   9  -2 -14 5956.05 444.635  76 
  -9  -2  14 6465.57 653.243  14 
   9  -2 -14 6316.12 547.966  48 
   9  -2 -13 195.535 150.730  76 
  -9  -2  13 135.874 236.346  14 
   9  -2 -13 578.201 217.896  48 
  -9  -2  12 5668.37 512.060  42 
  -9  -2  12 7218.80 861.283  14 
   9  -2 -12 6418.79 661.163   8 
   9  -2 -12 5555.00 623.499  48 
   9  -2 -12 6247.42 574.098  76 
  -9  -2  11 8146.10 665.437  42 
  -9  -2  11 8781.50 679.246  41 
   9  -2 -11 7857.35 701.139  76 
  -9  -2  11 9032.98 847.138  36 
  -9  -2  11 10279.8 1097.37  14 
   9  -2 -11 8191.26 776.249  48 
  -9  -2  10 13693.9 929.621  42 
  -9  -2  10 14446.1 934.247  41 
   9  -2 -10 13081.1 964.768  76 
  -9  -2  10 14548.8 1119.54  36 
  -9  -2  10 16445.2 1444.68  14 
  -9  -2  10 14238.6 1266.54  27 
   9  -2 -10 15133.3 1118.17   8 
   9  -2 -10 13598.2 1054.17  48 
  -9  -2   9 27098.3 1450.77  41 
  -9  -2   9 31668.1 1752.03  36 
   9  -2  -9 28741.6 1461.03  75 
  -9  -2   9 32673.2 2071.57  27 
   9  -2  -9 30596.6 1710.07   8 
   9  -2  -9 28815.5 1594.05  48 
  -9  -2   8 15454.2 1029.77  41 
  -9  -2   8 15350.4 1172.47  36 
   9  -2  -8 16841.8 1083.44  75 
  -9  -2   8 17651.5 1527.17  27 
   9  -2  -8 16716.4 1192.72   8 
   9  -2  -7 7550.10 758.931  76 
  -9  -2   7 8707.47 846.853  36 
   9  -2  -7 8654.28 768.922  75 
  -9  -2   7 9377.34 1133.12  27 
   9  -2  -7 8419.38 814.738   8 
  -9  -2   7 9070.29 1044.66  13 
   9  -2  -6 5478.84 547.967  77 
   9  -2  -6 4339.91 558.320  76 
  -9  -2   6 5860.90 681.309  36 
   9  -2  -6 5339.97 617.598  75 
  -9  -2   6 6065.12 927.479  27 
   9  -2  -6 4750.58 596.047   8 
  -9  -2   6 5308.37 790.344  13 
  -9  -2   5 418.912 321.279  13 
   9  -2  -5 417.711 199.447  77 
   9  -2  -5 405.380 233.238  76 
  -9  -2   5 120.486 203.389  36 
   9  -2  -5 273.823 232.244  75 
   9  -2  -5 290.988 173.726  74 
  -9  -2   5 190.237 376.326  19 
  -9  -2   5 574.536 454.299  27 
   9  -2  -5 352.600 218.670   8 
  -9  -2   4 36983.7 2184.00  39 
   9  -2  -4 34758.8 1606.26  77 
  -9  -2   4 33261.9 1767.54  36 
   9  -2  -4 33299.5 1742.03  76 
   9  -2  -4 35110.6 1835.67  75 
   9  -2  -4 34825.2 1756.63  74 
  -9  -2   4 37165.9 2361.01  27 
  -9  -2   4 36445.9 2125.39  13 
  -9  -2   3 81985.2 3707.64  39 
   9  -2  -3 82497.1 3002.70  77 
   9  -2  -3 81928.8 3197.05  76 
   9  -2  -3 76771.4 3266.53  75 
  -9  -2   3 83474.3 3726.69  19 
   9  -2  -3 81470.6 3258.00  74 
  -9  -2   3 86956.6 3990.01  27 
  -9  -2   3 82741.0 3544.25  26 
  -9  -2   3 85071.6 3620.72  13 
  -9  -2   2 5861.63 849.686  39 
   9  -2  -2 6742.46 583.200  77 
   9  -2  -2 6350.16 658.800  76 
  -9  -2   2 5867.37 833.853  19 
   9  -2  -2 6639.51 725.564  74 
  -9  -2   2 6166.67 928.905  27 
  -9  -2   2 5540.33 749.184  26 
  -9  -2   2 5687.74 750.694  13 
  -9  -2   1 8006.37 958.889  39 
   9  -2  -1 8668.53 654.417  77 
   9  -2  -1 7204.08 685.109  76 
   9  -2  -1 8160.64 797.017  75 
  -9  -2   1 6787.66 870.462  19 
   9  -2  -1 8849.98 835.434  74 
  -9  -2   1 7882.19 849.088  35 
  -9  -2   1 7737.58 899.108  26 
  -9  -2   1 7084.50 793.353  13 
  -9  -2   0 1722.05 528.819  39 
   9  -2   0 1768.78 300.924  77 
   9  -2   0 2307.11 386.510  76 
   9  -2   0 2301.77 439.486  75 
   9  -2   0 1967.17 430.568  74 
  -9  -2   0 1967.58 481.261  35 
  -9  -2   0 2383.18 520.338  19 
  -9  -2   0 2315.34 623.145  27 
  -9  -2   0 1766.53 461.376  26 
   9  -2   1 5924.84 517.635  77 
   9  -2   1 5676.84 562.803  76 
   9  -2   1 5009.57 612.617  75 
  -9  -2  -1 5373.31 726.201  19 
  -9  -2  -1 5629.34 724.011  35 
  -9  -2  -1 7020.58 917.078  27 
  -9  -2  -1 6220.36 793.513  26 
   9  -2   2 4619.14 545.884  75 
  -9  -2  -2 5363.40 661.519  19 
  -9  -2  -2 5187.35 681.844  35 
   9  -2   2 5188.08 626.014  74 
  -9  -2  -2 5012.74 762.131  27 
  -9  -2  -2 5245.26 715.603  26 
  -9  -2  -3 24541.0 1595.19  39 
   9  -2   3 23640.9 1276.82  75 
  -9  -2  -3 23346.7 1495.50  35 
   9  -2   3 23742.1 1381.01  74 
  -9  -2  -3 25571.8 1626.15  27 
  -9  -2  -3 25249.3 1600.33  26 
  -9  -2  -4 5394.90 659.853  39 
   9  -2   4 5106.25 486.087  75 
  -9  -2  -4 5962.58 658.354  35 
  -9  -2  -4 6002.78 687.058  27 
  -9  -2  -4 5489.08 669.963  26 
  -9  -2  -5 5618.90 593.672  39 
  -9  -2  -5 5812.19 610.153  35 
   9  -2   5 5998.36 517.728  73 
  -9  -2  -5 5676.99 572.936  27 
  -9  -2  -5 5493.10 617.813  26 
   9  -2   6 8512.73 527.250  73 
  -9  -2  -6 8363.02 666.837  26 
   9  -1 -16 2306.03 231.668  76 
  -9  -1  15 1308.22 239.942  42 
   9  -1 -15 1580.22 251.254   8 
  -9  -1  14 9905.30 734.824  42 
   9  -1 -14 10440.2 761.852   3 
  -9  -1  14 8551.36 819.733  14 
  -9  -1  13 9700.66 784.392  42 
  -9  -1  13 8992.88 755.664  41 
   9  -1 -13 8945.74 762.185   3 
  -9  -1  13 9372.88 947.704  14 
   9  -1 -13 9261.45 792.833   8 
  -9  -1  12 9190.25 805.961  42 
  -9  -1  12 9596.25 821.028  41 
  -9  -1  12 9662.65 1034.77  14 
   9  -1 -12 9678.46 843.886   8 
  -9  -1  11 7527.60 741.659  41 
   9  -1 -11 7142.49 766.246  40 
   9  -1 -11 7154.29 715.017   3 
  -9  -1  11 6392.72 792.540  17 
  -9  -1  11 8528.05 1008.33  14 
   9  -1 -11 6788.05 746.649   8 
  -9  -1  10 7553.41 761.207  41 
   9  -1 -10 7216.74 773.810  40 
  -9  -1  10 8543.71 915.555  36 
   9  -1 -10 8372.49 782.641   3 
  -9  -1  10 9179.29 939.254  17 
  -9  -1   9 818.274 399.087  13 
  -9  -1   9 1122.48 366.164  36 
  -9  -1   9 1239.57 392.681  17 
   9  -1  -9 807.979 280.145   3 
   9  -1  -9 1135.68 337.601   8 
  -9  -1   8 116889. 4478.75  36 
   9  -1  -8 111407. 4113.31   3 
  -9  -1   8 112385. 4388.51  17 
   9  -1  -8 115153. 4226.39   8 
  -9  -1   8 116204. 4676.18  27 
  -9  -1   8 117524. 4765.96  13 
  -9  -1   7 13082.0 1114.64  36 
   9  -1  -7 11763.9 939.933  76 
  -9  -1   7 14451.0 1256.23  19 
   9  -1  -7 12379.0 921.729   3 
  -9  -1   7 14086.3 1114.91  17 
  -9  -1   7 12850.7 1178.68  62 
   9  -1  -7 13133.0 947.309  59 
   9  -1  -7 13038.8 996.166   8 
  -9  -1   7 14142.8 1272.22  27 
  -9  -1   7 11821.1 917.149  56 
  -9  -1   7 15662.7 1365.81  13 
   9  -1  -6 26817.8 1331.97  77 
   9  -1  -6 28057.6 1530.67  76 
  -9  -1   6 30437.3 1915.54  19 
   9  -1  -6 28400.0 1442.60   3 
  -9  -1   6 28322.3 1319.61  67 
  -9  -1   6 22569.0 1659.99  62 
   9  -1  -6 32130.3 1579.29  59 
  -9  -1   6 31567.7 1992.68  27 
   9  -1  -6 32214.9 1586.13   8 
  -9  -1   6 27735.3 1500.75  56 
   9  -1  -5 18084.8 1706.07   6 
  -9  -1   5 18717.8 1361.40  39 
   9  -1  -5 16750.5 965.708  77 
   9  -1  -5 17454.8 1128.15  76 
  -9  -1   5 17321.9 1420.88  19 
   9  -1  -5 19798.4 1551.40  33 
  -9  -1   5 15130.0 915.816  67 
  -9  -1   5 16942.1 1271.07  62 
  -9  -1   5 18296.9 1491.74  27 
   9  -1  -5 17802.6 1098.03   8 
  -9  -1   5 18710.3 1147.01  56 
   9  -1  -4 53604.0 3077.32   6 
  -9  -1   4 52057.2 2557.58  39 
   9  -1  -4 48657.2 1970.77  77 
   9  -1  -4 49983.4 2198.67  76 
  -9  -1   4 50714.8 2623.33  19 
   9  -1  -4 50838.4 2663.71  33 
  -9  -1   4 48414.1 1966.72  67 
  -9  -1   4 44509.0 2312.10  62 
   9  -1  -4 50112.2 2127.90  60 
  -9  -1   4 51740.8 2730.81  27 
  -9  -1   4 47729.6 2176.89  56 
  -9  -1   4 53559.4 2655.44  13 
  -9  -1   3 42170.3 2278.22  39 
   9  -1  -3 41676.7 1724.74  77 
   9  -1  -3 40648.6 1896.67  76 
  -9  -1   3 41705.3 2328.02  19 
   9  -1  -3 40305.3 1994.04  75 
   9  -1  -3 44649.4 2350.22  33 
  -9  -1   3 37983.6 1699.86  67 
   9  -1  -3 40674.2 1860.88  60 
  -9  -1   3 44916.2 2468.30  27 
  -9  -1   3 39268.5 1922.16  56 
  -9  -1   3 42315.7 2295.95  13 
   9  -1  -2 30163.5 2301.47  24 
   9  -1  -2 32491.6 2290.88   6 
  -9  -1   2 30729.3 1905.58  39 
   9  -1  -2 29096.7 1364.73  77 
   9  -1  -2 30085.6 1535.09  76 
   9  -1  -2 30489.4 1654.43  75 
   9  -1  -2 29722.5 1829.08  33 
  -9  -1   2 29882.2 1402.30  67 
   9  -1  -2 30141.2 1516.54  60 
  -9  -1   2 33452.7 2094.41  27 
  -9  -1   2 27353.5 1550.79  56 
   9  -1  -1 14370.4 1476.19   6 
  -9  -1   1 14695.5 1274.93  39 
   9  -1  -1 15197.8 877.630  77 
   9  -1  -1 14668.8 979.076  76 
  -9  -1   1 15053.6 1289.95  19 
   9  -1  -1 13631.5 1047.41  75 
   9  -1  -1 13840.9 1060.63  74 
   9  -1  -1 14799.9 1185.60  33 
  -9  -1   1 14795.7 1343.97  27 
  -9  -1   1 15586.1 1206.17  26 
   9  -1   0 14481.5 1609.90  24 
   9  -1   0 17295.1 1602.03   6 
  -9  -1   0 16327.3 1359.02  39 
   9  -1   0 16300.7 924.257  77 
   9  -1   0 17123.1 1033.21  76 
  -9  -1   0 17439.4 1375.39  19 
   9  -1   0 14962.8 1101.87  75 
   9  -1   0 12946.6 1609.32  15 
  -9  -1   0 17162.3 1456.66  27 
  -9  -1   0 18234.7 1316.58  26 
   9  -1   1 9236.23 1226.68  24 
   9  -1   1 10621.6 1224.01   6 
  -9  -1  -1 10755.4 1089.07  39 
   9  -1   1 12632.0 772.055  77 
   9  -1   1 11122.9 795.174  76 
  -9  -1  -1 10716.6 1066.19  19 
   9  -1   1 11732.9 921.248  75 
   9  -1   1 11787.5 989.438  74 
   9  -1   1 11224.1 1455.85  15 
  -9  -1  -1 11514.5 1177.37  27 
  -9  -1  -1 12842.0 1118.73  26 
   9  -1   2 6963.12 1036.49  24 
   9  -1   2 7739.44 1007.49   6 
  -9  -1  -2 7412.73 884.293  39 
  -9  -1  -2 8134.19 879.407  19 
   9  -1   2 8487.90 752.308  75 
   9  -1   2 7691.98 779.881  74 
  -9  -1  -2 6967.88 821.317  26 
   9  -1   3 5528.42 908.740  24 
   9  -1   3 6216.10 834.746   6 
  -9  -1  -3 6357.16 820.455  39 
  -9  -1  -3 6641.36 749.238  19 
   9  -1   3 6521.34 611.131  75 
   9  -1   3 6178.87 681.637  74 
  -9  -1  -3 5872.82 814.664  27 
  -9  -1  -3 6569.95 784.630  26 
   9  -1   4 5575.82 843.161  24 
  -9  -1  -4 8387.69 789.081  19 
   9  -1   4 7455.04 594.832  75 
   9  -1   4 6932.94 683.160  74 
   9  -1   4 6650.05 1061.59  15 
  -9  -1  -4 8659.88 911.566  27 
  -9  -1  -4 8168.23 844.251  26 
   9  -1   5 13985.6 1226.66  24 
   9  -1   5 16315.2 981.909  74 
   9  -1   5 12710.2 1328.78  15 
  -9  -1  -5 17034.6 1208.64  27 
  -9  -1  -5 15594.7 1125.20  26 
   9  -1   6 2097.52 432.211  24 
  -9  -1  -6 2917.05 436.539  39 
  -9  -1  -6 3259.20 456.272  27 
   9  -1   6 2331.93 522.988  15 
  -9  -1  -6 2408.03 403.470  26 
  -9  -1  -7 5660.80 520.339  39 
  -9  -1  -7 6278.14 554.577  26 
  -9   0  15 11843.3 772.821  42 
   9   0 -15 12054.7 743.347   3 
   9   0 -15 10755.6 694.904   8 
  -9   0  14 11480.9 838.931  42 
   9   0 -14 11219.6 681.628   1 
   9   0 -14 10059.4 865.537  40 
   9   0 -14 10111.3 752.286   3 
  -9   0  14 10674.6 732.393  30 
   9   0 -14 11404.5 804.659   8 
   9   0 -13 48623.2 1920.04   1 
  -9   0  13 50925.9 2232.88  42 
  -9   0  13 50767.7 2246.52  41 
   9   0 -13 48078.9 2300.45  40 
   9   0 -13 50499.2 2138.23   3 
  -9   0  13 47218.8 2323.63  36 
  -9   0  13 49005.4 2072.47  30 
   9   0 -13 51552.6 2172.01   8 
  -9   0  12 119.003 235.356  41 
   9   0 -12 84.9505 246.220  40 
  -9   0  12 47.4836 232.631  36 
   9   0 -12 69.1446 127.092   1 
  -9   0  12 304.956 327.828  17 
  -9   0  12-32.1427 167.647  30 
  -9   0  12 150.731 246.152  14 
   9   0 -12 174.737 229.708   8 
  -9   0  11 250.391 247.967  41 
   9   0 -11 627.371 275.238  40 
  -9   0  11 551.120 317.166  36 
   9   0 -11 532.284 187.934   1 
   9   0 -11 466.321 268.778   8 
  -9   0  10 5699.12 686.026  41 
   9   0 -10 5538.10 661.845  40 
  -9   0  10 5915.84 765.975  36 
  -9   0  10 5415.68 762.864  13 
   9   0  -9 22212.9 1351.73  40 
  -9   0   9 21380.6 1518.61  36 
   9   0  -9 24384.3 1763.94  33 
   9   0  -9 25569.0 1376.42   8 
  -9   0   9 22762.8 1618.67  13 
   9   0  -8 91294.5 3447.61  40 
  -9   0   8 95513.1 3877.44  36 
  -9   0   8 95872.2 3818.29  19 
   9   0  -8 94354.5 4113.81  33 
   9   0  -8 93570.8 3574.49  59 
   9   0  -8 98900.1 3507.80   8 
  -9   0   8 90328.8 3280.83  52 
  -9   0   8 95902.1 4007.79  13 
   9   0  -7 80940.5 3933.64   6 
  -9   0   7 81350.7 3529.08  19 
   9   0  -7 82499.0 3755.48  33 
   9   0  -7 87981.6 3182.55   8 
  -9   0   7 87743.9 3300.62  56 
  -9   0   7 84218.3 3034.13  52 
  -9   0   7 87999.7 3739.13  13 
   9   0  -6 31434.9 2148.04   6 
  -9   0   6 31944.1 1872.39  19 
   9   0  -6 33521.5 1536.80   8 
  -9   0   6 30418.2 1612.07  56 
  -9   0   6 30631.5 1441.29  52 
  -9   0   6 31882.3 1936.54  13 
   9   0  -5 72536.0 3563.17   6 
   9   0  -5 61065.1 2618.61  76 
  -9   0   5 73574.8 3168.90  19 
   9   0  -5 70826.7 3219.78  33 
   9   0  -5 74089.4 2869.67  59 
   9   0  -5 69736.3 2629.07   8 
  -9   0   5 72623.6 3161.64  27 
  -9   0   5 70662.4 2839.26  56 
  -9   0   5 70061.8 2604.70  52 
   9   0  -4 542.851 393.663  24 
   9   0  -4 783.774 423.931   6 
  -9   0   4 1416.96 411.108  19 
   9   0  -4 1235.88 402.785  33 
  -9   0   4 793.319 219.088  67 
  -9   0   4 1304.34 322.379  56 
  -9   0   4 1343.29 404.109  27 
  -9   0   4 1429.56 268.161  52 
   9   0  -4 1375.65 271.476   8 
   9   0  -3 36481.7 2541.77  24 
   9   0  -3 45096.4 2636.08   6 
  -9   0   3 44599.8 2194.15  39 
  -9   0   3 47616.7 2371.22  19 
   9   0  -3 46932.9 2322.98  33 
  -9   0   3 41720.6 1825.58  67 
  -9   0   3 46419.0 2383.90  27 
  -9   0   3 42402.3 2023.01  56 
  -9   0   3 43531.7 1837.36  52 
   9   0  -2 191541. 8146.31  24 
   9   0  -2 239493. 8349.59   6 
  -9   0   2 231233. 7640.71  39 
   9   0  -2 241629. 7710.87  33 
  -9   0   2 231344. 7121.98  67 
   9   0  -2 224476. 7235.39  60 
   9   0  -2 204871. 8410.03  15 
  -9   0   2 247570. 7948.79  27 
  -9   0   2 220708. 7364.98  56 
   9   0  -1 10422.1 1293.70  24 
  -9   0   1 13496.9 1138.25  39 
   9   0  -1 11807.1 923.649  75 
   9   0  -1 14595.1 1123.68  33 
  -9   0   1 12777.3 860.554  67 
   9   0  -1 14328.7 949.990  60 
   9   0  -1 11599.8 1440.80  15 
  -9   0   1 15217.4 1269.51  27 
  -9   0   1 11920.4 971.853  56 
   9   0   0-159.607 363.968  24 
  -9   0   0 49.9957 244.937  39 
   9   0   0 33.9984 155.067  75 
   9   0   0 41.8437 183.359  33 
   9   0   0 462.171 467.695  15 
  -9   0   0 226.845 286.948  27 
   9   0   1 79.9832 404.694  24 
  -9   0  -1-51.1306 266.669  39 
   9   0   1 32.0877 134.619  75 
   9   0   1-93.7387 393.263  15 
  -9   0  -1 84.1953 206.240  26 
   9   0   2 506.330 333.907  45 
   9   0   2 77.1132 413.936  24 
  -9   0  -2 358.137 296.705  39 
   9   0   2 446.568 244.763  74 
   9   0   2-92.5923 405.824  15 
  -9   0  -2 303.489 212.590  26 
   9   0   3 8636.02 958.857  45 
   9   0   3 7676.07 953.567   6 
  -9   0  -3 9081.99 935.751  39 
   9   0   3 7176.27 711.126  74 
   9   0   3 8158.46 1183.75  15 
  -9   0  -3 8299.64 827.481  26 
   9   0   4 12420.9 1102.11  45 
   9   0   4 8928.01 1086.83  24 
   9   0   4 10189.2 1042.50   6 
  -9   0  -4 12268.5 1040.32  39 
   9   0   4 10863.5 842.057  74 
   9   0   4 10861.7 1329.80  15 
  -9   0  -4 10709.5 929.712  26 
   9   0   5 10215.9 952.707  45 
   9   0   5 8439.25 1000.50  24 
   9   0   5 9595.05 925.426   6 
  -9   0  -5 10147.2 920.522  39 
   9   0   5 10209.1 729.911  74 
   9   0   5 9857.20 1219.15  15 
  -9   0  -5 10184.4 863.395  26 
  -9   0  -6 129519. 4436.01  39 
  -9   0  -6 121766. 4207.31  19 
  -9   0  -6 132339. 4502.17  27 
  -9   0  -6 128470. 4343.48  26 
  -9   0  -7 18080.7 1032.54  27 
  -9   0  -7 18199.3 999.336  26 
  -9   1  15 1562.01 250.605  42 
  -9   1  15 1143.38 213.693  30 
   9   1 -15 1306.88 214.451   3 
   9   1 -15 1623.02 230.117   8 
  -9   1  14 10274.6 744.296  42 
  -9   1  14 9980.77 651.770  22 
   9   1 -14 10632.2 828.057  40 
  -9   1  14 10329.2 744.458  30 
   9   1 -14 11125.4 717.666   8 
  -9   1  13 9380.56 764.043  42 
  -9   1  13 9609.90 779.905  41 
   9   1 -13 7787.85 761.654  40 
  -9   1  13 10263.9 785.294  30 
   9   1 -13 8409.43 561.700   1 
   9   1 -13 8963.44 693.182   8 
  -9   1  12 10632.0 859.937  42 
  -9   1  12 9692.17 854.041  41 
   9   1 -12 11169.8 896.230  40 
  -9   1  12 11533.0 933.592  36 
  -9   1  12 9465.00 939.583  17 
   9   1 -12 11332.1 816.973   8 
  -9   1  11 7477.53 742.698  41 
   9   1 -11 7218.73 712.852  40 
  -9   1  11 6676.04 748.357  36 
  -9   1  11 6501.79 789.088  17 
   9   1 -11 6744.18 633.729   8 
  -9   1  10 8332.34 796.336  41 
   9   1 -10 7272.17 706.796  40 
  -9   1  10 7835.93 822.012  36 
   9   1 -10 7429.51 886.624  33 
  -9   1  10 8882.78 924.490  17 
   9   1 -10 7896.58 686.165   8 
   9   1  -9 1250.53 294.898  40 
  -9   1   9 1018.58 362.334  36 
   9   1  -9 825.010 342.225  33 
  -9   1   9 1309.53 404.116  17 
   9   1  -8 110941. 3899.03  40 
  -9   1   8 114688. 4371.81  36 
   9   1  -8 109128. 4489.22  33 
   9   1  -8 114175. 3871.06   8 
  -9   1   8 113532. 4383.15  13 
   9   1  -7 14199.9 871.778  40 
   9   1  -7 14040.4 1205.69  33 
   9   1  -7 14191.0 865.853   8 
   9   1  -7 14117.5 1021.53  59 
  -9   1   7 13006.5 896.448  52 
   9   1  -7 13584.6 995.456   5 
  -9   1   7 12597.5 1110.14  13 
   9   1  -6 28362.4 1911.23   6 
   9   1  -6 30377.9 1358.45  40 
   9   1  -6 29520.6 1814.10  33 
   9   1  -6 32757.8 1399.63   8 
   9   1  -6 29642.7 1588.16  59 
  -9   1   6 30861.5 1570.19  56 
   9   1  -6 26840.9 1501.56   5 
  -9   1   6 30299.3 1487.84  52 
   9   1  -5 18275.4 1493.42   6 
  -9   1   5 18684.4 1283.92  19 
   9   1  -5 18492.6 959.970   8 
   9   1  -5 17912.1 1149.43  59 
  -9   1   5 17203.3 1115.00  56 
   9   1  -5 16812.0 1094.50   5 
  -9   1   5 19690.3 1122.07  52 
   9   1  -4 43218.3 2575.05  24 
  -9   1   4 43813.8 1969.61  67 
   9   1  -4 49748.6 1850.45   8 
   9   1  -4 53310.7 2218.79  59 
  -9   1   4 46169.9 2119.14  56 
  -9   1   4 50084.2 2076.80  52 
   9   1  -3 29802.6 2152.78  24 
   9   1  -3 33638.9 1715.30  34 
  -9   1   3 38647.4 1682.42  67 
   9   1  -3 36723.3 1719.04   5 
  -9   1   3 38919.6 1836.32  56 
  -9   1   3 41412.9 1782.52  52 
   9   1  -2 23696.8 1869.32  24 
   9   1  -2 24254.7 1381.11  34 
  -9   1   2 27403.6 1355.05  67 
   9   1  -2 29251.8 1448.68  60 
  -9   1   2 32090.7 1760.24  27 
   9   1  -2 26768.3 1384.19   5 
  -9   1   2 27713.2 1502.01  56 
   9   1  -1 14243.9 1377.29  24 
   9   1  -1 12608.3 897.016  34 
   9   1  -1 13696.3 1434.50  15 
   9   1  -1 14578.9 926.177   5 
   9   1   0 14147.6 1389.20  24 
  -9   1   0 17310.0 1182.75  39 
   9   1   0 13258.9 914.350  34 
   9   1   0 14979.7 1501.48  15 
   9   1   0 14679.4 925.425   5 
   9   1   1 10148.2 1163.46  24 
  -9   1  -1 11086.6 954.093  39 
   9   1   1 7654.20 667.658  34 
   9   1   1 10816.4 1318.94  15 
   9   1   1 10260.9 729.524   5 
   9   1   2 6714.95 974.520  24 
  -9   1  -2 6872.85 745.131  39 
   9   1   2 4376.73 464.588  34 
   9   1   2 6065.72 1016.33  15 
   9   1   3 5223.53 850.453  24 
  -9   1  -3 5943.69 694.475  39 
   9   1   3 5625.31 566.927  74 
   9   1   3 4611.14 890.146  15 
  -9   1  -3 5557.99 600.725  26 
   9   1   4 7381.61 959.405  24 
  -9   1  -4 7710.93 776.213  39 
   9   1   4 7173.77 1024.84  15 
  -9   1  -4 7475.12 692.093  26 
   9   1   5 12106.4 1161.68  24 
  -9   1  -5 14872.4 1027.45  39 
   9   1   5 12663.5 1276.15  15 
  -9   1  -5 14488.4 943.283  26 
   9   1   6 3265.33 448.113   6 
  -9   1  -6 2962.56 418.487  39 
   9   1   6 3250.96 622.630  15 
  -9   1  -6 2822.40 382.005  26 
   9   1   7 4968.01 592.580  24 
  -9   1  -7 5728.57 497.078  39 
   9   1   7 5031.52 637.087  15 
  -9   2  14 6888.20 491.183  22 
   9   2 -14 6990.90 568.489  40 
  -9   2  14 6398.33 504.099  30 
   9   2 -14 6190.78 438.509   8 
  -9   2  13 317.649 167.514  22 
  -9   2  13 176.710 172.121  30 
   9   2 -13 283.753 133.434   8 
  -9   2  12 6894.13 639.376  30 
   9   2 -12 6434.36 538.048   8 
  -9   2  11 9083.18 701.476  41 
   9   2 -11 8588.81 705.362  40 
  -9   2  11 8082.58 767.710  17 
   9   2 -11 8455.69 631.025   8 
  -9   2  10 14261.8 949.539  41 
   9   2 -10 15011.4 953.125  40 
  -9   2  10 14886.3 1107.48  17 
   9   2 -10 14832.2 874.763   8 
  -9   2   9 29293.5 1488.73  41 
   9   2  -9 28626.2 1416.32  40 
   9   2  -9 28206.1 1658.66  33 
  -9   2   9 30892.0 1716.06  17 
  -9   2   8 16429.1 1057.80  41 
   9   2  -8 16272.0 951.920  40 
   9   2  -8 16043.1 1223.59  33 
   9   2  -8 16433.5 912.769   8 
   9   2  -8 15779.6 1014.84   5 
   9   2  -7 8974.78 654.962  40 
  -9   2   7 8680.81 801.089  36 
   9   2  -7 7837.49 643.164  32 
   9   2  -7 9026.85 627.083   8 
   9   2  -7 7663.96 692.485   5 
   9   2  -6 5185.02 469.639  40 
   9   2  -6 4784.88 477.893  32 
   9   2  -6 4799.80 449.540   8 
   9   2  -6 4869.73 534.748   5 
   9   2  -5 326.411 139.237  40 
   9   2  -5 289.812 186.862  34 
   9   2  -5 217.761 151.121  32 
   9   2  -5 446.015 161.393   8 
   9   2  -5 253.833 192.316   5 
   9   2  -4 34469.5 1372.20  40 
   9   2  -4 30438.4 1368.43  32 
   9   2  -4 32268.9 1309.46   8 
   9   2  -4 31992.1 1515.45   5 
   9   2  -3 66839.0 2804.79  34 
   9   2  -3 71415.0 2575.74  32 
   9   2  -3 73999.1 2503.66   8 
   9   2  -2 4532.59 408.566  32 
   9   2  -2 5095.48 513.970   5 
   9   2  -1 6997.05 886.236  24 
   9   2  -1 7050.26 637.489  34 
   9   2  -1 6567.64 471.087  32 
   9   2  -1 6937.56 589.461   5 
   9   2   0 2287.22 532.498  24 
   9   2   0 1825.01 327.993  34 
   9   2   0 1878.80 305.591   5 
   9   2   1 4670.15 755.001  24 
   9   2   1 4362.68 483.478  34 
   9   2   1 4736.93 454.688   5 
   9   2   2 4732.38 731.377  24 
   9   2   2 4090.59 437.024  34 
   9   2   2 3772.60 387.269   5 
   9   2   3 20349.1 1470.31  24 
   9   2   3 18557.7 962.983  34 
   9   2   3 19782.3 1474.94  15 
   9   2   4 5144.98 700.084  24 
  -9   2  -4 4992.16 506.932  39 
   9   2   4 4566.36 663.854  15 
   9   2   5 5506.42 651.859  24 
  -9   2  -5 4945.63 468.409  39 
   9   2   5 4965.37 651.509  15 
   9   2   6 7642.23 691.820  24 
  -9   3  12 1804.10 246.207  22 
   9   3 -12 1345.83 231.537  40 
   9   3 -12 1247.80 184.051   8 
  -9   3  11 8078.86 566.139  30 
   9   3 -11 7672.15 509.868   8 
  -9   3  10 5951.28 521.532  30 
   9   3 -10 5730.90 442.757   8 
   9   3  -9 17060.7 917.390  40 
   9   3  -8 32343.5 1378.14  40 
   9   3  -8 32667.6 1309.36   8 
   9   3  -8 28313.8 1339.53   5 
   9   3  -7 13703.3 782.322  40 
   9   3  -7 14195.0 986.045  33 
   9   3  -7 11411.7 734.708  32 
   9   3  -7 13936.5 737.928   8 
   9   3  -7 12232.2 794.506   5 
   9   3  -6 9397.42 616.110  40 
   9   3  -6 8989.23 568.002   8 
   9   3  -6 8172.46 634.256   5 
   9   3  -5 17547.1 916.476  32 
   9   3  -5 18532.5 869.573   8 
   9   3  -5 18331.8 994.746   5 
   9   3  -4 20219.2 1146.60  34 
   9   3  -4 22182.8 1046.49  32 
   9   3  -4 22862.3 989.137   8 
   9   3  -4 20831.5 1116.11   5 
   9   3  -3 6059.65 447.983  40 
   9   3  -3 4743.34 503.752  34 
   9   3  -3 5212.33 429.534  32 
   9   3  -3 5159.56 385.124   8 
   9   3  -3 4398.21 463.660   5 
   9   3  -2 6030.60 565.109  34 
   9   3  -2 6334.80 465.994  32 
   9   3  -1 20921.1 1135.29  34 
   9   3  -1 21208.2 936.599  32 
   9   3  -1 23123.3 1093.50   5 
   9   3   0 8655.96 592.733   5 
   9   3   1 3760.45 397.703  34 
   9   3   1 3385.31 352.445   5 
   9   3   2 1604.69 251.461  34 
   9   3   2 1486.57 221.770   5 
   9   3   3 4508.52 363.154  34 
   9   4  -8 37935.6 1381.99  40 
   9   4  -7 20594.9 878.440  40 
   9   4  -7 21055.9 838.355   8 
   9   4  -6 6330.30 415.079  40 
   9   4  -6 6292.40 415.172  32 
   9   4  -6 6472.55 385.620   8 
   9   4  -5 2325.27 241.928  40 
   9   4  -5 2196.27 211.646   8 
   9   4  -5 2004.95 240.896   5 
   9   4  -4 2710.86 247.939  40 
   9   4  -4 2462.03 250.224  32 
   9   4  -4 2573.77 216.703   8 
   9   4  -4 2281.61 269.207   5 
   9   4  -3 112.673 75.5733  40 
   9   4  -3 10.8201 95.8253  32 
   9   4  -3 84.7781 104.234   5 
   9   4  -2 5497.50 417.447  34 
   9   4  -2 5677.65 354.399  32 
   9   4  -1 3360.01 308.735  34 
  10  -3 -11 6330.59 388.573  77 
  10  -3 -11 5982.39 396.192  76 
  10  -3 -10 2707.43 275.753  77 
  10  -3 -10 3075.49 312.655  76 
 -10  -3  10 2776.72 430.405  27 
 -10  -3  10 2275.17 416.886  14 
  10  -3  -9 55594.4 1977.28  77 
  10  -3  -9 56169.0 2061.80  76 
 -10  -3   9 57109.5 2503.32  14 
 -10  -3   9 54529.1 2509.78  27 
  10  -3  -8 1095.95 216.631  77 
  10  -3  -8 1457.04 263.053  76 
 -10  -3   8 1569.82 418.588  27 
 -10  -3   8 1743.06 408.373  14 
  10  -3  -7 4738.54 431.480  77 
  10  -3  -7 5830.89 514.333  76 
 -10  -3   7 5676.18 680.096  14 
 -10  -3   7 5589.51 734.630  27 
  10  -3  -6 4728.47 422.615  77 
  10  -3  -6 5083.68 494.992  76 
  10  -3  -6 4550.46 442.112  75 
 -10  -3   6 5203.56 645.082  14 
 -10  -3   6 4259.18 688.171  27 
  10  -3  -5 13996.6 775.438  77 
  10  -3  -5 12952.5 828.532  75 
 -10  -3   5 14401.8 1238.04  27 
  10  -3  -4 5596.21 458.423  77 
  10  -3  -4 5284.41 516.088  75 
  10  -3  -3 11794.9 670.892  77 
  10  -3  -3 12273.7 804.043  75 
 -10  -3   3 9956.11 820.837  26 
 -10  -3   3 9072.10 768.610  47 
  10  -3  -2 4968.32 413.119  77 
  10  -3  -2 5206.42 466.809  76 
  10  -3  -2 4743.93 487.253  75 
  10  -3  -2 4598.53 454.272  73 
 -10  -3   2 5218.66 703.160  27 
 -10  -3   2 4642.18 561.320  26 
  10  -3  -1 8186.58 514.989  77 
  10  -3  -1 7991.84 566.769  76 
  10  -3  -1 7570.80 596.704  75 
  10  -3  -1 7149.56 574.694  73 
 -10  -3   1 8327.49 842.018  27 
 -10  -3   1 7479.01 689.530  26 
  10  -3   0 2509.05 322.175  73 
 -10  -3   0 2621.09 447.059  27 
 -10  -3   0 2218.07 389.202  26 
  10  -3   1 3417.93 340.204  75 
  10  -3   1 2729.39 324.986  73 
 -10  -3  -1 2776.28 388.380  26 
  10  -3   2 2315.03 267.595  73 
  10  -2 -14 9271.74 496.234  76 
  10  -2 -13 468.044 116.261  77 
  10  -2 -13 717.388 177.311  76 
 -10  -2  13 896.155 272.761  14 
  10  -2 -12 1615.58 283.472  76 
 -10  -2  12 2333.07 471.738  14 
  10  -2 -12 1675.90 284.340  48 
 -10  -2  11 7595.24 880.189  14 
  10  -2 -11 6538.41 642.543   8 
 -10  -2  10 10557.9 724.214  42 
  10  -2 -10 10795.0 680.697  77 
 -10  -2  10 10609.7 872.628  36 
 -10  -2  10 11241.0 1114.36  14 
 -10  -2  10 10663.1 973.400  27 
  10  -2 -10 11355.2 879.639   8 
 -10  -2   9 13290.3 843.935  41 
  10  -2  -9 12926.1 782.502  77 
  10  -2  -9 11905.4 886.558  76 
 -10  -2   9 13546.5 1011.00  36 
  10  -2  -9 12176.9 836.350  75 
 -10  -2   9 13433.2 1190.95  27 
  10  -2  -9 11628.1 918.692   8 
 -10  -2   8 2904.55 400.192  41 
  10  -2  -8 3101.52 379.756  77 
  10  -2  -8 3390.39 485.446  76 
 -10  -2   8 3862.44 531.564  36 
  10  -2  -8 3801.28 467.059  75 
 -10  -2   8 3309.64 639.185  27 
  10  -2  -8 3478.83 486.434   8 
  10  -2  -7 3778.46 418.837  77 
  10  -2  -7 4125.31 524.008  76 
 -10  -2   7 3121.64 490.184  36 
  10  -2  -7 3841.47 504.155  75 
 -10  -2   7 3616.01 679.315  27 
  10  -2  -7 3496.80 483.590   8 
 -10  -2   7 4110.73 681.524  13 
 -10  -2   6 2542.41 536.736  13 
  10  -2  -6 3116.55 382.532  77 
  10  -2  -6 3147.41 465.895  76 
 -10  -2   6 3083.13 479.757  36 
  10  -2  -6 3168.52 467.000  75 
 -10  -2   6 2834.52 646.057  27 
  10  -2  -5 15821.8 925.295  77 
  10  -2  -5 15710.1 1047.87  76 
 -10  -2   5 15072.9 1064.38  36 
  10  -2  -5 16221.9 1111.78  75 
  10  -2  -5 15052.1 983.193  74 
 -10  -2   5 18300.6 1533.74  27 
 -10  -2   5 15595.5 1298.16  13 
 -10  -2   4 2619.77 527.219  13 
  10  -2  -4 2589.46 355.258  77 
  10  -2  -4 2713.61 427.342  76 
 -10  -2   4 2884.48 432.919  36 
  10  -2  -4 2432.06 432.508  75 
  10  -2  -4 2910.57 429.133  74 
 -10  -2   4 2513.84 608.063  27 
 -10  -2   3 6961.40 881.200  39 
  10  -2  -3 9699.54 676.679  77 
  10  -2  -3 8907.39 756.650  76 
 -10  -2   3 9807.41 1043.22  19 
  10  -2  -3 9285.29 807.068  74 
 -10  -2   3 9648.74 1111.18  27 
 -10  -2   3 9437.79 942.137  13 
 -10  -2   2 2299.92 452.311  13 
 -10  -2   2 2393.13 536.896  39 
  10  -2  -2 2374.70 332.026  77 
  10  -2  -2 2301.25 386.144  76 
  10  -2  -2 2515.73 432.646  75 
  10  -2  -2 2291.63 414.141  74 
 -10  -2   2 2432.71 546.681  19 
 -10  -2   2 2425.20 602.253  27 
 -10  -2   2 2032.98 434.340  26 
 -10  -2   1 7291.08 853.643  39 
  10  -2  -1 7926.45 575.487  77 
  10  -2  -1 7463.25 630.086  76 
  10  -2  -1 6749.35 691.782  75 
 -10  -2   1 7336.24 843.509  19 
  10  -2  -1 7487.61 721.619  74 
 -10  -2   1 6259.56 736.928  26 
 -10  -2   1 6793.13 711.601  13 
 -10  -2   0 4612.57 679.987  39 
  10  -2   0 5240.40 452.771  77 
  10  -2   0 5071.54 490.776  76 
  10  -2   0 5076.89 561.846  75 
 -10  -2   0 5133.57 662.204  19 
  10  -2   0 5306.38 606.405  74 
 -10  -2   0 4356.95 708.176  27 
 -10  -2   0 5104.11 670.312  26 
 -10  -2  -1 5531.22 711.825  39 
  10  -2   1 5868.62 580.027  75 
 -10  -2  -1 5838.10 652.487  19 
 -10  -2  -1 6412.21 636.348  35 
 -10  -2  -1 6372.51 788.689  27 
 -10  -2  -1 5463.24 664.256  26 
  10  -2   2 8851.79 653.412  75 
 -10  -2  -2 7816.72 677.554  35 
 -10  -2  -2 8248.45 844.319  27 
 -10  -2  -2 8408.85 787.754  26 
 -10  -2  -3 10871.1 856.634  39 
  10  -2   3 10018.0 628.825  75 
 -10  -2  -3 9258.31 705.153  35 
 -10  -2  -3 12182.2 901.029  27 
 -10  -2  -3 10998.9 846.608  26 
 -10  -2  -4 530.405 194.884  39 
  10  -2   4 667.683 174.199  73 
 -10  -2  -4 354.299 181.672  26 
  10  -1 -15 5203.73 379.770  76 
 -10  -1  14 6843.72 530.367  42 
  10  -1 -14 6386.16 500.287  76 
  10  -1 -14 6801.25 558.689   8 
 -10  -1  13 8877.34 681.063  42 
 -10  -1  13 9449.52 695.179  41 
  10  -1 -13 7891.77 662.959   3 
 -10  -1  13 8726.05 830.389  14 
  10  -1 -13 8959.26 723.632   8 
 -10  -1  12 9054.42 743.301  42 
 -10  -1  12 9135.14 740.804  41 
  10  -1 -12 9793.00 767.959   3 
 -10  -1  12 10918.8 1017.68  14 
 -10  -1  11 7079.38 682.889  41 
  10  -1 -11 7501.83 684.394   3 
 -10  -1  11 6590.29 867.193  14 
  10  -1 -11 7472.42 724.612   8 
 -10  -1  10 4697.95 573.769  41 
  10  -1 -10 4645.42 553.004  76 
 -10  -1  10 4520.55 649.894  36 
  10  -1 -10 4213.90 526.892   3 
 -10  -1  10 4414.61 618.602  17 
  10  -1 -10 4452.52 570.612   8 
  10  -1  -9 14222.8 1021.03  76 
 -10  -1   9 16069.9 1234.13  36 
  10  -1  -9 15484.9 1043.82   3 
 -10  -1   9 15851.2 1204.87  17 
  10  -1  -9 16298.8 1126.85   8 
 -10  -1   9 16516.6 1383.66  13 
  10  -1  -8 31352.8 1400.65  77 
 -10  -1   8 34231.3 1905.65  36 
  10  -1  -8 31606.4 1639.04  76 
  10  -1  -8 30827.4 1580.99   3 
 -10  -1   8 32383.9 1824.40  17 
  10  -1  -8 34563.1 1729.20   8 
 -10  -1   8 33262.4 1994.94  27 
 -10  -1   8 30890.0 2007.86  13 
  10  -1  -7 38650.0 1610.73  77 
 -10  -1   7 37797.9 2063.93  36 
  10  -1  -7 36953.9 1843.40  76 
 -10  -1   7 39029.3 2236.58  19 
 -10  -1   7 41012.8 2042.66  17 
  10  -1  -7 36705.3 1756.08   3 
 -10  -1   7 40544.6 2305.54  27 
  10  -1  -7 39649.6 1871.04   8 
 -10  -1   7 38796.1 2277.49  13 
  10  -1  -6 5345.32 495.457  77 
 -10  -1   6 7669.07 821.857  36 
  10  -1  -6 5730.51 625.445  76 
 -10  -1   6 6368.52 859.400  19 
  10  -1  -6 4973.69 558.001  74 
 -10  -1   6 6011.64 695.524  17 
 -10  -1   6 6686.51 886.047  27 
  10  -1  -6 5805.72 612.456   8 
 -10  -1   5 11536.7 1051.88  39 
  10  -1  -5 11181.4 727.910  77 
  10  -1  -5 10100.3 836.626  76 
 -10  -1   5 13427.0 1225.91  19 
  10  -1  -5 11234.9 943.329  75 
  10  -1  -5 10820.3 869.573  74 
 -10  -1   5 12821.0 1232.53  27 
 -10  -1   5 13457.4 1255.22  13 
  10  -1  -4 81064.2 4088.09   6 
 -10  -1   4 77180.2 3396.42  39 
  10  -1  -4 78794.9 2781.19  77 
  10  -1  -4 77812.1 3013.32  76 
 -10  -1   4 81470.3 3618.65  19 
  10  -1  -4 76710.3 3161.12  75 
  10  -1  -4 76693.5 3093.04  74 
 -10  -1   4 82451.5 3708.02  27 
 -10  -1   4 76999.0 3526.87  13 
 -10  -1   3 3847.72 628.204  39 
  10  -1  -3 3999.58 411.511  77 
  10  -1  -3 3879.32 486.111  76 
  10  -1  -3 3871.88 554.988  75 
  10  -1  -3 3515.68 503.163  74 
 -10  -1   3 3691.63 666.949  19 
 -10  -1   3 3189.62 663.735  27 
 -10  -1   3 3181.92 608.108  13 
  10  -1  -2 18244.1 1752.30   6 
 -10  -1   2 21373.3 1537.65  39 
  10  -1  -2 21562.9 1062.13  77 
  10  -1  -2 21079.8 1192.49  76 
  10  -1  -2 20906.2 1322.91  75 
  10  -1  -2 20043.3 1307.19  74 
 -10  -1   2 22295.2 1685.15  27 
 -10  -1   2 22676.7 1569.32  13 
  10  -1  -1 28982.0 2124.33   6 
 -10  -1   1 27311.4 1783.42  39 
  10  -1  -1 28603.7 1270.73  77 
  10  -1  -1 28576.0 1397.01  76 
 -10  -1   1 27949.1 1823.84  19 
  10  -1  -1 25833.1 1503.70  75 
 -10  -1   1 29586.5 1951.40  27 
 -10  -1   1 27606.5 1726.70  13 
  10  -1   0 6410.53 964.810   6 
 -10  -1   0 5112.31 734.013  39 
  10  -1   0 6002.65 533.460  76 
 -10  -1   0 6414.97 808.837  19 
  10  -1   0 6395.63 657.668  75 
  10  -1   0 5148.35 633.137  74 
 -10  -1   0 5295.76 792.885  27 
 -10  -1   0 5661.39 693.691  26 
 -10  -1   0 5569.42 709.928  13 
  10  -1   1 2161.05 651.099  24 
 -10  -1  -1 2543.80 519.244  39 
  10  -1   1 2408.39 597.563   6 
  10  -1   1 2226.20 378.138  75 
 -10  -1  -1 2131.47 475.492  19 
  10  -1   1 2433.08 439.181  74 
 -10  -1  -1 2790.54 606.479  27 
 -10  -1  -1 2806.39 496.138  26 
 -10  -1  -1 2386.30 456.859  13 
  10  -1   2 1180.23 483.091  24 
 -10  -1  -2 2125.05 479.979  39 
  10  -1   2 1781.42 484.844   6 
  10  -1   2 1661.56 299.901  75 
 -10  -1  -2 1668.66 389.102  19 
  10  -1   2 1345.40 338.174  74 
 -10  -1  -2 1711.18 381.365  26 
 -10  -1  -2 1521.12 321.704  13 
  10  -1   3 6997.33 909.670  24 
 -10  -1  -3 7177.61 778.717  39 
  10  -1   3 6411.35 756.605   6 
  10  -1   3 8512.04 585.408  75 
 -10  -1  -3 8258.56 750.759  19 
  10  -1   3 9610.49 742.692  74 
 -10  -1  -3 9293.76 897.159  27 
 -10  -1  -3 7875.92 756.115  26 
 -10  -1  -4 5692.39 628.695  39 
 -10  -1  -4 5386.23 524.612  19 
  10  -1   4 5713.32 526.318  74 
 -10  -1  -4 5939.91 655.755  27 
 -10  -1  -4 5760.69 592.452  26 
  10  -1   5 9294.08 565.812  73 
 -10  -1  -5 9948.47 757.424  27 
 -10  -1  -5 11269.4 754.420  26 
 -10   0  15 41658.2 1615.67  42 
  10   0 -15 40921.4 1584.27   3 
 -10   0  14 293.444 154.936  42 
  10   0 -14 364.689 213.111  40 
  10   0 -14 404.346 170.740   3 
  10   0 -14 280.779 162.373   8 
 -10   0  13 20814.1 1166.96  42 
 -10   0  13 21069.3 1174.54  41 
  10   0 -13 19375.1 1186.32  40 
 -10   0  13 16733.8 1164.59  36 
 -10   0  13 19289.8 1022.24  30 
  10   0 -13 20952.2 1155.11   8 
 -10   0  12 3553.32 498.892  41 
  10   0 -12 3426.60 488.350  40 
  10   0 -12 3956.32 469.829   3 
 -10   0  12 3856.13 564.764  36 
 -10   0  12 3835.33 447.674  30 
  10   0 -12 3513.32 475.726   8 
 -10   0  12 3985.63 591.774  14 
 -10   0  11 5757.31 644.829  41 
  10   0 -11 5115.73 596.600  40 
  10   0 -11 5048.17 540.718   3 
 -10   0  11 5173.88 673.297  36 
 -10   0  10 3393.12 602.811  13 
 -10   0  10 3016.38 507.830  41 
  10   0 -10 2523.28 425.141  40 
  10   0 -10 2662.97 404.043   3 
 -10   0  10 2677.68 522.398  36 
  10   0 -10 2512.64 437.739   8 
 -10   0   9 28399.9 1728.03  36 
 -10   0   9 26543.9 1696.89  17 
  10   0  -9 28353.3 1497.27   8 
 -10   0   9 26510.0 1759.11  13 
 -10   0   8 46599.8 2343.74  36 
  10   0  -8 40187.6 1922.47  76 
 -10   0   8 41873.0 2206.93  19 
 -10   0   8 49458.6 2381.55  17 
  10   0  -8 44127.9 2542.95  33 
  10   0  -8 45161.0 2021.59   8 
 -10   0   8 45763.4 2436.91  13 
  10   0  -7 62962.3 3283.06   6 
  10   0  -7 58735.3 2345.68   3 
  10   0  -7 57693.5 2425.53  76 
 -10   0   7 59990.3 2822.93  19 
  10   0  -7 60136.2 3048.89  33 
  10   0  -7 64140.2 2490.93   8 
 -10   0   7 60849.7 2968.50  13 
  10   0  -6 304.753 360.609   6 
  10   0  -6 180.697 170.395  76 
 -10   0   6 156.886 272.762  19 
  10   0  -6 29.5296 162.849   8 
 -10   0   6 57.3947 271.664  13 
  10   0  -5 1078.62 497.843   6 
 -10   0   5 1387.01 448.626  19 
  10   0  -5 876.045 392.076  33 
 -10   0   5 1204.27 381.665  27 
  10   0  -5 947.875 246.497   8 
 -10   0   5 1309.51 462.132  13 
  10   0  -4 6250.41 975.790   6 
 -10   0   4 7550.67 892.279  19 
  10   0  -4 7133.29 884.824  33 
 -10   0   4 6660.52 827.642  27 
  10   0  -3 9348.65 1225.11  24 
  10   0  -3 12212.5 1351.07   6 
 -10   0   3 12988.2 1163.57  19 
  10   0  -3 11164.6 896.776  75 
  10   0  -3 11734.7 1122.87  33 
 -10   0   3 13123.4 1182.69  27 
  10   0  -2 16821.6 1655.02  24 
  10   0  -2 17490.3 1615.12   6 
 -10   0   2 18936.3 1340.39  39 
 -10   0   2 18962.6 1413.20  19 
  10   0  -2 16569.9 1131.19  75 
  10   0  -2 17401.3 1318.23  33 
 -10   0   2 19680.1 1467.67  27 
  10   0  -1 744.577 480.021  24 
 -10   0   1 477.906 308.960  39 
  10   0  -1 714.424 255.453  75 
 -10   0   1 955.414 380.386  19 
  10   0  -1 773.726 299.886  33 
  10   0  -1 818.247 514.738  15 
 -10   0   1 1016.58 417.087  27 
  10   0   0 811.378 447.579  24 
  10   0   0 426.311 336.563   6 
 -10   0   0 431.560 297.462  39 
  10   0   0 529.299 216.149  75 
  10   0   0 724.520 269.764  33 
  10   0   0 270.382 411.279  15 
 -10   0   0 222.613 281.923  27 
  10   0   1 3426.12 788.477  24 
 -10   0  -1 3340.78 551.853  39 
  10   0   1 4265.20 756.253   6 
  10   0   1 3857.56 515.438  74 
  10   0   1 2976.16 773.945  15 
 -10   0  -1 3988.38 651.291  27 
  10   0   2 10438.4 1227.09  24 
  10   0   2 11893.3 1170.65   6 
 -10   0  -2 11453.0 991.742  39 
  10   0   2 11207.4 863.017  74 
  10   0   2 9074.24 1219.42  15 
 -10   0  -2 11754.5 1083.28  27 
 -10   0  -2 10270.6 857.310  26 
  10   0   3 12505.3 1117.92   6 
 -10   0  -3 11396.3 962.306  39 
 -10   0  -3 10748.3 930.494  19 
  10   0   3 12093.1 840.854  74 
  10   0   3 10907.9 1266.58  15 
 -10   0  -3 11531.4 1024.01  27 
 -10   0  -3 11256.0 878.502  26 
  10   0   4 15223.8 1318.98  24 
  10   0   4 15708.2 1167.87   6 
 -10   0  -4 17596.7 1141.10  39 
 -10   0  -4 17599.2 1100.02  19 
  10   0   4 18013.2 969.598  74 
  10   0   4 15286.7 1417.28  15 
 -10   0  -4 18372.7 1232.44  27 
 -10   0  -4 18226.7 1070.28  26 
  10   0   5 1328.28 366.025  24 
 -10   0  -5 1602.86 316.379  39 
 -10   0  -5 1517.51 286.084  19 
  10   0   5 1590.92 437.513  15 
 -10   0  -5 1494.04 276.535  26 
 -10   1  14 6654.16 519.053  42 
  10   1 -14 5653.09 553.371  40 
  10   1 -14 7157.33 516.498   3 
 -10   1  14 7399.14 537.902  30 
  10   1 -14 6869.14 522.361   8 
 -10   1  13 8700.08 672.809  42 
 -10   1  13 8901.01 690.523  41 
 -10   1  13 9740.03 620.536  22 
  10   1 -13 9128.34 734.035  40 
 -10   1  13 8291.53 653.057  30 
  10   1 -13 9912.10 696.544   8 
 -10   1  12 8287.01 702.389  42 
 -10   1  12 9999.56 772.514  41 
  10   1 -12 10301.5 797.464  40 
 -10   1  12 8209.38 742.373  36 
 -10   1  12 9279.69 848.600  17 
  10   1 -12 9293.59 708.052   8 
 -10   1  11 6171.85 655.759  41 
  10   1 -11 7168.14 660.191  40 
 -10   1  11 5925.64 665.616  36 
 -10   1  11 7510.27 789.421  17 
 -10   1  10 3556.84 518.710  41 
  10   1 -10 4315.27 520.207  40 
 -10   1  10 4687.14 603.032  36 
  10   1 -10 4062.92 672.682  33 
 -10   1  10 4627.31 644.106  17 
  10   1 -10 4316.26 500.659   8 
  10   1  -9 14614.2 964.647  40 
 -10   1   9 15815.4 1182.37  36 
  10   1  -9 13383.8 1214.00  33 
 -10   1   9 15543.3 1227.73  17 
  10   1  -9 17051.7 1009.04   8 
 -10   1   9 13762.6 1123.50  13 
  10   1  -8 30524.9 1504.57  40 
 -10   1   8 33368.0 1852.76  36 
  10   1  -8 33490.4 2011.92  33 
  10   1  -8 35444.5 1581.20   8 
 -10   1   8 33530.1 1891.19  13 
  10   1  -7 40178.3 2265.40  33 
  10   1  -7 40467.3 1753.18   8 
 -10   1   7 40759.6 2166.41  13 
  10   1  -6 6818.38 898.829   6 
  10   1  -6 5095.85 754.316  33 
  10   1  -6 5992.80 534.726   8 
 -10   1   6 6374.61 799.954  13 
  10   1  -5 12061.2 1232.34   6 
 -10   1   5 11287.7 999.018  19 
  10   1  -5 12401.6 776.190   8 
  10   1  -4 76193.8 3612.53   6 
 -10   1   4 74488.3 3121.17  19 
  10   1  -4 71247.1 2863.55   5 
  10   1  -3 3608.65 711.545  24 
  10   1  -3 3478.20 707.676   6 
  10   1  -3 3462.69 490.110   5 
 -10   1   2 21316.5 1431.23  27 
  10   1  -2 22076.2 1237.99   5 
  10   1  -1 23970.9 1881.77  24 
  10   1  -1 24027.8 1927.94  15 
  10   1  -1 25739.6 1365.98   5 
  10   1   0 6156.17 931.473  24 
 -10   1   0 6339.32 752.654  27 
  10   1   0 3900.29 797.031  15 
  10   1   1 2651.36 611.991  24 
 -10   1  -1 2795.84 452.654  39 
  10   1   1 1464.00 520.152  15 
 -10   1  -1 2928.92 531.905  27 
  10   1   2 1591.02 529.620  24 
 -10   1  -2 1315.39 336.250  39 
  10   1   2 1696.67 321.470  74 
  10   1   2 2007.75 555.530  15 
 -10   1  -2 1337.13 368.506  27 
  10   1   3 8568.24 977.440  24 
 -10   1  -3 9749.53 778.682  39 
  10   1   3 7692.55 604.328  74 
  10   1   3 8069.85 988.874  15 
 -10   1  -3 9313.70 840.353  27 
  10   1   4 5384.94 740.026  24 
  10   1   4 6446.24 699.887   6 
 -10   1  -4 4673.98 515.419  39 
  10   1   4 4895.64 732.771  15 
 -10   1  -4 4734.48 568.170  27 
  10   1   5 8150.96 792.028  24 
 -10   1  -5 8906.52 639.560  39 
  10   1   5 8264.61 837.442  15 
 -10   1  -5 10507.9 741.529  27 
 -10   2  13 775.584 181.812  22 
  10   2 -13 837.340 211.070  40 
 -10   2  13 534.724 161.411  30 
  10   2 -13 705.483 173.188   8 
  10   2 -12 1849.02 312.301  40 
 -10   2  12 1679.15 282.989  30 
  10   2 -12 1578.25 253.890   8 
  10   2 -11 5547.66 530.170  40 
 -10   2  11 5265.08 568.596  17 
  10   2 -11 6359.75 516.274   8 
  10   2 -10 10678.2 743.496  40 
  10   2 -10 9714.96 843.225  33 
 -10   2  10 9992.53 839.792  17 
 -10   2   9 12027.2 827.116  41 
  10   2  -9 13191.5 830.321  40 
  10   2  -9 12382.5 1024.47  33 
 -10   2   9 14107.0 1038.75  17 
  10   2  -9 14816.9 841.528   8 
 -10   2   8 3596.15 435.516  41 
  10   2  -8 3339.15 395.532  40 
  10   2  -8 2396.78 498.022  33 
  10   2  -8 3516.56 392.026   8 
  10   2  -7 3641.91 397.019  40 
 -10   2   7 3777.93 499.050  36 
  10   2  -7 3342.25 568.478  33 
  10   2  -7 4046.09 409.093   8 
  10   2  -7 3970.41 495.548   5 
  10   2  -6 2638.54 329.639  40 
  10   2  -6 2491.75 514.446  33 
  10   2  -6 3018.49 342.664   8 
  10   2  -6 2484.35 403.587   5 
  10   2  -5 15502.4 821.359   8 
  10   2  -5 14583.8 975.946   5 
  10   2  -4 1714.46 469.633   6 
  10   2  -4 2746.36 308.673   8 
  10   2  -3 8182.50 687.512   5 
  10   2  -2 1757.03 344.075  34 
  10   2  -2 2253.61 354.581   5 
  10   2  -1 6399.75 596.893  34 
  10   2  -1 6074.80 547.629   5 
  10   2   0 3780.57 623.745  24 
  10   2   0 3552.83 423.892  34 
  10   2   0 4094.78 428.232   5 
  10   2   1 5143.50 714.861  24 
 -10   2  -1 5467.96 572.947  27 
  10   2   1 4841.87 439.149   5 
  10   2   2 6456.17 766.623  24 
 -10   2  -2 7585.58 651.878  27 
  10   2   3 9045.10 852.905  24 
 -10   2  -3 10538.4 740.494  27 
  10   3 -11 6607.59 422.074   8 
  10   3 -10 2608.14 306.935  40 
 -10   3  10 3317.42 328.061  30 
  10   3  -9 52518.7 1969.52  40 
  10   3  -9 56202.1 1933.71   8 
  10   3  -8 1146.92 214.854  40 
  10   3  -8 1272.35 208.250   8 
  10   3  -7 5228.71 418.812  40 
  10   3  -7 5195.66 549.600  33 
  10   3  -7 5183.64 397.048   8 
  10   3  -7 3959.28 419.043   5 
  10   3  -6 5149.60 400.409  40 
  10   3  -6 5214.36 570.235  33 
  10   3  -6 4490.22 370.067   8 
  10   3  -6 5128.97 475.180   5 
  10   3  -5 11687.4 630.846  40 
  10   3  -5 10974.3 651.294  32 
  10   3  -5 11749.7 616.804   8 
  10   3  -5 11611.9 749.982   5 
  10   3  -4 4862.87 399.404  32 
  10   3  -4 4784.12 463.600   5 
  10   3  -3 9485.56 550.871  32 
  10   3  -2 4486.66 442.158  34 
  10   3  -2 4647.03 429.102   5 
  10   3  -1 6556.34 491.881   5 
  10   3   0 1622.00 246.875  34 
  10   3   0 1948.29 253.896   5 
  11  -3  -9 2096.34 193.759  77 
  11  -3  -9 1947.83 219.525  76 
  11  -3  -8 11997.5 573.084  77 
  11  -3  -8 12285.8 637.543  76 
  11  -3  -7 2482.04 244.017  77 
  11  -3  -7 2817.04 292.561  76 
 -11  -3   7 1861.23 366.083  27 
  11  -3  -6 4721.70 344.667  77 
 -11  -3   6 5081.31 613.892  27 
  11  -3  -5 3311.81 282.883  77 
  11  -3  -5 2583.76 290.819  75 
 -11  -3   5 2913.98 481.036  27 
  11  -3  -4 3585.18 294.099  77 
  11  -3  -4 3536.00 333.223  76 
  11  -3  -4 3871.70 357.580  75 
  11  -3  -3 2002.86 211.704  77 
  11  -3  -3 1896.04 237.126  76 
  11  -3  -3 1824.05 253.329  75 
  11  -3  -2 1660.38 228.648  75 
 -11  -3   2 2140.67 371.194  27 
 -11  -2  12 7744.64 697.755  14 
  11  -2 -11 888.117 141.332  77 
  11  -2 -11 1120.54 222.011  76 
 -11  -2  11 869.515 303.593  14 
  11  -2 -10 4889.12 360.953  77 
  11  -2 -10 4786.31 455.744  76 
 -11  -2  10 4869.57 488.887  36 
  11  -2  -9 162.612 104.248  77 
  11  -2  -9 94.6663 146.754  76 
 -11  -2   9 271.372 157.394  36 
  11  -2  -9 232.358 148.863  75 
 -11  -2   9 233.852 184.544  27 
  11  -2  -8 7652.28 509.109  77 
  11  -2  -8 6908.78 599.120  76 
 -11  -2   8 7269.67 629.499  36 
  11  -2  -8 7297.39 599.537  75 
 -11  -2   8 7146.82 810.184  27 
  11  -2  -7 37175.5 1441.09  77 
  11  -2  -7 36410.8 1615.12  76 
 -11  -2   7 31734.3 1588.45  36 
  11  -2  -7 36827.8 1652.86  75 
 -11  -2   7 37589.3 2043.84  27 
  11  -2  -6 3526.56 357.282  77 
  11  -2  -6 4194.60 461.976  76 
  11  -2  -6 3492.88 456.657  75 
 -11  -2   6 4990.38 734.195  27 
  11  -2  -5 17040.7 866.473  77 
  11  -2  -5 17284.3 1002.08  76 
  11  -2  -5 17242.4 1065.54  75 
 -11  -2   5 19253.9 1431.09  27 
 -11  -2   5 16797.0 1221.70  13 
  11  -2  -4 28169.3 1194.44  77 
  11  -2  -4 28485.7 1345.13  76 
  11  -2  -4 27188.4 1339.02  74 
 -11  -2   4 31063.6 1883.17  27 
 -11  -2   4 25985.8 1549.39  13 
  11  -2  -3 22095.5 988.002  77 
  11  -2  -3 21977.2 1100.60  76 
  11  -2  -3 19309.5 1157.53  75 
  11  -2  -3 20907.1 1150.01  74 
 -11  -2   3 22621.0 1448.05  19 
 -11  -2   3 23512.4 1579.55  27 
 -11  -2   3 18980.8 1239.41  13 
  11  -2  -2 2978.19 305.856  77 
  11  -2  -2 3283.80 364.832  76 
  11  -2  -2 2933.90 403.716  75 
  11  -2  -2 3151.70 417.566  74 
 -11  -2   2 2893.22 489.541  19 
 -11  -2   2 3022.81 580.827  27 
 -11  -2   1 9284.30 840.842  39 
  11  -2  -1 9217.39 602.623  76 
  11  -2  -1 9295.09 692.519  75 
  11  -2  -1 9950.44 722.931  74 
 -11  -2   1 9086.79 803.665  19 
 -11  -2   0 2044.76 385.393  39 
  11  -2   0 2603.07 332.092  75 
 -11  -2  -1 6698.54 635.984  39 
  11  -2   1 7367.44 513.325  75 
 -11  -2  -1 7962.83 726.086  27 
  11  -2   2 16651.2 723.972  75 
  11  -2   2 15894.4 816.567  73 
  11  -1 -14 10096.7 536.517  76 
 -11  -1  13 653.448 173.048  42 
  11  -1 -13 826.422 180.939  76 
 -11  -1  12 6874.85 564.658  42 
 -11  -1  12 6591.70 551.863  41 
  11  -1 -12 6581.58 529.615  76 
 -11  -1  12 7537.79 746.556  14 
  11  -1 -12 7013.74 600.996   8 
 -11  -1  11 1862.24 319.976  41 
  11  -1 -11 1810.61 312.808  76 
 -11  -1  11 1583.73 351.603  36 
  11  -1 -11 1812.73 289.935  75 
  11  -1 -11 2177.29 323.418   3 
 -11  -1  11 2552.68 507.727  14 
  11  -1 -11 1643.43 324.267   8 
 -11  -1  10 15622.3 974.198  41 
  11  -1 -10 14377.9 906.066  76 
 -11  -1  10 15079.9 1072.57  36 
  11  -1 -10 12952.3 878.816  75 
 -11  -1  10 14067.3 1006.01  17 
  11  -1 -10 12989.0 855.094   3 
  11  -1 -10 14622.6 965.468   8 
 -11  -1   9 613.410 329.840  13 
  11  -1  -9 141.121 155.908  76 
 -11  -1   9 769.431 307.497  36 
  11  -1  -9 362.659 202.507  75 
 -11  -1   9 293.694 227.696  17 
  11  -1  -9 305.701 161.400   3 
  11  -1  -9 499.033 246.564   8 
  11  -1  -8 7388.64 666.128  76 
 -11  -1   8 7869.20 795.936  36 
  11  -1  -8 8298.52 736.383  75 
 -11  -1   8 8393.51 770.546  17 
  11  -1  -8 8992.76 726.711   8 
 -11  -1   8 9406.92 981.533  13 
 -11  -1   7 16104.9 1179.72  36 
  11  -1  -7 17768.1 1055.03  76 
 -11  -1   7 17154.3 1135.65  17 
 -11  -1   7 18268.7 1342.84  27 
  11  -1  -7 15851.4 997.823   8 
 -11  -1   7 16616.8 1354.01  13 
 -11  -1   6 20413.2 1345.13  36 
  11  -1  -6 20089.7 1150.22  76 
 -11  -1   6 19737.7 1462.32  19 
  11  -1  -6 20815.2 1152.58  74 
 -11  -1   6 20205.9 1247.59  17 
 -11  -1   6 21725.7 1515.88  27 
  11  -1  -5 1957.66 346.195  76 
  11  -1  -5 2794.80 456.163  75 
  11  -1  -5 2843.47 412.692  74 
 -11  -1   5 2200.22 503.528  19 
 -11  -1   5 2699.95 423.212  17 
 -11  -1   5 2062.49 527.414  27 
 -11  -1   5 2834.38 557.959  13 
 -11  -1   4 4473.37 616.580  39 
  11  -1  -4 5516.67 533.761  76 
  11  -1  -4 5791.94 633.899  75 
 -11  -1   4 4964.42 743.590  19 
  11  -1  -4 6451.46 638.429  74 
 -11  -1   4 6011.50 804.196  27 
 -11  -1   4 5733.70 766.543  13 
 -11  -1   3 2506.06 484.461  39 
  11  -1  -3 3215.66 318.286  77 
  11  -1  -3 3128.02 394.085  76 
  11  -1  -3 2621.19 437.963  75 
  11  -1  -3 3307.95 476.207  74 
 -11  -1   3 2865.22 584.426  19 
 -11  -1   3 3218.25 616.067  27 
 -11  -1   3 3182.72 560.439  13 
  11  -1  -2 6321.43 946.078   6 
 -11  -1   2 5779.88 714.175  39 
  11  -1  -2 6989.86 551.492  76 
  11  -1  -2 7579.34 689.101  75 
  11  -1  -2 6906.43 680.425  74 
 -11  -1   2 6591.51 840.062  27 
 -11  -1   2 5802.94 726.595  13 
  11  -1  -1 9879.79 1131.38   6 
 -11  -1   1 11361.1 986.031  39 
  11  -1  -1 11497.4 687.166  76 
 -11  -1   1 11114.0 1009.69  19 
  11  -1  -1 11478.0 834.191  75 
 -11  -1   1 13299.3 1157.37  27 
 -11  -1   1 10105.4 901.829  13 
 -11  -1   0 698.492 275.606  39 
  11  -1   0 1024.73 394.837   6 
  11  -1   0 564.200 200.783  75 
  11  -1   0 783.114 269.343  74 
 -11  -1   0 503.102 295.822  19 
 -11  -1   0 872.693 378.478  27 
 -11  -1   0 481.930 231.114  13 
 -11  -1  -1 3531.41 507.605  39 
  11  -1   1 3179.57 356.096  75 
  11  -1   1 3347.44 433.139  74 
 -11  -1  -1 2591.42 440.875  19 
 -11  -1  -1 3251.93 539.061  27 
 -11  -1  -2 7039.78 661.166  39 
 -11  -1  -2 6508.45 600.316  19 
  11  -1   2 7088.79 582.997  74 
 -11  -1  -3 1128.97 278.114  39 
 -11  -1  -3 1761.85 337.084  27 
 -11   0  14 3889.54 367.215  42 
  11   0 -14 3958.20 306.040  76 
  11   0 -14 4175.32 382.578   8 
 -11   0  13 10006.9 685.546  42 
 -11   0  13 9336.17 667.396  41 
  11   0 -13 9479.39 581.887  76 
 -11   0  13 9758.01 735.547  36 
  11   0 -13 9438.79 640.436   3 
  11   0 -13 9685.20 677.812   8 
 -11   0  12 5338.85 521.624  42 
 -11   0  12 5072.40 517.173  41 
  11   0 -12 4083.82 408.945  76 
 -11   0  12 4470.66 539.222  36 
  11   0 -12 5286.27 484.962   3 
 -11   0  12 4589.83 418.481  30 
 -11   0  11 1142.85 299.755  41 
  11   0 -11 1285.86 257.791  76 
 -11   0  11 1684.65 386.416  36 
 -11   0  11 1520.63 374.119  17 
  11   0 -11 1224.89 261.350   3 
  11   0 -11 1178.26 290.800   8 
 -11   0  10 14409.9 985.333  41 
  11   0 -10 11003.5 770.398  76 
 -11   0  10 13474.9 1047.28  36 
  11   0 -10 12311.2 822.419   3 
 -11   0  10 12634.2 1021.39  17 
  11   0 -10 13453.7 916.665   8 
 -11   0  10 12893.2 1062.20  13 
 -11   0   9 1123.70 366.336  13 
  11   0  -9 788.666 233.193  76 
 -11   0   9 776.401 314.268  36 
 -11   0   9 731.732 322.927  17 
  11   0  -9 761.461 206.860   3 
  11   0  -9 879.612 246.740   8 
 -11   0   8 1446.87 421.971  13 
  11   0  -8 1847.25 317.551  76 
 -11   0   8 2096.09 461.443  36 
  11   0  -8 1945.12 305.471   3 
 -11   0   8 1660.61 394.553  17 
  11   0  -8 2492.96 384.770   8 
 -11   0   7 67460.8 2979.30  36 
 -11   0   7 64264.1 2919.86  19 
  11   0  -7 68120.0 2589.27   8 
 -11   0   7 67532.1 3103.30  13 
  11   0  -6 30128.0 2114.22   6 
 -11   0   6 30068.5 1789.63  19 
  11   0  -6 29287.8 1907.23  33 
  11   0  -6 29754.9 1407.58   8 
 -11   0   6 30909.6 1899.50  13 
  11   0  -5 736.716 427.464   6 
  11   0  -5 768.907 273.179  75 
 -11   0   5 549.194 309.964  19 
  11   0  -5 893.438 387.335  33 
 -11   0   5 481.895 325.365  13 
  11   0  -4 73.7592 323.217   6 
  11   0  -4 34.3193 173.675  75 
 -11   0   4 151.391 221.146  19 
  11   0  -4 52.8567 250.187  33 
 -11   0   4 294.931 256.386  27 
 -11   0   4 157.858 312.209  13 
  11   0  -3 217.400 342.996   6 
  11   0  -3 394.747 199.585  75 
 -11   0   3-100.193 237.125  19 
  11   0  -3 195.984 255.557  33 
 -11   0   3-50.3154 254.603  27 
  11   0  -2 31745.1 2248.71  24 
  11   0  -2 36908.0 2334.10   6 
 -11   0   2 36328.3 1991.15  19 
  11   0  -2 34389.8 1648.95  75 
  11   0  -2 33293.7 1852.49  33 
 -11   0   2 35923.3 2004.11  27 
  11   0  -1 26644.6 2031.36  24 
 -11   0   1 30401.0 1665.68  39 
 -11   0   1 31693.1 1821.86  19 
  11   0  -1 32766.2 1505.84  75 
  11   0  -1 31450.4 1612.66  74 
  11   0  -1 32577.0 1689.16  33 
 -11   0   1 34428.4 1909.64  27 
  11   0   0 18756.1 1639.02  24 
  11   0   0 22838.3 1670.46   6 
 -11   0   0 22740.3 1366.99  39 
 -11   0   0 23208.0 1465.77  19 
  11   0   0 23486.6 1294.64  74 
 -11   0   0 23249.7 1506.89  27 
  11   0   1 373.168 343.093  24 
 -11   0  -1 313.493 206.945  39 
  11   0   1 374.377 338.430   6 
  11   0   1 512.064 213.162  74 
 -11   0  -1 338.721 227.481  27 
  11   0   2 2642.80 568.737  24 
 -11   0  -2 2591.48 397.146  39 
  11   0   2 2969.17 523.507   6 
 -11   0  -2 2543.08 421.899  19 
  11   0   2 3450.85 398.214  74 
 -11   0  -2 3818.45 525.399  27 
 -11   0  -3 1125.18 258.714  39 
  11   0   3 904.022 257.026   6 
 -11   0  -3 1166.34 266.233  19 
  11   0   3 1180.69 213.853  74 
 -11   0  -3 1387.85 323.271  27 
 -11   1  13 749.421 180.129  42 
 -11   1  13 715.003 177.518  30 
  11   1 -13 649.890 169.722   3 
  11   1 -13 631.775 184.580   8 
 -11   1  12 6417.40 539.444  42 
 -11   1  12 6719.87 549.323  41 
  11   1 -12 5616.87 510.680  40 
  11   1 -12 6436.92 508.196   3 
 -11   1  12 6910.40 575.191  36 
 -11   1  12 6490.52 631.874  17 
 -11   1  12 6637.61 540.500  30 
 -11   1  11 1709.99 306.311  41 
  11   1 -11 1510.76 284.002  40 
 -11   1  11 2156.15 358.776  36 
 -11   1  11 1808.83 389.088  17 
  11   1 -11 1819.41 307.774   8 
 -11   1  10 14405.7 954.174  41 
 -11   1  10 15758.1 1050.22  36 
 -11   1  10 14574.6 1083.09  17 
  11   1 -10 14139.5 886.848   8 
 -11   1   9 185.887 205.286  13 
 -11   1   9 819.991 275.135  36 
  11   1  -9 197.926 265.782  33 
 -11   1   9 451.173 269.816  17 
  11   1  -9 461.924 205.602   8 
 -11   1   8 8882.06 820.656  36 
  11   1  -8 7677.13 881.184  33 
  11   1  -8 8402.51 649.432   8 
 -11   1   8 6926.13 751.953  13 
 -11   1   7 16575.5 1178.47  36 
  11   1  -7 15583.6 1301.67  33 
  11   1  -7 16281.7 937.306   8 
 -11   1   7 17419.0 1247.40  13 
  11   1  -6 20322.3 1552.13   6 
  11   1  -6 21890.7 1525.34  33 
  11   1  -6 21063.5 1063.49   8 
 -11   1   6 19729.4 1393.75  13 
  11   1  -5 2594.58 617.886   6 
 -11   1   5 1668.41 390.085  19 
 -11   1   5 2218.59 481.016  13 
  11   1  -4 5304.44 810.227   6 
 -11   1   4 6299.11 695.487  19 
  11   1  -4 5551.06 550.476  75 
  11   1  -4 5253.01 730.696  33 
  11   1  -3 2719.62 606.019  24 
  11   1  -3 3279.83 653.238   6 
 -11   1   3 3069.56 505.524  19 
  11   1  -3 2633.96 504.072  33 
  11   1  -2 5495.49 832.434  24 
  11   1  -2 5797.20 858.754   6 
 -11   1   2 7072.34 755.985  19 
  11   1  -2 6689.50 737.121  33 
  11   1  -1 9576.18 1084.13  24 
  11   1  -1 13012.5 1203.99   6 
 -11   1   1 10947.8 931.682  19 
  11   1  -1 11110.6 903.514  33 
 -11   1   1 11108.9 910.480  27 
  11   1   0 348.128 311.833  24 
  11   1   0 491.535 352.662   6 
 -11   1   0 788.443 281.466  19 
  11   1   0 621.479 252.244  33 
 -11   1   0 654.868 276.632  27 
  11   1   1 2814.09 560.862  24 
 -11   1  -1 3658.36 490.912  19 
  11   1   1 2961.78 366.407  74 
 -11   1  -1 3276.94 469.812  27 
  11   1   2 5679.81 715.367  24 
  11   1   2 6551.68 720.893   6 
 -11   1  -2 6368.85 593.922  19 
  11   1   2 6294.33 485.210  74 
 -11   1  -2 6263.95 599.743  27 
  11   1   3 1230.68 345.071  24 
  11   1   3 1105.40 292.780   6 
 -11   1  -3 1262.70 268.273  27 
 -11   2  12 7301.01 499.877  30 
  11   2 -11 749.563 181.673  40 
 -11   2  11 730.897 199.084  17 
  11   2 -11 632.597 184.566   8 
  11   2 -10 4408.91 415.599  40 
 -11   2  10 4545.64 495.104  17 
  11   2 -10 5039.30 428.215   8 
  11   2  -9 93.7766 103.480  40 
  11   2  -9 276.955 205.433  33 
 -11   2   9 91.0214 158.284  17 
  11   2  -9 171.666 129.984   8 
  11   2  -8 7320.59 739.303  33 
 -11   2   8 7643.87 700.147  17 
  11   2  -8 7822.53 548.874   8 
 -11   2   7 33822.2 1562.87  36 
  11   2  -7 34607.7 1828.32  33 
  11   2  -7 34900.6 1414.78   8 
 -11   2   6 4467.94 493.278  36 
  11   2  -6 4013.22 575.877  33 
  11   2  -6 3709.99 349.262   8 
  11   2  -5 17222.3 1214.20  33 
 -11   2   5 16764.0 1085.57  13 
  11   2  -4 27016.3 1620.35   6 
  11   2  -3 20386.8 1388.76   6 
  11   2  -3 20031.1 1262.68  33 
  11   2  -3 19472.7 1074.62   5 
  11   2  -2 2008.00 445.919   6 
 -11   2   2 2713.15 385.452  19 
  11   2  -2 3382.20 489.879  33 
  11   2  -1 9669.78 919.041   6 
 -11   2   1 8461.85 681.849  19 
  11   2  -1 9935.57 782.784  33 
  11   2   0 2217.85 471.625   6 
 -11   2   0 2006.18 330.960  19 
  11   2   0 2485.41 359.009  33 
 -11   2  -1 6388.28 536.091  19 
  11   2   1 6338.47 421.547  74 
  11   3  -6 4350.83 458.834  33 
  11   3  -5 3273.14 404.020  33 
  11   3  -4 4098.17 451.305  33 
  11   3  -3 1888.05 310.441  33 
  12  -2 -10 595.753 134.257  76 
  12  -2  -9 6502.99 449.867  76 
 -12  -2   9 6949.80 653.120  14 
  12  -2  -8 251.929 121.286  76 
  12  -2  -8 96.7017 111.811  75 
 -12  -2   8 456.008 214.166  14 
  12  -2  -7 7886.38 418.875  77 
  12  -2  -7 8914.38 555.243  76 
  12  -2  -7 8996.04 593.430  75 
 -12  -2   7 8464.14 754.824  14 
 -12  -2   7 7188.69 676.812  27 
  12  -2  -6 3522.03 259.651  77 
  12  -2  -6 3381.64 335.172  76 
  12  -2  -6 3005.42 347.217  75 
 -12  -2   6 3656.51 501.908  27 
  12  -2  -5 13972.8 621.675  77 
  12  -2  -5 15060.7 750.998  76 
  12  -2  -5 13561.5 800.181  75 
 -12  -2   5 15517.4 1058.97  27 
  12  -2  -4 8222.38 510.631  76 
 -12  -2   4 9056.41 779.967  27 
  12  -2  -3 4990.69 367.441  76 
  12  -2  -3 5940.16 468.641  75 
 -12  -2   3 5979.17 627.563  27 
  12  -2  -2 2710.95 298.881  75 
 -12  -2   2 3007.31 439.315  27 
  12  -2  -1 3971.50 323.295  75 
  12  -1 -12 6363.95 406.478  76 
 -12  -1  11 2690.58 317.611  42 
 -12  -1  11 2706.88 309.753  41 
  12  -1 -11 2809.43 289.806  76 
 -12  -1  11 2428.00 344.538  36 
  12  -1 -11 2351.24 275.753  75 
 -12  -1  11 3432.78 465.239  14 
  12  -1 -11 2407.80 297.578   8 
 -12  -1  10 3636.34 396.666  41 
  12  -1 -10 4203.86 382.546  76 
 -12  -1  10 4777.09 496.381  36 
  12  -1 -10 4458.29 415.876  75 
 -12  -1  10 4605.28 583.273  14 
  12  -1 -10 4254.78 405.450   8 
 -12  -1   9 1765.85 286.545  41 
  12  -1  -9 1184.14 223.466  76 
 -12  -1   9 1120.65 281.516  36 
  12  -1  -9 1220.33 261.414  75 
  12  -1  -8 8175.12 566.706  76 
 -12  -1   8 7259.72 665.632  36 
  12  -1  -8 6737.44 596.281  75 
 -12  -1   8 8057.24 788.751  13 
  12  -1  -7 15791.2 849.664  76 
 -12  -1   7 15322.5 1011.93  36 
  12  -1  -6 32793.1 1392.04  76 
 -12  -1   6 35469.5 1658.80  36 
  12  -1  -6 33443.5 1573.96  75 
 -12  -1   6 33582.3 1749.65  27 
  12  -1  -5 9143.49 582.247  76 
 -12  -1   5 8221.65 703.428  36 
  12  -1  -5 7962.32 672.395  75 
  12  -1  -5 8308.01 635.191  74 
 -12  -1   5 8296.09 813.966  19 
 -12  -1   5 9917.71 876.983  27 
 -12  -1   5 8584.80 830.094  13 
  12  -1  -4 14453.5 736.482  76 
 -12  -1   4 12627.7 874.191  36 
  12  -1  -4 14757.7 904.331  75 
 -12  -1   4 13555.6 1068.37  19 
  12  -1  -4 14193.5 870.787  74 
 -12  -1   4 14013.1 1074.67  27 
 -12  -1   4 12938.1 1015.76  13 
 -12  -1   3 2144.67 394.582  13 
 -12  -1   3 2054.14 326.773  36 
  12  -1  -3 2003.70 320.558  75 
  12  -1  -3 2445.98 355.677  74 
 -12  -1   3 1892.41 407.046  19 
 -12  -1   3 1873.24 431.840  27 
 -12  -1   2 2648.05 408.904  13 
 -12  -1   2 3893.30 413.017  36 
  12  -1  -2 3703.80 403.627  75 
  12  -1  -2 4445.83 463.027  74 
 -12  -1   2 3349.25 515.923  27 
 -12  -1   1 20021.7 1134.26  39 
  12  -1  -1 23773.6 1043.70  75 
 -12  -1   1 22363.0 1257.13  19 
 -12  -1   1 25548.7 1398.96  27 
 -12  -1   1 19918.6 1100.62  13 
 -12  -1   0 30699.5 1440.24  39 
  12  -1   0 32774.9 1239.66  75 
 -12  -1   0 33095.7 1524.25  19 
  12  -1   0 35153.4 1431.03  74 
 -12  -1   0 36991.6 1670.87  27 
 -12   0  12 4164.72 393.080  42 
 -12   0  12 4834.84 418.347  41 
 -12   0  12 4571.01 449.287  36 
  12   0 -12 4371.96 376.565  75 
  12   0 -12 4842.47 408.774   8 
 -12   0  11 330.728 158.054  41 
 -12   0  11 429.614 195.342  36 
 -12   0  11 385.013 187.573  17 
 -12   0  11 280.748 177.817  14 
  12   0 -11 303.559 153.885   8 
 -12   0  10 25215.2 1236.72  41 
 -12   0  10 24260.3 1315.77  36 
 -12   0  10 22936.4 1289.47  17 
  12   0 -10 24075.5 1158.65   8 
 -12   0   9 1755.69 384.020  13 
 -12   0   9 1632.72 305.904  41 
 -12   0   9 1723.06 356.482  36 
 -12   0   9 1586.20 341.118  17 
  12   0  -9 1906.91 292.819   8 
 -12   0   8 773.151 300.980  13 
 -12   0   8 768.190 287.130  36 
  12   0  -8 702.371 245.069  75 
 -12   0   8 1034.11 305.114  17 
 -12   0   7 3912.05 531.447  36 
  12   0  -7 4138.38 480.550  75 
 -12   0   7 4862.68 564.787  19 
  12   0  -7 3904.39 418.492  74 
 -12   0   7 4548.81 543.625  17 
 -12   0   7 5032.57 633.703  13 
  12   0  -6 14806.3 936.721  75 
 -12   0   6 13937.0 1037.45  19 
  12   0  -6 14912.3 889.339  74 
 -12   0   6 13665.2 963.603  17 
 -12   0   6 14828.6 1135.20  13 
  12   0  -5 82.4561 163.087  75 
  12   0  -5-26.3523 141.440  74 
 -12   0   5 235.579 222.120  19 
 -12   0   5 215.270 237.397  13 
  12   0  -4 9629.32 1051.87   6 
  12   0  -4 8799.30 680.834  75 
 -12   0   4 8547.77 821.266  19 
  12   0  -4 8966.61 701.252  74 
 -12   0   4 8260.28 823.894  13 
  12   0  -3 6425.29 861.050   6 
 -12   0   3 6721.73 716.462  19 
  12   0  -3 7074.79 568.741  75 
  12   0  -3 6510.70 600.627  74 
 -12   0   3 6806.71 680.642  27 
  12   0  -2 19755.6 1478.32   6 
 -12   0   2 19845.1 1240.56  19 
  12   0  -2 18026.6 947.368  75 
 -12   0   2 22082.3 1274.14  27 
 -12   0   2 19866.3 1243.96  13 
  12   0  -1 1042.91 252.310  74 
 -12   0   1 1100.67 299.329  19 
 -12   0   1 1132.80 304.891  27 
 -12   0   1 474.567 224.159  13 
  12   0   0 44370.1 2233.78   6 
 -12   0   0 47974.3 2040.60  19 
  12   0   0 49224.2 1887.61  74 
 -12   0   0 52358.5 2113.31  27 
 -12   0   0 45895.6 1963.98  13 
  12   0   1 7743.17 524.716  74 
 -12   1  11 2816.14 313.520  42 
 -12   1  11 2506.61 302.027  41 
 -12   1  11 2346.27 341.964  17 
  12   1 -11 3054.19 316.406   8 
 -12   1  10 4122.85 408.252  41 
 -12   1  10 4261.21 441.115  36 
 -12   1  10 4735.97 505.338  17 
  12   1 -10 4512.17 407.810   8 
 -12   1   9 1306.05 256.166  41 
 -12   1   9 1277.69 282.523  36 
 -12   1   9 1995.64 360.524  17 
  12   1  -9 1639.73 250.771   8 
 -12   1   8 6956.82 636.799  36 
  12   1  -8 8005.63 804.081  33 
 -12   1   8 6401.24 625.183  13 
 -12   1   7 16356.9 1030.61  36 
  12   1  -7 15100.6 1155.26  33 
 -12   1   7 15556.5 1055.10  13 
 -12   1   6 32474.3 1593.16  36 
  12   1  -6 30127.3 1384.62  75 
 -12   1   6 32382.0 1663.36  13 
  12   1  -5 8622.28 903.127   6 
  12   1  -5 7309.28 572.695  75 
  12   1  -5 8733.76 836.420  33 
 -12   1   5 9022.00 798.063  13 
  12   1  -4 13450.3 1159.95   6 
 -12   1   4 13194.3 910.275  19 
  12   1  -4 13807.9 1031.50  33 
 -12   1   4 14307.1 1024.03  13 
  12   1  -3 2519.30 497.544   6 
 -12   1   3 1879.70 343.726  19 
  12   1  -3 2312.05 399.589  33 
 -12   1   3 1907.80 379.434  13 
  12   1  -2 3907.18 595.643   6 
 -12   1   2 3775.05 472.976  19 
  12   1  -2 2966.73 373.639  74 
  12   1  -2 3757.19 461.088  33 
 -12   1   2 3935.62 501.385  13 
  12   1  -1 22582.7 1434.71   6 
 -12   1   1 23249.2 1222.73  19 
  12   1  -1 23170.0 1115.16  74 
 -12   1   1 23153.9 1254.11  13 
  12   1   0 34701.4 1753.07   6 
 -12   1   0 34401.6 1505.78  19 
  12   1   0 33171.5 1360.33  74 
  12   2  -8 70.0902 76.8257  75 
  12   2  -8 221.004 171.212  33 
 -12   2   8 88.5379 125.241  17 
  12   2  -7 8090.55 706.060  33 
 -12   2   7 7746.79 610.753  17 
  12   2  -6 3416.84 459.133  33 
 -12   2   5 14138.5 774.290  36 
  12   2  -5 13976.8 950.071  33 
 -12   2   4 6973.79 510.233  36 
 -12   2   4 6828.10 556.241  13 
  12   2  -3 5450.48 524.267  33 
 -12   2   3 4417.50 440.111  13 
  13  -1  -9 11944.3 622.868  75 
  13  -1  -7 10293.6 613.940  75 
  13  -1  -6 13495.3 725.214  75 
 -13  -1   6 13637.1 862.041  13 
  13  -1  -5 27882.8 1161.99  75 
  13  -1  -4 799.788 164.229  75 
  13   0 -10 17316.4 806.252  75 
 -13   0   9 1606.41 237.708  41 
 -13   0   9 1711.43 271.702  36 
  13   0  -9 1598.63 232.810  75 
 -13   0   8 25.4409 120.434  13 
 -13   0   8 108.361 107.178  41 
 -13   0   8 22.1229 148.097  36 
  13   0  -8 154.491 108.593  75 
  13   0  -7 3218.26 336.183  75 
 -13   0   7 2720.53 399.206  13 
  13   0  -6 36214.2 1420.92  75 
  13   0  -6 34739.9 1369.58  74 
 -13   0   6 34630.9 1628.58  13 
 -13   0   5 4791.94 453.643  36 
  13   0  -5 3938.34 352.744  75 
  13   0  -5 4017.24 370.455  74 
 -13   0   5 4193.07 474.877  13 
 -13   0   4 5394.07 475.124  36 
  13   0  -4 4760.17 365.613  75 
 -13   0   4 5164.58 489.659  19 
  13   0  -4 5612.08 443.589  74 
 -13   0   3 343.106 171.772  13 
  13   0  -3 665.966 163.709  74 
  13   1  -8 5906.93 393.000  75 
  13   1  -7 8195.61 496.941  74 
 -13   1   7 9863.27 631.390  17 
 -13   1   6 12948.0 755.434  36 
  13   1  -6 13404.2 688.202  74 
 -13   1   6 13625.7 776.263  17 
 -13   1   5 26494.3 1186.93  36 
  13   1  -5 27060.0 1121.39  74 
  13   1  -3 2601.82 271.291  74 
   0   0   0    0.00    0.00   0 
  
TITL 79999-167-C in P2(1) 
REM P2(1) (#4 in standard setting) 
CELL 1.54184  10.796554   4.731872  13.957570  90.0000 111.0081  90.0000 
ZERR    2.00   0.000179   0.000067   0.000229   0.0000   0.0019   0.0000 
LATT -1 
SYMM -x, y+1/2,-z 
SFAC C H N O 
UNIT 32.00 36.00 4.00 2.00 
TREF 
HKLF 4 
END 
;
_shelx_hkl_checksum              88659
loop_
_space_group_symop_operation_xyz
'x, y, z'
'-x, y+1/2, -z'
loop_
_atom_site_label
_atom_site_type_symbol
_atom_site_fract_x
_atom_site_fract_y
_atom_site_fract_z
_atom_site_U_iso_or_equiv
_atom_site_adp_type
_atom_site_occupancy
_atom_site_site_symmetry_order
_atom_site_calc_flag
_atom_site_refinement_flags_posn
_atom_site_refinement_flags_adp
_atom_site_refinement_flags_occupancy
_atom_site_disorder_assembly
_atom_site_disorder_group
C1 C 0.64662(15) 0.3958(4) 0.29508(11) 0.0155(3) Uani 1 1 d . . . . .
H1 H 0.652894 0.185260 0.292811 0.019 Uiso 1 1 calc R U . . .
C2 C 0.76453(16) 0.5334(3) 0.27760(12) 0.0171(4) Uani 1 1 d . . . . .
C3 C 0.81229(17) 0.4925(4) 0.19896(12) 0.0201(4) Uani 1 1 d . . . . .
H3 H 0.770055 0.362662 0.145242 0.024 Uiso 1 1 calc R U . . .
C4 C 0.92329(17) 0.6446(4) 0.19956(13) 0.0240(4) Uani 1 1 d . . . . .
H4 H 0.956253 0.618588 0.145554 0.029 Uiso 1 1 calc R U . . .
C5 C 0.98622(17) 0.8336(4) 0.27815(14) 0.0255(4) Uani 1 1 d . . . . .
H5 H 1.060990 0.937216 0.276898 0.031 Uiso 1 1 calc R U . . .
C6 C 0.94067(17) 0.8725(4) 0.35865(14) 0.0221(4) Uani 1 1 d . . . . .
H6 H 0.983944 1.000488 0.412778 0.026 Uiso 1 1 calc R U . . .
C7 C 0.83062(16) 0.7202(4) 0.35813(12) 0.0173(3) Uani 1 1 d . . . . .
C8 C 0.76880(15) 0.6954(4) 0.43492(12) 0.0168(4) Uani 1 1 d . . . . .
C9 C 0.77462(16) 0.7692(4) 0.53151(13) 0.0192(4) Uani 1 1 d . . . . .
H9 H 0.831832 0.907954 0.574065 0.023 Uiso 1 1 calc R U . . .
C10 C 0.62362(16) 0.4447(4) 0.47660(12) 0.0183(4) Uani 1 1 d . . . . .
H10 H 0.556167 0.311678 0.472880 0.022 Uiso 1 1 calc R U . . .
C11 C 0.50993(15) 0.4986(4) 0.21994(11) 0.0153(3) Uani 1 1 d . . . . .
H11 H 0.513034 0.709385 0.215981 0.018 Uiso 1 1 calc R U . . .
C12 C 0.39812(16) 0.4199(3) 0.25855(12) 0.0157(3) Uani 1 1 d . . . . .
H12 H 0.412629 0.524458 0.323958 0.019 Uiso 1 1 calc R U . . .
C13 C 0.26171(16) 0.4988(4) 0.18190(12) 0.0191(4) Uani 1 1 d . . . . .
H13A H 0.254076 0.707215 0.177207 0.023 Uiso 1 1 calc R U . . .
H13B H 0.192817 0.427808 0.207249 0.023 Uiso 1 1 calc R U . . .
C14 C 0.23621(16) 0.3777(4) 0.07484(12) 0.0209(4) Uani 1 1 d . . . . .
H14A H 0.233679 0.168772 0.077299 0.025 Uiso 1 1 calc R U . . .
H14B H 0.149334 0.444782 0.026693 0.025 Uiso 1 1 calc R U . . .
C15 C 0.34645(16) 0.4720(4) 0.03718(12) 0.0203(4) Uani 1 1 d . . . . .
H15A H 0.331032 0.388680 -0.031205 0.024 Uiso 1 1 calc R U . . .
H15B H 0.344378 0.680261 0.030038 0.024 Uiso 1 1 calc R U . . .
C16 C 0.48253(16) 0.3804(4) 0.11185(12) 0.0178(4) Uani 1 1 d . . . . .
H16A H 0.551983 0.447631 0.086447 0.021 Uiso 1 1 calc R U . . .
H16B H 0.486714 0.171423 0.114987 0.021 Uiso 1 1 calc R U . . .
N1 N 0.68392(13) 0.6092(3) 0.55692(10) 0.0199(3) Uani 1 1 d . . . . .
N2 N 0.67127(13) 0.4925(3) 0.40107(10) 0.0161(3) Uani 1 1 d . . . . .
O1 O 0.40745(11) 0.1245(3) 0.28021(9) 0.0188(3) Uani 1 1 d . . . . .
H1A H 0.374895 0.089854 0.325321 0.028 Uiso 1 1 calc R U . . .
loop_
_atom_site_aniso_label
_atom_site_aniso_U_11
_atom_site_aniso_U_22
_atom_site_aniso_U_33
_atom_site_aniso_U_23
_atom_site_aniso_U_13
_atom_site_aniso_U_12
C1 0.0181(8) 0.0153(8) 0.0134(7) -0.0021(6) 0.0063(6) 0.0001(6)
C2 0.0147(7) 0.0169(9) 0.0182(7) 0.0036(6) 0.0041(6) 0.0031(6)
C3 0.0171(8) 0.0244(9) 0.0177(7) 0.0015(7) 0.0048(6) 0.0040(7)
C4 0.0181(8) 0.0347(11) 0.0202(8) 0.0069(8) 0.0079(6) 0.0066(8)
C5 0.0161(8) 0.0315(11) 0.0285(10) 0.0075(8) 0.0076(7) 0.0000(7)
C6 0.0168(8) 0.0227(9) 0.0236(8) 0.0004(7) 0.0035(6) -0.0007(7)
C7 0.0144(7) 0.0177(8) 0.0182(7) 0.0020(6) 0.0039(6) 0.0035(6)
C8 0.0142(7) 0.0161(8) 0.0176(7) 0.0002(6) 0.0027(6) 0.0020(6)
C9 0.0169(8) 0.0198(8) 0.0181(8) -0.0035(7) 0.0028(6) 0.0011(7)
C10 0.0176(8) 0.0210(9) 0.0166(7) 0.0017(7) 0.0063(6) 0.0031(7)
C11 0.0160(8) 0.0145(8) 0.0153(7) -0.0001(6) 0.0055(6) 0.0006(6)
C12 0.0188(8) 0.0142(8) 0.0148(7) -0.0011(6) 0.0069(6) -0.0001(6)
C13 0.0171(8) 0.0202(8) 0.0205(8) -0.0003(7) 0.0074(6) 0.0007(6)
C14 0.0175(8) 0.0236(9) 0.0182(8) -0.0004(7) 0.0023(6) -0.0024(7)
C15 0.0222(8) 0.0226(9) 0.0150(7) 0.0002(7) 0.0053(6) -0.0005(7)
C16 0.0188(8) 0.0199(8) 0.0151(8) -0.0008(6) 0.0065(6) 0.0003(6)
N1 0.0180(7) 0.0240(8) 0.0173(7) -0.0019(6) 0.0060(5) 0.0034(6)
N2 0.0170(7) 0.0165(7) 0.0139(6) -0.0013(6) 0.0045(5) 0.0011(5)
O1 0.0239(6) 0.0153(6) 0.0193(6) 0.0017(5) 0.0104(5) -0.0015(5)
loop_
_atom_type_symbol
_atom_type_description
_atom_type_scat_dispersion_real
_atom_type_scat_dispersion_imag
_atom_type_scat_source
C C 0.0181 0.0091 'International Tables Vol C Tables 4.2.6.8 and 6.1.1.4'
H H 0.0000 0.0000 'International Tables Vol C Tables 4.2.6.8 and 6.1.1.4'
N N 0.0311 0.0180 'International Tables Vol C Tables 4.2.6.8 and 6.1.1.4'
O O 0.0492 0.0322 'International Tables Vol C Tables 4.2.6.8 and 6.1.1.4'
loop_
_geom_angle_atom_site_label_1
_geom_angle_atom_site_label_2
_geom_angle_atom_site_label_3
_geom_angle
_geom_angle_site_symmetry_1
_geom_angle_site_symmetry_3
_geom_angle_publ_flag
N2 C1 C2 99.61(12) . . ?
N2 C1 C11 111.45(13) . . ?
C2 C1 C11 113.86(13) . . ?
N2 C1 H1 110.5 . . ?
C2 C1 H1 110.5 . . ?
C11 C1 H1 110.5 . . ?
C3 C2 C7 119.67(15) . . ?
C3 C2 C1 129.59(15) . . ?
C7 C2 C1 110.71(14) . . ?
C2 C3 C4 119.14(16) . . ?
C2 C3 H3 120.4 . . ?
C4 C3 H3 120.4 . . ?
C5 C4 C3 120.83(16) . . ?
C5 C4 H4 119.6 . . ?
C3 C4 H4 119.6 . . ?
C4 C5 C6 120.57(17) . . ?
C4 C5 H5 119.7 . . ?
C6 C5 H5 119.7 . . ?
C7 C6 C5 118.51(17) . . ?
C7 C6 H6 120.7 . . ?
C5 C6 H6 120.7 . . ?
C6 C7 C2 121.25(16) . . ?
C6 C7 C8 130.97(16) . . ?
C2 C7 C8 107.59(14) . . ?
C9 C8 N2 105.92(14) . . ?
C9 C8 C7 146.20(16) . . ?
N2 C8 C7 107.43(13) . . ?
C8 C9 N1 109.03(15) . . ?
C8 C9 H9 125.5 . . ?
N1 C9 H9 125.5 . . ?
N1 C10 N2 110.67(14) . . ?
N1 C10 H10 124.7 . . ?
N2 C10 H10 124.7 . . ?
C12 C11 C16 110.99(13) . . ?
C12 C11 C1 111.36(12) . . ?
C16 C11 C1 110.58(13) . . ?
C12 C11 H11 107.9 . . ?
C16 C11 H11 107.9 . . ?
C1 C11 H11 107.9 . . ?
O1 C12 C13 111.45(14) . . ?
O1 C12 C11 107.93(13) . . ?
C13 C12 C11 112.22(13) . . ?
O1 C12 H12 108.4 . . ?
C13 C12 H12 108.4 . . ?
C11 C12 H12 108.4 . . ?
C12 C13 C14 112.58(14) . . ?
C12 C13 H13A 109.1 . . ?
C14 C13 H13A 109.1 . . ?
C12 C13 H13B 109.1 . . ?
C14 C13 H13B 109.1 . . ?
H13A C13 H13B 107.8 . . ?
C15 C14 C13 109.67(14) . . ?
C15 C14 H14A 109.7 . . ?
C13 C14 H14A 109.7 . . ?
C15 C14 H14B 109.7 . . ?
C13 C14 H14B 109.7 . . ?
H14A C14 H14B 108.2 . . ?
C16 C15 C14 111.04(13) . . ?
C16 C15 H15A 109.4 . . ?
C14 C15 H15A 109.4 . . ?
C16 C15 H15B 109.4 . . ?
C14 C15 H15B 109.4 . . ?
H15A C15 H15B 108.0 . . ?
C15 C16 C11 111.48(13) . . ?
C15 C16 H16A 109.3 . . ?
C11 C16 H16A 109.3 . . ?
C15 C16 H16B 109.3 . . ?
C11 C16 H16B 109.3 . . ?
H16A C16 H16B 108.0 . . ?
C10 N1 C9 106.41(13) . . ?
C10 N2 C8 107.94(13) . . ?
C10 N2 C1 138.46(14) . . ?
C8 N2 C1 113.58(13) . . ?
C12 O1 H1A 109.5 . . ?
loop_
_geom_bond_atom_site_label_1
_geom_bond_atom_site_label_2
_geom_bond_distance
_geom_bond_site_symmetry_2
_geom_bond_publ_flag
C1 N2 1.4785(19) . ?
C1 C2 1.525(2) . ?
C1 C11 1.551(2) . ?
C1 H1 1.0000 . ?
C2 C3 1.384(2) . ?
C2 C7 1.407(2) . ?
C3 C4 1.395(2) . ?
C3 H3 0.9500 . ?
C4 C5 1.389(3) . ?
C4 H4 0.9500 . ?
C5 C6 1.391(3) . ?
C5 H5 0.9500 . ?
C6 C7 1.388(3) . ?
C6 H6 0.9500 . ?
C7 C8 1.456(2) . ?
C8 C9 1.372(2) . ?
C8 N2 1.377(2) . ?
C9 N1 1.381(2) . ?
C9 H9 0.9500 . ?
C10 N1 1.328(2) . ?
C10 N2 1.348(2) . ?
C10 H10 0.9500 . ?
C11 C12 1.534(2) . ?
C11 C16 1.535(2) . ?
C11 H11 1.0000 . ?
C12 O1 1.426(2) . ?
C12 C13 1.524(2) . ?
C12 H12 1.0000 . ?
C13 C14 1.530(2) . ?
C13 H13A 0.9900 . ?
C13 H13B 0.9900 . ?
C14 C15 1.530(2) . ?
C14 H14A 0.9900 . ?
C14 H14B 0.9900 . ?
C15 C16 1.528(2) . ?
C15 H15A 0.9900 . ?
C15 H15B 0.9900 . ?
C16 H16A 0.9900 . ?
C16 H16B 0.9900 . ?
O1 H1A 0.8400 . ?
