#------------------------------------------------------------------------------
#$Date: 2020-02-08 00:24:05 +0200 (Sat, 08 Feb 2020) $
#$Revision: 247953 $
#$URL: file:///home/coder/svn-repositories/cod/cif/4/51/73/4517391.cif $
#------------------------------------------------------------------------------
#
# This file is available in the Crystallography Open Database (COD),
# http://www.crystallography.net/
#
# All data on this site have been placed in the public domain by the
# contributors.
#
data_4517391
loop_
_publ_author_name
'Jana, Akash'
'Das, Kuhali'
'Kundu, Abhishek'
'Thorve, Pradip Ramdas'
'Adhikari, Debashis'
'Maji, Biplab'
_publ_section_title
;
 A Phosphine-Free Manganese Catalyst Enables Stereoselective Synthesis of
 (1 + n)-Membered Cycloalkanes from Methyl Ketones and 1,n-Diols
;
_journal_name_full               'ACS Catalysis'
_journal_page_first              2615
_journal_paper_doi               10.1021/acscatal.9b05567
_journal_year                    2020
_chemical_formula_moiety         'C15 H14 Br Mn N2 O3 S'
_chemical_formula_sum            'C15 H14 Br Mn N2 O3 S'
_chemical_formula_weight         437.19
_space_group_crystal_system      triclinic
_space_group_IT_number           2
_space_group_name_Hall           '-P 1'
_space_group_name_H-M_alt        'P -1'
_atom_sites_solution_hydrogens   geom
_atom_sites_solution_primary     dual
_atom_sites_solution_secondary   difmap
_audit_creation_date             2019-10-26
_audit_creation_method
;
Olex2 1.2
(compiled 2018.05.29 svn.r3508 for OlexSys, GUI svn.r5506)
;
_cell_angle_alpha                83.308(4)
_cell_angle_beta                 86.928(4)
_cell_angle_gamma                73.022(5)
_cell_formula_units_Z            2
_cell_length_a                   6.6200(3)
_cell_length_b                   7.8565(5)
_cell_length_c                   17.0496(7)
_cell_measurement_reflns_used    4485
_cell_measurement_temperature    293(2)
_cell_measurement_theta_max      65.6300
_cell_measurement_theta_min      2.5990
_cell_volume                     842.15(8)
_computing_cell_refinement
;
CrysAlisPro, Agilent Technologies,
Version 1.171.37.33c (release 11-04-2014 CrysAlis171 .NET)
(compiled Apr 11 2014,15:12:41)
;
_computing_data_collection
;
CrysAlisPro, Agilent Technologies,
Version 1.171.37.33c (release 11-04-2014 CrysAlis171 .NET)
(compiled Apr 11 2014,15:12:41)
;
_computing_data_reduction
;
CrysAlisPro, Agilent Technologies,
Version 1.171.37.33c (release 11-04-2014 CrysAlis171 .NET)
(compiled Apr 11 2014,15:12:41)
;
_computing_molecular_graphics    'Olex2 (Dolomanov et al., 2009)'
_computing_publication_material  'Olex2 (Dolomanov et al., 2009)'
_computing_structure_refinement  'ShelXL (Sheldrick, 2015)'
_computing_structure_solution    'ShelXT (Sheldrick, 2015)'
_diffrn_ambient_temperature      293(2)
_diffrn_detector                 'CCD plate'
_diffrn_detector_area_resol_mean 7.9580
_diffrn_detector_type            Eos
_diffrn_measured_fraction_theta_full 0.980
_diffrn_measured_fraction_theta_max 0.980
_diffrn_measurement_details
;
#__ type_ start__ end____ width___ exp.time_
  1 omega  -50.00   64.00   1.0000    2.0000
omega____ theta____ kappa____ phi______ frames
    -       26.3311  -57.0000    0.0000 114

#__ type_ start__ end____ width___ exp.time_
  2 omega   57.00  121.00   1.0000    2.0000
omega____ theta____ kappa____ phi______ frames
    -       26.3311  178.0000   30.0000 64

#__ type_ start__ end____ width___ exp.time_
  3 omega    1.00   81.00   1.0000    2.0000
omega____ theta____ kappa____ phi______ frames
    -       26.3311  -99.0000 -150.0000 80

#__ type_ start__ end____ width___ exp.time_
  4 omega  -55.00   82.00   1.0000    2.0000
omega____ theta____ kappa____ phi______ frames
    -       26.3311  -38.0000   60.0000 137

#__ type_ start__ end____ width___ exp.time_
  5 omega  -12.00  102.00   1.0000    2.0000
omega____ theta____ kappa____ phi______ frames
    -       26.3311   57.0000 -150.0000 114

#__ type_ start__ end____ width___ exp.time_
  6 omega   20.00  147.00   1.0000    7.1700
omega____ theta____ kappa____ phi______ frames
    -       67.1656   45.0000   30.0000 127

#__ type_ start__ end____ width___ exp.time_
  7 omega  -18.00  110.00   1.0000    7.1700
omega____ theta____ kappa____ phi______ frames
    -       67.1656  -77.0000 -180.0000 128

#__ type_ start__ end____ width___ exp.time_
  8 omega   57.00  150.00   1.0000    7.1700
omega____ theta____ kappa____ phi______ frames
    -       67.1656  178.0000 -120.0000 93

#__ type_ start__ end____ width___ exp.time_
  9 omega   30.00  144.00   1.0000    7.1700
omega____ theta____ kappa____ phi______ frames
    -       67.1656   61.0000    0.0000 114

#__ type_ start__ end____ width___ exp.time_
 10 omega   57.00  150.00   1.0000    7.1700
omega____ theta____ kappa____ phi______ frames
    -       67.1656  178.0000    0.0000 93

#__ type_ start__ end____ width___ exp.time_
 11 omega  100.00  153.00   1.0000    7.1700
omega____ theta____ kappa____ phi______ frames
    -       67.1656  111.0000  150.0000 53

#__ type_ start__ end____ width___ exp.time_
 12 omega  100.00  153.00   1.0000    7.1700
omega____ theta____ kappa____ phi______ frames
    -       67.1656  111.0000   90.0000 53

#__ type_ start__ end____ width___ exp.time_
 13 omega   30.00  144.00   1.0000    7.1700
omega____ theta____ kappa____ phi______ frames
    -       67.1656   61.0000  120.0000 114

#__ type_ start__ end____ width___ exp.time_
 14 omega  100.00  153.00   1.0000    7.1700
omega____ theta____ kappa____ phi______ frames
    -       67.1656  111.0000    0.0000 53

#__ type_ start__ end____ width___ exp.time_
 15 omega   24.00  152.00   1.0000    7.1700
omega____ theta____ kappa____ phi______ frames
    -       67.1656   77.0000   60.0000 128

#__ type_ start__ end____ width___ exp.time_
 16 omega   21.00  113.00   1.0000    7.1700
omega____ theta____ kappa____ phi______ frames
    -      108.0000 -104.0000 -120.0000 92

#__ type_ start__ end____ width___ exp.time_
 17 omega  101.00  178.00   1.0000    7.1700
omega____ theta____ kappa____ phi______ frames
    -      108.0000  104.0000 -180.0000 77

#__ type_ start__ end____ width___ exp.time_
 18 omega   21.00  113.00   1.0000    7.1700
omega____ theta____ kappa____ phi______ frames
    -      108.0000 -104.0000  150.0000 92

#__ type_ start__ end____ width___ exp.time_
 19 omega   31.00  147.00   1.0000    7.1700
omega____ theta____ kappa____ phi______ frames
    -      108.0000  -54.0000 -180.0000 116

#__ type_ start__ end____ width___ exp.time_
 20 omega   31.00  147.00   1.0000    7.1700
omega____ theta____ kappa____ phi______ frames
    -      108.0000  -54.0000   90.0000 116

#__ type_ start__ end____ width___ exp.time_
 21 omega   21.00  113.00   1.0000    7.1700
omega____ theta____ kappa____ phi______ frames
    -      108.0000 -104.0000   30.0000 92

#__ type_ start__ end____ width___ exp.time_
 22 omega   30.00  178.00   1.0000    7.1700
omega____ theta____ kappa____ phi______ frames
    -      108.0000   29.0000   27.8200 148

#__ type_ start__ end____ width___ exp.time_
 23 omega   21.00  113.00   1.0000    7.1700
omega____ theta____ kappa____ phi______ frames
    -      108.0000 -104.0000  -30.0000 92

#__ type_ start__ end____ width___ exp.time_
 24 omega   25.00  178.00   1.0000    7.1700
omega____ theta____ kappa____ phi______ frames
    -      108.0000   21.0000  -30.0000 153

#__ type_ start__ end____ width___ exp.time_
 25 omega   29.00  145.00   1.0000    7.1700
omega____ theta____ kappa____ phi______ frames
    -      108.0000  -65.0000 -120.0000 116

#__ type_ start__ end____ width___ exp.time_
 26 omega   21.00  178.00   1.0000    7.1700
omega____ theta____ kappa____ phi______ frames
    -      108.0000  -21.0000  -90.0000 157

#__ type_ start__ end____ width___ exp.time_
 27 omega   19.00  158.00   1.0000    7.1700
omega____ theta____ kappa____ phi______ frames
    -      108.0000  -89.0000   90.0000 139

#__ type_ start__ end____ width___ exp.time_
 28 omega   19.00  158.00   1.0000    7.1700
omega____ theta____ kappa____ phi______ frames
    -      108.0000  -89.0000  -30.0000 139

#__ type_ start__ end____ width___ exp.time_
 29 omega   21.00  178.00   1.0000    7.1700
omega____ theta____ kappa____ phi______ frames
    -      108.0000  -21.0000  120.0000 157

#__ type_ start__ end____ width___ exp.time_
 30 omega   19.00  158.00   1.0000    7.1700
omega____ theta____ kappa____ phi______ frames
    -      108.0000  -89.0000  -90.0000 139

#__ type_ start__ end____ width___ exp.time_
 31 omega   21.00  178.00   1.0000    7.1700
omega____ theta____ kappa____ phi______ frames
    -      108.0000  -21.0000   30.0000 157

#__ type_ start__ end____ width___ exp.time_
 32 omega   26.00  120.00   1.0000    7.1700
omega____ theta____ kappa____ phi______ frames
    -      108.0000 -122.0000  127.4754 94

#__ type_ start__ end____ width___ exp.time_
 33 omega  -17.00  111.00   1.0000    2.0000
omega____ theta____ kappa____ phi______ frames
    -       26.3311   77.0000   60.0000 128

#__ type_ start__ end____ width___ exp.time_
 34 omega  -12.00  102.00   1.0000    2.0000
omega____ theta____ kappa____ phi______ frames
    -       26.3311   57.0000  150.0000 114

#__ type_ start__ end____ width___ exp.time_
 35 omega  -17.00  111.00   1.0000    2.0000
omega____ theta____ kappa____ phi______ frames
    -       26.3311   77.0000    0.0000 128

#__ type_ start__ end____ width___ exp.time_
 36 omega  -12.00  102.00   1.0000    2.0000
omega____ theta____ kappa____ phi______ frames
    -       26.3311   57.0000 -120.0000 114

#__ type_ start__ end____ width___ exp.time_
 37 omega  -12.00  102.00   1.0000    2.0000
omega____ theta____ kappa____ phi______ frames
    -       26.3311   57.0000  -30.0000 114

#__ type_ start__ end____ width___ exp.time_
 38 omega   24.00  152.00   1.0000    7.1700
omega____ theta____ kappa____ phi______ frames
    -       67.1656   77.0000  -90.0000 128

#__ type_ start__ end____ width___ exp.time_
 39 omega   24.00  152.00   1.0000    7.1700
omega____ theta____ kappa____ phi______ frames
    -       67.1656   77.0000    0.0000 128

#__ type_ start__ end____ width___ exp.time_
 40 omega   30.00  144.00   1.0000    7.1700
omega____ theta____ kappa____ phi______ frames
    -       67.1656   61.0000 -150.0000 114

#__ type_ start__ end____ width___ exp.time_
 41 omega   24.00  152.00   1.0000    7.1700
omega____ theta____ kappa____ phi______ frames
    -       67.1656   77.0000  -60.0000 128

#__ type_ start__ end____ width___ exp.time_
 42 omega  100.00  153.00   1.0000    7.1700
omega____ theta____ kappa____ phi______ frames
    -       67.1656  111.0000 -150.0000 53

#__ type_ start__ end____ width___ exp.time_
 43 omega   24.00  152.00   1.0000    7.1700
omega____ theta____ kappa____ phi______ frames
    -       67.1656   77.0000  150.0000 128

#__ type_ start__ end____ width___ exp.time_
 44 omega   24.00  152.00   1.0000    7.1700
omega____ theta____ kappa____ phi______ frames
    -       67.1656   77.0000  120.0000 128

#__ type_ start__ end____ width___ exp.time_
 45 omega  100.00  153.00   1.0000    7.1700
omega____ theta____ kappa____ phi______ frames
    -       67.1656  111.0000 -180.0000 53

#__ type_ start__ end____ width___ exp.time_
 46 omega   24.00  152.00   1.0000    7.1700
omega____ theta____ kappa____ phi______ frames
    -       67.1656   77.0000   30.0000 128

#__ type_ start__ end____ width___ exp.time_
 47 omega   24.00  152.00   1.0000    7.1700
omega____ theta____ kappa____ phi______ frames
    -       67.1656   77.0000 -150.0000 128

#__ type_ start__ end____ width___ exp.time_
 48 omega   65.00  178.00   1.0000    7.1700
omega____ theta____ kappa____ phi______ frames
    -      108.0000   77.0000   30.0000 113

#__ type_ start__ end____ width___ exp.time_
 49 omega   65.00  178.00   1.0000    7.1700
omega____ theta____ kappa____ phi______ frames
    -      108.0000   77.0000  -90.0000 113

#__ type_ start__ end____ width___ exp.time_
 50 omega   65.00  178.00   1.0000    7.1700
omega____ theta____ kappa____ phi______ frames
    -      108.0000   77.0000 -120.0000 113

#__ type_ start__ end____ width___ exp.time_
 51 omega   65.00  178.00   1.0000    7.1700
omega____ theta____ kappa____ phi______ frames
    -      108.0000   77.0000 -180.0000 113

#__ type_ start__ end____ width___ exp.time_
 52 omega   65.00  178.00   1.0000    7.1700
omega____ theta____ kappa____ phi______ frames
    -      108.0000   77.0000    0.0000 113

#__ type_ start__ end____ width___ exp.time_
 53 omega   71.00  178.00   1.0000    7.1700
omega____ theta____ kappa____ phi______ frames
    -      108.0000   65.0000 -150.0000 107

#__ type_ start__ end____ width___ exp.time_
 54 omega   58.00  178.00   1.0000    7.1700
omega____ theta____ kappa____ phi______ frames
    -      108.0000   43.0000  120.0000 120

#__ type_ start__ end____ width___ exp.time_
 55 omega   71.00  178.00   1.0000    7.1700
omega____ theta____ kappa____ phi______ frames
    -      108.0000   65.0000   60.0000 107

#__ type_ start__ end____ width___ exp.time_
 56 omega   36.00  178.00   1.0000    7.1700
omega____ theta____ kappa____ phi______ frames
    -      108.0000   32.0000 -180.0000 142
;
_diffrn_measurement_device       'four-circle diffractometer'
_diffrn_measurement_device_type  'SuperNova, Dual, Cu at zero, Eos'
_diffrn_measurement_method       '\w scans'
_diffrn_orient_matrix_UB_11      0.1468951000
_diffrn_orient_matrix_UB_12      -0.0292277000
_diffrn_orient_matrix_UB_13      0.0704912000
_diffrn_orient_matrix_UB_21      -0.0593687000
_diffrn_orient_matrix_UB_22      -0.1717695000
_diffrn_orient_matrix_UB_23      0.0307550000
_diffrn_orient_matrix_UB_31      0.1847338000
_diffrn_orient_matrix_UB_32      -0.1102255000
_diffrn_orient_matrix_UB_33      -0.0486374000
_diffrn_radiation_monochromator  mirror
_diffrn_radiation_probe          x-ray
_diffrn_radiation_type           CuK\a
_diffrn_radiation_wavelength     1.54184
_diffrn_reflns_av_R_equivalents  0.0485
_diffrn_reflns_av_unetI/netI     0.0413
_diffrn_reflns_limit_h_max       7
_diffrn_reflns_limit_h_min       -7
_diffrn_reflns_limit_k_max       9
_diffrn_reflns_limit_k_min       -9
_diffrn_reflns_limit_l_max       20
_diffrn_reflns_limit_l_min       -20
_diffrn_reflns_number            10002
_diffrn_reflns_theta_full        66.35
_diffrn_reflns_theta_max         66.35
_diffrn_reflns_theta_min         5.23
_diffrn_source                   'sealed X-ray tube'
_diffrn_source_type              'SuperNova (Cu) X-ray Source'
_exptl_absorpt_coefficient_mu    10.446
_exptl_absorpt_correction_T_max  1.00000
_exptl_absorpt_correction_T_min  0.71208
_exptl_absorpt_correction_type   multi-scan
_exptl_absorpt_process_details
;
CrysAlisPro, Agilent Technologies,
Version 1.171.37.33c (release 11-04-2014 CrysAlis171 .NET)
(compiled Apr 11 2014,15:12:41)
Empirical absorption correction using spherical harmonics,
 implemented in SCALE3 ABSPACK scaling algorithm.
;
_exptl_crystal_colour            'clear brownish orange'
_exptl_crystal_colour_lustre     clear
_exptl_crystal_colour_modifier   brownish
_exptl_crystal_colour_primary    orange
_exptl_crystal_density_diffrn    1.724
_exptl_crystal_density_method    'not measured'
_exptl_crystal_description       irregular
_exptl_crystal_F_000             436
_exptl_crystal_size_max          0.5
_exptl_crystal_size_mid          0.5
_exptl_crystal_size_min          0.3
_refine_diff_density_max         0.368
_refine_diff_density_min         -0.503
_refine_diff_density_rms         0.068
_refine_ls_extinction_method     none
_refine_ls_goodness_of_fit_ref   0.980
_refine_ls_hydrogen_treatment    constr
_refine_ls_matrix_type           full
_refine_ls_number_parameters     209
_refine_ls_number_reflns         2891
_refine_ls_number_restraints     0
_refine_ls_restrained_S_all      0.980
_refine_ls_R_factor_all          0.0464
_refine_ls_R_factor_gt           0.0368
_refine_ls_shift/su_max          0.000
_refine_ls_shift/su_mean         0.000
_refine_ls_structure_factor_coef Fsqd
_refine_ls_weighting_details
'calc w=1/[\s^2^(Fo^2^)+(0.0561P)^2^+0.0000P] where P=(Fo^2^+2Fc^2^)/3'
_refine_ls_weighting_scheme      calc
_refine_ls_wR_factor_gt          0.0886
_refine_ls_wR_factor_ref         0.0943
_reflns_number_gt                2348
_reflns_number_total             2891
_reflns_threshold_expression     >2sigma(I)
_iucr_refine_instructions_details
;
TITL aja-ac-069_a.res in P-1
REM Old TITL AJA-AC-069 in P-1
REM SHELXT solution in P-1
REM R1 0.139, Rweak 0.014, Alpha 0.065, Orientation as input
REM Formula found by SHELXT: C15 N2 O3 S Mn Br
CELL 1.54184 6.62 7.8565 17.0496 83.308 86.928 73.022
ZERR 2 0.0003 0.0005 0.0007 0.004 0.004 0.005
LATT 1
SFAC C H Br Mn N O S
UNIT 30 28 2 2 4 6 2
 
L.S. 4 0 0
PLAN  20
SIZE 0.5 0.5 0.3
BOND $H
list 4
fmap 2 53
ACTA
OMIT 0 1 11
OMIT -1 -7 5
OMIT 3 6 12
OMIT 0 -7 3
OMIT -1 -7 3
OMIT -1 -1 2
OMIT 0 -7 9
OMIT 0 -7 7
OMIT 1 -8 3
OMIT 2 -7 6
OMIT 4 7 11
OMIT 6 -1 11
OMIT 3 6 11
OMIT 0 -2 4
OMIT -1 2 6
OMIT 4 -1 16
OMIT 2 -4 12
OMIT -1 0 10
OMIT -5 -8 4
OMIT 0 3 7
OMIT 4 4 17
OMIT 2 -2 1
OMIT -1 -1 7
OMIT -1 2 2
OMIT 2 9 2
OMIT 3 3 5
OMIT -2 -3 4
OMIT 0 -2 2
OMIT -1 -2 1
OMIT 3 4 14
OMIT -2 -1 6
OMIT -2 1 1
OMIT 0 -3 3
OMIT 3 -2 13
OMIT 1 1 0
OMIT 4 -1 15
OMIT 1 -2 1
OMIT 4 8 11
OMIT 0 1 0
OMIT -1 3 1
OMIT 1 2 7
OMIT 4 6 12
OMIT 4 8 9
OMIT 4 5 11
OMIT 4 0 17
OMIT 0 1 2
OMIT 0 2 3
OMIT 2 3 0
OMIT 0 0 1
OMIT 1 -2 3
REM <olex2.extras>
REM <HklSrc "%.\\AJA-AC-069.hkl">
REM </olex2.extras>
 
WGHT    0.056100
FVAR       0.66519
BR1   3    0.435036    0.169723    0.711473    11.00000    0.05649    0.07870 =
         0.06543   -0.01222   -0.01002   -0.02239
MN1   4    0.722151    0.187019    0.799665    11.00000    0.04159    0.04024 =
         0.03725   -0.00176    0.00075   -0.01299
S1    7    0.622386    0.696369    0.539351    11.00000    0.07000    0.07422 =
         0.06438    0.01538   -0.00326   -0.00634
O1    6    1.054606    0.142499    0.910705    11.00000    0.06927    0.07489 =
         0.05454   -0.00577   -0.00833   -0.02132
O2    6    1.018455   -0.058949    0.698743    11.00000    0.07301    0.05570 =
         0.06705   -0.01730    0.00782   -0.00785
N2    5    0.749960    0.433047    0.733628    11.00000    0.04519    0.04295 =
         0.03311   -0.00305    0.00232   -0.00971
N1    5    0.500271    0.376195    0.856462    11.00000    0.04204    0.05120 =
         0.03883   -0.00349    0.00235   -0.01819
O3    6    0.655585   -0.127496    0.894584    11.00000    0.09591    0.06764 =
         0.08131    0.01216    0.00608   -0.03640
C13   1    0.935157    0.166394    0.869202    11.00000    0.04854    0.04221 =
         0.05286   -0.01207    0.01365   -0.01578
C1    1    0.412639    0.347769    0.928195    11.00000    0.04770    0.05799 =
         0.04315   -0.00167    0.00352   -0.01993
AFIX  43
H1    2    0.450065    0.233219    0.954892    11.00000   -1.20000
AFIX   0
C9    1    0.829188    0.569050    0.596116    11.00000    0.05672    0.04376 =
         0.03484   -0.00184    0.00458   -0.00779
C5    1    0.443276    0.543038    0.818496    11.00000    0.04076    0.04828 =
         0.03867   -0.00290   -0.00098   -0.01021
C8    1    0.818154    0.405411    0.649409    11.00000    0.05509    0.04399 =
         0.03138   -0.00126    0.00539   -0.01272
AFIX  23
H8A   2    0.721161    0.353627    0.626872    11.00000   -1.20000
H8B   2    0.956608    0.318474    0.649510    11.00000   -1.20000
AFIX   0
C10   1    1.007705    0.627452    0.579372    11.00000    0.07439    0.05233 =
         0.03298   -0.00241    0.00710   -0.02227
AFIX  43
H10   2    1.137323    0.574667    0.603295    11.00000   -1.20000
AFIX   0
C7    1    0.898953    0.506939    0.770195    11.00000    0.05672    0.04979 =
         0.04371   -0.00261    0.00364   -0.02188
AFIX 137
H7A   2    0.856711    0.523200    0.824210    11.00000   -1.50000
H7B   2    0.898317    0.620117    0.741888    11.00000   -1.50000
H7C   2    1.038633    0.425510    0.768246    11.00000   -1.50000
AFIX   0
C15   1    0.676706   -0.004043    0.857116    11.00000    0.05816    0.05300 =
         0.05067    0.00020    0.00088   -0.01948
C6    1    0.534226    0.561900    0.737302    11.00000    0.05196    0.04606 =
         0.03978    0.00134    0.00168   -0.00374
AFIX  23
H6A   2    0.542214    0.683230    0.723934    11.00000   -1.20000
H6B   2    0.444310    0.537803    0.699501    11.00000   -1.20000
AFIX   0
C14   1    0.905805    0.038817    0.737357    11.00000    0.05343    0.04617 =
         0.04451    0.00165   -0.00566   -0.01652
C4    1    0.302671    0.684062    0.852187    11.00000    0.04455    0.05632 =
         0.05424   -0.00789   -0.00276   -0.00129
AFIX  43
H4    2    0.268565    0.798742    0.825625    11.00000   -1.20000
AFIX   0
C3    1    0.214571    0.653780    0.924505    11.00000    0.04173    0.07402 =
         0.05537   -0.01862    0.00383   -0.00445
AFIX  43
H3    2    0.118559    0.747352    0.947446    11.00000   -1.20000
AFIX   0
C2    1    0.268132    0.485214    0.963074    11.00000    0.04530    0.08435 =
         0.04461   -0.01526    0.01015   -0.02130
AFIX  43
H2    2    0.208210    0.462706    1.012343    11.00000   -1.20000
AFIX   0
C12   1    0.769372    0.827553    0.495687    11.00000    0.10874    0.04952 =
         0.04651    0.00636    0.01231   -0.00735
AFIX  43
H12   2    0.717550    0.924067    0.457937    11.00000   -1.20000
AFIX   0
C11   1    0.967550    0.776953    0.521493    11.00000    0.09346    0.05189 =
         0.05483   -0.00434    0.01602   -0.02824
AFIX  43
H11   2    1.068429    0.834144    0.503266    11.00000   -1.20000
HKLF 4
 
REM  aja-ac-069_a.res in P-1
REM R1 =  0.0368 for   2348 Fo > 4sig(Fo)  and  0.0464 for all   2891 data
REM    209 parameters refined using      0 restraints
 
END  
     
WGHT      0.0561      0.0000 
REM Highest difference peak  0.368,  deepest hole -0.503,  1-sigma level  0.068
Q1    1   0.8816  0.1593  0.8631  11.00000  0.05    0.37
Q2    1   0.6081  0.1685  0.7871  11.00000  0.05    0.33
Q3    1   1.0741  0.6328  0.5938  11.00000  0.05    0.32
Q4    1   0.9669  0.7051  0.5657  11.00000  0.05    0.31
Q5    1   0.7809  0.0215  0.8597  11.00000  0.05    0.27
Q6    1   0.9626  0.1712  0.8977  11.00000  0.05    0.27
Q7    1   1.0216  0.1642  0.8738  11.00000  0.05    0.26
Q8    1   0.2519  0.1701  0.7144  11.00000  0.05    0.26
Q9    1   1.1423  0.0818  0.9035  11.00000  0.05    0.26
Q10   1   0.7247  0.0534  0.8798  11.00000  0.05    0.25
Q11   1   0.3128  0.2803  0.6358  11.00000  0.05    0.24
Q12   1   0.5859  0.1875  0.7219  11.00000  0.05    0.23
Q13   1   0.5617  0.0377  0.7806  11.00000  0.05    0.23
Q14   1   0.4816  0.3749  0.8827  11.00000  0.05    0.23
Q15   1   0.7061  0.1537  0.7615  11.00000  0.05    0.23
Q16   1   0.7811  0.3625  0.7582  11.00000  0.05    0.23
Q17   1   0.5211 -0.0152  0.7603  11.00000  0.05    0.22
Q18   1   0.8589 -0.0081  0.8464  11.00000  0.05    0.22
Q19   1   0.4225  0.3445  0.8418  11.00000  0.05    0.22
Q20   1   0.3954  0.2639  0.6228  11.00000  0.05    0.21

  REM The information below was added by Olex2.
  REM
  REM R1 = 0.0368 for 2348 Fo > 4sig(Fo) and 0.0464 for all 10195 data
  REM n/a parameters refined using n/a restraints
  REM Highest difference peak 0.37, deepest hole -0.50
  REM Mean Shift 0, Max Shift 0.000.

  REM +++ Tabular Listing of Refinement Information +++
  REM R1_all = 0.0464
  REM R1_gt = 0.0368
  REM wR_ref = 0.0943
  REM GOOF = 0.980
  REM Shift_max = 0.000
  REM Shift_mean = 0
  REM Reflections_all = 10195
  REM Reflections_gt = 2348
  REM Parameters = n/a
  REM Hole = -0.50
  REM Peak = 0.37
  REM Flack = n/a

  
;
_cod_data_source_file            cs9b05567_si_003.cif
_cod_data_source_block           aja-ac-069
_cod_original_cell_volume        842.15(7)
_cod_database_code               4517391
_chemical_oxdiff_formula         'C H N Mn S O Br'
_reflns_odcompleteness_completeness 97.84
_reflns_odcompleteness_iscentric 1
_reflns_odcompleteness_theta     66.97
_olex2_refinement_description
;
1. Fixed Uiso
 At 1.2 times of:
  All C(H) groups, All C(H,H) groups
 At 1.5 times of:
  All C(H,H,H) groups
2.a Secondary CH2 refined with riding coordinates:
 C8(H8A,H8B), C6(H6A,H6B)
2.b Aromatic/amide H refined with riding coordinates:
 C1(H1), C10(H10), C4(H4), C3(H3), C2(H2), C12(H12), C11(H11)
2.c Idealised Me refined as rotating group:
 C7(H7A,H7B,H7C)
;
_olex2_date_sample_data_collection 2019-10-10
_olex2_submission_special_instructions 'No special instructions were received'
loop_
_space_group_symop_id
_space_group_symop_operation_xyz
1 'x, y, z'
2 '-x, -y, -z'
loop_
_atom_site_label
_atom_site_type_symbol
_atom_site_fract_x
_atom_site_fract_y
_atom_site_fract_z
_atom_site_U_iso_or_equiv
_atom_site_adp_type
_atom_site_occupancy
_atom_site_calc_flag
_atom_site_refinement_flags_posn
Br1 Br 0.43504(6) 0.16972(6) 0.71147(3) 0.06554(16) Uani 1 d .
Mn1 Mn 0.72215(7) 0.18702(7) 0.79966(3) 0.03969(15) Uani 1 d .
S1 S 0.62239(17) 0.69637(16) 0.53935(7) 0.0744(3) Uani 1 d .
O1 O 1.0546(4) 0.1425(4) 0.91070(17) 0.0659(7) Uani 1 d .
O2 O 1.0185(4) -0.0589(4) 0.69874(17) 0.0670(7) Uani 1 d .
N2 N 0.7500(4) 0.4330(4) 0.73363(14) 0.0413(6) Uani 1 d .
N1 N 0.5003(4) 0.3762(4) 0.85646(15) 0.0432(6) Uani 1 d .
O3 O 0.6556(5) -0.1275(4) 0.89458(19) 0.0808(9) Uani 1 d .
C13 C 0.9352(5) 0.1664(4) 0.8692(2) 0.0473(8) Uani 1 d .
C1 C 0.4126(5) 0.3478(5) 0.9282(2) 0.0491(8) Uani 1 d .
H1 H 0.4501 0.2332 0.9549 0.059 Uiso 1 calc R
C9 C 0.8292(5) 0.5691(5) 0.59612(19) 0.0469(8) Uani 1 d .
C5 C 0.4433(5) 0.5430(5) 0.81850(19) 0.0433(7) Uani 1 d .
C8 C 0.8182(5) 0.4054(4) 0.64941(18) 0.0443(7) Uani 1 d .
H8A H 0.7212 0.3536 0.6269 0.053 Uiso 1 calc R
H8B H 0.9566 0.3185 0.6495 0.053 Uiso 1 calc R
C10 C 1.0077(6) 0.6275(5) 0.57937(19) 0.0529(8) Uani 1 d .
H10 H 1.1373 0.5747 0.6033 0.063 Uiso 1 calc R
C7 C 0.8990(5) 0.5069(5) 0.7702(2) 0.0490(8) Uani 1 d .
H7A H 0.8567 0.5232 0.8242 0.074 Uiso 1 calc GR
H7B H 0.8983 0.6201 0.7419 0.074 Uiso 1 calc GR
H7C H 1.0386 0.4255 0.7682 0.074 Uiso 1 calc GR
C15 C 0.6767(5) -0.0040(5) 0.8571(2) 0.0537(8) Uani 1 d .
C6 C 0.5342(5) 0.5619(5) 0.73730(19) 0.0487(8) Uani 1 d .
H6A H 0.5422 0.6832 0.7239 0.058 Uiso 1 calc R
H6B H 0.4443 0.5378 0.6995 0.058 Uiso 1 calc R
C14 C 0.9058(5) 0.0388(5) 0.7374(2) 0.0479(8) Uani 1 d .
C4 C 0.3027(5) 0.6841(5) 0.8522(2) 0.0543(9) Uani 1 d .
H4 H 0.2686 0.7987 0.8256 0.065 Uiso 1 calc R
C3 C 0.2146(5) 0.6538(6) 0.9245(2) 0.0589(9) Uani 1 d .
H3 H 0.1186 0.7474 0.9474 0.071 Uiso 1 calc R
C2 C 0.2681(5) 0.4852(6) 0.9631(2) 0.0572(9) Uani 1 d .
H2 H 0.2082 0.4627 1.0123 0.069 Uiso 1 calc R
C12 C 0.7694(8) 0.8276(6) 0.4957(2) 0.0730(12) Uani 1 d .
H12 H 0.7175 0.9241 0.4579 0.088 Uiso 1 calc R
C11 C 0.9675(7) 0.7770(5) 0.5215(2) 0.0659(11) Uani 1 d .
H11 H 1.0684 0.8341 0.5033 0.079 Uiso 1 calc R
loop_
_atom_site_aniso_label
_atom_site_aniso_U_11
_atom_site_aniso_U_22
_atom_site_aniso_U_33
_atom_site_aniso_U_23
_atom_site_aniso_U_13
_atom_site_aniso_U_12
Br1 0.0565(2) 0.0787(3) 0.0654(3) -0.0122(2) -0.01002(18) -0.0224(2)
Mn1 0.0416(3) 0.0402(3) 0.0372(3) -0.0018(2) 0.0007(2) -0.0130(2)
S1 0.0700(6) 0.0742(7) 0.0644(6) 0.0154(5) -0.0033(5) -0.0063(5)
O1 0.0693(16) 0.075(2) 0.0545(16) -0.0058(14) -0.0083(14) -0.0213(14)
O2 0.0730(16) 0.0557(16) 0.0670(17) -0.0173(14) 0.0078(14) -0.0078(13)
N2 0.0452(13) 0.0430(15) 0.0331(13) -0.0031(11) 0.0023(10) -0.0097(11)
N1 0.0420(13) 0.0512(16) 0.0388(14) -0.0035(12) 0.0023(11) -0.0182(11)
O3 0.096(2) 0.068(2) 0.081(2) 0.0122(16) 0.0061(16) -0.0364(16)
C13 0.0485(17) 0.0422(18) 0.053(2) -0.0121(16) 0.0137(16) -0.0158(14)
C1 0.0477(17) 0.058(2) 0.0432(18) -0.0017(16) 0.0035(14) -0.0199(15)
C9 0.0567(18) 0.0438(18) 0.0348(16) -0.0018(14) 0.0046(14) -0.0078(14)
C5 0.0408(15) 0.0483(19) 0.0387(16) -0.0029(14) -0.0010(13) -0.0102(13)
C8 0.0551(17) 0.0440(18) 0.0314(15) -0.0013(13) 0.0054(13) -0.0127(14)
C10 0.074(2) 0.052(2) 0.0330(16) -0.0024(15) 0.0071(16) -0.0223(17)
C7 0.0567(18) 0.050(2) 0.0437(18) -0.0026(15) 0.0036(15) -0.0219(15)
C15 0.058(2) 0.053(2) 0.051(2) 0.0002(17) 0.0009(16) -0.0195(16)
C6 0.0520(17) 0.0461(19) 0.0398(17) 0.0013(14) 0.0017(14) -0.0037(14)
C14 0.0534(17) 0.0462(19) 0.0445(18) 0.0017(15) -0.0057(15) -0.0165(15)
C4 0.0446(17) 0.056(2) 0.054(2) -0.0079(17) -0.0028(15) -0.0013(15)
C3 0.0417(17) 0.074(3) 0.055(2) -0.0186(19) 0.0038(15) -0.0045(16)
C2 0.0453(17) 0.084(3) 0.0446(19) -0.0153(19) 0.0102(15) -0.0213(18)
C12 0.109(3) 0.050(2) 0.047(2) 0.0064(17) 0.012(2) -0.007(2)
C11 0.093(3) 0.052(2) 0.055(2) -0.0043(18) 0.016(2) -0.028(2)
loop_
_atom_type_symbol
_atom_type_description
_atom_type_scat_dispersion_real
_atom_type_scat_dispersion_imag
_atom_type_scat_source
C C 0.0181 0.0091 'International Tables Vol C Tables 4.2.6.8 and 6.1.1.4'
H H 0.0000 0.0000 'International Tables Vol C Tables 4.2.6.8 and 6.1.1.4'
Br Br -0.6763 1.2805 'International Tables Vol C Tables 4.2.6.8 and 6.1.1.4'
Mn Mn -0.5299 2.8052 'International Tables Vol C Tables 4.2.6.8 and 6.1.1.4'
N N 0.0311 0.0180 'International Tables Vol C Tables 4.2.6.8 and 6.1.1.4'
O O 0.0492 0.0322 'International Tables Vol C Tables 4.2.6.8 and 6.1.1.4'
S S 0.3331 0.5567 'International Tables Vol C Tables 4.2.6.8 and 6.1.1.4'
loop_
_geom_angle_atom_site_label_1
_geom_angle_atom_site_label_2
_geom_angle_atom_site_label_3
_geom_angle
N2 Mn1 Br1 92.30(7)
N1 Mn1 Br1 88.77(7)
N1 Mn1 N2 78.56(10)
C13 Mn1 Br1 171.91(11)
C13 Mn1 N2 95.52(12)
C13 Mn1 N1 94.77(12)
C15 Mn1 Br1 85.94(12)
C15 Mn1 N2 174.87(13)
C15 Mn1 N1 96.57(14)
C15 Mn1 C13 86.43(16)
C15 Mn1 C14 89.21(16)
C14 Mn1 Br1 86.58(11)
C14 Mn1 N2 95.50(12)
C14 Mn1 N1 172.31(13)
C14 Mn1 C13 90.64(15)
C12 S1 C9 91.8(2)
C8 N2 Mn1 111.33(19)
C7 N2 Mn1 111.97(19)
C7 N2 C8 109.3(2)
C7 N2 C6 108.5(3)
C6 N2 Mn1 105.01(18)
C6 N2 C8 110.6(2)
C1 N1 Mn1 125.5(2)
C1 N1 C5 118.4(3)
C5 N1 Mn1 116.1(2)
O1 C13 Mn1 174.5(3)
N1 C1 H1 119.2
N1 C1 C2 121.6(3)
C2 C1 H1 119.2
C8 C9 S1 122.6(3)
C10 C9 S1 110.8(3)
C10 C9 C8 126.3(3)
N1 C5 C6 115.4(3)
N1 C5 C4 121.6(3)
C4 C5 C6 122.9(3)
N2 C8 C9 116.4(3)
N2 C8 H8A 108.2
N2 C8 H8B 108.2
C9 C8 H8A 108.2
C9 C8 H8B 108.2
H8A C8 H8B 107.3
C9 C10 H10 124.2
C9 C10 C11 111.6(4)
C11 C10 H10 124.2
N2 C7 H7A 109.5
N2 C7 H7B 109.5
N2 C7 H7C 109.5
H7A C7 H7B 109.5
H7A C7 H7C 109.5
H7B C7 H7C 109.5
O3 C15 Mn1 177.4(3)
N2 C6 H6A 109.8
N2 C6 H6B 109.8
C5 C6 N2 109.3(3)
C5 C6 H6A 109.8
C5 C6 H6B 109.8
H6A C6 H6B 108.3
O2 C14 Mn1 177.8(3)
C5 C4 H4 120.2
C3 C4 C5 119.5(4)
C3 C4 H4 120.2
C4 C3 H3 120.2
C4 C3 C2 119.5(3)
C2 C3 H3 120.2
C1 C2 H2 120.3
C3 C2 C1 119.4(3)
C3 C2 H2 120.3
S1 C12 H12 123.6
C11 C12 S1 112.7(3)
C11 C12 H12 123.6
C10 C11 H11 123.5
C12 C11 C10 113.0(4)
C12 C11 H11 123.5
loop_
_geom_bond_atom_site_label_1
_geom_bond_atom_site_label_2
_geom_bond_distance
Br1 Mn1 2.5292(6)
Mn1 N2 2.172(3)
Mn1 N1 2.052(3)
Mn1 C13 1.850(4)
Mn1 C15 1.787(4)
Mn1 C14 1.813(4)
S1 C9 1.711(3)
S1 C12 1.701(5)
O1 C13 1.051(4)
O2 C14 1.145(4)
N2 C8 1.503(4)
N2 C7 1.478(4)
N2 C6 1.493(4)
N1 C1 1.348(4)
N1 C5 1.349(4)
O3 C15 1.137(4)
C1 H1 0.9300
C1 C2 1.386(5)
C9 C8 1.503(4)
C9 C10 1.392(5)
C5 C6 1.489(4)
C5 C4 1.383(5)
C8 H8A 0.9700
C8 H8B 0.9700
C10 H10 0.9300
C10 C11 1.414(5)
C7 H7A 0.9600
C7 H7B 0.9600
C7 H7C 0.9600
C6 H6A 0.9700
C6 H6B 0.9700
C4 H4 0.9300
C4 C3 1.361(5)
C3 H3 0.9300
C3 C2 1.364(6)
C2 H2 0.9300
C12 H12 0.9300
C12 C11 1.338(6)
C11 H11 0.9300
loop_
_refln_index_h
_refln_index_k
_refln_index_l
_refln_F_squared_meas
_refln_F_squared_sigma
0 0 -1 11.67 1.22
0 0 -2 2970.34 26.22
0 0 -2 3236.15 18.47
0 0 2 3217.32 26.68
0 0 -2 2978.7 28.74
0 0 -2 3130.53 31.21
0 0 -3 1136.85 23.27
0 0 -3 1140.44 13.11
0 0 -3 1017.58 19.02
0 0 -3 1056.59 21.37
0 0 3 1133.94 19.56
0 0 -4 780.47 12.1
0 0 -4 826.26 22.09
0 0 4 828.86 17.53
0 0 4 806.66 19.18
0 0 -4 832.72 20
0 0 -4 791.25 22.76
0 0 5 2054.78 31
0 0 5 1847.04 39.99
0 0 5 2048.61 34.22
0 0 -5 1961.42 40.22
0 0 5 1820.8 40.74
0 0 -5 2086.47 35.48
0 0 -5 1803.23 41.42
0 0 6 102.07 10.8
0 0 6 123.17 12.03
0 0 6 124.38 9.57
0 0 -6 109.95 9.23
0 0 -6 109.28 11.58
0 0 -6 118.02 11.35
0 0 7 389.36 22.77
0 0 -7 385.62 21.78
0 0 7 393.2 22.97
0 0 -7 417.62 24.56
0 0 8 309.81 22.3
0 0 8 311.84 22.59
0 0 -8 332.04 11.74
0 0 -8 289.84 22.47
0 0 -8 321.38 11.55
0 0 9 407.91 27.89
0 0 -9 458.2 14.97
0 0 -9 473.49 31.08
0 0 -9 471.44 15.11
0 0 -9 472.96 13.98
0 0 9 470.93 29.68
0 0 -10 466.12 14.85
0 0 -10 452.64 15.89
0 0 -10 446.16 15.74
0 0 -11 260.34 12.92
0 0 -11 265.92 11.94
0 0 -11 264.92 13.04
0 0 -12 572 18.59
0 0 -12 565.18 20.03
0 0 -12 525.85 19.31
0 0 -13 53.32 7.06
0 0 -13 52.33 6.76
0 0 -14 235.06 14.19
0 0 -14 222.91 13.82
0 0 -15 122.47 10.59
0 0 -15 129.66 11.33
0 0 -15 127.58 12.08
0 0 -15 121.14 10.8
0 0 -15 114.98 10.43
0 0 -16 82.53 9.17
0 0 -16 74.85 9.54
0 0 -16 75.99 8.81
0 0 -16 80.61 9
0 0 -17 -0.33 3.75
0 0 -17 3.43 4
0 0 -17 2.22 3.89
0 0 -17 3.23 4.05
0 0 -18 65.18 7.36
0 0 -18 77.25 8.48
0 0 -18 67.66 8.05
0 0 -18 68.75 8.45
0 0 -19 9.59 3.78
0 0 -19 11.09 5.14
0 0 -19 11.38 3.51
0 0 -19 9.07 3.72
0 0 -20 25.66 4.34
0 0 -20 26.71 4.27
0 0 -20 25.42 3.9
0 1 -19 2.24 2.56
0 1 -19 0.53 3.16
0 1 -19 2.06 3.1
0 1 -19 3.03 3.28
0 1 -19 4.88 3.14
0 1 -18 -1.76 3.78
0 1 -18 3.14 3.75
0 1 -18 0.36 3.16
0 1 -18 1.76 3.16
0 1 -18 0.12 3.33
0 1 -17 32.05 6.34
0 1 -17 28.23 5.84
0 1 -17 25.51 5.95
0 1 -17 29.82 6.82
0 1 -17 30.96 5.93
0 -1 16 12.84 21.15
0 1 -16 7.64 5.47
0 1 -16 2.69 4.16
0 1 -16 -0.64 4.07
0 1 -16 3.65 3.77
0 1 -15 143.25 11.71
0 1 -15 149.05 11.99
0 1 -15 143.54 12.85
0 1 -15 139.43 10.76
0 1 -15 146.21 11.74
0 1 -15 143.91 11.55
0 1 -14 220.99 14.05
0 1 -14 238.09 15.98
0 1 -14 217.98 13.97
0 1 -14 224.36 14.57
0 1 -14 222.21 13.45
0 1 -13 343.93 16.25
0 1 -13 362.97 17.94
0 1 -12 603.53 22.04
0 1 -12 635.58 21.11
0 1 -11 227.93 12.93
0 1 -11 218.13 11.87
0 1 -10 1009.81 25.44
0 1 -10 1124.73 26.75
0 -1 9 669.63 36.23
0 1 -9 638.72 35.4
0 -1 9 671.79 36.99
0 1 -9 662.19 19.43
0 1 -9 638.11 19.01
0 -1 8 278.64 21.9
0 1 -8 322.8 12.64
0 1 -8 341.81 13.18
0 1 -8 290.26 23.01
0 1 -8 327.33 23.5
0 -1 8 339.26 24.43
0 -1 7 52.97 9.36
0 -1 7 48.38 8.73
0 1 -7 65.99 9.93
0 1 -7 47.72 8.93
0 1 -6 16.11 5.84
0 -1 6 6.93 4.12
0 -1 6 8.08 4.5
0 1 -6 8.69 3.83
0 -1 5 700.78 26.99
0 1 -5 719.91 25.74
0 -1 5 788.61 22.26
0 1 -5 724.01 27.99
0 1 -5 782.07 23.34
0 -1 5 733.41 27.19
0 1 -4 559.86 13.6
0 -1 4 521.76 21.16
0 1 -4 583.31 19.68
0 1 -4 522.17 21.75
0 -1 4 547.15 21.27
0 -1 4 579.04 17.97
0 -1 3 2289.91 38.68
0 1 -3 2251.69 24.03
0 1 -3 2341.81 37.79
0 -1 2 1534.99 25.63
0 1 -2 1563.58 29.57
0 1 -2 1623.16 30.49
0 -1 2 1639.84 29
0 -1 1 2356.05 30.5
0 -1 1 2343.99 30.59
0 1 -1 2383.95 30.48
0 1 0 31.61 3.04
0 -1 0 34.5 3.63
0 -1 0 28.16 1.68
0 -1 0 29.01 3.44
0 -1 -1 3624.39 28.79
0 1 1 3644.01 38.54
0 -1 -1 3533.84 33.4
0 1 2 22.73 3.22
0 -1 -2 29.35 3.81
0 1 2 22.09 3.78
0 -1 -2 27.53 3.49
0 -1 -3 2926.5 36.13
0 1 3 2841.14 29.43
0 -1 -3 2927.49 41.26
0 1 4 1039.71 27.6
0 -1 -4 984.73 23.74
0 -1 -4 1054.91 28.69
0 1 4 1007.37 24.74
0 1 5 2474.52 41.55
0 1 5 2406.01 47.84
0 -1 -5 2121.37 38.7
0 1 5 2194.93 44.52
0 -1 -5 2267.73 47.41
0 1 6 317.31 18.83
0 1 6 378.38 21.16
0 1 6 379.76 17.77
0 -1 -6 347.28 20.77
0 -1 -6 349.6 17.51
0 -1 -7 76.09 9.35
0 1 7 75.38 10.87
0 1 7 75.62 10.38
0 -1 -7 85.31 11.55
0 1 7 70.65 8.56
0 1 8 45.65 9.03
0 -1 -8 46.13 9.66
0 -1 -8 44.89 4.6
0 -1 -8 45.13 7.96
0 1 8 29.21 7.75
0 1 9 580.09 33.83
0 -1 -9 644.25 31.49
0 1 9 620.01 33.93
0 -1 -9 636.21 17.88
0 -1 -9 681.17 37.35
0 -1 -10 408.05 15.4
0 1 10 -1.65 7.06
0 1 11 -0.03 7.94
0 -1 -11 -0.18 4.93
0 -1 -12 3.37 3.48
0 -1 -13 534.23 21.12
0 -1 -14 4.19 3.7
0 -1 -15 49.93 7.29
0 -1 -15 47.96 6.75
0 -1 -15 49.2 7.22
0 -1 -15 48.98 9.04
0 -1 -16 19.43 5.21
0 -1 -16 26.89 5.84
0 -1 -16 18.28 6.44
0 -1 -17 1.77 4.75
0 -1 -17 4.02 4.38
0 -1 -17 1.15 3.49
0 -1 -18 0.7 3.39
0 1 18 -4.28 15.31
0 -1 -18 -1.28 3.3
0 -1 -18 -0.57 3.8
0 -1 -18 1.45 5.06
0 -1 -19 13.49 6.36
0 -1 -19 14.63 4.47
0 -1 -19 14.65 3.78
0 -1 -19 10.13 3.98
0 -1 -20 4.94 2.98
0 1 20 -0.94 14.2
0 -1 -20 3.69 2.7
0 2 -19 19.28 3.52
0 2 -19 16.34 3.86
0 2 -19 20.37 3.86
0 2 -18 2.65 3.15
0 2 -18 1.92 2.84
0 2 -18 3.81 3.87
0 2 -18 1.2 3.08
0 2 -18 0.94 2.88
0 2 -17 0.83 4.11
0 2 -17 2.06 3.4
0 2 -17 0.97 3.71
0 2 -17 0.67 3.21
0 2 -17 -0.97 3.44
0 2 -16 7.42 4.64
0 2 -16 6.53 4.49
0 2 -16 4.44 3.88
0 2 -16 7.03 4.31
0 2 -16 6.48 5.33
0 2 -15 113.2 10.61
0 2 -15 105.56 10.1
0 2 -15 102.79 9.9
0 2 -15 108.35 10.48
0 2 -15 105.93 11.22
0 2 -14 7.43 4.57
0 2 -14 8.68 5.39
0 2 -14 6.27 3.88
0 2 -14 5.26 4.15
0 2 -14 7.59 4.37
0 2 -13 59.52 7.95
0 2 -13 72.98 8.78
0 2 -13 55.9 7.41
0 2 -12 123.91 10.18
0 2 -12 148.91 12.09
0 2 -12 121.71 10.72
0 2 -11 789.53 26.09
0 2 -11 786.44 25.38
0 2 -10 13.13 4.03
0 2 -10 16.45 4.5
0 2 -9 382.52 16.45
0 2 -9 389.03 15.9
0 2 -8 68.96 7.12
0 2 -8 75.88 6.89
0 -2 8 73.18 12.62
0 2 -7 3.12 2.21
0 -2 7 1.73 3.38
0 2 -7 3.06 2.27
0 -2 7 0.21 3.51
0 2 -7 0.33 3.7
0 2 -7 0.7 4.63
0 2 -6 3.78 2.25
0 2 -6 4.45 2.45
0 2 -6 3.2 4.44
0 -2 6 1.06 3.86
0 -2 6 2.82 3.83
0 2 -5 242.79 17.68
0 2 -5 230.37 18.09
0 -2 5 194.53 16.35
0 -2 5 231.38 17.32
0 -2 4 73.45 9.76
0 2 -4 77.16 10.25
0 2 -4 76.71 10.12
0 -2 4 78.3 9.81
0 -2 4 77.2 9.51
0 -2 4 76.66 8.78
0 2 -3 1663.31 40.26
0 -2 3 1705.23 40.62
0 2 -3 1659.4 43.34
0 -2 3 1661.06 38.51
0 -2 3 1677.23 40.14
0 -2 3 1692.3 41.96
0 -2 2 72.94 8.4
0 -2 2 69.05 8.03
0 -2 2 70.15 7.95
0 2 -2 84.8 8.71
0 2 -2 79.17 9.77
0 2 -1 1298.26 28.7
0 -2 1 1340.86 31.89
0 2 -1 1299.38 36.38
0 -2 1 1352.08 31.92
0 2 0 477.81 20.58
0 2 0 451.05 14.62
0 -2 0 546.84 19.33
0 2 0 460.89 21.3
0 -2 0 543.16 20.81
0 2 1 3989.81 58.73
0 2 1 3948.52 35.27
0 -2 -1 3828.25 49.99
0 2 1 3834.11 58.44
0 -2 -2 303.69 11.81
0 -2 -2 282.8 15.15
0 2 2 295.49 16.03
0 -2 -2 280.97 13.65
0 2 3 125.3 10.04
0 -2 -3 105.15 8.78
0 2 3 140.81 11.98
0 -2 -3 112.38 8.72
0 -2 -4 606.15 22.31
0 2 4 582.65 24.33
0 -2 -4 551.85 20.62
0 2 4 599.9 24.67
0 2 4 575.6 20.28
0 -2 -5 1675.59 41.79
0 2 5 1643.29 43.74
0 -2 -5 1623.66 37.51
0 2 6 531.59 24.78
0 -2 -6 549.69 23.82
0 -2 -6 587.68 27.57
0 2 6 556.46 27.27
0 2 6 586.05 28.82
0 2 7 311.93 22.56
0 -2 -7 318.51 11.28
0 -2 -7 286.81 10.79
0 2 7 318.06 22.25
0 -2 -7 308.18 19.03
0 2 7 321.48 20.32
0 -2 -7 315.23 22.07
0 -2 -8 777.02 19.02
0 2 8 812.41 38.17
0 -2 -8 756.84 32.26
0 -2 -8 737.7 16.28
0 -2 -8 843.3 39.1
0 2 8 736.81 37.38
0 -2 -8 744.88 18.24
0 -2 -9 711.38 33.83
0 -2 -9 684.18 19.19
0 -2 -9 715.67 18.85
0 -2 -10 848.76 22.83
0 -2 -11 109.86 9.12
0 2 12 -0.59 9.09
0 -2 -12 598.82 21.78
0 2 13 -2.53 9.18
0 -2 -13 132.03 10.86
0 -2 -14 240.17 15.03
0 -2 -15 2.92 3.34
0 -2 -15 -0.8 3.43
0 -2 -16 17.45 10.17
0 -2 -16 22.51 6
0 -2 -17 4.04 4.05
0 -2 -17 -4.23 7.3
0 -2 -18 21.37 5.32
0 -2 -18 19.44 6.71
0 2 19 -8.67 14.93
0 -2 -19 8.9 6.07
0 -2 -19 5.04 3.49
0 2 20 23.7 15.54
0 -2 -20 27.89 4.3
0 3 -18 1.31 2.31
0 3 -18 -1.04 2.99
0 -3 18 -0.39 2.31
0 -3 17 10.2 3.64
0 3 -17 10.28 3.42
0 3 -17 13.86 4.06
0 3 -17 14.03 4.93
0 3 -16 2.12 3.48
0 3 -16 0.07 3.89
0 3 -16 3.31 3.15
0 3 -16 -1.45 3.63
0 3 -16 0.19 3.67
0 3 -15 3.21 3.98
0 3 -15 3.7 4.14
0 3 -15 8.02 3.87
0 3 -15 5.84 5.12
0 3 -15 9.43 4.66
0 3 -14 75.34 8.85
0 3 -14 73.53 8.96
0 3 -14 76.49 9.71
0 3 -14 69.22 8.2
0 3 -13 223.1 14.7
0 3 -13 250.86 15.31
0 3 -13 237.86 14.72
0 3 -13 234.28 15.02
0 3 -13 271.26 16.27
0 3 -13 244.59 16.33
0 3 -12 241.14 15.34
0 3 -12 220.21 14.5
0 3 -12 232.94 14.43
0 3 -12 214.65 14.91
0 3 -12 263.78 16.94
0 3 -12 224.36 14.58
0 3 -11 10.72 4.99
0 3 -11 8.27 3.96
0 3 -10 811.04 25.68
0 3 -10 838.19 27.96
0 3 -9 177.24 11.71
0 3 -9 191.53 13.14
0 3 -8 219.96 12.17
0 3 -8 220.97 13.41
0 3 -7 10.99 3.82
0 3 -7 10.7 3.35
0 3 -6 96.21 7.3
0 3 -6 91.27 13.89
0 3 -6 94.53 7.08
0 3 -6 86.28 13.44
0 -3 6 91.05 13.64
0 3 -6 102 8.22
0 -3 5 7.3 5.02
0 3 -5 3.55 4.97
0 -3 5 7.52 4.48
0 3 -5 6.99 2.77
0 3 -5 7.7 5.26
0 3 -5 9.71 3.38
0 -3 4 794.17 34.35
0 3 -4 878.03 20.07
0 3 -4 845.36 39.23
0 3 -4 902.26 21.21
0 3 -4 833.87 35.23
0 -3 4 853.09 35.93
0 -3 4 813.95 34.31
0 3 -3 52.76 5.16
0 3 -3 34.84 7.38
0 -3 3 40.4 8.16
0 -3 3 65.32 9.87
0 -3 3 64.11 9.86
0 3 -3 38.27 8.92
0 3 -2 1778.41 50.88
0 -3 2 1771.73 48.75
0 -3 2 1714.87 46.44
0 -3 2 1737.76 47.05
0 3 -2 1647.53 52.04
0 3 -1 7.29 5.61
0 -3 1 2.95 3.27
0 3 -1 7.75 5.04
0 -3 1 3.46 3.5
0 -3 0 1977.34 46.88
0 3 0 1944.57 54.46
0 3 0 1971.96 52.64
0 -3 0 2027.62 50.86
0 3 1 307.61 21.6
0 3 1 330.9 22.19
0 -3 -1 351.93 19.45
0 -3 -1 378.04 21.88
0 -3 -2 1581.89 44.36
0 3 2 1601.15 47.24
0 3 2 1623.42 48.97
0 -3 -2 1617.41 41.22
0 -3 -3 57.66 8.91
0 3 3 58.2 9.96
0 3 3 54.42 9.21
0 -3 -3 54.46 7.86
0 -3 -4 519.59 24.06
0 3 4 486.36 27.53
0 -3 -5 69.07 9.43
0 3 5 46.03 9.5
0 -3 -5 62.44 4.85
0 3 5 67.01 10.8
0 -3 -5 61.15 5.28
0 -3 -6 137.04 7.97
0 3 6 146.12 15.98
0 -3 -6 154.47 14.4
0 -3 -6 152.36 7.86
0 3 6 143.99 16.33
0 -3 -6 179.77 11.66
0 -3 -7 26.61 4.1
0 3 7 24.54 7.46
0 3 7 38.75 9.14
0 -3 -7 26.68 3.7
0 -3 -7 21.12 6.14
0 -3 -7 47.75 7.29
0 3 7 32.64 9.15
0 -3 -8 14.33 3.1
0 -3 -8 16.43 5.86
0 3 8 11 6.24
0 -3 -8 11.47 4.99
0 -3 -8 14.32 3
0 -3 -8 18.22 3.77
0 -3 -9 997.93 24.47
0 -3 -9 1036.79 22.62
0 -3 -9 1080.94 24.61
0 -3 -10 1906.65 34.68
0 -3 -10 1856.01 34.67
0 -3 -11 263.8 13.67
0 -3 -11 271.11 14.11
0 -3 -12 326.48 16.29
0 -3 -13 295.74 16.14
0 -3 -14 21.04 6.54
0 -3 -14 29.7 6.08
0 -3 -14 30.3 5.87
0 -3 -15 31.31 10.07
0 -3 -15 30.9 6.38
0 -3 -15 29.15 5.74
0 -3 -16 20.95 5.82
0 -3 -16 24.75 11.35
0 -3 -17 6.98 4.34
0 -3 -17 1.04 9.24
0 -3 -18 4.99 6.68
0 -3 -18 4.88 3.49
0 -3 -19 24.89 4.56
0 -4 17 4.49 2.62
0 -4 17 3.93 9.23
0 4 -16 34.75 5.04
0 4 -16 24.25 5.05
0 -4 16 34.27 5.04
0 -4 16 35.41 4.69
0 4 -16 35.37 5.31
0 4 -15 28.69 5.49
0 4 -15 23.26 6.03
0 4 -15 23.33 5.04
0 -4 15 25.3 5.29
0 4 -14 66.87 7.76
0 4 -14 69.84 8.23
0 4 -14 67.96 8.7
0 4 -14 77.61 11.71
0 4 -13 154.72 12.03
0 4 -13 154.75 12.78
0 4 -13 157.82 11.77
0 4 -12 11.27 4.35
0 4 -12 1.17 6
0 4 -12 17.26 5.99
0 4 -12 16.69 5.85
0 4 -12 -2.93 6
0 4 -12 12.44 5.26
0 -4 12 14.29 5.44
0 -4 11 208.87 14.33
0 4 -11 220.17 13.96
0 4 -11 213.07 19.95
0 4 -11 243.33 14.86
0 4 -11 214.45 14.89
0 4 -11 216.31 14.57
0 4 -10 207 15.12
0 4 -9 68.09 9.07
0 4 -8 4.62 4.09
0 4 -7 186.99 11.75
0 4 -7 197.83 13.24
0 4 -6 39.8 6.24
0 4 -6 38.15 5.8
0 4 -5 470.81 17.64
0 4 -5 585.8 20.42
0 4 -4 196.22 11.4
0 4 -4 233.94 12.42
0 -4 3 452.59 30.29
0 4 -3 405.84 15.71
0 -4 2 31.75 8.37
0 4 -2 16.67 8.04
0 4 -2 14.73 7.31
0 -4 2 20.91 7.18
0 4 -2 17.13 4.07
0 4 -1 1322.69 27.25
0 4 -1 1210.66 50.82
0 4 -1 1247.77 53.64
0 -4 1 1364.53 48.11
0 4 0 348.45 27.7
0 4 0 374.23 14.35
0 4 0 329.83 27.14
0 -4 0 400.17 27.62
0 -4 0 397.81 25.48
0 -4 -1 2163.94 58.46
0 4 1 2060.22 65.76
0 4 1 2150.09 33.47
0 4 1 2046.85 33.2
0 4 2 -0.08 2.05
0 -4 -2 3.48 3.36
0 -4 -2 2.68 3.77
0 4 2 1.72 4.83
0 4 2 5.77 5.7
0 4 2 2.26 2.04
0 -4 -3 130.57 7.59
0 4 3 123.86 17.11
0 4 3 133.12 8.65
0 4 3 119.67 15.87
0 -4 -3 144.76 15.2
0 4 4 99.66 15.63
0 -4 -4 82.91 6.42
0 -4 -4 78.08 11.5
0 4 4 92.88 7.23
0 4 5 94.32 7.43
0 -4 -5 92.39 7.02
0 -4 -5 101.14 13.39
0 -4 -6 620.95 23.29
0 4 6 673.11 19.02
0 -4 -6 674.06 19.31
0 -4 -7 549.7 18.47
0 -4 -7 522.93 22.58
0 -4 -8 5.1 5
0 -4 -8 1.02 2.76
0 -4 -9 282.12 14.33
0 -4 -10 4.36 3.33
0 -4 -11 692.04 23.66
0 -4 -12 36.27 6.26
0 -4 -13 403.46 18.93
0 -4 -13 381.41 18.43
0 -4 -13 415.8 18.91
0 -4 -13 354.78 16.4
0 -4 -14 53.03 6.81
0 -4 -14 48.03 7.45
0 -4 -14 47.52 7.52
0 -4 -15 57.34 9.21
0 -4 -15 54.93 7.85
0 -4 -16 6.49 4.46
0 -4 -16 12.38 9.17
0 -4 -17 4.51 3.5
0 -4 -17 0.47 9.37
0 -4 -18 0.67 7.15
0 -4 -18 -1.68 2.86
0 5 -15 48.31 5.69
0 -5 15 47.64 4.97
0 5 -15 55.3 5.77
0 -5 15 52.98 4.88
0 5 -14 60.36 7.04
0 -5 14 57.75 5.73
0 -5 14 58.71 6.08
0 -5 14 61.42 6.53
0 5 -14 58.83 6.68
0 -5 13 222.64 11.41
0 -5 13 207.94 11.65
0 5 -13 218.28 13.25
0 -5 13 216.62 12.66
0 5 -13 225.2 13.18
0 5 -12 15.04 4.8
0 5 -12 1.41 6.91
0 -5 12 15.2 4.93
0 5 -12 0.11 5.4
0 -5 12 16.18 4.32
0 -5 12 -2.04 14.16
0 5 -12 13.51 5.42
0 5 -12 13.69 5.08
0 -5 12 12.87 4.52
0 5 -11 51.53 7.41
0 -5 11 55.43 6.8
0 5 -11 -3.78 6.04
0 5 -11 52.02 12.61
0 -5 11 51.69 6.65
0 5 -11 49.64 7.79
0 5 -11 45.46 7.25
0 -5 11 46.63 7.61
0 -5 11 -8.8 15.09
0 -5 10 52.06 6.87
0 -5 10 0.99 15.09
0 5 -10 42.95 7.45
0 5 -10 35.31 11.82
0 5 -10 44.24 7.17
0 -5 10 50.49 7.86
0 5 -10 -0.48 6.22
0 5 -10 49.33 7.23
0 5 -9 259.32 15.68
0 5 -9 2.64 5.98
0 5 -9 222.23 21.8
0 5 -9 258.06 15.17
0 5 -9 3.92 6.3
0 -5 9 -1.01 15.16
0 -5 9 269.31 16.35
0 -5 9 261.46 13.9
0 5 -9 323.99 19.38
0 -5 8 -4.25 6
0 -5 8 6.93 4.71
0 -5 8 12.9 15.04
0 5 -8 7.45 7.63
0 5 -8 6.58 4.22
0 5 -8 10.6 4.23
0 5 -8 4.62 6.43
0 5 -8 6.55 4.14
0 -5 8 8.56 4.84
0 -5 8 6.3 3.33
0 5 -7 36.21 6.8
0 5 -7 35.36 6.42
0 5 -6 0.26 5.35
0 5 -6 3.53 3.07
0 5 -6 -1.65 3.15
0 5 -5 26.71 5.68
0 5 -5 2.32 5.4
0 5 -4 0.32 5.21
0 5 -4 42.53 6.46
0 5 -3 121.52 10.33
0 5 -3 129.27 10.08
0 5 -2 449.39 18.29
0 5 -2 474.78 19.4
0 5 -1 462.04 18.3
0 5 -1 499.47 19.39
0 5 0 481.38 18.67
0 5 0 461.93 18.38
0 5 1 493.27 19.14
0 5 1 547.43 19.72
0 5 2 524.58 19.64
0 5 2 577.24 19.81
0 5 3 50.87 6.53
0 -5 -3 1.44 8.27
0 -5 -4 10.09 3.14
0 5 4 2.9 2.67
0 -5 -5 34.38 5.11
0 5 5 35.32 5.8
0 -5 -6 160.91 10.56
0 5 6 153.57 10.82
0 5 7 24.71 4.69
0 -5 -7 27.61 5.05
0 -5 -8 116.75 9.87
0 -5 -9 23.67 5.37
0 -5 -10 396.32 18.54
0 -5 -11 138.02 11.42
0 -5 -11 138.66 11.6
0 -5 -11 137.47 10.91
0 -5 -11 153.58 12.01
0 -5 -12 23.48 5.69
0 -5 -12 25.25 6.08
0 -5 -12 35.76 6.29
0 -5 -12 16.76 5.21
0 -5 -13 8.53 4.52
0 -5 -13 6.93 4.63
0 -5 -13 7.12 4.23
0 -5 -14 97.99 9.59
0 -5 -14 94.44 8.76
0 -5 -14 96.01 9.45
0 -5 -15 3.53 3.23
0 -5 -15 0.23 4.55
0 -5 -15 4.07 3.89
0 -5 -16 2.58 7.45
0 -5 -16 3.52 2.83
0 -5 -16 3.05 3.32
0 -5 -17 10.13 3.47
0 -5 -17 13.53 8.85
0 6 -13 8.14 3.25
0 -6 13 9.43 3.29
0 6 -12 100.18 8.12
0 -6 12 101.02 8.27
0 -6 12 97.98 6.96
0 6 -11 10.26 4.01
0 -6 11 7.22 2.93
0 -6 11 10.28 4.5
0 -6 10 78.14 8.57
0 6 -10 78.51 8.18
0 6 -10 -3.43 5.72
0 6 -10 -2.73 5.23
0 -6 10 83.49 7.4
0 6 -9 -3.36 5.91
0 -6 9 2.67 2.91
0 -6 9 3.48 4.41
0 6 -9 1.97 3.45
0 6 -9 4.51 6.09
0 6 -8 0.27 5.76
0 -6 8 0.52 4.15
0 6 -8 -3.31 6.15
0 -6 7 23.51 6.29
0 6 -7 -2.6 6.27
0 6 -6 1.33 3.31
0 -6 6 1.86 3.79
0 6 -6 3.05 6.26
0 -6 6 -0.91 3.66
0 -6 5 22.94 5.83
0 6 -5 22.89 5.45
0 -6 5 11.62 5.1
0 -6 4 251.48 14.74
0 6 -4 282.6 16.76
0 -6 4 246.45 15.74
0 6 -3 21.38 5.93
0 6 -2 261.94 15.95
0 6 -2 230.81 14.66
0 6 -1 57.9 8.16
0 6 -1 55.44 7.76
0 6 0 565.96 22.69
0 6 0 577.63 22.85
0 6 1 370.81 18.58
0 6 1 379.22 18.28
0 -6 -2 1.14 9.91
0 6 2 11.05 4.14
0 6 3 124.09 10.88
0 6 4 28.5 6.05
0 6 5 37.94 6.73
0 6 6 25.13 5.56
0 -6 -6 22.96 4.74
0 -6 -7 35.54 5.96
0 -6 -7 27.78 6.14
0 6 7 34.38 6.23
0 -6 -7 31.3 6.45
0 -6 -7 23.82 5.94
0 -6 -7 36.88 5.96
0 -6 -8 136.14 10.89
0 -6 -8 115.53 10.11
0 -6 -8 107.52 9.59
0 -6 -8 116.07 10.9
0 -6 -9 13.38 5.27
0 -6 -9 24.86 6.88
0 -6 -9 19.24 4.65
0 -6 -9 13.6 4.74
0 -6 -9 15.37 5
0 -6 -10 39.34 7.11
0 -6 -10 46.63 6.87
0 -6 -10 39.07 6.69
0 -6 -11 24.97 5.79
0 -6 -11 27.08 5.93
0 -6 -11 23.51 5.71
0 -6 -12 60.96 7.78
0 -6 -12 54.51 7.38
0 -6 -12 51.4 7.54
0 -6 -13 8.47 3.85
0 -6 -13 10.47 4.11
0 -6 -13 7.9 3.99
0 -6 -14 15.83 4.33
0 -6 -14 11.26 4.14
0 -6 -14 16.49 4.45
0 -6 -15 2.27 2.9
0 -6 -15 -0.26 2.42
0 -6 -15 2.55 4.16
0 -6 -16 8.75 2.68
0 -7 10 -7.99 10.06
0 7 -10 0.82 3.65
0 -7 10 5.32 3
0 7 -9 -5.28 4.9
0 -7 9 -3.09 11.13
0 -7 8 2.71 3.57
0 7 -8 1.36 4.88
0 -7 8 4.94 12.31
0 7 -7 -0.05 5.15
0 -7 7 -14.01 13.56
0 7 -7 0.84 4.99
0 7 -6 0.87 5.71
0 -7 6 16.24 5.17
0 -7 6 -2.66 13.78
0 7 -6 -2.22 6.49
0 -7 6 16.36 4.99
0 7 -5 3.37 5.97
0 7 -5 3.72 7.63
0 -7 5 79.11 8.77
0 -7 5 1.62 14.34
0 -7 5 77.4 8.4
0 7 -4 4.2 6.08
0 -7 4 0.86 4.39
0 -7 4 -2.13 14.56
0 7 -4 0.61 5.81
0 7 -3 -4.35 7.36
0 7 -3 7.48 6.63
0 -7 3 7.94 14.83
0 -7 2 5.51 4.67
0 -7 2 2.39 4.82
0 7 -2 2.79 6.52
0 -7 2 -10.22 15.11
0 -7 1 168.15 13.13
0 -7 1 182.04 13.4
0 -7 1 13.91 15.24
0 -7 1 102.74 13.43
0 7 -1 1.84 5.97
0 -7 0 0.03 6.96
0 -7 0 9.05 4.7
0 -7 0 11.79 5.93
0 7 0 7.06 7.86
0 -7 0 10.56 4.95
0 -7 0 16.99 15.43
0 -7 -1 51.1 8.11
0 -7 -1 3.59 7.01
0 -7 -1 57.09 8.45
0 -7 -1 59.65 8.73
0 -7 -1 -5.12 14.7
0 7 1 72.21 8.92
0 7 1 3.89 6.26
0 -7 -2 2.93 4.63
0 -7 -2 3.46 5.17
0 7 2 6.27 4.35
0 -7 -2 0.87 6.81
0 -7 -2 3.84 4.18
0 -7 -3 51.86 8.33
0 -7 -3 43.49 7.52
0 -7 -3 49.81 8.54
0 -7 -4 3.47 8.43
0 -7 -4 1.9 5.15
0 -7 -4 3.82 4.84
0 -7 -4 5.4 4.54
0 -7 -5 2.31 4.66
0 -7 -5 0.53 5.36
0 -7 -5 0.26 3.7
0 -7 -5 -0.92 8.13
0 -7 -6 2.15 3.17
0 -7 -6 7.29 8.61
0 -7 -6 3.61 5.86
0 -7 -6 5.21 4.7
0 -7 -6 2.5 4.32
0 -7 -7 49.05 7.7
0 -7 -7 42.52 7.96
0 -7 -7 51.99 6.88
0 -7 -7 44.92 7.35
0 -7 -8 48.73 6.63
0 -7 -8 40.03 6.85
0 -7 -8 49.28 8.33
0 -7 -8 35.27 6.53
0 -7 -9 113.26 10.13
0 -7 -9 110.15 9.18
0 -7 -10 10.11 4.09
0 -7 -10 9.29 4.35
0 -7 -11 155.5 10.19
0 -7 -11 145.61 10.44
0 -7 -12 15.58 4.43
0 -7 -12 28.85 5.01
0 -7 -13 34.41 5.14
0 -7 -13 39.82 5
0 -7 -14 28.14 3.92
0 -8 7 0.49 2.28
0 -8 7 -0.85 8.58
0 8 -7 -0.88 3.51
0 -8 6 -0.51 2.67
0 -8 6 -9.59 10.12
0 -8 6 1.54 3.85
0 8 -6 -3.55 4.17
0 -8 5 4.06 3.22
0 8 -5 1.64 4.48
0 -8 5 -6.89 10.86
0 -8 5 0.13 4.77
0 -8 5 4.44 3.49
0 8 -4 2.49 4.72
0 -8 4 0.21 11.32
0 -8 4 69.63 7.02
0 -8 4 77.75 7.65
0 -8 4 77.62 10.47
0 -8 3 45.53 8.32
0 -8 3 34.06 5.74
0 -8 3 36.09 5.73
0 8 -3 -1.09 4.66
0 -8 3 4.64 11.9
0 -8 2 57.34 7.16
0 -8 2 -3.2 12.33
0 8 -2 -4.16 5.06
0 -8 2 73.36 10
0 -8 2 59.43 7.31
0 -8 1 3.65 3.8
0 -8 1 4.79 4.28
0 -8 0 113.07 9.14
0 -8 0 125.24 10.34
0 -8 0 120.3 10.17
0 -8 -1 63.23 7.7
0 -8 -1 76.51 8.64
0 -8 -1 72.86 8.06
0 -8 -2 53.35 7.31
0 -8 -2 48.94 7.4
0 -8 -2 47.9 7.25
0 -8 -3 -0.65 4.45
0 -8 -3 2.13 3.87
0 -8 -3 3.06 4.29
0 -8 -4 17.64 5.06
0 -8 -4 15.01 4.95
0 -8 -4 14 5.85
0 -8 -5 1.04 3.45
0 -8 -5 0.78 5.65
0 -8 -5 2.65 4.11
0 -8 -6 25.26 5.22
0 -8 -6 16.44 6.58
0 -8 -6 17.63 4.87
0 -8 -7 2.15 4.84
0 -8 -7 0.01 3.44
0 -8 -7 2.22 3.43
0 -8 -8 41.71 5.8
0 -8 -8 35.86 4.64
0 -8 -8 28.49 6.31
0 -8 -9 5.87 4.37
0 -8 -9 4.26 3.08
0 -8 -9 7.32 2.81
0 -8 -10 69.5 6.29
0 -8 -10 70.46 5.69
1 -8 -8 8.63 3.94
1 -8 -8 11.13 3.4
1 -8 -8 6.53 3.1
1 -8 -7 1.12 4.22
1 -8 -7 2.77 3.07
1 -8 -7 -0.07 3.03
1 -8 -6 22.5 5.38
1 -8 -6 18.67 4.47
1 -8 -6 23.25 4.71
1 -8 -5 8.88 3.92
1 -8 -5 7.65 4.86
1 -8 -5 6.45 3.72
1 -8 -4 49.69 6.8
1 -8 -4 51.65 6.43
1 -8 -4 51.09 6.45
1 -8 -3 14.38 4.96
1 -8 -3 14.36 4.5
1 -8 -3 9.73 4.2
1 -8 -2 3.55 3.93
1 -8 -2 5.85 3.84
1 -8 -2 2.11 3.66
1 -8 -1 48.38 6.19
1 -8 -1 61.39 6.94
1 -8 -1 51.6 6.23
1 -8 0 20.83 4.52
1 -8 0 17.39 4.51
1 -8 1 5.32 3.3
1 -8 1 4.4 3.37
1 -8 2 -0.13 2.84
-1 8 -2 1.21 4.13
1 -8 2 2.74 2.98
1 -8 3 8.28 4.85
-1 8 -3 -0.06 3.91
-1 8 -4 -1.22 3.81
1 -8 4 3.85 2.88
1 -7 -12 4.35 3.25
1 -7 -12 3.1 2.46
1 -7 -11 61.04 6.88
1 -7 -11 68.3 6.15
1 -7 -10 4.94 3.68
1 -7 -10 10.4 3.39
1 -7 -10 10.71 4.22
1 -7 -9 54.9 6.12
1 -7 -9 40.6 6.34
1 -7 -9 47.71 6.86
1 -7 -8 14.87 5.24
1 -7 -8 12.07 4.96
1 -7 -8 16.69 5.34
1 -7 -7 1.74 4.37
1 -7 -7 2.87 4.1
1 -7 -7 2.34 4.7
1 -7 -6 3.62 4.48
1 -7 -6 3.87 4.65
1 -7 -6 6.69 3.24
1 -7 -6 5.73 4.76
1 -7 -5 22.68 4.76
1 -7 -5 16.16 5.67
1 -7 -5 18.05 5.9
1 -7 -5 21.5 6.35
1 -7 -4 70.94 8.9
1 -7 -4 65.93 8.53
1 -7 -4 65.45 8.7
1 -7 -4 68.53 7.25
1 -7 -3 236.71 14.9
1 -7 -3 240.3 14.93
1 -7 -3 238.79 12.69
1 -7 -3 229.39 14.58
1 -7 -2 -2.25 6.64
1 -7 -2 93.86 10.1
-1 7 2 8.03 8.05
1 -7 -2 98.88 10.21
1 -7 -2 83.67 9.31
1 -7 -2 88.04 8.09
1 -7 -1 19.33 5.58
1 -7 -1 -1.19 6.76
1 -7 -1 18.59 5.72
-1 7 1 -1.9 5.69
1 -7 -1 22.35 4.63
1 -7 -1 20.41 5.98
1 -7 0 3.48 6.87
-1 7 0 6.84 6.24
1 -7 0 57.57 8.1
1 -7 0 59.66 6.83
1 -7 0 4.27 13.97
1 -7 0 53.97 7.91
1 -7 0 54.19 7.41
1 -7 1 8.08 4.87
1 -7 1 2.17 2.88
1 -7 1 9.94 13.91
1 -7 1 4.92 4.53
1 -7 2 52.51 7.54
1 -7 2 55.28 6.38
1 -7 2 56.16 7.62
1 -7 3 11 4.82
1 -7 3 7.36 3.52
1 -7 3 0.86 13.12
1 -7 3 6.57 4.27
1 -7 4 -0.01 3.63
1 -7 4 2.93 2.83
1 -7 4 2.18 3.66
1 -7 5 38.14 6.26
1 -7 5 27.79 4.74
1 -7 5 24.5 5.52
1 -7 6 16.81 4.59
1 -7 6 13.08 3.46
-1 7 -6 4.53 5.31
1 -7 7 3.57 11.08
1 -7 7 4.43 3.54
-1 7 -7 1.77 4.52
-1 7 -7 -6.34 5.25
1 -7 7 4.64 2.79
1 -7 7 7.67 3.38
-1 7 -7 6.71 5.81
1 -7 8 9.23 10.37
-1 7 -8 -0.78 4.16
-1 7 -8 -0.08 4.01
-1 7 -8 -3.41 4.94
1 -7 8 8.75 2.94
1 -7 8 11.24 3.63
1 -7 8 11.39 3.57
-1 7 -9 3.6 3.89
1 -7 9 75.91 6.3
1 -7 9 66.26 5.17
1 -7 9 5.99 9.19
-1 7 -9 2.79 3.91
1 -7 9 68.49 5.9
1 -6 -15 29 6.08
1 -6 -15 32.83 4.36
1 -6 -14 25.27 4.47
1 -6 -14 26.2 5.09
1 -6 -13 -1.07 3.16
1 -6 -13 6.61 4.17
1 -6 -12 105.65 8.91
1 -6 -12 105.9 9.69
1 -6 -11 6.9 3.95
1 -6 -11 9.19 4.71
1 -6 -11 12.44 4.79
1 -6 -10 16.21 5.43
1 -6 -10 9.79 5.2
1 -6 -10 7.94 4.76
1 -6 -10 10.15 4.36
1 -6 -9 2.95 4.15
1 -6 -9 3.82 3.79
1 -6 -9 4.4 4.08
1 -6 -9 -0.65 4.39
1 -6 -8 12.98 4.33
1 -6 -8 8.72 5.03
1 -6 -8 12.27 5.63
1 -6 -8 16.49 5
1 -6 -8 8.8 4.53
1 -6 -7 -0.07 4.26
1 -6 -7 6.74 4.1
1 -6 -7 1.89 4.29
1 -6 -7 3.81 3.56
1 -6 -7 2.18 4.3
1 -6 -7 4.75 3.43
1 -6 -7 2.76 2.93
1 -6 -6 108.51 10.87
1 -6 -6 119.4 9.74
1 -6 -6 107.74 10.48
1 -6 -6 98.45 8.63
1 -6 -6 106.86 10.76
1 -6 -5 10.22 5.03
-1 6 5 12.43 4.47
1 -6 -5 8.61 3.7
1 -6 -5 12.44 5.38
1 -6 -5 8.54 5.04
1 -6 -4 267.25 16.13
1 -6 -4 238.66 13.18
-1 6 4 275.33 16.28
1 -6 -4 254.34 15.54
1 -6 -4 257.63 16.02
-1 6 3 44.08 7.4
1 -6 -3 36.05 6.85
1 -6 -3 39.08 7.03
1 -6 -3 43.74 7.53
1 -6 -3 35.03 5.6
1 -6 -2 157.11 12.56
1 -6 -2 143.9 11.88
1 -6 -2 157.04 12.47
1 -6 -2 143.59 10.32
-1 6 2 165.16 13.06
-1 6 2 164.22 12.43
1 -6 -1 10.09 4.99
-1 6 1 8.98 4.13
1 -6 -1 15.61 5.67
1 -6 -1 13.21 14.63
-1 6 1 6.27 4.43
1 -6 -1 8.16 4.63
1 -6 -1 10.63 4
1 -6 0 13.9 14.83
1 -6 0 390.65 18.7
1 -6 0 388.89 16.66
-1 6 0 463.07 21.39
1 -6 0 450.45 20.44
1 -6 0 435.95 20.07
-1 6 0 432.89 20.46
1 -6 0 2.16 10.17
1 -6 1 117.5 10.79
1 -6 1 130.39 11.51
1 -6 1 0.88 9.57
1 -6 1 113.63 9.38
-1 6 -1 128.85 11.72
1 -6 1 -1.98 14.59
-1 6 -1 121.44 11.41
1 -6 2 4.97 3.05
-1 6 -2 3.31 3.49
-1 6 -2 3.54 3.79
1 -6 2 5.02 14.69
1 -6 2 -2.1 4.53
1 -6 3 40.58 6.1
-1 6 -3 41.2 6.96
1 -6 3 40.22 7.49
-1 6 -3 46.72 7.34
-1 6 -4 9.21 4.65
1 -6 4 8.28 4.31
1 -6 4 6.54 3.73
1 -6 5 12.74 4.98
1 -6 5 14.74 4.71
1 -6 6 114.78 11.08
1 -6 6 123.41 10.68
1 -6 6 126.25 9.74
1 -6 7 -0.28 2.94
1 -6 7 -0.17 4.44
-1 6 -7 -6.29 6.47
1 -6 7 0.12 3.65
1 -6 8 160.49 11.82
1 -6 8 166.7 10.58
1 -6 9 0.49 2.78
-1 6 -9 3.9 5.66
1 -6 9 -0.95 3.62
-1 6 -9 1.35 5.04
-1 6 -10 -0.81 4.9
1 -6 10 116.78 9.41
-1 6 -10 1.76 4.86
1 -6 10 116.57 8.25
1 -6 11 39.12 4.78
1 -6 11 40.63 5.82
1 -6 12 53.71 5.01
1 -6 12 51.55 5.71
-1 6 -12 46.74 4.98
1 -5 -16 41.29 9.1
1 -5 -16 46.82 5.38
1 -5 -15 67.99 8.43
1 -5 -15 72.63 7.01
1 -5 -14 177.44 11.35
1 -5 -14 178.89 12.47
1 -5 -13 52.27 7.88
1 -5 -13 51.48 7.02
1 -5 -12 127.13 10.47
1 -5 -12 102.45 10.35
1 -5 -11 5.6 3.47
1 -5 -11 8.69 4.83
1 -5 -11 6.06 4.23
1 -5 -11 5.12 4.41
1 -5 -10 69.51 8.96
1 -5 -10 80.14 8.59
1 -5 -10 60.84 8.4
1 -5 -10 63.73 7.66
1 -5 -10 85.17 9.16
1 -5 -9 7.2 3.97
1 -5 -9 4.66 3.38
1 -5 -9 2.17 3.48
1 -5 -9 2.86 4.27
1 -5 -9 5.44 4.67
1 -5 -8 72.06 8.07
1 -5 -7 42.23 6.14
1 -5 -6 153.12 10.88
-1 5 5 249.98 14.4
1 -5 -5 242.17 12.98
1 -5 -4 200.83 11.42
-1 5 4 190.05 12.55
-1 5 3 789.93 25.47
-1 5 2 542.45 20.59
-1 5 2 513.66 20.6
1 -5 -1 -1.27 8.09
-1 5 1 418.65 18.56
-1 5 0 32.61 5.99
-1 5 -1 642.78 23.38
-1 5 -2 120.08 10.65
-1 5 -3 25.21 5.86
-1 5 -4 9.75 4.2
-1 5 -5 250.47 15.23
-1 5 -6 59.63 7.93
1 -5 7 -5.84 6.37
-1 5 -7 120.79 15.03
-1 5 -7 96.69 9.69
1 -5 7 -0.4 6.5
-1 5 -7 2.69 6.36
1 -5 7 84.62 10.07
1 -5 7 102.19 9.22
1 -5 7 85.63 9.53
1 -5 8 110.44 10.67
-1 5 -8 61.76 12.6
-1 5 -8 132.59 11.98
1 -5 8 -1.02 5.68
-1 5 -8 -1.78 6.2
1 -5 8 0.94 6.77
1 -5 8 102.3 10.83
1 -5 8 112.4 9.6
1 -5 9 228.53 13.09
-1 5 -9 230.27 14.27
1 -5 9 -1.16 6.73
1 -5 9 241.23 15.21
1 -5 9 224.04 15.27
1 -5 9 -7.58 6.49
-1 5 -9 -2.53 6.43
-1 5 -9 239.17 20.71
1 -5 10 0.03 6.16
1 -5 10 1.75 3.31
1 -5 10 0.3 4.48
-1 5 -10 -3.89 6.18
1 -5 10 -0.34 5.52
-1 5 -10 -0.63 5.84
-1 5 -10 6.79 4.57
1 -5 11 8.72 3.75
1 -5 11 2.21 5.39
-1 5 -11 -1.61 5.8
-1 5 -11 15.35 4.95
1 -5 11 1.42 6.38
-1 5 -11 2.02 6.38
1 -5 11 14.32 5.58
-1 5 -12 52.21 10.74
1 -5 12 32.44 6.25
1 -5 12 35.53 5.32
-1 5 -12 41.56 6.5
-1 5 -13 3.31 4.9
-1 5 -13 39.3 5.94
1 -5 13 49.95 6.4
1 -5 13 44.02 5.49
-1 5 -13 15.41 7.13
1 -5 14 11.68 3.56
1 -5 14 3.16 3.86
1 -5 14 11.79 3.19
-1 5 -14 7.66 3.27
1 -4 -18 9.91 7.79
1 -4 -17 48.39 11.93
1 -4 -16 3.55 2.93
1 -4 -16 11.5 10.23
1 -4 -15 236.54 15.16
1 -4 -15 255.76 13.41
1 -4 -14 9.99 4.23
1 -4 -14 10.46 5.69
1 -4 -13 124.72 11.43
1 -4 -13 121.27 10.33
1 -4 -12 244.92 14.74
1 -4 -12 218.87 14.55
1 -4 -12 211.76 13.41
1 -4 -12 219.65 13.03
1 -4 -12 228.08 13.78
1 -4 -11 252.29 14.01
1 -4 -11 262.17 15.2
1 -4 -10 52.66 7.16
1 -4 -10 46.64 6.16
1 -4 -9 6.92 3.74
1 -4 -9 7.79 3.25
1 -4 -8 3.1 3.29
1 -4 -8 3.32 2.89
1 -4 -7 25.71 4.76
1 -4 -7 25.79 4.43
1 -4 -6 99.67 8.02
1 -4 -6 117.9 8.88
-1 4 5 645.16 19.96
1 -4 -5 575.14 18.33
1 -4 -4 128.15 8.51
-1 4 4 118.15 8.87
1 -4 -3 602.91 17.41
-1 4 3 620.13 19.29
-1 4 2 878.98 23.12
1 -4 -2 869.86 20
1 -4 -2 818.71 19.08
-1 4 1 286.64 13.62
1 -4 -1 296.92 11.34
1 -4 0 282.13 11.1
-1 4 0 278.71 13.57
-1 4 -1 131.42 9.68
-1 4 -2 60.28 6.95
-1 4 -3 15.43 4.18
-1 4 -4 157.29 10.94
-1 4 -5 36.34 5.94
-1 4 -5 39.73 5.91
-1 4 -6 462.52 18.94
-1 4 -6 493.13 20.39
-1 4 -7 234.12 13.64
-1 4 -7 252.57 15.3
-1 4 -8 192.93 14.02
-1 4 -9 72.52 9.12
-1 4 -9 4.03 6.26
-1 4 -10 133.39 11.59
-1 4 -10 168.67 13.71
-1 4 -10 171.41 17.51
1 -4 10 9.01 7.65
1 -4 10 5.09 6.25
1 -4 10 130.24 11.49
-1 4 -10 -1.23 6.22
1 -4 10 137.97 12.12
-1 4 -11 -4.19 6.83
-1 4 -11 6.17 6.46
1 -4 11 4.94 7
1 -4 11 3.38 4.49
1 -4 11 -0.11 5.67
-1 4 -11 0.89 3.65
-1 4 -11 -2.78 6
-1 4 -11 4.15 3.91
1 -4 12 62.66 7.47
1 -4 12 62.75 8.37
1 -4 12 3.35 6.71
-1 4 -12 69.62 13.6
-1 4 -12 0.21 5.7
-1 4 -12 60.19 8.43
-1 4 -12 -3.08 6.08
1 -4 12 5.33 6.18
-1 4 -13 10.87 5.23
1 -4 13 4 6.67
1 -4 13 24.98 5.96
1 -4 13 16.42 4.85
-1 4 -13 -3.85 5.71
-1 4 -13 16.7 5.49
1 -4 13 4.46 5.6
-1 4 -13 15.45 9.53
-1 4 -14 1.89 4.81
1 -4 14 0.34 2.98
1 -4 14 -3.25 5.25
1 -4 14 -5.35 12.97
-1 4 -14 0.66 5.03
-1 4 -14 -0.41 3.59
-1 4 -14 -0.67 3.41
1 -4 14 0.73 5.82
1 -4 14 1.29 3.6
-1 4 -15 12.32 6.87
1 -4 15 3.02 5.1
1 -4 15 12.35 3.66
1 -4 15 4.32 11.71
1 -4 15 12.42 3.76
-1 4 -15 11.33 4.16
-1 4 -15 16.5 4.45
-1 4 -16 -0.46 4.77
1 -4 16 4.26 4.54
1 -4 16 -0.31 2.26
-1 4 -16 -2.92 3.04
1 -4 16 0.45 2.31
-1 4 -16 -2.46 2.78
1 -4 16 -6.2 9.93
1 -3 -19 2.31 6.25
1 -3 -18 0.93 8.29
1 -3 -17 5.22 11.7
1 -3 -17 10.28 3.89
1 -3 -16 94.99 9.23
1 -3 -16 92.61 13.99
1 -3 -15 17.96 4.48
1 -3 -15 18.92 8.95
1 -3 -15 19.41 5.32
1 -3 -14 93.84 8.83
1 -3 -14 101.5 10.57
1 -3 -14 112.11 10.23
1 -3 -13 17.11 4.51
1 -3 -13 24.65 5.92
1 -3 -13 20.6 5.02
1 -3 -12 28.06 4.88
1 -3 -12 37.37 6.08
1 -3 -11 4.62 2.82
1 -3 -11 3.4 2.86
1 -3 -10 237.99 13.28
1 -3 -10 220.87 12.05
1 -3 -9 19.59 4.27
1 -3 -9 20.85 3.88
1 -3 -8 92.94 7.87
1 -3 -8 67.68 6.18
1 -3 -7 171.2 10.02
1 -3 -7 180.68 9.61
1 -3 -6 453.57 15.39
1 -3 -6 465.34 14.56
1 -3 -5 116.99 7.17
-1 3 5 116.15 14.7
1 -3 -5 117.12 7.62
-1 3 5 104.63 14.27
1 -3 -4 1054.74 20.39
-1 3 4 964.98 41.59
1 -3 -4 1055.15 21.36
1 -3 -4 1051.15 39.95
-1 3 4 1103.68 42.88
1 -3 -3 252.99 9.44
1 -3 -3 262.05 10.27
-1 3 3 259.49 21.67
1 -3 -3 252.27 9.76
1 -3 -3 262.84 20.21
-1 3 3 258.23 22.07
1 -3 -2 2395.52 29.39
1 -3 -2 2363.67 28
-1 3 2 2437.86 32.7
1 -3 -2 2385.87 28.83
-1 3 1 39.32 9.71
1 -3 -1 34.52 8.11
1 -3 -1 32.46 6.41
-1 3 1 35.59 8.77
1 -3 -1 35.42 3.6
-1 3 1 34.05 4.46
1 -3 0 200.75 18.05
1 -3 0 190.71 15.18
-1 3 0 189.64 18.94
-1 3 0 167.51 18.28
-1 3 0 202.61 9.95
1 -3 1 181.08 17.36
1 -3 1 158.61 14.24
-1 3 -1 164.71 9.15
-1 3 -1 152.65 18.1
1 -3 1 150.96 7.16
-1 3 -2 305.35 25.38
1 -3 2 319.07 21.16
1 -3 2 316.37 10.46
1 -3 2 332.68 23.87
-1 3 -2 341.84 13.24
1 -3 3 539.5 30.83
-1 3 -3 515.33 16.08
-1 3 -3 434.7 30.63
1 -3 3 518.89 28.02
-1 3 -3 512.17 16.38
1 -3 3 468.68 13.02
-1 3 -3 422.51 26.64
-1 3 -4 148.42 9.23
-1 3 -4 152.8 17.3
-1 3 -4 145.88 9.2
1 -3 4 140.9 7.41
-1 3 -4 131.81 17.68
1 -3 4 147.41 15.87
1 -3 4 136.03 16.05
-1 3 -5 34.6 5.05
-1 3 -5 19.56 7.55
1 -3 5 39.27 9.13
1 -3 5 29.73 3.82
-1 3 -5 25.42 9.11
-1 3 -5 24.69 4.34
-1 3 -6 223.72 12.61
-1 3 -6 205.53 11.13
-1 3 -7 162.56 10.35
-1 3 -7 170.37 11.59
-1 3 -8 487.97 18.68
-1 3 -8 475.35 20.03
-1 3 -9 713.58 25.73
-1 3 -9 681.49 22.98
-1 3 -10 1270.28 32.55
-1 3 -10 1271.46 35.11
-1 3 -11 17.02 4.97
-1 3 -11 20.04 5.44
1 -3 12 -3.84 6.06
-1 3 -12 117.83 10.86
-1 3 -12 115.94 11.7
-1 3 -12 112.66 11.2
1 -3 12 100.61 10.19
-1 3 -12 1.78 6.19
-1 3 -12 97.51 10.28
-1 3 -12 140.38 16.83
1 -3 13 -4.23 5.96
1 -3 13 234.94 14.74
-1 3 -13 -1.33 6.32
-1 3 -13 238.23 15.69
-1 3 -13 198.96 13.9
-1 3 -13 215.99 19.58
-1 3 -14 5.38 4.35
1 -3 14 -3.23 5.69
-1 3 -14 3.27 8.21
-1 3 -14 3.86 4.79
-1 3 -15 8.85 4.71
-1 3 -15 9.18 7.85
1 -3 15 -2.5 6.17
-1 3 -15 10.99 5.07
-1 3 -16 40.51 9.35
-1 3 -16 36.02 6.37
-1 3 -16 35.79 5.76
-1 3 -16 35.01 5.37
-1 3 -17 17.43 4.48
1 -3 17 16.98 3.79
1 -3 17 1.99 4.79
-1 3 -17 16.56 4
-1 3 -17 4.38 4.93
-1 3 -17 21.68 3.91
1 -2 -19 1.19 6.87
1 -2 -19 0.51 2.7
1 -2 -18 9.91 4.03
1 -2 -18 8.58 7.7
1 -2 -17 85.42 8.82
1 -2 -17 75.26 11.87
1 -2 -16 36.05 5.85
1 -2 -16 38.1 12.82
1 -2 -16 38.31 6.69
1 -2 -15 45.38 12.27
1 -2 -15 55.25 7.87
1 -2 -15 49.11 7.25
1 -2 -14 145.58 14.09
1 -2 -14 167.2 12.45
1 -2 -14 160.11 12.42
1 -2 -13 321 16.91
-1 2 13 1.24 10.33
1 -2 -12 183.88 12.43
1 -2 -11 522.39 17.51
1 -2 -11 512.01 19.37
1 -2 -10 159.52 10.28
1 -2 -10 158.27 9.37
1 -2 -9 7.77 2.8
1 -2 -9 0.84 1.77
1 -2 -9 2.47 2.46
1 -2 -8 71.9 5.91
1 -2 -8 72.45 6.26
1 -2 -8 76.33 6.49
-1 2 8 74.41 12.37
-1 2 8 77.1 13.12
1 -2 -8 78.03 13.07
-1 2 7 348.74 24.07
1 -2 -7 330.74 12.35
1 -2 -7 359.04 10.92
-1 2 7 349.86 24.91
1 -2 -7 354.38 11.88
1 -2 -7 338.12 12.01
1 -2 -7 392.99 26.22
1 -2 -6 117.96 7.11
1 -2 -6 137.43 7.04
1 -2 -6 129.76 14.09
-1 2 6 121.82 14
-1 2 6 132.37 13.93
1 -2 -5 3657.66 67.67
-1 2 5 3655.89 67.6
-1 2 5 3468.66 63.9
-1 2 5 3425.81 66.35
-1 2 4 267.35 17.79
1 -2 -4 332.11 18.78
1 -2 -4 303.92 17.48
-1 2 4 275.43 18.05
-1 2 4 311.21 18.81
1 -2 -3 5384.34 73.57
-1 2 3 5476.16 80.42
1 -2 -3 5554.77 70.36
-1 2 3 5556.31 79.47
-1 2 2 124.55 9.69
1 -2 -2 97.76 8.7
1 -2 -2 86.85 7.7
1 -2 -2 77.63 9.37
-1 2 2 117.46 12.4
-1 2 2 121.53 12.11
-1 2 1 641.56 28.45
1 -2 -1 694.24 21.77
1 -2 -1 669.37 26.55
1 -2 -1 733.21 22.36
-1 2 1 636.52 22.48
1 -2 0 981.47 32.56
1 -2 0 985.82 27.01
-1 2 0 932.15 34.76
-1 2 0 969.19 29.56
-1 2 -1 10.12 5.7
1 -2 1 12.72 3.82
1 -2 1 9.54 4.35
-1 2 -1 16.66 5.21
1 -2 2 1810.24 41.09
1 -2 2 1788.93 36.94
-1 2 -2 1731.46 49.49
-1 2 -2 1750.84 45.12
1 -2 2 1830.34 46.41
1 -2 3 38.04 6.93
1 -2 3 58.61 7.59
1 -2 3 38.65 7.59
-1 2 -3 55.74 9.14
-1 2 -3 49.97 9.26
1 -2 4 14.72 5.4
1 -2 4 12.09 4.76
-1 2 -4 23.77 7.31
1 -2 4 16.65 5.3
-1 2 -4 26.5 7.15
-1 2 -5 697.52 18.46
-1 2 -5 708.04 17.27
-1 2 -5 678.72 32.73
1 -2 5 681.6 31.09
1 -2 5 708.07 32.48
-1 2 -5 656.14 33.78
-1 2 -6 107.16 7.35
1 -2 6 110.27 13.09
-1 2 -6 107.47 7.79
-1 2 -6 101.39 14.66
1 -2 6 108.22 13.94
-1 2 -7 3508.71 46.73
-1 2 -7 3511.66 43.8
-1 2 -7 3436.04 85.6
1 -2 7 3604.36 83.02
-1 2 -8 11.97 3.63
-1 2 -8 12.37 3.64
-1 2 -9 473.22 19.27
-1 2 -9 476.18 18.35
-1 2 -10 80.47 8.22
-1 2 -10 90.66 9.06
-1 2 -11 1072.21 30.17
-1 2 -11 1036.63 30.79
-1 2 -12 55.5 7.73
-1 2 -12 54.42 7.81
-1 2 -13 25.8 5.28
-1 2 -13 28.56 6.36
-1 2 -13 32.43 6.44
-1 2 -13 30.25 6.6
-1 2 -13 33.82 6.55
-1 2 -13 45.88 10.9
-1 2 -14 28.8 5.74
-1 2 -14 32.97 6.58
-1 2 -14 28.96 5.83
-1 2 -14 26.98 6.48
-1 2 -14 33.85 10.74
-1 2 -14 19.99 5.97
-1 2 -15 204.5 18.39
-1 2 -15 175.85 13.67
-1 2 -15 181.21 12.32
-1 2 -15 181.85 12.98
-1 2 -16 40.06 9.1
-1 2 -16 33.29 7.12
-1 2 -16 35.24 6.11
-1 2 -16 30.29 5.52
-1 2 -17 8.35 3.62
-1 2 -17 10.27 4.84
-1 2 -17 8.85 3.87
-1 2 -18 43.94 5.2
-1 2 -18 47.06 5.56
-1 2 -18 53.69 6.75
1 -1 -19 19.01 4.01
1 -1 -19 14.34 8.22
1 -1 -19 21.12 4.24
-1 1 19 5.93 16.19
1 -1 -19 17.66 4.24
1 -1 -18 7.79 3.99
1 -1 -18 4.67 3.02
1 -1 -18 7.44 3.66
1 -1 -18 5.91 7.02
1 -1 -17 43.03 8.78
1 -1 -17 35.67 5.91
1 -1 -17 36.42 6.49
1 -1 -17 34.83 6.44
1 -1 -16 87.17 9.31
1 -1 -16 76.89 11.79
1 -1 -16 82.58 8.59
1 -1 -16 79.91 8.98
1 -1 -15 324.72 17.72
1 -1 -15 295.32 16.46
1 -1 -15 302.79 15.86
1 -1 -15 314.17 17.09
1 -1 -15 327.17 20.11
1 -1 -14 152.58 11.4
1 -1 -14 158.1 16.4
1 -1 -14 143.01 11.79
1 -1 -13 446.69 19.82
1 -1 -12 92.52 8.97
1 -1 -11 22.86 3.93
1 -1 -11 21.06 4.75
1 -1 -11 21.35 3.7
1 -1 -10 8.26 2.68
1 -1 -10 6.06 2.5
1 -1 -10 5.45 3.01
1 -1 -9 30.24 3.95
1 -1 -9 30.54 3.8
1 -1 -9 25.26 4.04
-1 1 9 33.29 8.38
-1 1 9 29.41 8.98
-1 1 8 362.66 24.1
1 -1 -8 345.51 11.09
1 -1 -8 366.32 26.45
1 -1 -8 332.56 12.67
1 -1 -8 330.35 11.18
-1 1 8 324.63 24.62
1 -1 -7 313.91 22.76
1 -1 -7 298.5 21.17
-1 1 7 311.07 20.71
1 -1 -7 298.95 10.99
-1 1 7 307.2 22.13
1 -1 -7 316.65 10.2
-1 1 6 318.7 20.54
1 -1 -6 359.6 22.25
1 -1 -6 375.54 22.1
-1 1 6 357.3 20.27
-1 1 5 4467.49 64.79
-1 1 5 4510.05 69.1
1 -1 -5 4536.51 71.17
1 -1 -5 4339.74 70.84
1 -1 -5 4567.03 53.03
1 -1 -4 283.22 12.37
1 -1 -4 290.86 11.93
-1 1 4 301.58 14.69
-1 1 4 306.57 16.19
1 -1 -4 286.85 16.74
-1 1 4 300.91 15.16
-1 1 4 299.75 13.9
1 -1 -4 280.62 16.75
-1 1 3 1699.38 32.53
-1 1 3 1684.14 33.24
1 -1 -3 1619.68 24.62
-1 1 3 1705.53 34.44
-1 1 3 1655.15 32.1
1 -1 -3 1613.54 30.15
-1 1 3 1700.61 32.71
1 -1 -3 1669.99 37.27
-1 1 3 1625.13 29.51
1 -1 -3 1638.34 36.42
1 -1 -2 9262.48 80.78
1 -1 -2 8213.42 69.47
-1 1 2 9856.85 74.56
1 -1 -2 8656.38 51.52
1 -1 -2 8667.71 75.88
-1 1 2 9999 83.22
-1 1 2 9777.11 62.13
-1 1 2 9892.18 78.91
1 -1 -1 1653.34 22.61
-1 1 1 1672.62 30.86
1 -1 -1 1711.51 32.72
-1 1 1 1707.23 23.5
-1 1 1 1767.14 35.74
1 -1 -1 1769.5 31.75
-1 1 0 29.48 5.03
1 -1 0 21.78 3.18
-1 1 0 22.54 3.13
1 -1 0 24.38 4.51
1 -1 0 25.48 3.73
1 -1 1 102.02 5.86
1 -1 1 113.48 7.65
-1 1 -1 109.61 9.94
-1 1 -1 112.29 9.6
1 -1 1 121.5 6.42
-1 1 -1 115.75 7.43
1 -1 2 414.65 16.58
1 -1 2 423.2 18.03
-1 1 -2 409.12 18.66
-1 1 -2 401.29 18.84
1 -1 2 387.78 13.09
-1 1 -2 422.3 16.18
1 -1 3 1184.21 30.78
1 -1 3 1174.83 31.3
-1 1 -3 1223.53 35.45
-1 1 -3 1225.26 33.42
1 -1 3 1230.86 26.67
-1 1 -4 1299.23 39.34
1 -1 4 1325.94 35.55
-1 1 -4 1330.77 35.99
1 -1 4 1299.2 30.89
1 -1 4 1388.53 35.75
1 -1 5 949.59 31.02
1 -1 5 885.81 31.77
-1 1 -5 969.84 36.36
-1 1 -5 1025.35 32.48
1 -1 5 961.34 29.93
1 -1 6 643.04 27.2
1 -1 6 641.94 29.48
1 -1 6 563.82 25.35
-1 1 -6 573.89 30.14
-1 1 -7 224.44 20.3
1 -1 7 204.35 16.24
1 -1 7 195.1 16.38
1 -1 7 199.78 17.82
-1 1 -7 208.61 10.22
-1 1 -7 210.14 10.12
-1 1 -8 1438.96 28.24
-1 1 -8 1501.18 54.86
-1 1 -8 1538.32 28.9
1 -1 8 1440.03 47.8
1 -1 8 1499.44 52.16
-1 1 -9 346.61 14.71
-1 1 -9 351.36 14.94
-1 1 -10 576.13 20.01
-1 1 -10 607.48 20.68
-1 1 -11 206.54 12.76
-1 1 -11 204.84 12.87
-1 1 -12 14.15 4.7
-1 1 -13 9.79 4.45
-1 1 -13 9.91 3.71
1 -1 14 -0.3 20.8
-1 1 -14 101.33 9.64
-1 1 -14 3.09 6.18
-1 1 -14 77.66 12.37
-1 1 -14 90.34 9.69
-1 1 -14 97.2 10.77
-1 1 -14 94.53 9.9
-1 1 -15 63.6 7.9
-1 1 -15 60.47 8.98
-1 1 -15 60.78 8.03
-1 1 -16 96.37 10.51
-1 1 -16 113.73 10.06
-1 1 -17 1.89 3.71
-1 1 -17 -1.62 4.29
-1 1 -17 3.42 3.8
-1 1 -18 68.62 7.23
-1 1 -18 69.88 8.26
-1 1 -18 75.95 7.39
-1 1 -18 72.13 7.4
-1 1 -19 5.41 2.81
-1 1 -19 4.37 2.96
-1 1 -19 1.41 2.62
-1 1 -19 2.74 3.41
1 0 -19 10.42 3.92
1 0 -19 10.58 7.48
1 0 -19 13.14 3.78
1 0 -19 9.9 3.94
1 0 -18 22.13 4.84
1 0 -18 27.82 5.58
1 0 -18 24.32 8.27
-1 0 18 9.79 18.08
1 0 -18 26.17 5.56
1 0 -17 -2.25 3.86
1 0 -17 2.78 3.7
1 0 -17 2.62 3.48
-1 0 17 3.39 19.48
1 0 -17 -0.89 6.75
1 0 -16 257.53 15.03
1 0 -16 252.96 15.95
1 0 -16 260.65 15.89
1 0 -16 238.4 14.79
1 0 -15 47.92 7.54
1 0 -15 49.95 8.36
1 0 -15 48.53 7.34
1 0 -15 43.94 7.07
1 0 -15 52.25 7.81
1 0 -14 413.36 19.57
1 0 -14 402.83 17.29
1 0 -13 12.66 3.79
1 0 -13 13.17 4.35
1 0 -12 946.91 24.59
1 0 -12 907.66 26.5
1 0 -11 39.83 5.13
1 0 -11 43.86 5.93
1 0 -10 12.98 3.12
1 0 -10 11.89 3.62
1 0 -10 15.36 3.57
1 0 -10 12.41 2.91
1 0 -9 428.19 13.86
1 0 -9 435.95 15.38
1 0 -9 427.09 14.41
-1 0 9 444.03 28.69
-1 0 9 401.53 29.03
1 0 -9 400.68 12.65
1 0 -9 449.99 31.24
1 0 -8 156.22 8.74
1 0 -8 143.29 16.67
1 0 -8 155.15 14.99
-1 0 8 138.77 15.89
-1 0 8 153.33 15.67
1 0 -8 165.69 8.05
1 0 -8 147.25 7.22
1 0 -8 154.36 8.11
-1 0 7 909.59 34.32
-1 0 7 871.03 35.84
1 0 -7 881.39 32.92
1 0 -7 810.95 35.45
1 0 -6 20.82 6.18
1 0 -6 29.27 6.11
-1 0 6 21.15 6.06
-1 0 6 24.6 5.56
1 0 -5 348.75 17.86
-1 0 5 348.99 18.91
-1 0 5 355.3 17.35
1 0 -5 327.68 18.95
-1 0 4 4718.26 60.77
-1 0 4 4766.55 55.08
1 0 -4 4718.13 60.57
-1 0 3 157.45 5.19
1 0 -3 130.73 4.32
1 0 -3 145.13 9.83
-1 0 3 163.01 10.03
-1 0 3 138.66 7.95
-1 0 2 964.3 22.46
-1 0 2 952.88 16.28
-1 0 2 964.1 19.84
-1 0 2 987.42 13.69
-1 0 1 890.78 13.93
1 0 -1 808.44 15.01
-1 0 1 883.14 19.24
-1 0 1 812.05 9.65
1 0 0 1143.62 20.21
1 0 0 1146.58 19.52
-1 0 -1 2045.73 22.98
1 0 1 1960.02 29.07
1 0 1 2032.61 15.7
1 0 1 1968.62 21.94
-1 0 -2 1063.33 24.58
-1 0 -2 1015.21 20.66
1 0 2 1025.06 17.16
-1 0 -2 1001.85 20.07
-1 0 -2 1074.77 25.66
-1 0 -3 256.1 10.94
1 0 3 224.33 12.02
1 0 3 209.48 11.08
-1 0 -3 220.1 11.21
-1 0 -3 244.23 13.54
-1 0 -3 226.86 13.55
1 0 3 227.04 10.43
-1 0 -4 1264.93 34.42
1 0 4 1099.89 28.71
1 0 4 1202 29.31
-1 0 -4 1196.24 32.91
1 0 4 1269.21 31.48
-1 0 -4 1168.89 28.7
-1 0 -4 1284.02 25.21
1 0 4 1144.79 27.18
1 0 5 507.6 20.43
1 0 5 480.36 21.04
1 0 5 478.33 20.07
1 0 5 490.5 21.79
-1 0 -5 474.94 22.63
1 0 6 657.67 26.65
-1 0 -6 625.2 28
1 0 6 595.04 26.29
1 0 6 625.47 24.38
1 0 6 601.45 24.85
1 0 7 599.61 27.6
1 0 7 626.9 29.62
1 0 7 688.15 27.22
1 0 7 657.01 28.63
-1 0 -7 615.92 29.72
-1 0 -8 1569.31 25.19
-1 0 -8 1544.48 26.97
1 0 8 1543.1 50.08
-1 0 -8 1475.16 49.52
1 0 8 1539.55 48.32
-1 0 -9 226.02 10.39
1 0 9 206.2 19.43
-1 0 -9 202.89 19.96
-1 0 -9 213.65 10.89
1 0 9 227.33 20.96
-1 0 -10 63.08 6.46
-1 0 -10 68.83 6.35
-1 0 -11 650.19 21.18
-1 0 -11 637.5 19.7
-1 0 -12 140.21 10.05
-1 0 -12 130.33 10.15
-1 0 -13 4.52 3.07
-1 0 -13 7.1 3.4
-1 0 -14 58.3 7.67
-1 0 -15 4.34 3.15
-1 0 -15 0.65 3.46
-1 0 -15 1.78 3.85
-1 0 -15 -0.84 4.76
1 0 15 15.58 17.14
-1 0 -16 61.03 8.86
-1 0 -16 55.7 7.73
-1 0 -17 17.05 4.99
-1 0 -17 15 5.57
-1 0 -17 13.19 4.89
1 0 17 9.07 22.12
-1 0 -18 4.72 3.52
-1 0 -18 -0.21 3.71
-1 0 -18 3.76 3.52
-1 0 -19 115.66 8.32
-1 0 -19 112.27 8.72
-1 0 -19 115.27 9.29
-1 0 -19 111.56 8.36
1 1 -19 16.5 3.92
1 1 -19 21.02 4.42
1 1 -19 16.31 3.78
1 1 -19 18.9 6.21
1 1 -18 92.51 10.23
1 1 -18 99.08 9.12
1 1 -18 91.79 8.29
1 1 -18 98.34 8.8
1 1 -17 32.95 7.86
1 1 -17 35.03 6.35
1 1 -17 39.45 7.18
1 1 -17 35.84 6.47
1 1 -16 51.21 8.27
1 1 -16 54.21 7.9
1 1 -16 61.13 8.02
1 1 -16 53.21 7.87
1 1 -15 426.04 19.64
1 1 -15 456.34 20.98
1 1 -15 423.35 18.87
1 1 -15 435.95 20.3
1 1 -15 434.34 19.64
1 1 -14 33.09 5.7
1 1 -14 33.2 6.51
1 1 -14 34.71 6.18
1 1 -14 34.78 6.51
1 1 -14 39.76 6.68
1 1 -13 432.87 18.64
1 1 -13 425.08 18.33
1 1 -12 2.72 2.91
1 1 -12 3.9 3.27
1 1 -11 253.58 13.2
1 1 -11 243.39 13.31
1 1 -11 236.38 12.49
1 1 -10 22.43 4.01
1 1 -10 32.88 4.77
1 1 -10 23.73 4.42
1 1 -9 358.19 12.12
1 1 -9 367 13.95
-1 -1 9 364.2 26.69
1 1 -9 358.68 14.36
1 1 -9 348.1 27.01
1 1 -9 384.4 14.05
1 1 -8 213.23 19.66
1 1 -8 230.68 10.37
1 1 -8 203.71 8.75
1 1 -8 222.26 10.54
-1 -1 8 221.4 19.56
1 1 -8 228.41 10.04
1 1 -8 255.22 11.46
-1 -1 8 190.8 18.93
-1 -1 7 53.13 9.03
1 1 -7 57.8 4.79
1 1 -7 55.12 5.14
1 1 -7 47.66 8.61
-1 -1 7 49.37 9.6
1 1 -6 444.58 23.54
1 1 -6 450.02 20.96
-1 -1 6 464.69 23.57
-1 -1 6 474.16 25.33
-1 -1 5 899.43 29.63
1 1 -5 861.14 26.95
1 1 -5 903.46 25.76
-1 -1 5 864.28 31.28
1 1 -5 841.84 28.98
-1 -1 4 2.14 2.81
1 1 -4 2.55 2.51
-1 -1 4 0.58 2.93
1 1 -4 3.12 2.81
1 1 -4 0.95 2.27
1 1 -3 1715.85 32.46
-1 -1 3 1784.32 32.67
1 1 -3 1704.25 32.48
1 1 -3 1715.36 32.94
-1 -1 3 1699.25 35.9
-1 -1 2 64.19 7.02
1 1 -2 58.6 3.19
1 1 -2 56.04 5.54
-1 -1 2 64.38 6.65
-1 -1 2 60.36 5.34
1 1 -2 60.53 6.13
-1 -1 2 56.39 5.31
1 1 -1 4941.61 34.33
1 1 -1 4919.8 44.14
-1 -1 1 5231.97 52.09
-1 -1 1 4673.29 39.52
-1 -1 1 5015.57 48.58
-1 -1 0 125.72 7.97
1 1 0 113.24 6.31
-1 -1 0 117.74 7.06
-1 -1 -1 237.31 8.95
1 1 1 244.98 10.37
-1 -1 -1 257.5 11.18
1 1 1 244.22 9.75
1 1 2 2363.62 32.48
1 1 2 2722.46 37.87
-1 -1 -2 2506.16 32.81
-1 -1 -2 2739.15 32.69
-1 -1 -2 2797.96 39.78
-1 -1 -3 261.37 11.95
-1 -1 -3 287.04 12.21
-1 -1 -3 313.39 15.27
1 1 3 245.03 12.12
-1 -1 -4 723.36 21.47
-1 -1 -4 695.11 21.63
-1 -1 -4 698.52 25.16
1 1 4 710.89 23.29
1 1 4 712.88 23.41
1 1 5 940.6 29.73
-1 -1 -5 917.28 27.16
-1 -1 -5 961.23 27.52
-1 -1 -5 900.08 31.32
1 1 5 896.67 28.66
1 1 5 924.85 28.96
1 1 6 179.72 14.37
-1 -1 -6 203.46 13.96
-1 -1 -6 229.5 15.25
1 1 6 201.7 14.92
1 1 6 224.42 16.05
1 1 7 1390.08 42.76
1 1 7 1439.44 41.6
1 1 7 1448.28 44.17
-1 -1 -7 1508.83 42.28
-1 -1 -8 1139.27 22.12
-1 -1 -8 1150.61 40.34
1 1 8 1127.98 36.82
-1 -1 -8 1137.87 26.67
1 1 8 1182.65 43.54
1 1 8 1051.36 38.19
-1 -1 -9 861.47 38.09
-1 -1 -9 816.62 19.38
-1 -1 -9 818.28 20.29
1 1 9 857.22 40.26
1 1 9 803.66 35.54
1 1 9 722.36 36.62
-1 -1 -10 22.23 4.08
-1 -1 -11 166.21 10.66
-1 -1 -12 49.23 6.37
-1 -1 -13 73.69 8
-1 -1 -14 -0.77 3.1
-1 -1 -15 34.25 7.51
-1 -1 -15 37.36 6.82
-1 -1 -15 43.18 6.74
-1 -1 -16 144.6 11.13
-1 -1 -16 144.36 11.75
-1 -1 -16 140.12 12.5
-1 -1 -17 322.87 17.68
-1 -1 -17 325.21 15.59
-1 -1 -17 325.17 16.48
-1 -1 -18 40.42 6.76
-1 -1 -18 47.8 6.16
-1 -1 -18 42.78 6.59
-1 -1 -19 31.59 4.7
-1 -1 -19 36.66 5.82
-1 -1 -19 37.62 5.57
-1 -1 -20 54.29 5.64
-1 -1 -20 56.02 5.63
1 2 -19 13.14 3.59
1 2 -19 16.81 3.56
1 2 -18 4.23 3.51
1 2 -18 6.07 4.52
1 2 -18 3.15 3.39
1 2 -18 3.83 2.83
1 2 -18 1.13 3.07
1 2 -17 33.37 6.04
1 2 -17 37.48 6.25
1 2 -17 34.32 6.67
1 2 -17 28.33 6.17
1 2 -17 31.72 5.54
-1 -2 17 26.2 5.07
1 2 -16 72.49 8.99
1 2 -16 70.01 8.01
-1 -2 16 39.11 30.98
1 2 -16 62.57 8.51
1 2 -16 66.43 8.7
1 2 -16 73.06 8.51
1 2 -15 218.77 15.51
1 2 -15 240.35 14.59
1 2 -15 234.26 15.22
1 2 -15 235.21 14.98
1 2 -15 250.17 15.51
1 2 -14 16.85 5.54
1 2 -14 19.78 5.3
1 2 -14 15.75 4.94
1 2 -14 16.84 5.75
1 2 -14 18.48 4.94
1 2 -14 19.65 5.35
1 2 -13 5.54 3.59
1 2 -12 361.65 17.11
1 2 -11 26.67 5.46
1 2 -11 23.59 4.89
1 2 -11 28.75 5.13
1 2 -10 74.17 8.22
1 2 -10 63.98 6.91
1 2 -10 67.5 7.29
1 2 -9 176.67 10.38
1 2 -9 155.44 10.24
1 2 -9 176.7 11.7
1 2 -8 25.03 4.1
1 2 -8 21.96 3.37
-1 -2 8 22.71 7.04
-1 -2 8 26.15 7.9
1 2 -8 29.14 4.79
-1 -2 8 14.57 3.59
1 2 -7 9.92 3.26
-1 -2 7 7.45 4.5
1 2 -7 8.54 2.19
1 2 -7 18.97 3.47
-1 -2 7 10.3 6.04
-1 -2 7 6.91 2.88
-1 -2 7 6.78 4.18
1 2 -6 1274.22 23.28
-1 -2 6 1402.02 43.69
-1 -2 6 1319.91 44.1
-1 -2 6 1304.44 45.6
1 2 -6 1346.32 40.39
1 2 -5 1157.77 36.28
-1 -2 5 1149.79 38.26
-1 -2 5 1132.9 39.51
-1 -2 5 1174.5 36.94
1 2 -4 3523.62 61.7
-1 -2 4 3573.02 60.26
-1 -2 4 3605.72 65.93
-1 -2 4 3597.9 62.33
-1 -2 3 2914.08 50.91
-1 -2 3 2969.65 52.74
-1 -2 3 2966.81 55.76
1 2 -3 2801.85 41.6
1 2 -3 2892.26 53.63
-1 -2 3 2964.5 52.62
-1 -2 3 2910.29 40.14
1 2 -2 4225.26 62.66
-1 -2 2 4381.82 50.09
-1 -2 2 4092.47 55.77
-1 -2 2 4200.67 62.5
-1 -2 2 3966.4 56.15
1 2 -2 4100.46 50.93
-1 -2 1 188.38 11.67
1 2 -1 166.53 12.15
-1 -2 1 169.9 10.6
-1 -2 1 178.41 12.47
1 2 -1 184.01 11.36
1 2 0 336.93 16.65
-1 -2 0 342.92 14.06
-1 -2 0 365.11 15.63
1 2 0 331.37 15.41
1 2 1 1725.54 35.79
1 2 1 1781.76 35.51
-1 -2 -1 1789.38 34.12
-1 -2 -1 1790.53 31.23
-1 -2 -1 1768.06 20.72
1 2 2 412.35 16.25
1 2 2 397.33 18.12
-1 -2 -2 399.87 16.57
-1 -2 -2 420.97 16.11
-1 -2 -3 2846.34 45.31
1 2 3 2903.24 39.73
1 2 3 2769.94 48.51
1 2 3 2812.77 50.55
-1 -2 -3 2778.72 45.62
-1 -2 -4 145.56 11.16
-1 -2 -4 135.17 11.18
1 2 4 139.12 12.26
1 2 4 140.97 12.12
-1 -2 -5 377.77 19.13
1 2 5 415.42 21.65
-1 -2 -5 426.97 21.45
1 2 5 391.29 21.09
-1 -2 -6 1184.15 36.08
1 2 6 1129.86 37.62
1 2 6 1151.85 38.81
1 2 7 9.49 5.34
-1 -2 -7 3.92 1.86
-1 -2 -7 3.49 3.1
1 2 7 11.03 5.41
-1 -2 -7 12.09 3.86
1 2 7 5.43 3.91
-1 -2 -8 2934.23 36.82
1 2 8 2760.22 69.49
-1 -2 -8 3027.68 46.75
-1 -2 -8 2860.85 35.48
1 2 8 2713.63 65.04
-1 -2 -8 3171.17 76.94
-1 -2 -8 2935.3 65.33
1 2 8 3050.14 73.26
1 2 9 24.59 7.51
-1 -2 -9 24 3.95
-1 -2 -9 18.66 5.63
-1 -2 -9 29.42 8.92
-1 -2 -9 21.28 4.08
1 2 10 1.14 5.07
-1 -2 -10 913.34 23.55
1 2 11 -0.83 7.37
-1 -2 -11 28.48 4.89
-1 -2 -12 343.94 16.33
1 2 12 -0.84 7.87
-1 -2 -13 151.76 11.69
-1 -2 -14 55.35 7.74
-1 -2 -14 -0.77 6.28
-1 -2 -15 -1.27 3.24
-1 -2 -15 2.23 4.23
-1 -2 -16 68.99 8.41
-1 -2 -17 45.79 7.2
1 2 18 23.71 19.46
-1 -2 -18 107.85 9.55
1 2 19 16.58 14.55
-1 -2 -19 12.25 3.99
1 2 20 -0.13 15.08
-1 -2 -20 39.43 4.98
1 3 -18 55.16 5.99
-1 -3 18 62.35 5.77
1 3 -18 65.06 6.08
-1 -3 17 0.08 3.13
1 3 -17 2.52 3.93
1 3 -17 2.56 3.54
1 3 -17 2.17 3.07
1 3 -17 4.29 3.25
1 3 -16 44.32 6.36
1 3 -16 38.92 7
-1 -3 16 41.95 6.59
1 3 -16 66.19 7.97
1 3 -16 53.98 7.48
1 3 -15 17.38 5
1 3 -15 15.43 6.1
-1 -3 15 15.33 5.08
1 3 -15 17.47 5.72
1 3 -15 19.74 5.69
1 3 -14 218.79 14.75
1 3 -14 214.74 15.2
1 3 -14 209.07 14.24
1 3 -14 241.03 14.54
1 3 -14 222.79 14
1 3 -13 97.61 10.78
1 3 -13 95.73 9.91
1 3 -13 126.81 12.79
1 3 -13 97.51 10.33
1 3 -13 108.36 10.28
1 3 -13 102.4 10.45
1 3 -12 166.54 13.48
1 3 -12 165.36 12.64
1 3 -12 172.39 12.63
1 3 -12 156.2 12.08
1 3 -11 92.87 10.26
1 3 -11 65.34 7.71
1 3 -10 33.69 6.82
1 3 -10 32.63 5.76
1 3 -10 31.38 5.87
1 3 -9 12.37 4.81
1 3 -9 12.08 3.66
1 3 -8 166.05 11.92
1 3 -8 150.2 10.16
1 3 -7 924.04 25.52
1 3 -7 859.15 22.17
-1 -3 6 984.64 41.98
1 3 -6 1038.16 22.32
1 3 -6 984.76 22.34
-1 -3 6 947.91 43.63
1 3 -6 960.8 41.72
1 3 -5 203.08 9.44
1 3 -5 189.31 9.51
-1 -3 5 186.2 17.67
1 3 -5 207.38 10.91
-1 -3 5 168.21 17.67
1 3 -5 147.56 16.11
-1 -3 4 1444.53 48.18
-1 -3 4 1469.78 46.05
1 3 -4 1527.65 25.66
-1 -3 3 2708.48 59.72
-1 -3 3 2642.8 62
1 3 -3 2615.46 63.01
-1 -3 2 5355.21 80.17
1 3 -2 5158.01 76.83
-1 -3 2 5058.72 72.32
-1 -3 2 5204.76 82.8
1 3 -2 5146.99 86.11
1 3 -1 1561.13 42.88
1 3 -1 1496.67 45.49
-1 -3 1 1514.78 41.26
-1 -3 1 1579.74 44.06
-1 -3 1 1497.7 39.77
-1 -3 0 113 11.2
1 3 0 96.72 11.75
1 3 0 93.28 10.93
-1 -3 -1 119.14 11.47
1 3 1 98.4 11.48
1 3 1 101.3 11.68
1 3 2 7.35 4.86
-1 -3 -2 18.45 4.95
1 3 2 15.05 5.03
-1 -3 -3 913.07 31.62
1 3 3 869.43 34.09
1 3 3 917.83 30.67
-1 -3 -4 144.03 13.19
1 3 4 153.66 14.97
1 3 4 133.79 14.41
1 3 5 623.73 30.96
1 3 5 721.91 33.17
-1 -3 -5 782.26 22.02
-1 -3 -5 669.77 16.18
-1 -3 -5 734.77 30.39
1 3 6 977.56 40.74
-1 -3 -6 962.38 20.4
1 3 6 954.07 18.77
1 3 6 886.32 38.29
-1 -3 -6 902.34 18.8
-1 -3 -6 967.22 36.52
1 3 7 364.33 11.8
-1 -3 -7 394.75 25.46
-1 -3 -7 381.61 24.21
-1 -3 -7 374.94 13.49
-1 -3 -7 322 16.3
-1 -3 -7 367.13 12.79
1 3 7 311.71 24.01
1 3 7 406.42 27.78
-1 -3 -8 1142.45 46.49
-1 -3 -8 1162.23 31.97
1 3 8 965.57 43.18
-1 -3 -8 1007.15 22.54
-1 -3 -8 1007.86 23.21
-1 -3 -9 1078.79 25.18
-1 -3 -9 1061.44 24.66
-1 -3 -10 59.49 9.45
-1 -3 -10 79.83 7.49
-1 -3 -10 77.18 7.47
-1 -3 -11 278.97 14.44
-1 -3 -11 293.55 14.32
-1 -3 -12 2.93 3.08
1 3 12 -1.4 6.17
-1 -3 -13 52.27 7.26
1 3 13 0.34 8.19
-1 -3 -14 18.84 5
-1 -3 -14 17.39 5.43
1 3 14 -1.06 9.42
-1 -3 -14 -4.32 7.6
-1 -3 -15 100.51 10.09
-1 -3 -15 83.35 9.4
-1 -3 -16 34.78 6.66
-1 -3 -17 179.69 12.52
-1 -3 -18 7.69 4.29
1 3 19 7.94 17.54
-1 -3 -19 12.9 4
1 4 -17 61.4 6.24
-1 -4 17 57.68 5.57
1 4 -17 63.23 5.89
-1 -4 16 -0.97 2.93
-1 -4 16 9.71 11.78
1 4 -16 2.11 2.8
1 4 -16 4.5 3.86
1 4 -16 1.75 3.17
-1 -4 15 110.88 9.57
1 4 -15 114.04 9.45
1 4 -15 125.7 10.18
1 4 -15 117.84 10.49
1 4 -14 29.75 5.93
1 4 -14 28.72 6.96
1 4 -14 27.79 6.14
-1 -4 14 33.38 6.36
1 4 -13 92.56 9.93
-1 -4 13 82.76 9.33
1 4 -13 97.79 10.92
1 4 -13 105.45 10.17
1 4 -13 94.31 9.96
1 4 -12 4.51 4.93
1 4 -12 2.33 4.75
-1 -4 12 1.51 4.12
1 4 -12 4.08 4.78
1 4 -12 5.27 4.87
1 4 -12 4.92 3.64
1 4 -12 3.49 4.05
1 4 -11 440.55 20.71
1 4 -11 385.4 18.61
1 4 -11 379.27 18.86
1 4 -11 396.49 20.64
1 4 -11 403.55 19.33
1 4 -10 12.86 4.29
1 4 -10 20.59 6.59
1 4 -9 347.34 19.35
1 4 -8 147 12.54
1 4 -7 157.99 10.52
1 4 -7 205.92 13.92
1 4 -6 10.63 3.59
1 4 -6 12.55 4.47
1 4 -5 1303.27 28.56
1 4 -5 1530.4 33.75
1 4 -4 16.48 4.1
1 4 -4 15.59 3.85
1 4 -3 595.45 36.49
-1 -4 3 640.3 35.85
1 4 -3 666.4 19.43
1 4 -2 160.88 9.48
1 4 -2 146.53 18.11
1 4 -2 161.92 8.75
-1 -4 2 177.12 17.87
-1 -4 1 85.21 12.28
1 4 -1 76.34 6.34
1 4 -1 81.79 6.85
1 4 -1 74.06 12.26
1 4 -1 67.94 12.43
1 4 0 11.68 3.07
1 4 0 16.1 6.69
1 4 0 18.38 3.57
-1 -4 0 10.47 4.89
1 4 0 12.08 6.33
-1 -4 -1 52.49 9.43
1 4 1 49.64 5.09
1 4 1 40.82 9.59
1 4 1 47.72 5.2
-1 -4 -1 23.94 4.77
1 4 1 37.89 9.13
1 4 2 255.12 22.33
-1 -4 -2 338.57 22.96
1 4 2 299.97 11.51
1 4 2 290.29 11.85
1 4 2 237.74 20.61
-1 -4 -2 284.78 13.15
-1 -4 -3 264.65 20.62
1 4 3 253.36 11.28
-1 -4 -3 242.72 9.85
1 4 3 247.47 22.54
-1 -4 -4 54 6.91
1 4 4 40.72 10.07
-1 -4 -4 50.82 9.44
-1 -4 -4 46.36 4.88
1 4 4 50.47 5.31
-1 -4 -5 660.39 33.41
1 4 5 642.16 17.96
1 4 5 709.72 38.75
1 4 5 610.77 36.37
-1 -4 -5 630.53 17.52
-1 -4 -5 724.89 24.26
1 4 6 151.36 8.95
-1 -4 -6 150.56 9.09
-1 -4 -7 874.1 28.98
-1 -4 -7 852.59 22.33
1 4 7 891.19 21.61
-1 -4 -8 345.26 19.36
-1 -4 -8 415.53 16.33
-1 -4 -9 349.35 15.66
-1 -4 -9 303.42 19.11
-1 -4 -10 28.41 5.43
-1 -4 -10 14.77 6.9
-1 -4 -11 37.96 6.21
-1 -4 -11 36.41 5.77
-1 -4 -12 51.95 7.24
-1 -4 -12 52.34 6.85
-1 -4 -13 4.41 11.69
-1 -4 -13 24.03 5.05
-1 -4 -13 25.46 5.44
1 4 13 -4.39 7.48
-1 -4 -13 28.73 6.05
-1 -4 -14 15.18 4.91
-1 -4 -14 20.41 5.14
-1 -4 -15 51.42 7.63
-1 -4 -16 73.8 8.66
-1 -4 -17 1.29 3.64
-1 -4 -18 52.89 6.59
-1 -4 -19 41.33 5.02
1 5 -15 1.63 2.83
1 5 -15 1.41 3.28
-1 -5 15 2.86 2.81
1 5 -14 100.59 8.76
-1 -5 14 98.19 8.14
1 5 -14 102.94 9.41
-1 -5 13 0.04 3.83
1 5 -13 1.54 3.74
-1 -5 13 -8.38 13.75
1 5 -13 -0.61 3.49
1 5 -13 -0.57 4.19
-1 -5 12 17.43 5.38
1 5 -12 19.2 5.97
1 5 -12 19.04 5.54
-1 -5 12 4.27 14.79
1 5 -12 14.54 5.92
-1 -5 12 19.51 5.38
1 5 -11 70.57 9.54
-1 -5 11 66.43 8.28
1 5 -11 71.97 9.14
-1 -5 11 73.52 8.81
1 5 -11 67.89 8.62
1 5 -10 2.39 4.44
-1 -5 10 -10.52 15.53
-1 -5 10 7.07 4.61
1 5 -10 14.43 5.78
1 5 -10 6.06 4.69
-1 -5 10 3.92 4.36
1 5 -10 5.26 3.43
1 5 -10 3.84 4
-1 -5 9 -13.94 15.83
-1 -5 9 4.01 4.46
1 5 -9 -1.62 5.73
1 5 -9 5.7 4.43
1 5 -9 1.34 6.12
1 5 -9 6.82 4.61
1 5 -9 9.03 5.33
1 5 -9 5.84 4.61
1 5 -9 6.05 7.4
-1 -5 9 1.36 3.64
1 5 -8 33.49 7.33
1 5 -8 30.77 5.83
1 5 -7 18.61 5.14
1 5 -7 24.14 6.02
1 5 -6 347.91 19.29
1 5 -6 274.85 15.29
1 5 -5 788.97 27.59
1 5 -5 620.75 22.54
1 5 -4 126.8 10.34
1 5 -3 43.57 6.31
1 5 -2 870.21 23.57
1 5 -2 914.19 25.74
1 5 -1 127.82 9.76
1 5 -1 116.62 8.89
1 5 0 3.47 2.96
1 5 0 5.01 3
1 5 1 104.66 8.52
1 5 1 131.77 9.45
1 5 2 1.54 2.81
1 5 2 3.84 2.88
-1 -5 -3 -0.5 7.41
1 5 3 81 7.58
-1 -5 -4 278.04 12.29
1 5 4 256.41 13.31
-1 -5 -5 5.13 4.53
1 5 5 4.16 3.06
-1 -5 -5 7.05 2.92
-1 -5 -6 652.37 20.55
1 5 6 635.69 20.94
-1 -5 -6 582.35 25.01
-1 -5 -7 3.88 4.81
1 5 7 6.92 3.33
-1 -5 -7 4.29 2.96
-1 -5 -8 452.56 18.47
1 5 8 483.43 18.41
-1 -5 -9 1.58 4.82
-1 -5 -9 0 3.14
-1 -5 -10 308.53 16.37
-1 -5 -10 229.98 18.57
-1 -5 -11 8.37 3.7
-1 -5 -11 -1.53 11.66
-1 -5 -11 7.72 3.92
-1 -5 -11 10.05 4.09
-1 -5 -12 38.02 6.13
-1 -5 -12 44.58 7.35
-1 -5 -12 46.98 7.19
-1 -5 -13 25.92 5.42
-1 -5 -13 10.33 12.28
-1 -5 -13 26.13 6.24
-1 -5 -14 0.82 3.95
-1 -5 -15 5.5 4.11
-1 -5 -16 45.24 6.8
-1 -5 -17 4.32 3.61
-1 -5 -18 63.54 6.2
-1 -6 13 25.01 4.34
1 6 -13 19.51 4.33
-1 -6 13 19.68 3.74
1 6 -13 24.9 4.59
-1 -6 12 0.47 3.07
-1 -6 12 -0.94 2.77
1 6 -12 1.22 3.07
1 6 -12 0.01 3.27
1 6 -11 39.6 6.81
-1 -6 11 36.25 5.61
-1 -6 11 37.65 6.44
1 6 -11 44.23 6.68
-1 -6 10 1.66 3.44
-1 -6 10 -0.05 3.77
1 6 -10 -5.63 5.61
1 6 -10 -0.47 3.8
1 6 -10 1.7 4.05
1 6 -9 34.76 6.27
-1 -6 9 34.61 7
1 6 -9 28.91 6.85
1 6 -8 77.68 9.48
1 6 -8 0.61 5.99
-1 -6 8 77.28 9.4
1 6 -8 -4.14 6.24
1 6 -8 82.45 9.27
-1 -6 7 8.96 5.42
1 6 -7 4.43 4
1 6 -7 10.5 4.47
1 6 -7 -0.25 5.82
1 6 -7 3.75 6.15
1 6 -7 6.34 4.69
1 6 -6 1.57 6.08
1 6 -6 9.82 4.41
1 6 -6 2.79 6.17
-1 -6 6 0.31 4.65
-1 -6 5 156.35 12.46
1 6 -5 166.13 12.97
1 6 -4 431.2 20.34
1 6 -3 126.19 11.37
1 6 -2 224.96 14.4
1 6 -1 304.78 16.02
1 6 -1 306.37 16.58
1 6 0 4.89 3.65
1 6 0 5.06 3.79
1 6 1 20.62 5.28
1 6 1 21.21 4.99
1 6 2 32.62 6.08
-1 -6 -2 2.23 9.52
1 6 3 219.25 14.08
1 6 4 174.18 12.54
1 6 5 272.35 15.62
-1 -6 -6 24.15 4.83
1 6 6 19.19 5.24
1 6 7 557.17 21.78
-1 -6 -7 598.01 21.44
-1 -6 -8 138.41 10.94
1 6 8 131.14 10.79
-1 -6 -8 148.29 11.3
-1 -6 -9 -6.38 11.7
-1 -6 -9 336.82 16.64
-1 -6 -9 1.74 8.55
-1 -6 -9 223.73 18.12
-1 -6 -9 377.12 17.98
-1 -6 -9 346.86 17.51
-1 -6 -10 19.66 5.35
-1 -6 -10 27 5.7
-1 -6 -10 20.73 12.56
-1 -6 -10 26.43 5.57
-1 -6 -11 60.28 8.18
-1 -6 -11 65.19 8.08
-1 -6 -12 12.04 4.31
-1 -6 -12 17.77 5.51
-1 -6 -13 3.83 3.49
-1 -6 -13 -1.01 4.07
-1 -6 -14 10.6 3.86
-1 -6 -14 10.51 4.21
-1 -6 -15 37 4.91
-1 -6 -15 40.1 6.22
-1 -6 -16 -3.92 3.32
-1 -7 11 0.31 2.59
-1 -7 11 9.84 9.89
1 7 -11 1.07 2.32
-1 -7 10 9.73 3.98
1 7 -10 11.72 3.53
-1 -7 9 1.28 3.76
1 7 -9 -5.21 5.06
-1 -7 8 2.97 3.69
1 7 -8 -1.1 5.12
1 7 -7 -5.63 6
-1 -7 7 73.24 8.49
1 7 -6 -1.29 5.8
-1 -7 6 14.63 5.07
1 7 -5 1.06 5.81
-1 -7 5 5.73 14.8
-1 -7 4 10.01 4.68
-1 -7 4 -4.73 15.15
1 7 -4 -2.61 6.03
-1 -7 3 -5 15.37
1 7 -3 -3.82 6.27
1 7 -2 -0.1 5.94
-1 -7 2 111.69 16.12
-1 -7 2 20.04 15.55
1 7 -2 99.25 10.32
-1 -7 1 255.69 16.37
1 7 -1 -4.18 6.2
-1 -7 1 250.41 15.62
1 7 -1 265.73 16.19
-1 -7 1 -15.53 15.23
1 7 -1 260.26 15.5
-1 -7 1 -2.06 10.34
-1 -7 1 197.69 18.96
-1 -7 0 5 4.28
-1 -7 0 7.12 4.61
-1 -7 0 -5.26 5.89
1 7 0 5.57 3.77
-1 -7 0 -1.23 9.56
-1 -7 0 -0.57 14.57
1 7 0 4.32 3.25
-1 -7 0 2.18 4.64
-1 -7 -1 50.77 7.87
-1 -7 -1 54 8.33
1 7 1 58.02 8.11
-1 -7 -1 56.08 11.73
-1 -7 -1 58.35 8.66
-1 -7 -2 0.17 4.91
-1 -7 -2 7.43 5.47
-1 -7 -2 2.19 3.83
-1 -7 -2 2.24 4.66
1 7 2 5.52 4.18
-1 -7 -2 -11.95 15.44
-1 -7 -3 77.2 9.61
-1 -7 -3 80.35 9.2
-1 -7 -3 78.41 9.69
1 7 3 95.51 10.01
-1 -7 -4 360.28 16.51
1 7 4 378.81 19.31
-1 -7 -4 333.64 17.02
-1 -7 -4 339.22 18.47
-1 -7 -4 335.13 17.66
1 7 5 99.39 10.06
-1 -7 -5 96.02 11.13
-1 -7 -5 95.32 9.99
-1 -7 -5 106.57 9.46
-1 -7 -6 36.86 6.35
-1 -7 -6 39.94 8.56
-1 -7 -6 3.11 8.63
1 7 6 0.13 5.77
-1 -7 -7 63.33 9.84
1 7 7 -0.3 5.38
-1 -7 -7 -5.03 8.86
-1 -7 -7 76.17 8.52
-1 -7 -8 54.08 7.21
-1 -7 -8 48.48 8.74
-1 -7 -8 57.18 7.78
-1 -7 -9 58.05 7.62
-1 -7 -9 64.49 8.05
-1 -7 -10 45.91 7
-1 -7 -10 40.01 6.29
-1 -7 -11 4.14 3.62
-1 -7 -11 5.34 3.99
-1 -7 -12 2.02 3.37
-1 -7 -12 -1.2 3.44
-1 -7 -13 -3 3.33
-1 -7 -13 0.78 2.66
-1 -7 -14 4.64 2.81
-1 -7 -14 3.73 2.84
-1 -8 8 10.11 5.02
-1 -8 7 8.89 5.79
-1 -8 7 11.41 3.58
-1 -8 7 10.26 3.64
-1 -8 7 9.25 3.44
-1 -8 6 -1.17 11.04
-1 -8 6 42.19 5.53
-1 -8 6 41.3 5.69
-1 -8 6 33.48 7.86
-1 -8 6 39.15 5.66
1 8 -6 4.59 4.8
-1 -8 5 1.3 5.94
-1 -8 5 -7.74 11.8
-1 -8 5 5.62 3.72
-1 -8 5 4.26 3.19
1 8 -5 0.43 4.55
-1 -8 5 6.1 3.97
-1 -8 4 112.86 8.76
-1 -8 4 85.47 12.17
-1 -8 4 123.95 9.69
-1 -8 4 110.17 9.67
1 8 -4 3.28 5.16
-1 -8 4 5.02 12.45
-1 -8 3 5.54 4.02
-1 -8 3 4.09 12.64
-1 -8 3 -0.71 6.56
1 8 -3 -1.93 5.11
-1 -8 3 1.29 4.1
1 8 -2 -1.48 5.09
-1 -8 2 33.53 5.95
-1 -8 2 16.29 7.24
-1 -8 2 17.94 13.65
-1 -8 2 28.15 6.31
-1 -8 1 24.61 5.47
-1 -8 1 11.61 8
-1 -8 1 11.68 13.63
-1 -8 1 22.68 6.28
-1 -8 0 9.22 4.42
-1 -8 0 15.86 5.81
-1 -8 0 10.58 4.39
-1 -8 0 12.17 7.39
-1 -8 -1 16.79 8.57
-1 -8 -1 3.89 3.68
-1 -8 -1 6.77 4.57
-1 -8 -1 8.58 7.03
-1 -8 -1 5.49 4.64
1 8 2 -4.09 6.48
-1 -8 -2 0.29 3.74
-1 -8 -2 -0.42 7.59
-1 -8 -2 0.45 4.68
-1 -8 -2 1.15 4.42
-1 -8 -2 1.83 4.52
-1 -8 -3 9.93 4.99
-1 -8 -3 3.42 7.85
-1 -8 -3 6.01 3.84
1 8 3 9.01 7.83
-1 -8 -3 14.29 5.65
-1 -8 -4 17.37 5.33
1 8 4 -1 5.92
-1 -8 -4 -1.79 7.79
-1 -8 -4 19.09 6.43
-1 -8 -4 18.13 4.95
1 8 5 -4.37 5.69
-1 -8 -5 21.71 6.42
-1 -8 -5 21.98 5.48
-1 -8 -5 -4.28 7.85
-1 -8 -6 41.78 5.71
-1 -8 -6 34.65 7.34
-1 -8 -6 40.88 6.54
-1 -8 -7 -3.99 7.56
-1 -8 -7 1.29 3.03
-1 -8 -7 -1.3 5.33
-1 -8 -7 2.39 3.52
-1 -8 -8 84.99 7.45
-1 -8 -8 75.13 8.56
-1 -8 -8 82.09 7.97
-1 -8 -9 2.19 2.82
-1 -8 -9 2.51 3.98
-1 -8 -9 1.25 2.94
-1 -8 -10 -1.37 2.79
-1 -8 -10 0.72 2.82
-1 -8 -11 11.76 3.38
-1 -8 -11 11.19 3.35
-1 -8 -12 2.4 2.14
-1 -9 2 1.49 2.8
-1 -9 1 26.33 4.5
-1 -9 0 13.82 3.89
-1 -9 0 13.96 3.35
-1 -9 0 13.72 4.8
-1 -9 -1 5.98 2.9
-1 -9 -1 9.1 3.1
-1 -9 -1 8.55 3.5
-1 -9 -2 34.32 4.64
-1 -9 -2 37.61 5.01
-1 -9 -2 31.35 4.95
1 9 3 -1.99 3.95
-1 -9 -3 -4.11 5.58
-1 -9 -3 2.03 2.98
-1 -9 -3 0.34 2.69
-1 -9 -4 0.37 2.82
-1 -9 -4 -5.91 5.82
-1 -9 -4 1.29 2.8
-1 -9 -4 1.05 2.29
-1 -9 -5 37.89 4.57
-1 -9 -5 30.88 4.85
-1 -9 -6 6.03 3.2
2 -7 -10 0.18 2.44
2 -7 -10 1.51 2.77
2 -7 -9 9.13 3.49
2 -7 -9 8.24 3.65
2 -7 -8 9.38 4.06
2 -7 -8 13.1 4.22
2 -7 -8 9.99 3.62
2 -7 -8 10.22 4.03
2 -7 -7 88.6 8.12
2 -7 -7 99.43 8.57
2 -7 -7 79.23 8
2 -7 -6 14.16 4.68
2 -7 -6 12.18 4.41
2 -7 -6 14.4 4.81
2 -7 -5 24.68 4.59
2 -7 -5 23.66 5.32
2 -7 -5 20.61 5.21
2 -7 -5 22.06 5.49
2 -7 -4 26.89 5.77
2 -7 -4 33.55 5.27
2 -7 -4 31.12 5.68
2 -7 -4 29.25 5.96
2 -7 -3 4.78 3.79
2 -7 -3 5.82 4.27
2 -7 -3 5.28 3.38
2 -7 -3 7.76 4.55
2 -7 -2 46.4 6.76
2 -7 -2 53.36 6.2
2 -7 -2 53.01 7.02
2 -7 -2 52.5 7.1
2 -7 -1 8.47 4.16
2 -7 -1 10.3 3.53
2 -7 -1 7.3 4.05
2 -7 -1 7.02 4.25
2 -7 0 5.48 2.96
2 -7 0 6.19 3.73
2 -7 0 4.62 3.69
-2 7 0 2.3 5.81
2 -7 0 -0.42 5.77
2 -7 0 8.84 4.09
2 -7 1 36.46 5.4
2 -7 1 38.59 5.9
2 -7 2 10.38 3.35
2 -7 2 14.32 4.24
2 -7 3 8.16 3.69
2 -7 3 11.21 3.39
2 -7 3 9.91 3.79
2 -7 4 60.43 6.73
2 -7 4 65.88 6.64
2 -7 4 66.7 6.27
2 -7 5 71.37 6.19
2 -7 5 63.69 6.55
-2 7 -6 3.68 4.34
-2 7 -6 -4.13 4.01
-2 7 -7 4.52 4.01
2 -7 7 7.72 2.58
-2 7 -7 4.48 4.75
2 -6 -13 3.35 2.48
2 -6 -13 1.21 2.82
2 -6 -13 -1.42 3.18
2 -6 -12 7.07 3.83
2 -6 -12 8.04 3.24
2 -6 -12 9.25 3.9
2 -6 -11 2.1 2.85
2 -6 -11 -1.18 3.63
2 -6 -11 0.85 4.95
2 -6 -11 -1.08 3.67
2 -6 -10 18.55 4.19
2 -6 -10 19.6 5.47
2 -6 -10 17.55 5.28
2 -6 -10 16.94 4.65
2 -6 -9 27.36 5.92
2 -6 -9 27.41 6.16
2 -6 -9 31.62 5.84
2 -6 -8 145.18 11.87
2 -6 -8 138.01 11.42
2 -6 -8 137.25 10.3
2 -6 -8 148.42 11.18
2 -6 -7 0.94 3.25
2 -6 -7 1.95 4
2 -6 -7 -0.43 4.13
2 -6 -7 2.39 3.86
2 -6 -7 -2.29 4.66
2 -6 -6 136.05 11.51
2 -6 -6 152.07 10.79
2 -6 -6 150.71 12.22
2 -6 -6 130.54 11.57
2 -6 -6 143.69 10.56
2 -6 -5 11.91 4.45
2 -6 -5 13.82 5.43
2 -6 -5 16.39 4.72
2 -6 -5 15.23 5.39
2 -6 -5 15.51 5.62
2 -6 -4 157 10.9
2 -6 -4 150.71 12.28
2 -6 -4 141.27 11.89
2 -6 -4 152.23 12.18
2 -6 -3 2.59 4.53
2 -6 -3 3.55 3.16
2 -6 -3 3.75 4.44
2 -6 -3 -10.2 7.34
2 -6 -3 -0.42 4.27
2 -6 -2 3.53 4.7
2 -6 -2 2.16 3.12
2 -6 -2 -0.89 3.64
2 -6 -2 -3.16 6.8
2 -6 -2 1.24 4.48
2 -6 -1 23.76 5.85
2 -6 -1 18.19 5.53
2 -6 -1 22.72 5.27
2 -6 -1 26.66 6.44
2 -6 0 3.12 3.85
2 -6 0 1.44 2.95
2 -6 0 -0.77 3.81
2 -6 0 -0.71 4.25
2 -6 1 26.57 6.36
2 -6 1 38.16 6.73
2 -6 1 32.47 5.63
2 -6 2 13.58 4.27
2 -6 2 11.07 4.62
2 -6 2 7.35 4.97
2 -6 3 84.51 9.46
2 -6 3 89.98 8.68
2 -6 3 92.77 9.38
2 -6 4 73.82 9.1
2 -6 4 91.2 8.65
2 -6 4 86.82 9.02
2 -6 5 75.16 7.8
2 -6 5 71.35 8.79
2 -6 6 33.26 5.61
2 -6 6 27.27 6.23
2 -6 7 86.46 7.81
2 -6 7 79.79 8.87
2 -6 7 85.46 7.97
2 -6 8 65.85 7.77
2 -6 8 70.13 6.65
2 -6 8 62.28 6.75
2 -6 9 8.85 3.11
2 -6 9 8.83 3.74
-2 6 -9 4.05 4.76
2 -6 10 2.93 2.47
-2 6 -10 -1.74 4.08
2 -6 10 1.28 2.83
-2 6 -10 1.97 3.93
2 -5 -15 29.68 4.47
2 -5 -15 29.2 7.98
2 -5 -14 2.29 3.13
2 -5 -14 1.05 4.25
2 -5 -13 45.69 6.26
2 -5 -13 51.45 7.36
2 -5 -13 34.9 5.97
2 -5 -12 0.23 3.11
2 -5 -12 -0.47 3.99
2 -5 -12 -0.93 3.9
2 -5 -12 -2.71 4.61
2 -5 -11 -0.22 3.15
2 -5 -11 3.14 4.24
2 -5 -11 -1.54 4.13
2 -5 -11 -0.65 4.37
2 -5 -10 1.5 3.39
2 -5 -10 2.6 3.42
2 -5 -10 2.7 4.34
2 -5 -10 2.76 4.44
2 -5 -9 41.23 6.81
2 -5 -9 46.5 6.78
2 -5 -9 44.83 7.63
2 -5 -9 39.38 6.74
2 -5 -9 48.93 8.21
2 -5 -8 8.4 4.25
2 -5 -8 12.97 4.4
2 -5 -8 13.45 4.59
2 -5 -8 16.53 5.43
2 -5 -8 14.97 4.5
2 -5 -8 16.07 4.95
2 -5 -8 14.26 5.82
2 -5 -7 308.7 16.61
2 -5 -7 316.22 16.83
2 -5 -7 362.11 17.38
2 -5 -7 309.35 15.37
2 -5 -7 325.5 17.29
2 -5 -7 309.54 15.58
2 -5 -7 329.48 17.81
2 -5 -6 6.36 4.44
2 -5 -6 9.12 4.77
2 -5 -6 4.32 3.63
2 -5 -6 0.47 3.94
2 -5 -6 6.94 3.73
2 -5 -6 6.5 3.94
2 -5 -6 6.76 5.12
2 -5 -5 194.07 12.02
2 -5 -5 190.11 13.04
2 -5 -5 201.92 12.64
2 -5 -4 93.98 8.57
-2 5 4 93.87 9.54
-2 5 3 257.04 15.47
-2 5 3 266.69 15.48
-2 5 2 29.6 5.92
-2 5 1 106.02 10.38
-2 5 0 14.64 5.08
2 -5 0 11.19 3.31
-2 5 -1 39.39 7.03
-2 5 -2 180.18 13.56
2 -5 3 6.79 4.18
2 -5 3 9.34 3.92
-2 5 -3 9.08 4.62
2 -5 4 28.35 5.33
2 -5 4 33.78 7.43
-2 5 -4 24.74 5.9
2 -5 5 306.28 15.19
-2 5 -5 338.45 18.02
2 -5 5 312.17 17.77
2 -5 6 12.81 4.2
2 -5 6 -1.92 5.76
-2 5 -6 1.83 6.35
-2 5 -6 18.32 5.16
2 -5 6 15.11 6.09
2 -5 6 14.74 5.2
2 -5 7 120.88 11.67
2 -5 7 124.65 10.9
2 -5 7 -3.98 5.78
2 -5 7 131.21 10.34
-2 5 -7 1.38 5.93
-2 5 -7 -1.79 6.16
2 -5 8 60.59 8.75
-2 5 -8 47.69 11.16
2 -5 8 59.7 7.16
2 -5 8 58.96 7.91
2 -5 9 42.46 7.05
2 -5 9 57.41 6.97
-2 5 -9 67.73 12.06
2 -5 9 56.89 7.73
2 -5 10 3.34 4.1
2 -5 10 7.14 3.76
2 -5 10 5.08 4.41
-2 5 -10 2.42 6.51
-2 5 -10 -0.98 5.41
2 -5 11 14.55 3.82
2 -5 11 13.65 4.43
-2 5 -11 0.42 4.93
-2 5 -11 11.43 3.89
-2 5 -11 1.68 7.12
-2 5 -12 -1.61 4.35
2 -5 12 3.87 2.59
2 -5 12 -1.59 3.17
-2 5 -12 -5.17 4.92
-2 5 -12 4.04 3.21
2 -5 13 17.33 3.35
2 -5 13 14.5 3.81
-2 5 -13 17.03 3.71
2 -4 -17 36.25 9.93
2 -4 -16 45.77 11.67
2 -4 -16 41.49 5.69
2 -4 -15 49.24 6.32
2 -4 -15 45.73 9.45
2 -4 -14 24.82 5.16
2 -4 -14 28.62 6.99
2 -4 -14 23.5 6.69
2 -4 -13 21.29 5.39
2 -4 -13 21.88 6
2 -4 -13 27.45 6.43
2 -4 -13 40.49 7.39
2 -4 -12 44.8 7.6
2 -4 -12 44.3 6.9
2 -4 -12 42.27 6.84
2 -4 -12 45.26 7.29
2 -4 -11 11.25 4.21
2 -4 -11 5.98 4.3
2 -4 -11 4.4 4.43
2 -4 -11 3.07 3.93
2 -4 -11 6.82 3.57
2 -4 -11 5.41 4.68
2 -4 -10 0.39 2.82
2 -4 -10 -2.08 3.77
2 -4 -10 -3 4.24
2 -4 -10 0.71 3.18
2 -4 -10 3.25 3.45
2 -4 -10 3.42 4.54
2 -4 -9 20.44 5.24
2 -4 -9 14.33 4.4
2 -4 -8 116.75 9.51
2 -4 -8 119.53 10.23
2 -4 -7 17.17 4.37
2 -4 -7 16.03 4.25
2 -4 -6 755.81 23.74
2 -4 -6 729.81 21.74
2 -4 -5 39.4 5.84
2 -4 -5 34.38 5.05
2 -4 -4 391.94 16.09
2 -4 -3 96.76 7.88
-2 4 3 102.57 9.02
2 -4 -2 116.28 8.32
-2 4 2 105.66 9.36
2 -4 -2 101.48 8.01
-2 4 1 17.8 4.45
2 -4 -1 16 3.78
-2 4 0 131.74 10.55
2 -4 0 127.83 8.75
2 -4 1 30.65 4.47
-2 4 -1 32.07 5.9
-2 4 -2 705.62 23.88
2 -4 2 758.74 20.93
-2 4 -3 234.77 14.02
2 -4 3 248.6 12.33
-2 4 -4 377.15 17.7
2 -4 4 380.22 15.37
-2 4 -5 86.25 9.05
2 -4 5 86.66 7.59
-2 4 -6 456.75 20.21
-2 4 -6 384.72 18.18
-2 4 -7 4.71 3.7
2 -4 8 367.39 19.02
2 -4 8 369.7 18.43
-2 4 -8 446.53 21.26
2 -4 8 391.81 18.84
2 -4 8 390.83 17.18
-2 4 -8 58.56 12.32
-2 4 -9 5.82 4.53
2 -4 9 -2.62 7
2 -4 9 9.94 3.75
2 -4 9 7.34 4.76
2 -4 9 12.29 4.86
-2 4 -9 1.45 6.66
-2 4 -9 16.89 5.33
2 -4 9 -2.31 5.89
-2 4 -9 -0.22 6.12
2 -4 10 2.65 3.62
2 -4 10 -0.24 4.19
-2 4 -10 -1.29 4.05
2 -4 10 -7.69 7.19
2 -4 10 -2.51 5.99
2 -4 10 1.26 3.69
-2 4 -10 2.05 6.88
2 -4 11 4.16 3.25
2 -4 11 4.04 3.94
2 -4 11 0.91 5.54
2 -4 11 -7.27 7.16
-2 4 -11 4.64 6.05
-2 4 -11 3.89 6.6
-2 4 -11 3.95 4.1
2 -4 11 3.53 4.54
-2 4 -12 8.5 6.07
2 -4 12 12.94 4.41
2 -4 12 17.93 5.42
-2 4 -12 15.83 4.83
2 -4 12 4.56 5.54
2 -4 12 0.64 6.18
-2 4 -12 2.26 5.46
-2 4 -12 7.12 8.37
2 -4 13 60.8 7.56
2 -4 13 57.27 6.42
2 -4 13 -3.58 5
-2 4 -13 -1.2 5.06
-2 4 -13 61.15 7.54
2 -4 13 -0.44 5.86
-2 4 -13 1.3 4.91
-2 4 -13 51.34 11.21
-2 4 -14 23.9 8.21
2 -4 14 110.32 7.88
2 -4 14 100.42 8.33
2 -4 14 0.36 4.33
2 -4 14 -2.83 5.34
-2 4 -14 103.12 8.38
-2 4 -15 6.11 3.26
-2 4 -15 5.36 5.28
2 -4 15 3.38 2.37
2 -4 15 3.78 2.93
2 -4 15 -1.98 3.8
2 -4 15 -0.72 4.47
2 -3 -18 68.95 8.7
2 -3 -17 5.47 10
2 -3 -17 0.31 6.31
2 -3 -16 87.38 14.14
2 -3 -16 80.48 7.89
2 -3 -15 21.78 10.41
2 -3 -15 14.13 4.81
2 -3 -14 108.66 9.5
2 -3 -14 108.66 11.42
2 -3 -13 0.38 2.68
2 -3 -13 5.73 5.16
2 -3 -13 2.69 3.82
2 -3 -13 -0.29 4.07
2 -3 -12 3.29 3.17
2 -3 -12 4.43 3.8
2 -3 -12 7.18 4.44
2 -3 -12 2.83 4.24
2 -3 -12 0.7 3.3
2 -3 -11 48.38 6.68
2 -3 -11 49.19 6.51
2 -3 -10 97.61 8.68
2 -3 -10 101.51 9.23
2 -3 -9 3.53 3
2 -3 -9 5.15 3
2 -3 -8 678.9 22.11
2 -3 -8 658.72 20.47
2 -3 -7 374.87 14.86
2 -3 -7 358.48 15.66
2 -3 -6 900.9 22.04
2 -3 -6 892.8 23.73
2 -3 -5 292.86 12.06
2 -3 -5 302.4 13.47
2 -3 -4 78.13 6.33
2 -3 -4 80.54 6.98
2 -3 -3 19.18 3.41
2 -3 -3 24.61 7.58
2 -3 -3 20.62 3.76
-2 3 3 20.28 8.06
2 -3 -3 20.86 3.78
2 -3 -2 1064.41 22.69
2 -3 -2 1091.68 21.21
-2 3 2 1083.7 25.17
-2 3 2 1033.21 48
2 -3 -2 1098.83 22.61
2 -3 -1 395.88 13.55
-2 3 1 391.89 15.31
2 -3 -1 391.91 13.43
-2 3 1 372.73 29.33
2 -3 0 4.99 2.07
-2 3 0 9 3.46
2 -3 0 3.82 2.32
-2 3 -1 107.05 8.34
2 -3 1 105.01 7.15
2 -3 2 209.14 10.14
-2 3 -2 196.78 11.35
-2 3 -3 805.79 21.77
-2 3 -3 780.07 22.26
2 -3 3 786.86 19.68
-2 3 -4 280.95 13.67
-2 3 -4 257.76 13.28
2 -3 4 264.07 11.9
-2 3 -5 1263.26 30.05
-2 3 -5 1220.18 28.83
2 -3 5 1250.49 26.13
-2 3 -6 380.91 17.45
-2 3 -6 375.15 16.15
2 -3 6 388.7 14.95
-2 3 -7 56.12 7.51
2 -3 7 44.81 5.5
-2 3 -8 57.06 7.9
-2 3 -8 55.47 7.11
2 -3 8 49.32 5.96
-2 3 -9 221.55 13.68
-2 3 -9 229.43 15.34
2 -3 9 222.16 12.22
2 -3 10 3.36 4.14
2 -3 10 2.24 5.94
2 -3 10 4.27 4.11
-2 3 -10 -3.99 6.41
-2 3 -10 2.23 5.87
-2 3 -10 -3.1 6.2
-2 3 -10 4.12 4.59
-2 3 -10 3.81 3.13
-2 3 -10 4.68 3.54
2 -3 10 3.56 2.83
-2 3 -11 0.59 5.97
-2 3 -11 6.07 6.63
-2 3 -11 2.81 6.71
-2 3 -11 0.57 3.06
2 -3 11 0.61 4.38
2 -3 11 -0.92 5.59
-2 3 -11 1.42 4.01
2 -3 11 -2.46 6.78
-2 3 -11 0.62 4.27
-2 3 -12 1.75 7.53
-2 3 -12 13.9 5.76
2 -3 12 -2.66 5.87
2 -3 12 -2.28 7.2
2 -3 12 12.2 5.28
2 -3 13 49.74 7.65
2 -3 13 60.25 7.24
2 -3 13 -3.64 6.75
2 -3 13 1.84 5.7
-2 3 -13 60.62 8.11
-2 3 -13 7.79 7.01
2 -3 14 -5.76 6.86
2 -3 14 0.86 2.8
2 -3 14 1.37 4.24
-2 3 -14 1.82 4.08
-2 3 -14 3.95 5.99
2 -3 14 -2.43 5.4
-2 3 -14 3.07 7.57
2 -3 15 39.2 5.25
-2 3 -15 51.94 10.13
2 -3 15 36.17 5.68
2 -3 15 -3.88 5.12
2 -3 15 5.81 5.9
-2 3 -15 28.21 5.51
-2 3 -16 8.98 3.64
2 -3 16 9.71 3.03
-2 3 -16 4.98 3.22
2 -3 16 3.07 4.97
-2 3 -16 8.88 6.34
2 -3 16 -2.09 4.16
2 -2 -18 -0.32 2.35
2 -2 -18 1.53 6.84
2 -2 -17 126.66 12.78
2 -2 -17 143.96 9.63
2 -2 -16 5.3 6.33
2 -2 -16 6.83 3.49
2 -2 -16 5.96 12.02
2 -2 -15 33.57 5.98
2 -2 -15 44.45 13.06
2 -2 -15 39.14 6.16
2 -2 -14 4.65 2.99
2 -2 -14 11.81 10.49
2 -2 -14 4.82 3.63
2 -2 -14 4.58 3.58
2 -2 -14 4.74 4.03
2 -2 -13 20.95 5.01
2 -2 -13 26.19 5.6
2 -2 -13 21.51 7.02
2 -2 -13 20.96 8.13
2 -2 -13 27.6 5.43
2 -2 -13 22.6 4.63
2 -2 -12 281.37 15.49
2 -2 -12 259.04 13.97
2 -2 -11 6.88 3.41
2 -2 -11 3.87 2.94
2 -2 -10 22.19 4.57
2 -2 -10 22.49 4.47
2 -2 -9 474.91 17.29
2 -2 -9 444.97 16.22
2 -2 -9 467.03 17.31
2 -2 -8 239.92 11.7
2 -2 -8 214.48 11.45
2 -2 -8 223.63 11.07
2 -2 -7 1943.66 30.75
2 -2 -7 1847.48 32.36
2 -2 -6 4.44 2.3
2 -2 -6 5.44 4.2
2 -2 -6 5.09 2.73
2 -2 -5 2257.45 33.09
2 -2 -5 2273.95 30.44
2 -2 -4 29.91 7.45
2 -2 -4 29.66 3.92
2 -2 -4 29.78 3.71
2 -2 -3 840 34.22
2 -2 -3 831.17 33.56
2 -2 -3 784.7 18.07
2 -2 -3 784.17 16.91
-2 2 3 753.31 35.95
2 -2 -3 784.63 16.23
2 -2 -2 139.25 14.17
2 -2 -2 141.44 7.59
-2 2 2 155.69 14.63
2 -2 -2 138.29 7.13
-2 2 2 170.03 16.43
-2 2 2 155.3 16.63
2 -2 -1 101.77 12.43
-2 2 1 118.05 15.07
2 -2 -1 109.84 6.5
2 -2 -1 106.45 6.2
-2 2 1 96.36 11.86
-2 2 0 23.51 7.59
2 -2 0 30.85 3.54
2 -2 0 33.52 7.53
-2 2 0 24.15 6.82
2 -2 1 34.31 7.73
-2 2 -1 46.07 9.44
-2 2 -1 44.02 10.14
2 -2 1 41.72 4.14
-2 2 -2 563.87 30.96
-2 2 -2 656.54 16.66
2 -2 2 685.82 33.2
-2 2 -2 559.13 32.35
2 -2 2 658.48 15.78
-2 2 -3 823.13 19.72
-2 2 -3 795.34 19.66
2 -2 3 876.84 38.64
-2 2 -3 754.48 37.15
-2 2 -3 743.67 37.94
2 -2 3 820.81 18.19
-2 2 -4 17.11 3.47
-2 2 -4 16.32 3.34
-2 2 -4 11.09 5.94
-2 2 -4 13.69 3.24
2 -2 4 19.37 7.05
-2 2 -4 11.33 6.72
2 -2 4 15.03 3.03
-2 2 -5 80.07 6.84
-2 2 -5 79.24 7.15
-2 2 -5 75.12 6.54
2 -2 5 99.68 14.18
-2 2 -5 68.82 13.17
-2 2 -5 66.41 12.43
-2 2 -6 272.68 12.71
-2 2 -6 246.33 12.86
-2 2 -7 912.86 25.69
-2 2 -7 922.22 24.38
-2 2 -8 96.91 8.55
-2 2 -8 99.5 9.17
-2 2 -9 133.06 10.66
-2 2 -9 120.95 10.57
-2 2 -10 24.24 5.55
-2 2 -10 25.34 5.66
-2 2 -11 36.51 6.42
-2 2 -11 38.76 6.77
-2 2 -12 29.85 6.66
-2 2 -12 25.75 5.66
2 -2 12 22.88 5.76
-2 2 -12 28.05 6.01
-2 2 -12 33.41 6.91
-2 2 -12 28.55 6.12
-2 2 -12 48.22 11.03
2 -2 13 38.4 6.83
-2 2 -13 40.65 6.98
-2 2 -13 32.17 6.78
-2 2 -13 44.53 7.47
-2 2 -13 48.27 7.71
-2 2 -14 35.56 7.03
-2 2 -14 29.09 10.03
2 -2 14 0.87 5.7
-2 2 -14 -1.53 6.27
-2 2 -14 33.01 6.83
-2 2 -15 123.49 10.76
-2 2 -15 131.91 11.27
2 -2 15 -1.7 5.38
-2 2 -15 3.75 6.08
-2 2 -15 30.56 10.14
-2 2 -16 83.15 8.82
-2 2 -16 88.78 8.58
-2 2 -16 101.92 12.92
-2 2 -17 -0.79 3.17
2 -2 17 0.25 4.05
2 -2 17 -5.26 5.47
2 -2 17 1.92 2.54
-2 2 -17 1.83 2.88
-2 2 -17 0.01 5.26
-2 2 -18 51.8 5.57
-2 2 -18 54.22 5.27
2 -1 -19 25.62 4.02
2 -1 -19 33.2 8.89
2 -1 -18 30.28 8.68
2 -1 -18 29.26 4.83
2 -1 -17 74.74 7.77
2 -1 -17 79.01 10.66
2 -1 -16 9.71 9.56
2 -1 -16 15.65 4.78
2 -1 -15 -1.55 10.89
2 -1 -15 0.86 3.37
2 -1 -14 62.16 8.21
2 -1 -14 71.34 8.18
2 -1 -14 60.21 7.19
2 -1 -14 86.74 14.94
2 -1 -13 85.47 8.12
2 -1 -13 98.26 14.26
2 -1 -13 96.01 9.22
2 -1 -13 91.07 8.54
2 -1 -13 93.41 9.8
2 -1 -12 2.12 2.84
2 -1 -12 4.76 2.82
2 -1 -12 1.33 2.12
2 -1 -11 74.86 7.34
2 -1 -11 81.2 8.47
2 -1 -11 76.74 7.18
2 -1 -10 45.87 6.12
2 -1 -10 46.78 5.6
2 -1 -10 45.22 5.58
2 -1 -9 23.24 4.11
2 -1 -9 20.82 3.92
2 -1 -9 19.52 4.05
2 -1 -8 824.74 21.44
2 -1 -8 850.03 19.81
2 -1 -8 864.06 20.15
2 -1 -7 297.6 11.26
2 -1 -7 331.12 25.15
2 -1 -7 296.52 11.69
2 -1 -7 284.66 11.92
2 -1 -7 305.4 11.37
2 -1 -7 317.02 25.45
-2 1 7 249.29 20.18
2 -1 -6 1931.2 28.64
-2 1 6 1983.75 54.04
2 -1 -6 2194.37 60.64
2 -1 -6 1940.46 28.61
2 -1 -6 2108.47 61.26
2 -1 -6 2029.22 27.42
2 -1 -6 2029 27.46
2 -1 -5 232.78 8.83
-2 1 5 195.88 16.14
2 -1 -5 227.95 18.97
-2 1 5 195.82 16.34
2 -1 -5 228.19 9.54
2 -1 -5 229.61 8.88
2 -1 -5 229.18 19.3
-2 1 4 1578.29 43.62
2 -1 -4 1639.77 46.8
-2 1 4 1612.84 44.61
2 -1 -4 1590.87 47.08
-2 1 3 346.66 19.97
2 -1 -3 302.19 19.48
2 -1 -3 312.58 19.36
-2 1 3 342.87 20.73
2 -1 -2 136.72 11.96
2 -1 -2 127.05 11.05
-2 1 2 143.66 12.78
2 -1 -2 135.82 12.62
-2 1 2 146.54 13.7
2 -1 -1 47.01 6.83
2 -1 -1 42.72 6.84
-2 1 1 34.11 5.58
-2 1 1 23.99 6.14
-2 1 1 34.68 7.29
2 -1 0 464.14 22.13
2 -1 0 516.28 20.02
-2 1 0 479.85 19.29
-2 1 0 462.13 23.82
-2 1 -1 137.86 13.4
2 -1 1 132.22 12.38
-2 1 -1 139.56 11.1
-2 1 -1 158.47 14.5
-2 1 -2 106.64 10.5
-2 1 -2 95.46 12.06
-2 1 -2 100.73 11.9
2 -1 2 130.4 12.74
-2 1 -3 382.07 20.92
2 -1 3 411.41 22.81
-2 1 -3 353.01 23.19
-2 1 -3 325.92 21.04
2 -1 4 2237.08 55.3
-2 1 -4 1981.3 57.2
-2 1 -4 2166.39 52.67
-2 1 -4 1989.22 52.68
2 -1 5 2.19 3.18
2 -1 5 3.27 3.38
-2 1 -5 1.14 2.26
-2 1 -5 3.89 5.33
-2 1 -5 3.46 2.22
-2 1 -6 2127 65.41
-2 1 -6 2133.83 33.05
-2 1 -6 2153.11 33.69
2 -1 6 2218.48 59.64
2 -1 6 2169.48 56.77
-2 1 -7 10.08 3.4
2 -1 7 11.58 5.69
2 -1 7 13.6 5.85
-2 1 -7 9.87 3.31
-2 1 -8 510.49 18.07
-2 1 -8 474.03 17.9
-2 1 -9 130.49 9.93
-2 1 -9 116.3 9.49
-2 1 -10 271.08 14.81
-2 1 -10 274.23 14.94
-2 1 -11 14.66 4.42
-2 1 -11 23.09 5.27
-2 1 -12 160.72 12.46
-2 1 -12 175.45 13.11
-2 1 -13 23.65 10.04
-2 1 -13 18.19 5.6
-2 1 -13 17.26 5.36
-2 1 -13 28.19 6.04
-2 1 -13 20.44 5.63
-2 1 -14 169.96 13.78
-2 1 -14 181.53 13.45
-2 1 -14 148.18 11.76
-2 1 -14 141.27 11.74
-2 1 -15 59.23 8.51
-2 1 -15 46.08 11.81
-2 1 -15 63.91 8.17
-2 1 -15 59.19 7.77
-2 1 -16 18.66 6.01
-2 1 -16 6.95 7.88
-2 1 -17 9.83 4.66
-2 1 -17 9 6.78
-2 1 -18 33.9 4.8
-2 1 -18 31.22 5.64
-2 1 -18 37.55 5.24
2 0 -19 2.6 2.49
2 0 -19 2.21 2.57
2 0 -19 1.77 8.25
2 0 -18 49.31 10.05
2 0 -18 54.89 6.33
2 0 -18 55.54 6.43
2 0 -17 71.43 7.91
2 0 -17 79.85 10.78
2 0 -17 72.47 7.94
2 0 -16 101.91 9.95
2 0 -16 115.53 12.2
2 0 -16 103.02 9.71
2 0 -15 13.64 4.76
2 0 -15 4.98 7.51
2 0 -15 8.07 4.43
2 0 -14 9.81 4.76
2 0 -14 13.45 4.8
2 0 -14 14.98 9.34
2 0 -14 12.76 4.31
2 0 -14 12.3 4.39
2 0 -13 35.06 5.55
2 0 -13 41.58 6.21
2 0 -13 34.99 6.34
2 0 -12 2.92 3.43
2 0 -12 4.92 2.57
2 0 -12 3.46 3.08
2 0 -11 2.41 2.79
2 0 -11 3.19 2.68
2 0 -11 0.21 2.3
2 0 -10 32.58 5.28
2 0 -10 30.31 4.72
2 0 -10 33.64 4.9
2 0 -9 145.78 9.86
2 0 -9 155.84 9.09
2 0 -9 150.22 8.83
2 0 -8 803.78 18.92
2 0 -8 804.9 21.23
2 0 -8 833.09 19.51
2 0 -7 1003 19.92
2 0 -7 950.21 21.64
-2 0 7 1004.26 42.79
2 0 -7 1069.81 42.86
2 0 -7 998.6 20.06
2 0 -7 974.62 42.85
2 0 -6 259.31 9.54
2 0 -6 261.33 19.95
-2 0 6 217.15 18.71
2 0 -6 269.49 9.76
2 0 -6 259.5 10.56
2 0 -6 257.15 20.83
-2 0 5 2079.46 53.06
2 0 -5 2202.33 53.9
2 0 -5 2114.19 55.37
2 0 -4 767.82 29.91
-2 0 4 740.23 29.13
2 0 -4 733.93 30.79
2 0 -3 18.64 5.51
-2 0 3 17 4.99
2 0 -3 19.03 5.17
-2 0 3 15.75 4.77
2 0 -2 909.83 31.01
-2 0 2 928.86 28.97
2 0 -2 941.87 29.26
-2 0 2 925.29 30.24
2 0 -2 941.27 23.44
2 0 -1 76.98 7.28
-2 0 1 65.53 7.94
2 0 -1 82.47 8.47
-2 0 1 66.85 8.35
2 0 0 149.58 10.71
-2 0 0 163.35 11.93
2 0 0 165.54 10.91
-2 0 0 157.01 12.55
-2 0 -1 1490.5 36.19
-2 0 -1 1498.64 38.42
2 0 1 1633.31 36.46
2 0 1 1722.45 32.34
2 0 2 21.52 3.68
-2 0 -2 19.08 5.07
2 0 2 16.21 4.6
-2 0 -2 18.45 5.33
-2 0 -2 18.95 5.37
2 0 3 2979.34 54.9
-2 0 -3 2888.85 55.97
-2 0 -3 2819.77 57.82
-2 0 -3 2935.8 51.2
-2 0 -4 410.17 23.01
2 0 4 421.67 21.9
2 0 4 434.04 19.5
-2 0 -4 404.53 23.38
-2 0 -4 439.85 20.39
2 0 5 1722.21 46.13
-2 0 -5 1635.05 49.57
2 0 5 1743.95 43.1
-2 0 -5 1617.6 48.3
-2 0 -6 33.88 4.25
-2 0 -6 36.32 8.7
-2 0 -6 33.97 4.2
2 0 6 28.65 7.02
-2 0 -6 37.58 8.98
2 0 6 36.82 7.16
-2 0 -7 1867.95 30.52
2 0 7 1850.19 53.25
-2 0 -7 1879.15 29.95
2 0 7 1871.61 25.07
-2 0 -7 1756.67 57.15
2 0 7 1781.36 52
-2 0 -7 1788.41 26.5
-2 0 -8 836.9 21.94
2 0 8 937.59 39.86
-2 0 -8 837 21.42
-2 0 -8 833.06 41.7
2 0 8 880.98 39.57
-2 0 -9 78.23 7.26
-2 0 -9 81.04 7.33
-2 0 -10 25.86 4.82
-2 0 -10 23.65 4.77
-2 0 -11 8.38 3.81
-2 0 -12 3.63 3.34
-2 0 -13 315.68 16.89
-2 0 -14 6.03 7.27
-2 0 -14 12.35 5.71
-2 0 -14 19.79 5.09
-2 0 -14 8.62 4.99
-2 0 -15 336.04 19.13
-2 0 -15 298.98 16.48
-2 0 -16 16.4 6.35
-2 0 -16 17.14 5.13
2 0 16 25.54 21.44
-2 0 -16 22.86 10.52
-2 0 -17 125.31 11.13
-2 0 -17 74.17 13.31
-2 0 -18 7.5 4.56
-2 0 -18 8.71 3.63
-2 0 -19 58.14 6.62
-2 0 -19 56.71 5.61
2 1 -19 24.52 6.47
2 1 -19 37.79 4.63
2 1 -19 30.64 4.42
2 1 -18 8.85 3.82
2 1 -18 12.83 8.76
2 1 -18 12.95 3.94
2 1 -18 8.79 3.73
2 1 -17 160.43 11.57
2 1 -17 157.79 13.75
2 1 -17 162.31 11.21
2 1 -17 171.93 11.39
2 1 -16 13.55 5
2 1 -16 9.53 7.71
2 1 -16 12.6 4.65
2 1 -16 14.72 4.74
2 1 -15 85.12 10.61
2 1 -15 69.29 8.24
2 1 -15 86.55 9.69
2 1 -15 91.83 9.44
2 1 -14 122.04 11.47
2 1 -14 113.75 10.51
-2 -1 14 96.23 11.61
2 1 -14 113.22 10.14
2 1 -14 119.95 10.78
2 1 -14 123.47 11.3
2 1 -14 111.33 10.29
2 1 -13 46.86 6.97
2 1 -13 46.77 6.54
-2 -1 13 32.28 7.79
2 1 -12 14.03 4.48
2 1 -12 14.4 4.25
-2 -1 12 13.66 5.64
2 1 -12 14.07 3.66
2 1 -11 460.77 18.88
2 1 -11 434.04 16.51
2 1 -11 462.35 18.03
2 1 -10 45.24 5.39
2 1 -10 44.36 5.63
2 1 -10 46.98 6.18
2 1 -9 182.35 9.79
2 1 -9 192.17 10.54
2 1 -9 204.56 11.41
-2 -1 8 142.94 17.74
2 1 -8 151.12 16.58
2 1 -8 155.01 8.87
2 1 -8 148.9 9.3
2 1 -8 149.71 8.51
2 1 -8 144.38 17.5
2 1 -7 1878.98 27.59
2 1 -7 1874.12 30.26
2 1 -7 1773.04 53.2
2 1 -7 1883.32 28.18
-2 -1 7 1833.64 57.16
2 1 -7 1901.97 58.36
2 1 -6 13.46 2.8
2 1 -6 12.94 3.03
2 1 -6 13.72 2.56
2 1 -6 11.39 4.93
2 1 -6 11.06 5
-2 -1 6 7.45 5.65
-2 -1 6 13.84 5.9
2 1 -5 1346.43 42.69
-2 -1 5 1268.18 43.94
2 1 -5 1353.24 41.61
-2 -1 5 1355.49 41.52
2 1 -4 162.69 14.27
-2 -1 4 191.69 14.38
2 1 -4 164.22 13.99
-2 -1 4 189.96 16.13
-2 -1 3 544.68 21.62
2 1 -3 467.3 22.22
2 1 -3 482.46 22.83
-2 -1 3 480.26 23.42
2 1 -2 847.98 28.23
-2 -1 2 849.1 29.51
2 1 -2 849.11 28.54
-2 -1 2 917.24 24.91
-2 -1 1 631.46 24.62
-2 -1 1 672.12 18.89
2 1 -1 669.51 17.22
-2 -1 1 625.16 23.39
2 1 -1 626.31 18.26
-2 -1 0 2186.47 44.84
-2 -1 0 2214.56 26.48
2 1 0 2100.78 36.11
2 1 0 2155.69 35.16
-2 -1 0 2157.3 42
-2 -1 -1 28.43 5.55
-2 -1 -1 40.81 4.23
2 1 1 33.78 5.56
-2 -1 -1 26.15 5.88
2 1 1 27.29 4.95
2 1 2 628.02 16.66
-2 -1 -2 678.87 24.4
-2 -1 -2 645.94 18.52
2 1 2 706.53 24.15
-2 -1 -2 727.12 26.89
2 1 2 597.65 22.29
-2 -1 -3 7486.6 70.22
-2 -1 -3 7256.77 88.48
-2 -1 -3 7241.3 82.85
2 1 3 6807.45 79.18
2 1 3 7141.1 81.9
2 1 3 7020.8 65.55
2 1 4 2375.32 43.43
-2 -1 -4 2391.99 43.93
2 1 4 2379.35 49.67
-2 -1 -4 2345.61 53.93
2 1 4 2398.21 41.27
2 1 4 2364.98 50.5
-2 -1 -4 2322.91 49.92
-2 -1 -5 5910.89 76.41
2 1 5 6045.49 84.03
-2 -1 -5 6260.76 87.2
-2 -1 -5 6089.15 92.86
2 1 5 6141.35 73.21
2 1 5 6010.91 85.51
-2 -1 -6 850.57 37.35
-2 -1 -6 789.65 30.54
-2 -1 -6 803.59 33.17
2 1 6 814.74 33.8
2 1 6 830.65 31.84
2 1 6 827.68 32.84
2 1 7 314.33 21.62
-2 -1 -7 317.9 11.89
2 1 7 322.38 22.67
2 1 7 293.8 9.61
-2 -1 -7 307.67 24.18
-2 -1 -7 338.84 21.76
2 1 7 336.95 22.25
-2 -1 -7 314.38 22.12
-2 -1 -8 53.5 9.67
-2 -1 -8 51.19 5.42
2 1 8 44.5 8.98
2 1 8 52.54 10.62
2 1 8 52.17 9.89
-2 -1 -8 46.8 4.99
-2 -1 -9 271.68 12.45
-2 -1 -9 278.88 12.43
-2 -1 -10 16.64 3.93
-2 -1 -10 1.85 2.42
-2 -1 -11 23.45 4.63
-2 -1 -11 23.62 4.72
-2 -1 -12 699.71 22.69
-2 -1 -13 61.08 7.37
-2 -1 -14 337.64 18.92
-2 -1 -14 324.02 17.07
-2 -1 -14 307.7 16.23
-2 -1 -15 0.65 2.87
-2 -1 -15 -3.1 6.29
2 1 15 16.13 21.59
-2 -1 -15 0.82 3.68
2 1 15 4.06 5.79
-2 -1 -15 0.6 4.33
-2 -1 -16 201.44 13.15
-2 -1 -16 252.02 16.39
-2 -1 -17 39.63 7.73
-2 -1 -17 40.51 5.88
-2 -1 -17 39.36 6.26
-2 -1 -18 97.93 9.7
2 1 18 14.57 19.08
-2 -1 -19 15.14 4.54
2 2 -18 1.14 2.88
2 2 -18 1.06 4.79
2 2 -18 1.2 2.37
2 2 -18 2.08 2.82
2 2 -17 2.16 3.58
-2 -2 17 -9.87 24.99
2 2 -17 2.14 3.03
2 2 -17 7.28 7.22
2 2 -17 0.68 3.16
2 2 -16 197.94 13.28
2 2 -16 191.25 14.29
2 2 -16 189.42 12.12
2 2 -16 197.99 12.8
2 2 -15 49.52 8.75
2 2 -15 56.42 7.37
2 2 -15 62.62 8.63
2 2 -15 62.94 8.23
2 2 -14 10.44 5.08
2 2 -14 7.59 5.32
2 2 -14 5.74 3.75
2 2 -14 8.2 4.92
2 2 -14 5.29 3.26
-2 -2 13 8.49 7.34
2 2 -13 12.54 5.29
2 2 -13 10.9 5.2
2 2 -13 12.5 4.41
2 2 -13 11.47 4.99
2 2 -13 6.18 3.58
2 2 -12 82 7.84
-2 -2 12 90.54 11.23
2 2 -12 77.53 8.36
-2 -2 11 4.4 4.83
2 2 -11 3.27 2.76
2 2 -11 3.26 3.24
2 2 -10 536.92 19.14
2 2 -10 544.18 18.16
-2 -2 10 537.42 22.42
2 2 -10 531.63 19.26
2 2 -9 28.41 4.58
2 2 -9 38.92 6.46
2 2 -9 27.62 4.48
2 2 -9 31.52 4.94
-2 -2 9 29.9 5.97
2 2 -8 1020.25 22.85
2 2 -8 1035.5 23.72
2 2 -8 1079.43 24.44
-2 -2 8 1111.84 28.02
2 2 -7 874.24 20.08
2 2 -7 863.54 20.23
2 2 -7 896.7 21.12
-2 -2 7 968.12 25.33
-2 -2 7 869.33 42.06
2 2 -6 1724.72 26.84
2 2 -6 1806.65 26.24
2 2 -6 1772.42 26.98
2 2 -6 1816.08 28.24
2 2 -6 1706.98 49.82
-2 -2 6 1653.52 56.7
-2 -2 6 1707.61 55.49
2 2 -5 34.5 3.97
-2 -2 5 36.24 8.74
2 2 -5 45.3 5.59
-2 -2 5 40.62 5.51
2 2 -5 33.53 3.68
2 2 -5 32.37 3.65
-2 -2 5 28.77 7.77
2 2 -5 27.1 6.66
-2 -2 4 2229.78 56.92
2 2 -4 2068.54 50.74
-2 -2 4 2153.13 53.91
2 2 -4 2213.36 52.43
2 2 -3 7.29 3.54
-2 -2 3 15.04 5.44
-2 -2 3 4.62 4.2
2 2 -3 6.14 4.2
-2 -2 2 503.08 24.53
-2 -2 2 496.11 18.77
-2 -2 2 536.5 23.7
2 2 -2 525.12 23.9
-2 -2 1 6.45 4.4
-2 -2 1 9.72 3.07
-2 -2 1 4.48 3.4
2 2 -1 7.29 3.96
-2 -2 0 137.38 9.52
-2 -2 0 130.08 11.89
-2 -2 0 126.9 10.2
2 2 0 132.47 9.74
2 2 0 122.45 11.07
-2 -2 -1 229.92 13.06
-2 -2 -1 248.35 13.11
-2 -2 -1 227.57 15.27
2 2 1 205.18 13.25
2 2 2 4356.14 63.59
2 2 2 4544.46 56.74
-2 -2 -2 4426.79 57.25
-2 -2 -2 4296.04 67.39
-2 -2 -3 452.96 19.37
2 2 3 413.32 18.67
2 2 3 410.54 20.83
-2 -2 -3 386.59 20.94
-2 -2 -4 3019.28 53.34
-2 -2 -4 2730.52 59.14
2 2 4 2945.79 59.39
2 2 4 2798.4 52.21
2 2 5 47.55 7.82
-2 -2 -5 43.07 7.21
-2 -2 -5 40.83 8.4
2 2 5 39.33 8.21
-2 -2 -6 1520.57 43.58
2 2 6 1435.45 21.61
2 2 6 1414.36 46.08
-2 -2 -6 1410.96 47.86
2 2 6 1364.56 42.4
2 2 6 1412.18 43.55
2 2 7 62.85 4.86
-2 -2 -7 60.97 9.64
-2 -2 -7 55.47 6.8
-2 -2 -7 64.06 11.54
2 2 7 57.43 9.83
2 2 7 72.28 11.51
2 2 7 57.04 9.83
-2 -2 -8 1015.17 41.21
2 2 8 869.02 38.8
2 2 8 911.62 41.2
2 2 8 943.8 41.47
-2 -2 -8 950.24 22.2
-2 -2 -9 20.63 5.2
-2 -2 -9 26.25 4.48
-2 -2 -10 75.31 7.46
-2 -2 -11 2.66 3.11
-2 -2 -12 4.33 3.49
-2 -2 -13 146.35 11.39
-2 -2 -14 117.72 11.87
-2 -2 -14 103.52 9.43
-2 -2 -14 93.31 9.25
-2 -2 -14 102.03 9.83
-2 -2 -15 56.41 9.16
-2 -2 -15 55.98 7.52
-2 -2 -15 56.32 7.6
-2 -2 -16 79.36 10.14
-2 -2 -16 82.33 8.59
-2 -2 -17 29.64 6.9
-2 -2 -17 33.47 5.88
-2 -2 -18 25.21 5.67
-2 -2 -18 29.24 5.17
-2 -2 -19 18.67 4.66
-2 -2 -19 21.32 4.06
2 3 -17 25.63 4.58
2 3 -17 27.01 5.32
2 3 -17 28.07 4.74
2 3 -16 32.93 5.86
2 3 -16 27.6 5.78
2 3 -16 32.24 5.82
-2 -3 16 20.56 4.45
2 3 -16 31.56 6.54
2 3 -15 9.13 4.79
2 3 -15 12.43 4.92
2 3 -15 12.03 5.55
-2 -3 15 12 4.82
2 3 -15 6.69 4.51
2 3 -14 6.45 4.03
2 3 -14 0.28 4.57
2 3 -14 1.8 4.28
-2 -3 14 2.56 3.9
2 3 -14 6.18 4.13
2 3 -13 59.8 8.7
2 3 -13 62.83 8.2
2 3 -13 58.39 8.51
-2 -3 13 55.46 7.84
2 3 -13 61.13 7.66
-2 -3 13 29.99 32.06
2 3 -13 50.55 7.5
2 3 -12 98.31 10
2 3 -12 74.82 9.86
2 3 -12 96.99 10.17
-2 -3 12 78.71 8.76
2 3 -12 93.52 9.3
2 3 -12 97.04 9.94
2 3 -11 254.14 13.51
2 3 -11 239.65 14.14
2 3 -10 86.15 7.99
2 3 -10 86.09 8.5
2 3 -9 43.42 5.74
2 3 -9 58.85 8.74
2 3 -9 42.75 5.99
2 3 -8 25.62 4.44
2 3 -8 27.36 4.76
-2 -3 8 13.89 6.99
2 3 -7 1163.48 24.99
2 3 -7 1145.65 25.14
2 3 -6 496.38 16.02
2 3 -6 519.31 15.89
2 3 -6 468.39 30
2 3 -5 409.1 13.98
-2 -3 5 365.16 26.46
-2 -3 5 395.87 28.2
2 3 -5 386.75 26.65
-2 -3 4 160.51 10.21
2 3 -4 143.59 8.2
2 3 -4 189.51 11.45
-2 -3 4 133.9 15.21
-2 -3 4 139.33 16.19
2 3 -4 137.37 15.74
2 3 -3 312.99 13.57
-2 -3 3 299.19 12.85
2 3 -3 243.29 10.29
-2 -3 3 220.09 16.71
-2 -3 3 251.63 19.43
-2 -3 3 230.09 19.54
2 3 -3 237.8 19.73
2 3 -2 3.77 4.33
-2 -3 2 5.98 4.17
2 3 -2 4.63 2.21
-2 -3 2 7.25 3.66
-2 -3 2 5.39 4.68
-2 -3 2 5.82 3.6
-2 -3 1 14.16 5.52
2 3 -1 6.14 4.47
-2 -3 1 7.76 3.93
2 3 0 37.76 7.01
-2 -3 0 33.02 6.91
-2 -3 0 24.61 5.6
2 3 0 36.5 7.69
-2 -3 -1 317.41 18.59
-2 -3 -1 334.83 19.68
2 3 1 317.82 19.43
2 3 1 329.87 20.23
-2 -3 -2 28.77 5.96
-2 -3 -2 34.47 7.16
2 3 2 29.38 7.01
2 3 2 31.35 6.51
-2 -3 -3 276.69 18.1
-2 -3 -3 243.92 17.56
2 3 3 266.17 9.85
2 3 3 271.95 18.44
2 3 3 224.67 17.79
2 3 3 243.61 16.1
2 3 4 31.7 6.78
2 3 4 33.22 3.76
-2 -3 -4 29.19 5
-2 -3 -4 24.26 6.67
-2 -3 -4 35.81 7.23
2 3 4 35.21 8.07
-2 -3 -5 1256.32 28.7
-2 -3 -5 1224.94 40.58
2 3 5 1307.65 43.87
2 3 5 1283.14 22.29
-2 -3 -5 1113.96 40.91
2 3 5 1160.51 43.47
-2 -3 -6 113.65 13.24
2 3 6 123.58 14.7
-2 -3 -6 131.71 10.38
2 3 6 118.23 7.12
2 3 6 116.94 14.99
-2 -3 -7 200.19 13.01
2 3 7 209.92 9.59
2 3 7 202.84 19.76
-2 -3 -8 16.66 3.82
2 3 8 11.17 2.81
-2 -3 -8 6.05 4.83
2 3 8 -0.09 4.96
-2 -3 -9 152.82 10.09
-2 -3 -9 106.96 11.35
-2 -3 -10 6.6 3.41
2 3 10 -3.07 5.79
-2 -3 -10 5.53 3.08
-2 -3 -10 4.65 5.19
-2 -3 -11 99.1 8.85
-2 -3 -11 93.74 8.87
-2 -3 -12 38.4 6.25
-2 -3 -13 645.81 23.88
-2 -3 -14 4.82 3.4
-2 -3 -14 1.8 4.45
-2 -3 -14 3.23 4.07
-2 -3 -15 202.08 15.29
-2 -3 -15 197.69 13.27
-2 -3 -16 14.28 5.38
-2 -3 -16 18.61 5.28
-2 -3 -17 210.69 13.76
-2 -3 -17 209.45 12.69
2 3 18 -2.98 18.51
-2 -3 -18 5.29 3.28
-2 -3 -19 43.04 5.22
2 4 -16 41.88 5.99
-2 -4 16 37.51 5.31
2 4 -16 40.32 5.6
2 4 -15 26.38 5.21
2 4 -15 29.25 6.07
2 4 -15 26.89 5.55
-2 -4 15 24.43 5
2 4 -14 3.95 4.22
2 4 -14 1.11 3.71
-2 -4 14 0.6 4.04
2 4 -14 1.38 3.47
2 4 -14 2.23 3.31
2 4 -13 27.12 6.63
2 4 -13 32.81 6.58
-2 -4 13 34.24 6.51
2 4 -13 33.55 6.3
2 4 -13 33.49 6.44
2 4 -12 6.51 5.33
2 4 -12 3.01 4.64
-2 -4 12 7.41 4.97
2 4 -12 1.75 4.14
2 4 -12 4.37 4.12
2 4 -11 54.5 9.16
2 4 -11 42.23 7.97
2 4 -11 42.91 7.35
2 4 -11 39.77 6.3
-2 -4 11 38.23 7.09
2 4 -11 35.2 6.7
2 4 -11 43.27 7.03
2 4 -10 14.15 3.94
2 4 -10 20.54 6.46
2 4 -10 14.18 4.36
2 4 -9 72.08 7.71
2 4 -9 78.36 8.04
2 4 -9 91.35 11.37
2 4 -8 10.08 3.68
2 4 -8 18.6 6.06
2 4 -7 1782.69 43.93
2 4 -7 1380.02 30.68
2 4 -6 256.66 13.26
2 4 -6 348.78 18.83
2 4 -5 269.94 13.16
-2 -4 5 251.46 14.01
-2 -4 4 791.27 23.23
2 4 -4 758.87 21.33
-2 -4 3 133.37 9.78
2 4 -3 130.79 8.88
-2 -4 3 127.6 15.42
2 4 -2 40.04 5.11
-2 -4 2 39.93 5.82
-2 -4 2 42.98 9.15
2 4 -1 371.86 12.95
-2 -4 1 466.57 16.8
-2 -4 1 412.29 26.18
2 4 -1 416.42 14.54
2 4 -1 421.35 28.92
-2 -4 0 18.25 5.81
2 4 0 20.23 3.59
2 4 0 13.1 6.15
2 4 0 17.78 3.4
-2 -4 0 14.5 4
2 4 1 7.93 2.74
-2 -4 -1 9.63 3.79
2 4 1 11.52 2.98
-2 -4 -1 3.64 3.87
2 4 1 8.71 5.21
2 4 1 5.88 4.86
-2 -4 -2 714.34 33.58
2 4 2 773.53 18.1
2 4 2 668.31 17.86
-2 -4 -2 770.43 22.9
2 4 2 589.95 32.71
2 4 2 590.63 31.23
-2 -4 -3 854.25 24.53
2 4 3 773.12 19.59
-2 -4 -3 865.1 37.36
2 4 4 263.37 22.54
-2 -4 -4 267.5 21.39
2 4 4 249.17 11.37
-2 -4 -4 231.55 13.6
2 4 5 302.09 24.75
-2 -4 -5 323.73 16.42
2 4 5 298.36 12.54
2 4 6 418.44 14.98
-2 -4 -6 385.33 18.98
2 4 7 368.74 14.37
-2 -4 -7 383.73 15.35
-2 -4 -7 356 19.18
-2 -4 -7 387.2 14.81
-2 -4 -8 129.32 9.07
-2 -4 -8 105.64 11.75
-2 -4 -8 129.47 9.59
2 4 8 138.82 9.14
-2 -4 -9 230.88 13.05
-2 -4 -9 256.84 13.25
-2 -4 -10 40.62 6.06
-2 -4 -10 27.3 7.75
-2 -4 -10 40.7 5.84
-2 -4 -11 4.95 3.28
-2 -4 -11 9.32 5.83
-2 -4 -11 9.73 4.12
2 4 11 -5.01 7.05
-2 -4 -12 213.98 13.61
-2 -4 -12 228.58 14.06
-2 -4 -13 10.46 4.17
-2 -4 -13 7.23 3.52
-2 -4 -13 6.32 3.52
-2 -4 -13 8.58 11.69
-2 -4 -14 748.01 25.84
-2 -4 -14 687.09 24.3
-2 -4 -15 69.27 8.49
-2 -4 -16 294.17 15.51
-2 -4 -17 4.62 3.35
-2 -4 -18 38.29 5.43
2 5 -15 8.01 3.09
2 5 -15 9.9 3.92
-2 -5 15 5.55 2.87
2 5 -15 6.61 2.92
2 5 -14 2.95 4.02
-2 -5 14 3.73 3.42
2 5 -14 -2.14 3.18
2 5 -13 6.53 4.45
2 5 -13 2.85 3.89
2 5 -13 5.52 3.81
2 5 -12 29.96 6.37
-2 -5 12 34.3 6.48
2 5 -12 31.89 6.34
2 5 -12 33.44 7.44
2 5 -11 -1.82 5.06
-2 -5 11 1.46 4.4
2 5 -11 1.44 4.25
2 5 -11 -0.15 4.22
2 5 -10 483.51 22.68
-2 -5 10 451.69 20.09
-2 -5 10 490.09 20.52
2 5 -10 485.56 21.3
2 5 -10 483.81 21.23
2 5 -9 19.76 6.71
2 5 -9 8.78 5.63
2 5 -9 10.1 3.89
-2 -5 9 9.6 4.95
-2 -5 9 9.66 5
2 5 -9 14.38 5.17
2 5 -9 10.44 4.73
2 5 -8 184.75 13.44
2 5 -8 183.24 14.02
-2 -5 8 178.55 13.18
2 5 -8 196.41 13.16
-2 -5 8 182.91 12.7
2 5 -8 186.46 13.26
2 5 -7 119.89 12.73
2 5 -7 92.08 9.34
2 5 -6 1419.04 40.4
2 5 -6 1026.49 29.14
2 5 -5 6.28 3.61
2 5 -5 11.77 5.12
2 5 -4 765.03 27.6
2 5 -4 497.37 19.78
2 5 -3 101.8 9.15
2 5 -2 4.07 3.46
2 5 -1 318.62 14.05
2 5 -1 329.48 14.95
-2 -5 1 330.89 16.14
2 5 0 235.85 12.17
2 5 0 244.37 12.54
-2 -5 0 256.23 14.39
-2 -5 -1 397.25 18.39
2 5 1 412.02 16.03
2 5 1 382.82 15.72
2 5 2 357.08 15.11
-2 -5 -2 430.62 19.45
2 5 3 23.77 4.78
-2 -5 -3 18.6 5.42
-2 -5 -4 963.83 30.51
-2 -5 -4 977.59 23.29
2 5 4 904.6 24.62
2 5 5 271.66 13.74
-2 -5 -5 260.59 12.58
-2 -5 -5 257.21 16.79
2 5 6 1055.2 26.84
-2 -5 -6 1032.67 26.04
-2 -5 -6 997.36 33.12
-2 -5 -7 89.1 8.21
2 5 7 86.16 8.23
-2 -5 -7 85.62 10.95
2 5 8 2.75 2.92
-2 -5 -8 7.94 3.82
-2 -5 -8 1.69 5.1
-2 -5 -9 9.42 6.38
-2 -5 -9 11.37 4.34
2 5 9 8.27 3.62
-2 -5 -10 9.65 3.85
-2 -5 -10 0.79 5.71
-2 -5 -11 2.69 11.58
-2 -5 -11 113.87 10.46
2 5 11 2.81 7.72
-2 -5 -11 50.99 10.81
-2 -5 -11 112.65 10.45
-2 -5 -12 -8.77 12.11
2 5 12 0.19 8.14
-2 -5 -12 14.32 7.38
-2 -5 -12 31.38 6.08
-2 -5 -12 24.18 6.11
-2 -5 -13 70.53 8.71
-2 -5 -13 -7.16 12.23
-2 -5 -14 -2.88 11.32
-2 -5 -14 62.93 8.03
-2 -5 -15 100.42 9.58
-2 -5 -16 12.78 4.35
-2 -5 -17 7.19 3.53
-2 -5 -18 31.59 4.49
-2 -6 13 3.51 2.75
2 6 -13 5.27 3.64
2 6 -13 -1.19 2.97
-2 -6 12 28 4.86
2 6 -12 25.69 5.12
2 6 -12 32.47 5.97
2 6 -11 25.52 5.99
-2 -6 11 23.44 5.28
-2 -6 11 24.33 5.36
2 6 -11 22.86 5.38
-2 -6 10 0.01 3.97
-2 -6 10 8.6 4.68
2 6 -10 5.12 4.61
2 6 -10 4.07 4.67
2 6 -9 242.22 14.92
2 6 -9 231.38 15.72
-2 -6 9 226.2 14.46
-2 -6 9 233.1 13.8
2 6 -8 12.73 5.32
-2 -6 8 12.35 5.31
-2 -6 8 14.06 5
2 6 -8 1.71 5.81
2 6 -8 17.26 5.7
-2 -6 7 138.86 11.93
2 6 -7 141.61 11.72
-2 -6 7 126.79 10.45
2 6 -7 123.07 11.05
2 6 -7 134.98 12.48
2 6 -6 62.63 9.13
-2 -6 6 68.87 8.59
2 6 -6 66.67 8.59
-2 -6 6 68.41 7.83
2 6 -6 65.85 8.31
2 6 -5 58.45 8.62
-2 -6 5 61.34 8.39
2 6 -5 67.46 8.44
2 6 -5 56 7.51
-2 -6 5 63.04 7.64
2 6 -4 0.88 3.34
2 6 -3 141.68 11.76
2 6 -2 72.14 8.51
2 6 -1 78.46 8.59
2 6 0 5.96 3.25
2 6 0 5.07 3.29
2 6 1 172.75 11.92
2 6 1 146.96 11.19
2 6 2 33.36 5.91
2 6 3 722.25 24.62
-2 -6 -4 35.81 7.76
2 6 4 38.52 6.56
2 6 5 280.24 15.65
-2 -6 -5 250.47 17.96
-2 -6 -6 21.58 4.41
-2 -6 -6 19.37 6.92
2 6 6 22.18 5.13
-2 -6 -7 179.81 12.09
2 6 7 173.45 12.44
-2 -6 -7 146.25 14.9
-2 -6 -8 1.7 4.85
-2 -6 -8 6.8 3.73
-2 -6 -8 -8.79 8.9
-2 -6 -8 9.38 4.5
-2 -6 -8 5.87 6.2
2 6 8 5.71 3.87
-2 -6 -9 1.76 3.34
2 6 9 5.08 3.5
-2 -6 -9 2.62 2.67
-2 -6 -9 -0.71 7.33
-2 -6 -9 0.39 8.4
-2 -6 -9 0.66 5.95
-2 -6 -9 -0.29 3.68
-2 -6 -10 2.11 3.9
-2 -6 -10 7.02 3.88
-2 -6 -10 1.28 5.35
-2 -6 -10 8.37 12.01
-2 -6 -10 5.98 4.63
-2 -6 -11 47.18 6.96
-2 -6 -11 51.86 7.89
-2 -6 -12 5.27 4.46
-2 -6 -12 8.49 4
-2 -6 -12 -4.25 11.47
-2 -6 -13 82.92 8.89
-2 -6 -13 11.03 11.2
-2 -6 -14 9.39 4.38
-2 -6 -15 85.25 8.16
-2 -6 -16 0.57 2.76
-2 -7 11 60.58 5.88
2 7 -11 64.62 6.15
2 7 -11 57.02 6.27
-2 -7 11 59.7 5.41
2 7 -10 3.04 3.37
-2 -7 10 1.63 3.25
-2 -7 10 2.93 2.77
2 7 -10 0.59 3.37
2 7 -9 70.97 8.08
-2 -7 9 67.73 12
-2 -7 9 75.42 7.99
2 7 -9 67.52 7.27
-2 -7 9 76.06 6.96
-2 -7 8 7.18 6.94
-2 -7 8 7.77 4.63
2 7 -8 9.89 4.4
2 7 -8 8.4 4.67
2 7 -7 50 7.5
-2 -7 7 54.61 7.74
2 7 -7 53.38 7.15
2 7 -6 62.56 8.69
-2 -7 6 73.06 8.98
-2 -7 6 59.12 12.1
2 7 -5 91.99 9.88
-2 -7 5 3.31 14.26
-2 -7 5 84.95 9.57
-2 -7 5 130.14 15.54
2 7 -5 0.67 5.79
-2 -7 4 -7.83 14.82
2 7 -4 5.09 4.5
-2 -7 4 11.16 8.14
-2 -7 4 1.87 4.56
2 7 -4 0.85 5.82
-2 -7 3 2.94 6.19
-2 -7 3 5.03 4.72
2 7 -3 -5.61 6.46
-2 -7 3 -4.36 14.83
-2 -7 2 -1.62 5.8
-2 -7 2 -0.66 3.63
2 7 -2 -2.13 3.56
2 7 -2 4.15 6.2
-2 -7 2 -6.19 14.89
-2 -7 1 8.19 8.33
-2 -7 1 13.41 4.98
2 7 -1 9.52 4.49
2 7 -1 3.7 5.96
-2 -7 1 -7.61 14.93
-2 -7 0 1.19 6.1
-2 -7 0 4.93 14.54
2 7 0 18.24 5.11
2 7 0 12.94 4.39
-2 -7 0 8.38 4.79
-2 -7 -1 1.43 5.89
-2 -7 -1 17.12 5.54
-2 -7 -1 16.48 14.85
2 7 1 10.62 4.4
-2 -7 -2 82.64 9.71
-2 -7 -2 74.96 13.55
2 7 2 81.39 9.03
-2 -7 -2 76.95 9.08
-2 -7 -3 117.42 11.58
2 7 3 129.4 11.39
-2 -7 -4 237.3 15.81
-2 -7 -4 289.02 21.33
2 7 4 267.88 16.21
-2 -7 -5 1.31 5.81
-2 -7 -5 18.33 6.31
2 7 5 -5.07 6.43
-2 -7 -5 -5.17 9.2
2 7 5 19.51 5.48
-2 -7 -6 4.15 8.91
2 7 6 -1.31 5.81
-2 -7 -6 266.34 14.9
-2 -7 -6 219.13 15.28
-2 -7 -6 334.77 23.06
2 7 6 249.72 15.48
-2 -7 -7 1.3 7.2
-2 -7 -7 1.62 3.95
-2 -7 -7 -1.83 8.79
-2 -7 -7 -1.69 4.75
-2 -7 -8 0.16 6.29
-2 -7 -8 -3.4 11.38
-2 -7 -8 -0.23 3.69
-2 -7 -8 0.37 4.46
-2 -7 -8 -2.43 8.55
-2 -7 -8 4.59 4.45
-2 -7 -9 5.86 3.97
-2 -7 -9 -10.65 9.02
-2 -7 -9 7.24 11.47
-2 -7 -9 7.21 4.87
-2 -7 -10 5.2 11.32
-2 -7 -10 3.16 3.87
-2 -7 -10 2.52 4.06
-2 -7 -11 0.64 3.31
-2 -7 -11 1.12 3.7
-2 -7 -11 -0.41 10.45
-2 -7 -12 96 8.24
-2 -7 -12 97.42 9.22
-2 -7 -13 1.18 2.6
-2 -7 -13 0.39 3.19
-2 -7 -14 45.66 4.93
-2 -7 -14 52.69 6.25
-2 -7 -15 4.54 2.83
-2 -8 8 65.03 6.14
-2 -8 8 51.94 5.63
-2 -8 7 0.99 4.89
-2 -8 7 1.99 3.17
-2 -8 7 4.99 3.44
-2 -8 6 39.91 5.96
-2 -8 6 64.99 9.68
-2 -8 5 40.87 6.19
-2 -8 5 36.11 9.47
-2 -8 4 4.57 7.44
-2 -8 4 4.11 3.72
-2 -8 4 -11.88 12.56
2 8 -4 1.81 6.23
-2 -8 4 2.95 4.39
-2 -8 3 51.75 6.85
2 8 -3 5.99 6.98
-2 -8 3 -20.48 13.48
-2 -8 3 37.75 6.84
-2 -8 3 76.86 12.66
-2 -8 2 18.39 8.04
-2 -8 2 30.96 5.88
2 8 -2 -2.85 6.47
-2 -8 2 13.53 13.4
-2 -8 2 24.49 6.31
-2 -8 1 17.45 8.56
2 8 -1 3.42 7.26
-2 -8 1 8.17 13.57
-2 -8 1 25.53 6.42
-2 -8 0 109.34 9.81
-2 -8 0 98.82 14.21
-2 -8 0 117.5 10.64
-2 -8 -1 14.99 8.34
-2 -8 -1 8.06 4.73
2 8 1 -3.22 5.87
-2 -8 -1 10.71 5.11
-2 -8 -2 34.66 6.79
-2 -8 -2 42.63 10.44
-2 -8 -2 36.04 6.66
-2 -8 -3 17.13 8.32
-2 -8 -3 55.94 6.74
-2 -8 -3 51.75 8.17
-2 -8 -3 -2.48 8.35
-2 -8 -4 73.39 12.03
-2 -8 -4 49.78 6.43
-2 -8 -4 50.05 8.07
2 8 4 -1.34 5.52
-2 -8 -4 0.04 8.11
-2 -8 -5 28.95 8.96
-2 -8 -5 23.39 5.02
-2 -8 -5 23.38 6.15
2 8 5 -6.21 5.98
-2 -8 -5 -1.74 8.28
-2 -8 -6 48.76 6.48
-2 -8 -6 33.72 6.74
-2 -8 -6 22.82 7.85
-2 -8 -7 26.4 7.96
-2 -8 -7 19.08 4.9
-2 -8 -7 13.79 5.4
-2 -8 -7 23.1 5.29
-2 -8 -7 2.83 7.82
-2 -8 -8 52.87 6.49
-2 -8 -8 45.46 6.92
-2 -8 -8 54.08 7.22
-2 -8 -9 -1.44 3.34
-2 -8 -9 2.85 3.43
-2 -8 -10 3.4 3.14
-2 -8 -10 1.33 3.05
-2 -8 -11 19.61 3.99
-2 -8 -11 15.91 4.11
-2 -8 -12 7.06 2.85
-2 -8 -12 5.71 3.09
-2 -9 3 3.3 4.28
-2 -9 2 7.32 5.06
-2 -9 2 -4.16 5.59
-2 -9 2 2.74 3.16
-2 -9 1 19.23 6.13
-2 -9 1 22.76 4.65
-2 -9 0 1.04 3.91
2 9 0 -0.96 4.09
-2 -9 0 5.87 6.05
-2 -9 0 0.59 3.02
-2 -9 -1 74.77 6.7
-2 -9 -1 4.77 6.19
2 9 1 0.43 4.14
-2 -9 -1 65.3 6.47
-2 -9 -1 84.45 10.66
-2 -9 -2 4.96 4.7
-2 -9 -2 8.35 3.54
-2 -9 -2 3.34 6.2
2 9 2 1.65 4.35
-2 -9 -2 9.77 3.58
-2 -9 -3 71.38 7.04
-2 -9 -3 51.81 8.66
-2 -9 -4 5.51 3.42
-2 -9 -4 -0.29 6.01
-2 -9 -4 -1.22 4.6
-2 -9 -5 33.08 4.21
-2 -9 -5 25.26 4.96
-2 -9 -5 37.24 6.91
-2 -9 -5 36.01 5.16
-2 -9 -6 4.45 2.49
-2 -9 -6 -0.01 2.87
-2 -9 -6 -1.03 2.74
-2 -9 -7 46.81 4.63
-2 -9 -7 38.38 5.05
-2 -9 -7 48.38 5.39
3 -7 -5 4.63 3.06
3 -7 -4 15.32 3.09
3 -7 -4 11.38 3.49
3 -7 -3 2.15 2.92
3 -7 -3 3.15 2.56
3 -7 -2 -0.54 2.61
3 -7 -2 -0.59 2.16
3 -7 -1 7.43 3.02
3 -7 -1 6.65 2.8
3 -7 0 16.48 3.27
3 -7 1 0.54 2.15
3 -7 2 22.41 3.51
3 -6 -10 16.81 3.87
3 -6 -10 22.85 4.58
3 -6 -10 20.61 4.15
3 -6 -9 48.84 5.78
3 -6 -9 55.41 6.01
3 -6 -9 50.37 6.35
3 -6 -8 60.6 6.4
3 -6 -8 60.9 6.74
3 -6 -8 64.18 7.35
3 -6 -8 60.33 6.55
3 -6 -7 32.89 5.84
3 -6 -7 30.92 5.17
3 -6 -7 33.51 6.02
3 -6 -6 26.21 5.01
3 -6 -6 28.58 5.93
3 -6 -6 26.13 4.79
3 -6 -6 22.43 5.43
3 -6 -5 71.57 8.24
3 -6 -5 75.72 7.54
3 -6 -5 74.79 7.27
3 -6 -5 68.58 8.01
3 -6 -4 50.26 6.22
3 -6 -4 39.6 6.79
3 -6 -4 44.71 6.2
3 -6 -4 39.62 6.51
3 -6 -3 -1.44 4.31
3 -6 -3 2.22 3.28
3 -6 -3 1.23 2.91
3 -6 -3 -3.16 3.9
3 -6 -2 4.21 4.36
3 -6 -2 1.98 3.22
3 -6 -1 3.64 3.75
3 -6 -1 4.69 3.1
3 -6 -1 4.53 6.11
3 -6 0 19.73 5.41
3 -6 0 17.07 4.66
3 -6 0 16.62 4.24
3 -6 0 2.13 5.82
3 -6 1 79.59 8.62
3 -6 1 98.22 8.36
3 -6 2 17.75 5.43
3 -6 2 20.21 4.65
3 -6 3 95.62 8.99
3 -6 3 103.41 8.41
3 -6 4 -0.1 3.24
3 -6 4 -0.15 2.57
-3 6 -4 -0.48 4.78
3 -6 5 59.88 7.32
3 -6 5 53.84 5.91
3 -6 6 7.83 3.69
3 -6 6 8.79 3.21
3 -6 7 24.98 4.6
3 -6 7 30.08 4.14
3 -6 8 4.8 2.93
3 -6 8 3.66 2.16
-3 6 -8 -1.21 3.89
3 -5 -13 6.78 4.79
3 -5 -13 3.03 3.75
3 -5 -13 2.13 5.85
3 -5 -12 2.58 3.29
3 -5 -12 1.44 3.31
3 -5 -12 1.19 3.99
3 -5 -12 -2.19 4.1
3 -5 -11 110.85 9.06
3 -5 -11 106.07 8
3 -5 -11 115.41 8.82
3 -5 -11 105.55 9.22
3 -5 -10 0.61 3.35
3 -5 -10 1.09 3.16
3 -5 -10 -0.25 3.26
3 -5 -10 5.01 4.55
3 -5 -9 84.23 8.68
3 -5 -9 97.48 8.97
3 -5 -9 100.61 9.16
3 -5 -9 82.59 9.39
3 -5 -8 126.13 10.52
3 -5 -8 118 10.19
3 -5 -8 107.24 9.87
3 -5 -8 108.26 9.66
3 -5 -8 110.17 10.58
3 -5 -7 138.15 10.81
3 -5 -7 130.66 10.95
3 -5 -7 138.41 10.53
3 -5 -7 128.31 10.68
3 -5 -7 127.37 11.46
3 -5 -6 9.83 5.11
3 -5 -6 4.09 3.51
3 -5 -6 7.01 4.45
3 -5 -6 6.74 3.99
3 -5 -6 8.56 5.15
3 -5 -5 18.6 5.6
3 -5 -5 15.29 4.65
3 -5 -5 16.31 5.04
3 -5 -5 17.31 5.2
3 -5 -5 19.23 6.1
3 -5 -4 5.26 3.35
3 -5 -4 7.23 5.05
3 -5 -4 3.34 3.66
3 -5 -4 5.54 4.14
3 -5 -4 1.56 4.38
3 -5 -3 0.84 3.63
3 -5 -3 -0.56 2.73
3 -5 -3 7.06 7.01
3 -5 -3 2.29 3.58
-3 5 3 0.74 2.93
3 -5 -3 -0.01 3.37
3 -5 -3 2.73 4.04
3 -5 -2 2.79 3.43
3 -5 -2 2.86 4.44
3 -5 -2 6.33 3.46
-3 5 2 5.69 4.07
3 -5 -2 -1.5 6.77
3 -5 -2 0.76 3.39
3 -5 -1 83.72 8.23
3 -5 -1 83.39 9.37
3 -5 -1 83.23 8.44
-3 5 1 94.13 9.94
3 -5 -1 81.1 9.17
3 -5 -1 83.78 8.69
3 -5 0 176.58 11.82
3 -5 0 173.45 12.82
-3 5 0 184.35 13.64
3 -5 0 174.51 13.04
3 -5 1 111.85 10.26
3 -5 1 123.63 10.08
-3 5 -1 121.46 11.28
3 -5 1 121.16 11.55
3 -5 1 125.59 9.87
3 -5 2 18.47 5.96
3 -5 2 24.42 5.34
3 -5 3 96.45 10.46
3 -5 3 99.45 8.94
3 -5 4 18.77 6.34
3 -5 4 26.6 5.5
3 -5 5 130.73 11.55
3 -5 5 139.48 10.33
3 -5 6 17.84 4.61
3 -5 6 14.29 5.63
3 -5 7 5.15 3.2
3 -5 7 10.73 4.74
-3 5 -7 -2.68 5.84
3 -5 8 4.9 4.27
3 -5 8 2.76 3.22
3 -5 8 2.19 3.32
3 -5 9 4.32 3.42
3 -5 9 3.56 2.83
3 -5 9 0.14 3.32
3 -5 10 4.95 3.19
3 -5 10 4.66 2.81
3 -5 10 4.52 3.38
-3 5 -10 -0.57 4.39
3 -5 11 0.35 2
3 -5 11 5.3 2.97
-3 5 -11 0.79 3.86
3 -4 -15 15.69 9.54
3 -4 -15 8.83 9.94
3 -4 -15 9.29 6.63
3 -4 -14 -2.13 4.91
3 -4 -14 0.13 7.87
3 -4 -14 6.58 9.82
3 -4 -13 33.45 5.94
3 -4 -13 27.63 6.57
3 -4 -13 22.55 7.45
3 -4 -12 31.6 5.75
3 -4 -12 26.56 5.75
3 -4 -12 33.42 5.6
3 -4 -12 28.57 6.55
3 -4 -11 47.33 6.7
3 -4 -11 47.29 7.26
3 -4 -11 50.41 6.63
3 -4 -11 47.48 7.86
3 -4 -10 225.2 13.18
3 -4 -10 232.35 14.41
3 -4 -10 230.7 13.24
3 -4 -10 240.04 15.07
3 -4 -9 11.6 4.34
3 -4 -9 8.93 4.4
3 -4 -9 12.07 4.49
3 -4 -9 14.05 4.85
3 -4 -9 10.39 5.26
3 -4 -8 79.96 8.66
3 -4 -8 77.6 8.57
3 -4 -8 57.65 7.65
3 -4 -8 60.95 8.76
3 -4 -8 76.81 7.84
3 -4 -7 14.64 4.89
3 -4 -7 15.91 4.64
3 -4 -7 13.6 4.61
3 -4 -7 18.29 4.78
3 -4 -7 16.75 4.93
3 -4 -7 13.6 5.47
3 -4 -7 18.1 4.38
3 -4 -6 10.55 4.17
3 -4 -6 12.63 4.57
3 -4 -6 10.69 5.01
3 -4 -6 7.19 3.86
3 -4 -6 8.31 3.65
3 -4 -6 7.14 4.87
3 -4 -5 7.24 3.63
3 -4 -5 11.41 4.18
3 -4 -4 14.86 4.28
3 -4 -3 88.29 8.43
-3 4 3 86.13 9.24
3 -4 -2 279.8 14.12
-3 4 2 269.84 15.93
3 -4 -2 260.82 13.79
-3 4 1 14.28 5.14
3 -4 -1 7.17 3.28
-3 4 0 117.68 10.94
3 -4 0 112.97 9.18
-3 4 -1 1.5 3.53
3 -4 1 2.72 3.17
-3 4 -2 815.08 27.49
3 -4 2 839.78 24.55
-3 4 -3 13.88 4.98
3 -4 3 11.67 3.85
3 -4 4 569.62 23.54
3 -4 4 569.78 20.33
-3 4 -4 583.31 23.4
3 -4 4 590.09 20.79
3 -4 5 35.41 6.01
-3 4 -5 36.05 6.42
3 -4 5 39.81 7.53
3 -4 5 35.55 5.73
3 -4 6 123.19 11.77
3 -4 6 127.08 10.16
-3 4 -6 125.55 10.88
3 -4 6 136.74 10.16
3 -4 7 11.37 4.97
3 -4 7 12.26 3.91
3 -4 7 8.06 4.27
3 -4 7 10.06 4.79
3 -4 7 -1.36 5.31
3 -4 7 9.68 3.68
3 -4 8 2.03 4.28
3 -4 8 0.31 2.8
3 -4 8 0.49 3.77
3 -4 8 -1.1 4.28
3 -4 8 4.96 5.85
3 -4 9 5.02 3.64
3 -4 9 7.06 4.31
3 -4 9 2.55 5.49
3 -4 9 7.35 4.72
-3 4 -9 3.03 5.98
3 -4 10 94.57 9.09
-3 4 -10 4.2 5.57
3 -4 10 108.81 8.65
3 -4 10 107.23 9.78
3 -4 10 -0.59 4.88
-3 4 -10 106.8 13.15
3 -4 11 12.33 3.85
3 -4 11 11.43 4.79
3 -4 11 2.94 5
-3 4 -11 10.61 4.18
-3 4 -11 14.79 6.64
3 -4 12 7.52 3.18
3 -4 12 6.32 3.97
3 -4 12 -0.4 4.35
-3 4 -12 -1.94 4.62
-3 4 -12 5.31 5
-3 4 -12 10.28 3.67
-3 4 -12 1.46 5.84
-3 4 -13 81.86 7.01
-3 4 -13 -2.86 4.24
3 -4 13 80.64 6.1
3 -4 13 87.21 7.36
3 -4 13 -2.87 4.13
-3 4 -13 83.12 10.05
3 -3 -16 9.73 8.21
3 -3 -16 7.72 9.09
3 -3 -15 1.4 7.4
3 -3 -15 7.83 10.58
3 -3 -15 19.55 12.8
3 -3 -14 2.34 5.33
3 -3 -14 5.42 9.75
3 -3 -14 10.07 11.83
3 -3 -13 3.19 6.29
3 -3 -13 0.15 4.36
3 -3 -13 2.08 8.22
3 -3 -12 86.92 8.89
3 -3 -12 83.44 9.25
3 -3 -12 82.7 9.75
3 -3 -11 91.16 9.2
3 -3 -11 98.82 9.93
3 -3 -11 86.08 8.41
3 -3 -11 100.33 10.28
3 -3 -10 456.34 18.75
3 -3 -10 408.97 17.98
3 -3 -10 381.94 16.66
3 -3 -10 435.86 19.38
3 -3 -10 447.29 20.32
3 -3 -9 238.58 13.67
3 -3 -9 252.99 14.85
3 -3 -9 247.38 13.69
3 -3 -9 243.39 13.51
3 -3 -9 270.4 15.82
3 -3 -8 84.93 8.06
3 -3 -8 75.54 8.31
3 -3 -7 342.48 15.26
3 -3 -7 340.52 16.66
3 -3 -6 168.19 10.49
3 -3 -6 170.57 11.67
3 -3 -5 7.38 3.15
3 -3 -5 5.05 2.62
3 -3 -4 5.99 2.66
3 -3 -4 5.54 3.36
3 -3 -3 3.49 3.11
3 -3 -3 4.47 2.77
3 -3 -2 20.97 4.19
3 -3 -2 21.6 4.32
3 -3 -1 164 10.25
-3 3 1 155.7 11.15
3 -3 -1 167.97 10.39
-3 3 0 4.13 3.35
3 -3 0 8.93 3.58
3 -3 0 8.76 3.46
3 -3 1 886.64 23.61
-3 3 -1 830.77 25.47
-3 3 -2 27.22 5.35
3 -3 2 25.39 4.73
3 -3 3 502.21 18.06
-3 3 -3 461.51 19.23
-3 3 -4 28.74 5.8
3 -3 4 33.95 5.19
-3 3 -5 630.33 23.03
-3 3 -5 620.79 22.58
3 -3 5 622.76 20.75
3 -3 6 23.61 4.87
-3 3 -6 21.38 5.26
-3 3 -7 12.43 4.69
3 -3 7 10.95 3.92
3 -3 8 14.8 5.17
3 -3 8 14.62 4.18
3 -3 8 16.64 5.51
3 -3 8 12.61 5.23
-3 3 -8 14.15 4.66
3 -3 8 -1.25 5.52
-3 3 -8 12.64 4.67
-3 3 -8 4.13 6.37
3 -3 8 -2.86 6.88
3 -3 8 16.5 4.45
-3 3 -9 -0.46 5.47
3 -3 9 13.45 4.22
3 -3 9 7.03 5.06
3 -3 9 19.05 6.05
3 -3 9 -1.53 5.6
-3 3 -9 -2.4 6.37
-3 3 -9 12.18 5.2
3 -3 9 -6.11 7.43
-3 3 -9 15.92 4.69
3 -3 9 12.87 4.02
3 -3 10 56.87 6.81
-3 3 -10 1.99 6.21
3 -3 10 52.43 7.95
3 -3 10 -1.81 5.62
-3 3 -10 -5.06 6.69
3 -3 10 54.3 7.89
3 -3 10 -1.94 6.72
-3 3 -10 54.31 7.9
-3 3 -10 66.64 11.58
-3 3 -11 -0.12 5.98
3 -3 11 135.03 9.87
3 -3 11 124.77 11.21
3 -3 11 -2.88 5.56
3 -3 11 1.83 6.86
-3 3 -11 126.27 11.07
-3 3 -11 49.61 11.33
-3 3 -12 6.71 8.43
3 -3 12 3.67 3.31
3 -3 12 6.18 4.2
3 -3 12 3.73 5.51
-3 3 -12 0.39 5.69
3 -3 12 1.26 6.3
-3 3 -12 7.09 4.77
3 -3 13 63.26 6.41
3 -3 13 57.04 7.52
-3 3 -13 50.25 7.04
3 -3 13 -3.76 5.29
3 -3 13 8 6.44
-3 3 -13 72.75 11.47
3 -3 14 7.31 3.01
3 -3 14 4.44 3.77
-3 3 -14 6.78 4.07
3 -3 14 -0.52 4.4
3 -3 14 0.76 5.1
-3 3 -14 0.51 4.52
-3 3 -14 2.16 6.42
3 -3 15 14.34 3.05
3 -3 15 13 3.64
3 -3 15 2.92 4.04
3 -3 15 -2.72 4.84
-3 3 -15 11.06 3.47
-3 3 -15 16.6 6.2
3 -2 -17 2.98 5.85
3 -2 -17 4.33 6.27
3 -2 -17 8.71 3.06
3 -2 -16 3.35 8.3
3 -2 -16 -3.87 8.23
3 -2 -16 1.99 2.65
3 -2 -15 8.93 9.04
3 -2 -15 10.38 10.94
3 -2 -15 13.44 4.08
3 -2 -14 9.25 10.98
3 -2 -14 -0.48 6.44
3 -2 -14 3.56 3.2
3 -2 -14 -6.16 14.59
3 -2 -13 122.1 10.88
3 -2 -13 128.05 13.92
3 -2 -13 121.66 10.1
3 -2 -13 107.71 15.05
3 -2 -12 22.99 4.91
3 -2 -12 25.13 5.96
3 -2 -12 16.08 6.41
3 -2 -12 23.69 5.38
3 -2 -12 21.97 8.31
3 -2 -11 29.37 5.23
3 -2 -11 27.12 5.65
3 -2 -11 26.93 5.34
3 -2 -11 17.58 5.7
3 -2 -10 493.39 19.19
3 -2 -9 143.88 10.21
3 -2 -9 141.27 10.64
3 -2 -8 220.93 12.14
3 -2 -8 208.06 12.44
3 -2 -7 246.65 12.3
3 -2 -7 233 13.02
3 -2 -6 270.72 12.23
3 -2 -6 264.12 13.36
3 -2 -5 40.6 4.9
3 -2 -5 38.88 5.34
3 -2 -4 48.67 5.03
3 -2 -4 41.14 5.42
3 -2 -3 57.06 6.07
3 -2 -3 55.73 5.53
3 -2 -2 128.99 8.54
3 -2 -2 145.12 8.6
3 -2 -1 443.41 15.35
3 -2 -1 448.38 14.98
3 -2 0 2.6 2.49
3 -2 0 5.33 2.63
3 -2 1 50.85 6.05
3 -2 1 55.85 5.25
3 -2 1 51.41 5.6
-3 2 -2 932.8 23.07
3 -2 2 874.99 21.48
-3 2 -3 694.26 20.8
3 -2 3 654.5 19.04
-3 2 -4 166.15 10.17
-3 2 -4 162.5 10.68
-3 2 -4 153.72 10.38
3 -2 4 147.19 9.28
-3 2 -5 79.85 7.6
-3 2 -5 69.01 7.53
-3 2 -5 68.51 7.07
3 -2 5 71.76 6.84
-3 2 -6 116.73 9.37
-3 2 -6 106.67 9.55
3 -2 6 110.68 8.76
-3 2 -7 33.48 5.77
-3 2 -7 27.27 5.78
3 -2 7 33.22 5.4
-3 2 -8 55.25 7.16
-3 2 -8 54.49 7.77
3 -2 8 50.83 6.42
-3 2 -9 4.99 3.84
-3 2 -9 3.81 3.68
3 -2 9 7.13 3.47
-3 2 -10 211.9 14.08
-3 2 -10 228.4 15.42
3 -2 10 182.97 13.44
3 -2 10 218.47 14.93
-3 2 -10 191.1 13.5
3 -2 10 198.71 12.33
-3 2 -11 27.24 5.83
3 -2 11 25.09 6.28
-3 2 -11 1.89 6.2
-3 2 -11 26.02 6.52
3 -2 11 31.99 6.89
-3 2 -11 24.87 6.28
3 -2 11 21.8 4.67
-3 2 -11 14.41 9.25
3 -2 12 150.2 12.38
-3 2 -12 175.46 18.64
3 -2 12 148.89 12.39
-3 2 -12 -1.31 6.21
-3 2 -12 154.48 12.47
3 -2 12 -2.8 7.24
3 -2 13 -2.86 5.74
3 -2 13 18.02 5.36
3 -2 13 4.33 7.04
-3 2 -13 -3.98 6.31
-3 2 -13 15.65 5.43
-3 2 -13 1.68 6.29
3 -2 14 140.48 11.06
3 -2 14 -2.77 5.41
3 -2 14 2.31 6.14
-3 2 -14 146.46 11.49
-3 2 -14 193.11 17.43
-3 2 -15 -0.67 5.05
3 -2 15 -2.5 4.92
3 -2 15 108 8.96
-3 2 -15 106.54 9.15
3 -2 15 -0.56 5.62
-3 2 -15 9.51 7.02
3 -2 16 4.53 4.47
3 -2 16 -1.86 4.79
-3 2 -16 24.44 4.7
-3 2 -16 32.83 7.52
3 -1 -18 43.45 4.86
3 -1 -17 14.42 6.82
3 -1 -17 10.58 3.72
3 -1 -16 5.62 7.19
3 -1 -16 3.16 6.89
3 -1 -16 1.13 3.34
3 -1 -15 8.57 9.09
3 -1 -15 5.39 8.6
3 -1 -15 8.75 4.18
3 -1 -14 5.57 9.11
3 -1 -14 -4.79 12.1
3 -1 -14 0.44 3.59
3 -1 -13 58.09 7.06
3 -1 -13 55.32 9.26
3 -1 -13 63.59 13.79
3 -1 -13 53.9 7.52
3 -1 -13 61.76 7.89
-3 1 13 54.22 9.25
3 -1 -13 44.32 16.04
3 -1 -12 58.63 7.31
3 -1 -12 44.53 7.44
3 -1 -12 54.35 7.59
3 -1 -12 57.15 7.59
3 -1 -12 52.93 13.13
3 -1 -11 11.79 3.91
3 -1 -11 12.76 3.98
3 -1 -10 227.08 12.78
3 -1 -10 231.64 13.88
3 -1 -9 47.71 5.95
3 -1 -9 41.28 5.87
3 -1 -8 425.71 15.82
3 -1 -8 415.03 16.79
3 -1 -7 139.06 8.8
3 -1 -7 140.32 9.37
3 -1 -7 135.05 9.12
3 -1 -6 375.15 13.45
3 -1 -6 389.61 14.79
3 -1 -6 395.04 14.76
3 -1 -5 236.71 10.3
3 -1 -5 225.64 11.09
3 -1 -5 253.68 11.23
3 -1 -4 8.35 2.32
3 -1 -4 6.45 2.61
-3 1 4 8.36 5.45
3 -1 -4 8.15 2.68
-3 1 4 16.36 6.9
3 -1 -3 35.65 3.68
3 -1 -3 34.49 4.53
3 -1 -3 31.64 7.87
3 -1 -3 38.98 4.59
-3 1 3 44 9.57
3 -1 -3 32.23 3.87
-3 1 3 51.65 10.79
-3 1 2 402.62 12.61
3 -1 -2 446.88 25.86
3 -1 -2 393.75 13.63
-3 1 2 373.84 26.26
3 -1 -2 402.51 13.23
3 -1 -2 386.27 12.23
-3 1 2 428.25 28.74
-3 1 1 107.82 6.65
3 -1 -1 99.08 7
3 -1 -1 94.04 6.53
-3 1 1 86.69 13.09
-3 1 1 82.55 12.81
3 -1 -1 92.1 6.14
3 -1 0 4245.94 81.63
-3 1 0 4145.17 41.1
3 -1 0 4175.87 42.75
-3 1 0 4186.51 41.51
3 -1 0 4143.22 40.7
-3 1 0 4183.55 88.24
3 -1 0 4099.3 40.32
3 -1 1 608.23 15.29
-3 1 -1 659.83 16.92
-3 1 -1 626.77 16.67
3 -1 1 656.26 32.99
-3 1 -1 588.15 33.64
-3 1 -1 579.5 33.19
3 -1 1 623.65 16.11
-3 1 -2 1537.02 26.58
-3 1 -2 1472.56 26.54
3 -1 2 1501.88 23.49
3 -1 2 1609.39 52.86
-3 1 -2 1359.06 52.21
-3 1 -2 1427.66 52.2
3 -1 2 1480.48 25.27
-3 1 -3 44.5 5.04
-3 1 -3 41.84 5.15
3 -1 3 47.86 10
-3 1 -3 47.11 10.67
-3 1 -3 50.33 10.62
3 -1 3 42.31 4.73
-3 1 -4 224.38 11.23
-3 1 -4 210.13 10.97
-3 1 -4 191 20.28
3 -1 4 212.99 10.34
-3 1 -5 8.71 3.24
-3 1 -5 7.74 3.41
3 -1 5 7.86 2.75
-3 1 -6 830.31 23.28
-3 1 -6 825.78 23.47
-3 1 -7 107.06 9.01
-3 1 -7 116.62 9.79
-3 1 -8 77.2 8.11
-3 1 -8 85.93 8.56
-3 1 -9 5.67 3.76
-3 1 -9 4.12 3.76
-3 1 -10 135.24 11.4
-3 1 -10 129.37 11.3
-3 1 -11 508.71 21.88
-3 1 -11 507.24 22.07
-3 1 -12 304.74 17.23
-3 1 -12 302.32 17.4
3 -1 12 276.78 16.37
3 -1 12 285.86 16.7
-3 1 -12 282.24 15.47
-3 1 -12 266.68 16.07
3 -1 13 68.16 8.77
-3 1 -13 66.49 8.88
-3 1 -13 66.81 8.14
-3 1 -14 183.26 13.03
-3 1 -14 197.53 13.69
3 -1 14 192.28 13.2
-3 1 -14 181.9 12.37
-3 1 -15 171.16 12.45
-3 1 -15 163.49 11.38
-3 1 -15 169.49 12
-3 1 -16 79.24 8.36
3 -1 16 2.91 5.04
-3 1 -16 76.11 7.82
-3 1 -16 3.82 5.29
-3 1 -16 55.09 11.25
-3 1 -17 33.21 5.31
-3 1 -17 34.62 5.07
3 -1 17 1.15 5.02
3 -1 17 -3.63 4.48
-3 1 -17 36.68 7.84
3 0 -18 16.79 8.3
3 0 -18 18.67 3.93
3 0 -17 27.56 8.94
3 0 -17 20.27 4.58
3 0 -16 -0.6 6.5
3 0 -16 0.62 3.47
3 0 -15 10.14 7.02
3 0 -15 12.74 4.55
3 0 -14 3.56 7.89
3 0 -14 7.18 7.42
3 0 -14 4.15 3.71
3 0 -13 129.73 10.19
3 0 -13 131.26 13.32
-3 0 13 130.58 13.56
3 0 -13 130.38 13.43
3 0 -13 143.48 11.6
3 0 -13 139.36 10.97
3 0 -13 126.42 11.33
3 0 -12 284.17 14.8
3 0 -12 282.82 15.57
3 0 -12 272.98 16.08
3 0 -12 281.3 15.15
3 0 -12 282.73 16.46
-3 0 12 271.83 18.67
3 0 -11 192.01 11.87
3 0 -11 193.83 12.33
-3 0 11 195.75 15.73
3 0 -11 181.14 12.9
3 0 -10 205.06 12
-3 0 10 196.75 15.33
3 0 -10 206.18 12.21
3 0 -10 212.06 13.46
3 0 -9 1883.43 33.94
3 0 -9 1874.68 34.63
3 0 -8 300.62 14.6
3 0 -8 320.1 13.53
3 0 -8 325.56 13.81
3 0 -7 111.42 7.64
3 0 -7 111.52 7.88
-3 0 7 123.67 10.4
3 0 -7 108.06 8.36
3 0 -6 3.87 2.43
3 0 -6 2.59 2.06
3 0 -6 4.18 2.24
-3 0 6 5.79 3.5
3 0 -6 3.06 2.05
3 0 -5 18.31 3.62
3 0 -5 19.6 3.16
3 0 -5 21.18 3.71
-3 0 5 25.24 8.19
-3 0 5 22.88 4.64
-3 0 5 19.92 7.29
3 0 -5 16.47 3.19
3 0 -4 206.2 8.68
3 0 -4 217.48 9.83
3 0 -4 228.82 19.82
-3 0 4 194.49 19.32
3 0 -4 195.83 9.54
-3 0 4 194.57 18.15
3 0 -4 209.86 9.4
3 0 -4 213.8 20.4
3 0 -3 44.58 3.93
-3 0 3 44.75 9.02
3 0 -3 46.47 4.9
3 0 -3 61.66 10.05
3 0 -3 44.54 4.52
3 0 -3 42.12 4.24
-3 0 3 41.78 8.95
-3 0 2 165.59 15.91
3 0 -2 185.41 8.76
3 0 -2 172.26 15.57
3 0 -2 157.37 7.83
3 0 -2 162.94 7.85
-3 0 2 153.7 16.12
-3 0 1 1080.05 41.63
3 0 -1 1182.31 38.46
-3 0 1 1072.19 38.76
3 0 -1 1149.32 20.33
-3 0 0 133.95 7.3
-3 0 0 139.3 7.19
3 0 0 136.19 12.63
-3 0 0 146.62 14.43
3 0 0 139.46 7.04
-3 0 0 143.2 15.36
3 0 0 142.27 13.38
3 0 1 1553.58 45.14
-3 0 -1 1593.81 24.79
-3 0 -1 1574.5 24.3
3 0 1 1600.42 23.28
-3 0 -1 1513.5 45.82
3 0 1 1581.08 23.18
-3 0 -1 1493.59 49.39
-3 0 -1 1536.31 47.43
3 0 2 115.09 12.98
-3 0 -2 106.8 6.78
-3 0 -2 107.16 6.84
3 0 2 110.28 6.53
-3 0 -2 107.79 13.18
3 0 2 112.65 6.29
-3 0 -2 108.85 14.13
-3 0 -2 120.98 14.04
3 0 3 2718.95 64.26
-3 0 -3 2505.91 33.41
-3 0 -3 2600.52 33.47
3 0 3 2579.41 31.05
-3 0 -3 2464.38 62.74
3 0 3 2499.53 28.64
-3 0 -3 2419.99 65.64
-3 0 -3 2473.65 60.99
3 0 3 2582.87 30.94
3 0 4 142.14 15.54
-3 0 -4 132.5 8.31
-3 0 -4 143.57 8.44
-3 0 -4 126.68 15.46
3 0 4 134.46 7.38
-3 0 -4 103.32 14.58
-3 0 -4 116.49 14.03
3 0 5 16.56 6.46
-3 0 -5 16.04 3.61
-3 0 -5 13.99 3.25
3 0 5 14.1 2.96
-3 0 -5 13.8 6.44
-3 0 -5 13.16 6.6
-3 0 -6 14.26 3.53
-3 0 -6 14.55 3.55
3 0 6 16.94 3.12
-3 0 -7 3.44 2.68
-3 0 -7 4.3 2.74
3 0 7 3.32 2.11
3 0 8 25.05 3.99
-3 0 -8 26.19 5.2
-3 0 -8 27.38 4.98
-3 0 -9 373.38 16.93
-3 0 -9 385.99 17.15
-3 0 -10 93.29 9.25
-3 0 -10 99.34 9.45
-3 0 -11 331.3 17.25
-3 0 -11 343.95 17.38
-3 0 -12 35.61 6.52
-3 0 -13 160.05 13.33
-3 0 -13 170.57 12.98
-3 0 -13 138.92 11.25
-3 0 -13 145.17 12.07
-3 0 -14 46.66 12.16
-3 0 -14 48.82 8.28
-3 0 -14 44.1 7.14
-3 0 -14 49.21 7.71
-3 0 -15 125.99 11.85
-3 0 -15 117.59 10.58
-3 0 -15 99.53 9.71
-3 0 -16 -0.03 5.41
-3 0 -16 2.39 4.68
-3 0 -16 3.07 3.93
-3 0 -17 7.78 4.43
-3 0 -17 10.03 6.82
-3 0 -18 2.33 3.36
-3 0 -18 0.4 2.32
3 0 18 -0.06 3.81
-3 0 -18 0.35 4.14
3 1 -18 2.18 2.62
3 1 -18 6.39 2.69
-3 -1 18 1.12 19.27
3 1 -17 1.12 2.89
3 1 -17 2.24 8.59
3 1 -17 2.27 2.77
3 1 -16 -2.03 3.53
3 1 -16 0.67 8.41
3 1 -16 2.78 3.59
3 1 -15 14.63 4.95
3 1 -15 4.77 7.38
3 1 -15 15.78 4.74
3 1 -14 15.06 4.89
3 1 -14 24.17 7.67
3 1 -14 21.02 5.39
3 1 -13 31.55 5.39
3 1 -13 31.39 6.61
3 1 -13 28.97 5.81
3 1 -13 27.31 5.32
3 1 -13 31.5 5.92
-3 -1 13 20 7.7
3 1 -12 152.33 12.13
3 1 -12 145.14 10.76
3 1 -12 140.76 11.27
3 1 -12 158.79 11.78
3 1 -12 158.89 11.66
3 1 -12 144.81 11.95
-3 -1 12 166.05 14.97
3 1 -11 641.15 21.62
3 1 -11 604.41 21.65
-3 -1 11 671.72 28.09
3 1 -11 610.08 23.29
3 1 -10 160.34 10.71
-3 -1 10 158.32 13.79
3 1 -10 152.89 10.59
3 1 -10 151.32 11.5
3 1 -9 535.96 18.44
3 1 -9 518.15 18.41
3 1 -9 527 20.18
-3 -1 9 548.52 23.31
3 1 -8 674.71 19.53
3 1 -8 652.23 19.57
3 1 -8 643.64 20.94
3 1 -7 42.24 5.11
3 1 -7 37.07 4.68
3 1 -7 41.2 5.56
-3 -1 7 42.33 6.68
3 1 -6 248.4 10.48
3 1 -6 226.97 10.42
3 1 -6 205.37 10.94
3 1 -6 218 10.24
3 1 -5 4.8 2.47
3 1 -5 6.13 2.31
3 1 -5 4.57 4.56
3 1 -5 7.52 2.49
3 1 -5 5.63 2.31
-3 -1 5 1.99 3.14
-3 -1 5 1.2 5.3
3 1 -5 4.39 4.78
-3 -1 5 3.38 4.85
3 1 -4 827.21 17.37
3 1 -4 856.79 18.18
3 1 -4 863.07 17.81
3 1 -4 895.85 38.74
3 1 -4 816.84 19.63
3 1 -4 831.59 38.78
-3 -1 4 917.09 23.26
-3 -1 4 846.14 39.48
3 1 -4 844.25 17.56
-3 -1 4 852.53 39.12
3 1 -3 83.69 5.36
3 1 -3 90.05 5.91
3 1 -3 82.73 5.42
3 1 -3 91.85 12.15
-3 -1 3 80.25 11.89
3 1 -3 88.47 6.41
-3 -1 3 53.67 6.13
-3 -1 3 80.37 12.04
3 1 -3 78.81 5.46
-3 -1 2 6.85 5.19
3 1 -2 13.44 2.67
3 1 -2 14.9 2.86
3 1 -2 11.57 5
-3 -1 2 7.43 4.66
3 1 -2 14.29 2.7
3 1 -1 8.68 2.19
3 1 -1 7.82 2.15
-3 -1 1 6.73 5.06
-3 -1 1 7.12 4.51
3 1 -1 7.56 4.1
3 1 -1 6.84 1.89
3 1 0 1032.95 18.16
3 1 0 1008.51 34.98
-3 -1 0 907.63 36.49
3 1 0 962.03 17.89
-3 -1 0 959.85 37.11
-3 -1 -1 295.76 21.03
3 1 1 321.96 19.31
3 1 1 331.96 19.68
-3 -1 -1 305.05 21.55
3 1 1 320.96 10.31
-3 -1 -2 738.74 16.86
3 1 2 758.18 15.82
-3 -1 -2 729.77 16.43
3 1 2 772.08 31.49
-3 -1 -2 677.55 32.41
-3 -1 -2 695.28 32.41
3 1 2 732.83 15.56
3 1 3 406.53 11.99
-3 -1 -3 411.83 12.98
-3 -1 -3 435.67 13.04
3 1 3 398.57 23.8
-3 -1 -3 386.74 25.23
3 1 4 795.95 34.87
3 1 4 768.13 16.87
-3 -1 -4 777.06 18.59
-3 -1 -4 779.33 18.19
-3 -1 -4 711.09 35.67
-3 -1 -4 700.23 34.16
3 1 5 433.82 27.05
-3 -1 -5 421.92 14.45
-3 -1 -5 411 13.73
3 1 5 414.02 12.83
-3 -1 -5 406.39 28.38
-3 -1 -5 369.38 25.94
3 1 5 433.37 27.59
-3 -1 -6 868.99 21.6
-3 -1 -6 935.64 21.86
3 1 6 933.56 19.71
-3 -1 -6 888.97 43.56
-3 -1 -6 920.5 42.69
-3 -1 -7 20.95 3.96
-3 -1 -7 21.01 3.87
3 1 7 17.95 3.41
3 1 8 204.87 9.91
-3 -1 -8 218.94 12.04
-3 -1 -8 223.06 11.84
-3 -1 -9 81.85 7.93
-3 -1 -9 81.76 7.4
-3 -1 -10 138.15 10.47
-3 -1 -10 146.32 10.15
-3 -1 -11 41.76 6.31
-3 -1 -11 37.12 5.77
-3 -1 -12 487.18 20.55
-3 -1 -13 31.74 11.37
-3 -1 -13 27.1 7.32
-3 -1 -13 26.16 6.26
-3 -1 -14 102.73 10.95
-3 -1 -14 86.52 9.51
-3 -1 -14 83.82 14.97
-3 -1 -15 0.46 8.25
-3 -1 -15 1.41 4.26
-3 -1 -15 1.14 3.61
3 1 15 3.76 5.88
-3 -1 -16 96.33 10.41
-3 -1 -16 84.41 8.79
-3 -1 -16 83.47 12.79
-3 -1 -17 5.23 6.51
-3 -1 -17 1.04 4.45
-3 -1 -17 3.38 3.53
-3 -1 -18 0.52 3.29
-3 -1 -18 -0.01 2.68
-3 -1 -18 1.02 5.15
-3 -1 -19 1.1 2.61
3 2 -17 6.18 3.37
3 2 -17 10.6 5.87
3 2 -17 4.51 2.7
3 2 -16 -1.56 3.51
3 2 -16 6.59 7.95
3 2 -16 1.61 2.79
-3 -2 16 5.67 26.46
3 2 -15 0.64 3.78
3 2 -15 -0.97 7.99
3 2 -15 3.39 3.15
3 2 -15 7.2 4.29
3 2 -14 0.55 3.66
3 2 -14 -0.87 7.11
3 2 -14 5 3.62
3 2 -13 11.8 5.12
3 2 -13 14.38 5.23
3 2 -13 11.49 3.95
3 2 -13 16.06 5.01
3 2 -12 218.45 14.63
3 2 -12 209.3 13.89
3 2 -12 210.37 12.9
3 2 -12 210.65 13.84
3 2 -12 213.77 13.5
3 2 -11 7.25 3.55
3 2 -11 6.4 3.17
3 2 -11 7.98 3.58
-3 -2 11 10.06 8.25
3 2 -10 525.96 19.54
3 2 -10 531.3 19.85
3 2 -10 578.21 21.78
-3 -2 10 497.23 24.22
3 2 -9 351.88 15.45
-3 -2 9 381.82 20.35
3 2 -9 333.17 15.06
3 2 -9 357.7 16.61
3 2 -8 743.72 21.43
-3 -2 8 711.76 26.3
3 2 -8 721.61 21.03
3 2 -8 727 22.5
3 2 -7 15.91 4.07
3 2 -7 19.16 3.87
3 2 -7 19.74 3.79
3 2 -7 18.74 3.51
-3 -2 7 15.56 6.4
3 2 -6 0.69 2.34
3 2 -6 1.76 2.07
3 2 -6 -0.61 2.04
3 2 -6 0.46 1.88
-3 -2 6 -0.94 5.41
3 2 -5 7.11 2.77
3 2 -5 5.58 2.14
3 2 -5 5 2.31
3 2 -5 8 2.77
-3 -2 5 4.33 6.15
-3 -2 5 5.47 5.23
3 2 -4 459.32 13.8
3 2 -4 463.54 15.26
3 2 -4 460.17 14.13
3 2 -4 476.34 29.24
-3 -2 4 428.34 29.84
3 2 -3 329.5 11.24
3 2 -3 315.38 11.24
3 2 -3 328.17 12.46
3 2 -3 335.48 23.62
-3 -2 3 277.37 23.1
3 2 -3 306.02 10.51
-3 -2 3 301.96 22.72
3 2 -2 369.27 11.08
3 2 -2 388.61 12.2
3 2 -2 373.95 12.87
3 2 -2 370.21 24.17
-3 -2 2 372.22 25.64
3 2 -2 371.8 11.44
-3 -2 2 377.27 24.3
-3 -2 1 618.26 18.11
3 2 -1 593.67 14.62
3 2 -1 590.73 15.68
-3 -2 1 530.34 29.61
-3 -2 1 529.9 27.5
3 2 0 838.93 16.82
3 2 0 866.17 18.88
-3 -2 0 891.41 20.89
-3 -2 0 786.21 35.78
-3 -2 0 799.41 32.95
-3 -2 -1 337.81 21.47
3 2 1 406.6 21.89
3 2 1 402.32 11.39
-3 -2 -1 374.22 24.75
-3 -2 -2 840.19 17.74
3 2 2 792.44 16.44
3 2 2 800.48 32.37
3 2 2 826.59 32.06
-3 -2 -2 787.25 35.73
-3 -2 -2 813.69 32.98
-3 -2 -3 1472.72 23.97
3 2 3 1610.36 24.27
-3 -2 -3 1545.4 51.46
3 2 3 1503.29 46.26
3 2 3 1558.39 46.63
-3 -2 -4 1490.35 24.83
-3 -2 -4 1376.57 27.27
-3 -2 -4 1461.99 24.03
3 2 4 1600.07 49.93
3 2 4 1486.72 23.88
-3 -2 -4 1503.75 52.05
3 2 4 1498.66 48.2
3 2 5 1054.24 42.28
-3 -2 -5 966.89 20.91
-3 -2 -5 951.53 20.02
3 2 5 1010.92 20.4
-3 -2 -5 1000.82 44.49
3 2 5 1034.17 42.11
-3 -2 -6 15.95 3.4
3 2 6 22.24 3.63
3 2 6 24.21 7.74
3 2 7 109.54 7.24
3 2 8 4.82 2.37
3 2 9 373.76 13.95
-3 -2 -9 364.42 15.83
-3 -2 -10 298.53 14.84
-3 -2 -11 662.32 22.91
-3 -2 -12 71.9 8.09
-3 -2 -13 216.46 13.89
-3 -2 -13 223.92 14.07
-3 -2 -14 15.4 9.78
-3 -2 -14 25.48 5.46
-3 -2 -14 20.69 6.55
-3 -2 -14 22.8 5.51
3 2 14 0.07 21.2
-3 -2 -15 2.86 6.74
-3 -2 -15 23.5 7.04
-3 -2 -15 26.47 5.9
3 2 15 18.53 18.93
-3 -2 -16 100.87 10.96
-3 -2 -16 86.37 9
-3 -2 -17 0.56 5.48
-3 -2 -17 0.78 4.52
-3 -2 -17 5.73 3.73
-3 -2 -18 -3.32 4.45
-3 -2 -18 -2.5 3.93
-3 -2 -18 0.58 2.72
-3 -2 -19 -1.47 3.06
3 3 -17 20.07 3.95
3 3 -16 8.24 3.96
3 3 -16 3.91 3.6
3 3 -16 5.29 3.63
3 3 -15 9.51 4.61
3 3 -15 5.45 3.65
3 3 -15 4.71 5.33
3 3 -14 17.28 5.48
3 3 -14 20.58 5.53
3 3 -14 22.53 7.2
3 3 -13 45.01 7.26
3 3 -13 49.21 7.82
3 3 -12 47.13 7.77
3 3 -12 36.57 5.84
3 3 -12 41.93 7.33
-3 -3 12 13.52 30.11
3 3 -12 36.15 6.2
-3 -3 12 16.37 12.7
3 3 -11 171.78 13.19
3 3 -11 158.58 12.26
3 3 -11 164.14 11.6
-3 -3 11 71.83 14.83
3 3 -11 151.18 11.45
-3 -3 11 44.55 29.08
3 3 -10 80.76 8.1
3 3 -10 65.68 7.41
3 3 -9 516.3 19.47
3 3 -9 539.45 19.71
3 3 -8 30.56 5.12
3 3 -8 29.77 4.83
-3 -3 8 17.94 8.49
3 3 -7 616.79 20.01
3 3 -7 586.53 19.35
3 3 -7 607.01 18.95
3 3 -6 5.49 2.93
3 3 -6 3.08 2.7
3 3 -6 4.97 2.92
-3 -3 6 4.43 6.56
3 3 -5 2.3 2.52
3 3 -5 1.42 2.18
3 3 -5 0.7 2.05
-3 -3 5 1.81 5.39
3 3 -4 180.38 9.76
3 3 -4 162.71 9.33
-3 -3 4 165.5 11.96
3 3 -3 564.57 16.43
-3 -3 3 650.24 21.6
3 3 -3 647.6 17.81
-3 -3 3 567.01 34.42
3 3 -2 7.36 2.56
3 3 -2 8 2.63
-3 -3 2 4.65 4.22
-3 -3 2 2.05 4.82
3 3 -1 392.04 13.5
-3 -3 1 419.32 16.48
3 3 -1 391.26 13.1
-3 -3 1 388.13 26.98
3 3 0 181.65 8.77
-3 -3 0 171.15 10.79
3 3 0 180.39 8.35
3 3 0 177.49 9.14
-3 -3 0 161.3 17.47
3 3 1 4036.52 39.2
-3 -3 -1 4114.76 50
3 3 1 3656.75 38.49
-3 -3 -1 3642.82 80.04
3 3 2 2.86 1.89
3 3 2 2.85 2.06
-3 -3 -2 4.86 3.21
-3 -3 -2 -0.3 4.59
-3 -3 -3 651.49 20.62
-3 -3 -3 579.61 32.7
3 3 3 635.2 16.48
3 3 3 609.11 31.31
3 3 4 16.13 3.33
-3 -3 -4 18.81 4.74
-3 -3 -4 17.08 6.94
3 3 4 18.93 7.01
3 3 5 8.55 2.74
-3 -3 -5 7.42 3.92
-3 -3 -5 4.09 4.99
-3 -3 -5 4.93 3.78
3 3 5 3.91 5.06
-3 -3 -6 425 18.54
3 3 6 536.65 16.44
3 3 7 49.6 5.45
-3 -3 -7 44.74 6.84
3 3 8 212.07 10.83
-3 -3 -8 133.97 11.99
3 3 9 297.2 12.99
-3 -3 -9 294.85 14.72
-3 -3 -10 184.93 12.33
-3 -3 -11 368.47 17.71
-3 -3 -12 421.09 19.32
-3 -3 -13 463.21 20.62
-3 -3 -13 432.48 19.17
-3 -3 -14 12.44 7.85
-3 -3 -14 14.19 5.15
-3 -3 -15 140.16 12.47
-3 -3 -15 108.35 9.86
-3 -3 -15 146.97 15.69
-3 -3 -16 8.15 7.41
-3 -3 -16 19.56 5.93
-3 -3 -16 17.02 4.47
3 3 16 8.71 21.86
-3 -3 -17 23.65 7.87
3 3 17 -13.71 15.83
-3 -3 -17 39.44 6.91
3 3 17 5.56 5.41
-3 -3 -18 2.24 5.92
-3 -3 -18 2.09 3.63
3 4 -16 3.33 3.05
3 4 -15 24.94 4.62
3 4 -15 29.14 4.99
-3 -4 15 25.17 4.54
3 4 -14 38.61 6.26
3 4 -14 43.91 6.33
-3 -4 14 36.52 5.65
3 4 -13 53.67 7.78
3 4 -13 37.05 6.83
3 4 -13 50.92 7.26
-3 -4 13 44.9 6.85
3 4 -12 85.37 9.06
3 4 -12 86.05 9.52
3 4 -12 85.24 9.65
-3 -4 12 91.43 9.39
3 4 -12 82.77 8.74
3 4 -11 101.93 10.03
3 4 -11 96.38 10.41
-3 -4 11 90.71 9.63
3 4 -11 89.96 9.55
3 4 -10 41.84 7.02
3 4 -10 39.99 6.07
3 4 -10 36.64 7.29
-3 -4 10 37.98 6.47
3 4 -10 38.85 6.58
3 4 -9 176.61 12.27
-3 -4 9 149.13 16.93
3 4 -8 43.64 6.33
3 4 -8 50.23 6.56
-3 -4 8 44.64 11.78
3 4 -7 115.73 9.5
3 4 -7 113.94 9.42
-3 -4 7 117.42 14.26
3 4 -6 29.57 5.31
-3 -4 6 20.62 8.93
-3 -4 5 87.61 11.71
3 4 -5 85.69 7.96
3 4 -4 90.16 7.99
-3 -4 4 91.95 10.59
3 4 -3 29.83 4.87
-3 -4 3 24.59 6.34
3 4 -2 1289.07 27.23
-3 -4 2 1391.19 33.04
3 4 -1 374.47 14.43
-3 -4 1 413.79 18.05
3 4 0 820.27 20.67
3 4 0 807.57 19.98
-3 -4 0 826.67 25.12
-3 -4 -1 683.9 22.88
3 4 1 686.95 18.39
3 4 2 1859.6 28.82
-3 -4 -2 1829.58 37.97
-3 -4 -3 193.79 13.07
3 4 3 196.81 10.51
-3 -4 -4 708.29 25.18
3 4 4 732.85 20.19
3 4 5 438.9 16
-3 -4 -5 383.68 18.83
-3 -4 -6 5.18 4.15
3 4 6 8.81 3.11
3 4 7 71.82 6.87
-3 -4 -7 58.39 8.74
3 4 8 53.28 6.22
-3 -4 -8 27.95 7.51
3 4 9 68.34 6.92
-3 -4 -9 54.39 9.35
-3 -4 -9 73.24 7.95
-3 -4 -10 246.82 14.7
3 4 10 247.34 12.87
-3 -4 -10 260.19 14.69
-3 -4 -11 2.8 3.26
-3 -4 -11 0.72 2.59
-3 -4 -11 -0.05 5.28
-3 -4 -12 403.12 25.22
-3 -4 -12 330.09 17.37
-3 -4 -12 319.52 16.91
-3 -4 -12 129.16 13.98
-3 -4 -13 35.02 9.73
-3 -4 -13 26.67 5.84
-3 -4 -13 22.94 5.41
3 4 14 -6.92 6.35
-3 -4 -14 81.77 14.11
-3 -4 -15 6.15 8.63
-3 -4 -15 7.54 4.96
-3 -4 -16 73.59 8.7
-3 -4 -16 48.57 10.9
-3 -4 -17 -2.27 3.42
-3 -4 -18 2.4 3.24
3 5 -14 29.72 5.2
3 5 -14 28.5 5.12
-3 -5 14 32.18 4.99
3 5 -13 5.3 4.16
3 5 -13 5.02 4.07
-3 -5 13 7.52 3.61
3 5 -13 7.95 3.97
3 5 -12 59.44 7.94
3 5 -12 64.62 8.61
-3 -5 12 62.96 7.75
3 5 -12 58.24 7.38
3 5 -11 23.95 6.79
-3 -5 11 16.44 4.91
3 5 -11 14.74 4.93
3 5 -10 147.73 12.96
-3 -5 10 146.51 11.82
3 5 -10 159.04 12.52
3 5 -9 9.96 5.59
3 5 -9 5.28 3.59
-3 -5 9 3.56 3.74
3 5 -9 7.53 4.96
3 5 -8 295.22 15.85
3 5 -8 280.69 17.46
3 5 -8 301.37 15.91
3 5 -8 286.91 16.48
-3 -5 8 282.53 16.02
3 5 -7 62.56 7.81
3 5 -7 61.64 8.88
-3 -5 7 62.81 8.41
3 5 -7 65.19 7.77
-3 -5 7 60.73 7.89
3 5 -7 64.52 8.47
3 5 -6 0.69 3.06
-3 -5 6 -2.04 4.6
-3 -5 5 0.99 3.71
3 5 -5 1.84 3.43
-3 -5 4 175.45 13.22
3 5 -4 147.27 11.12
3 5 -3 38.98 6.13
-3 -5 3 37.73 7
3 5 -2 198.41 12.35
-3 -5 2 235.49 15.3
3 5 -1 242.93 13.36
-3 -5 1 244.45 15.34
3 5 0 240.32 12.66
3 5 0 244.33 12.52
-3 -5 0 248.31 15.82
3 5 1 1146.05 26.56
3 5 1 1127.53 27
-3 -5 -1 1194.73 33.83
3 5 2 287.33 14.01
-3 -5 -2 304.48 17.68
3 5 3 110.08 9.01
-3 -5 -3 126.36 12.3
3 5 4 3.64 3.28
-3 -5 -4 0.13 4.56
3 5 5 119.88 9.7
-3 -5 -5 119.99 12.48
3 5 6 43.05 6.08
-3 -5 -6 28.57 7.39
-3 -5 -7 3.98 3.09
3 5 7 3.45 3.18
-3 -5 -7 2.44 4.76
3 5 8 47.97 6.52
-3 -5 -8 45.66 6.85
-3 -5 -8 46.19 9.39
-3 -5 -9 141.5 11.29
3 5 9 137.61 10.42
3 5 10 185.44 14.43
-3 -5 -10 152.52 12.01
3 5 10 159.08 10.97
-3 -5 -10 176.9 12.28
-3 -5 -10 168 18.19
-3 -5 -11 296.42 22.82
-3 -5 -11 301.38 16.72
-3 -5 -11 304.18 16.04
-3 -5 -12 6.2 8.24
-3 -5 -12 9.91 12.02
-3 -5 -12 11.83 4.77
3 5 12 -0.08 5.7
3 5 13 -0.19 5.67
-3 -5 -13 5.36 11
-3 -5 -13 128.63 10.61
-3 -5 -13 161.87 17.54
-3 -5 -14 3.48 7.25
3 5 14 -3.99 5.82
-3 -5 -14 1.59 10.49
-3 -5 -14 12.83 4.44
-3 -5 -15 6.46 6.22
-3 -5 -15 42.31 6.93
3 5 15 3.09 5.37
-3 -5 -15 43.67 6.26
-3 -5 -16 1.62 2.96
3 6 -13 28.94 4.78
3 6 -13 27.71 4.6
-3 -6 13 33.33 4.63
3 6 -12 7.93 4.04
3 6 -12 5.4 4.01
-3 -6 12 10.9 3.79
3 6 -11 51.47 7.44
-3 -6 11 63.8 7.34
3 6 -11 58.92 7.1
3 6 -10 6.36 4.79
3 6 -10 5.46 4.78
-3 -6 10 7.07 4.44
3 6 -9 197.65 13.52
3 6 -9 187.73 14.34
-3 -6 9 189.32 12.86
-3 -6 9 183.42 12.45
3 6 -8 96.05 9.86
3 6 -8 92.29 10.81
-3 -6 8 104.33 10.43
-3 -6 8 92.61 9.37
3 6 -7 3.43 5.15
-3 -6 7 4.16 4.55
-3 -6 7 4.54 4.62
3 6 -7 4.22 4.2
3 6 -6 28.05 7.07
-3 -6 6 32.7 6.93
3 6 -6 27.44 5.58
-3 -6 6 22.41 5.9
3 6 -6 30.11 6.67
3 6 -5 13.66 5.78
-3 -6 5 10.34 5.33
3 6 -5 13.73 4.36
-3 -6 5 14.62 4.98
3 6 -5 12.21 5.28
3 6 -4 26.96 6.94
-3 -6 4 23.91 6.27
3 6 -4 23.83 5.78
-3 -6 4 17.64 5.26
3 6 -4 16.23 5.27
3 6 -3 36.57 6.62
3 6 -2 3.51 3.93
3 6 -1 133.62 11.06
-3 -6 1 142.28 13.05
3 6 0 4.99 3.6
-3 -6 0 6.28 4.74
3 6 1 72.45 7.91
-3 -6 -1 71.63 10.09
3 6 1 70.84 7.78
3 6 2 68.08 7.96
-3 -6 -2 54.17 8.92
3 6 3 181.75 12.65
-3 -6 -3 170.02 15.22
3 6 4 29.55 5.75
-3 -6 -4 22.66 7.24
3 6 5 12.1 4.65
-3 -6 -5 20.65 6.88
-3 -6 -6 19.64 4.67
3 6 6 18.15 5.01
-3 -6 -6 12.43 6.15
3 6 7 77.4 9.53
-3 -6 -7 62.8 8.21
-3 -6 -7 51.61 10.38
-3 -6 -7 70.68 8.03
3 6 7 65.8 7.93
3 6 8 38.52 6.3
3 6 8 46.62 8.18
-3 -6 -8 34.45 10.57
-3 -6 -8 45.98 6.7
-3 -6 -8 27.36 8.18
-3 -6 -8 32.57 5.98
3 6 9 114.87 11.5
-3 -6 -9 133.65 10.69
-3 -6 -9 121.5 10.71
3 6 9 112.5 9.94
-3 -6 -9 110.2 10.26
-3 -6 -10 286.08 15.79
-3 -6 -10 175.33 17.44
-3 -6 -11 -2.12 11.91
-3 -6 -11 35.9 11.07
3 6 12 7.4 6.32
-3 -6 -12 -4.09 11.52
3 6 13 -3.01 5.65
-3 -6 -13 -4.33 10.68
-3 -6 -13 77.74 8.2
-3 -6 -13 101.15 12.74
-3 -6 -14 23.72 7.55
-3 -6 -14 -6.09 9.6
3 6 14 -5.43 5.35
-3 -6 -14 22.25 4.95
3 6 15 3.61 4.64
-3 -6 -15 31.03 5.09
-3 -6 -16 -0.37 2.35
3 7 -10 65.44 6.63
3 7 -10 67.6 7.27
-3 -7 10 72.97 6.73
-3 -7 10 73.32 6.49
3 7 -9 9.24 4.31
-3 -7 9 6.87 3.83
-3 -7 9 7.57 3.39
3 7 -8 60.95 8.2
-3 -7 8 55.48 7.15
-3 -7 8 64.3 7.15
3 7 -7 12.11 5.22
-3 -7 7 14.5 5.08
-3 -7 7 8.99 4.02
3 7 -6 3.98 5
-3 -7 6 12.8 5.57
-3 -7 6 7.24 4.19
-3 -7 5 4.12 6
3 7 -5 13.32 5.92
-3 -7 5 6.61 5.34
-3 -7 5 15.05 4.64
3 7 -4 62.48 9.02
-3 -7 4 56.34 8.03
-3 -7 4 67.85 7.97
3 7 -3 9.2 5.67
-3 -7 3 1.45 3.81
3 7 -2 80.43 10.18
-3 -7 2 82.49 9.73
-3 -7 2 102.36 15.06
-3 -7 1 2.51 7.83
3 7 -1 -0.13 4.7
-3 -7 1 0.66 3.34
-3 -7 1 -1.56 4.23
3 7 -1 0.67 3.02
3 7 0 152.55 13.17
-3 -7 0 154.04 12.27
3 7 0 158.02 11.88
-3 -7 0 185.38 19.15
-3 -7 0 125.95 11.42
3 7 1 110.09 11.22
-3 -7 -1 96.97 10.56
-3 -7 -1 116.46 10.62
3 7 2 213.9 15.08
-3 -7 -2 210.64 14.94
3 7 2 224.87 14.5
-3 -7 -3 28.96 9.87
3 7 3 30.35 6.87
-3 -7 -3 21.1 5.91
3 7 3 22.81 5.33
-3 -7 -3 19.66 7.14
3 7 4 91.69 10.53
-3 -7 -4 81.29 9.76
3 7 4 95.79 9.83
-3 -7 -4 63.06 10.3
-3 -7 -4 64.39 12.15
-3 -7 -5 3.35 6.02
-3 -7 -5 -7.77 9.02
-3 -7 -5 9.1 5.3
3 7 5 10.2 4.08
-3 -7 -5 6.97 6.1
-3 -7 -6 19.89 8.23
-3 -7 -6 19.39 6.17
-3 -7 -7 2.37 6.33
-3 -7 -7 12.24 4.63
-3 -7 -7 11.8 4.95
-3 -7 -7 0.01 8.39
-3 -7 -8 98.45 9.43
-3 -7 -8 81.54 9.06
-3 -7 -8 103.75 10
-3 -7 -8 114.13 15.86
-3 -7 -9 4.3 7.26
-3 -7 -9 12.72 4.84
-3 -7 -9 12.68 4.94
-3 -7 -10 1.85 11.05
-3 -7 -10 143.28 10.37
-3 -7 -10 142.69 11.11
-3 -7 -10 50.26 12.24
-3 -7 -11 3.72 6.99
-3 -7 -11 19.79 4.49
-3 -7 -11 3.64 10.45
-3 -7 -11 18.87 5.16
3 7 12 -3.74 5.16
-3 -7 -12 124.04 9.66
-3 -7 -12 1.23 9.68
-3 -7 -12 111.68 12.56
3 7 13 -4.38 4.92
-3 -7 -13 10.65 9.18
-3 -7 -13 13.01 3.82
3 7 14 3.07 4.11
-3 -7 -14 46.42 5.45
3 8 -7 5.21 3.22
-3 -8 7 8.74 3.49
-3 -8 6 4.37 5.37
3 8 -6 0.4 3.27
-3 -8 6 1.39 3.1
-3 -8 5 0.04 4.5
3 8 -5 -1.07 3.37
-3 -8 5 -0.02 3.56
-3 -8 4 5.98 6.68
3 8 -4 9.95 4.29
-3 -8 4 9.93 4.18
3 8 -3 51.85 7.46
-3 -8 3 59.27 7.41
-3 -8 2 16.7 8.58
3 8 -2 33.17 6.33
-3 -8 2 31.66 6.04
3 8 -1 111.81 10.34
-3 -8 1 113.68 9.87
-3 -8 1 102.1 9.57
-3 -8 0 9.85 8.17
-3 -8 0 8.09 4.04
-3 -8 -1 112.3 10.23
-3 -8 -1 68.08 12.69
-3 -8 -2 48.48 11.18
-3 -8 -2 23.07 6.04
-3 -8 -3 92.99 9.95
-3 -8 -3 132.71 16.08
-3 -8 -4 21.59 8.98
-3 -8 -4 11.04 5.27
-3 -8 -5 2.7 6.7
-3 -8 -5 8.06 4.2
-3 -8 -5 8.89 5.09
-3 -8 -5 -1.23 7.82
-3 -8 -6 9.82 7.07
-3 -8 -6 47.44 6.67
-3 -8 -6 37.15 6.97
-3 -8 -6 -1.37 7.73
-3 -8 -7 5.05 6.12
-3 -8 -7 17 4.52
-3 -8 -7 6.1 7.65
-3 -8 -7 20.35 5.23
-3 -8 -8 10.29 7.26
-3 -8 -8 14.08 4.43
-3 -8 -8 -3.41 7.32
-3 -8 -8 -1.97 9.49
-3 -8 -8 14.35 4.41
-3 -8 -9 46.64 6.02
-3 -8 -9 43.46 6.29
-3 -8 -10 -1.05 5.14
-3 -8 -10 2.93 2.66
-3 -8 -10 6.58 8.79
-3 -8 -10 1.46 3.05
-3 -8 -11 27.98 6.92
-3 -8 -11 70.59 6.04
3 8 11 -4.57 4.54
-3 -8 -11 -6.35 8.05
-3 -8 -11 71.49 6.74
-3 -9 2 10.81 5.33
-3 -9 1 24.9 6.54
3 9 -1 0.59 3.62
-3 -9 0 26.73 7.39
-3 -9 0 -0.1 5.9
-3 -9 -1 12.82 6.28
-3 -9 -1 1.11 5.96
-3 -9 -2 14.86 6.61
-3 -9 -2 14.52 3.18
-3 -9 -2 5.61 6.35
-3 -9 -3 0.58 4.62
-3 -9 -3 0.58 2.28
-3 -9 -3 -6.29 6.3
-3 -9 -4 9.97 5.67
-3 -9 -4 10.83 3.18
-3 -9 -4 4.6 6.11
-3 -9 -5 -1.62 4.98
-3 -9 -5 0.34 2.24
-3 -9 -5 1.22 5.79
-3 -9 -5 1.38 2.54
-3 -9 -6 15.05 5.78
-3 -9 -6 9.7 2.98
-3 -9 -6 3.64 5.79
-3 -9 -6 9.52 3.15
-3 -9 -7 0.77 2.12
-3 -9 -7 1.21 2.25
4 -6 -5 1.45 2.51
4 -6 -5 1.83 2.22
4 -6 -4 8.27 3.21
4 -6 -4 5.79 2.63
4 -6 -3 29.05 4.73
4 -6 -3 29.17 4.11
4 -6 -3 25.55 3.81
4 -6 -2 24.52 3.81
4 -6 -2 24.43 4.39
4 -6 -2 24.23 3.65
4 -6 -1 63.82 6.08
4 -6 -1 64.99 5.59
4 -6 0 3.62 3.03
4 -6 0 3.73 2.68
4 -6 0 4.76 2.59
4 -6 1 51.71 5.79
4 -6 1 56.16 5.1
4 -6 2 1.04 2.64
4 -6 2 0.1 1.81
4 -6 3 25.57 4.4
4 -5 -10 9.12 3.12
4 -5 -10 4.72 4.39
4 -5 -9 0.82 2.69
4 -5 -9 2.56 3.45
4 -5 -8 1.25 2.93
4 -5 -8 0.61 2.87
4 -5 -8 3.71 3.06
4 -5 -8 2.38 3.67
4 -5 -7 0.81 3.3
4 -5 -7 -1.51 3.02
4 -5 -7 -0.75 2.85
4 -5 -7 1.16 3.47
4 -5 -6 4.5 3.65
4 -5 -6 4.25 3.67
4 -5 -6 3.25 3.34
4 -5 -6 2.17 3.42
4 -5 -5 9.33 3.4
4 -5 -5 10.25 4.44
4 -5 -5 13.24 4.28
4 -5 -5 9.73 3.91
4 -5 -4 28.63 5.56
4 -5 -4 28.95 4.84
4 -5 -4 28.09 5.83
4 -5 -4 27.65 5.32
4 -5 -3 67.56 8.04
4 -5 -3 73.97 7.29
4 -5 -3 73.27 7.6
4 -5 -3 73.15 7.54
4 -5 -2 12.65 4.98
4 -5 -2 14.97 4.92
4 -5 -2 15.19 4.05
4 -5 -2 14.51 4.13
4 -5 -2 16.2 4.4
4 -5 -1 2.66 3.69
4 -5 -1 4.69 3.9
4 -5 -1 4.42 3.38
4 -5 -1 4.55 3.21
4 -5 0 161.88 11.77
4 -5 0 167.7 11.41
4 -5 0 171.91 10.59
4 -5 0 174.07 10.59
4 -5 1 31.09 6.46
4 -5 1 31.48 5.21
4 -5 1 30.91 5.5
4 -5 1 38.78 5.43
4 -5 2 48.91 7.12
4 -5 2 52.1 5.95
4 -5 3 36.18 6.41
4 -5 3 31.49 4.91
4 -5 4 15.88 4.94
4 -5 4 18.93 3.84
4 -5 5 -0.27 3.6
4 -5 5 -1.58 2.54
-4 5 -5 1.83 4.93
4 -5 6 27.53 5.18
4 -5 6 30.37 4.37
4 -5 7 2.15 2.87
4 -5 7 3.91 2.24
4 -5 8 50.37 5.49
4 -4 -13 1.95 9.39
4 -4 -12 48.64 8.14
4 -4 -12 39.59 10
4 -4 -11 6.97 3.18
4 -4 -11 6.81 6.65
4 -4 -10 73.4 7.17
4 -4 -10 77.73 7.29
4 -4 -10 80.86 8.69
4 -4 -9 22.97 5.05
4 -4 -9 27.53 5.28
4 -4 -9 30.11 6.23
4 -4 -8 39.74 6.28
4 -4 -8 41.76 6.21
4 -4 -8 41.64 7.19
4 -4 -7 5.02 4.34
4 -4 -7 5.23 3.82
4 -4 -7 2.7 3.79
4 -4 -7 4.88 4.67
4 -4 -6 25.79 5.71
4 -4 -6 26.02 5.86
4 -4 -6 24.85 5.7
4 -4 -6 14.54 5.16
4 -4 -5 7.29 4.42
4 -4 -5 2.03 3.1
4 -4 -5 5.87 3.91
4 -4 -5 7.27 4.36
4 -4 -4 2.91 3.75
4 -4 -4 6.98 4.87
4 -4 -4 5.15 3.42
4 -4 -4 5.47 4.32
4 -4 -4 7.57 4.11
4 -4 -3 99.57 10.14
4 -4 -3 93.83 10.09
4 -4 -3 94.36 8.54
4 -4 -3 85.11 8.99
4 -4 -3 105.37 9.67
4 -4 -2 132.26 11.39
4 -4 -2 126.52 11.24
4 -4 -2 133.34 9.95
4 -4 -2 110.32 9.77
4 -4 -2 142.79 10.88
4 -4 -1 66.78 8.54
4 -4 -1 69.95 8.74
4 -4 -1 65.75 7.4
4 -4 -1 64.87 7.6
4 -4 -1 70.34 8.07
4 -4 0 43.67 7.95
4 -4 0 42.22 6.99
4 -4 0 48.66 6.4
4 -4 0 43.04 6.37
4 -4 1 56.23 8.28
4 -4 1 59.98 7.81
4 -4 1 69.83 7.49
4 -4 1 61.01 7.43
4 -4 2 10.79 5.37
4 -4 2 10.8 4.16
4 -4 3 6.64 5.46
4 -4 3 13.25 4.21
4 -4 4 71.34 9
4 -4 5 -0.77 3.67
4 -4 6 13.51 5.18
4 -4 7 0.92 3.78
4 -4 7 -0.49 3.6
4 -4 8 3.78 3.82
4 -4 8 0.5 3
4 -4 8 -1.98 3.46
-4 4 -8 -2.7 5.38
4 -4 9 107.99 8.61
4 -4 9 108.17 8.49
4 -4 10 63.85 6.41
4 -4 11 24.62 4.19
-4 4 -11 -1.4 3.97
4 -3 -14 31.13 8.15
4 -3 -13 107.45 11.74
4 -3 -13 105.55 7.83
4 -3 -13 95.27 14.4
4 -3 -12 7.94 8.79
4 -3 -12 2.81 2.67
4 -3 -11 186.75 13.23
4 -3 -11 185.74 11.4
4 -3 -11 191.25 14.48
4 -3 -10 -4.38 6.74
4 -3 -10 1.32 3.22
4 -3 -10 -0.73 5.35
4 -3 -9 101.51 9.09
4 -3 -9 94.14 9.07
4 -3 -9 90.15 8.5
4 -3 -9 99.36 10.29
4 -3 -8 4.73 3.9
4 -3 -8 -0.11 3.24
4 -3 -8 0.41 3.12
4 -3 -8 0.11 4.28
4 -3 -7 39.95 6.76
4 -3 -7 44.6 6.42
4 -3 -7 43.72 7.97
4 -3 -7 42.93 7.01
4 -3 -7 45.36 6.6
4 -3 -7 38.53 7.17
4 -3 -6 40.17 6.91
4 -3 -6 34.15 6.71
4 -3 -6 39.29 6.23
4 -3 -6 36.51 6.68
4 -3 -6 38.01 7
4 -3 -6 32.49 6.11
4 -3 -6 37.77 6.96
4 -3 -5 20.67 5.43
4 -3 -5 17.44 5.12
4 -3 -5 22.55 5.63
4 -3 -5 20.72 6.74
4 -3 -5 21.33 5.52
4 -3 -5 19.35 4.82
4 -3 -4 30.95 6.57
4 -3 -4 28.24 6.21
4 -3 -4 31.83 7.01
-4 3 4 31.91 6.25
4 -3 -4 32.07 6.88
4 -3 -4 23.58 5.5
4 -3 -4 27.23 5.59
4 -3 -3 322.17 17.32
4 -3 -3 311.63 16.62
4 -3 -3 311.04 16.53
4 -3 -3 317.37 16.22
4 -3 -3 325.17 17.28
-4 3 3 344.45 18.09
4 -3 -3 338.52 16.13
-4 3 2 2.82 3.78
4 -3 -2 1.75 3.01
-4 3 1 200.93 13.99
4 -3 -1 223.4 13.2
-4 3 0 35.43 6.86
4 -3 0 33.45 5.79
-4 3 -1 584.03 23.55
4 -3 1 604 21.45
4 -3 2 39.33 7.35
-4 3 -2 37.71 7
4 -3 2 37.75 5.94
4 -3 2 42.83 6.36
4 -3 3 79.44 9.45
-4 3 -3 81.18 9.2
4 -3 3 69.86 7.57
4 -3 3 85.5 8.6
4 -3 4 171.13 13.3
4 -3 4 161.73 12.4
-4 3 -4 153.34 12.28
4 -3 4 160.99 11.14
4 -3 4 168.02 11.64
4 -3 5 -0.89 4.49
4 -3 5 1.64 4.14
-4 3 -5 -0.14 2.94
-4 3 -5 -0.69 5.98
4 -3 5 1.93 3.17
4 -3 5 0.34 2.87
4 -3 6 17.39 5.72
4 -3 6 20.47 6.09
-4 3 -6 25.19 5.72
4 -3 6 20.09 4.65
4 -3 6 21.55 4.88
4 -3 7 139.12 11.65
4 -3 7 127.05 10.88
4 -3 7 135.03 11.56
4 -3 8 10.38 4.68
4 -3 8 11.54 4.97
-4 3 -8 -1.71 6.09
4 -3 9 49.74 7.2
4 -3 9 56.57 7.88
4 -3 10 8.52 4.66
4 -3 10 13.68 5.22
4 -3 10 -2.48 4.94
-4 3 -10 -5.6 5.98
-4 3 -10 3.38 5.5
-4 3 -10 15.34 4.66
4 -3 11 56.9 7.26
4 -3 11 3.66 4.87
-4 3 -11 4.81 5.55
-4 3 -11 56.43 6.8
4 -3 12 41.7 6.02
-4 3 -12 42.29 5.86
4 -3 13 30.19 4.81
-4 3 -13 30.95 4.71
4 -2 -15 8.31 5.85
4 -2 -15 10.23 3.39
4 -2 -14 56.41 10.58
4 -2 -14 59.51 6.63
4 -2 -13 72.15 11.88
4 -2 -13 75.01 7.72
4 -2 -13 71.62 16.94
4 -2 -12 69.22 12.14
4 -2 -12 75.76 8.12
4 -2 -12 68.09 15.66
4 -2 -11 46.84 9.77
4 -2 -11 61.1 7.53
4 -2 -11 49.57 12.33
4 -2 -10 77.95 9.89
4 -2 -10 85.66 8.85
4 -2 -10 77.4 10.99
4 -2 -9 -0.39 2.51
4 -2 -9 -0.68 5.65
4 -2 -9 1.82 2.96
4 -2 -9 0.29 4.97
4 -2 -9 -0.29 4.91
4 -2 -8 2.09 2.42
4 -2 -8 -1.92 5.13
4 -2 -8 5.08 3.39
4 -2 -8 1.53 4.46
4 -2 -8 1.69 3.06
4 -2 -8 0 3.99
4 -2 -7 -0.71 3.13
4 -2 -7 1.22 2.63
4 -2 -7 0.98 2.87
4 -2 -7 -3.06 5.41
4 -2 -7 4.2 3.75
4 -2 -7 1.86 4.21
4 -2 -6 24.37 6.43
4 -2 -5 91.43 9.88
4 -2 -4 181.31 13.11
4 -2 -3 55.02 8.83
4 -2 -2 1114.93 29.07
4 -2 -2 1226.5 28.25
4 -2 -1 105.25 8.6
4 -2 0 264.24 13.3
4 -2 1 43.94 6.02
4 -2 2 159.36 10.73
-4 2 -3 21.58 4.89
4 -2 3 16.64 4.19
-4 2 -4 0.01 3.09
-4 2 -4 0.79 2.46
4 -2 4 -0.1 2.37
-4 2 -5 11.56 4.32
-4 2 -5 9.52 3.77
4 -2 5 11.68 4.07
-4 2 -6 289.32 15.72
-4 2 -6 317.16 17.45
4 -2 6 309.68 15.53
-4 2 -7 21.68 5.31
-4 2 -7 21.04 5.32
4 -2 7 24.34 5.76
4 -2 7 28.7 6.91
4 -2 7 21.27 4.99
4 -2 7 22.65 5.15
-4 2 -8 156.66 12.09
-4 2 -8 170.39 13.36
4 -2 8 166.75 12.7
4 -2 8 156.71 12.71
-4 2 -8 158.9 12.13
4 -2 8 154.14 10.63
4 -2 8 183.53 12.26
-4 2 -9 43.63 7.26
-4 2 -9 34.19 6.54
4 -2 9 30.16 6.54
4 -2 9 43.71 7.94
4 -2 9 1.78 5.36
-4 2 -9 6.72 6.89
4 -2 9 39.37 6.28
4 -2 10 291.11 16.34
4 -2 10 304.1 17.02
-4 2 -10 0.71 6.19
-4 2 -10 301.18 16.44
4 -2 11 26.19 6.41
4 -2 11 33.09 6.94
4 -2 11 -1.66 5.31
4 -2 11 -5.83 6.89
-4 2 -11 -1.33 5.86
-4 2 -11 25.29 5.87
4 -2 12 45.66 6.96
4 -2 12 56.36 7.86
4 -2 12 -0.69 4.89
-4 2 -12 -3.19 5.78
4 -2 12 -1.33 5.94
-4 2 -12 50.59 7.46
-4 2 -12 39.51 9.46
4 -2 13 8.42 4
-4 2 -13 10.97 4.68
4 -2 13 4.82 5.04
-4 2 -13 9.76 6.01
4 -2 13 3.3 5.78
-4 2 -13 6.08 5.84
4 -2 14 65.49 6.88
4 -2 14 0.5 4.16
4 -2 14 2.85 5.12
-4 2 -14 63.16 6.77
-4 2 -14 80.17 9.96
-4 2 -15 -3.05 4.1
4 -2 15 3.49 2.84
4 -2 15 -0.97 3.62
-4 2 -15 1.43 2.79
-4 2 -15 2.97 4.63
4 -1 -16 53.27 5.77
4 -1 -15 0.36 5.45
4 -1 -15 4.22 3.15
4 -1 -14 146.47 12.13
4 -1 -14 170.88 11.4
4 -1 -13 1.78 9.36
4 -1 -13 1.69 3.71
4 -1 -12 136.31 14.64
4 -1 -12 149.55 11.45
4 -1 -12 152.08 20.52
4 -1 -11 103.42 12.74
4 -1 -11 106.45 10.07
4 -1 -11 115.84 17.79
4 -1 -10 5.76 3.74
4 -1 -10 9.08 3.37
4 -1 -10 10.6 8.55
4 -1 -10 6.93 4.06
4 -1 -10 18.2 12.09
4 -1 -9 189.64 11.9
4 -1 -9 177.03 12.41
4 -1 -9 187.33 13.82
4 -1 -9 199.9 13.17
4 -1 -9 183.07 14.71
4 -1 -8 1.64 2.34
4 -1 -7 158.89 10.24
4 -1 -7 160.32 11.74
4 -1 -6 2.91 2.1
4 -1 -6 2.94 5.11
4 -1 -5 71.22 8.6
4 -1 -4 371.56 16.67
4 -1 -4 372.36 15.76
4 -1 -3 166.05 12.24
4 -1 -3 136.53 9.66
4 -1 -2 440.86 16.47
4 -1 -2 461.51 15.75
-4 1 1 394.7 15.36
4 -1 -1 386.26 15.12
4 -1 -1 381.21 14.38
-4 1 0 617.68 19.32
-4 1 0 628.45 19.48
4 -1 0 600.53 18.58
4 -1 0 607.53 18.25
-4 1 -1 709.62 21.18
-4 1 -1 721.98 21.38
4 -1 1 701.55 19.61
4 -1 1 681.15 19.58
-4 1 -2 431.69 16.97
-4 1 -2 429.7 17.07
4 -1 2 448.49 15.52
4 -1 2 434.69 16.02
-4 1 -3 4.06 2.82
-4 1 -3 5.21 2.8
4 -1 3 5.91 2.77
-4 1 -4 10.22 3.52
-4 1 -4 12.09 4.03
4 -1 4 11.82 3.57
-4 1 -5 27.8 5.4
-4 1 -5 29.76 5.75
4 -1 5 27.5 4.89
-4 1 -6 42.21 6.63
-4 1 -6 43.9 6.86
4 -1 6 39.65 5.92
-4 1 -7 683.77 24.22
-4 1 -7 684.17 24.97
4 -1 7 675.74 22.39
-4 1 -8 4.64 3.22
-4 1 -8 3.91 3.74
4 -1 8 4.46 2.89
-4 1 -9 140.99 11.86
-4 1 -9 142.55 12.09
4 -1 9 136.2 11.53
4 -1 9 123.74 11.56
-4 1 -9 132.13 11.31
4 -1 9 139.6 10.66
-4 1 -10 6.42 4.11
4 -1 10 6.57 4.92
4 -1 10 8.33 5.46
-4 1 -10 1.39 4.41
-4 1 -10 7.25 4.49
4 -1 10 6.61 3.73
4 -1 11 185.85 13.58
4 -1 11 209.32 14.62
-4 1 -11 187.3 13.59
-4 1 -11 223.9 19.29
-4 1 -12 15.06 5.74
4 -1 12 16.81 5.8
4 -1 12 16 5.56
-4 1 -12 -2.38 6.29
-4 1 -12 16.56 8.24
4 -1 13 142.34 11.31
4 -1 13 160.12 11.79
-4 1 -13 3.25 5.96
-4 1 -13 134.1 11.11
-4 1 -13 27.86 10.49
4 -1 14 2.3 3.97
-4 1 -14 2 3.36
-4 1 -14 5.91 4.47
4 -1 14 -4.51 5.9
-4 1 -14 0.54 5.08
4 -1 15 9.21 3.9
4 -1 15 0.05 4.42
4 -1 15 -0.42 5.28
-4 1 -15 8.51 3.97
-4 1 -15 4.57 6.23
4 -1 16 -0.09 3.78
-4 1 -16 3.58 4.06
4 -1 16 -0.63 4.49
-4 1 -16 10.92 3.58
-4 1 -16 14.83 6
4 0 -16 9.75 3.55
4 0 -15 19.85 4.74
4 0 -14 1.99 5.36
4 0 -14 5.16 4.13
4 0 -13 320.1 16.57
4 0 -13 352.83 17.21
4 0 -12 5.85 8.17
4 0 -12 2.19 3.9
4 0 -11 101.26 9.18
4 0 -11 96.26 9.53
4 0 -11 90.38 12.01
4 0 -11 89.02 9.2
4 0 -11 91.09 9.73
-4 0 11 82.47 11.02
4 0 -10 5.93 3.88
4 0 -10 1.39 3.7
4 0 -10 2.61 3.12
4 0 -10 16.66 10.32
4 0 -10 1.06 3.3
-4 0 10 0.72 6.08
-4 0 10 6.52 5.25
4 0 -10 5.48 13.78
4 0 -9 251.72 13.51
4 0 -9 232.85 14.47
-4 0 9 264.32 27.01
-4 0 9 247.46 17.34
4 0 -8 3.21 3.41
4 0 -8 4.42 3.07
-4 0 8 8.28 6.62
4 0 -7 6.98 3.2
4 0 -7 8.19 3.18
-4 0 7 10.12 7.52
4 0 -6 11.99 3.8
4 0 -6 9.76 2.93
-4 0 6 4.55 6.92
4 0 -6 11.14 3.22
4 0 -5 205.06 10.34
4 0 -5 183.87 11.17
4 0 -5 181.71 10.76
4 0 -4 39.27 5.34
4 0 -4 38 5.3
4 0 -3 478.29 16.57
4 0 -3 471.81 16.31
-4 0 2 44.01 5.4
-4 0 2 44.06 5.15
4 0 -2 43.51 5.24
4 0 -2 41.68 5.16
-4 0 1 1343.1 27.62
-4 0 1 1314.37 26.74
4 0 -1 1387.28 26.74
4 0 -1 1364.04 26.87
-4 0 0 202.61 11
-4 0 0 203.74 10.75
4 0 0 190.04 10.02
-4 0 -1 376.28 14.93
-4 0 -1 372.68 14.69
4 0 1 388.9 14.01
-4 0 -2 337.37 14.51
-4 0 -2 329.82 14.13
4 0 2 368.17 13.6
-4 0 -3 245.31 12.74
-4 0 -3 233.25 12.15
4 0 3 240.34 10.93
4 0 3 250.02 11.39
-4 0 -4 8.31 3.11
-4 0 -4 10.63 3.8
4 0 4 10.93 3.15
-4 0 -5 6.55 3.59
-4 0 -5 5.51 3
4 0 5 8.44 2.99
-4 0 -6 246.27 14.02
-4 0 -6 223.26 13.37
4 0 6 240.56 12.34
-4 0 -7 105.62 9.57
-4 0 -7 109.63 9.85
4 0 7 113.73 9.05
-4 0 -8 173.18 12.4
-4 0 -8 174.14 12.47
-4 0 -9 95.23 9.67
-4 0 -9 90.32 9.32
-4 0 -10 309.43 17.24
-4 0 -10 296.63 16.93
4 0 10 313.77 17.16
-4 0 -10 293.5 16.56
-4 0 -10 348.3 23.91
-4 0 -11 317.14 17.94
-4 0 -11 292.65 16.87
4 0 11 285.54 16.64
4 0 11 -1.56 7.59
-4 0 -11 291.99 15.51
-4 0 -11 320.27 17.6
-4 0 -11 67.13 12.75
-4 0 -12 25.6 9.73
-4 0 -12 24.41 5.9
4 0 12 18.9 5.57
-4 0 -12 17.78 5.19
-4 0 -12 5.64 6.65
-4 0 -13 17.43 9.64
-4 0 -13 9.78 4.88
4 0 13 19.43 5.86
-4 0 -13 18.46 5.32
-4 0 -13 0.82 5.77
4 0 14 48.4 7.14
-4 0 -14 51.42 7.19
-4 0 -14 48.36 7.31
-4 0 -15 3.94 3.39
-4 0 -15 4.44 3.75
-4 0 -15 1.12 6.59
-4 0 -16 7.67 3.28
-4 0 -16 9.55 3.57
-4 0 -16 7.2 6.99
4 0 17 2.2 3.9
-4 0 -17 19.04 6.54
4 1 -16 15.15 3.73
4 1 -16 16.41 3.87
-4 -1 16 11.26 20.02
4 1 -15 63.52 6.99
4 1 -15 58.06 6.69
4 1 -14 30.74 5.67
4 1 -14 25.75 5.33
4 1 -13 1.79 3.82
4 1 -13 2.69 4.17
4 1 -13 -0.67 3.15
4 1 -12 177.13 12.82
4 1 -12 194.89 13.22
4 1 -12 194.42 12.97
4 1 -11 5.07 4.02
4 1 -11 3.41 3.68
4 1 -11 5.59 3.99
4 1 -11 0.64 5.41
4 1 -11 3.11 3.02
4 1 -11 5.2 3.98
-4 -1 11 3.43 8.12
-4 -1 11 5.86 6.99
4 1 -10 251.45 14.91
4 1 -10 286.17 14.97
4 1 -10 294.32 16.28
4 1 -10 289.61 15.65
4 1 -10 254.06 14.93
4 1 -10 295.23 15.85
4 1 -10 270.03 16.2
-4 -1 10 258.01 25.83
4 1 -9 4.27 3.58
4 1 -9 0.44 2.23
-4 -1 9 -1.3 7.57
-4 -1 9 -3.78 5.73
4 1 -8 9.14 4.33
4 1 -8 7.44 2.94
-4 -1 8 8.92 8.64
-4 -1 8 1.96 5
4 1 -7 37 5.27
4 1 -7 34.61 5.92
-4 -1 7 24.96 7.12
4 1 -6 15.5 4.42
4 1 -6 13.81 3.28
-4 -1 6 8.32 7.66
-4 -1 6 4.57 4.86
4 1 -5 2.99 2.83
4 1 -5 5.32 2.32
-4 -1 5 -0.16 3.94
4 1 -5 5.09 2.48
4 1 -4 852.23 23.33
4 1 -4 928.32 22.38
4 1 -3 48.76 5.82
4 1 -3 53.32 5.59
4 1 -2 1237.88 26.64
4 1 -2 1240.81 25.3
4 1 -1 12.57 3.17
4 1 -1 12.84 3.04
-4 -1 0 674.06 19.32
-4 -1 0 707.64 19.34
4 1 0 680.64 19.24
4 1 0 704.38 17.64
4 1 0 685.05 18.45
-4 -1 -1 198.18 10.67
-4 -1 -1 192.97 10.31
4 1 1 196.31 9.61
4 1 1 212.44 10.37
-4 -1 -2 190.96 10.7
-4 -1 -2 192.21 10.59
4 1 2 180.89 9.4
4 1 2 183.41 9.54
-4 -1 -3 32.37 5.02
-4 -1 -3 41.1 5.35
4 1 3 30.62 4.46
4 1 3 34.07 4.49
-4 -1 -4 12.22 3.55
-4 -1 -4 14.51 3.78
4 1 4 15.12 3.65
4 1 4 17.28 3.53
-4 -1 -5 2.56 2.46
-4 -1 -5 1.94 2.75
4 1 5 3.52 2.4
4 1 5 2.32 2.23
-4 -1 -6 357.95 16.1
-4 -1 -6 352.11 15.7
4 1 6 358.16 14.49
-4 -1 -7 221.9 13.34
-4 -1 -7 218.12 12.91
4 1 7 207.68 11.32
-4 -1 -8 1198.61 31.08
-4 -1 -8 1234.84 31.07
4 1 8 1234.95 27.74
-4 -1 -9 57.83 7.56
-4 -1 -9 69.23 8.05
4 1 9 62.92 6.8
-4 -1 -10 383.54 18.63
-4 -1 -10 386.84 18.37
4 1 10 376.77 15.94
-4 -1 -11 9.8 8.48
-4 -1 -11 12.46 4.5
4 1 11 17.93 5.93
-4 -1 -11 14.42 5.06
-4 -1 -11 8.45 4.34
-4 -1 -12 334.91 17.87
-4 -1 -12 313.05 17.15
4 1 12 311.02 17.26
-4 -1 -12 310.77 16.62
-4 -1 -12 301.45 16.78
-4 -1 -13 19 9.45
-4 -1 -13 16.83 5.71
4 1 13 29.56 6.43
-4 -1 -13 15.36 4.97
4 1 13 0.06 5.65
-4 -1 -13 21.02 5.76
-4 -1 -14 101.52 10.39
-4 -1 -14 97.26 9.62
-4 -1 -14 90.82 9.48
-4 -1 -14 90.84 15.29
-4 -1 -15 8.78 8.57
-4 -1 -15 19.8 5.67
-4 -1 -15 13.36 4.94
-4 -1 -16 9.67 7.32
-4 -1 -16 5.64 4.24
-4 -1 -16 3.54 3.82
-4 -1 -17 19.27 4.5
-4 -1 -17 18.59 4.08
-4 -1 -17 27.4 7.6
4 2 -16 7.51 3.47
4 2 -15 26.44 5.38
4 2 -14 77.63 8.6
4 2 -14 86.72 8.53
4 2 -14 81.66 8.35
4 2 -13 10.93 5.24
4 2 -13 18.52 5.58
4 2 -13 15.37 5
4 2 -12 300.26 17.1
4 2 -12 292.87 16.28
4 2 -12 323.66 16.85
4 2 -11 23.25 5.67
4 2 -11 26.48 6.01
4 2 -11 23.08 5.82
4 2 -11 25.51 5.29
4 2 -11 31 6.67
4 2 -11 20.44 4.92
-4 -2 11 8.81 9.15
4 2 -10 -0.89 3.08
4 2 -10 6.42 4.26
4 2 -10 -1.28 3.87
4 2 -10 3.92 3.48
4 2 -10 3.17 4.3
4 2 -10 3.2 3.18
-4 -2 10 2.1 9.77
-4 -2 10 5.48 9.07
4 2 -9 154.64 11.19
4 2 -9 149.02 10.75
4 2 -9 156.83 12.21
4 2 -8 4.27 3.2
4 2 -8 6.76 3.2
4 2 -8 2.95 2.85
-4 -2 8 -0.37 7.02
4 2 -7 146.55 10.18
4 2 -7 154.11 10.26
4 2 -7 122.77 9.06
4 2 -7 131.59 10.61
4 2 -6 49.48 5.91
4 2 -6 52.78 6.25
4 2 -6 45.29 6.43
-4 -2 6 30.47 7.44
4 2 -5 450.24 15.98
4 2 -5 426.79 16.16
4 2 -5 411.24 17.18
4 2 -4 135.82 8.45
4 2 -4 120.53 8.52
4 2 -4 127.71 9.53
-4 -2 4 155.12 12.14
4 2 -4 138.84 8.66
4 2 -3 441.1 15.65
4 2 -3 429.82 16.69
4 2 -3 439.16 15.13
-4 -2 2 283.7 14.66
4 2 -2 278.17 12.27
4 2 -2 278.86 13.25
4 2 -2 274.14 11.91
4 2 -1 694.55 18.7
4 2 -1 643.69 19.61
4 2 -1 645.39 18.2
4 2 0 369.07 13.41
4 2 0 354 14.5
4 2 0 346.9 13.32
-4 -2 -1 56.15 6.03
4 2 1 59.63 5.64
4 2 1 58.26 5.52
4 2 1 55.3 5.53
4 2 2 184.89 9.64
-4 -2 -2 178.61 10.14
4 2 2 190.44 9.53
-4 -2 -2 175.84 10
4 2 2 186.33 9.81
-4 -2 -3 102.83 7.97
-4 -2 -3 109.28 8.16
4 2 3 103.34 7.5
4 2 3 107.42 7.72
-4 -2 -4 448.2 16.64
4 2 4 426.85 15.13
-4 -2 -4 437.47 15.97
4 2 4 430.24 15.01
4 2 5 134.89 8.97
-4 -2 -5 130.3 9.31
-4 -2 -5 127.33 9.06
-4 -2 -6 230.58 12.58
-4 -2 -6 244.57 12.72
4 2 6 242.74 11.95
-4 -2 -7 559 20.04
-4 -2 -7 545.55 19.41
4 2 7 522.48 17.89
-4 -2 -8 126.68 10.1
4 2 8 121.49 8.95
4 2 9 1055.17 26.24
-4 -2 -10 3.16 3.24
4 2 10 6.02 3.18
4 2 11 179.38 15.98
-4 -2 -11 453.96 19.54
-4 -2 -11 434.56 19.43
-4 -2 -11 448.87 19.35
-4 -2 -11 181.33 17.82
-4 -2 -12 51.36 7.81
-4 -2 -12 73.6 8.36
-4 -2 -13 91.81 10.24
-4 -2 -13 90.01 9.75
-4 -2 -13 90.81 14.39
-4 -2 -14 5.02 8.25
-4 -2 -14 -0.4 4.77
-4 -2 -14 4.52 4.77
-4 -2 -15 -0.99 7.94
-4 -2 -15 4.4 4.65
-4 -2 -15 2.72 4.22
4 2 15 -0.12 5.41
-4 -2 -16 7.45 7.18
-4 -2 -16 10.32 4.85
-4 -2 -16 14.75 4.27
-4 -2 -17 58.39 7.07
-4 -2 -17 56.69 6.3
-4 -2 -17 51.83 9.8
4 3 -15 74.63 7.5
4 3 -15 72.15 7.07
4 3 -15 73.8 7.09
4 3 -14 10.12 4.31
4 3 -14 7.22 4
4 3 -14 7.49 4.37
4 3 -13 117.03 10.66
4 3 -13 126 10.63
4 3 -13 120.15 10.47
4 3 -12 38.62 6.89
4 3 -12 26.87 6.35
4 3 -12 31.4 6.63
4 3 -11 429.49 20.5
4 3 -11 418.98 19.97
4 3 -11 419.39 19.86
4 3 -10 7.05 3.65
4 3 -10 1.91 4.27
4 3 -10 8.29 4.97
4 3 -10 9.25 4.03
4 3 -10 6.75 5.07
-4 -3 10 0.9 11.04
4 3 -9 -0.22 3.1
4 3 -9 4.44 4.56
4 3 -9 2.81 4.33
4 3 -9 -0.01 2.7
4 3 -9 1.24 3.66
-4 -3 9 5.89 11.76
4 3 -8 3 3.24
4 3 -8 3.09 3.29
-4 -3 8 5.19 9.32
4 3 -7 165.42 11.31
4 3 -7 159.7 10.86
4 3 -7 158.19 11.55
-4 -3 7 180.93 16.71
4 3 -6 6.4 3.72
4 3 -6 7.68 3.26
4 3 -6 6.31 3.5
-4 -3 6 7.28 7.78
4 3 -5 23.31 4.97
4 3 -5 23.01 4.3
4 3 -5 20.47 4.39
-4 -3 5 19.66 7.71
4 3 -4 104.9 8.02
4 3 -4 100.8 8.22
4 3 -4 102.34 8.77
-4 -3 4 108.96 11.78
4 3 -3 971.94 22.89
4 3 -3 914.95 23.62
4 3 -3 955.43 25.5
4 3 -2 14.53 3.81
4 3 -2 16.86 3.75
-4 -3 2 18.88 5.83
4 3 -2 15.83 3.6
4 3 -1 780.94 20.85
4 3 -1 771.49 22.26
4 3 -1 750.08 20.19
4 3 0 335.48 13.35
-4 -3 0 353.81 16.87
-4 -3 -1 398.98 15.04
4 3 1 388.95 14.04
-4 -3 -1 387 17.54
4 3 1 368.59 13.71
-4 -3 -2 9.91 3.16
4 3 2 8.65 2.71
-4 -3 -2 11.31 4.24
4 3 2 9.41 2.94
-4 -3 -3 61.54 6.23
4 3 3 56.73 5.83
-4 -3 -3 54.79 7.2
-4 -3 -4 11.67 3.35
4 3 4 12.04 3.46
-4 -3 -4 11.82 4.41
4 3 5 154.92 9.87
4 3 6 543.14 18.41
4 3 7 293.49 13.86
4 3 8 646.9 20.81
4 3 9 108.65 8.95
4 3 10 82.4 7.99
-4 -3 -10 82.08 8.77
-4 -3 -11 57.23 7.74
-4 -3 -11 54.91 7.55
-4 -3 -12 112.98 10.33
-4 -3 -12 120.3 10.76
-4 -3 -13 31.21 9.92
-4 -3 -13 29.38 6.21
-4 -3 -14 7.53 8.7
-4 -3 -14 -0.59 4.91
-4 -3 -14 -2.53 4.36
-4 -3 -15 1.19 6.78
-4 -3 -15 0.88 4.72
-4 -3 -15 1.94 3.89
-4 -3 -16 16.31 7.98
-4 -3 -16 23.53 5.8
-4 -3 -16 24.74 5.31
4 3 16 1.42 4.88
-4 -3 -17 -0.94 5.47
-4 -3 -17 -1.92 3.82
-4 -3 -17 -0.38 2.76
4 4 -15 7.09 3.2
4 4 -14 140.15 9.56
4 4 -14 128.65 9.37
4 4 -14 132.13 9.55
4 4 -13 6.66 4.08
4 4 -13 8.83 4.52
4 4 -13 11.77 4.88
4 4 -12 78.18 8.74
4 4 -12 76.81 8.92
4 4 -12 78.3 9.04
4 4 -11 1.19 4.39
4 4 -11 2.38 4.58
4 4 -11 0.41 4.68
4 4 -10 27.53 5.99
4 4 -10 29.38 6.87
4 4 -10 27.1 6.88
4 4 -9 8.08 4.66
4 4 -9 11.99 4.78
4 4 -9 8.63 3.71
-4 -4 9 7.57 11.21
4 4 -9 3.2 4.34
-4 -4 9 11.48 4.65
4 4 -8 2.1 4.09
4 4 -8 7.52 5.02
4 4 -8 -0.53 3.25
4 4 -8 1.48 4.11
4 4 -8 -0.56 2.89
-4 -4 8 1.91 3.92
-4 -4 8 -5.04 11.16
4 4 -7 98.46 9.8
4 4 -7 85.03 9.26
4 4 -7 91.27 8.95
4 4 -7 98.67 9.25
4 4 -7 85.08 9.18
-4 -4 7 81.05 13.7
-4 -4 6 365.93 21.94
4 4 -6 318.96 15.75
4 4 -6 321.88 15.99
4 4 -5 21.56 4.48
4 4 -5 21.95 4.92
-4 -4 5 28.2 9.06
4 4 -4 329.99 15.13
4 4 -4 303.52 15.09
-4 -4 4 329.92 19.46
4 4 -3 20.94 4.3
4 4 -3 23.45 4.88
-4 -4 3 11.19 6.21
4 4 -3 19.73 4.31
4 4 -2 714.31 21.9
-4 -4 2 779.01 27.87
4 4 -1 215.37 11.96
-4 -4 1 226.56 15.16
4 4 0 522.05 17.95
-4 -4 0 520.66 22.52
4 4 1 29.06 4.74
4 4 1 27.43 4.52
-4 -4 -1 35.27 6.93
4 4 2 113.29 8.41
-4 -4 -2 110.31 10.93
4 4 3 53.41 6.13
-4 -4 -3 64.34 8.88
4 4 4 2.03 2.37
-4 -4 -4 1.46 3.97
4 4 5 50.14 6.3
-4 -4 -5 31.58 7
4 4 6 180.15 11.38
-4 -4 -6 139.65 12.97
4 4 7 126.01 9.68
-4 -4 -7 90.05 10.75
4 4 8 139.58 10.49
-4 -4 -8 84.73 10.85
4 4 9 153.69 10.9
-4 -4 -9 152.7 11.65
-4 -4 -10 290.18 16.12
4 4 10 260.92 14.15
-4 -4 -10 292.61 16.29
-4 -4 -11 0.41 5.88
-4 -4 -11 2.3 3.02
4 4 11 -2.38 5.9
-4 -4 -11 1.72 3.67
-4 -4 -12 84.27 9.24
-4 -4 -12 107.84 14.95
-4 -4 -13 1.2 7.42
4 4 13 3.1 5.89
-4 -4 -13 2.51 4.12
-4 -4 -14 33.62 10.74
-4 -4 -14 27.95 5.85
-4 -4 -15 1.22 7.33
-4 -4 -15 4.75 4.58
-4 -4 -15 4.65 3.43
-4 -4 -16 -2.26 5.41
-4 -4 -16 3.48 4.09
-4 -4 -16 9.85 3.75
-4 -4 -17 8.58 5.13
4 4 17 -0.57 3.97
4 5 -13 22.38 4.75
4 5 -13 21.65 4.67
-4 -5 13 19.8 3.99
4 5 -12 9.74 3.77
4 5 -12 8.28 4.21
4 5 -12 4.03 4.21
-4 -5 12 5.21 3.59
4 5 -11 147.91 10.63
4 5 -11 136.16 11.01
4 5 -11 148.44 11.37
-4 -5 11 125.24 9.83
4 5 -10 9.32 4.43
4 5 -10 7.47 4.8
4 5 -10 12.22 5.2
4 5 -10 8.93 4.79
-4 -5 10 9.18 4.3
4 5 -9 29.67 6.02
4 5 -9 22.81 6.01
4 5 -9 19.29 5.69
4 5 -9 24.12 6.18
-4 -5 9 21.32 5.85
4 5 -8 3.54 4.37
4 5 -8 1.2 4.04
4 5 -8 8.95 4.46
-4 -5 8 4.57 4.52
4 5 -7 2.98 4.38
4 5 -7 1.65 4.59
4 5 -7 -1.11 2.67
4 5 -7 -0.28 4.03
4 5 -7 2.41 3.28
-4 -5 7 2.24 3.88
-4 -5 7 1.37 4.88
4 5 -6 97.7 9.58
4 5 -6 76.5 9.73
4 5 -6 87.54 9.03
-4 -5 6 72.23 8.6
-4 -5 6 92.95 11.45
4 5 -5 36.98 6.18
4 5 -5 40.99 7.39
-4 -5 5 28.49 6.19
4 5 -5 34.26 6.34
-4 -5 5 42.99 7.32
-4 -5 5 35.15 7.79
4 5 -4 23.59 5
4 5 -4 27.79 5.79
-4 -5 4 21.35 6.33
4 5 -3 497.93 20.16
-4 -5 3 545.1 24.77
4 5 -2 165.37 11.59
-4 -5 2 177.65 14.72
4 5 -1 271.13 14.48
-4 -5 1 279.16 18.05
4 5 0 7.33 3.51
-4 -5 0 2.88 4.96
4 5 1 309.59 14.67
-4 -5 -1 301.1 18.77
4 5 2 2.58 2.58
-4 -5 -2 2 4.27
4 5 3 0.37 2.76
-4 -5 -3 1.69 5.01
4 5 4 2.22 2.95
-4 -5 -4 7.56 5.24
4 5 5 143.76 10.96
-4 -5 -5 106.88 12.5
4 5 6 5.86 3.45
-4 -5 -6 1.92 5.7
4 5 7 427.3 18.53
-4 -5 -7 259.2 19.27
-4 -5 -8 2.08 5.83
-4 -5 -8 5.58 3.5
4 5 8 4.09 4.96
-4 -5 -8 -1.74 3.43
4 5 8 2.39 3.38
-4 -5 -8 0.54 5.07
4 5 9 322.74 18.83
-4 -5 -9 279.82 15.63
4 5 9 298.06 15.6
-4 -5 -9 326.15 24.05
-4 -5 -9 321.59 16.74
-4 -5 -10 1.22 8.11
-4 -5 -10 2.12 3.29
4 5 10 3.08 5.01
4 5 10 -5.04 6.07
-4 -5 -10 1.22 3.96
-4 -5 -10 3.03 2.9
4 5 10 0.41 2.67
-4 -5 -10 -1.91 5.29
4 5 11 2.45 5.76
-4 -5 -11 60.04 11.67
-4 -5 -12 36.36 10.96
-4 -5 -12 21.33 5.19
4 5 13 -0.89 5.53
-4 -5 -13 56.24 12.58
-4 -5 -14 5.26 7.58
4 5 14 -1.74 5.24
-4 -5 -15 15.71 7.3
-4 -5 -15 7 4.15
-4 -5 -16 -0.33 4.97
-4 -5 -16 0.72 3.2
4 6 -12 7.02 3.35
-4 -6 12 0.99 2.27
4 6 -11 10.32 3.84
4 6 -11 11.39 4.05
4 6 -11 16.35 4.21
-4 -6 11 12.2 3.75
4 6 -10 31.42 5.8
4 6 -10 29.72 5.84
-4 -6 10 34.95 5.89
4 6 -9 -3.32 3.6
4 6 -9 -2.46 4.42
-4 -6 9 -0.54 3.62
4 6 -8 19.59 5.43
4 6 -8 15.52 5.65
-4 -6 8 20.92 5.77
4 6 -7 48.94 8.22
-4 -6 7 55.52 7.85
-4 -6 7 51.47 7.43
4 6 -6 51.35 8.59
-4 -6 6 59.96 8.36
-4 -6 6 59.21 8.23
4 6 -5 248.3 16.47
-4 -6 5 223.32 14.94
-4 -6 5 227.91 14.34
4 6 -4 46.04 6.83
4 6 -4 37.72 7.75
-4 -6 4 39.4 7.2
4 6 -4 44.26 7.04
-4 -6 4 44.54 7.49
-4 -6 4 38.95 8.03
4 6 -3 51.39 8.63
-4 -6 3 48.66 7.73
4 6 -3 51.16 7.46
-4 -6 3 54.87 7.99
-4 -6 3 50.73 9.06
4 6 -2 146.91 13.02
-4 -6 2 142.59 12.33
4 6 -2 142.97 11.47
-4 -6 2 147.62 11.64
-4 -6 2 172.01 15
4 6 -1 486.17 22.77
-4 -6 1 499.03 21.6
4 6 -1 465.98 19.9
-4 -6 1 497.04 20.55
-4 -6 1 517.58 25.45
4 6 0 78.26 9.98
-4 -6 0 80.35 9.43
4 6 0 68.59 7.86
-4 -6 0 65.95 8.2
-4 -6 0 79.91 11.03
4 6 1 105.73 11.13
-4 -6 -1 99.5 10.07
-4 -6 -1 85.28 8.99
-4 -6 -1 93.84 11.88
-4 -6 -2 10.76 7.16
4 6 2 7.45 4.9
-4 -6 -2 9.31 4.32
-4 -6 -2 6.08 4.33
4 6 2 6.62 3.34
-4 -6 -2 6.07 5.64
-4 -6 -3 4.95 6.53
4 6 3 6.52 4.97
-4 -6 -3 4.88 4.33
-4 -6 -3 3.02 3.35
4 6 3 5.66 3.51
-4 -6 -3 8.82 6.25
4 6 4 103.58 10.94
-4 -6 -4 96.68 9.81
-4 -6 -4 108.87 10.05
4 6 4 100.01 9.54
-4 -6 -4 79.9 11.88
-4 -6 -4 63.94 11.82
-4 -6 -5 5.65 7.66
4 6 5 6.84 5.66
-4 -6 -5 10.51 4.5
4 6 5 2.84 3.38
-4 -6 -5 2.46 6.04
4 6 6 231.7 15.93
-4 -6 -6 207.37 13.14
4 6 6 212.04 13.78
-4 -6 -6 241 20.61
-4 -6 -7 41.41 10.04
4 6 7 48.6 8.85
-4 -6 -7 42.83 6.81
-4 -6 -7 52.23 7.06
4 6 7 44.79 6.7
-4 -6 -7 36.11 8.71
4 6 8 264.97 17.31
-4 -6 -8 201.58 18.56
-4 -6 -9 39.77 11.03
4 6 9 32.92 7.64
4 6 10 251.53 16.55
-4 -6 -10 358.33 24.15
-4 -6 -11 7.52 7.59
-4 -6 -11 8.19 11.11
4 6 11 -3.97 5.84
-4 -6 -12 3.97 10.08
-4 -6 -12 15.12 7.99
4 6 12 1.14 5.28
-4 -6 -13 1.24 5.37
4 6 13 4.95 5.33
-4 -6 -13 -0.59 9.18
-4 -6 -14 -1.07 5.91
4 6 14 0.42 4.44
-4 -6 -14 5.85 8.51
-4 -6 -15 12.2 5.96
-4 -6 -15 7.25 3.72
4 7 -9 1.64 3.5
-4 -7 9 0 2.8
4 7 -8 59.82 7.46
-4 -7 8 68.97 7.18
-4 -7 8 60.48 6.59
4 7 -7 17.44 5.54
-4 -7 7 10.63 4.29
-4 -7 7 11.39 4.16
4 7 -6 121.69 11.06
-4 -7 6 108.17 9.87
-4 -7 6 119.78 9.85
4 7 -5 72.31 9.08
-4 -7 5 70.15 8.44
-4 -7 5 67.67 8.07
4 7 -4 192.74 14.39
-4 -7 4 189.28 13.51
-4 -7 4 187.49 12.51
4 7 -3 17.19 6.08
-4 -7 3 17.62 5.53
-4 -7 3 14.27 5.27
4 7 -2 136.4 12.45
-4 -7 2 145.89 12.04
-4 -7 2 138.13 10.95
4 7 -1 7.42 5.77
-4 -7 1 5.84 4.95
-4 -7 1 6.16 4.33
4 7 0 88.96 10.75
-4 -7 0 80.93 9.55
-4 -7 0 81.53 8.92
-4 -7 0 102.69 13.53
-4 -7 -1 9.69 7.15
4 7 1 10.95 5.98
-4 -7 -1 13.39 5.26
-4 -7 -1 8.76 4.5
4 7 2 122.7 12.03
-4 -7 -2 110.32 10.49
-4 -7 -2 115.49 10.14
-4 -7 -2 84.18 15.21
-4 -7 -3 9.06 7.6
4 7 3 17.44 6.59
-4 -7 -3 21.12 5.93
-4 -7 -4 0.87 5.98
4 7 4 18.07 6.57
-4 -7 -5 1.64 7.43
4 7 5 12.29 5.96
4 7 6 81.5 10.09
-4 -7 -6 64.66 12.56
-4 -7 -7 74.45 12.83
4 7 7 51.66 8.39
4 7 8 92.85 10.24
-4 -7 -8 103.22 9.07
4 7 9 67.32 8.79
-4 -7 -9 84.67 7.98
-4 -7 -10 5.44 7.09
-4 -7 -10 -5.89 10.32
4 7 11 -2.97 5.28
-4 -7 -11 -3.63 9.33
-4 -7 -12 2.67 5.56
-4 -7 -12 -7.04 9.03
4 7 12 0.11 4.47
-4 -7 -13 1.12 5.12
4 7 13 -0.42 4.07
-4 -7 -13 -5.94 7.82
4 8 -6 0.18 3.18
-4 -8 6 0.91 2.67
-4 -8 6 0.19 2.43
4 8 -5 27.2 5.26
-4 -8 5 33.96 5.39
-4 -8 5 35.21 4.79
4 8 -4 8.14 4.4
-4 -8 4 6.48 3.72
-4 -8 4 6.95 3.2
4 8 -3 17.08 4.99
-4 -8 3 13.78 4.77
-4 -8 3 23.01 4.66
-4 -8 2 5.07 5.58
4 8 -2 5.46 4.66
-4 -8 2 3.72 4.03
4 8 -1 61.7 8.01
-4 -8 1 60.33 7.49
-4 -8 1 83.47 11.12
-4 -8 0 1.98 6.09
4 8 0 -0.19 4.23
-4 -8 0 2.09 3.69
-4 -8 -1 -0.77 5.58
4 8 1 1.93 4.06
-4 -8 -1 4.51 4.12
-4 -8 -2 8.69 9.26
4 8 2 13.05 5.11
-4 -8 -2 12.9 4.39
-4 -8 -3 1.24 6.25
4 8 3 -0.61 4.06
-4 -8 -3 5.99 7.68
-4 -8 -4 2.1 6.96
4 8 4 0.26 4.16
-4 -8 -4 2.3 7.15
-4 -8 -5 32.63 9.16
4 8 5 24.88 5.9
-4 -8 -6 -0.14 5.74
4 8 6 -0.36 3.87
-4 -8 -6 2.38 3.55
4 8 7 137.6 10.64
-4 -8 -7 167.78 10.36
-4 -8 -8 3.21 6.3
-4 -8 -8 0.12 2.75
-4 -8 -8 -3.24 9.21
-4 -8 -9 32.07 7.9
-4 -8 -9 -1.16 8.46
-4 -8 -10 11.02 5.88
-4 -8 -10 13.98 3.17
4 8 10 -0.66 4.18
-4 -8 -10 -2.97 8.02
4 8 11 -3.29 4
-4 -9 -2 1.95 4.66
-4 -9 -2 0.92 2.26
-4 -9 -3 4.99 4.7
-4 -9 -3 3.03 2.32
-4 -9 -4 37.55 4.42
-4 -9 -4 39.55 7.7
5 -5 -4 68.75 6.04
5 -5 -4 71.82 5.57
5 -5 -3 5.79 3.07
5 -5 -3 10.98 2.97
5 -5 -2 41.13 5.08
5 -5 -2 51.06 5.5
5 -5 -2 51.48 4.95
5 -5 -1 2.86 3.03
5 -5 -1 2.6 2.61
5 -5 -1 3.65 2.42
5 -5 0 18.81 3.92
5 -5 0 21.65 3.67
5 -5 0 22.23 3.5
5 -5 1 -0.22 2.87
5 -5 2 5.52 2.96
5 -4 -9 0.64 1.97
5 -4 -8 3 2.63
5 -4 -8 2.28 2.58
5 -4 -7 10.4 3.73
5 -4 -7 14.26 3.62
5 -4 -7 11.1 3.54
5 -4 -6 58.24 6.72
5 -4 -6 60.54 6.64
5 -4 -6 64.43 6.49
5 -4 -5 35.46 5.82
5 -4 -5 40.31 6.07
5 -4 -5 37.86 5.79
5 -4 -5 45.97 5.99
5 -4 -4 46.97 6.47
5 -4 -4 53.69 7.15
5 -4 -4 52.04 6.34
5 -4 -4 58.12 6.47
5 -4 -3 53.07 6.95
5 -4 -3 65.85 7.74
5 -4 -3 52.52 6.37
5 -4 -3 70.06 7.24
5 -4 -2 16.46 4.15
5 -4 -2 17.42 5.21
5 -4 -2 20.54 5.05
5 -4 -2 20.97 4.87
5 -4 -1 30.99 6.04
5 -4 -1 23.93 5.16
5 -4 -1 35.67 5.51
5 -4 0 18.84 5.51
5 -4 0 22.03 5.12
5 -4 0 18.19 4.46
5 -4 1 1.14 3.8
5 -4 1 0.81 3.18
5 -4 1 4.22 3.27
5 -4 2 27.49 5.83
5 -4 2 20.19 4.37
5 -4 3 46.77 6.69
5 -4 3 42.36 5.35
5 -4 4 3.93 4.1
5 -4 4 3.67 2.84
5 -4 5 128.61 9.42
5 -4 5 128.68 7.83
5 -4 6 7.33 3.36
5 -4 7 11.67 3.24
-5 4 -7 1.28 4.16
5 -3 -11 6.85 4.42
5 -3 -11 4.01 10.68
5 -3 -10 4.43 4.88
5 -3 -10 2.01 2.5
5 -3 -10 6.22 10.97
5 -3 -9 42.9 7.17
5 -3 -9 34.13 5.39
5 -3 -9 28.47 10.87
5 -3 -8 10.91 5.94
5 -3 -8 10.7 4.23
5 -3 -8 9.99 3.51
5 -3 -7 107.65 9.43
5 -3 -7 106.59 9.22
5 -3 -7 108.47 10.45
5 -3 -7 101.78 9.26
5 -3 -7 101.94 8.4
5 -3 -6 9.3 4.1
5 -3 -6 10.79 4.29
5 -3 -6 12.72 4.67
5 -3 -6 13.66 8.28
5 -3 -6 13.7 4.39
5 -3 -5 81.09 9.17
5 -3 -5 70.7 8.39
5 -3 -5 87.89 11.54
5 -3 -5 81.97 8.79
5 -3 -5 80.56 8.18
5 -3 -4 83.34 9.48
5 -3 -4 75.1 8.66
5 -3 -4 67.49 7.93
5 -3 -4 78.95 8.25
5 -3 -3 77.79 9.06
5 -3 -3 77.23 8.98
5 -3 -3 79.04 8.45
5 -3 -3 85.54 8.67
5 -3 -2 5.7 4.53
5 -3 -2 3.66 3.96
5 -3 -2 3.37 3.22
5 -3 -2 2.54 3.55
5 -3 -1 6.72 4.63
5 -3 -1 10.53 4.91
5 -3 -1 10.06 3.92
5 -3 -1 12.44 4.42
5 -3 0 16.66 5.98
5 -3 0 15.83 4.95
5 -3 0 19.54 5.1
5 -3 1 -0.96 4.6
5 -3 1 1.8 3.93
5 -3 1 2.93 4.01
5 -3 2 54.2 8.2
5 -3 2 46.32 6.68
5 -3 2 49.41 7.02
5 -3 3 3.68 4.7
5 -3 3 6.39 4.02
5 -3 4 24.8 5.76
5 -3 4 19.17 5.38
5 -3 4 25.85 5.5
5 -3 5 28.89 6.16
5 -3 5 26.54 5.55
5 -3 5 30.56 5.36
5 -3 6 11.86 4.37
5 -3 6 7.66 4.45
5 -3 6 7.51 3.45
5 -3 7 111.34 9.41
5 -3 7 109.66 8.09
5 -3 8 66.22 7.34
-5 3 -8 -6.07 5.29
5 -3 9 78.98 6.82
5 -3 9 82.57 7.44
-5 3 -9 2.12 4.6
-5 3 -9 6.04 4.99
5 -3 10 6.98 3.07
-5 3 -10 -2.89 4.31
5 -2 -13 1.19 2.46
5 -2 -12 5.24 3.31
5 -2 -11 4.46 5.09
5 -2 -11 3.28 3.33
5 -2 -11 -8.55 14.06
5 -2 -10 -3.97 5.62
5 -2 -10 1.8 3.44
5 -2 -10 -2.01 13.3
5 -2 -9 1.89 3.7
5 -2 -9 4.13 3.52
5 -2 -9 5.14 3.58
5 -2 -8 9.89 4.3
5 -2 -8 10.66 4.73
5 -2 -8 9.16 3.97
5 -2 -8 -0.38 10.37
5 -2 -7 0.67 3.64
5 -2 -7 1.33 3.64
5 -2 -7 1.87 3.79
5 -2 -6 207.09 14.22
5 -2 -6 214.95 13.77
5 -2 -6 219.25 14.18
5 -2 -6 217.01 13.72
5 -2 -5 38.87 7.17
5 -2 -5 40.46 7.05
5 -2 -5 34.89 7.65
5 -2 -5 38.32 6.85
5 -2 -5 43.72 6.31
5 -2 -4 103.84 10.76
5 -2 -4 86.97 9.62
5 -2 -4 100.23 9.81
5 -2 -4 90.37 10.39
5 -2 -4 94.65 9.01
5 -2 -3 18.72 6.02
5 -2 -3 17.24 5.66
5 -2 -3 10.07 7.47
5 -2 -3 16.27 4.89
5 -2 -3 11 4.24
5 -2 -2 206.16 14.52
5 -2 -2 194.64 13.69
5 -2 -2 213.95 15.24
5 -2 -2 166.81 11.83
5 -2 -2 188.54 12.29
5 -2 -1 12.85 5.23
5 -2 -1 15.16 5.14
5 -2 -1 18.19 4.95
5 -2 -1 11.05 4.65
5 -2 -1 14.25 4.11
5 -2 0 16.66 5.83
5 -2 0 9.9 4.62
5 -2 0 9.58 3.98
5 -2 0 10.33 3.77
5 -2 1 3.07 3.63
5 -2 1 5.98 4.35
5 -2 1 6.41 4.71
5 -2 1 2.94 3.32
5 -2 1 0.46 2.7
5 -2 2 33.68 7.06
5 -2 2 35.93 6.33
5 -2 2 37.72 7.15
-5 2 -2 39.43 6.68
5 -2 2 36.61 6.43
5 -2 2 37.93 5.78
5 -2 3 2.19 4.38
5 -2 3 6.25 4.9
-5 2 -3 5.14 3.9
5 -2 3 6.19 3.86
5 -2 3 4.54 3.07
5 -2 4 87.61 9.52
5 -2 4 87.92 9.63
5 -2 4 100.36 9.5
5 -2 5 102.08 10.57
5 -2 5 108.8 9.52
5 -2 6 340.44 17.92
5 -2 6 333.97 15.82
5 -2 7 37.75 6.24
5 -2 7 34.59 7.2
5 -2 7 35.31 5.77
5 -2 8 100.29 9.29
5 -2 8 107 10.28
5 -2 8 107.46 8.76
5 -2 9 44.63 6.67
5 -2 9 51.71 7.58
5 -2 9 53.14 6.27
5 -2 10 107.73 9
5 -2 10 120.51 9.93
-5 2 -10 116.15 9.21
5 -2 10 123.04 8.37
5 -2 11 2.01 3.15
5 -2 11 4.82 3.52
-5 2 -11 0.45 4.63
-5 2 -11 5.23 3.33
-5 2 -12 -0.24 4.15
5 -2 12 -0.37 2.81
-5 2 -12 0.85 2.59
5 -1 -14 18.46 3.72
5 -1 -13 25.64 4.67
5 -1 -12 1.03 3.04
5 -1 -11 26.29 6.8
5 -1 -11 32.07 5.88
5 -1 -10 2.15 4.09
5 -1 -10 1.91 5.72
5 -1 -10 3.29 3.99
5 -1 -10 18.19 15.35
5 -1 -9 41.19 7.11
5 -1 -9 44.87 8.33
5 -1 -9 53.09 7.43
5 -1 -9 40.77 6.42
5 -1 -9 44.38 16.18
5 -1 -8 40.63 6.95
5 -1 -8 37.88 6.71
5 -1 -8 39.85 6.58
5 -1 -8 30.12 13.73
5 -1 -7 129.83 11.32
5 -1 -7 138.57 11.31
5 -1 -7 131.69 11.02
5 -1 -6 21.79 6.15
5 -1 -6 22.09 5.56
5 -1 -6 18.36 5.19
5 -1 -6 19.99 5.65
5 -1 -5 427.81 20.01
5 -1 -5 390.53 18.53
5 -1 -5 408.86 18.73
5 -1 -5 416.11 18.86
5 -1 -4 85.44 9.57
5 -1 -4 90.98 9.69
5 -1 -4 102.52 10.04
5 -1 -4 89.86 9.26
5 -1 -3 355.42 18.18
5 -1 -3 338.63 17.32
5 -1 -3 360.92 17.87
5 -1 -3 354.75 17.05
5 -1 -2 52.85 7.91
5 -1 -2 58.8 8.08
5 -1 -2 54.57 8.63
5 -1 -2 54.98 7.14
5 -1 -1 78.25 8.18
5 -1 0 3.45 3.09
-5 1 -1 20.47 4.95
5 -1 1 17.96 4.39
-5 1 -2 38.79 6.36
-5 1 -2 38.39 6.36
5 -1 2 42.18 5.74
-5 1 -3 176.35 12.62
-5 1 -3 198.36 13.5
5 -1 3 203.2 14.13
5 -1 3 163.39 11.53
5 -1 3 187.81 11.95
-5 1 -4 11.49 4.44
5 -1 4 9.29 5.5
5 -1 4 6.84 7.87
-5 1 -4 7.36 4.24
5 -1 4 9.13 4.4
5 -1 4 10.58 3.8
-5 1 -5 176.97 13.01
-5 1 -5 166.66 12.73
5 -1 5 168.35 13.32
5 -1 5 168.39 11.91
5 -1 5 179.54 11.93
-5 1 -6 28.71 5.76
5 -1 6 31.74 6.17
5 -1 6 32.62 7.09
-5 1 -6 29.41 6.15
5 -1 6 6.52 8.08
5 -1 6 24.98 5.43
5 -1 6 31.31 5.59
5 -1 7 164.73 12.37
5 -1 7 183.62 13.64
-5 1 -7 184.44 13.03
5 -1 7 177.26 12.08
5 -1 7 192.37 12.5
5 -1 8 -0.2 4.1
5 -1 8 -0.71 4.75
-5 1 -8 0.82 6.24
-5 1 -8 -0.58 3.99
5 -1 8 2.83 3.89
5 -1 9 112.3 10.35
5 -1 9 130.86 11.68
-5 1 -9 118.07 10.5
5 -1 9 131.49 10.19
5 -1 10 0.03 3.63
5 -1 10 5.89 4.75
-5 1 -10 -0.26 5.9
-5 1 -10 1.67 4.33
5 -1 10 -0.17 2.9
5 -1 11 2.28 4.15
5 -1 11 2.6 4.29
-5 1 -11 1.39 5.53
-5 1 -11 1.08 3.95
5 -1 11 3.55 3.07
5 -1 12 -0.85 3.45
5 -1 12 1.84 3.36
5 -1 12 -4.27 4.69
-5 1 -12 0.34 4.97
-5 1 -12 -0.16 3.77
5 -1 12 1.35 2.56
5 -1 13 2.53 3.37
5 -1 13 -2.64 4.02
-5 1 -13 3.97 4.84
-5 1 -13 1.11 2.76
5 -1 14 13.99 3.62
5 -1 14 6.3 3.83
-5 1 -14 17.34 3.77
5 0 -14 31.27 4.73
5 0 -13 19.48 4.34
5 0 -12 21.44 4.93
5 0 -12 13.84 4.23
5 0 -11 5.68 4.11
5 0 -11 5.53 4.06
5 0 -10 19.3 5.76
5 0 -10 26.43 5.86
5 0 -9 4.02 4.71
5 0 -9 1.25 6.19
5 0 -9 7.43 4.22
5 0 -8 106.29 10.64
5 0 -8 105.91 10.49
5 0 -8 111.36 10.45
5 0 -8 107.17 9.9
5 0 -8 97.11 9.61
5 0 -7 9.47 3.89
5 0 -7 7.66 5.13
5 0 -7 3.6 5.73
5 0 -7 8.33 3.79
5 0 -7 5.33 3.71
5 0 -6 60.76 7.95
5 0 -6 69.38 8.15
5 0 -6 72.21 8.65
5 0 -6 68.4 8.29
5 0 -6 72.27 8.13
5 0 -5 310.41 16.7
5 0 -5 318.56 16.3
-5 0 5 313.01 16.03
5 0 -5 305.91 16.03
5 0 -5 291.68 15.14
-5 0 4 131.56 10.44
5 0 -4 122.75 9.94
-5 0 3 75.75 8.13
5 0 -3 65.43 7.49
-5 0 2 268.8 14.71
5 0 -2 253.64 13.93
-5 0 1 411.26 18.14
-5 0 1 435.55 18.19
5 0 -1 428.31 17.65
-5 0 0 1.93 2.54
-5 0 0 0.5 2.48
5 0 0 -0.13 2.75
-5 0 -1 15.53 4.4
-5 0 -1 15.2 4.37
5 0 1 11.71 3.52
-5 0 -2 2 2.65
-5 0 -2 -0.19 2.6
5 0 2 4.12 2.58
-5 0 -3 290.43 15.91
-5 0 -3 282.43 15.67
5 0 3 283.58 13.75
-5 0 -4 306.25 16.6
-5 0 -4 300.97 16.39
-5 0 -5 95.63 9.74
-5 0 -5 86.19 9.36
-5 0 -6 383.2 18.98
5 0 6 379.28 18.36
-5 0 -6 397.8 19.49
5 0 6 402.59 19.67
-5 0 -6 384.39 18.34
5 0 7 3.98 8.21
-5 0 -7 83.37 9.48
5 0 7 76.44 8.86
-5 0 -7 81.22 9.38
5 0 7 84.37 9.6
-5 0 -7 3.22 6.37
-5 0 -7 76.43 8.94
-5 0 -8 30.05 6.13
5 0 8 20.14 5.7
5 0 8 20.38 5.9
5 0 8 -2.04 8.08
-5 0 -8 27.72 5.88
-5 0 -8 1.47 6.29
-5 0 -8 18.21 5.33
5 0 9 72.67 8.84
5 0 9 74.64 9.31
-5 0 -9 72.83 9.17
5 0 10 30.12 6.82
5 0 10 30.1 6.53
-5 0 -10 33.77 6.93
5 0 11 76.32 8.96
5 0 11 80.77 9.03
5 0 11 4.67 7.53
-5 0 -11 6.92 6.41
-5 0 -11 77.53 9.1
5 0 12 1.62 3.65
-5 0 -12 3.48 5.76
-5 0 -12 5.1 4.18
-5 0 -13 0.7 4.9
5 0 13 2.5 4.04
-5 0 -13 1.6 3.46
5 0 13 0.9 2.97
5 0 14 40 5.76
-5 0 -14 42.44 5.83
5 0 14 36.78 4.74
5 0 15 0.09 2.59
5 0 15 2.57 3.86
-5 0 -15 -0.8 2.49
5 1 -14 74.36 6.64
5 1 -13 5.59 3.59
5 1 -13 6.34 3.45
5 1 -12 3.67 4.18
5 1 -12 4.8 3.34
5 1 -11 3.37 4.56
5 1 -11 5.89 3.71
5 1 -10 9.36 4.53
5 1 -10 9.09 4.03
5 1 -10 12.99 4.75
5 1 -9 13.79 5.23
5 1 -9 10.46 4.19
5 1 -9 9.58 5.1
5 1 -8 133.45 9.97
5 1 -8 138.11 11.98
5 1 -8 125.23 10.93
5 1 -8 143.06 11.84
5 1 -8 135.58 11.57
5 1 -7 62.48 8.39
5 1 -7 59.7 7.6
5 1 -7 61.38 7.9
5 1 -7 62.99 7.75
5 1 -7 61.88 8.11
5 1 -6 458.92 20.37
5 1 -6 431.08 19.28
5 1 -6 421.88 18.54
5 1 -6 417.65 19.17
5 1 -5 80.54 8.85
5 1 -5 80.44 8.05
-5 -1 4 637.21 21.96
5 1 -4 635.41 22.83
5 1 -4 657.34 21.94
5 1 -3 6.31 3.46
-5 -1 3 2.38 3.25
-5 -1 3 4 3.13
5 1 -3 4.04 3.22
-5 -1 2 95.69 9.09
-5 -1 2 102.3 9.12
5 1 -2 95.66 9.14
5 1 -2 91.25 8.39
-5 -1 1 6.41 3.83
-5 -1 1 5.79 2.99
5 1 -1 8.19 3.73
-5 -1 0 14.41 4.19
-5 -1 0 12.23 3.8
5 1 0 16.21 4.24
-5 -1 -1 25.89 5.31
-5 -1 -1 21.96 4.78
5 1 1 25.19 4.99
-5 -1 -2 64.78 7.83
-5 -1 -2 61.93 7.51
5 1 2 65.19 6.96
5 1 3 457.06 17.71
-5 -1 -3 422.61 18.85
-5 -1 -3 479.19 19.87
5 1 3 451.08 17.35
-5 -1 -4 616.89 22.89
-5 -1 -4 621.8 22.85
5 1 4 609.48 20.76
5 1 4 623.81 20.1
-5 -1 -5 148.02 11.72
-5 -1 -5 155.81 11.94
5 1 5 151.99 10.75
-5 -1 -6 252.54 15.42
-5 -1 -6 221.19 14.21
-5 -1 -7 243.75 15.28
5 1 7 239.01 14.76
-5 -1 -7 223.35 14.58
-5 -1 -7 271.9 15.82
-5 -1 -8 306.33 17.25
5 1 8 318.1 17.45
-5 -1 -8 304.84 17.22
-5 -1 -8 305.41 17.02
-5 -1 -9 65.43 8.24
-5 -1 -9 61.92 8.29
5 1 9 73.66 8.83
-5 -1 -9 69.76 8.82
5 1 10 92.39 10.17
-5 -1 -10 92.4 9.8
5 1 11 25.81 6.39
-5 -1 -11 26.84 5.76
-5 -1 -11 30.93 6.72
-5 -1 -12 -1.4 6.73
5 1 12 -0.64 3.82
-5 -1 -12 0.95 3.7
5 1 12 -8.25 6.85
-5 -1 -12 3.88 4.69
-5 -1 -13 16.46 7.24
5 1 13 9.19 4.35
-5 -1 -13 12.58 4.24
-5 -1 -13 12.27 4.95
-5 -1 -14 0.4 5.33
5 1 14 2.36 3.32
-5 -1 -14 1.5 3.24
-5 -1 -14 3.29 3.37
5 1 15 45.82 5.57
-5 -1 -15 50.79 5.68
-5 -1 -15 47.89 5.74
5 2 -14 -0.57 2.57
5 2 -14 -0.32 2.7
5 2 -13 50.61 6.37
5 2 -13 54.11 6.95
5 2 -13 59.53 6.95
5 2 -12 7.28 4.11
5 2 -12 7.99 4.24
5 2 -12 7.24 4.42
5 2 -11 21.51 5.56
5 2 -11 22.06 5.98
5 2 -11 25.96 5.92
5 2 -10 0.12 3.79
5 2 -10 3.52 4.54
5 2 -10 2.95 4.04
5 2 -9 77.75 9.1
5 2 -9 77.93 9.38
5 2 -9 87.64 9.86
5 2 -8 29.75 5.96
5 2 -8 33.74 5.49
5 2 -8 30.47 6.47
5 2 -8 33.38 6.95
5 2 -8 26.76 6.55
-5 -2 8 34.45 9.41
5 2 -7 252.71 15.28
5 2 -7 309.47 17.25
5 2 -7 282.9 14.4
5 2 -7 282.54 16.13
5 2 -7 289.63 15.37
5 2 -7 287.59 16.57
-5 -2 7 285.41 19.27
5 2 -6 34.34 6.68
5 2 -6 42.18 7.07
5 2 -6 41.27 6.74
5 2 -6 47.3 7.15
5 2 -6 40.48 6.32
-5 -2 6 35 8.67
5 2 -5 567.7 22.71
5 2 -4 39.26 6.5
5 2 -4 37.85 5.54
5 2 -3 381.3 17.95
5 2 -3 404.61 16.88
5 2 -2 18.72 4.81
5 2 -2 14.3 4.21
-5 -2 1 171.65 11.98
5 2 -1 181.12 11.46
-5 -2 0 126.86 10.42
-5 -2 0 144.2 10.73
5 2 0 137.42 10.15
-5 -2 -1 76.67 8.18
-5 -2 -1 83.7 8.51
5 2 1 81.59 7.98
-5 -2 -2 8.75 4.03
-5 -2 -2 6.07 3.67
5 2 2 8.98 3.2
5 2 2 9.05 3.6
-5 -2 -3 41.12 6.42
-5 -2 -3 44.97 6.5
5 2 3 42.85 5.88
5 2 3 46.3 6.27
5 2 4 367.54 16.12
-5 -2 -4 370.89 17.55
-5 -2 -4 354.99 17.07
5 2 4 374.05 16.08
-5 -2 -5 383.68 18.21
-5 -2 -5 405.06 18.41
5 2 5 392.22 16.87
5 2 5 420.75 17.03
-5 -2 -6 120.76 10.64
-5 -2 -6 112.65 10.1
5 2 6 122.74 9.9
5 2 6 121.98 9.26
-5 -2 -7 232.8 14.61
-5 -2 -7 243.45 14.76
5 2 7 234.13 13.38
5 2 8 0.12 3.97
-5 -2 -8 6.61 4.09
5 2 8 7.3 4.46
-5 -2 -8 4.57 4.15
5 2 8 -0.17 6.43
-5 -2 -8 5.01 3.76
5 2 8 5.46 3.6
-5 -2 -8 3.56 4
-5 -2 -9 184.77 13.2
5 2 9 176.7 13.14
-5 -2 -9 175.25 12.47
5 2 9 165.27 11.45
-5 -2 -9 186.02 13.65
5 2 10 24.29 6.37
-5 -2 -10 21.15 5.44
-5 -2 -10 20.68 6.03
-5 -2 -11 13.78 8.8
5 2 11 30.18 6.63
-5 -2 -11 33.47 6.5
5 2 11 6.76 7.66
-5 -2 -11 33.52 6.55
-5 -2 -12 0.84 7.13
5 2 12 0.21 4.26
-5 -2 -12 0.2 3.4
5 2 12 3.93 5.71
5 2 12 -2.5 7.1
-5 -2 -12 1.95 4.27
-5 -2 -13 30.03 8.78
5 2 13 21.4 5.49
-5 -2 -13 20.08 5.42
-5 -2 -13 24.39 5.32
-5 -2 -14 5.47 6.85
-5 -2 -14 9.05 4.2
-5 -2 -14 5.38 3.96
-5 -2 -14 10.75 3.93
-5 -2 -15 35.65 7.78
-5 -2 -15 22.2 4.94
-5 -2 -15 24.64 4.77
-5 -2 -16 27.58 6.91
-5 -2 -16 21 4.11
5 3 -14 8.26 3.45
5 3 -14 10.26 3.39
5 3 -14 8.25 3.33
5 3 -13 1.61 3.05
5 3 -13 0.04 3.02
5 3 -13 -1.66 3.41
5 3 -12 6.36 4.29
5 3 -12 2.87 3.79
5 3 -12 2.25 3.53
5 3 -11 5.07 4.44
5 3 -11 -0.05 3.76
5 3 -11 -3.4 4.6
5 3 -10 9.28 5.13
5 3 -10 6.34 4.82
5 3 -10 8.32 4.96
5 3 -9 4.09 4.71
5 3 -9 5.64 4.45
5 3 -9 5.68 4.58
5 3 -8 109.28 10.71
5 3 -8 119.08 11.28
5 3 -8 107.44 10.72
5 3 -7 199.96 14.06
5 3 -7 207.88 14.16
5 3 -7 210.64 12.87
5 3 -7 221.44 13.59
5 3 -7 229.22 14.97
5 3 -7 235.71 15.05
-5 -3 7 215.62 18.24
5 3 -6 241.48 15.37
5 3 -6 256.75 15.54
5 3 -6 255.12 14.67
5 3 -6 256.72 15.53
5 3 -6 257.19 14.51
5 3 -6 259.97 15.8
-5 -3 6 279.33 19.97
5 3 -5 58.57 8.19
5 3 -5 62.26 7.79
5 3 -5 61.51 7.69
5 3 -5 67.84 8.71
5 3 -5 66.08 7.79
5 3 -5 69.27 8.53
-5 -3 5 67.58 11.11
5 3 -4 420.49 18.26
5 3 -4 415.47 19.5
-5 -3 4 408.62 22.14
5 3 -3 78.69 8.35
5 3 -3 75.13 8.49
-5 -3 3 76.51 9.87
5 3 -2 25.54 4.91
-5 -3 2 26.68 6.7
5 3 -2 26.04 4.73
-5 -3 1 56.42 7.32
5 3 -1 53.5 6.61
5 3 -1 53.35 6.77
-5 -3 0 43.87 6.47
5 3 0 46.09 6.16
5 3 0 45.99 6.39
-5 -3 -1 14.94 4.25
-5 -3 -1 16.56 4.22
5 3 1 14.37 4
-5 -3 -2 117.51 9.95
-5 -3 -2 106.32 9.38
5 3 2 110.67 8.76
5 3 2 112.98 9.43
-5 -3 -3 7.14 3.8
-5 -3 -3 5.65 3.21
5 3 3 7.8 3.52
5 3 3 3.31 3.2
-5 -3 -4 441.82 18.84
-5 -3 -4 447 18.85
5 3 4 441.36 17.87
5 3 4 451.1 18.25
-5 -3 -5 50.19 6.77
5 3 5 47.48 6.41
5 3 5 45.7 6.3
5 3 6 180.32 11.84
5 3 6 180.34 11.64
5 3 7 50.86 7.71
-5 -3 -7 36.02 6.59
5 3 7 38.29 6.28
-5 -3 -7 36.5 6.35
5 3 7 40.61 5.94
5 3 7 46.07 7.5
5 3 8 744.34 26.14
5 3 8 733.18 23.88
-5 -3 -8 686.18 23.84
-5 -3 -8 693.84 24.73
5 3 8 727.2 26.55
5 3 9 123.25 11.44
-5 -3 -9 123.22 11.08
-5 -3 -9 105.5 10.29
5 3 9 116.84 9.96
5 3 9 124.11 11.65
5 3 10 68.57 8.87
-5 -3 -10 63.1 8.21
-5 -3 -10 71.31 8.56
-5 -3 -10 77.08 12.58
-5 -3 -11 4.46 7.34
5 3 11 12.09 4.97
-5 -3 -11 17.97 5.53
5 3 11 -5.63 7.34
-5 -3 -11 13.88 5.26
-5 -3 -12 0.64 7.38
5 3 12 2.2 4.21
-5 -3 -12 2.73 4.53
5 3 12 -4.15 5.52
-5 -3 -13 1.91 7.78
-5 -3 -13 -0.23 4.23
-5 -3 -13 3.23 4.36
-5 -3 -14 86.08 9.37
-5 -3 -14 98.36 8.94
-5 -3 -14 107.19 14.54
-5 -3 -15 -0.34 4.87
-5 -3 -15 3.83 4.07
-5 -3 -15 1.45 3.09
5 3 15 0.8 4.5
-5 -3 -16 89.19 7.53
-5 -3 -16 95.07 7.11
5 4 -13 29.41 4.91
5 4 -13 26.66 4.73
5 4 -13 31.65 5.13
5 4 -12 2.64 3.54
5 4 -12 5.41 4.1
5 4 -12 5.03 3.66
5 4 -11 3.37 3.94
5 4 -11 2 3.64
5 4 -11 1.44 4.09
5 4 -10 69.49 8.54
5 4 -10 67.86 8.39
5 4 -10 61.65 8.08
5 4 -9 -4.27 4.7
5 4 -9 1.05 4.06
5 4 -9 7.41 5.17
5 4 -8 21.17 5.85
5 4 -8 29.19 6.26
5 4 -8 17.3 5.88
5 4 -7 20.81 5.65
5 4 -7 26.14 6.34
5 4 -7 17.71 5.82
5 4 -6 163.16 13.04
5 4 -6 170.62 12.83
5 4 -6 178.41 12.02
5 4 -6 176.45 12.37
5 4 -6 172.58 13.25
5 4 -6 175.27 12.76
-5 -4 6 193.96 16.8
5 4 -5 70.3 8.82
5 4 -5 67.39 8.13
5 4 -5 55.79 8.1
5 4 -5 59.4 7.75
5 4 -5 62.16 8.02
-5 -4 5 59.69 10.05
5 4 -4 348.47 18.39
5 4 -4 344.89 16.98
5 4 -4 335.14 17.41
5 4 -4 362.79 17.4
-5 -4 4 374.73 21.85
5 4 -3 30.58 6.24
5 4 -3 30.69 5.88
-5 -4 3 26.85 5.44
-5 -4 3 32.74 7.6
5 4 -2 94.01 9.17
-5 -4 2 102.25 11.54
5 4 -1 15.27 4.4
-5 -4 1 16.87 6.19
5 4 -1 16.68 4.09
5 4 0 1.66 3.19
-5 -4 0 -1.22 4.06
5 4 0 2.74 2.93
5 4 1 149.61 10.5
-5 -4 -1 127.95 12.56
5 4 1 148.29 10.86
-5 -4 -2 219.37 13.51
5 4 2 235.72 13.11
5 4 2 252.74 14.15
-5 -4 -3 128.8 10.21
5 4 3 134.05 10.24
-5 -4 -3 101.36 11.51
5 4 3 135.61 10.59
5 4 4 224.79 13.3
5 4 4 230.4 13.53
5 4 5 700.56 23.28
5 4 6 459.24 20.74
-5 -4 -6 441.14 19.56
5 4 6 443.61 18.9
-5 -4 -6 446.94 19.66
5 4 6 469.9 21.47
5 4 7 276.77 16.78
5 4 7 302.95 16.8
-5 -4 -7 280.57 15.88
5 4 7 288.1 15.4
-5 -4 -7 305.86 16.45
5 4 7 295.79 17.45
5 4 8 13.95 5.77
5 4 8 10.45 5.24
5 4 8 14.07 5.34
-5 -4 -8 8.07 4.34
5 4 8 16.69 4.6
-5 -4 -8 15.49 4.85
5 4 8 17.31 4.18
-5 -4 -9 24.58 9.03
5 4 9 19.1 6.01
5 4 9 24.05 6.06
-5 -4 -9 23.8 6.37
5 4 9 1.94 5.49
5 4 9 2.72 6.61
-5 -4 -10 24.55 9.63
5 4 10 86.44 9.38
-5 -4 -10 72.94 8.98
5 4 10 1 5.38
5 4 10 0.18 7.19
-5 -4 -11 4.97 7.4
-5 -4 -11 1.84 4.12
5 4 11 4.65 5.8
5 4 11 -3.9 7.48
-5 -4 -12 50.11 11.46
-5 -4 -12 36.06 6.55
-5 -4 -13 55.93 7.48
-5 -4 -13 68.14 11.56
-5 -4 -14 3.2 6.26
-5 -4 -14 10.2 4.91
-5 -4 -14 8.98 3.87
-5 -4 -15 75.92 7.94
-5 -4 -15 80.28 7.1
5 5 -12 32.78 4.91
5 5 -12 30.59 4.64
5 5 -11 6.95 3.36
5 5 -11 7.99 3.79
5 5 -11 8.64 3.79
5 5 -10 8.19 3.69
5 5 -10 6.68 4.1
5 5 -10 4.39 4.13
5 5 -9 67.4 8.09
5 5 -9 57.32 7.46
5 5 -9 69.66 8.14
-5 -5 9 53.48 6.82
5 5 -8 5.11 4.46
5 5 -8 4.19 4.11
5 5 -8 5.31 4.54
-5 -5 8 1.05 3.62
5 5 -7 117.5 10.69
5 5 -7 105.89 9.93
5 5 -7 119.4 10.72
-5 -5 7 101.28 9.64
5 5 -6 16.18 5.53
-5 -5 6 13.31 4.85
5 5 -5 26.31 5.8
-5 -5 5 28.61 6.22
5 5 -5 31.01 5.95
5 5 -4 4.9 4.23
5 5 -4 5.61 3.54
-5 -5 4 6.26 4.27
-5 -5 4 2.62 4.55
5 5 -3 214.01 14.57
-5 -5 3 214.42 14.49
5 5 -3 213.51 13.86
-5 -5 3 187.76 13.26
-5 -5 3 221.27 17.14
5 5 -2 8.02 4.36
-5 -5 2 6.71 5.02
5 5 -2 9.89 4.28
-5 -5 2 5.1 3.8
-5 -5 2 5.05 5.26
5 5 -1 7.3 4.51
5 5 -1 5.5 4.45
-5 -5 1 5.11 4.26
5 5 -1 7.62 3.56
-5 -5 1 6.91 4.53
-5 -5 1 4.04 4.82
5 5 0 7.87 4.82
5 5 0 7.72 4.9
-5 -5 0 8.11 4.67
5 5 0 10.1 3.89
-5 -5 0 4.7 4.3
-5 -5 0 4.93 5.48
5 5 0 11.63 3.77
5 5 1 74.85 9.26
5 5 1 67.43 8.8
-5 -5 -1 69.89 8.27
-5 -5 -1 60.97 9.91
5 5 1 76.04 8.25
5 5 2 62.77 8.6
5 5 2 56.31 8.48
-5 -5 -2 58.18 8.17
-5 -5 -2 55.27 9.82
5 5 3 335.05 18.04
5 5 3 306.28 17.45
-5 -5 -3 312.35 16.68
5 5 3 316.67 16.05
-5 -5 -3 302.5 16.19
5 5 4 34.58 6.88
5 5 4 36.82 7.15
-5 -5 -4 39.12 6.99
5 5 4 38.91 6.37
-5 -5 -4 28.17 7.46
-5 -5 -4 36.6 6.42
5 5 5 397.4 19.91
-5 -5 -5 380.05 18.52
5 5 5 390.34 18.05
-5 -5 -5 392.23 18.42
5 5 5 403.12 19.98
5 5 6 45.79 8.04
-5 -5 -6 47.9 7.28
5 5 6 51.13 7.19
-5 -5 -6 34.39 8.44
5 5 6 47.63 7.96
5 5 7 96.17 10.95
-5 -5 -7 106.95 10.46
5 5 7 100.61 9.41
5 5 7 101.47 10.61
-5 -5 -8 4.43 7.7
5 5 8 8.73 4.56
5 5 8 8.91 5.25
5 5 8 7.4 4.47
-5 -5 -8 8.15 4.41
5 5 9 110.58 11.7
-5 -5 -9 114.06 10.58
-5 -5 -9 142.71 15.87
-5 -5 -10 47.09 11.91
5 5 10 -2.92 6.95
-5 -5 -10 37.64 6.89
5 5 10 -2.2 5.44
-5 -5 -11 1.37 7.77
-5 -5 -11 -1.78 3.85
5 5 11 0.9 5.33
5 5 11 0.04 6.69
-5 -5 -12 10.41 8.3
-5 -5 -12 3.33 3.48
5 5 12 4.95 5.42
-5 -5 -13 0.73 5.2
-5 -5 -13 -0.29 3.24
-5 -5 -14 41.74 5.57
-5 -5 -14 60.43 9.51
-5 -5 -15 11.46 5.95
-5 -5 -15 28.73 5.17
5 6 -10 29.72 4.51
-5 -6 10 29.21 4.38
5 6 -9 39.18 5.5
-5 -6 9 37.58 5.42
-5 -6 8 27.73 5.07
5 6 -7 2.11 3.88
-5 -6 7 3.87 3.84
5 6 -6 49.97 7.59
-5 -6 6 53.59 7.3
5 6 -5 82.98 9.44
-5 -6 5 81.3 9.09
-5 -6 5 86.06 9.02
5 6 -4 73.53 9.34
-5 -6 4 93.86 9.98
-5 -6 4 92.88 9.61
5 6 -3 15.25 5.57
-5 -6 3 16.74 5.48
-5 -6 3 15.81 5.02
5 6 -2 54.1 8.42
-5 -6 2 45.89 7.97
-5 -6 2 48.83 7.59
5 6 -1 4.47 4.97
-5 -6 1 8.19 4.72
-5 -6 1 2.09 4.67
5 6 0 10.06 5.82
-5 -6 0 10.07 4.86
-5 -6 0 7.33 4.76
5 6 1 0.54 4.73
-5 -6 -1 -0.63 4.39
5 6 2 52.93 8.68
-5 -6 -2 54.4 8.18
-5 -6 -2 60.09 7.77
5 6 3 27.19 6.7
-5 -6 -3 21.93 5.93
5 6 4 285.2 17.4
-5 -6 -4 291.04 16.15
5 6 5 6.76 5.61
-5 -6 -5 7 4.85
5 6 6 278.29 17.33
-5 -6 -6 270.66 15.61
-5 -6 -7 -0.22 6.57
5 6 7 0.26 4.48
-5 -6 -7 3.66 3.95
-5 -6 -8 41.98 10.43
5 6 8 29.61 7.38
-5 -6 -8 27.82 6.09
-5 -6 -9 3.04 7.87
5 6 9 4.72 4.62
-5 -6 -9 6.46 4.29
5 6 9 2.67 5.28
-5 -6 -10 10.91 7.93
-5 -6 -10 22.97 5.32
5 6 10 4.36 5.35
-5 -6 -11 1.95 6.84
5 6 11 3.03 5.96
-5 -6 -11 12.61 4.1
5 6 11 -1.24 4.86
-5 -6 -12 0.55 6.12
-5 -6 -12 0.33 2.65
5 6 12 0.9 4.64
-5 -6 -13 1.28 5.63
5 7 -7 20.45 4.61
-5 -7 7 18.12 4.06
5 7 -6 75.39 7.83
-5 -7 6 71.84 7.35
-5 -7 6 78.4 7.41
5 7 -5 94.6 9.17
-5 -7 5 92.34 8.68
-5 -7 5 95.26 8.52
5 7 -4 0.45 4.09
-5 -7 4 3.32 4.2
-5 -7 4 1.5 3.91
5 7 -3 94.52 9.96
-5 -7 3 102.27 9.86
-5 -7 3 85.18 8.79
5 7 -2 2.68 4.48
-5 -7 2 3.37 4.86
-5 -7 2 2.43 4.22
5 7 -1 -3.51 4.9
-5 -7 1 0.67 4.56
-5 -7 1 1.31 4.01
5 7 0 11.62 5.56
-5 -7 0 8.09 5.17
-5 -7 0 11.58 4.97
5 7 1 5.3 5.56
-5 -7 -1 4.52 4.09
5 7 2 12.41 5.95
-5 -7 -2 14.29 5.01
5 7 3 42.29 8.05
-5 -7 -3 40.44 6.6
-5 -7 -4 0.83 5.75
5 7 4 8.53 5.24
-5 -7 -4 4.96 4.3
5 7 5 100.13 10.68
-5 -7 -5 96.85 9.26
-5 -7 -5 102.04 12.8
-5 -7 -6 15.6 7.42
5 7 6 14.2 5.88
-5 -7 -6 12.5 4.37
5 7 7 70.46 8.99
-5 -7 -7 67.98 7.53
-5 -7 -8 8.3 7.74
5 7 8 9.6 5.18
-5 -7 -8 9.13 4.02
5 7 8 1.98 4.93
-5 -7 -9 5.34 6.88
5 7 9 19.13 5.55
5 7 9 -0.05 4.53
-5 -7 -10 0.97 5.92
5 7 10 -1.77 4.54
-5 -7 -10 -6.12 8.64
-5 -7 -11 7.16 5.68
5 7 11 -0.85 4.13
5 7 11 2.73 4.58
-5 -7 -11 -0.88 7.74
5 8 -4 12.9 3.77
5 8 -3 9.21 3.97
-5 -8 3 8.03 3.4
5 8 -2 4.79 3.7
-5 -8 2 5.39 2.99
5 8 -1 2.26 3.59
-5 -8 1 1.6 2.8
5 8 0 -1.1 3.68
-5 -8 0 1.14 3.03
5 8 1 22 5.32
-5 -8 -1 19.15 4.24
5 8 2 30.04 5.83
-5 -8 -2 21.18 4.43
-5 -8 -3 37.93 7.84
5 8 3 24.68 5.63
-5 -8 -3 27.6 4.79
-5 -8 -4 1.56 5.01
5 8 4 6.33 4.38
-5 -8 -5 38.64 8.29
5 8 5 29.43 5.72
-5 -8 -6 14.9 6.77
5 8 6 6.91 4.16
-5 -8 -6 16.26 3.7
-5 -8 -7 26.94 6.93
5 8 7 18.06 4.66
-5 -8 -7 25 4.05
-5 -8 -8 3.91 5.27
5 8 8 2.6 3.91
6 -3 -6 34.93 4.92
6 -3 -6 33.43 4.43
6 -3 -5 9.23 3.7
6 -3 -5 12.94 3.76
6 -3 -5 9.3 3.2
6 -3 -5 9.27 2.89
6 -3 -4 60.05 6.55
6 -3 -4 67.65 6.71
6 -3 -4 57.67 5.81
6 -3 -4 61.69 5.69
6 -3 -3 -1.14 3
6 -3 -3 0.84 2.84
6 -3 -3 -0.22 2.37
6 -3 -3 0.78 2.38
6 -3 -2 1.76 3.66
6 -3 -2 2.47 3.28
6 -3 -2 3.58 2.63
6 -3 -2 3.03 2.9
6 -3 -1 9.2 4.1
6 -3 -1 5.72 3.3
6 -3 -1 5.58 3.23
6 -3 0 16.48 4.84
6 -3 0 14.84 4.17
6 -3 0 19.35 4.03
6 -3 1 3.76 3.72
6 -3 1 4.28 3.23
6 -3 1 1.34 2.76
6 -3 2 68.54 7.12
6 -3 2 74.05 6.47
6 -3 3 1.89 2.87
6 -3 3 -0.72 2.69
6 -3 4 66.35 6.3
6 -3 4 81.02 6.36
6 -3 5 1.11 1.98
6 -2 -9 4.87 5.78
6 -2 -8 20.19 4.33
6 -2 -8 31.56 7.63
6 -2 -8 24.34 4.27
6 -2 -7 44.57 6.23
6 -2 -7 58.51 9.51
6 -2 -7 38.53 5.35
6 -2 -6 95.81 8.82
6 -2 -6 93.44 8.11
6 -2 -6 95.4 8.18
6 -2 -5 12.75 4.8
6 -2 -5 8.58 4.08
6 -2 -5 8.54 3.96
6 -2 -4 24.67 5.96
6 -2 -4 25.43 5.35
6 -2 -4 20.21 4.71
6 -2 -4 25.4 4.64
6 -2 -3 3.52 3.84
6 -2 -3 3.45 4.19
6 -2 -3 1.79 3.23
6 -2 -3 5.12 3.28
6 -2 -2 2.02 4.08
6 -2 -2 1.24 4.01
6 -2 -2 0.93 3.1
6 -2 -2 0.84 3.03
6 -2 -1 19.6 5.34
6 -2 -1 26.79 5.58
6 -2 -1 21.54 4.61
6 -2 -1 16.44 4.46
6 -2 0 7.94 4.77
6 -2 0 14.02 4.53
6 -2 0 18.57 4.75
6 -2 1 85.02 9.07
6 -2 1 96.9 8.94
6 -2 1 88.62 8.6
6 -2 1 90.62 8.17
6 -2 2 31.19 5.85
6 -2 2 33.53 5.64
6 -2 2 36.53 6.32
6 -2 2 34.71 5.83
6 -2 3 23.56 5.25
6 -2 3 26.08 5.77
6 -2 3 33.5 5.6
6 -2 4 8.17 4.4
6 -2 4 12.73 3.98
6 -2 5 29.39 5.4
6 -2 5 28.28 4.8
6 -2 6 114.3 9.25
6 -2 6 126.71 8.56
6 -2 7 23.21 4.93
6 -2 7 21.2 3.96
6 -2 8 0.05 2.78
-6 2 -8 -1.34 4.29
6 -2 8 0.5 2.36
6 -2 9 7.97 3.2
-6 2 -9 3.73 3.97
6 -1 -10 -0.62 3
6 -1 -10 1.03 4.48
6 -1 -9 74.23 7.44
6 -1 -9 81.97 8.53
6 -1 -9 75.93 6.84
6 -1 -8 9.82 4.33
6 -1 -8 11.47 5.64
6 -1 -8 12.11 3.95
6 -1 -7 137.16 10.97
6 -1 -7 132.69 11.57
6 -1 -7 132.42 9.91
6 -1 -6 7.41 4.32
6 -1 -6 5.78 3.59
6 -1 -6 6.05 6.67
6 -1 -6 6.03 3.95
6 -1 -5 33.71 6.84
6 -1 -5 34.11 6.12
6 -1 -5 24.54 9.16
6 -1 -5 31.54 5.89
6 -1 -4 10.26 4.92
6 -1 -4 14.51 5.03
6 -1 -4 10.34 9.01
6 -1 -4 12.03 4.39
6 -1 -3 58.03 8.37
6 -1 -3 45.83 7.28
6 -1 -3 54.5 7.43
6 -1 -3 54.19 7.24
6 -1 -2 12.67 5.46
6 -1 -2 10.48 4.74
6 -1 -2 4.45 4.54
6 -1 -2 10.32 4.18
6 -1 -1 53.17 7.73
6 -1 -1 61.66 8.11
6 -1 -1 60.92 8.24
6 -1 -1 65.26 7.56
6 -1 -1 54.37 6.95
6 -1 0 -0.11 3.95
6 -1 0 1.61 3.97
6 -1 0 1.03 3.93
6 -1 0 3.5 3.42
6 -1 1 150.9 11.76
6 -1 1 155.18 11.67
6 -1 1 161.4 12.46
6 -1 1 159.39 11.11
6 -1 2 56.74 7.77
6 -1 2 52.44 7.26
6 -1 2 55.17 8.08
6 -1 2 49.75 6.89
6 -1 3 173.65 11.66
6 -1 3 185.39 13.1
6 -1 3 197.21 12.36
6 -1 4 2.58 4.82
-6 1 -4 -0.95 6.09
6 -1 4 2.88 3.94
6 -1 5 102.98 9.96
6 -1 5 102.99 8.94
6 -1 6 8.34 4.5
-6 1 -6 -3.3 5.95
6 -1 6 10.68 3.99
6 -1 7 26.01 5.7
6 -1 7 25.36 5.04
6 -1 8 3.26 3.28
6 -1 8 3.39 4.23
6 -1 8 3.04 3.05
6 -1 9 0.02 2.71
6 -1 9 0.37 3.37
-6 1 -9 -2.07 4.92
-6 1 -9 -0.96 3.08
6 -1 9 0.52 2.7
6 -1 10 20.04 4.18
6 -1 10 18.71 4.39
-6 1 -10 17 3.75
6 -1 10 19.15 3.69
-6 1 -11 1.87 3.94
6 0 -11 17.72 4.3
6 0 -11 16.31 4.21
6 0 -10 36.51 5.94
6 0 -10 26.4 5.15
6 0 -9 88.68 8.79
6 0 -9 83.61 8.25
6 0 -9 86.49 7.75
6 0 -8 91.56 9.47
6 0 -8 83.62 8.58
6 0 -8 81.87 8.02
6 0 -7 7.5 5.16
6 0 -7 9.19 4.83
6 0 -7 17.97 4.77
6 0 -6 66.87 8.44
6 0 -6 72.07 9.11
6 0 -6 71.23 8.43
6 0 -6 74.8 8.42
6 0 -5 7.35 4.67
6 0 -5 6.31 3.96
6 0 -5 6.81 6.53
6 0 -5 7.93 4.86
6 0 -5 7.62 4.43
6 0 -4 26.78 6.4
6 0 -4 33.81 6.6
6 0 -4 31.07 8.65
6 0 -4 30.12 6.68
6 0 -4 27.22 5.73
6 0 -3 0.48 3.55
6 0 -3 3.76 4.68
6 0 -3 4.52 6.55
6 0 -3 0.99 4.34
6 0 -3 0.68 3.39
6 0 -2 3.81 4.21
6 0 -2 3.99 4.08
6 0 -2 7.22 6.99
6 0 -2 8.21 5.22
6 0 -2 3.96 3.75
6 0 -1 9.44 4.38
6 0 -1 7.24 4.43
6 0 -1 8.77 5.13
6 0 -1 7.29 4.2
6 0 0 123.53 10.91
6 0 0 133.58 11.48
6 0 0 134.96 11.96
6 0 0 139.87 10.68
6 0 1 2.91 4.61
6 0 1 7.11 5.35
6 0 2 297.02 16.04
6 0 2 292.02 16.93
6 0 2 266.1 14.25
6 0 3 24.06 5.69
6 0 3 28.74 6.84
6 0 3 26.77 5.39
6 0 4 236.05 15.18
6 0 4 228.91 13.45
6 0 5 15.43 5.45
6 0 5 1.32 7.5
6 0 5 14.32 5.04
6 0 6 241.6 14.11
6 0 6 225.63 14.75
6 0 6 -1.25 5.47
-6 0 -6 -4.91 6.64
-6 0 -6 239.57 14.02
6 0 6 222.62 13.13
6 0 7 15.62 5.12
6 0 7 15.6 5.43
6 0 7 -3.12 6.22
-6 0 -7 0.04 5.86
-6 0 -7 22.72 5.35
6 0 7 18.6 4.75
6 0 8 2.9 3.96
6 0 8 4.86 4.55
-6 0 -8 1.06 5.64
-6 0 -8 3.97 3.66
6 0 8 1.63 3.65
6 0 9 1.19 3.32
6 0 9 0.38 3.92
-6 0 -9 2.77 3.81
6 0 9 4.56 3.71
6 0 10 7.27 4.03
6 0 10 8.07 3.82
-6 0 -10 -0.85 5.11
-6 0 -10 5.73 3.93
6 0 10 6.09 3.29
6 0 11 41.02 5.66
6 0 11 43.98 5.6
-6 0 -11 44.8 5.92
6 0 11 44.49 5.25
6 0 12 38.98 5.14
-6 0 -12 39.83 5.22
6 0 12 45.78 4.85
6 1 -12 11.14 3.39
6 1 -11 2.8 3.54
6 1 -11 1.74 2.5
6 1 -10 40.01 6.51
6 1 -10 43.14 5.71
6 1 -10 40.98 5.87
6 1 -9 69.68 8.49
6 1 -9 61.71 7.05
6 1 -9 73.84 7.9
6 1 -8 52.97 7.77
6 1 -8 48.06 6.64
6 1 -8 64.63 8.04
6 1 -8 50.14 6.64
6 1 -7 3.1 4.5
6 1 -7 0.19 3.95
6 1 -7 0.37 3.63
6 1 -6 114.62 10.9
6 1 -6 107.14 10.5
6 1 -6 113.21 10.08
6 1 -5 5.86 4.71
6 1 -5 10.36 4.72
6 1 -5 5.05 5.02
6 1 -5 7.81 4.42
6 1 -4 69.9 9.04
6 1 -4 67.15 8.44
6 1 -4 60.56 8.26
6 1 -4 57.89 7.79
6 1 -3 29.71 6.69
6 1 -3 22.54 6.06
6 1 -3 23.4 6.11
6 1 -3 19.3 5.57
6 1 -2 3.79 3.91
6 1 -2 5.42 4.57
-6 -1 2 4.21 3.58
6 1 -2 6.64 4.47
6 1 -2 3.93 4.09
-6 -1 2 4.93 3.51
6 1 -2 7.63 3.47
6 1 -1 201.58 13.87
-6 -1 1 196.77 13.69
6 1 -1 193.5 14.11
-6 -1 1 198.68 13.57
6 1 -1 178.98 12.31
6 1 -1 202.47 13.12
6 1 0 70.01 8.84
-6 -1 0 68.8 8.44
6 1 0 70.45 9.42
-6 -1 0 72.1 8.59
6 1 0 62.35 7.47
6 1 0 66.43 7.84
6 1 1 68.16 8.55
-6 -1 -1 77.51 9.19
-6 -1 -1 79.58 9
6 1 1 83.34 9.67
6 1 1 72.01 7.88
6 1 1 79.09 8.41
6 1 2 17.86 5.55
-6 -1 -2 16.31 6.23
6 1 2 15.53 6.06
-6 -1 -2 12.34 4.17
6 1 2 14.44 4.42
6 1 3 418.82 18.76
-6 -1 -3 402.4 19.8
-6 -1 -3 413.45 19.86
6 1 3 422.81 20.26
6 1 3 389.41 17.23
6 1 4 100.42 9.52
6 1 4 98.77 10.6
-6 -1 -4 89.66 9.42
6 1 4 79.54 8.21
6 1 5 203.49 13.45
6 1 5 234.01 15.23
-6 -1 -5 233.22 14.55
6 1 5 231.44 13.58
6 1 6 29.71 6.23
6 1 6 38.19 7.31
6 1 6 -0.81 5.63
-6 -1 -6 -0.91 6.01
-6 -1 -6 32.35 6.78
6 1 6 37.14 6.16
6 1 7 73.53 8.9
6 1 7 79.39 9.1
6 1 7 4.33 7.63
-6 -1 -7 -1.45 6.07
-6 -1 -7 69.74 8.69
6 1 7 76.97 8.32
6 1 8 20.88 6.09
6 1 8 22.63 5.81
6 1 8 -3.24 5.78
-6 -1 -8 -9.46 6.61
-6 -1 -8 20.15 5.95
6 1 8 20.37 5.16
6 1 9 3.35 4.23
6 1 9 -0.7 6.38
-6 -1 -9 5.23 4.3
6 1 9 8.58 4.15
6 1 10 6.93 4.61
6 1 10 1.9 5.45
-6 -1 -10 6.86 4.6
6 1 10 1.66 3.53
6 1 11 60.92 7.29
-6 -1 -11 61.63 7.29
6 1 11 59.86 6.54
6 1 12 2.41 3.48
-6 -1 -12 3.16 3.55
6 1 12 1.45 2.87
6 1 13 50.82 5.74
-6 -1 -13 47.84 5.5
6 1 13 58.76 5.46
6 2 -12 3.54 3.16
6 2 -11 38.6 5.71
6 2 -11 34.62 5.5
6 2 -10 10.59 4.65
6 2 -10 7.96 3.78
6 2 -9 94.14 9.29
6 2 -9 97.38 9.18
6 2 -8 15.64 4.64
6 2 -8 20.16 6.02
6 2 -8 16.56 5.57
6 2 -8 11.35 4.14
6 2 -7 206.42 13.06
6 2 -7 224.38 14.55
6 2 -7 223.41 14.34
6 2 -7 227.74 13.48
6 2 -6 73.68 8.49
6 2 -6 80.39 9.31
6 2 -6 80.24 9.63
6 2 -6 80.71 8.77
6 2 -5 186.01 12.76
6 2 -5 208.34 14.19
6 2 -5 213.75 14.72
6 2 -5 204.41 13.36
6 2 -4 4.16 3.87
6 2 -4 7.91 4.54
6 2 -4 9.53 4.54
6 2 -4 7.92 5.31
6 2 -4 7.77 4.45
6 2 -3 0.44 3.62
6 2 -3 -1.77 4.04
6 2 -3 1.1 4.37
6 2 -3 1.05 3.43
6 2 -3 0.17 2.25
6 2 -2 6.94 4.26
6 2 -2 10.81 5.03
-6 -2 2 10.4 4.65
6 2 -2 4.21 4.93
6 2 -2 10.75 4.64
-6 -2 2 8.17 3.9
6 2 -2 9.19 3.69
6 2 -1 25.49 5.68
6 2 -1 18.61 5.6
-6 -2 1 19.21 5.34
6 2 -1 24.52 6.44
6 2 -1 18.27 4.96
-6 -2 1 22.24 5.18
6 2 -1 20.55 4.97
6 2 0 48.85 7.43
6 2 0 65.79 8.45
-6 -2 0 58.87 8.27
6 2 0 54.51 8.36
-6 -2 0 51.77 7.56
6 2 0 45.48 6.84
6 2 0 57.51 7.25
6 2 1 241.48 14.63
6 2 1 279.26 15.97
-6 -2 -1 250.61 15.67
6 2 1 264.42 15.91
-6 -2 -1 268.6 15.88
6 2 1 259.94 14.33
-6 -2 -1 258.63 15.12
6 2 1 271.72 15.09
6 2 2 153.51 11.83
6 2 2 171.75 12.64
-6 -2 -2 144.02 12.03
6 2 2 156.26 12.56
-6 -2 -2 166.21 12.7
-6 -2 -2 163.03 12.16
6 2 2 168.07 11.82
6 2 3 122.17 10.95
6 2 3 137.74 11.3
-6 -2 -3 134.66 11.69
6 2 3 143.86 11.49
6 2 3 128.74 11.4
-6 -2 -3 147.82 12.17
-6 -2 -3 128.83 11.21
6 2 3 140.59 10.68
6 2 4 8.69 4.45
6 2 4 13.27 4.98
-6 -2 -4 8.15 3.86
6 2 4 11.32 5.1
6 2 4 14.41 5.66
6 2 4 2.19 6.34
-6 -2 -4 9.04 3.86
-6 -2 -4 8.53 4.27
6 2 4 11.45 4.1
6 2 5 43.23 7.31
-6 -2 -5 44.76 7.45
6 2 5 41.09 6.85
6 2 6 13.59 4.83
6 2 6 16.39 5.81
6 2 6 2.16 6.22
-6 -2 -6 14.27 5.05
6 2 7 96.17 10.16
-6 -2 -7 91.85 10.1
6 2 7 82.69 9.15
6 2 8 2.35 4.69
6 2 8 3.63 7.54
-6 -2 -8 5.22 4.92
6 2 9 6.26 4.48
6 2 9 4.72 7.42
-6 -2 -9 2.65 4.41
6 2 10 32.89 6.55
-6 -2 -10 27.8 6.01
6 2 11 26.69 5.56
-6 -2 -11 23.63 4.79
-6 -2 -11 31.45 5.8
6 2 12 152.34 10.44
-6 -2 -12 144.88 9.27
-6 -2 -12 139.92 9.89
6 2 13 53.69 6.01
-6 -2 -13 48.73 5.4
-6 -2 -13 53.9 6.14
6 3 -11 2.14 3.07
6 3 -11 -0.63 3.22
6 3 -11 0.74 3.22
6 3 -10 11.61 4.16
6 3 -10 11.72 4.37
6 3 -10 12.61 4.29
6 3 -9 6.54 3.78
6 3 -9 1.14 4.13
6 3 -9 4.54 4.38
6 3 -8 85.33 8.9
6 3 -8 92.66 9.35
6 3 -8 90.93 9.4
6 3 -7 9.9 4.28
6 3 -7 12.07 5.03
6 3 -7 8.22 5.09
6 3 -7 6.47 3.82
6 3 -6 91.29 9.58
6 3 -6 99.64 9.73
6 3 -6 97.4 10.13
6 3 -6 105.5 9.67
6 3 -5 14.79 5.22
6 3 -5 16.01 5.26
6 3 -5 13.89 5.25
6 3 -5 19.72 5.44
6 3 -4 18.7 5.89
6 3 -4 16.63 4.97
6 3 -4 18.98 6.22
6 3 -4 15.38 4.88
6 3 -3 4.81 4.04
6 3 -3 12.88 5.17
6 3 -3 3.95 5.07
6 3 -3 5.65 3.91
6 3 -2 80.54 9.44
6 3 -2 81.83 9.37
-6 -3 2 77.24 8.93
6 3 -2 79.28 9.25
6 3 -2 87.52 9.3
-6 -3 2 74.39 8.54
6 3 -2 75.2 8.23
6 3 -1 6.53 4.82
6 3 -1 8.12 4.99
-6 -3 1 3.98 3.1
6 3 -1 5.13 4.21
6 3 -1 3.85 3.95
-6 -3 1 0.66 3.3
-6 -3 1 2.41 3.94
6 3 -1 3.08 3.25
6 3 0 402.4 19.44
6 3 0 469.56 20.68
-6 -3 0 422 20.11
6 3 0 432.86 19.94
-6 -3 0 447.54 20.52
6 3 0 444.76 19.24
-6 -3 0 420.33 19.18
6 3 0 461.86 19.57
6 3 1 -0.53 4.26
6 3 1 4.25 4.67
-6 -3 -1 0.31 2.76
6 3 1 2.2 3.62
-6 -3 -1 -0.65 3.15
-6 -3 -1 -1.07 4.41
6 3 1 -0.44 2.84
6 3 2 225.96 14.99
6 3 2 240.45 14.95
-6 -3 -2 209.54 14.28
6 3 2 204.75 13.53
-6 -3 -2 220.98 14.48
6 3 2 226.55 13.39
-6 -3 -2 237.28 15.03
6 3 2 234.07 14.06
6 3 3 23.48 6.28
6 3 3 22.76 6.06
-6 -3 -3 21.42 5.27
6 3 3 25.7 6.06
-6 -3 -3 29.91 6.17
-6 -3 -3 21.48 6.4
6 3 3 24.02 5.04
6 3 4 321.52 16.71
-6 -3 -4 297.82 16.92
6 3 4 331.71 17.56
-6 -3 -4 324.21 17.52
6 3 4 307.38 15.71
-6 -3 -4 316.34 17.24
6 3 4 332.89 16.52
6 3 4 298.84 17.22
6 3 5 28.76 6.33
6 3 5 33.66 6.4
6 3 5 26.38 6.3
-6 -3 -5 34.52 7.19
6 3 6 21.49 5.98
6 3 6 19.9 5.77
-6 -3 -6 23.63 6.16
6 3 7 51.96 8.26
-6 -3 -7 51.46 7.17
-6 -3 -7 50.03 7.98
6 3 7 44.48 7.38
6 3 8 19.48 5.93
6 3 8 21.78 5.99
-6 -3 -8 19.89 5.51
6 3 8 2.34 7.07
-6 -3 -8 22.58 6.24
6 3 9 8.92 5.1
-6 -3 -9 13.43 4.87
6 3 9 -1.76 7.33
-6 -3 -9 11.98 4.8
6 3 10 15.95 5.18
-6 -3 -10 5.2 4.03
-6 -3 -10 9.55 4.65
6 3 11 10.84 4.76
-6 -3 -11 9.88 4.14
6 3 11 5.11 6.52
-6 -3 -11 10.99 4.3
6 3 12 103.74 8.77
-6 -3 -12 89.93 7.87
-6 -3 -12 100.43 8.5
6 3 13 39.58 5.36
-6 -3 -13 29.58 4.68
-6 -3 -13 31.97 4.93
6 4 -10 66.84 7
6 4 -10 56.64 6.58
6 4 -10 62.28 6.78
6 4 -9 4.55 3.63
6 4 -9 9.64 3.92
6 4 -9 9.75 4.18
6 4 -8 86.35 8.74
6 4 -8 82.6 8.41
6 4 -8 88.91 9.03
6 4 -7 44.15 6.76
6 4 -7 36.78 6.91
6 4 -7 44.36 7.21
6 4 -6 40.59 7.31
6 4 -6 36.24 6.89
6 4 -6 42.64 6.29
6 4 -5 23.43 6.14
6 4 -5 20.78 5.99
6 4 -5 21.14 5.41
6 4 -4 4.97 4.92
6 4 -4 3.33 3.99
6 4 -4 2.69 3.63
6 4 -3 12.16 5.35
6 4 -3 8.36 4.29
6 4 -3 12.11 4.84
6 4 -3 15.74 5.24
-6 -4 3 13.8 4.86
6 4 -2 4.51 4.55
6 4 -2 5.69 4.48
6 4 -2 3.24 4.17
-6 -4 2 2.82 4.47
6 4 -1 52.36 7.96
6 4 -1 52.69 7.68
-6 -4 1 52.75 8.07
6 4 0 2.4 4.11
6 4 0 6.75 4.51
-6 -4 0 2.09 4.46
6 4 1 283.32 17.17
6 4 1 280.7 15.32
-6 -4 -1 288.8 16.56
6 4 2 27.47 6.49
-6 -4 -2 30.61 5.99
6 4 2 23.17 5.34
-6 -4 -2 35.24 6.94
6 4 3 272 16.67
-6 -4 -3 265.37 15.06
6 4 3 280.71 14.84
-6 -4 -3 272.42 16.2
6 4 4 3.85 4.02
6 4 4 -0.99 6.3
6 4 4 7.03 4.98
-6 -4 -4 5.76 3.94
-6 -4 -4 4.69 4.64
6 4 5 92.81 10.2
-6 -4 -5 84.71 9.23
-6 -4 -5 92.42 10.07
6 4 5 88.1 10.06
6 4 6 26.9 6.9
6 4 6 33.4 6.19
6 4 6 26.82 6.56
-6 -4 -6 30.65 6.46
-6 -4 -6 35.55 7.12
6 4 7 101.44 10.27
-6 -4 -7 102.6 9.87
-6 -4 -7 104.4 10.18
6 4 7 99.06 10.48
6 4 8 6.45 5.08
6 4 8 7.91 4.81
-6 -4 -8 5.85 4.65
6 4 8 0.5 7.57
-6 -4 -8 5.51 4.64
6 4 9 8.66 4.72
-6 -4 -9 11.87 4.58
-6 -4 -9 20.86 5.47
6 4 10 18.57 5.46
-6 -4 -10 18.57 5.15
6 4 10 1.94 6.97
-6 -4 -10 21.73 5.35
6 4 11 116.27 9.65
-6 -4 -11 90.39 8.37
-6 -4 -11 103.52 8.68
6 4 12 7.97 3.63
-6 -4 -12 8.18 3.66
6 4 12 5.58 6.23
-6 -4 -13 40.41 5.91
-6 -4 -13 78.48 6.78
6 5 -9 76.8 7
6 5 -9 64.21 6.27
6 5 -9 76.89 7.08
6 5 -8 40.45 6.09
6 5 -8 39.27 5.77
6 5 -7 81 8.43
6 5 -7 81.04 7.94
6 5 -6 9.37 4.76
6 5 -6 7 4.28
6 5 -6 4.42 3.23
6 5 -5 13.42 5.24
6 5 -5 15.14 4.49
6 5 -4 5.34 4.24
6 5 -4 1.76 3.51
6 5 -3 7.21 4.42
-6 -5 3 6.97 4.18
6 5 -3 8.6 4.11
6 5 -2 3.24 4.29
-6 -5 2 3.72 4.08
6 5 -2 2.91 3.67
-6 -5 2 2.74 4.66
6 5 -1 36.16 7.08
-6 -5 1 29.36 6.3
6 5 -1 35.47 6.5
-6 -5 1 30.93 6.78
6 5 0 27.18 6.5
-6 -5 0 22.45 5.4
6 5 0 27.32 5.79
-6 -5 0 32.3 6.92
6 5 1 91.43 9.99
-6 -5 -1 81.31 8.99
6 5 1 93.08 9.4
-6 -5 -1 91.9 10.07
6 5 2 196.25 14.33
-6 -5 -2 180.82 12.87
6 5 2 177.7 12.22
-6 -5 -2 185.21 13.26
6 5 3 28.05 6.38
-6 -5 -3 25.88 5.86
6 5 3 30.69 5.88
-6 -5 -3 26.56 6.47
-6 -5 -4 143.13 11.64
-6 -5 -4 144.53 11.62
6 5 4 141.41 12.07
-6 -5 -5 67.47 8.17
-6 -5 -5 83.99 9.06
6 5 5 70.75 8.88
6 5 6 21.55 6.03
6 5 6 16.53 5.72
-6 -5 -6 13.86 4.91
6 5 6 1.34 7.26
-6 -5 -6 15.28 5.07
6 5 7 3.34 4.24
6 5 7 7.34 4.5
6 5 7 3.84 4.33
-6 -5 -7 6.14 4.07
6 5 7 -4.95 7.27
-6 -5 -7 8.42 4.62
6 5 8 3.52 4.17
-6 -5 -8 -2.04 3.88
6 5 8 1.95 6.14
-6 -5 -8 -0.27 3.55
6 5 8 4.4 4.51
6 5 9 1.67 3.62
-6 -5 -9 -1.67 4.01
6 5 9 -4.13 5.5
6 5 10 64.84 7.38
-6 -5 -10 64.57 7.35
-6 -5 -11 1.71 3.11
6 5 11 0.6 5.7
-6 -5 -12 73.49 6.75
-6 -5 -12 43.77 8.1
6 6 -7 17.23 3.95
-6 -6 7 14.85 3.53
6 6 -6 23.33 4.67
-6 -6 6 16.43 3.97
6 6 -5 -0.49 2.91
-6 -6 5 0.56 2.84
6 6 -5 2.84 3.01
6 6 -4 6.01 3.92
-6 -6 4 3.8 3.64
6 6 -4 3.09 3.31
6 6 -3 12.87 4.43
-6 -6 3 14.02 4.58
6 6 -3 16.28 4.66
6 6 -2 10.76 4.24
-6 -6 2 14.11 4.95
6 6 -2 11.74 4.3
-6 -6 2 9.92 4.44
6 6 -1 5.58 4.16
-6 -6 1 5.26 4.16
6 6 -1 2.25 3.84
-6 -6 1 2.9 4.16
6 6 0 103.71 9.71
-6 -6 0 89.96 9.19
-6 -6 0 99.07 9.52
6 6 1 12.04 4.66
6 6 1 13.31 5.05
-6 -6 -1 13.83 4.93
-6 -6 -1 10.06 5.01
6 6 2 156.61 12.13
-6 -6 -2 160.74 11.72
-6 -6 -2 181.48 12.56
6 6 2 170.37 12.34
6 6 3 12.57 4.63
6 6 3 10.79 5.16
-6 -6 -3 8.53 4.31
-6 -6 -3 16.38 4.82
6 6 4 91.47 9.65
-6 -6 -4 102.01 9.68
-6 -6 -4 109 9.67
6 6 4 94.29 9.45
6 6 5 16.86 5
6 6 5 19.69 5.65
-6 -6 -5 15.29 4.84
-6 -6 -5 26.02 5.42
6 6 6 52.64 7.59
6 6 6 51.28 7.29
-6 -6 -6 46.61 6.75
6 6 6 55.73 7.24
6 6 7 -1.31 4
6 6 7 2.6 3.65
-6 -6 -7 0.45 3.34
6 6 7 3.84 5.95
6 6 7 0.77 3.51
6 6 8 7.05 4.04
-6 -6 -8 9.03 4.25
6 6 8 0.66 6.23
6 6 9 15.9 4.38
-6 -6 -9 15.62 4.26
-6 -6 -10 16.58 6.03
-6 -6 -10 14.8 3.94
6 6 10 5.28 5.92
-6 -6 -11 13.83 3.52
6 6 11 8.71 5.32
-6 -7 4 1.21 2.46
6 7 -4 1.44 2.18
-6 -7 4 4.28 3.27
6 7 -3 -0.62 2.99
-6 -7 3 -1.84 3.11
6 7 -3 0.19 2.32
-6 -7 3 -0.96 2.91
6 7 -2 3.78 3.56
-6 -7 2 3.1 3.11
6 7 -2 3.19 2.88
-6 -7 2 4.35 3.58
6 7 -1 101.05 8.8
-6 -7 1 118.01 9.05
6 7 -1 104.81 8.38
-6 -7 1 125.01 9.22
6 7 0 1.12 3.53
-6 -7 0 2.82 3.51
6 7 0 1.39 3.01
-6 -7 0 3.39 3.61
6 7 1 92.14 8.79
-6 -7 -1 87.25 8.1
-6 -7 -1 89.63 7.99
6 7 2 -0.07 3.85
-6 -7 -2 1.45 3.22
-6 -7 -2 1.75 3.04
6 7 3 97.55 9.15
-6 -7 -3 92.33 8.27
6 7 4 3.58 4.1
-6 -7 -4 4.52 3.7
6 7 5 28.6 5.85
-6 -7 -5 21.33 4.75
6 7 6 1.74 3.62
6 7 6 -1.33 3.21
-6 -7 -6 -0.04 2.92
6 7 7 1.08 3.15
6 7 7 3.36 3.06
-6 -7 -7 -0.51 2.69
6 7 7 -2.19 4.46
-6 -7 -8 3.7 3.05
6 7 8 0.42 5.05
7 -1 -4 0.87 2.81
7 -1 -4 1.79 2.51
7 -1 -4 4.71 2.6
7 -1 -3 10.46 3.49
7 -1 -3 10.94 3.46
7 -1 -3 8.89 3.01
7 -1 -2 22.8 4.69
7 -1 -2 32.01 5.01
7 -1 -2 29.11 4.64
7 -1 -2 24.13 3.97
7 -1 -1 22.26 4.41
7 -1 -1 24.23 4.63
7 -1 -1 26.95 4.75
7 -1 -1 20.43 3.65
7 -1 0 10.81 3.73
7 -1 0 16.93 4.19
7 -1 0 12.03 3.94
7 -1 1 25.86 4.42
7 -1 1 31.59 5.16
7 -1 1 27.94 4.15
7 -1 2 38.6 4.92
7 -1 2 41.98 5.57
7 -1 2 41.3 4.76
7 -1 3 28.62 4.81
7 -1 3 28.99 4.14
7 -1 4 21.46 4.24
7 -1 4 17.58 3.42
7 -1 5 18.89 3.9
7 0 -6 7.61 3.67
7 0 -6 8.98 3.17
7 0 -5 0.94 3.04
7 0 -5 0.74 2.64
7 0 -5 1.4 2.91
7 0 -5 0.75 2.78
7 0 -4 36.57 5.64
7 0 -4 37.44 5.41
7 0 -4 40.51 5.73
7 0 -4 39.18 5.37
7 0 -3 25.99 5.32
7 0 -3 23.82 4.98
7 0 -3 33.99 5.81
7 0 -3 33.75 5.1
7 0 -2 81.44 7.95
7 0 -2 88.89 8.32
7 0 -2 83.55 8.04
7 0 -2 76.62 7.18
7 0 -1 12.71 4.14
7 0 -1 14.2 4.72
7 0 -1 16.59 4.73
7 0 -1 13.88 3.84
7 0 0 71.24 7.5
7 0 0 73.47 7.86
7 0 1 18.6 4.67
7 0 1 20.24 5.38
7 0 2 87.6 7.88
7 0 2 82.2 8.44
7 0 3 3.45 3.16
7 0 3 0.54 3.84
-7 0 -3 -0.13 5.05
7 0 3 3.29 2.8
7 0 4 6.18 3.73
-7 0 -4 0.71 5.03
7 0 4 5.86 2.86
7 0 5 9.93 3.97
7 0 5 11.18 3.27
7 0 6 -0.11 2.8
-7 0 -6 -1.3 4.58
7 0 6 0.69 2.27
7 0 7 15.72 4.1
7 0 7 18.36 3.52
7 1 -7 7.78 3.43
7 1 -7 11.96 3.73
7 1 -7 8.26 2.96
7 1 -6 1.7 2.99
7 1 -6 -0.36 3.36
7 1 -6 1.85 2.74
7 1 -5 51.2 6.66
7 1 -5 57.04 6.41
7 1 -5 55.02 6.8
7 1 -5 56.75 6.48
7 1 -4 10.28 4.05
7 1 -4 13.86 4.39
7 1 -4 6.89 4.22
7 1 -4 14.71 4.19
7 1 -3 19.7 5.01
7 1 -3 26.58 5.56
7 1 -3 32.71 5.99
7 1 -3 26.11 5.22
7 1 -2 4.4 4.11
7 1 -2 6.16 4.69
7 1 -2 4.09 3.21
7 1 -1 142.07 10.82
7 1 -1 132.5 10.96
7 1 -1 133.05 9.71
7 1 0 5.43 4.14
7 1 0 0.24 4.08
7 1 0 2.3 2.99
7 1 1 64.61 7.72
7 1 1 59.6 7.79
7 1 2 10.64 4.29
7 1 2 8.13 4.48
7 1 3 54.45 6.78
7 1 3 45.39 7.04
7 1 4 25.47 4.91
7 1 4 23.19 5.46
7 1 5 11.69 4.4
-7 -1 -5 -1.73 5.35
7 1 6 -0.48 3.42
-7 -1 -6 -2.08 4.96
-7 -1 -6 4.69 3.23
7 1 6 2.47 2.61
7 1 7 24.78 4.59
7 1 7 21.78 4.8
-7 -1 -7 19.14 4.35
7 1 7 20.96 3.92
7 1 8 -0.83 2.58
7 1 8 1.53 2.76
-7 -1 -8 1.01 2.95
7 1 8 2.2 2.49
7 2 -8 1.44 2.77
7 2 -8 4.27 2.94
7 2 -7 6.73 3.35
7 2 -7 6.16 3.7
7 2 -7 6.19 2.91
7 2 -6 0.86 3.1
7 2 -6 4.02 3.89
7 2 -6 3.43 3.04
7 2 -5 -0.86 3.11
7 2 -5 -1.29 3.71
7 2 -5 0.84 2.97
7 2 -4 3.82 3.66
7 2 -4 1.74 3.31
7 2 -4 0.58 3.67
7 2 -4 3.75 3.42
7 2 -3 90.68 8.69
7 2 -3 102.64 9.82
7 2 -3 91.3 8.63
7 2 -2 76.48 8.2
7 2 -2 75.5 8.84
7 2 -2 67.46 7.59
7 2 -1 76.22 8.56
7 2 -1 72.08 8.76
7 2 -1 72.54 7.59
7 2 0 109.48 9.98
7 2 0 96.13 9.68
7 2 0 96.86 8.57
7 2 1 46.79 6.96
7 2 1 45.4 7.28
7 2 1 48.25 6.21
7 2 2 56.98 7.53
7 2 2 57.99 7.92
7 2 3 75.78 7.92
7 2 3 73.97 8.4
-7 -2 -3 73.84 8
7 2 4 9.41 3.99
7 2 4 4.97 4.22
-7 -2 -4 12.63 4.6
7 2 5 2.4 3.52
7 2 5 -1.9 3.82
7 2 5 -1.95 5.54
-7 -2 -5 2.95 3.87
7 2 6 5.48 3.88
-7 -2 -6 10.35 4.42
7 2 7 -0.51 3.08
7 2 7 -2.94 5.93
-7 -2 -7 -1.37 3.26
7 2 8 83.7 7.67
-7 -2 -8 100.52 8.47
7 2 9 6.47 3.55
7 2 9 4.26 5.58
-7 -2 -9 9.32 3.65
7 2 9 7.27 2.8
7 3 -7 5.26 2.86
7 3 -7 4.33 3.09
7 3 -7 4.51 3.51
7 3 -7 2.81 2.42
7 3 -6 6.88 3.15
7 3 -6 14.05 4.09
7 3 -6 12.88 4.33
7 3 -6 13.08 3.78
7 3 -5 2.81 2.98
7 3 -5 -0.2 3.89
7 3 -5 2.3 3.24
7 3 -4 76.42 7.85
7 3 -4 98.43 8.42
7 3 -4 87.85 8.92
7 3 -4 95.25 8.48
7 3 -3 19.13 4.91
7 3 -3 19.08 4.78
7 3 -3 20.28 5.31
7 3 -3 23.02 5.12
7 3 -2 112.2 9.59
7 3 -2 130.27 10.4
7 3 -2 129.77 10.69
7 3 -2 126.18 9.91
7 3 -1 86.26 8.62
7 3 -1 89.42 8.9
7 3 -1 89.24 9.33
7 3 -1 85.9 8.37
7 3 0 145.81 11.04
7 3 0 166.43 11.94
7 3 0 152.56 11.53
7 3 0 164.3 11.02
-7 -3 0 167.85 11.48
7 3 1 36.01 6.42
7 3 1 39.78 6.74
7 3 1 40.17 5.79
-7 -3 -1 45.48 6.71
7 3 1 38.84 6.38
7 3 2 60.77 7.64
-7 -3 -2 55.55 7.36
7 3 2 53.26 7.09
7 3 3 14.01 4.82
7 3 3 17.57 5.21
-7 -3 -3 19.41 5.44
7 3 4 31.78 5.91
7 3 4 35.11 6.01
7 3 4 37.96 6.27
-7 -3 -4 34.24 6.38
7 3 5 8.68 4.15
7 3 5 10.79 3.75
7 3 5 10.24 4.28
7 3 5 1.35 5.75
-7 -3 -5 10.54 4.67
7 3 6 -0.43 3.42
7 3 6 0.75 3.52
7 3 6 -2.61 4.95
-7 -3 -6 0.81 3.78
7 3 7 50.45 6.61
-7 -3 -7 50.09 6.79
7 3 8 12.85 4.28
-7 -3 -8 12.29 4.19
7 3 9 112.11 8.54
-7 -3 -9 109.71 8.51
7 3 10 13.11 3.69
7 3 10 5.4 5.47
-7 -3 -10 15.69 3.96
7 4 -6 2.79 2.93
7 4 -6 -0.52 3.02
7 4 -6 -0.63 2.42
7 4 -5 1.3 2.79
7 4 -5 0.26 3.41
7 4 -5 2.14 2.75
7 4 -4 0.46 3.07
7 4 -4 0.9 3.44
7 4 -4 -0.15 3.07
7 4 -3 125.92 10.06
7 4 -3 134.87 9.76
7 4 -3 137.22 10.06
7 4 -3 132.81 9.72
-7 -4 3 134.86 9.78
7 4 -2 -1.49 3.94
7 4 -2 -1.17 3.68
7 4 -2 0.45 3.59
7 4 -2 1.93 3.53
-7 -4 2 3.71 3.95
7 4 -1 102.78 9.5
7 4 -1 118.9 9.82
7 4 -1 112.19 9.34
-7 -4 1 115.56 9.76
7 4 0 22.39 5.67
7 4 0 28.69 6.1
7 4 0 32.47 5.43
-7 -4 0 28.92 5.65
7 4 1 53.71 7.61
7 4 1 59.77 7.67
7 4 1 56.42 6.74
-7 -4 -1 55.74 7.41
7 4 2 0.76 3.66
7 4 2 2.75 3.72
7 4 2 -2.26 3.66
7 4 2 3.2 3.08
-7 -4 -2 1.31 4.06
7 4 3 30.24 5.92
7 4 3 34.59 6.1
7 4 3 35.55 6.02
-7 -4 -3 32.5 5.94
7 4 4 11.27 4.59
7 4 4 7.53 3.93
7 4 4 11.29 4.44
-7 -4 -4 11.13 4.34
7 4 5 1.14 3.77
7 4 5 2.67 3.49
7 4 5 3.93 3.71
7 4 5 -3.75 4.98
-7 -4 -5 2.32 3.61
7 4 6 9.04 4.26
7 4 6 12.03 4.44
7 4 6 1.83 4.84
-7 -4 -6 8.1 4.23
7 4 7 15.2 4.58
-7 -4 -7 12.72 4.52
7 4 8 48.75 6.43
-7 -4 -8 39.23 5.19
-7 -4 -8 42.08 5.8
7 4 9 47.98 5.83
-7 -4 -9 46.33 5.75
7 5 -5 14.94 3.78
7 5 -5 13.23 3.18
7 5 -4 13.93 4.14
7 5 -4 20.06 4.11
-7 -5 4 18.7 4.09
7 5 -3 10.78 3.95
7 5 -3 13.46 3.84
-7 -5 3 6.7 3.61
7 5 -2 60.58 7.1
7 5 -2 57.18 6.45
7 5 -2 69.09 6.97
-7 -5 2 54.95 6.67
7 5 -1 19.13 4.84
7 5 -1 20.95 4.85
7 5 -1 24.49 4.84
-7 -5 1 22.22 5.02
7 5 0 52.09 7.14
7 5 0 54.6 6.84
7 5 0 48.29 6.11
-7 -5 0 47.2 6.71
7 5 1 42.94 6.28
7 5 1 32.1 5.59
7 5 1 40.31 5.77
-7 -5 -1 41.21 6.49
7 5 1 42.63 6.52
7 5 2 21.82 5.18
7 5 2 22.27 5.3
7 5 2 14.67 4.46
7 5 2 20.98 4.39
-7 -5 -2 19.86 5.11
7 5 3 2.89 3.95
7 5 3 6.28 3.87
7 5 3 3.46 3.42
-7 -5 -3 6.33 3.41
-7 -5 -3 7.22 3.84
7 5 4 7.44 3.94
7 5 4 6.13 3.58
7 5 4 4.17 3.59
-7 -5 -4 1.94 3.04
-7 -5 -4 6.87 3.81
7 5 5 2.01 3.33
7 5 5 5.55 3.27
7 5 5 3.73 3.85
-7 -5 -5 4.72 3.28
7 5 5 1.5 5.75
-7 -5 -5 3.46 3.75
7 5 6 19.36 4.57
7 5 6 15.48 3.78
7 5 6 16.42 4.78
-7 -5 -6 14.74 4.07
7 5 6 4.42 5.71
-7 -5 -6 16.99 4.64
7 5 7 3.1 3.55
-7 -5 -7 2.99 3.11
7 5 7 4.48 5.81
-7 -5 -7 3.85 3.36
7 5 8 69.99 6.84
-7 -5 -8 56.36 5.84
-7 -5 -8 67.13 6.34
7 6 -2 36.65 4.73
-7 -6 2 31.54 4.78
7 6 -1 17.29 3.94
7 6 -1 21.22 4.1
7 6 -1 19.06 3.98
-7 -6 1 17.46 4.31
7 6 0 20.34 4.38
7 6 0 20.37 4.3
7 6 0 13.9 3.9
-7 -6 0 21.33 4.15
7 6 0 23.33 4.26
-7 -6 0 21.51 4.43
7 6 1 24.15 4.59
7 6 1 26.27 4.93
7 6 1 22.65 4.56
-7 -6 -1 22.86 4.3
7 6 1 24.76 4.36
-7 -6 -1 26.95 4.92
7 6 2 28.94 5
7 6 2 25.72 4.94
-7 -6 -2 27.51 4.7
7 6 2 23.54 4.16
-7 -6 -2 31.73 5.29
7 6 2 32.34 5.17
7 6 3 -0.15 2.76
7 6 3 0.86 2.96
7 6 3 2.53 3.26
-7 -6 -3 0.88 2.81
7 6 3 -0.04 2.1
-7 -6 -3 3.72 3.38
7 6 4 0.78 2.75
7 6 4 2.85 2.77
7 6 4 1.07 3.2
-7 -6 -4 0.81 2.92
-7 -6 -4 0.35 2.59
7 6 5 5.26 2.9
7 6 5 3.61 2.84
7 6 5 4.74 3.34
-7 -6 -5 2.25 2.99
7 6 5 -2.44 4.91
-7 -6 -5 2.27 3.01
7 6 6 6.34 3.41
