#------------------------------------------------------------------------------
#$Date: 2020-06-26 00:24:47 +0300 (Fri, 26 Jun 2020) $
#$Revision: 253446 $
#$URL: file:///home/coder/svn-repositories/cod/cif/4/51/78/4517807.cif $
#------------------------------------------------------------------------------
#
# This file is available in the Crystallography Open Database (COD),
# http://www.crystallography.net/
#
# All data on this site have been placed in the public domain by the
# contributors.
#
data_4517807
loop_
_publ_author_name
'Wu, Xiaosong'
'Dai, Donghuan'
'Ling, Yao'
'Chen, Shuo'
'Huang, Chongyu'
'Feng, Shiyu'
'Huang, Weiguo'
_publ_section_title
;
 Organic Single-Crystal Transistor with Unique Photo Responses and Its
 Application as Light-Stimulated Synaptic Devices.
;
_journal_name_full               'ACS applied materials &amp; interfaces'
_journal_paper_doi               10.1021/acsami.0c05809
_journal_year                    2020
_chemical_formula_sum            'C22 H14 S2'
_chemical_formula_weight         342.45
_space_group_crystal_system      monoclinic
_space_group_IT_number           14
_space_group_name_Hall           '-P 2ybc'
_space_group_name_H-M_alt        'P 1 21/c 1'
_atom_sites_solution_hydrogens   geom
_audit_creation_method           SHELXL-2014/6
_cell_angle_alpha                90
_cell_angle_beta                 104.634(16)
_cell_angle_gamma                90
_cell_formula_units_Z            2
_cell_length_a                   12.898(3)
_cell_length_b                   5.9681(11)
_cell_length_c                   10.871(3)
_cell_measurement_reflns_used    2062
_cell_measurement_temperature    293(2)
_cell_measurement_theta_max      27.4971
_cell_measurement_theta_min      3.2649
_cell_volume                     809.7(3)
_computing_cell_refinement       'CrystalClear (Rigaku Inc., 2008)'
_computing_data_collection       'CrystalClear (Rigaku Inc., 2008)'
_computing_data_reduction        'CrystalClear (Rigaku Inc., 2008)'
_computing_structure_refinement  'SHELXL-2014/6 (Sheldrick, 2014)'
_computing_structure_solution    'SHELXT 2018/2 (Sheldrick, 2018)'
_diffrn_ambient_temperature      293(2)
_diffrn_measured_fraction_theta_full 0.997
_diffrn_measured_fraction_theta_max 0.995
_diffrn_measurement_device_type
;
Saturn724+ (2x2 bin mode)
;
_diffrn_measurement_method       CCD_Profile_fitting
_diffrn_radiation_type           MoK\a
_diffrn_radiation_wavelength     0.71073
_diffrn_reflns_av_R_equivalents  0.0765
_diffrn_reflns_av_unetI/netI     0.0661
_diffrn_reflns_Laue_measured_fraction_full 0.997
_diffrn_reflns_Laue_measured_fraction_max 0.995
_diffrn_reflns_limit_h_max       16
_diffrn_reflns_limit_h_min       -16
_diffrn_reflns_limit_k_max       7
_diffrn_reflns_limit_k_min       -7
_diffrn_reflns_limit_l_max       14
_diffrn_reflns_limit_l_min       -13
_diffrn_reflns_number            6151
_diffrn_reflns_point_group_measured_fraction_full 0.997
_diffrn_reflns_point_group_measured_fraction_max 0.995
_diffrn_reflns_theta_full        25.242
_diffrn_reflns_theta_max         27.487
_diffrn_reflns_theta_min         3.265
_exptl_absorpt_coefficient_mu    0.327
_exptl_absorpt_correction_T_max  1.0000
_exptl_absorpt_correction_T_min  0.6872
_exptl_absorpt_correction_type   multi-scan
_exptl_absorpt_process_details
;
CrysAlisPro 1.171.40.14a (Rigaku Oxford Diffraction, 2018)
Empirical absorption correction using spherical harmonics,
 implemented in SCALE3 ABSPACK scaling algorithm.
;
_exptl_crystal_colour            Green
_exptl_crystal_density_diffrn    1.405
_exptl_crystal_description       Prism
_exptl_crystal_F_000             356
_exptl_crystal_size_max          1.000
_exptl_crystal_size_mid          0.1000
_exptl_crystal_size_min          0.0500
_refine_diff_density_max         0.272
_refine_diff_density_min         -0.303
_refine_diff_density_rms         0.055
_refine_ls_extinction_method     none
_refine_ls_goodness_of_fit_ref   1.106
_refine_ls_hydrogen_treatment    constr
_refine_ls_matrix_type           full
_refine_ls_number_parameters     109
_refine_ls_number_reflns         1847
_refine_ls_number_restraints     1
_refine_ls_restrained_S_all      1.105
_refine_ls_R_factor_all          0.1014
_refine_ls_R_factor_gt           0.0673
_refine_ls_shift/su_max          0.000
_refine_ls_shift/su_mean         0.000
_refine_ls_structure_factor_coef Fsqd
_refine_ls_weighting_details
'w=1/[\s^2^(Fo^2^)+(0.0739P)^2^+0.0878P] where P=(Fo^2^+2Fc^2^)/3'
_refine_ls_weighting_scheme      calc
_refine_ls_wR_factor_gt          0.1559
_refine_ls_wR_factor_ref         0.1696
_reflns_Friedel_coverage         0.000
_reflns_number_gt                1320
_reflns_number_total             1847
_reflns_threshold_expression     'I > 2\s(I)'
_cod_data_source_file            am0c05809_si_001.cif
_cod_data_source_block           ddh3
_cod_depositor_comments
;
The following automatic conversions were performed:

data item '_exptl_absorpt_correction_type' value 'Multi-scan' was
changed to 'multi-scan' in accordance with the
/home/data/users/saulius/crontab/automatic-downloads/rss-feeds/ACS/lib/dictionaries/cif_core.dic
dictionary named 'cif_core.dic' version 2.4.2 last updated on
2011-04-26.

Automatic conversion script
Id: cif_fix_values 7556 2019-12-06 15:28:31Z antanas 
;
_cod_original_cell_volume        809.7(4)
_cod_original_sg_symbol_H-M      'P 21/c'
_cod_database_code               4517807
_shelx_space_group_comment
;
The symmetry employed for this shelxl refinement is uniquely defined
by the following loop, which should always be used as a source of
symmetry information in preference to the above space-group names.
They are only intended as comments.
;
_shelxl_version_number           2014/6
_shelx_res_file
;
TITL ddh3_a.res in P2(1)/c
REM Old TITL ddh3 in P2(1)/c

REM SHELXT solution in P2(1)/c
REM R1 0.218,  Rweak 0.068,  Alpha 0.059,  Orientation as input
REM Formula found by SHELXT:  C11 S

CELL  0.71073  12.8983   5.9681  10.8710   90.000  104.634   90.000
ZERR   18.000   0.0033   0.0011   0.0033    0.000    0.016    0.000
LATT  1
SYMM -X, 1/2+Y, 1/2-Z
SFAC C H S
UNIT 44 28 4
L.S. 20
BOND $H
LIST 6
ACTA
FMAP 2
PLAN 20
DELU 0.02 0.01 c3 c4
WGHT    0.073900    0.087800
FVAR       0.76035
S1    3    0.133017    0.713663    0.721746    11.00000    0.07237    0.06905 =
         0.08337    0.02604    0.05153    0.02881
C2    1    0.076099    0.661552    0.843603    11.00000    0.05549    0.07084 =
         0.06794   -0.00045    0.03711    0.01441
AFIX  43
H2    2    0.023228    0.750547    0.863075    11.00000   -1.20000
AFIX   0
C3    1    0.116358    0.477204    0.908292    11.00000    0.05224    0.06942 =
         0.04432   -0.00065    0.02509   -0.00751
AFIX  43
H3    2    0.094069    0.424795    0.978005    11.00000   -1.20000
AFIX   0
C4    1    0.196091    0.369163    0.860801    11.00000    0.03474    0.05357 =
         0.03703    0.00117    0.01652   -0.00039
AFIX  43
H4    2    0.231245    0.238641    0.894905    11.00000   -1.20000
AFIX   0
C5    1    0.215320    0.482413    0.756838    11.00000    0.03474    0.04145 =
         0.03815   -0.00157    0.01358   -0.00356
C6    1    0.296021    0.433975    0.687767    11.00000    0.03212    0.03783 =
         0.02866   -0.00206    0.00802   -0.00051
C7    1    0.324776    0.584108    0.606560    11.00000    0.03389    0.03491 =
         0.03309    0.00105    0.01014    0.00447
AFIX  43
H7    2    0.286609    0.717385    0.588401    11.00000   -1.20000
AFIX   0
C8    1    0.409979    0.544199    0.549531    11.00000    0.03538    0.02900 =
         0.02720   -0.00121    0.00668    0.00071
C9    1    0.443260    0.700804    0.471338    11.00000    0.03505    0.02827 =
         0.03169    0.00094    0.01007    0.00427
AFIX  43
H9    2    0.405201    0.833932    0.451686    11.00000   -1.20000
AFIX   0
C10   1    0.531193    0.663475    0.422330    11.00000    0.03564    0.02683 =
         0.02612   -0.00152    0.00569    0.00071
C11   1    0.565926    0.820444    0.342862    11.00000    0.04356    0.02695 =
         0.03089    0.00151    0.00974    0.00125
AFIX  43
H11   2    0.531155    0.957876    0.326726    11.00000   -1.20000
AFIX   0
C12   1    0.647850    0.776071    0.290108    11.00000    0.04286    0.03325 =
         0.03231    0.00402    0.01270   -0.00208
AFIX  43
H12   2    0.668293    0.883077    0.238644    11.00000   -1.20000
AFIX   0
HKLF 4

REM  ddh3_a.res in P2(1)/c
REM R1 =  0.0673 for    1320 Fo > 4sig(Fo)  and  0.1014 for all    1847 data
REM    109 parameters refined using      1 restraints

END

WGHT      0.0703      0.1110

REM Highest difference peak  0.272,  deepest hole -0.303,  1-sigma level  0.055
Q1    1   0.5606  0.5641  0.4360  11.00000  0.05    0.27
Q2    1   0.3272  0.3359  0.6908  11.00000  0.05    0.25
Q3    1   0.1634  0.4207  0.8724  11.00000  0.05    0.24
Q4    1   0.2955  0.5107  0.6464  11.00000  0.05    0.22
Q5    1   0.3607  0.5364  0.5731  11.00000  0.05    0.22
Q6    1   0.4124  0.6568  0.5055  11.00000  0.05    0.22
Q7    1   0.1737  0.5534  0.7273  11.00000  0.05    0.22
Q8    1   0.5390  0.7443  0.3931  11.00000  0.05    0.22
Q9    1   0.2983  0.6238  0.5879  11.00000  0.05    0.22
Q10   1   0.2607  0.4553  0.7242  11.00000  0.05    0.22
Q11   1   0.4940  0.7089  0.4561  11.00000  0.05    0.21
Q12   1   0.3021  0.7964  0.6100  11.00000  0.05    0.20
Q13   1   0.2360  0.4570  0.8384  11.00000  0.05    0.20
Q14   1   0.1858  0.3842  0.7998  11.00000  0.05    0.19
Q15   1   0.1849  0.2798  0.8607  11.00000  0.05    0.19
Q16   1   0.2856  0.4813  0.6211  11.00000  0.05    0.18
Q17   1   0.5559  0.8712  0.3415  11.00000  0.05    0.18
Q18   1   0.0149  0.7777  0.8198  11.00000  0.05    0.17
Q19   1   0.6164  0.7749  0.3190  11.00000  0.05    0.17
Q20   1   0.0620  0.7086  0.8653  11.00000  0.05    0.17
;
_shelx_res_checksum              97751
_shelx_hkl_file
;
  -2   0   0   10.96    0.56
  -2   0   0   15.63    4.17
   2   0   0   11.67    0.79
   3   0   0 1402.07    6.71
  -3   0   0 1392.54    7.56
   4   0   0 1585.95    7.87
  -4   0   0 1582.92    9.19
   5   0   0  269.69    3.28
   5   0   0  271.13   14.45
  -5   0   0  262.69    4.47
   6   0   0    2.46    0.87
   6   0   0    2.22    7.38
  -6   0   0    5.40    1.59
   7   0   0  247.48    5.78
   7   0   0  236.42   15.87
  -7   0   0  245.62    6.66
   8   0   0   93.61    9.81
   8   0   0   91.52   11.79
  -8   0   0   91.06    7.54
   9   0   0  516.17   27.30
   9   0   0  475.60   30.44
  -9   0   0  528.37   28.25
  10   0   0    1.58    1.13
  10   0   0   12.13   11.51
 -10   0   0    1.69    1.40
  11   0   0   51.49    8.99
  11   0   0   53.63   10.68
 -11   0   0   46.07    5.91
  12   0   0   87.19   11.63
  12   0   0   92.48   15.76
 -12   0   0   86.23   10.29
  13   0   0    5.75    3.36
  13   0   0   13.89    9.40
 -13   0   0    3.69    2.21
  14   0   0   18.58    7.31
 -14   0   0   14.66    6.75
  15   0   0   15.92    7.85
 -15   0   0    9.32    5.46
  16   0   0    9.61    6.12
   0   1   0   -0.18    0.53
   0   1   0    0.35    0.46
   1   1   0   72.42    0.95
   1   1   0   67.00    1.68
  -1   1   0   68.32    1.66
  -1   1   0   68.86    0.99
   1   1   0   64.25    1.69
   2   1   0 2030.67    8.89
  -3  -1   0  896.09    5.94
  -3   1   0  902.76    4.09
   4  -1   0   99.10    2.72
   4   1   0  102.17    2.30
  -4  -1   0  101.07    1.78
   4  -1   0  100.74    4.79
   4   1   0  105.46   18.39
  -4   1   0   95.97    2.34
  -4  -1   0  106.85    7.85
   4  -1   0   93.84    1.91
   5  -1   0  168.78    4.37
   5   1   0  182.99    2.03
   5  -1   0  193.90    7.30
   5   1   0  164.26   15.20
  -5   1   0  182.22    2.57
  -5  -1   0  173.71    4.47
   6   1   0  428.49    8.15
   6  -1   0  428.12   11.75
   6  -1   0  437.43   12.73
   6   1   0  460.18   24.95
  -6   1   0  443.44    9.13
  -6  -1   0  421.85    9.54
   7   1   0  195.21   11.71
   7  -1   0  190.59   11.67
   7  -1   0  191.78   13.68
   7   1   0  158.27   18.54
  -7   1   0  194.27   12.34
  -7  -1   0  201.36   12.51
   8   1   0  178.86   13.33
   8  -1   0  171.65   12.36
   8  -1   0  159.31   13.67
   8   1   0  215.70   23.15
  -8   1   0  174.30   12.38
  -8  -1   0  175.72   14.55
   9   1   0   14.71    3.24
   9  -1   0   17.65    4.33
   9  -1   0   21.75    6.03
   9   1   0   30.17   10.23
  -9   1   0   20.04    4.79
  -9  -1   0   28.27    5.92
  10   1   0  109.80   11.92
  10  -1   0  113.04   12.28
  10  -1   0  113.74   14.52
  10   1   0  102.51   13.95
 -10   1   0  112.30   13.63
 -10  -1   0  118.65    8.24
  11   1   0   10.86    3.49
  11  -1   0   14.88    4.16
  11  -1   0    8.72    7.22
  11   1   0   43.81   15.97
 -11   1   0   12.41    4.34
 -11  -1   0   13.31    5.54
  12  -1   0   34.54   10.62
  12  -1   0   37.10    8.25
  12   1   0   56.29   16.60
 -12   1   0   37.32    7.84
 -12  -1   0   41.48    8.31
  13  -1   0    2.52    1.37
  13  -1   0   15.93    6.56
  13   1   0    5.46    9.85
 -13   1   0    3.89    1.95
 -13  -1   0    3.79    1.80
  14  -1   0    1.09    1.38
  14  -1   0   10.81    4.84
  14   1   0    9.74    8.42
 -14  -1   0    2.14    0.90
  15  -1   0    1.17    5.03
  15   1   0   -0.57    7.55
 -15  -1   0    4.24    2.25
  16  -1   0   14.33    6.09
  16   1   0   22.80   10.70
 -16  -1   0    5.32    4.67
   0  -2   0  630.81    4.90
   0  -2   0  633.16    5.27
   0  -2   0  610.99    5.08
  -1  -2   0    0.58    0.86
   1  -2   0   -0.06    1.41
  -1  -2   0   -0.19    1.38
   1  -2   0   -0.10    1.16
   1  -2   0   -0.14    0.82
  -1  -2   0    1.53    0.84
  -1   2   0    0.45    0.25
   2  -2   0  487.77    5.23
   2   2   0  482.70    3.44
   2   2   0  479.01    9.68
   2  -2   0  493.30    5.03
  -2  -2   0  492.53    5.90
  -2   2   0  472.87    3.01
   3  -2   0  325.28    4.57
   3   2   0  316.68    2.27
   3   2   0  322.52    6.57
   3  -2   0  334.03    4.89
  -3  -2   0  326.06    4.90
   4  -2   0  286.84    6.63
   4  -2   0  303.09    7.40
  -4  -2   0  302.41    7.38
   5  -2   0   34.56    6.22
   5  -2   0   28.24    3.05
  -5  -2   0   28.22    2.49
   6  -2   0   60.71    6.42
   6  -2   0   59.46    5.42
  -6  -2   0   68.80    7.19
   7  -2   0   93.26    7.36
   7  -2   0  102.52    8.89
   7   2   0   84.54   14.10
  -7   2   0   96.68    7.01
  -7  -2   0   98.41    8.08
   8  -2   0   43.72    9.18
   8   2   0   24.50   13.75
  -8   2   0   38.66    3.19
  -8  -2   0   38.38    8.52
   9  -2   0   13.15    3.06
  -9  -2   0    7.10    2.11
   9  -2   0   11.94    4.14
   9   2   0   35.24   21.67
  -9   2   0    9.34    2.57
  -9  -2   0   15.06    3.51
  10  -2   0  353.14   25.27
  10  -2   0  371.70   27.59
  10   2   0  326.84   34.31
 -10   2   0  332.38   23.29
 -10  -2   0  381.49   27.63
  11  -2   0   18.91    7.38
  11  -2   0   22.33    4.95
  11   2   0   43.55   19.38
 -11  -2   0   30.20    8.84
  12  -2   0    5.30    2.36
  12  -2   0    7.34    3.64
  12   2   0    9.59   11.81
 -12  -2   0    4.89    2.13
  13  -2   0   -0.53    1.95
  13  -2   0    5.40    3.95
  13   2   0    8.02   11.25
 -13  -2   0   -0.66    2.17
  14  -2   0   10.53    3.62
  14  -2   0   15.13    5.92
  14   2   0    7.68   10.72
 -14  -2   0   13.11    3.83
  15  -2   0    2.00    1.59
  15  -2   0    5.01    3.96
  15   2   0   11.54   10.15
 -15  -2   0    0.25    1.96
   0  -3   0    0.65    1.68
   0  -3   0    1.03    1.66
   0  -3   0    0.75    1.30
  -1  -3   0  198.08    4.65
   1  -3   0  190.26    4.86
  -1  -3   0  209.29    7.81
   1  -3   0  210.08    5.48
   1  -3   0  194.31    5.95
  -1  -3   0  186.92    5.18
   2  -3   0 1062.63   20.17
   2   3   0 1075.03   25.82
   2  -3   0 1065.39   20.22
  -2  -3   0 1023.83   21.47
   3  -3   0    6.33    1.36
   3   3   0    2.50    3.66
   3  -3   0    5.27    2.25
  -3  -3   0    5.66    1.48
  -3   3   0    5.15    0.61
   4  -3   0   92.93    6.43
   4   3   0   96.92    5.75
   4   3   0   88.70    7.05
   4  -3   0  101.75    6.93
  -4  -3   0   97.66    6.88
   5  -3   0    2.63    1.43
   5  -3   0    3.24    2.57
  -5  -3   0    6.26    1.56
   6  -3   0  262.39   18.80
   6  -3   0  308.08   21.99
  -6  -3   0  259.16   18.77
   7  -3   0    2.50    1.10
   7  -3   0    1.55    2.47
  -7  -3   0    0.98    1.87
   8  -3   0   37.65    8.03
   8  -3   0   38.29    5.46
   8   3   0   49.05   23.85
  -8  -3   0   33.87   10.12
   9  -3   0   25.74    5.60
   9  -3   0   19.38    3.69
   9   3   0   42.21   23.44
  -9  -3   0   25.26    6.94
  10  -3   0    3.13    2.07
  10  -3   0    3.77    2.60
  10   3   0   14.89   16.54
  11  -3   0   44.30    8.33
  11  -3   0   41.81    8.10
  11   3   0   62.53   25.85
 -11  -3   0   41.89   12.42
  12  -3   0    5.45    2.42
  12  -3   0    7.60    4.54
  12   3   0    5.19   14.27
 -12  -3   0    2.90    1.47
  13  -3   0   67.15    9.75
  13  -3   0   74.82   10.78
  13   3   0   43.26   15.23
 -13  -3   0   65.88   13.65
  14  -3   0   11.99    7.41
  14   3   0  -21.10   13.00
 -14  -3   0    1.68    2.94
   0  -4   0  117.32    8.69
   0  -4   0  126.44    9.36
   0  -4   0  124.30    9.19
  -1  -4   0   26.31    6.22
   1  -4   0   27.14    5.69
  -1  -4   0   23.04    6.09
   1  -4   0   22.78    6.02
   1  -4   0   25.02    6.31
  -1  -4   0   24.48    6.21
   2  -4   0   22.92    5.15
   2   4   0   17.95    6.37
   2  -4   0   17.98    4.98
  -2  -4   0   23.11    5.45
   3  -4   0   37.52    7.66
   3   4   0   32.43    6.22
   3  -4   0   29.45    4.87
  -3  -4   0   37.72    3.16
   4  -4   0  110.39    7.06
   4   4   0  115.60    9.08
   4  -4   0  124.14    9.05
  -4  -4   0  107.42    7.06
   5  -4   0    8.08    2.09
   5   4   0    5.67    2.88
   5  -4   0    3.61    1.93
  -5  -4   0    4.71    2.26
   6  -4   0   -2.06    2.13
   6  -4   0    2.72    1.37
  -6  -4   0    2.14    1.44
   7  -4   0   44.38    9.82
   7  -4   0   47.07    4.66
  -7  -4   0   45.45    8.90
   8  -4   0   91.36   14.07
   8  -4   0   95.80    8.36
  -8  -4   0   80.63    8.36
   9  -4   0    3.43    1.32
   9  -4   0    6.36    3.06
   9   4   0   12.28   17.81
  -9  -4   0    6.54    2.87
  10  -4   0   15.11    5.62
  10  -4   0   27.00    4.79
  10   4   0   46.68   27.25
 -10  -4   0   14.44    5.20
  11  -4   0   14.96    7.26
  11  -4   0   24.37    4.56
  11   4   0   31.33   17.31
 -11  -4   0   18.45    6.71
  12  -4   0    3.75    3.34
  12  -4   0    2.96    2.67
  12   4   0   32.31   16.17
 -12  -4   0   10.13    4.40
  13  -4   0    2.53    1.38
  13  -4   0    1.29    2.42
  13   4   0    8.04   13.49
 -13  -4   0    3.52    2.39
   0  -5   0    1.44    1.68
   0  -5   0   -0.32    1.35
   1  -5   0    8.78    1.97
   1   5   0   18.30    9.33
  -1  -5   0    0.97    1.74
   1  -5   0    3.41    1.63
  -1  -5   0    5.94    2.15
   2  -5   0    9.24    2.88
   2   5   0   10.91    5.47
   2  -5   0    7.50    2.04
  -2  -5   0    9.86    2.65
   3  -5   0   29.68    7.83
   3   5   0   31.19    7.35
   3  -5   0   33.37    8.21
  -3  -5   0   36.82    7.46
   4  -5   0  185.42   14.10
   4   5   0  173.65   15.90
   4  -5   0  201.20   14.80
  -4  -5   0  193.96   16.99
   5  -5   0    1.03    1.60
   5  -5   0    1.00    1.06
  -5  -5   0   -0.98    1.96
   6  -5   0   13.21    3.07
   6  -5   0   11.86    4.61
  -6  -5   0    7.61    3.42
   7  -5   0   25.49    6.14
   7  -5   0   24.66    8.48
  -7  -5   0   20.87    5.96
   8  -5   0   17.02    6.97
   8  -5   0   23.68    6.83
  -8  -5   0   16.44    4.63
   9  -5   0    3.44    1.63
   9  -5   0    2.06    1.23
   9   5   0   53.58   23.10
  -9  -5   0    4.86    2.45
  10  -5   0    6.25    2.02
  10  -5   0    2.31    2.09
  10   5   0   26.40   15.79
 -10  -5   0    5.94    2.65
  11  -5   0    5.04    2.47
  11  -5   0    9.51    5.54
  11   5   0   55.36   35.79
 -11  -5   0    5.85    2.00
  12  -5   0    6.53    2.59
  12  -5   0   14.96    5.54
  12   5   0   45.42   22.13
 -12  -5   0   14.37    6.85
   0   6   0    7.28    6.48
   0  -6   0    9.20    3.09
   1  -6   0    7.96    2.76
   1   6   0    9.58    6.73
   1  -6   0    3.05    1.96
  -1  -6   0    1.93    1.91
   2  -6   0   67.04    7.50
   2   6   0   89.04   14.12
   2  -6   0   76.50    8.39
  -2  -6   0   82.57    9.76
   3  -6   0   74.48    8.39
   3  -6   0   65.52   11.06
  -3  -6   0   65.76   17.43
   4  -6   0    9.19    3.82
   4  -6   0   10.50    3.40
  -4  -6   0   14.55    5.75
   5  -6   0    6.18    2.81
   5  -6   0    6.18    3.56
  -5  -6   0    3.24    1.26
   6  -6   0   52.05    6.98
   6  -6   0   67.02    8.16
  -6  -6   0   49.49   11.32
   7  -6   0    6.66    3.09
   7  -6   0    6.76    1.85
  -7  -6   0    7.80    2.62
   8  -6   0    2.06    1.97
   8  -6   0    2.91    1.79
  -8  -6   0    3.77    2.03
   9  -6   0   12.53    5.03
   9  -6   0   13.94    8.62
   9   6   0   31.95   24.04
  -9  -6   0   14.66    9.01
  10  -6   0   -0.25    2.40
  10  -6   0    1.53    2.08
  10   6   0   19.00   17.51
 -10  -6   0    3.42    1.85
   0   7   0    9.28    7.24
  -1   7   0    9.38    7.06
  -2   7   0   10.26    9.48
  -3   7   0   10.98   10.23
   4  -7   0    5.82    2.32
  -4  -7   0    5.82    3.05
   5  -7   0   -1.49    2.24
  -5  -7   0   -0.28    2.30
   6  -7   0    8.31    3.21
  -6  -7   0    4.89    3.52
  16   0  -1   12.62    7.59
  15   0  -1    3.48    5.30
  14   0  -1    0.27    5.71
 -14   0   1   -1.29    1.63
  13   0  -1    6.88    6.59
 -13   0   1    1.40    0.98
  12   0  -1    2.13    1.70
  12   0  -1   11.06    7.14
 -12   0   1    1.52    1.45
  11   0  -1   -1.77    1.16
  11   0  -1   10.02    7.38
 -11   0   1    1.37    1.49
  10   0  -1    1.92    1.42
  10   0  -1   -0.46    6.81
 -10   0   1    1.60    1.88
   9   0  -1    0.87    0.98
   9   0  -1    7.07    6.20
  -9   0   1   -0.22    1.57
   8   0  -1    1.73    1.27
   8   0  -1    1.73    5.35
  -8   0   1   -0.15    1.37
   7   0  -1    0.93    1.14
   7   0  -1   -5.69    5.34
  -7   0   1    1.78    1.40
   6   0  -1    1.15    0.98
   6   0  -1    0.31    5.12
  -6   0   1    1.76    0.95
   5   0  -1    1.45    0.70
   5   0  -1    7.63    5.05
  -5   0   1    1.20    0.95
   4   0  -1    1.10    1.08
   4   0  -1    1.17    5.33
  -4   0   1    0.50    0.96
  -3   0   1   -0.22    0.71
   3   0  -1    5.68    3.93
  -3   0   1    1.77    1.22
  -2   0   1   -0.12    2.60
   2   0  -1    1.27    0.98
   2   0   1    0.19    0.95
  -2   0  -1    2.19    0.94
  -2   0  -1    0.93    1.20
   2   0   1    0.44    1.18
   3   0   1    1.09    1.16
   3   0   1   27.56   16.24
  -3   0  -1    0.28    1.57
   4   0   1    8.14   12.28
  -4   0  -1   -0.72    1.53
   5   0   1    1.55    1.76
   5   0   1    8.66   12.15
  -5   0  -1   -0.49    1.46
   6   0   1    0.10    0.77
   6   0   1   11.29    9.44
  -6   0  -1   -0.65    1.35
   7   0   1   -0.55    1.31
   7   0   1    1.61    8.18
  -7   0  -1    1.16    1.46
   8   0   1    2.14    0.89
   8   0   1    4.85    9.63
  -8   0  -1    1.00    1.13
   9   0   1    0.64    1.13
   9   0   1    6.30   10.24
  -9   0  -1    0.91    1.21
  10   0   1    0.71    1.48
  10   0   1    2.48    8.46
 -10   0  -1    1.71    1.20
  11   0   1    0.60    0.75
  11   0   1   13.40    8.12
 -11   0  -1    2.72    1.52
  12   0   1    0.26    1.24
  12   0   1    4.53    7.53
 -12   0  -1    1.87    2.81
  13   0   1    1.81    1.01
  13   0   1    5.62    6.97
 -13   0  -1   -0.02    1.66
  14   0   1   -3.72    6.93
 -14   0  -1    2.30    0.92
  15   0   1   14.07   11.73
 -15   0  -1    1.69    1.49
  16  -1  -1    2.08    4.40
  16   1  -1   13.18    9.53
 -16  -1   1    4.15    2.94
 -15   1   1    6.94    8.75
  15  -1  -1    8.57    6.36
  15   1  -1    6.86    6.93
 -15  -1   1   -0.46    2.54
  14  -1  -1   13.34    2.80
  14  -1  -1   20.77    6.26
  14   1  -1   14.86   11.02
 -14  -1   1   13.64    6.56
  13  -1  -1    1.67    1.38
  13  -1  -1    3.64    4.19
  13   1  -1   15.01    8.74
 -13  -1   1    1.68    1.71
  12  -1  -1    1.67    2.00
  12  -1  -1   12.46    5.92
  12   1  -1    6.45    8.58
 -12  -1   1    5.29    2.91
  11  -1  -1   23.30    5.57
 -11  -1   1   20.97    5.66
  11  -1  -1   26.49    6.88
  11   1  -1   15.31    8.89
 -11   1   1   31.25    3.35
 -11  -1   1   31.38   10.42
  10  -1  -1   30.00    7.75
 -10  -1   1   20.84    6.00
  10  -1  -1   25.73    6.19
  10   1  -1   21.54    9.87
 -10   1   1   30.74    6.33
 -10  -1   1   29.51    9.17
   9  -1  -1   83.16    5.44
  -9  -1   1   71.61    7.31
   9  -1  -1   79.68    7.61
   9   1  -1   63.54    9.87
  -9   1   1   80.15    6.00
  -9  -1   1   88.01    5.86
   8  -1  -1  123.48   10.38
  -8  -1   1  116.23    9.74
   8  -1  -1  132.27   10.62
   8   1  -1  115.71   15.06
  -8   1   1  123.70    7.72
  -8  -1   1  126.59    8.39
   7  -1  -1   63.00    6.24
  -7  -1   1   62.04    4.96
   7  -1  -1   67.68    5.44
   7   1  -1   66.32   11.07
  -7   1   1   60.21    2.94
  -7  -1   1   64.41    4.43
   6  -1  -1    1.52    1.03
  -6  -1   1    0.24    0.31
  -6  -1   1    3.40    2.77
   6  -1  -1    4.92    2.97
   6   1  -1   13.08   11.95
  -6   1   1   -0.47    0.80
  -6  -1   1    0.89    1.13
   5  -1  -1   -0.01    1.50
  -5  -1   1    1.04    0.40
  -5  -1   1    1.48    3.35
   5  -1  -1   -1.03    2.56
   5   1  -1   -4.32    9.21
  -5  -1   1    1.98    1.49
   4  -1  -1  105.43    2.76
  -4  -1   1  101.23    1.39
   4  -1  -1  105.05    4.27
   4   1  -1  105.30   11.53
  -4  -1   1  108.81    4.90
   4  -1  -1  102.10    2.80
   3  -1  -1  125.66    2.83
   3   1  -1  117.98    3.53
   3  -1  -1  132.16    4.04
   3   1  -1  136.31   10.65
   3  -1  -1  126.05    2.15
  -3  -1   1  130.58    3.01
   2  -1  -1  564.34    5.09
  -2  -1   1  563.98    5.24
   1   1  -1  219.08    2.32
   0   1  -1  124.48    1.92
   0  -1  -1  131.83    5.76
   0   1  -1  128.71    1.26
   0   1   1  121.51    2.41
  -1  -1  -1 8024.37   28.98
  -1   1  -1 8065.57   29.73
  -1  -1  -1 8025.92   28.74
   2  -1   1  339.12    4.28
  -2  -1  -1  333.85    8.30
   2  -1   1  314.90    5.54
  -2  -1  -1  337.76    4.64
  -3  -1  -1  495.06    7.84
   3  -1   1  483.11    9.59
  -3  -1  -1  500.70    6.06
  -3   1  -1  521.15    4.74
   4  -1   1   -0.87    1.55
   4   1   1    1.30    1.00
  -4  -1  -1   -0.74    1.35
   4  -1   1    0.76    5.09
  -4  -1  -1    0.96    1.25
  -4   1  -1    0.18    0.85
   5  -1   1    2.87    1.08
   5   1   1    0.82    0.76
   5  -1   1   11.24    5.27
  -5  -1  -1    3.18    1.60
  -5   1  -1    3.94    1.07
   6  -1   1   38.36    5.47
   6   1   1   31.89    1.50
   6  -1   1   27.12    5.76
   6   1   1   22.67   13.09
  -6  -1  -1   32.60    2.73
  -6   1  -1   31.21    2.37
   7  -1   1   57.22    5.51
   7   1   1   59.38    4.42
   7  -1   1   52.29    7.54
   7   1   1   52.92   16.78
  -7  -1  -1   59.97    4.90
  -7   1  -1   60.02    5.27
   8  -1   1    3.20    1.78
   8   1   1    1.31    0.54
   8  -1   1    6.58    6.13
  -8  -1  -1    1.52    1.30
   9  -1   1   40.59    6.86
   9   1   1   35.82    5.95
   9  -1   1   37.84    8.04
   9   1   1   38.00   16.22
  -9   1  -1   41.77    6.47
  -9  -1  -1   38.87    8.23
  10   1   1   19.82    3.81
  10  -1   1   22.48    3.72
  10  -1   1   16.23    5.92
  10   1   1   12.84   14.42
 -10   1  -1   20.94    2.94
 -10  -1  -1   26.49    6.02
  11   1   1  181.13   13.65
  11  -1   1  189.29   19.20
  11  -1   1  193.16   17.74
  11   1   1  163.39   23.35
 -11   1  -1  171.01   13.59
 -11  -1  -1  184.47   19.27
  12  -1   1   23.56    9.67
  12  -1   1   24.41    6.44
  12   1   1   53.49   16.76
 -12   1  -1   33.14    6.56
 -12  -1  -1   34.93    9.43
  13  -1   1   15.51    5.98
  13  -1   1    9.54    5.35
  13   1   1   13.47   10.50
 -13   1  -1    9.75    4.04
 -13  -1  -1   14.99    6.57
  14  -1   1    2.98    1.75
  14  -1   1    3.57    4.96
  14   1   1    2.01    8.36
 -14  -1  -1    3.81    2.68
  15  -1   1    2.85    1.63
  15  -1   1    8.43    5.53
  15   1   1   11.57    9.01
 -15  -1  -1   -0.14    1.63
  15  -2  -1    6.02    2.58
  15  -2  -1   11.22    7.74
  15   2  -1   11.73    9.65
 -15  -2   1    8.66    5.79
  14  -2  -1    2.10    1.78
  14  -2  -1    8.27    3.30
  14   2  -1   14.97    9.50
 -14  -2   1   10.36    8.60
  13  -2  -1    3.30    1.41
  13  -2  -1    5.42    3.05
  13   2  -1    4.95   10.49
 -13  -2   1    2.07    1.53
  12  -2  -1    2.87    2.21
  12  -2  -1    3.69    3.05
  12   2  -1    9.94   11.06
 -12  -2   1    4.82    1.86
  11  -2  -1    2.59    1.82
  11  -2  -1    4.22    4.03
  11   2  -1    3.40   11.81
 -11  -2   1    4.37    1.73
  10  -2  -1  271.52   11.89
  10  -2  -1  278.37   14.03
  10   2  -1  252.80   22.52
 -10  -2   1  286.37   13.15
   9  -2  -1  148.16   16.14
   9  -2  -1  160.92   17.67
   9   2  -1  129.45   21.80
  -9  -2   1  169.83   22.82
   8  -2  -1   11.36    2.71
   8  -2  -1   14.68    4.20
   8   2  -1   14.49   13.01
  -8  -2   1   11.00    3.02
   7  -2  -1   13.59    2.86
   7  -2  -1   13.52    3.50
   7   2  -1    5.86   11.05
  -7  -2   1   13.13    3.53
   7  -2  -1   10.04    1.05
   6  -2  -1   43.00    9.34
   6  -2  -1   37.54    4.00
   6   2  -1   46.93   15.76
  -6  -2   1   39.94    3.67
   5  -2  -1   16.33    3.06
   5  -2  -1   11.65    2.02
   5   2  -1   24.66   14.45
  -5  -2   1   11.29    3.38
   4  -2  -1  157.02    3.68
   4  -2  -1  176.99    5.12
  -4  -2   1  171.42    4.01
   3  -2  -1    3.41    1.74
  -3  -2   1    1.61    0.43
   3   2  -1    1.39    0.60
   3  -2  -1   -0.47    1.60
  -3  -2   1    3.33    2.09
   2  -2  -1  403.67    4.80
  -2  -2   1  413.96    3.16
   2   2  -1  403.84    3.24
   2  -2  -1  418.33    5.12
  -2  -2   1  393.88    5.33
   2  -2  -1  410.60    3.22
   1  -2  -1  210.78    3.45
  -1  -2   1  212.47    2.73
   1  -2  -1  214.02    3.65
  -1  -2   1  204.93    3.87
   1  -2  -1  213.13    2.93
   0  -2   1  264.66    3.37
   0   2   1  303.28   13.48
   0  -2  -1  260.32    4.09
   0  -2   1  255.18    3.18
   0  -2  -1  262.01    3.67
   1  -2   1  492.36    5.02
   1   2   1  531.75   12.74
  -1  -2  -1  506.76    5.70
   1  -2   1  486.66    4.31
  -1  -2  -1  479.93    5.45
   2  -2   1   48.06    2.38
   2   2   1   59.53    5.38
   2  -2   1   50.38    1.92
  -2   2  -1   46.71    1.27
  -2  -2  -1   54.61    2.92
   3  -2   1  184.23    4.56
   3   2   1  186.75    6.49
  -3  -2  -1  155.89    5.65
   3  -2   1  171.88    3.78
  -3  -2  -1  170.31    4.43
   4  -2   1  980.32   21.42
   4  -2   1  955.40   19.00
  -4  -2  -1  993.40   19.62
  -4   2  -1 1019.10   18.42
   5  -2   1  177.97    8.08
   5   2   1  174.17    3.71
  -5  -2  -1  155.83    6.03
   5  -2   1  163.89    5.73
  -5  -2  -1  188.96    5.98
  -5   2  -1  179.36    3.83
   6  -2   1   26.89    5.91
   6   2   1   20.35    1.47
   6  -2   1   20.15    3.20
  -6  -2  -1   17.99    5.75
  -6   2  -1   20.06    2.17
   7  -2   1   10.77    2.35
   7   2   1    9.43    1.75
  -7  -2  -1    3.57    1.70
   7  -2   1   12.70    3.63
  -7  -2  -1    9.67    3.19
  -7   2  -1    8.83    2.37
   8  -2   1   32.00    6.04
   8   2   1   25.90    3.92
   8  -2   1   21.83    4.59
   8   2   1   31.35   15.68
  -8   2  -1   25.56    3.39
  -8  -2  -1   31.50    8.38
   9   2   1    0.42    0.27
   9  -2   1   -0.47    2.07
   9  -2   1    1.87    3.19
   9   2   1   16.25   16.81
  -9   2  -1    0.48    0.77
  -9  -2  -1    3.01    2.25
  10  -2   1   16.20    3.62
  10  -2   1   23.33    4.71
  10   2   1   10.04   16.39
 -10   2  -1   12.66    4.42
 -10  -2  -1   18.72    5.47
  11  -2   1   42.05    7.39
  11  -2   1   53.36    8.21
  11   2   1   38.03   19.38
 -11  -2  -1   56.40   11.83
  12  -2   1   57.37   14.12
  12  -2   1   64.54    9.82
  12   2   1   67.24   21.33
 -12  -2  -1   88.78   10.03
  13  -2   1    4.45    1.82
  13  -2   1    6.76    4.62
  13   2   1   36.74   20.28
 -13  -2  -1   12.47    3.57
  14  -2   1    2.07    1.47
  14  -2   1    4.26    5.90
  14   2   1    7.43   10.85
 -14  -2  -1    3.21    1.27
  15  -2   1   18.08    6.01
  15   2   1   22.97   16.82
 -15  -2  -1    5.59    3.43
  15  -3  -1    2.79    2.20
  15  -3  -1    3.57    3.20
  15   3  -1   23.03   15.01
 -15  -3   1    2.60    2.85
  14  -3  -1   48.66   13.65
  14  -3  -1   52.03   15.13
 -14  -3   1   55.87   16.53
  13  -3  -1    4.84    2.00
  13  -3  -1    7.28    4.80
  13   3  -1   34.81   16.70
 -13  -3   1   11.16    3.88
  12  -3  -1   53.37   10.44
  12  -3  -1   72.75   11.69
  12   3  -1   54.81   17.35
 -12  -3   1   52.97   22.18
  11  -3  -1   28.75   10.25
  11  -3  -1   26.12    5.44
  11   3  -1   19.35   13.87
 -11  -3   1   34.29   11.71
  10  -3  -1   53.72   10.76
  10  -3  -1   53.95    6.04
  10   3  -1   24.12   15.49
   9  -3  -1  118.56   15.19
   9  -3  -1  139.59   11.29
   9   3  -1  115.16   20.59
  -9  -3   1  123.83   10.64
   8  -3  -1   26.40    5.77
   8  -3  -1   30.84    4.67
   8   3  -1   43.33   20.79
  -8  -3   1   29.59    8.23
   7  -3  -1    0.86    2.39
   7  -3  -1    2.60    2.19
   7   3  -1   22.22   18.75
  -7  -3   1    1.11    1.29
   6  -3  -1   18.94    3.77
   6  -3  -1   10.93    2.45
  -6  -3   1   15.93    4.02
   5  -3  -1  346.95   20.92
   5  -3  -1  392.18   23.47
  -5  -3   1  348.49   21.03
   4  -3  -1   70.20    5.19
   4   3  -1   60.53    3.80
   4   3  -1   66.03    5.66
   4  -3  -1   67.94    4.84
  -4  -3   1   72.61    5.13
   3  -3  -1    4.45    1.26
  -3  -3   1    6.92    1.76
   3  -3  -1    8.31    1.59
  -3  -3   1    7.60    2.11
   3  -3  -1    5.67    1.82
   2  -3  -1  930.92   18.10
  -2  -3   1  922.21   16.98
   2  -3  -1  937.66   18.14
  -2  -3   1  900.41   17.73
   2  -3  -1  957.11   17.69
   1  -3  -1    9.63    1.59
  -1  -3   1   12.28    2.54
  -1  -3   1   12.55    3.33
   1  -3  -1    8.33    2.41
  -1  -3   1   13.09    3.16
   1  -3  -1   12.91    2.99
   0  -3   1   16.71    3.78
   0   3   1   17.13    6.71
   0  -3  -1   14.82    3.93
   0  -3   1   11.96    3.61
   0  -3  -1   13.80    2.93
   1  -3   1    1.14    1.31
   1   3   1    0.42    5.68
  -1  -3  -1    2.20    1.14
   1  -3   1   -0.38    0.92
  -1  -3  -1    0.16    1.17
   2  -3   1  199.74    5.30
   2   3   1  219.63   11.20
   2  -3   1  201.05    4.93
  -2  -3  -1  198.80    5.61
   3  -3   1  327.44   19.50
   3   3   1  325.30   21.30
   3  -3   1  334.37   19.80
  -3   3  -1  300.73   17.51
  -3  -3  -1  314.12   18.93
   4  -3   1    3.44    1.37
   4   3   1    8.57    3.23
   4  -3   1    3.29    1.98
  -4   3  -1    2.05    0.53
  -4  -3  -1    4.01    1.79
   5   3   1   19.79    2.86
   5  -3   1   35.06    6.44
   5   3   1   29.57    2.68
   5  -3   1   25.08    3.11
  -5  -3  -1   21.79    6.40
   6  -3   1  138.31    8.58
   6  -3   1  143.21    8.94
  -6  -3  -1  117.86   11.05
   7  -3   1   13.62    3.99
   7  -3   1   14.23    3.45
  -7  -3  -1   16.29    3.96
   8  -3   1   34.94    6.89
   8  -3   1   40.75    5.15
  -8  -3  -1   35.96    8.81
   9  -3   1    2.41    2.73
   9  -3   1    2.62    2.54
   9   3   1    6.26   17.53
  -9  -3  -1    4.79    2.30
  10  -3   1    2.47    2.10
  10  -3   1    2.96    2.78
  10   3   1    4.45   18.74
 -10  -3  -1    4.14    2.12
  11  -3   1    0.72    1.60
  11  -3   1    2.61    2.90
  11   3   1   10.98   18.99
 -11  -3  -1    2.15    1.54
  12  -3   1    3.81    2.15
  12  -3   1    8.96    3.87
  12   3   1   41.16   25.18
 -12  -3  -1    2.59    2.02
  13  -3   1    1.62    1.22
  13  -3   1   11.64    4.51
  13   3   1   20.42   15.45
 -13  -3  -1    3.41    1.50
  14  -3   1    4.28    2.09
  14  -3   1    8.87    5.73
  14   3   1    3.83   13.15
 -14  -3  -1    1.20    1.59
  14  -4  -1    2.56    2.33
  14  -4  -1    6.84    4.06
  14   4  -1    7.17   12.40
 -14  -4   1    4.21    3.24
  13  -4  -1   13.54    7.98
  13  -4  -1   27.83   14.52
  13   4  -1    8.88   13.04
 -13  -4   1   12.97    8.48
  12  -4  -1  132.42   15.81
  12  -4  -1  132.44   16.12
  12   4  -1  149.07   20.41
 -12  -4   1  146.35    6.98
  11  -4  -1    5.16    2.43
  11  -4  -1    0.63    2.54
  11   4  -1    4.11   14.49
 -11  -4   1    7.42    3.06
  10  -4  -1    2.75    2.80
  10  -4  -1    2.49    2.74
  10   4  -1    3.63   14.88
 -10  -4   1    5.98    2.52
   9  -4  -1   11.32    5.36
   9  -4  -1   16.01    4.41
   9   4  -1   57.65   27.63
  -9  -4   1   19.67    4.57
   8  -4  -1   14.66    4.36
   8  -4  -1   10.15    2.84
   8   4  -1   32.53   19.81
  -8  -4   1   15.02    4.30
   7  -4  -1   26.82    7.59
   7  -4  -1   31.91    7.04
  -7  -4   1   37.79   10.43
   6  -4  -1    0.89    1.68
   6  -4  -1    4.66    2.09
  -6  -4   1   -0.32    2.18
   5  -4  -1   94.08   10.83
   5   4  -1   78.24    9.32
   5  -4  -1   95.49   10.50
  -5  -4   1   90.56   10.80
   4  -4  -1   63.70   12.69
   4   4  -1   47.70    5.69
   4  -4  -1   56.91    6.68
  -4  -4   1   56.74    6.23
  -3  -4   1    7.53    1.86
   3  -4  -1    7.13    1.69
   3  -4  -1    8.99    2.24
   3  -4  -1    5.37    1.16
  -3  -4   1    4.91    1.61
   2  -4  -1   22.98    5.14
  -2  -4   1   19.87    4.11
   2  -4  -1   26.90    5.95
  -2  -4   1   24.25    6.85
   2  -4  -1   21.37    3.08
   1  -4  -1  100.99    7.76
  -1  -4   1  109.07    8.40
  -1  -4   1  112.89    8.44
   1  -4  -1  112.06    8.49
  -1  -4   1  107.39    8.25
   1  -4  -1  110.95    8.37
   0  -4   1  412.60   28.68
   0   4   1  388.61   30.73
   0  -4   1  440.69   23.45
   0  -4  -1  450.90   24.21
   0  -4  -1  428.07   22.83
   1  -4   1   71.31    5.69
   1   4   1   76.76   10.75
  -1  -4  -1   71.86   10.17
   1  -4   1   64.35    5.49
  -1  -4  -1   58.71    4.96
   2  -4   1   15.39    3.75
   2   4   1   12.10    4.93
   2  -4   1    9.97    2.70
  -2  -4  -1   14.52    3.93
   3  -4   1   39.13    9.74
   3   4   1   46.68    7.04
   3  -4   1   38.28    8.14
  -3  -4  -1   41.97    8.96
   4  -4   1  197.37   11.51
   4   4   1  185.46   13.22
   4  -4   1  202.91   11.77
  -4  -4  -1  215.06   12.78
   5  -4   1   20.46    5.50
   5   4   1   14.42    3.67
   5  -4   1   27.73    5.79
  -5  -4  -1   18.78    6.02
   6  -4   1   63.04   12.82
   6  -4   1   51.91    4.40
  -6  -4  -1   43.53    8.83
   7  -4   1   47.45    9.55
   7  -4   1   46.86    4.58
  -7  -4  -1   44.85   12.26
   8  -4   1   28.61    8.11
   8  -4   1   36.44    5.13
  -8  -4  -1   40.03   10.35
   9  -4   1   20.55    6.30
   9  -4   1   18.66    4.23
  -9  -4  -1   21.87    7.35
  10  -4   1    4.74    1.71
  10  -4   1    2.18    2.21
  10   4   1   16.54   19.25
 -10  -4  -1    4.39    1.82
  11  -4   1    8.20    3.06
  11  -4   1   19.66    6.27
  11   4   1    4.98   18.02
 -11  -4  -1    5.71    3.35
  12  -4   1    4.81    1.71
  12  -4   1    1.78    2.14
  12   4   1   47.21   27.08
 -12  -4  -1    1.61    1.60
  13  -4   1   60.54   14.49
  13  -4   1   58.30   13.91
  13   4   1   21.53   17.39
 -13  -4  -1   50.75   22.04
  12  -5  -1   35.97    9.09
  12  -5  -1   32.23    8.56
  12   5  -1   50.91   23.52
 -12  -5   1   25.58   15.81
  11  -5  -1   26.06   13.54
  11  -5  -1   28.84   17.89
  11   5  -1   55.25   26.90
 -11  -5   1   52.39   17.71
  10  -5  -1    3.22    2.15
  10  -5  -1    5.23    4.02
  10   5  -1   -2.93   13.00
 -10  -5   1    4.07    2.38
   9  -5  -1   18.35    7.55
   9  -5  -1   21.78    7.03
   9   5  -1    0.44   14.69
  -9  -5   1   19.49    7.12
   8  -5  -1    1.44    1.86
   8  -5  -1    3.59    2.72
   8   5  -1   -6.82   14.23
  -8  -5   1    3.85    2.59
   7  -5  -1   22.10   10.92
   7  -5  -1   30.32   10.72
  -7  -5   1   37.47   13.16
   6  -5  -1   43.80    9.77
   6  -5  -1   38.84   11.41
  -6  -5   1   44.96   12.52
   5  -5  -1    2.74    1.11
   5  -5  -1    3.01    1.34
  -5  -5   1    3.80    2.53
   4  -5  -1    2.64    1.50
   4   5  -1   20.84    7.01
   4  -5  -1    2.66    1.22
  -4  -5   1   -0.27    2.07
   3  -5  -1   10.65    1.88
   3   5  -1   15.00    5.13
   3  -5  -1   20.49    5.44
  -3  -5   1   15.67    3.55
   2  -5  -1  413.75   17.18
  -2  -5   1  422.08   18.25
   2  -5  -1  409.18   17.89
  -2  -5   1  429.26   18.12
   2  -5  -1  421.03   16.98
  -1  -5   1    3.20    1.42
  -1   5   1   14.71   10.44
   1  -5  -1    4.35    1.95
   1  -5  -1    2.27    0.80
   0  -5   1    2.69    2.19
   0   5   1    9.73    9.04
   0  -5   1    1.74    0.92
   0  -5  -1    2.60    2.11
   0  -5  -1    1.38    1.03
   1  -5   1   21.74    5.39
   1   5   1   40.11    9.96
  -1  -5  -1   19.08    2.82
   1  -5   1   20.48    6.28
  -1  -5  -1   18.20    5.05
   2  -5   1  129.97   10.07
   2   5   1  161.06   16.23
   2  -5   1  143.66   10.67
  -2  -5  -1  131.15   10.11
   3  -5   1   77.89    6.55
   3   5   1   76.21    9.92
   3  -5   1   89.74    7.84
  -3  -5  -1   78.29    6.93
   4  -5   1   20.87    5.28
   4   5   1   12.78    5.89
   4  -5   1   20.15    7.13
  -4  -5  -1   24.49    5.40
   5  -5   1   31.43    6.15
   5  -5   1   28.47    7.26
  -5  -5  -1   29.71    7.20
   6  -5   1    7.58    2.82
   6  -5   1    8.75    3.09
  -6  -5  -1    4.68    2.16
   7  -5   1   74.18    9.18
   7  -5   1   86.96    9.37
  -7  -5  -1   74.59   16.25
   8  -5   1    3.23    1.57
   8  -5   1    2.65    1.20
  -8  -5  -1    4.02    3.18
   9  -5   1   11.74    2.98
   9  -5   1   13.31    5.93
  -9  -5  -1   20.14    6.90
  10  -5   1   12.26    6.05
  10  -5   1   22.99    7.25
  10   5   1   12.65   17.29
 -10  -5  -1   18.94    7.07
  11  -5   1    8.38    4.68
  11  -5   1    2.84    2.17
  11   5   1    7.76   18.14
 -11  -5  -1    4.10    2.65
  12  -5   1    3.46    2.51
  12  -5   1    4.03    2.96
  12   5   1   57.07   23.21
  10  -6  -1   29.37    8.45
  10  -6  -1   21.07   12.42
  10   6  -1   34.75   18.21
 -10  -6   1   12.74    6.45
   9  -6  -1    7.46    3.75
   9  -6  -1    5.52    2.68
   9   6  -1   16.59   21.49
  -9  -6   1    6.16    4.09
   8  -6  -1   11.90    4.14
   8  -6  -1    3.78    1.45
  -8  -6   1   14.46    6.16
   7  -6  -1   17.49    4.76
   7  -6  -1   17.78    6.68
  -7  -6   1   18.90    8.10
   6  -6  -1   30.08    5.19
   6  -6  -1   24.64   10.87
  -6  -6   1   23.71   10.34
   5  -6  -1    7.65    3.26
   5  -6  -1    3.68    1.92
  -5  -6   1    7.31    2.58
  -4   6   1   17.13   11.83
   4  -6  -1   13.51    4.83
  -4  -6   1   13.85    3.41
  -3   6   1  101.32   20.19
   3  -6  -1  153.09   17.11
  -2   6   1   17.64    9.12
   2   6  -1   28.87    8.54
   2  -6  -1   22.84    8.90
  -1  -6   1    5.81    2.23
  -1   6   1   14.27   11.05
   1  -6  -1    2.49    1.97
   1  -6  -1    3.78    1.47
   0  -6   1   43.55    7.57
   0   6   1   29.01    9.41
   0  -6   1   55.08    8.47
   0  -6  -1   49.68    9.89
   0  -6  -1   45.70    7.22
   1  -6   1   10.02    4.37
   1   6   1   28.53   10.81
   1  -6   1   12.75    5.82
  -1  -6  -1   19.72    7.10
   2  -6   1    0.95    1.05
   2   6   1   12.76    5.92
   2  -6   1    7.47    2.20
  -2  -6  -1    5.97    1.63
   3  -6   1   18.69    3.81
   3  -6   1   14.98    4.52
  -3  -6  -1   16.87    5.02
   4  -6   1  137.57   20.02
   4  -6   1  153.61   21.88
  -4  -6  -1  139.27   20.08
   5  -6   1    6.71    2.53
   5  -6   1    4.80    1.88
  -5  -6  -1    3.65    2.08
   6  -6   1    5.50    1.81
   6  -6   1    2.19    1.32
  -6  -6  -1    0.85    1.54
   7  -6   1    5.61    2.05
   7  -6   1    2.88    1.61
  -7  -6  -1    3.53    2.34
   8  -6   1   13.00    6.68
  -8  -6  -1   21.27   10.59
   9  -6   1    3.04    2.19
  -9  -6  -1    2.05    2.01
  -7   7   1   23.74   15.71
   7  -7  -1    3.50    2.12
  -6   7   1   47.92   17.63
   6  -7  -1   51.73   11.98
  -5   7   1   19.43   16.00
   5  -7  -1    5.04    3.59
  -4   7   1    0.89   10.97
   4  -7  -1    3.07    1.95
  -3   7   1   21.99   11.93
   3  -7  -1    1.55    1.18
  -2   7   1    2.76    8.78
   2  -7  -1    1.61    1.84
  -1   7   1    8.52    7.93
   1  -7  -1    4.30    2.34
   0   7   1   28.45   11.27
   0   7  -1   14.83    7.97
   1  -7   1    6.43    2.37
   2  -7   1    5.99    1.94
  -2  -7  -1    9.14    3.25
   3  -7   1    2.94    1.67
  -3  -7  -1    3.57    1.40
   4  -7   1    6.03    4.68
  -4  -7  -1    5.61    3.43
  -5  -7  -1    5.55    3.46
   6  -7   1    9.92    9.00
  -6  -7  -1   18.90    7.74
  16   0  -2    8.03    5.29
  15   0  -2    4.51    4.74
  14   0  -2  116.93   17.24
 -13   0   2    4.07    6.03
  13   0  -2   13.80    8.12
 -12   0   2   25.30    9.83
  12   0  -2    8.66    5.55
 -11   0   2   42.16    9.15
  11   0  -2   47.04    7.67
 -10   0   2  108.24   14.48
  10   0  -2  136.50   17.02
  -9   0   2   15.20    6.33
   9   0  -2   21.56    5.72
  -9   0   2   14.91    2.21
  -8   0   2   40.70    7.91
   8   0  -2   36.98    5.47
  -7   0   2  179.53   11.17
   7   0  -2  210.30    9.68
  -6   0   2 2358.24  138.42
   6   0  -2 2316.81   44.79
  -5   0   2   19.08    5.89
   5   0  -2   15.23    3.53
  -4   0   2  563.38   14.25
   4   0  -2  534.77    8.19
  -3   0   2  254.55    9.80
   3   0  -2  268.96    5.04
  -2   0   2  362.25    9.66
   2   0  -2  374.24    3.76
   1   0   2 3945.61   19.07
   2   0   2 9999.00  175.00
   3   0   2    2.85    1.71
  -3   0  -2    5.44    3.14
   4   0   2  182.02    3.52
   4   0   2  193.64   18.02
  -4   0  -2  186.08    4.05
   5   0   2  156.71    4.48
   5   0   2  163.41   20.02
  -5   0  -2  150.51    4.76
   6   0   2   52.40    2.65
   6   0   2   53.08   12.95
  -6   0  -2   49.22    2.88
   7   0   2   45.86    3.65
   7   0   2   22.03   16.10
  -7   0  -2   40.22    3.43
   8   0   2  175.63   12.69
   8   0   2  191.77   21.10
  -8   0  -2  186.05   11.01
   9   0   2   56.65    9.52
   9   0   2   71.71   16.60
  -9   0  -2   62.55   11.34
  10   0   2   14.36    2.51
  10   0   2   19.94   13.75
 -10   0  -2   14.96    4.63
  11   0   2   32.75    6.60
  11   0   2   27.24   10.49
 -11   0  -2   34.83    7.16
  12   0   2  109.78   14.32
  12   0   2  126.06   18.42
 -12   0  -2  118.17   12.30
  13   0   2    0.29    1.06
  13   0   2   11.19    7.33
 -13   0  -2    3.22    2.29
  14   0   2   68.92   22.46
 -14   0  -2   39.47   12.77
  15   0   2   14.67    8.43
  16  -1  -2   23.35    8.19
  16   1  -2   20.54    7.93
 -15   1   2   11.38    9.42
  15  -1  -2   11.09    6.34
  15   1  -2   21.55   10.75
  14  -1  -2   47.36    8.32
  14   1  -2   61.92   12.25
 -13   1   2   14.47    8.16
  13  -1  -2   28.17    6.26
  13   1  -2   26.72    7.65
 -13  -1   2   29.53    4.91
 -12   1   2  122.31   19.91
  12  -1  -2  136.04   16.21
  12   1  -2  128.43   18.41
 -12  -1   2  128.33   15.79
  11  -1  -2    6.06    1.89
 -11  -1   2    7.48    4.18
  11  -1  -2    4.10    4.51
  11   1  -2    1.26    6.86
 -11  -1   2    7.05    2.80
  10  -1  -2   96.10   10.56
 -10  -1   2   72.04   10.29
  10  -1  -2   88.43   11.20
  10   1  -2   80.01   13.59
 -10  -1   2   83.71   11.09
   9  -1  -2  222.52   12.46
  -9  -1   2  193.06   13.70
   9  -1  -2  216.63   14.31
   9   1  -2  226.32   17.02
  -9  -1   2  220.79   12.66
   8  -1  -2  226.34   13.83
  -8  -1   2  248.78   17.53
   8  -1  -2  202.14   13.61
   8   1  -2  224.15   18.55
  -8  -1   2  228.55   14.48
   7  -1  -2   74.95    3.20
  -7  -1   2   62.61    6.57
   7  -1  -2   84.00    6.04
   7   1  -2   76.58    8.23
  -7  -1   2   76.78    7.21
   6  -1  -2   35.33    2.14
  -6  -1   2   49.32    6.02
   6  -1  -2   47.97    4.76
   6   1  -2   45.08    6.95
  -6  -1   2   41.84    2.64
  -5  -1   2  186.41    2.32
  -5  -1   2  213.58    8.30
  -5   1   2  174.02   10.72
   5  -1  -2  205.84    5.88
   5   1  -2  192.70    9.46
  -5  -1   2  197.62    4.59
  -4  -1   2   70.90    5.35
  -4   1   2   60.48    8.92
   4  -1  -2   81.67    3.57
   4   1  -2   75.96    9.21
  -3  -1   2    4.65    3.72
   3   1  -2    9.62    5.17
  -3   1   2    3.57   11.89
   3  -1  -2   -0.61    2.08
   3   1  -2    3.14    3.78
   2   1  -2  718.27    9.76
  -2   1   2  666.64   17.21
   2   1  -2  741.61    8.87
  -2  -1   2  686.64   12.41
  -1  -1   2  815.15    6.19
  -1   1   2  811.24   16.06
   1  -1  -2  801.81    6.32
   1   1  -2  830.82    3.98
   0  -1   2  172.63    3.46
   0   1   2  148.89    8.48
   0  -1  -2  165.38    3.16
   1  -1   2  708.41    6.07
   1   1   2  719.07   13.92
  -1  -1  -2  678.68    6.40
  -1  -1  -2  694.19    7.40
   2  -1   2 8731.97  152.98
   2   1   2 8690.49   38.08
  -2  -1  -2 8725.23  153.86
   3  -1   2  192.26    4.21
   3   1   2  177.78    4.31
   3  -1   2  166.02    9.91
  -3  -1  -2  178.38    4.50
   4  -1   2  100.45    3.03
   4   1   2   96.51    2.81
   4  -1   2   84.51    9.99
  -4  -1  -2  101.74    3.61
  -4   1  -2   96.16    2.91
   5  -1   2  283.26    6.83
   5   1   2  304.58    6.68
   5  -1   2  287.57   13.06
  -5  -1  -2  296.79    7.77
  -5   1  -2  293.40    6.91
   6  -1   2  495.46   29.17
   6   1   2  519.69   30.34
   6  -1   2  498.35   32.82
  -6  -1  -2  516.04   30.62
  -6   1  -2  513.89   30.15
   7  -1   2   76.50    6.23
   7   1   2   76.73    5.84
   7  -1   2   91.46   12.66
   7   1   2   55.40   13.70
  -7  -1  -2   82.08    7.07
  -7   1  -2   82.51    6.37
   8  -1   2    2.97    1.27
   8   1   2    4.13    1.10
   8  -1   2   -0.70    6.36
   8   1   2   13.81   15.58
  -8  -1  -2    4.53    1.64
  -8   1  -2    5.75    1.30
   9  -1   2  102.19   16.60
   9   1   2  111.79   14.37
   9  -1   2   85.07   14.28
   9   1   2   77.32   21.73
  -9  -1  -2  104.15   13.29
  -9   1  -2  104.12   11.18
  10  -1   2   28.95    4.03
  10   1   2   20.69    3.86
  10  -1   2   40.95    8.55
  10   1   2   37.14   16.09
 -10  -1  -2   28.83    9.02
 -10   1  -2   19.98    6.32
  11  -1   2  133.47   17.81
  11   1   2  115.22   13.30
  11  -1   2  107.80   16.29
  11   1   2  146.93   25.44
 -11   1  -2  104.46   15.08
 -11  -1  -2  120.63   17.27
  12  -1   2   38.72    8.89
  12  -1   2   42.03    9.48
  12   1   2   41.66   16.61
 -12   1  -2   37.75    6.18
 -12  -1  -2   39.39    9.10
  13  -1   2   12.55    2.97
  13  -1   2    8.03    6.28
  13   1   2   30.65   16.39
 -13  -1  -2   14.31    3.95
  14  -1   2    2.52    2.01
  14  -1   2    1.41    6.02
  14   1   2   15.72   11.12
 -14  -1  -2    1.60    1.76
  15  -1   2    2.46    1.32
  15  -1   2   35.17   12.14
  15   1   2   13.72   10.47
 -15  -1  -2    5.38    2.73
 -16   2   2   14.21   11.56
  16  -2  -2   12.59    4.82
  16   2  -2    5.23    9.57
 -15   2   2   35.66   22.27
  15  -2  -2   15.64    8.56
  15   2  -2   29.07   17.44
 -14   2   2    9.93   10.52
  14  -2  -2   10.04    4.17
  14   2  -2    3.90    7.25
 -14  -2   2   12.91    3.53
 -13   2   2    6.18    9.47
  13  -2  -2    4.78    3.18
  13   2  -2   13.60    8.27
 -13  -2   2    5.80    2.88
  12  -2  -2    3.67    3.00
  12  -2  -2    1.81    2.86
  12   2  -2   14.63   12.64
 -12  -2   2    2.93    1.62
  11  -2  -2   96.82    8.43
  11  -2  -2  100.53    9.69
  11   2  -2   76.59   13.76
 -11  -2   2   87.45   10.93
  10  -2  -2   97.44    5.66
  10  -2  -2  101.85    7.48
  10   2  -2  102.58   15.99
 -10  -2   2   91.87    5.92
   9  -2  -2  156.90   16.72
   9  -2  -2  145.10   16.04
   9   2  -2  154.86   21.44
  -9  -2   2  142.04   15.36
   8  -2  -2  426.03   29.84
   8  -2  -2  424.39   30.30
   8   2  -2  438.85   31.13
  -8  -2   2  415.18   29.30
   7  -2  -2  309.06   18.66
   7  -2  -2  323.83   20.08
   7   2  -2  356.18   27.48
  -7  -2   2  303.77   18.51
   6  -2  -2  226.10   13.80
   6  -2  -2  236.31   14.80
   6   2  -2  261.78   22.78
  -6  -2   2  257.15   16.11
   6  -2  -2  232.03   13.59
   5  -2  -2    0.95    1.70
   5   2  -2    3.28    1.90
   5  -2  -2    2.28    1.81
   5   2  -2    0.98    9.35
   5  -2  -2    0.52    0.25
  -5  -2   2    3.04    2.22
  -4  -2   2 1293.78   22.94
   4  -2  -2 1268.08   24.14
  -4  -2   2 1267.50   24.45
  -3  -2   2  222.96    2.58
  -3   2   2  213.66   13.52
   3  -2  -2  220.29    4.37
   3   2  -2  219.25   13.02
   3  -2  -2  226.80    3.25
  -2  -2   2  102.89    2.09
  -2   2   2   96.23   11.39
   2  -2  -2  103.01    4.51
   2  -2  -2   97.21    2.64
  -1  -2   2  204.65    3.45
  -1   2   2  201.88   11.77
   1  -2  -2  195.47    3.87
   1  -2  -2  208.29    3.69
   0  -2   2  448.47    4.83
   0  -2  -2  468.14    5.76
   0  -2   2  444.41    3.04
   0   2  -2  447.90    3.21
   0  -2  -2  462.79    5.74
   1  -2   2  341.23    4.57
   1   2   2  338.30   11.97
  -1  -2  -2  362.78    8.20
   1  -2   2  351.41    3.08
  -1   2  -2  347.58    4.57
  -1  -2  -2  359.55    5.38
   2  -2   2  298.51    4.57
   2   2   2  295.85   12.26
   2  -2   2  293.93    3.79
  -2  -2  -2  281.53    4.89
   3  -2   2   43.59    2.57
   3   2   2   43.08    4.92
   3  -2   2   40.45    2.43
  -3  -2  -2   47.09    2.92
   4  -2   2 1795.30   33.19
   4   2   2 1984.04   36.69
   4  -2   2 1863.71   35.12
  -4  -2  -2 1862.34   35.04
   5  -2   2  154.29   14.38
   5   2   2  161.26    9.87
   5  -2   2  155.99   10.94
  -5  -2  -2  158.35   10.57
  -5   2  -2  151.24    9.26
   6  -2   2    6.32    1.46
   6   2   2    3.92    1.45
   6  -2   2   11.82    4.64
  -6  -2  -2    1.78    1.39
  -6   2  -2    4.90    1.50
   7  -2   2   28.69    4.74
   7   2   2   25.21    2.03
   7  -2   2   21.75    4.51
  -7  -2  -2   27.09    6.70
  -7   2  -2   26.35    2.27
   8  -2   2   67.73   12.97
   8   2   2   64.76    6.94
   8  -2   2   75.09   10.91
   8   2   2   46.77   26.62
  -8  -2  -2   64.90   14.67
  -8   2  -2   59.31    6.42
   9  -2   2   68.51   11.91
   9   2   2   56.68    4.48
   9  -2   2   59.35    6.78
   9   2   2   66.63   26.63
  -9  -2  -2   65.27    5.34
  -9   2  -2   60.88    3.75
  10  -2   2    5.81    1.64
  10  -2   2    3.61    3.82
  10   2   2   10.10   18.09
 -10   2  -2    5.05    1.98
 -10  -2  -2    3.38    1.58
  11  -2   2    8.51    2.97
  11  -2   2   21.05    6.89
  11   2   2   41.59   19.37
 -11  -2  -2   20.68    5.32
  12  -2   2   32.98    9.34
  12  -2   2   40.97    9.59
  12   2   2    9.93   15.74
 -12  -2  -2   34.05    9.13
  13  -2   2   28.51   10.75
  13  -2   2   47.69    9.46
  13   2   2   17.25   14.86
 -13  -2  -2   33.94    9.01
  14  -2   2    0.04    1.89
  14  -2   2    7.85    5.84
  14   2   2   44.66   30.18
 -15   3   2    0.46   10.45
  15  -3  -2    7.59    4.57
  15   3  -2   -0.81    8.24
 -14   3   2   13.76   12.21
  14  -3  -2    5.71    5.09
  14   3  -2   13.61    9.43
 -14  -3   2    2.34    2.49
  13  -3  -2    4.73    3.01
  13   3  -2   11.26    9.24
 -13  -3   2    3.09    2.34
  12  -3  -2  146.01   20.39
  12  -3  -2  167.74    7.79
  12   3  -2  144.66   26.54
 -12  -3   2  168.85    7.47
  11  -3  -2    9.64    3.56
  11  -3  -2   14.31    4.19
  11   3  -2   11.25   11.49
 -11  -3   2    7.01    4.99
  10  -3  -2   33.71    4.58
  10  -3  -2   29.75    4.27
  10   3  -2   57.46   16.00
 -10  -3   2   33.95   10.31
   9  -3  -2   35.75    4.24
   9  -3  -2   40.95    4.19
   9   3  -2   45.91   13.63
  -9  -3   2   44.23    6.36
   8  -3  -2  261.21   27.31
   8  -3  -2  266.22   27.98
   8   3  -2  206.14   27.31
  -8  -3   2  251.17   26.32
   7  -3  -2    4.85    2.60
   7  -3  -2    7.52    3.09
   7   3  -2   25.93   17.43
  -7  -3   2    8.83    3.45
   6  -3  -2  134.42   10.39
   6  -3  -2  138.81   10.53
   6   3  -2  165.11   21.66
  -6  -3   2  129.04   10.02
   5  -3  -2  261.45   15.91
  -5  -3   2  273.21   15.82
   5   3  -2  247.36   15.14
   5  -3  -2  293.95   18.38
   5   3  -2  273.10   25.39
  -5  -3   2  273.29   17.09
   4  -3  -2    6.31    1.55
  -4  -3   2    9.66    1.89
   4  -3  -2    9.93    2.54
  -4  -3   2    7.67    2.20
   4  -3  -2    8.02    1.68
  -3  -3   2   28.19    2.59
  -3   3   2   54.23    7.60
   3  -3  -2   36.52    9.28
   3  -3  -2   30.32    4.05
  -2  -3   2  170.65    4.10
  -2   3   2  143.62   12.43
   2  -3  -2  154.85    8.11
   2  -3  -2  176.99    4.59
  -1  -3   2  523.26   10.95
  -1   3   2  584.05   22.13
   1  -3  -2  537.49   11.49
   1  -3  -2  545.02   12.67
   0  -3   2  150.40    5.56
   0   3   2  158.74   11.23
   0  -3   2  157.13    3.77
   0  -3  -2  153.20    4.81
   0  -3  -2  152.08    4.60
   1  -3   2   58.66    3.14
   1   3   2   68.33    9.09
  -1  -3  -2   62.26    5.49
   1  -3   2   58.29    2.73
  -1  -3  -2   64.54    3.17
   2  -3   2  178.25   13.42
   2   3   2  173.86   14.48
   2  -3   2  175.97   10.81
  -2  -3  -2  164.59   12.53
   3  -3   2    5.71    1.30
   3   3   2   13.23    7.46
   3  -3   2    9.69    1.73
  -3  -3  -2    4.29    1.74
   4  -3   2   55.73    9.97
   4   3   2   58.95    6.18
   4  -3   2   61.45    4.46
  -4  -3  -2   55.06    4.57
   5  -3   2    2.43    1.60
   5   3   2    4.59    1.42
   5  -3   2    1.64    2.00
  -5  -3  -2   -0.23    2.17
  -5   3  -2    2.11    1.08
   6  -3   2   33.60    5.48
   6   3   2   29.81    2.28
   6  -3   2   28.73    3.70
  -6  -3  -2   32.97    8.43
  -6   3  -2   25.02    1.73
   7  -3   2   55.28   10.81
   7   3   2   47.68    5.05
   7  -3   2   62.45    7.74
  -7  -3  -2   31.21    9.03
  -7   3  -2   45.65    4.91
   8  -3   2   25.72    6.00
   8  -3   2   31.26    4.66
  -8  -3  -2   24.92    4.98
   9  -3   2   19.38    4.25
   9  -3   2   18.65    3.84
   9   3   2   15.59   19.35
  -9  -3  -2   26.86    5.97
  10  -3   2   21.14    5.70
  10  -3   2    9.16    3.30
  10   3   2   57.84   27.52
 -10  -3  -2   17.98    5.72
  11  -3   2    8.62    3.29
  11  -3   2    8.05    2.84
  11   3   2   -1.15   17.51
 -11  -3  -2    8.87    3.41
  12  -3   2    5.78    1.41
  12  -3   2    6.66    3.16
  12   3   2    8.43   19.58
 -12  -3  -2    5.24    2.71
  13  -3   2    5.95    3.28
  13  -3   2    5.70    3.06
  13   3   2   -0.77   15.22
 -13  -3  -2    8.21    3.85
  14  -3   2    6.96    3.26
  14  -3   2    8.16    3.61
  14   3   2   35.71   24.79
 -14  -3  -2    6.96    3.73
 -14   4   2   26.90   15.69
  14  -4  -2   36.44   10.14
  14   4  -2   19.32   15.63
 -14  -4   2   35.29    9.93
 -13   4   2   30.29   24.86
  13  -4  -2   15.17    8.38
  13   4  -2   36.12   23.07
 -13  -4   2   25.62   13.25
  12  -4  -2   10.12    3.00
  12  -4  -2    0.60    2.70
  12   4  -2   35.86   15.39
 -12  -4   2    3.28    2.78
  11  -4  -2    5.03    3.40
  11  -4  -2   12.84    4.22
  11   4  -2    4.41   10.64
 -11  -4   2    7.93    3.28
  10  -4  -2    3.31    2.49
  10  -4  -2   13.60    3.83
  10   4  -2   16.09   13.45
 -10  -4   2    6.58    3.05
   9  -4  -2    9.91    2.74
   9  -4  -2   13.48    3.23
   9   4  -2    9.74   12.87
  -9  -4   2    8.00    3.83
   8  -4  -2    4.62    2.61
   8  -4  -2    5.65    2.89
   8   4  -2    9.58   12.44
  -8  -4   2   12.59    5.09
   7  -4  -2    0.32    2.39
   7  -4  -2    0.62    1.27
   7   4  -2   17.83   14.35
  -7  -4   2    2.37    1.37
   6  -4  -2    1.06    2.17
   6  -4  -2    1.13    1.90
  -6  -4   2    3.09    1.70
   5  -4  -2    8.26    2.56
  -5  -4   2    6.54    1.04
   5  -4  -2    6.85    2.98
  -5  -4   2    2.54    2.22
  -4  -4   2    3.58    1.28
  -4   4   2   28.94   12.66
   4  -4  -2    4.94    2.73
  -4  -4   2    6.94    2.36
   4  -4  -2    3.48    0.81
  -3  -4   2   26.16    3.62
  -3   4   2   21.92   11.82
   3  -4  -2   27.59    7.04
   3  -4  -2   25.04    3.71
  -2  -4   2   92.79    6.86
  -2   4   2  106.90   13.08
   2  -4  -2   99.93    7.87
   2  -4  -2   91.99    7.18
  -1  -4   2    1.49    0.57
  -1   4   2    0.10    8.14
   1  -4  -2    0.95    1.61
   1  -4  -2   -0.49    1.09
   0  -4   2  112.54    8.41
   0   4   2  116.05   13.71
   0  -4   2  122.78    8.84
   0  -4  -2  114.66    8.95
   0  -4  -2  111.81    8.64
   1  -4   2   37.44    8.66
   1   4   2   42.78    8.06
  -1  -4  -2   38.29    8.16
   1  -4   2   34.84    3.77
  -1  -4  -2   29.02    4.81
   2  -4   2   13.34    3.05
   2   4   2    6.42    7.38
   2  -4   2    9.84    2.80
  -2  -4  -2    4.56    1.85
   3  -4   2   56.90   10.31
   3   4   2   70.66    9.58
   3  -4   2   52.78    3.92
  -3  -4  -2   55.25   14.20
   4  -4   2   40.16    7.66
   4   4   2   34.10    6.30
   4  -4   2   37.90    6.18
  -4  -4  -2   40.34   10.83
   5  -4   2    4.10    1.59
   5   4   2    6.77    3.59
   5  -4   2    3.23    1.40
  -5  -4  -2    6.03    1.53
   6  -4   2  197.20   14.82
   6  -4   2  202.10   14.93
  -6  -4  -2  183.38   14.13
   7  -4   2    1.85    1.77
   7  -4   2    3.61    2.67
  -7  -4  -2    2.57    2.12
   8  -4   2   47.87    9.82
   8  -4   2   50.83    8.35
  -8  -4  -2   55.74   12.14
   9  -4   2    1.28    1.68
   9  -4   2    2.84    2.80
  -9  -4  -2    2.29    2.39
  10  -4   2   34.34    6.86
  10  -4   2   31.59    5.65
  10   4   2    3.17   19.40
 -10  -4  -2   28.37    8.11
  11  -4   2   12.86    2.86
  11  -4   2    6.20    3.14
  11   4   2    5.37   18.34
 -11  -4  -2    1.50    2.97
  12  -4   2    4.11    1.45
  12  -4   2    3.20    2.46
  12   4   2   67.12   27.13
 -12  -4  -2    1.69    2.08
  13  -4   2    2.29    3.11
  13  -4   2    0.83    2.29
  13   4   2   29.97   28.51
 -13  -4  -2    5.83    3.69
 -12   5   2   49.33   24.10
  12  -5  -2    3.22    3.56
  12   5  -2   19.82   13.01
 -12  -5   2    6.25    3.02
 -11   5   2   60.61   25.57
  11  -5  -2   39.34   14.81
  11   5  -2   20.40   15.25
 -11  -5   2   38.04   11.27
 -10   5   2   25.99   16.56
  10  -5  -2    3.41    2.45
  10   5  -2   12.30   12.20
 -10  -5   2    4.09    2.69
   9  -5  -2   27.33    6.75
   9   5  -2   30.87   18.47
  -9  -5   2   26.04    4.87
   8  -5  -2   17.83    7.07
   8   5  -2   20.61   12.24
  -8  -5   2   19.73    4.05
  -7   5   2   32.88   15.39
   7  -5  -2    4.48    2.07
   7   5  -2   25.48   19.68
  -7  -5   2   11.08    3.25
  -6   5   2   29.04   13.55
   6  -5  -2   42.85   11.05
  -6  -5   2   47.02    6.59
  -5   5   2   40.64   13.41
   5  -5  -2   39.66    8.62
  -4   5   2   47.57   16.23
   4  -5  -2   32.96    6.15
  -3  -5   2    8.10    3.71
  -3   5   2    7.82   10.38
   3  -5  -2   12.70    4.38
   3  -5  -2    8.11    2.13
  -2  -5   2  277.02   19.59
  -2   5   2  286.11   27.20
   2  -5  -2  307.08   22.48
   2  -5  -2  286.10   20.45
  -1  -5   2   54.18    3.89
  -1   5   2   71.73   11.03
   1  -5  -2   56.86    4.39
   1  -5  -2   52.54    3.31
   0  -5   2   37.30    2.69
   0   5   2   58.77   11.57
   0  -5   2   44.73    4.17
   0  -5  -2   44.35    5.23
   0  -5  -2   43.99    9.89
   1  -5   2   -0.29    1.63
   1   5   2    3.48    6.01
  -1  -5  -2    4.33    2.18
   1  -5   2    0.86    0.83
  -1  -5  -2    1.44    1.17
   2  -5   2    3.69    2.19
   2   5   2    5.24    5.54
   2  -5   2    2.48    1.44
  -2  -5  -2    2.01    1.13
   3  -5   2    4.03    1.40
   3   5   2    6.69    5.17
   3  -5   2    3.73    2.27
  -3  -5  -2    5.71    1.95
   4  -5   2    2.60    1.49
   4   5   2    6.10    5.67
   4  -5   2   -0.64    0.97
  -4  -5  -2    1.82    1.51
   5  -5   2   17.10    5.24
   5  -5   2   13.93    4.90
  -5  -5  -2   21.78    6.56
   6  -5   2    2.09    1.28
   6  -5   2    2.05    0.98
  -6  -5  -2    4.02    1.45
   7  -5   2    5.31    2.29
   7  -5   2    6.05    1.89
  -7  -5  -2    3.70    1.80
   8  -5   2   17.72    5.52
   8  -5   2   14.86    5.58
  -8  -5  -2   10.72    5.00
   9  -5   2    5.03    1.88
   9  -5   2    2.70    1.65
  -9  -5  -2    3.58    1.61
  10  -5   2    6.61    3.07
  10  -5   2    3.46    2.67
 -10  -5  -2   11.10    5.22
  11  -5   2    2.01    1.47
  11  -5   2    2.29    1.81
  11   5   2   21.36   20.77
 -11  -5  -2    2.06    1.40
 -10   6   2   13.96   15.32
  10  -6  -2   10.32    5.91
  10   6  -2   38.99   21.77
  -9   6   2    7.29   13.49
   9  -6  -2    0.73    1.13
   9   6  -2   36.28   24.20
  -8   6   2    9.54   18.88
   8  -6  -2    2.71    1.22
   8   6  -2    8.13   12.89
  -7   6   2   11.61   13.77
   7  -6  -2    7.21    3.03
   7   6  -2   32.86   18.14
  -6   6   2   -1.30   12.57
   6  -6  -2    7.97    3.08
  -5   6   2   11.81   13.29
   5  -6  -2    6.58    2.64
  -4   6   2  131.73   31.47
   4  -6  -2   66.43   10.92
  -3   6   2   19.03   11.70
   3  -6  -2    6.25    4.30
  -2  -6   2    2.18    1.56
  -2   6   2   10.99   15.13
   2  -6  -2    1.97    1.75
  -1  -6   2   29.11    5.47
  -1   6   2   26.78    9.36
   1  -6  -2   39.41    9.66
   1  -6  -2   21.61    7.89
   0  -6   2    9.35    2.97
   0   6   2   10.06    9.49
   0  -6  -2    5.50    2.29
   0  -6  -2    7.54    3.75
   1  -6   2    6.98    2.62
   1   6   2    6.74    6.93
  -1  -6  -2    3.24    1.35
   2  -6   2    1.43    1.01
   2   6   2   12.28    9.32
  -2  -6  -2    3.43    1.73
   3  -6   2   16.39    6.72
  -3  -6  -2   14.66    4.54
   4  -6   2   32.60    8.32
  -4  -6  -2   25.02    8.83
   5  -6   2   29.03   12.91
  -5  -6  -2   37.85   12.73
   6  -6   2   27.64    9.30
  -6  -6  -2   34.11   10.39
   7  -6   2    7.34    2.57
  -7  -6  -2    5.31    2.55
   8  -6   2    1.65    1.33
  -8  -6  -2    4.29    5.25
   9  -6   2   19.07    9.70
  -9  -6  -2   18.78   12.70
  -7   7   2   -7.99   13.93
   7  -7  -2    2.65    1.12
  -6   7   2    0.42   13.28
   6  -7  -2    5.08    2.29
  -5   7   2   16.98   18.08
   5  -7  -2    1.74    1.54
  -4   7   2   11.40   12.72
   4  -7  -2    3.42    1.54
  -3   7   2   21.44   13.24
   3  -7  -2    1.31    1.44
  -2   7   2   10.02   11.40
   2  -7  -2    2.95    1.59
  -1   7   2   25.23   14.12
   1  -7  -2    2.72    1.59
   0  -7   2    4.84    3.52
   0   7   2    8.94    7.13
   1  -7   2   18.66    8.57
   2  -7   2    6.42    4.77
  -2  -7  -2    5.84    3.41
   3  -7   2    4.16    1.44
  -3  -7  -2    1.39    1.88
   4  -7   2   30.74   14.86
  -4  -7  -2   27.16   15.87
   5  -7   2    4.33    3.60
  -5  -7  -2    5.21    3.94
  16   0  -3    9.96    6.44
  15   0  -3    0.15    4.41
 -14   0   3    8.32    6.99
 -13   0   3   11.67    6.99
  13   0  -3    2.97    4.52
 -12   0   3   11.06    7.55
  12   0  -3    4.33    4.32
 -11   0   3   20.80    9.71
  11   0  -3    2.14    4.57
 -10   0   3    6.64   10.10
  10   0  -3   12.79    4.90
  -9   0   3    6.17    6.43
   9   0  -3    4.89    3.57
  -8   0   3    8.29    6.94
   8   0  -3   -3.00    2.88
  -7   0   3    7.37    7.20
   7   0  -3    1.80    2.76
  -6   0   3   13.23   12.76
   6   0  -3   -1.94    2.47
  -5   0   3    8.93    9.29
   5   0  -3    0.23    2.20
  -4   0   3   12.15    8.96
   4   0  -3    1.34    2.04
  -3   0   3    8.35    8.61
   3   0  -3    1.61    1.65
  -2   0   3   -4.92    8.56
   2   0  -3    1.03    0.91
  -1   0   3   12.33    7.79
   1   0  -3    1.33    1.44
   0   0   3   28.50    9.08
   0   0  -3    0.86    1.27
   2   0   3   -0.38    2.55
   3   0   3    2.13    2.82
  -3   0  -3    4.60    2.22
   4   0   3    3.61    2.66
  -4   0  -3    2.52    1.86
   5   0   3    0.18    1.77
   5   0   3    0.71    9.91
  -5   0  -3    1.47    2.89
   6   0   3    0.73    1.72
   6   0   3    6.38   11.03
  -6   0  -3    2.80    1.84
   7   0   3    2.63    1.71
   7   0   3    9.04   18.21
  -7   0  -3   -0.45    1.80
   8   0   3    4.66    1.71
   8   0   3   11.92   12.83
  -8   0  -3    1.92    1.72
   9   0   3   -0.58    1.49
   9   0   3   -0.79   11.88
  -9   0  -3    1.68    1.11
  10   0   3    1.92    1.25
  10   0   3  -19.93   11.14
 -10   0  -3    5.88    1.75
  11   0   3    2.93    0.96
  11   0   3    9.11    9.81
 -11   0  -3    2.23    1.68
  12   0   3    2.14    0.84
  12   0   3   24.53   12.96
 -12   0  -3    4.30    1.64
  13   0   3    2.13    1.06
  13   0   3    3.66    8.48
 -13   0  -3   -0.81    1.70
  14   0   3   21.14   14.06
 -14   0  -3   -0.17    1.62
  16  -1  -3    4.57    5.37
  16   1  -3    4.94    4.45
 -15   1   3   -2.37    8.57
  15  -1  -3    5.20    3.74
  15   1  -3    1.08    5.25
 -14   1   3   33.33   17.07
  14  -1  -3    9.95    5.88
  14   1  -3    2.88    5.94
 -13   1   3   25.21   11.70
  13  -1  -3   35.77    7.72
  13   1  -3   31.16    9.84
 -12  -1   3    7.90    6.70
 -12   1   3   13.56    9.29
  12  -1  -3   17.03    6.01
  12   1  -3   11.25    8.19
 -11  -1   3    4.82    4.55
 -11   1   3    8.50    8.21
  11  -1  -3    4.47    3.92
  11   1  -3    3.54    5.82
 -10  -1   3   20.07    7.05
 -10   1   3   10.77    9.09
  10  -1  -3   13.84    5.46
  10   1  -3    4.72    5.23
  -9  -1   3   10.79    4.60
  -9   1   3   12.03    8.24
   9   1  -3    9.63    4.90
  -8  -1   3   51.25    7.19
  -8   1   3   47.84   10.90
   8  -1  -3   45.22    5.63
   8   1  -3   63.00    7.91
  -7  -1   3   17.98    4.92
  -7   1   3   36.49    8.81
   7  -1  -3   27.43    3.40
   7   1  -3   23.93    5.65
  -6  -1   3  375.82   13.50
  -6   1   3  361.63   16.78
   6  -1  -3  347.84    8.89
   6   1  -3  334.84   12.05
  -5  -1   3  212.77    9.69
   5  -1  -3  204.99    6.00
   5   1  -3  219.27    9.11
  -4  -1   3   22.05    4.47
  -4   1   3    2.55   10.33
   4  -1  -3   21.88    2.31
   4   1  -3   17.67    2.56
  -3  -1   3   45.41    4.33
  -3   1   3   67.74   10.96
   3  -1  -3   41.03    2.46
   3   1  -3   38.19    1.98
  -2  -1   3   19.80    2.65
  -2   1   3    0.34   12.55
   2  -1  -3   26.11    5.71
   2   1  -3   24.01    1.26
  -2  -1   3   23.13    2.75
  -1  -1   3    7.40    2.39
  -1   1   3    2.53   10.31
   1   1  -3    8.59    1.34
   1  -1  -3   10.72    2.22
  -1  -1   3    5.03    0.58
   0  -1   3  170.06    4.22
   0   1   3  167.38   12.18
   0  -1  -3  172.55    4.64
   0  -1   3  159.99    1.92
   1  -1   3  233.05    4.70
   1   1   3  233.10   10.21
  -1  -1  -3  218.30    4.22
   1  -1   3  219.82    8.75
  -1  -1  -3  224.84    6.11
   2   1   3  677.84   11.73
   2  -1   3  689.28   15.61
   3  -1   3 1145.71    9.49
   3   1   3 1169.71   11.63
  -3  -1  -3 1170.08   11.64
   4  -1   3   17.27    2.20
   4   1   3   19.25    2.43
   4  -1   3   24.74   12.06
  -4  -1  -3   22.11    2.61
  -4   1  -3   16.02    2.27
   5  -1   3  489.04   11.01
   5   1   3  479.18   10.28
   5  -1   3  524.02   21.72
  -5  -1  -3  490.89   29.28
  -5   1  -3  465.99   27.70
   6  -1   3   10.26    2.03
   6   1   3    7.93    2.08
   6  -1   3   21.21    7.92
  -6  -1  -3    6.25    1.75
  -6   1  -3    9.91    1.87
   7  -1   3   29.51    3.18
   7   1   3   35.21    3.53
   7  -1   3   30.98    7.35
   7   1   3   60.53   24.94
  -7  -1  -3   38.75    3.99
  -7   1  -3   34.04    3.36
   8  -1   3    5.17    2.09
   8   1   3    8.18    2.05
   8  -1   3   12.40    7.22
   8   1   3   15.15   16.28
  -8  -1  -3   10.73    3.31
  -8   1  -3    9.25    2.24
   9  -1   3    5.67    1.80
   9   1   3    3.72    1.37
   9  -1   3   32.82   11.15
   9   1   3   35.70   22.89
  -9  -1  -3    9.53    2.27
  -9   1  -3    4.20    1.58
  10  -1   3    2.81    1.51
  10   1   3    2.30    1.52
  10  -1   3    4.92    6.53
  10   1   3    9.18   14.46
 -10  -1  -3    0.48    1.80
 -10   1  -3   -0.32    1.27
  11  -1   3    6.88    3.58
  11   1   3    2.00    1.19
  11  -1   3    5.17    6.50
  11   1   3   -0.10   13.18
 -11  -1  -3    7.92    3.16
 -11   1  -3    7.22    2.32
  12  -1   3    9.96    2.96
  12  -1   3    2.81    6.99
  12   1   3   29.49   12.64
 -12   1  -3    9.65    4.48
 -12  -1  -3    6.95    2.99
  13  -1   3   52.01   13.00
  13  -1   3   67.46   13.53
  13   1   3   63.67   16.52
 -13  -1  -3   67.38   14.16
  14  -1   3   11.11    7.04
  14  -1   3   24.35   14.95
  14   1   3   92.10   22.25
 -14  -1  -3   19.32   11.64
 -16   2   3   18.55   18.24
  16  -2  -3    5.32    3.38
  16   2  -3   -0.59    5.32
 -15   2   3   25.58   16.02
  15  -2  -3   25.91    8.50
  15   2  -3   10.16    6.57
 -14   2   3   33.88   17.83
  14  -2  -3   14.21    4.76
  14   2  -3   27.24   10.06
 -13   2   3    3.98    9.58
  13  -2  -3    6.66    2.90
  13   2  -3   11.92    7.28
 -12   2   3  140.81   26.63
  12  -2  -3  159.27   23.84
  12   2  -3  140.54   23.79
 -11   2   3    7.59    9.22
  11  -2  -3    1.58    2.65
  11   2  -3    5.78    7.34
 -10   2   3   85.35   12.16
  10  -2  -3  121.95    8.10
  10   2  -3  125.14   12.71
  -9  -2   3    3.31    1.83
  -9   2   3    8.14    8.53
   9  -2  -3    3.85    2.68
   9   2  -3    5.92    7.30
  -8  -2   3  156.64    8.28
  -8  -2   3  161.05    9.08
  -8   2   3  134.87   15.71
   8  -2  -3  173.71   10.77
   8   2  -3  175.65   15.92
  -7  -2   3    3.07    0.63
  -7  -2   3    1.38    0.93
  -7   2   3   12.07    9.41
   7  -2  -3    8.66    3.20
   7   2  -3   13.47    5.72
  -6  -2   3    8.67    1.44
  -6   2   3   37.09   13.38
   6  -2  -3    9.83    2.40
   6   2  -3    8.23    6.31
  -5  -2   3   34.55    1.81
  -5   2   3   26.29    8.26
   5  -2  -3   30.63    2.57
   5   2  -3   40.88    6.92
  -4  -2   3  186.12    4.48
  -4   2   3  189.22   16.48
   4  -2  -3  172.20    5.21
   4   2  -3  180.20    9.15
  -3  -2   3  514.99   10.16
  -3   2   3  518.88   21.93
   3  -2  -3  533.07   11.61
   3   2  -3  554.78   14.25
  -2  -2   3   36.29    1.94
  -2   2   3   43.48   10.46
   2   2  -3   36.53    2.16
   2  -2  -3   45.06    3.80
   2   2  -3   36.00    3.16
  -1  -2   3    9.11    1.72
  -1   2   3   21.82    6.41
   1  -2  -3   12.44    3.21
   1  -2  -3   12.86    2.38
   0  -2   3   99.45    2.92
   0   2   3  119.13   12.87
   0  -2  -3  109.80    3.52
   0  -2  -3  109.99    3.90
   1  -2   3  147.90    4.52
   1   2   3  114.01   11.03
  -1  -2  -3  137.22    8.43
   1  -2   3  131.12    2.85
  -1   2  -3  133.57    6.97
  -1  -2  -3  139.87    4.86
   2  -2   3  202.69    5.56
   2   2   3  207.96   13.01
   2  -2   3  190.29    4.83
  -2  -2  -3  196.69    6.03
   3  -2   3  400.20    9.24
   3   2   3  416.55   13.24
   3  -2   3  373.93    9.01
  -3  -2  -3  401.58    9.96
   4  -2   3  160.86   10.30
   4   2   3  181.66   12.10
   4  -2   3  171.50   11.69
  -4  -2  -3  169.87   11.17
   5  -2   3  129.91    8.43
   5   2   3  145.37    9.46
   5  -2   3  134.00    9.89
  -5  -2  -3  122.90    8.41
  -5   2  -3  129.60    8.44
   6  -2   3   15.38    2.59
   6   2   3   17.11    2.30
   6  -2   3   11.69    3.84
  -6  -2  -3   13.81    2.99
  -6   2  -3   16.75    2.38
   7  -2   3    3.11    1.34
   7   2   3    1.95    1.55
   7  -2   3    1.53    3.31
  -7  -2  -3    1.67    2.01
  -7   2  -3    3.38    1.94
   8  -2   3    1.85    2.10
   8   2   3    2.96    0.97
   8  -2   3    0.74    3.82
  -8  -2  -3    5.23    1.73
  -8   2  -3    0.79    1.09
   9  -2   3   29.39    4.90
   9   2   3   25.38    2.56
   9  -2   3   28.17    6.38
   9   2   3   21.77   20.33
  -9  -2  -3   26.24    7.08
  -9   2  -3   20.02    5.20
  10  -2   3    5.22    2.77
  10  -2   3    9.71    5.57
  10   2   3   42.90   27.27
 -10  -2  -3    2.18    1.79
 -10   2  -3    2.73    1.12
  11  -2   3   17.85    5.76
  11  -2   3   10.60    4.22
  11   2   3   17.46   18.15
 -11  -2  -3   19.46    5.79
  12  -2   3    4.02    1.41
  12  -2   3    1.19    4.24
  12   2   3   21.08   16.97
 -12  -2  -3    8.18    3.49
  13  -2   3   -1.67    1.88
  13  -2   3    3.51    4.64
  13   2   3    1.43   14.39
 -13  -2  -3    4.24    1.97
  14  -2   3    7.90    4.50
  14  -2   3   15.67    7.36
  14   2   3    4.29   14.05
 -14  -2  -3   10.88    3.53
 -15   3   3   15.93   16.36
  15  -3  -3    6.40    4.05
  15   3  -3    4.45    7.05
 -14   3   3   45.12   18.74
  14  -3  -3   28.19    9.08
  14   3  -3   39.47   14.20
 -13   3   3   33.64   19.07
  13  -3  -3    5.06    2.77
  13   3  -3    3.29    6.90
 -12   3   3   12.12   11.13
  12  -3  -3   -1.10    2.61
  12   3  -3    3.88    8.01
 -11   3   3   93.56   19.78
  11  -3  -3   77.36   12.25
  11   3  -3   64.48   14.83
 -10   3   3  130.33   18.38
  10  -3  -3  164.26   13.55
  10   3  -3  136.37   18.40
  -9   3   3   19.28   10.61
   9  -3  -3   -0.41    2.35
   9   3  -3    5.21    7.95
  -8   3   3  611.33   67.13
   8  -3  -3  644.42   66.20
   8   3  -3  703.82   36.69
  -7   3   3   90.98   15.42
   7  -3  -3  100.88    7.02
   7   3  -3  125.37   14.25
   7  -3  -3   83.21    4.51
  -6  -3   3   96.14    6.72
   6   3  -3   82.63    7.07
  -6   3   3   87.83   15.10
   6  -3  -3  108.26    8.66
   6   3  -3  109.56   15.48
   6  -3  -3  103.96    7.36
  -5  -3   3  168.46   11.72
  -5   3   3  171.12   19.09
   5  -3  -3  172.09   13.48
   5   3  -3  158.18   16.05
   5  -3  -3  181.99   12.77
  -4  -3   3   21.32    1.76
  -4   3   3   32.60   10.37
   4  -3  -3   21.63    5.46
   4   3  -3   20.31    8.22
   4  -3  -3   22.44    1.99
  -3  -3   3  257.57   15.26
  -3   3   3  250.34   21.08
   3  -3  -3  258.74   15.71
   3   3  -3  217.86   15.93
   3  -3  -3  270.01   16.11
  -2  -3   3   24.88    2.21
  -2   3   3   20.15   10.35
   2  -3  -3   25.94    6.64
   2  -3  -3   23.36    2.37
  -1  -3   3   85.59    5.93
  -1   3   3   77.86   11.28
   1  -3  -3   80.95    5.71
   1   3  -3   80.75    4.90
   1  -3  -3   89.16    6.40
   0  -3   3  146.68    9.16
   0   3   3  130.12   15.26
   0  -3   3  147.82    8.73
   0  -3  -3  143.72    9.34
   0   3  -3  148.82    8.94
   0  -3  -3  153.23    9.75
   1  -3   3   88.79    5.99
   1   3   3   81.19   12.78
  -1  -3  -3   90.99    6.48
   1  -3   3   88.05    5.59
  -1  -3  -3   88.98    6.24
   2  -3   3  148.07    9.42
   2   3   3  126.50   13.29
   2  -3   3  146.89    8.81
  -2  -3  -3  150.52    9.85
   3  -3   3  243.25   17.36
   3   3   3  236.46   20.61
   3  -3   3  232.99   16.32
  -3  -3  -3  260.88   18.89
   4  -3   3   63.73   10.16
   4   3   3   49.60    6.67
   4  -3   3   56.17    4.65
  -4  -3  -3   59.55    5.82
   5  -3   3   14.45    2.91
   5   3   3   11.37    3.01
   5  -3   3    9.43    2.50
  -5  -3  -3   13.27    3.70
   6  -3   3  148.67   16.01
   6   3   3  164.25   17.20
   6  -3   3  140.72   15.23
  -6  -3  -3  140.96   15.54
  -6   3  -3  148.19   15.54
   7  -3   3  117.19    6.45
   7   3   3  125.82    5.66
   7  -3   3  113.27    7.47
  -7  -3  -3  117.00    8.17
  -7   3  -3  111.57    5.15
   8  -3   3    5.41    1.73
   8  -3   3   13.19    3.62
  -8  -3  -3   11.91    2.64
   9  -3   3    3.86    2.31
   9  -3   3    9.43    4.55
  -9  -3  -3    1.44    2.10
  10  -3   3    7.40    2.59
  10  -3   3   14.48    4.63
  10   3   3   20.59   21.43
 -10  -3  -3   19.84    5.22
  11  -3   3    6.43    2.04
  11  -3   3   11.77    4.69
  11   3   3   36.05   20.05
 -11  -3  -3   12.30    4.39
  12  -3   3    8.57    2.27
  12  -3   3    4.47    2.78
 -12  -3  -3    6.80    2.81
  13  -3   3    0.00    2.21
  13  -3   3    0.82    2.76
  13   3   3    5.77   17.93
 -13  -3  -3   -0.14    1.61
 -14   4   3   24.92   15.27
  14  -4  -3    4.77    2.97
  14   4  -3    8.00    7.30
 -13   4   3   10.02   13.87
  13  -4  -3    9.32    5.04
  13   4  -3   56.49   21.64
 -12   4   3   34.32   19.19
  12  -4  -3   18.15    5.02
  12   4  -3   35.07   11.34
 -11   4   3  109.52   20.97
  11  -4  -3   77.98    9.87
  11   4  -3   98.44   17.69
 -10   4   3   19.99   11.59
  10  -4  -3   29.66    4.80
  10   4  -3   33.47   14.49
  -9   4   3   62.11   18.92
   9  -4  -3   30.29    6.99
   9   4  -3   23.04   11.62
  -8   4   3    8.80   13.24
   8  -4  -3   24.75    6.74
   8   4  -3   21.29   14.24
  -7   4   3   83.86   17.62
   7  -4  -3   69.89    8.05
   7   4  -3   66.03   12.03
  -6   4   3   81.61   14.26
   6  -4  -3   74.17    6.66
   6   4  -3   63.44   11.00
  -5  -4   3    1.10    0.59
  -5   4   3   11.15   11.29
   5  -4  -3   -0.18    1.71
   5   4  -3    1.24    8.19
   5  -4  -3    0.17    0.46
  -4  -4   3   13.37    3.45
  -4   4   3    5.66   10.87
   4  -4  -3   16.77    3.93
   4  -4  -3   10.22    2.33
  -3  -4   3   49.34    3.29
  -3   4   3   41.76   11.49
   3  -4  -3   50.39    5.11
   3  -4  -3   47.45    3.20
  -2  -4   3    2.90    1.64
  -2   4   3    9.45    8.93
   2  -4  -3    2.23    1.14
   2  -4  -3    4.02    1.66
  -1  -4   3  257.07   14.71
  -1   4   3  317.03   24.39
   1  -4  -3  267.44   15.06
   1  -4  -3  253.73   13.98
   0  -4   3  519.98   27.62
   0   4   3  497.78   32.15
   0  -4   3  501.64   26.22
   0  -4  -3  565.39   31.50
   0  -4  -3  520.57   27.91
   1  -4   3    4.15    2.03
   1   4   3   16.17   10.45
  -1  -4  -3    5.13    2.26
   1  -4   3    4.46    1.01
  -1  -4  -3    4.20    1.84
   2  -4   3    4.16    2.68
   2   4   3    4.77    6.33
   2  -4   3    4.53    1.50
  -2  -4  -3    5.29    2.32
   3  -4   3    2.09    1.59
   3   4   3   15.75    8.39
   3  -4   3    0.96    0.94
  -3  -4  -3    1.69    1.16
   4  -4   3   34.23    7.38
   4   4   3   32.25    5.79
   4  -4   3   33.32    5.98
  -4  -4  -3   37.70    7.48
   5  -4   3   46.64   10.81
   5   4   3   25.79    4.33
   5  -4   3   46.92    4.48
  -5  -4  -3   48.57   12.45
   6  -4   3    6.05    1.34
   6  -4   3    6.98    1.90
  -6  -4  -3    4.13    2.24
   7  -4   3    2.53    2.12
   7  -4   3    6.69    2.50
  -7  -4  -3    3.23    1.80
   8  -4   3   19.32    4.92
   8  -4   3   22.89    4.45
  -8  -4  -3   21.49    5.44
   9  -4   3   14.70    4.91
   9  -4   3   18.97    4.42
  -9  -4  -3   20.75    6.43
  10  -4   3    3.89    2.42
  10  -4   3    4.04    2.06
 -10  -4  -3    8.42    3.44
  11  -4   3    3.45    0.91
  11  -4   3    2.37    2.08
  11   4   3   11.91   20.06
 -11  -4  -3   -0.48    2.61
  12  -4   3    6.98    1.36
  12  -4   3    0.68    2.08
  12   4   3   13.58   19.49
 -12  -4  -3    4.06    1.57
 -12   5   3   21.25   16.50
  12  -5  -3   16.66    6.50
  12   5  -3    7.54    9.49
 -11   5   3   37.16   18.21
  11  -5  -3   11.92    5.00
  11   5  -3   22.68   11.62
 -10   5   3   92.59   26.38
  10  -5  -3  104.08   13.96
  10   5  -3  104.80   17.74
  -9   5   3   42.10   22.27
   9  -5  -3    7.04    3.72
   9   5  -3    7.43   10.22
  -8   5   3   35.69   15.62
   8  -5  -3   44.75   14.20
   8   5  -3   60.69   15.83
  -7   5   3   14.74   13.60
   7  -5  -3    1.59    1.31
   7   5  -3   -4.65    8.87
  -6   5   3    6.25   12.83
   6  -5  -3    0.43    1.08
   6   5  -3   19.97   12.52
  -5   5   3   -3.15   13.20
   5  -5  -3   13.71    5.45
  -4  -5   3   27.40    4.74
  -4   5   3   36.85   17.88
   4  -5  -3   33.47    9.34
  -3  -5   3   21.14    5.45
  -3   5   3   26.26   11.84
   3  -5  -3   19.49    8.79
  -2  -5   3    6.26    1.59
  -2   5   3   27.56   16.06
   2  -5  -3    2.73    1.16
  -1  -5   3  315.48   22.85
  -1   5   3  323.39   30.79
   1  -5  -3  311.94   22.23
   0  -5   3   46.00   11.48
   0   5   3   47.35   11.29
   0  -5  -3   43.40   12.44
   0  -5  -3   43.93   11.46
   1  -5   3   13.52    3.11
   1   5   3   19.54    7.74
  -1  -5  -3   12.48    3.23
   1  -5   3    9.07    2.97
  -1  -5  -3   11.15    2.42
   2  -5   3   69.02    9.42
   2   5   3   71.55   10.74
   2  -5   3   64.82    5.49
  -2  -5  -3   72.38    6.54
   3  -5   3   32.17    6.24
   3   5   3   27.12    8.79
   3  -5   3   13.00    4.23
  -3  -5  -3   30.18    9.91
   4  -5   3    2.77    1.57
   4   5   3    7.36    6.03
   4  -5   3    0.96    0.88
  -4  -5  -3    4.44    1.92
   5  -5   3   -0.21    2.01
   5  -5   3    1.83    1.03
  -5  -5  -3    1.97    1.60
   6  -5   3   24.47    5.02
  -6  -5  -3   21.25    6.39
   7  -5   3    4.69    2.19
   7  -5   3    1.68    0.66
  -7  -5  -3    2.96    2.36
   8  -5   3   34.30   13.52
  -8  -5  -3   32.87    9.36
   9  -5   3    2.93    1.33
  -9  -5  -3    6.39    2.30
  10  -5   3   12.21    5.69
 -10  -5  -3   13.51    6.87
 -10   6   3   25.91   17.06
  10  -6  -3   27.76   11.96
  -9   6   3   -1.80   13.19
   9  -6  -3    3.88    1.40
  -8   6   3   17.54   15.03
   8  -6  -3   30.61   14.33
  -7   6   3   36.83   15.23
   7  -6  -3   21.52   10.16
  -6   6   3   23.86   20.08
   6  -6  -3   13.89    3.74
  -5   6   3   19.24   19.07
   5  -6  -3   -0.08    1.73
  -4   6   3   91.75   22.38
   4  -6  -3   91.60   14.00
  -3   6   3   44.82   17.87
   3  -6  -3   12.47    4.56
  -2  -6   3    7.87    2.50
  -2   6   3    3.20   10.45
   2  -6  -3    8.22    2.45
  -1  -6   3   15.59    4.13
  -1   6   3   40.50   13.71
   1  -6  -3   14.59    7.48
   1  -6  -3    7.51    3.72
   0  -6   3    3.92    1.23
   0   6   3    5.65    7.75
   0  -6  -3   10.02    3.44
   0  -6  -3   12.05    4.45
   1  -6   3    8.66    2.25
   1   6   3    8.81    9.70
  -1  -6  -3    7.35    2.98
   2  -6   3   16.87    4.74
   2   6   3   11.43    6.37
  -2  -6  -3   17.24    5.80
   3  -6   3    2.73    1.21
  -3  -6  -3    3.28    1.77
   4  -6   3    9.28    2.96
  -4  -6  -3    8.25    2.99
   5  -6   3   70.80   13.74
  -5  -6  -3   77.52   15.03
   6  -6   3    3.84    2.27
  -6  -6  -3    8.69    3.72
   7  -6   3    2.86    1.72
  -7  -6  -3    3.77    2.33
   8  -6   3    3.09    2.27
  -8  -6  -3    4.09    2.85
  -6   7   3   42.80   18.42
   6  -7  -3   13.77    8.50
  -5   7   3   35.17   20.98
   5  -7  -3    3.17    2.53
  -4   7   3   31.50   24.27
   4  -7  -3    7.51    3.27
  -3   7   3   46.15   29.14
   3  -7  -3    1.74    1.88
  -2   7   3   15.06   11.26
   2  -7  -3    2.88    2.05
  -1   7   3   18.20   11.01
   1  -7  -3   15.77    6.90
   0  -7   3    3.43    1.22
   0   7   3   26.64   15.62
   0  -7  -3    1.56    2.15
   1  -7   3    5.82    2.53
   2  -7   3   48.60   24.07
  -2  -7  -3   39.49   21.92
   3  -7   3    5.84    2.52
  -3  -7  -3    4.90    1.74
   4  -7   3    6.12    1.86
   5  -7   3    7.81    4.21
  -5  -7  -3    5.88    1.90
  16   0  -4    6.14    3.99
  15   0  -4    6.80    4.10
  14   0  -4   46.66    8.43
 -13   0   4  164.18   28.52
  13   0  -4  208.93   22.44
 -12   0   4  197.17   21.38
  12   0  -4  206.85   17.70
 -11   0   4  105.08   13.75
  11   0  -4  134.97   11.97
 -10   0   4  612.41   66.11
  10   0  -4  558.51   57.94
  -9   0   4  121.36   13.12
   9   0  -4  103.37    7.79
  -8   0   4  187.89   18.35
   8   0  -4  168.80   13.13
  -7   0   4  505.61   34.59
   7   0  -4  468.74   28.21
  -6   0   4  937.99   26.86
   6   0  -4  969.50   19.72
  -5   0   4  808.44   25.19
   5   0  -4  831.09   16.70
  -4   0   4  447.45   18.96
   4   0  -4  427.51    5.68
  -3   0   4  699.67   17.20
   3   0  -4  678.68    6.41
  -2   0   4  219.64   10.76
  -1   0   4  418.60   14.38
   0   0   4   15.83    4.68
   0   0  -4   11.20    2.20
   1   0   4  485.37    9.66
   2   0   4    7.01    2.06
   3   0   4    3.85    3.03
   4   0   4   39.44    2.96
  -4   0  -4   32.77    3.22
   5   0   4   40.70    3.73
  -5   0  -4   35.16    3.57
   6   0   4  311.32   22.10
   6   0   4  321.53   34.72
  -6   0  -4  320.29   22.99
   7   0   4    0.74    1.92
   7   0   4  -10.90   13.16
  -7   0  -4    1.02    1.85
   8   0   4  156.21    7.74
   8   0   4  153.44   23.70
  -8   0  -4  129.91    7.23
   9   0   4   33.72    3.68
   9   0   4   41.49   13.48
  -9   0  -4   42.88    4.94
  10   0   4    4.37    2.29
  10   0   4   19.68   11.35
 -10   0  -4    4.24    2.20
  11   0   4   13.92    3.03
  11   0   4   33.65   17.90
 -11   0  -4   13.49    5.18
  12   0   4    9.66    3.31
  12   0   4   30.12   17.29
 -12   0  -4    8.45    3.35
  13   0   4   33.20   14.03
  13   0   4   61.86   22.04
 -13   0  -4   52.48   16.04
  14   0   4   18.21   10.77
 -14   0  -4   29.59   13.98
  16  -1  -4   20.24    7.56
  16   1  -4    9.95    5.33
 -15   1   4    8.07    9.40
  15  -1  -4   20.61    5.55
  15   1  -4    7.25    6.32
 -14   1   4   23.60    9.69
  14  -1  -4   30.10    6.51
  14   1  -4   23.84    7.02
 -13   1   4   66.70   13.95
  13  -1  -4   61.77    9.56
  13   1  -4   58.14    9.14
 -12  -1   4   68.01   12.10
 -12   1   4   85.26   16.73
  12  -1  -4   86.52   11.00
  12   1  -4   99.86   13.24
 -11  -1   4   18.63    8.04
 -11   1   4    8.54    8.68
  11  -1  -4    5.07    4.87
  11   1  -4    2.14    4.60
 -10  -1   4   18.27    6.04
 -10   1   4   37.53   15.41
  10  -1  -4   37.48    6.01
  10   1  -4   36.62    6.74
  -9  -1   4  173.18   15.03
  -9   1   4  167.98   20.38
   9  -1  -4  141.33    9.38
   9   1  -4  141.98   10.36
  -8  -1   4  395.62   30.66
  -8   1   4  365.62   31.10
   8  -1  -4  352.29   25.35
   8   1  -4  352.71   25.98
  -7  -1   4  116.57   11.87
  -7   1   4  106.05   13.53
   7  -1  -4  116.98    8.09
   7   1  -4  133.24    9.90
  -6  -1   4  240.69   12.13
  -6   1   4  254.71   17.50
   6  -1  -4  212.25    6.41
   6   1  -4  227.20    7.84
  -5  -1   4   16.74    5.50
  -5   1   4   17.04   10.29
   5  -1  -4   12.36    2.24
   5   1  -4   16.96    2.77
  -4  -1   4 1691.03   35.10
  -4   1   4 1734.66   43.15
   4  -1  -4 1702.68   31.55
   4   1  -4 1746.53   31.96
  -3  -1   4  386.13    9.78
  -3   1   4  400.57   18.78
   3  -1  -4  406.33   10.07
   3   1  -4  417.24    4.28
  -2  -1   4  686.86   10.11
  -2   1   4  693.97   24.95
   2  -1  -4  671.12    7.31
  -1   1   4  437.95   18.25
   1   1  -4  468.92    3.46
   1  -1  -4  474.05    6.91
   0  -1   4    3.22    2.92
   0   1   4   26.48   10.33
   0  -1  -4    2.63    1.41
   0  -1   4    2.69    0.62
   1  -1   4   65.01    3.52
   1   1   4   65.58    6.14
  -1  -1  -4   51.44    2.97
   2  -1   4   43.26    3.35
   2   1   4   38.51    4.55
   2  -1   4   36.25    9.34
  -2  -1  -4   40.92    3.29
   3  -1   4 1553.55   29.41
   3   1   4 1570.59   30.96
   3  -1   4 1572.59   39.72
  -3  -1  -4 1575.48   30.91
   4  -1   4  750.92   43.98
   4   1   4  830.62   48.88
   4  -1   4  743.64   50.45
  -4  -1  -4  736.09   43.48
   5  -1   4   21.14    3.06
   5   1   4   17.96    2.52
   5  -1   4   45.72   13.34
  -5  -1  -4   25.44    3.50
  -5   1  -4   26.92    4.09
   6  -1   4  280.45   20.11
   6   1   4  258.88   18.53
   6  -1   4  280.96   27.40
  -6  -1  -4  244.25   17.90
  -6   1  -4  252.95   18.39
   7  -1   4   18.29    3.21
   7   1   4   23.28    3.77
   7  -1   4   32.41   11.42
  -7  -1  -4   14.58    3.18
  -7   1  -4   21.59    3.30
   8  -1   4    4.09    2.17
   8   1   4    8.26    2.81
   8  -1   4    0.91    8.01
   8   1   4   28.93   16.52
  -8  -1  -4    6.45    3.26
  -8   1  -4    5.39    1.75
   9  -1   4    3.10    2.25
   9   1   4    1.61    1.28
   9  -1   4   17.02   10.53
   9   1   4    0.58   14.32
  -9  -1  -4    3.99    2.52
  -9   1  -4    0.40    1.55
  10  -1   4   27.80    5.62
  10  -1   4   36.09   12.10
  10   1   4   20.24   20.65
 -10  -1  -4   30.22    7.40
 -10   1  -4   19.94    4.63
  11  -1   4    1.85    1.95
  11   1   4    2.78    1.34
  11  -1   4   12.10    8.83
  11   1   4   21.66   14.91
 -11  -1  -4    3.33    2.06
 -11   1  -4    2.13    1.08
  12  -1   4   32.77    9.47
  12  -1   4   47.72   13.79
  12   1   4   26.04   18.66
 -12  -1  -4   33.14   10.01
 -12   1  -4   24.57    8.51
  13  -1   4   18.35    6.82
  13  -1   4   13.96    7.96
  13   1   4   15.81   15.24
 -13  -1  -4   14.12    7.15
  14  -1   4    1.78    1.45
  14  -1   4   13.58    9.87
  14   1   4   20.09   12.92
 -14  -1  -4    5.10    1.76
 -16   2   4   14.80   15.80
  16  -2  -4   10.34    5.34
  16   2  -4    9.15    7.00
 -15   2   4    3.74   11.17
  15  -2  -4    1.23    2.82
  15   2  -4   14.38   10.67
 -14   2   4   29.25   17.80
  14  -2  -4   14.13    5.24
  14   2  -4   10.77    5.04
 -13   2   4    6.52   14.39
  13  -2  -4    0.92    2.94
  13   2  -4   10.91    5.57
 -12   2   4   27.25   13.35
  12  -2  -4   11.62    3.77
  12   2  -4   15.36    7.96
 -11   2   4   31.40   11.24
  11  -2  -4   12.05    3.34
  11   2  -4   15.62    7.42
 -10   2   4  458.14   39.35
  10  -2  -4  438.24   32.04
  10   2  -4  394.69   30.75
  -9  -2   4    5.46    2.88
  -9   2   4    3.60    9.66
   9  -2  -4   11.29    4.30
   9   2  -4   19.39    6.51
  -8  -2   4   56.31    4.71
  -8   2   4   43.05   12.86
   8  -2  -4   62.88    5.74
   8   2  -4   44.95    6.05
  -7  -2   4  368.78   26.00
  -7   2   4  381.97   33.87
   7  -2  -4  301.25   21.72
   7   2  -4  386.96   28.98
  -6  -2   4  135.43    8.92
  -6   2   4  119.61   15.10
   6  -2  -4  102.71    7.57
   6   2  -4  115.13    9.37
  -5  -2   4   69.02    5.56
  -5   2   4   71.34   13.58
   5  -2  -4   63.01    8.38
   5   2  -4   52.78    5.31
  -4  -2   4   90.79    3.60
   4  -2  -4   92.38    3.94
   4   2  -4  101.15    4.25
  -3  -2   4  466.35   10.23
  -3   2   4  493.61   22.57
   3  -2  -4  469.69   10.58
   3   2  -4  508.18   10.06
  -2  -2   4  126.78    4.22
  -2   2   4  146.25   15.79
   2   2  -4  118.27    2.30
   2  -2  -4  106.70    3.95
   2   2  -4  117.46    2.26
  -1  -2   4   35.91    2.56
  -1   2   4   30.38    9.81
   1  -2  -4   38.59    6.15
   1  -2  -4   45.53    4.23
   0  -2   4  167.94    5.10
   0   2   4  162.59   14.50
   0  -2  -4  145.14    4.76
   0  -2  -4  155.30    5.66
   1  -2   4  282.65    7.24
   1   2   4  270.28   14.25
  -1  -2  -4  279.41    7.41
   1  -2   4  263.16    5.33
  -1  -2  -4  275.25    7.86
   2  -2   4   57.87    3.11
   2   2   4   49.81    7.95
   2  -2   4   58.70    3.00
  -2  -2  -4   61.10    3.66
   3  -2   4  117.20    8.04
   3   2   4  115.34   10.06
   3  -2   4  115.65    8.44
  -3  -2  -4  111.07    7.91
   4  -2   4  868.66   60.07
   4   2   4  882.52   61.52
   4  -2   4  821.14   49.11
  -4  -2  -4  806.89   47.60
   5  -2   4  270.31   19.42
   5   2   4  348.32   25.09
   5  -2   4  232.53   17.96
  -5  -2  -4  275.07   20.09
   6  -2   4  108.64    7.32
   6   2   4  112.94    7.15
   6  -2   4  103.85    9.17
  -6  -2  -4  109.28    7.63
  -6   2  -4  115.01    7.45
   7  -2   4   37.04    3.75
   7   2   4   30.10    3.00
  -7  -2  -4   28.65    4.27
  -7   2  -4   37.77    3.57
   8  -2   4   47.91    6.22
   8   2   4   46.99    4.27
   8  -2   4   37.07    6.97
  -8  -2  -4   42.82   11.72
  -8   2  -4   48.02    4.60
   9  -2   4   17.32    2.94
   9   2   4   14.95    2.59
   9  -2   4   13.49    4.63
   9   2   4   36.85   19.26
  -9  -2  -4   15.77    4.65
  -9   2  -4   15.94    2.67
  10  -2   4   -0.17    2.23
  10  -2   4    3.13    4.24
  10   2   4   33.24   18.30
 -10  -2  -4    5.53    3.61
 -10   2  -4    2.09    0.90
  11  -2   4   25.50    6.18
  11  -2   4   31.05    7.92
  11   2   4   24.97   17.76
 -11  -2  -4   33.66    9.51
  12  -2   4    2.69    1.19
  12  -2   4    5.75    5.49
  12   2   4   -7.74   14.78
 -12  -2  -4    4.35    1.99
  13  -2   4    6.62    1.97
  13  -2   4    0.32    4.12
  13   2   4   20.79   16.29
 -13  -2  -4    8.17    2.80
 -15   3   4   20.35   13.46
  15  -3  -4    4.13    3.00
  15   3  -4   17.06    8.88
 -14   3   4   17.78   12.57
  14  -3  -4    2.32    2.85
  14   3  -4    8.73    6.04
 -13   3   4    3.60   13.43
  13  -3  -4    4.46    2.48
  13   3  -4    6.68    5.31
 -12   3   4  134.36   28.14
  12  -3  -4   92.94   13.71
  12   3  -4   90.06   18.52
 -11   3   4  130.40   25.73
  11  -3  -4  145.84   21.96
  11   3  -4  121.69   21.54
 -10   3   4   84.35   15.04
  10  -3  -4  106.83    9.41
  10   3  -4  108.20   12.86
  -9   3   4   37.40   14.87
   9  -3  -4   14.94    2.64
   9   3  -4   32.71    8.33
  -8   3   4   12.85   15.47
   8  -3  -4    6.90    3.52
   8   3  -4    8.15    5.95
  -7  -3   4  278.10   28.38
  -7   3   4  301.27   37.21
   7  -3  -4  300.22   31.48
   7   3  -4  333.77   36.40
  -6  -3   4  211.74   11.30
  -6   3   4  187.94   20.98
   6  -3  -4  193.38   11.48
  -5  -3   4  198.86   13.98
  -5   3   4  186.23   21.21
   5  -3  -4  181.39   13.42
   5   3  -4  212.08   17.85
   5  -3  -4  194.28   13.93
  -4  -3   4   38.62    3.22
  -4   3   4   41.57   13.34
   4  -3  -4   33.02    5.02
   4   3  -4   26.34    4.14
   4  -3  -4   42.49    4.01
  -3  -3   4    3.61    1.83
  -3   3   4   11.46    9.57
   3   3  -4    0.66    0.43
   3  -3  -4    0.89    1.24
   3   3  -4    2.99    2.75
   3  -3  -4    4.52    2.14
  -2  -3   4   28.61    2.79
  -2   3   4   45.54   15.41
   2  -3  -4   28.26    6.46
   2   3  -4   24.09    1.89
   2  -3  -4   27.55    2.89
  -1  -3   4  107.60    7.08
  -1   3   4   91.77   13.11
   1  -3  -4   96.97    8.97
   1  -3  -4  101.05    6.96
   0  -3   4  210.50   12.99
   0   3   4  213.48   20.19
   0  -3  -4  204.43   12.87
   0  -3  -4  205.28   12.94
   1  -3   4   76.45    5.55
   1   3   4   75.36   11.54
  -1  -3  -4   73.17    5.64
  -1  -3  -4   75.90    5.73
   2  -3   4   29.02    3.57
   2   3   4   25.74    8.58
   2  -3   4   26.32    3.47
  -2  -3  -4   25.19    3.41
   3  -3   4   29.02    3.33
   3   3   4   35.89    7.98
   3  -3   4   33.91    3.15
  -3  -3  -4   37.70    4.56
   4  -3   4   18.86    3.42
   4   3   4   13.68    5.99
   4  -3   4   14.51    2.05
  -4  -3  -4   16.41    3.17
   5  -3   4    5.34    2.39
   5   3   4   14.97    4.41
   5  -3   4    7.28    2.64
  -5  -3  -4   10.43    3.34
   6  -3   4   59.26    4.33
   6   3   4   37.76    3.34
   6  -3   4   53.69    4.61
  -6  -3  -4   44.95    7.97
  -6   3  -4   48.94    3.56
   7  -3   4   65.66   12.14
   7   3   4   61.28    5.36
   7  -3   4   47.38    5.84
  -7  -3  -4   49.69   11.61
  -7   3  -4   54.49    4.85
   8  -3   4    6.10    2.65
   8  -3   4    5.33    2.56
  -8  -3  -4    6.32    2.97
   9  -3   4    5.77    3.12
   9  -3   4   11.69    4.17
  -9  -3  -4   14.04    3.35
  10  -3   4    3.81    1.68
  10  -3   4    6.37    4.21
  10   3   4   23.82   21.27
 -10  -3  -4    5.13    3.51
  11  -3   4    4.68    2.61
  11  -3   4    6.52    4.22
  11   3   4  -14.26   19.94
 -11  -3  -4    1.22    1.26
  12  -3   4    2.58    1.27
  12  -3   4    7.84    3.57
  12   3   4   10.41   20.35
 -12  -3  -4    3.05    3.00
  13  -3   4    1.46    1.37
  13   3   4   13.17   20.55
 -14   4   4   31.17   16.98
  14  -4  -4   41.26   11.08
  14   4  -4   20.12   10.46
 -13   4   4   27.88   20.68
  13  -4  -4    5.29    2.79
  13   4  -4   19.44   13.13
 -12   4   4   29.03   18.63
  12  -4  -4    7.14    3.85
  12   4  -4    2.27    7.12
 -11   4   4  -15.52   11.68
  11  -4  -4    3.20    3.36
  11   4  -4   20.24    9.87
 -10   4   4   -5.53   12.67
  10  -4  -4    3.15    2.41
  10   4  -4    4.98    6.91
  -9   4   4    6.41   13.05
   9  -4  -4   13.07    4.34
   9   4  -4    4.43    7.14
  -8   4   4    4.66   13.74
   8  -4  -4    4.73    2.68
   8   4  -4   16.06    8.48
  -7   4   4   34.78   18.66
   7  -4  -4   26.16    6.12
   7   4  -4   27.84   10.07
  -6  -4   4   77.73    3.70
  -6   4   4   84.00   16.28
   6  -4  -4   85.50    5.39
   6   4  -4   74.46   10.35
  -5  -4   4   80.74    3.75
  -5   4   4   80.38   13.55
   5  -4  -4   73.58    5.04
   5   4  -4   91.04    9.67
   5  -4  -4   75.72    3.69
  -4  -4   4   20.80    6.10
  -4   4   4   22.51   11.95
   4  -4  -4   22.91    6.23
   4   4  -4   26.60    8.96
   4  -4  -4   20.66    2.62
  -3  -4   4  145.52   15.16
  -3   4   4  139.40   21.09
   3  -4  -4  165.54   17.57
   3   4  -4  126.35   14.97
   3  -4  -4  156.10   16.36
  -2  -4   4   81.40    8.81
  -2   4   4   89.90   15.82
   2  -4  -4   81.72   10.48
   2   4  -4   83.30    7.70
   2  -4  -4   81.39    5.36
  -1  -4   4   29.86    2.58
  -1   4   4   31.02   14.15
   1  -4  -4   35.95    5.30
   1  -4  -4   34.34    3.00
   0  -4   4  318.41   33.55
   0   4   4  379.53   45.66
   0  -4  -4  359.48   37.26
   0  -4  -4  323.34   33.46
   1  -4   4   40.12    5.49
   1   4   4   65.86   14.76
  -1  -4  -4   60.53   10.32
   1  -4   4   43.98    5.00
  -1  -4  -4   57.39    7.36
   2  -4   4    3.11    2.25
   2   4   4   27.02   10.57
   2  -4   4    3.75    1.28
  -2  -4  -4    7.85    2.64
   3  -4   4   12.64    2.64
   3   4   4   14.36    5.74
   3  -4   4    8.15    2.64
  -3  -4  -4   15.87    4.27
   4  -4   4    3.71    1.87
   4   4   4    2.74    4.84
   4  -4   4    2.26    0.95
  -4  -4  -4    6.60    1.95
   5  -4   4    2.00    2.45
   5   4   4    4.86    3.89
   5  -4   4    1.84    1.41
  -5  -4  -4    1.37    2.34
   6  -4   4    2.28    1.39
   6  -4   4   -0.17    1.04
  -6  -4  -4    1.19    1.90
   7  -4   4    6.83    2.47
   7  -4   4    6.38    2.19
  -7  -4  -4    5.62    2.47
   8  -4   4   32.90    9.22
   8  -4   4   34.04    5.78
  -8  -4  -4   34.17   11.75
   9  -4   4   45.73   13.56
   9  -4   4   47.37    9.81
  -9  -4  -4   50.49   14.67
  10  -4   4    7.38    2.18
  10  -4   4    0.77    1.72
 -10  -4  -4    7.58    2.75
  11  -4   4    6.29    3.44
  11  -4   4    2.28    1.73
  11   4   4   10.60   19.37
 -11  -4  -4    1.50    1.37
 -12   5   4   -0.61   14.29
  12  -5  -4    4.88    2.78
  12   5  -4    4.70    6.80
 -11   5   4   16.14   14.33
  11  -5  -4   11.02    5.63
  11   5  -4   20.87   11.02
 -10   5   4   47.93   15.91
  10  -5  -4   32.68   12.91
  10   5  -4    7.93    7.19
  -9   5   4    6.92   14.98
   9  -5  -4    3.82    2.57
   9   5  -4   27.88   11.57
  -8   5   4   22.75   14.96
   8  -5  -4   32.05    7.10
   8   5  -4   18.94    9.96
  -7   5   4    5.96   14.24
   7  -5  -4   21.27    4.60
   7   5  -4    5.85    6.06
  -6   5   4   40.31   15.68
   6  -5  -4   24.24    7.73
  -5   5   4   41.65   19.43
   5  -5  -4    2.73    2.87
  -4  -5   4    3.83    1.02
  -4   5   4   -0.42   13.17
   4  -5  -4    3.42    1.42
   4  -5  -4    4.27    1.75
  -3  -5   4    1.98    0.73
  -3   5   4    2.64   12.01
   3  -5  -4    4.31    1.95
   3  -5  -4    1.55    0.81
  -2  -5   4   47.19    4.82
  -2   5   4   74.38   17.91
   2  -5  -4   43.20   12.00
   2  -5  -4   46.77    7.24
  -1  -5   4   38.78    3.77
  -1   5   4   23.24   11.55
   1  -5  -4   30.16    6.80
   1  -5  -4   29.31    9.13
   0  -5   4   95.69    7.88
   0  -5  -4   94.68   12.06
   0  -5  -4   92.97    7.92
   1  -5   4   50.84    9.81
   1   5   4   57.24   14.15
  -1  -5  -4   67.77   16.02
  -1  -5  -4   56.13    5.45
   2  -5   4   34.91    7.97
  -2  -5  -4   31.84    8.63
   3  -5   4   28.39    6.74
   3   5   4   36.48   12.33
  -3  -5  -4   33.28    9.73
   4  -5   4    3.37    1.76
   4   5   4   10.76    6.91
  -4  -5  -4    2.10    1.72
   5  -5   4   26.08    5.97
  -5  -5  -4   27.49    7.39
   6  -5   4    4.80    2.54
  -6  -5  -4   10.65    2.91
   7  -5   4    6.86    1.86
  -7  -5  -4    9.97    2.71
   8  -5   4   16.86    6.22
   9  -5   4    4.83    2.17
  -9  -5  -4    4.82    2.39
  10  -5   4   11.85    5.04
 -10  -5  -4    9.07    2.72
 -10   6   4   19.59   17.09
  10  -6  -4    5.92    2.49
  -9   6   4   15.66   14.94
   9  -6  -4   17.62    6.75
  -8   6   4   13.75   15.26
   8  -6  -4    6.50    2.57
  -7   6   4   24.70   14.48
   7  -6  -4    0.00    1.85
  -6   6   4   14.87   20.60
   6  -6  -4    2.40    1.41
  -5   6   4   50.77   20.41
   5  -6  -4    4.36    2.98
  -4   6   4   29.58   13.70
   4  -6  -4   12.74    4.89
  -3  -6   4    1.74    0.74
  -3   6   4   28.62   15.84
   3  -6  -4    4.23    2.87
  -2   6   4   29.78   16.13
   2  -6  -4   18.59    7.13
  -1  -6   4    1.18    0.57
  -1   6   4   26.08   11.21
   1  -6  -4    2.46    2.27
   1  -6  -4    0.87    1.24
   0  -6   4    7.26    1.90
   0   6   4   23.95   12.83
   0  -6  -4    6.21    4.84
   0  -6  -4    3.71    1.93
   1  -6   4    4.22    1.90
   1   6   4   39.13   13.82
  -1  -6  -4    6.54    1.82
   2  -6   4    7.44    2.48
   2   6   4   17.48    9.67
  -2  -6  -4    7.97    3.13
   3  -6   4   34.99    9.51
  -3  -6  -4   31.95   10.34
   4  -6   4   -1.83    2.11
  -4  -6  -4    0.35    1.77
   5  -6   4    0.90    1.51
  -5  -6  -4    1.48    1.69
   6  -6   4    2.14    1.62
  -6  -6  -4    3.69    1.92
   7  -6   4   13.66   10.32
  -7  -6  -4   15.47    6.54
  -6   7   4   -5.09   13.76
   6  -7  -4    2.13    1.88
  -5   7   4   29.32   16.44
   5  -7  -4    5.01    3.07
  -4   7   4   22.78   14.52
   4  -7  -4    5.00    2.42
  -3   7   4   24.78   13.85
   3  -7  -4    9.04    5.22
  -2   7   4   27.77   17.48
   2  -7  -4   18.41   14.75
   1  -7  -4    4.99    2.25
   0  -7   4    1.76    0.97
   0   7   4    3.96    8.60
   0  -7  -4    2.08    2.30
   1  -7   4    0.87    1.28
  -1  -7  -4    0.84    0.88
   2  -7   4   18.62    8.25
  -2  -7  -4   18.26    6.78
   3  -7   4   13.71    9.04
  -3  -7  -4   14.04    9.37
  16   0  -5    5.83    4.75
  15   0  -5    5.31    3.51
 -14   0   5    2.03    6.84
  14   0  -5   -1.01    3.58
 -13   0   5   25.55   11.50
  13   0  -5   11.20    5.31
 -12   0   5   19.10   12.81
  12   0  -5    4.29    3.62
 -11   0   5   28.42   13.06
  11   0  -5   10.90    4.64
 -10   0   5   10.25    8.56
  10   0  -5    3.67    3.27
  -9   0   5    7.52   10.77
   9   0  -5    4.07    2.87
  -8   0   5   14.90   12.63
   8   0  -5    2.15    2.61
  -7   0   5   13.16    8.68
   7   0  -5    2.66    2.11
  -6   0   5    0.47    8.12
   6   0  -5    1.74    1.77
  -5   0   5    7.66    8.23
   5   0  -5   -0.02    1.68
  -4   0   5   11.22    7.41
   4   0  -5    0.59    1.86
  -3   0   5    5.98    7.11
   3   0  -5    0.65    1.18
  -2   0   5    7.34    6.44
   2   0  -5    0.38    0.77
  -1   0   5    8.87    5.93
   1   0  -5    1.49    0.92
   0   0   5    6.49    5.05
   0   0  -5    2.21    1.22
   1   0   5    0.13    3.74
   2   0   5    4.70    3.13
   3   0   5    2.31    2.51
   4   0   5    4.33    3.29
  -4   0  -5   -0.34    2.42
   5   0   5    3.77    2.00
  -5   0  -5    1.14    2.53
   6   0   5    2.13    2.15
   6   0   5   21.30   20.07
  -6   0  -5   -0.51    2.58
   7   0   5    2.25    2.16
   7   0   5   23.41   12.47
  -7   0  -5    3.18    2.37
   8   0   5   -0.55    2.10
   8   0   5   -1.05   12.60
  -8   0  -5    2.65    2.17
   9   0   5    0.02    1.93
   9   0   5  -11.82   12.63
  -9   0  -5    5.45    3.19
  10   0   5   -0.54    1.83
  10   0   5   24.08   13.99
 -10   0  -5    1.15    2.17
  11   0   5    2.06    1.48
  11   0   5   13.39   13.37
 -11   0  -5   -0.61    1.98
  12   0   5   -0.58    1.58
  12   0   5   34.30   13.41
 -12   0  -5    1.15    1.43
  13   0   5   -1.85    1.35
  13   0   5   12.46   10.61
 -13   0  -5    3.06    2.21
  16  -1  -5    3.49    3.18
  16   1  -5    6.85    5.87
 -15   1   5   13.86   10.41
  15  -1  -5    0.48    3.11
  15   1  -5    1.41    3.46
 -14   1   5    0.69    9.37
  14  -1  -5    8.92    5.74
  14   1  -5    2.68    3.72
 -13   1   5   20.22   11.89
  13  -1  -5   20.15    4.91
  13   1  -5   13.43    4.42
 -12  -1   5   80.25   12.53
 -12   1   5   94.37   18.36
  12  -1  -5   92.72   11.30
  12   1  -5   83.52   10.87
 -11  -1   5   10.29    9.94
 -11   1   5   20.12   12.91
  11  -1  -5    4.58    3.04
  11   1  -5   17.03    5.55
 -10  -1   5  193.99   16.11
 -10   1   5  191.45   21.35
  10  -1  -5  192.20   10.21
  10   1  -5  214.60   11.60
  -9  -1   5   14.98    7.25
  -9   1   5   13.13   11.60
   9  -1  -5   10.31    3.21
   9   1  -5   11.16    3.43
  -8  -1   5   51.89    9.29
  -8   1   5   68.51   14.14
   8  -1  -5   59.45    5.04
   8   1  -5   46.38    4.84
  -7  -1   5    3.77    5.66
  -7   1   5    2.13    9.77
   7  -1  -5    8.50    2.49
   7   1  -5    8.83    2.63
  -6  -1   5   64.75    8.60
  -6   1   5   61.56   12.31
   6  -1  -5   43.24    3.90
   6   1  -5   47.83    4.18
  -5  -1   5    5.99    5.64
  -5   1   5   16.96    9.49
   5  -1  -5    3.76    2.36
   5   1  -5    3.22    2.06
  -4  -1   5  740.98   19.40
  -4   1   5  683.63   27.95
   4  -1  -5  765.77   15.56
   4   1  -5  739.62   14.27
  -3  -1   5    4.78    3.61
  -3   1   5   24.11   10.22
   3  -1  -5    8.68    2.09
   3   1  -5    8.00    2.31
  -2  -1   5  107.10    5.21
  -2   1   5  124.41   16.18
   2   1  -5   96.95    3.71
   2  -1  -5  101.81    7.91
  -1  -1   5  343.89   10.26
  -1   1   5  344.50   16.64
   1   1  -5  328.41    6.79
   1  -1  -5  313.27    8.46
   0  -1   5   41.13    4.27
   0   1   5   43.16    7.70
   0  -1  -5   30.50    2.68
   1  -1   5   33.93    3.07
   1   1   5   46.96    7.10
  -1  -1  -5   31.53    2.75
   2  -1   5    1.47    2.13
   2   1   5   -1.11    3.73
  -2  -1  -5    4.18    3.09
   3  -1   5  168.63   10.91
   3   1   5  174.45   11.92
   3  -1   5  170.31   19.41
  -3  -1  -5  180.13   12.36
   4  -1   5   49.28    4.77
   4   1   5   53.90    6.12
   4  -1   5   44.16   10.57
  -4  -1  -5   45.74    4.96
   5  -1   5   78.99    5.67
   5   1   5   81.35    6.11
   5  -1   5   60.65   13.44
  -5  -1  -5   72.02    5.79
  -5   1  -5   71.97    5.53
   6  -1   5   18.66    3.50
   6   1   5   19.89    3.23
   6  -1   5   14.00    9.58
  -6  -1  -5   17.62    3.88
  -6   1  -5   16.47    3.33
   7  -1   5  155.55    8.49
   7   1   5  158.58    7.73
   7  -1   5  112.71   13.87
  -7  -1  -5  150.12    8.40
  -7   1  -5  157.08    8.24
   8  -1   5    4.76    2.33
   8   1   5    5.83    2.42
   8  -1   5    2.16    7.90
   8   1   5   10.91   13.77
  -8  -1  -5    7.43    3.55
  -8   1  -5    9.62    2.54
   9  -1   5    1.13    2.12
   9   1   5    5.24    2.47
   9  -1   5    4.87    7.83
   9   1   5   21.78   19.49
  -9  -1  -5    5.04    3.77
  -9   1  -5    5.41    2.90
  10   1   5    2.26    1.65
  10  -1   5    7.72    7.92
  10   1   5   18.80   15.69
 -10  -1  -5    2.34    1.64
 -10   1  -5   -0.58    1.69
  11  -1   5    2.39    1.34
  11   1   5    2.05    1.29
  11  -1   5   16.50   10.30
  11   1   5   20.41   16.24
 -11  -1  -5   -0.13    2.06
 -11   1  -5    2.51    1.69
  12  -1   5    1.78    1.70
  12  -1   5    7.51    8.09
  12   1   5    1.97   16.03
 -12  -1  -5    4.52    2.09
 -12   1  -5    0.41    1.01
  13  -1   5    3.79    2.75
  13  -1   5    4.67    7.00
  13   1   5   17.30   15.14
 -13  -1  -5   -0.10    2.22
 -16   2   5    0.90   10.97
  16  -2  -5    7.42    5.18
  16   2  -5    0.35    4.34
 -15   2   5   22.57   16.34
  15  -2  -5    5.26    3.03
  15   2  -5    4.64    3.97
 -14   2   5   19.80   17.19
  14  -2  -5    3.77    3.07
  14   2  -5    6.01    3.86
 -13   2   5    6.60   10.22
  13  -2  -5    6.57    4.16
  13   2  -5    5.25    4.35
 -12   2   5   25.55   13.43
  12  -2  -5   18.82    5.31
  12   2  -5   25.58    8.37
 -11   2   5   14.65   11.27
  11  -2  -5   19.74    4.79
  11   2  -5   17.98    6.06
 -10  -2   5   48.42    5.97
 -10   2   5   18.13   10.86
  10  -2  -5   41.90    5.20
  10   2  -5   42.30    6.70
  -9  -2   5  225.45   11.18
  -9   2   5  240.29   21.14
   9  -2  -5  236.30   11.66
   9   2  -5  231.10   12.59
  -8  -2   5   84.32   10.04
  -8   2   5  101.67   18.40
   8  -2  -5   65.94    7.98
   8   2  -5   85.35    9.98
  -7  -2   5   68.29    5.37
  -7   2   5   41.76   12.85
   7  -2  -5   60.14    5.02
   7   2  -5   61.53    5.92
  -6  -2   5  218.44   16.17
  -6   2   5  218.09   24.43
   6  -2  -5  203.03   15.00
  -5  -2   5   14.90    2.78
  -5   2   5   25.70   11.55
   5  -2  -5   14.99    4.29
   5   2  -5   25.10    2.52
  -4  -2   5   79.49    6.43
  -4   2   5   60.73   14.62
   4  -2  -5   73.06    5.35
   4   2  -5   70.64    4.66
  -3  -2   5  195.26   12.27
  -3   2   5  213.41   20.73
   3  -2  -5  181.25   11.38
   3   2  -5  193.85   11.46
  -2  -2   5  479.08   10.80
  -2   2   5  478.12   24.03
   2  -2  -5  464.05   10.48
  -1  -2   5  110.64    4.23
  -1   2   5  115.22   12.36
   1  -2  -5  109.18    4.81
   0  -2   5   11.31    1.85
   0   2   5   26.72    8.64
   0  -2  -5   16.98    3.41
   0  -2  -5   11.70    2.99
   1  -2   5   10.49    2.47
   1   2   5   13.83    7.34
  -1  -2  -5    9.95    3.85
   1  -2   5    5.47    1.12
   1  -2   5   11.15    1.79
  -1  -2  -5   11.47    3.11
   2  -2   5   79.06    6.36
   2   2   5   87.30    9.59
   2  -2   5   68.40    5.71
  -2  -2  -5   72.77    6.20
   3  -2   5  181.03   13.51
   3   2   5  170.53   14.05
   3  -2   5  179.44   14.19
  -3  -2  -5  182.42   14.01
   4  -2   5  238.47   13.82
   4   2   5  268.88   16.56
   4  -2   5  219.08   14.52
  -4  -2  -5  222.99   13.47
   5  -2   5   70.86    8.66
   5   2   5   73.15    9.22
   5  -2   5   59.67    8.87
  -5  -2  -5   64.49    8.72
   6  -2   5    0.96    2.91
   6   2   5    0.23    1.97
   6  -2   5    7.17    4.61
  -6  -2  -5    7.55    3.72
  -6   2  -5    5.26    2.12
   7  -2   5   12.75    3.62
   7   2   5    8.77    2.29
   7  -2   5   13.92    6.53
  -7  -2  -5    5.86    2.70
  -7   2  -5    7.12    2.12
   8  -2   5    1.20    2.47
   8   2   5    2.08    1.37
   8  -2   5    1.93    4.71
  -8  -2  -5   -1.18    2.76
  -8   2  -5    2.13    2.25
   9  -2   5    6.85    3.20
   9   2   5    7.92    2.32
   9  -2   5   12.43    7.25
   9   2   5   30.23   17.75
  -9  -2  -5   12.11    3.89
  -9   2  -5   26.17    4.62
  10  -2   5   18.32    4.27
  10  -2   5   20.91    6.29
  10   2   5   40.35   24.01
 -10  -2  -5   16.02    4.40
 -10   2  -5   15.57    2.96
  11  -2   5    2.15    1.55
  11  -2   5    3.62    5.07
  11   2   5   -6.36   17.41
 -11  -2  -5    3.05    2.53
  12  -2   5    7.61    4.55
  12   2   5    0.00   18.54
 -12  -2  -5    8.78    5.37
  13  -2   5    8.11    2.93
  13  -2   5    8.31    4.63
  13   2   5   63.05   28.92
 -13  -2  -5    5.51    2.42
 -15   3   5   14.63   17.54
  15  -3  -5    5.22    2.96
  15   3  -5    9.73    6.09
 -14   3   5    2.69   12.69
  14  -3  -5    4.47    2.68
  14   3  -5    1.08    4.66
 -13   3   5   26.30   15.14
  13  -3  -5    9.09    2.88
  13   3  -5    7.25    5.78
 -12   3   5   37.87   20.77
  12  -3  -5    7.30    3.87
  12   3  -5    5.48    4.66
 -11   3   5   16.44   16.22
  11  -3  -5   20.87    4.35
  11   3  -5    8.80    4.70
 -10   3   5   -3.56   11.03
  10  -3  -5    5.57    2.79
  10   3  -5    0.66    4.68
  -9   3   5  173.63   23.21
   9  -3  -5  165.10   16.76
   9   3  -5  180.80   15.79
  -8  -3   5   50.51    2.75
  -8   3   5   36.83   14.38
   8  -3  -5   42.33   13.48
   8   3  -5   58.66    7.10
  -7  -3   5   35.49    4.07
  -7   3   5   35.58   12.89
   7  -3  -5   35.80    9.16
   7   3  -5   35.26    5.73
  -6  -3   5  238.31   24.54
  -6   3   5  169.49   26.14
   6  -3  -5  230.56   24.29
   6   3  -5  252.51   26.61
  -5  -3   5    0.66    1.31
  -5   3   5   17.09   13.04
   5  -3  -5    3.74    2.57
   5   3  -5    3.45    2.14
  -4  -3   5   12.07    2.04
  -4   3   5   -0.20   10.98
   4  -3  -5   12.37    2.90
   4   3  -5   11.42    1.64
   4  -3  -5   12.42    2.67
  -3  -3   5   11.38    1.83
  -3   3   5   -1.39   10.37
   3  -3  -5    8.05    2.65
   3  -3  -5    7.35    2.18
  -2  -3   5   40.84    3.92
  -2   3   5   41.17   11.35
   2  -3  -5   49.55   11.18
   2  -3  -5   42.21    4.41
  -1  -3   5   -0.21    1.56
  -1   3   5   18.47   10.04
   1  -3  -5    0.94    1.64
   1  -3  -5   -1.21    1.99
   0  -3   5    0.48    1.77
   0   3   5   12.32    9.90
   0  -3  -5    2.00    2.55
   0  -3  -5    2.10    2.07
   1  -3   5  188.44   13.88
   1   3   5  167.82   18.27
  -1  -3  -5  168.91   16.95
  -1  -3  -5  181.86   13.85
   2  -3   5    4.74    3.31
   2   3   5   16.94    7.52
   2  -3   5    0.87    0.44
  -2  -3  -5    3.06    2.16
   3  -3   5   60.61    7.37
   3   3   5   69.12   12.56
   3  -3   5   53.04    5.78
  -3  -3  -5   57.34    7.33
   4  -3   5   18.82    3.78
   4   3   5   23.21    5.79
   4  -3   5   19.14    3.04
  -4  -3  -5   19.12    3.98
   5  -3   5   12.29    3.20
   5   3   5   15.02    3.89
   5  -3   5   15.50    3.19
  -5  -3  -5    9.09    2.62
   6  -3   5   62.47    6.34
   6   3   5   52.03    5.48
   6  -3   5   57.72    6.22
  -6  -3  -5   56.55    6.48
  -6   3  -5   46.50    5.00
   7  -3   5    2.78    2.32
   7   3   5    2.14    1.39
   7  -3   5    5.37    2.44
  -7  -3  -5    6.54    3.00
  -7   3  -5    5.73    2.24
   8  -3   5    1.09    1.13
   8  -3   5    4.99    4.09
  -8  -3  -5    1.69    1.34
   9  -3   5   18.33    5.60
   9  -3   5   17.84    4.48
  10  -3   5    5.91    2.08
  10  -3   5    2.49    2.72
  10   3   5   48.88   28.81
  11  -3   5    5.30    2.43
  11  -3   5    6.79    3.34
  11   3   5   -1.71   18.12
 -11  -3  -5    5.55    2.19
  12  -3   5    2.31    2.10
  12  -3   5    4.57    3.01
  12   3   5   27.49   22.98
 -12  -3  -5    5.07    3.07
 -14   4   5   27.38   21.92
  14  -4  -5   -3.13    2.65
  14   4  -5    6.54    4.87
 -13   4   5   19.98   17.99
  13  -4  -5    8.36    4.20
  13   4  -5   13.55    9.48
 -12   4   5   24.14   14.62
  12  -4  -5   15.24    6.39
  12   4  -5   10.94    5.23
 -11   4   5   57.55   17.49
  11  -4  -5   52.62    7.92
  11   4  -5   71.87   11.98
 -10   4   5   44.14   20.06
  10  -4  -5   27.13    8.31
  10   4  -5   23.87    7.17
  -9   4   5   66.14   23.07
   9  -4  -5    9.95    3.93
   9   4  -5    9.68    4.54
  -8   4   5  128.15   24.88
   8  -4  -5  142.84   17.09
   8   4  -5  146.55   17.73
  -7   4   5   83.82   21.83
   7  -4  -5   46.60   10.67
   7   4  -5   47.57    6.98
  -6   4   5  573.66   49.29
   6  -4  -5  583.80   44.61
   6   4  -5  552.39   39.79
   6  -4  -5  511.44   35.73
  -5  -4   5    8.34    1.51
  -5   4   5   19.23   14.01
   5  -4  -5    6.79    2.31
   5   4  -5    8.74    3.25
   5  -4  -5    4.67    1.43
  -4  -4   5   28.03    2.38
  -4   4   5   38.39   17.91
   4  -4  -5   32.43    9.75
   4   4  -5   24.45    2.53
   4  -4  -5   26.95    2.74
  -3  -4   5   79.00    4.63
  -3   4   5   79.56   16.30
   3  -4  -5   75.30    7.74
   3  -4  -5   76.27    4.57
  -2  -4   5   72.63    8.07
  -2   4   5   72.83   16.77
   2  -4  -5   69.48   10.90
   2  -4  -5   70.87    8.03
  -1  -4   5    8.29    2.43
  -1   4   5   21.73   14.61
   1  -4  -5    4.83    2.17
   1  -4  -5    1.99    1.93
   0  -4   5   69.24    4.57
   0   4   5   77.00   14.37
   0  -4  -5   69.57   10.28
   0  -4  -5   68.84    4.83
   1  -4   5  642.53   25.55
   1   4   5  671.97   53.04
  -1  -4  -5  675.23   47.66
  -1  -4  -5  682.12   48.09
   2  -4   5  126.64    6.88
   2   4   5  183.95   17.22
  -2  -4  -5  121.82    6.90
   3  -4   5   45.64    4.83
   3   4   5   61.87   10.97
  -3  -4  -5   39.31    5.06
   4  -4   5   -1.86    1.97
   4   4   5    7.65    6.46
  -4  -4  -5    4.43    3.19
   5  -4   5   26.09    6.32
   5   4   5   30.07    6.45
  -5  -4  -5   29.34    6.27
   6  -4   5   15.79    4.30
  -6  -4  -5   17.00    4.96
   7  -4   5    3.80    3.06
  -7  -4  -5    5.52    3.13
   8  -4   5   21.89    6.76
  -8  -4  -5   17.43    5.63
   9  -4   5    8.69    3.74
  -9  -4  -5    8.47    4.00
  10  -4   5    8.70    6.10
 -10  -4  -5    9.24    5.73
  11  -4   5    0.80    1.47
  11   4   5   28.81   25.47
 -11  -4  -5    1.22    1.16
 -12   5   5   32.76   18.18
  12  -5  -5   13.04    5.58
 -11   5   5   -0.29   13.91
  11  -5  -5    3.45    2.12
 -10   5   5   10.31   16.16
  10  -5  -5   16.67    6.91
  -9   5   5   29.48   17.69
   9  -5  -5   32.80   12.67
  -8   5   5   44.70   20.94
   8  -5  -5    8.75    2.67
  -7   5   5   41.01   16.38
   7  -5  -5   28.93    8.53
  -6   5   5   17.17   19.42
   6  -5  -5    3.73    3.06
  -5   5   5   19.57   15.61
   5  -5  -5   41.96    8.59
  -4  -5   5  104.25   11.18
  -4   5   5  143.76   26.56
   4  -5  -5  108.08   13.46
   4  -5  -5  121.48   13.03
  -3  -5   5   16.57    4.79
  -3   5   5   40.81   19.24
   3  -5  -5   21.41    4.90
   3  -5  -5   17.83    5.32
  -2  -5   5   23.34    6.39
  -2   5   5   49.05   18.24
   2  -5  -5   18.79    6.65
   2  -5  -5   23.91    5.84
  -1  -5   5  127.15   14.06
  -1   5   5   91.37   21.20
   1  -5  -5  131.53   15.35
   1  -5  -5  116.51   12.79
   0  -5   5   28.04    6.08
   0   5   5   14.34   10.42
   0  -5  -5   22.34    8.13
   0  -5  -5   24.69    6.55
   1  -5   5    4.69    2.06
   1   5   5   17.55   13.11
  -1  -5  -5    1.65    2.38
  -1  -5  -5    4.34    2.03
   2  -5   5    6.12    2.36
   2   5   5   12.65    9.54
  -2  -5  -5    4.28    3.36
   3  -5   5   12.43    4.62
   3   5   5    7.12    5.78
  -3  -5  -5    8.15    2.76
   4  -5   5    2.88    1.34
  -4  -5  -5    3.99    2.22
   5  -5   5    7.37    1.85
  -5  -5  -5    4.38    2.36
   6  -5   5    2.62    1.55
  -6  -5  -5    6.05    2.50
   7  -5   5   16.27    4.79
  -7  -5  -5   10.60    5.04
   8  -5   5    4.56    1.53
  -8  -5  -5    1.53    1.46
   9  -5   5   13.81    5.67
  -9  -5  -5    8.26    3.58
  -9   6   5   46.15   19.17
   9  -6  -5   34.01   15.52
  -8   6   5   13.53   15.81
   8  -6  -5   34.30   19.87
  -7   6   5   -1.32   12.22
   7  -6  -5    9.58    4.14
  -6   6   5   -1.22   13.14
   6  -6  -5    3.22    3.18
  -5   6   5   23.86   13.59
   5  -6  -5   -0.03    2.67
  -4   6   5   11.70   12.35
   4  -6  -5    5.18    3.13
  -3  -6   5    2.30    1.56
  -3   6   5   41.44   17.01
   3  -6  -5    9.39    3.98
  -2  -6   5    2.34    0.67
  -2   6   5    9.80   11.03
   2  -6  -5    2.84    1.81
  -1  -6   5    7.19    2.09
  -1   6   5   12.71    9.75
   1  -6  -5    5.05    3.67
   1  -6  -5    3.23    1.83
   0  -6   5    1.79    1.16
   0   6   5   12.17    9.70
   0  -6  -5    0.76    2.36
   0  -6  -5    5.28    2.11
   1  -6   5   21.41    8.53
   1   6   5   15.59    8.92
  -1  -6  -5   24.31    7.21
   2  -6   5    1.27    0.91
   2   6   5   14.09    7.90
  -2  -6  -5    4.72    2.43
   3  -6   5   36.15    9.50
  -3  -6  -5   34.08   10.30
   4  -6   5   38.68   13.26
  -4  -6  -5   36.11   14.36
   5  -6   5    5.40    1.52
  -5  -6  -5   14.40    8.05
   6  -6   5    1.63    3.13
  -6  -6  -5    1.96    1.41
  -5   7   5   17.40   15.05
   5  -7  -5   12.80    9.40
  -4   7   5   -2.54   12.40
   4  -7  -5    4.98    3.45
  -3   7   5   32.08   14.55
   3  -7  -5    4.71    4.31
  -2   7   5   20.14   12.30
   2  -7  -5   19.02   11.14
  -1   7   5   26.26   12.17
   1  -7  -5    4.27    2.56
   0  -7   5    5.02    1.74
   1  -7   5    2.87    1.14
  -1  -7  -5    2.46    2.03
   2  -7   5    0.49    0.92
  -2  -7  -5    1.62    1.32
  16   0  -6    6.43    3.42
  15   0  -6    1.72    3.20
 -14   0   6   44.52   15.56
  14   0  -6   36.77    8.98
 -13   0   6   18.80    8.74
  13   0  -6   34.80    6.92
 -12   0   6   23.55   17.14
  12   0  -6   10.85    4.56
 -11   0   6  421.16   37.33
  11   0  -6  446.76   46.93
 -10   0   6   16.41    9.80
  10   0  -6   42.25    4.69
  -9   0   6   16.46    9.33
   9   0  -6    4.79    2.68
  -8   0   6  212.52   22.60
   8   0  -6  165.90   10.07
  -7   0   6  184.91   20.58
   7   0  -6  147.94   11.13
  -6   0   6  414.49   31.40
   6   0  -6  353.43   21.23
  -5   0   6  206.17   20.26
   5   0  -6  199.66   14.86
  -4   0   6   85.99   10.79
   4   0  -6   98.48    6.97
  -3   0   6  558.52   19.05
   3   0  -6  560.50   11.68
  -2   0   6  679.59   20.27
   2   0  -6  732.51   14.56
  -1   0   6  368.38   13.23
   1   0  -6  351.11    9.02
   0   0   6  136.55    7.47
   0   0  -6  136.84    4.45
   1   0   6  634.35   38.38
   2   0   6   53.66    6.38
   3   0   6    3.94    2.60
   4   0   6   18.06    3.08
  -4   0  -6   13.42    3.87
   5   0   6  183.34   19.56
  -5   0  -6  214.07   23.21
   6   0   6   40.08    3.76
   6   0   6   55.40   20.54
  -6   0  -6   37.13    4.82
   7   0   6   89.38    7.69
   7   0   6   44.34   15.01
  -7   0  -6   90.96    8.84
   8   0   6  142.91   15.92
   8   0   6  134.41   30.97
  -8   0  -6  145.46   16.37
   9   0   6   16.06    3.46
   9   0   6   38.44   21.56
  -9   0  -6   22.28    4.39
  10   0   6    3.89    2.08
  10   0   6   27.87   14.81
 -10   0  -6    1.42    2.22
  11   0   6   -0.08    1.81
  11   0   6   -4.46   11.58
 -11   0  -6    3.14    2.17
  12   0   6    1.08    1.12
  12   0   6   21.27   16.81
 -12   0  -6    1.64    1.22
  16  -1  -6    2.13    3.22
  16   1  -6    1.00    3.58
 -15   1   6   28.22   18.25
  15  -1  -6   14.16    5.97
  15   1  -6   10.50    5.25
 -14   1   6   -1.06    9.57
  14  -1  -6    7.30    3.14
  14   1  -6    4.21    3.19
 -13   1   6    7.60    8.43
  13  -1  -6   13.07    4.71
  13   1  -6   16.32    5.28
 -12  -1   6   17.60    9.48
 -12   1   6   16.61   16.23
  12  -1  -6   13.67    4.37
  12   1  -6   11.70    3.80
 -11  -1   6  186.16   19.97
 -11   1   6  136.30   20.20
  11  -1  -6  142.21   12.17
  11   1  -6  140.54   12.25
 -10  -1   6   93.66   13.39
 -10   1   6   89.01   16.69
  10  -1  -6   74.85    7.74
  10   1  -6   68.09    6.71
  -9  -1   6    6.66    6.24
  -9   1   6   17.37   11.28
   9  -1  -6    3.14    2.42
   9   1  -6    6.81    3.40
  -8  -1   6  767.32   80.58
  -8   1   6  778.87   83.70
   8  -1  -6  713.15   38.09
   8   1  -6  770.12   78.82
  -7  -1   6  204.79   17.92
  -7   1   6  158.81   18.98
   7  -1  -6  196.23   14.72
   7   1  -6  179.00   13.24
  -6  -1   6  121.95   12.21
  -6   1   6   97.09   14.68
   6  -1  -6  130.92   13.55
   6   1  -6  130.59    9.93
  -5  -1   6  550.17   35.34
  -5   1   6  513.75   36.50
   5  -1  -6  549.15   32.49
   5   1  -6  532.57   31.27
  -4  -1   6  315.30   20.86
  -4   1   6  344.51   26.86
   4  -1  -6  334.45   20.07
   4   1  -6  349.51   20.59
  -3  -1   6  273.03   17.90
  -3   1   6  349.26   27.69
   3  -1  -6  302.21   18.22
   3   1  -6  311.23   18.29
  -2  -1   6   56.47    6.55
  -2   1   6   71.05   12.89
   2   1  -6   60.16    5.66
   2  -1  -6   57.58    6.08
  -1  -1   6  888.10   61.95
  -1   1   6  883.64   64.68
   1   1  -6  813.33   47.10
   1  -1  -6  833.72   48.67
   0  -1   6   10.96    3.62
   0   1   6   12.01    4.26
   0  -1  -6   12.32    2.80
   1  -1   6   67.72    5.98
   1   1   6   70.58    7.95
   2  -1   6    7.90    2.53
   2   1   6    8.04    4.86
   3  -1   6   51.24    4.84
   3   1   6   57.88    6.33
  -3  -1  -6   60.14    6.46
   4  -1   6   24.41    3.65
   4   1   6   30.35    4.18
   4  -1   6   16.97   11.51
  -4  -1  -6   24.86    4.40
   5  -1   6   20.17    3.92
   5   1   6    6.17    2.68
   5  -1   6   25.64   10.36
  -5  -1  -6   15.88    3.27
  -5   1  -6   14.59    4.15
   6  -1   6   10.82    3.89
   6   1   6    9.43    2.75
   6  -1   6   22.24   15.38
  -6  -1  -6    7.80    3.12
  -6   1  -6    9.94    2.75
   7  -1   6   51.89    5.98
   7   1   6   49.24    5.25
   7  -1   6   47.12   13.88
  -7  -1  -6   56.69    6.38
  -7   1  -6   50.89    6.01
   8  -1   6    3.96    3.64
   8   1   6    0.84    1.95
   8  -1   6    7.86    8.74
   8   1   6   -0.44   13.77
  -8  -1  -6    2.29    2.74
  -8   1  -6    1.20    2.10
   9  -1   6    2.42    2.69
   9   1   6   -0.90    1.62
   9  -1   6    6.00    9.20
   9   1   6   -0.13   16.62
  -9  -1  -6    0.91    2.52
  -9   1  -6    1.46    1.87
  10  -1   6   12.30    3.09
  10   1   6    6.84    2.05
  10  -1   6   16.48   12.16
  10   1   6   10.07   18.51
 -10  -1  -6   12.02    3.50
 -10   1  -6    9.12    2.88
  11  -1   6    7.61    1.65
  11   1   6    2.82    1.60
  11  -1   6    7.41    8.96
  11   1   6    6.51   17.56
 -11  -1  -6    6.43    2.95
 -11   1  -6    2.13    1.95
  12  -1   6    3.57    1.59
  12  -1   6    4.06    7.19
  12   1   6    6.89   15.33
 -12  -1  -6    7.81    3.39
 -12   1  -6    1.20    0.95
 -15   2   6   27.06   13.84
  15  -2  -6    7.62    3.78
  15   2  -6    5.38    4.07
  14  -2  -6   33.16    6.73
  14   2  -6   27.13    5.46
 -13   2   6  109.50   23.63
  13  -2  -6   71.74    9.65
  13   2  -6   55.22    8.49
 -12   2   6    5.47   12.66
  12  -2  -6    2.52    2.87
  12   2  -6   11.63    6.00
 -11   2   6   21.50   16.08
  11  -2  -6   11.27    4.54
  11   2  -6    9.23    5.04
 -10  -2   6   89.58    8.85
 -10   2   6   93.60   16.64
  10  -2  -6   83.66    8.15
  10   2  -6   83.12    8.65
  -9  -2   6  583.55   43.94
  -9   2   6  603.62   52.02
   9  -2  -6  551.57   39.35
   9   2  -6  583.02   43.54
  -8  -2   6  163.14   17.99
  -8   2   6  181.96   28.11
   8  -2  -6  159.95   17.84
   8   2  -6  185.97   20.10
  -7  -2   6   75.14    9.19
  -7   2   6   82.65   18.19
   7  -2  -6   72.65   16.63
   7   2  -6   79.09    8.91
  -6  -2   6  144.62   10.13
  -6   2   6  107.16   17.11
   6  -2  -6  135.93    8.42
   6   2  -6  145.46    8.67
  -5  -2   6  140.31   11.84
  -5   2   6  144.19   19.37
   5  -2  -6  118.11   10.30
   5   2  -6  125.57    9.12
  -4  -2   6   82.21    7.74
  -4   2   6   63.39   15.08
   4  -2  -6   70.77    6.59
   4   2  -6   70.18    7.38
  -3  -2   6    0.55    2.26
  -3   2   6   28.94   14.67
   3   2  -6    0.18    0.39
   3  -2  -6    3.26    1.73
  -3  -2   6    0.89    1.67
  -2  -2   6  278.34   17.35
  -2   2   6  240.20   24.27
   2  -2  -6  249.39   15.34
  -1  -2   6   37.37    4.13
  -1   2   6   42.60    9.65
   1  -2  -6   38.56    7.46
   0  -2   6   26.74    3.02
   0   2   6   34.41    8.68
   0  -2  -6   31.60    6.93
   0  -2   6   24.89    1.86
   0  -2  -6   38.75    5.06
   1  -2   6   67.73    6.29
   1   2   6   84.76   10.83
  -1  -2  -6   72.67    6.37
   1  -2   6   73.45    6.98
  -1  -2  -6   85.67    8.27
   2  -2   6   88.60    6.39
   2   2   6   81.28    8.93
   2  -2   6   91.38    7.90
  -2  -2  -6   83.50    7.04
   3  -2   6    8.97    4.47
   3   2   6    4.25    4.09
   3  -2   6    2.31    4.55
  -3  -2  -6    0.63    2.95
   4  -2   6   27.93    4.97
   4   2   6   40.05    7.38
   4  -2   6   28.65    5.97
  -4  -2  -6   26.51    5.32
   5  -2   6  336.84   15.39
   5   2   6  357.64   16.57
   5  -2   6  299.28   17.16
  -5  -2  -6  317.97   14.96
   6  -2   6   76.71    7.25
   6   2   6   51.01    5.06
   6  -2   6   60.64    9.55
  -6  -2  -6   63.96    6.95
  -6   2  -6   50.85    5.31
   7  -2   6    9.75    2.82
   7  -2   6   20.26    7.75
  -7  -2  -6   19.98    4.70
  -7   2  -6    9.22    3.24
   8  -2   6    4.18    3.28
   8   2   6    3.18    1.82
   8  -2   6   18.36    7.40
  -8  -2  -6    3.34    3.86
  -8   2  -6    5.94    2.94
   9  -2   6    0.19    2.44
   9   2   6    4.88    2.53
   9  -2   6   -0.13    4.62
  -9  -2  -6    5.69    3.76
  -9   2  -6    0.82    1.56
  10  -2   6    4.34    2.33
  10  -2   6    7.56    4.89
  10   2   6   -1.38   17.66
 -10  -2  -6    6.90    2.32
  11  -2   6    2.66    1.12
  11  -2   6    6.97    6.88
  11   2   6    5.85   19.33
 -11  -2  -6    2.75    1.38
  12  -2   6    2.84    1.12
  12  -2   6    8.00    7.87
  12   2   6    1.53   17.46
 -12  -2  -6    3.94    2.51
 -15   3   6   24.03   14.19
  15  -3  -6   17.37    6.06
  15   3  -6   29.01    9.73
 -14   3   6   25.09   22.28
  14  -3  -6    4.14    3.74
  14   3  -6    5.74    4.85
 -13   3   6   14.81   14.11
  13  -3  -6    2.30    2.69
  13   3  -6    2.17    3.89
 -12   3   6   65.89   23.22
  12  -3  -6   54.02    8.41
  12   3  -6   60.42    9.53
 -11   3   6   69.85   18.99
  11  -3  -6   55.51    9.10
  11   3  -6   51.20    8.46
 -10   3   6   27.33   13.87
  10  -3  -6    8.64    4.12
  10   3  -6    6.89    3.34
  -9   3   6   65.70   18.85
   9  -3  -6   72.33   20.01
   9   3  -6   75.83    9.53
  -8  -3   6   14.04    1.97
  -8   3   6   14.67   12.42
   8  -3  -6   18.62    6.26
   8   3  -6   17.34    3.99
  -7  -3   6    5.74    1.97
  -7   3   6   15.80   12.93
   7  -3  -6    7.96    9.59
   7   3  -6    5.99    2.45
  -6  -3   6   25.91    2.78
  -6   3   6  -10.43   15.54
   6  -3  -6   28.52    6.52
   6   3  -6   28.08    2.71
  -5   3   6  213.46   30.93
   5  -3  -6  223.78   23.77
   5   3  -6  215.89   22.16
  -4  -3   6   53.73    4.28
  -4   3   6   56.60   15.44
   4  -3  -6   58.25   13.01
   4   3  -6   44.70    2.94
  -3  -3   6   -0.79    1.63
  -3   3   6   -3.45   10.94
   3  -3  -6    1.79    1.72
   3  -3  -6    1.79    2.23
  -2  -3   6   16.74    2.98
  -2   3   6   29.54   14.49
   2  -3  -6   22.10    5.24
   2  -3  -6   14.49    3.44
  -1  -3   6   90.54    6.50
  -1   3   6  101.70   15.36
   1  -3  -6   95.03   13.09
   1  -3  -6  101.44    8.11
   0  -3   6   25.82    3.39
   0   3   6   33.55   12.07
   0  -3  -6   33.89    8.17
   0  -3  -6   29.93    4.51
   1  -3   6   90.63   10.24
   1   3   6  109.34   17.16
  -1  -3  -6   83.01   14.49
  -1  -3  -6   91.46   10.63
   2  -3   6  307.88   32.09
   2   3   6  290.05   32.82
  -2  -3  -6  301.60   31.65
   3  -3   6   43.84    4.32
   3   3   6   41.66    7.35
  -3  -3  -6   48.44    4.82
   4  -3   6   13.73    3.47
   4   3   6   17.42    4.94
   4  -3   6   15.60    2.54
  -4  -3  -6   14.52    3.68
   5  -3   6   28.65    4.45
   5   3   6   17.55    4.04
   5  -3   6   17.40    3.07
  -5  -3  -6   20.57    4.65
   6  -3   6   34.30    5.66
   6   3   6   35.29    5.65
   6  -3   6   23.77    3.98
  -6  -3  -6   34.95    5.32
   7  -3   6   39.54    6.05
   7   3   6   31.64    4.21
   7  -3   6   30.49    5.09
  -7  -3  -6   39.77    6.23
  -7   3  -6   38.50    5.10
   8  -3   6    3.16    1.39
   8  -3   6    3.62    2.43
  -8  -3  -6    6.58    3.12
   9  -3   6   15.01    6.73
   9  -3   6   24.60    7.17
  -9  -3  -6   10.63    6.06
  10  -3   6    8.53    3.14
  10   3   6   42.17   23.31
 -10  -3  -6    4.65    2.16
  11  -3   6    1.89    2.34
  11   3   6   46.99   24.25
 -11  -3  -6   -1.37    2.92
 -13   4   6   21.30   15.38
  13  -4  -6    2.27    1.33
  13   4  -6   -1.98    3.22
 -12   4   6   -6.28   14.93
  12  -4  -6    0.26    1.28
  12   4  -6    6.12    4.36
 -11   4   6   19.64   14.60
  11  -4  -6    3.04    1.04
  11   4  -6   -1.11    2.59
 -10   4   6   26.73   14.95
  10  -4  -6   15.42    3.81
  10   4  -6   12.41    3.87
  -9   4   6   11.77   14.66
   9  -4  -6   24.44    6.70
  -8   4   6    0.35   15.40
   8  -4  -6   -2.30    2.37
  -7   4   6   35.79   20.96
   7  -4  -6   16.48    6.33
  -6  -4   6    1.94    0.98
  -6   4   6   19.00   15.14
   6  -4  -6    2.63    1.18
   6  -4  -6   -0.41    1.23
  -5  -4   6  127.36    9.99
  -5   4   6  122.43   21.28
   5  -4  -6  119.61   10.03
   5  -4  -6  124.79   10.07
  -4  -4   6  111.63    8.65
  -4   4   6   79.09   17.13
   4  -4  -6   93.26   16.25
   4  -4  -6   83.27    6.96
  -3  -4   6  168.99   12.66
  -3   4   6  137.00   20.77
   3  -4  -6  146.66   11.50
   3  -4  -6  145.55   11.42
  -2  -4   6    6.53    2.85
  -2   4   6    3.72   11.97
   2  -4  -6    6.06    1.98
   2  -4  -6    4.60    2.15
  -1  -4   6   20.44    3.23
  -1   4   6   29.87   17.08
   1  -4  -6   23.75    6.34
   1  -4  -6   13.67    2.71
   0  -4   6   80.96    7.01
   0   4   6  110.65   18.82
   0  -4  -6   88.42    9.63
   0  -4  -6   78.80    7.06
   1  -4   6  117.27    9.32
   1   4   6  124.18   18.72
  -1  -4  -6  114.60   10.08
  -1  -4  -6  126.23   10.13
   2  -4   6   58.35    5.63
   2   4   6   63.70   11.46
  -2  -4  -6   46.75    5.18
   3  -4   6    6.30    3.02
   3   4   6   28.74    8.73
  -3  -4  -6   -0.41    2.12
   4  -4   6   -0.43    2.25
   4   4   6   13.09    8.07
  -4  -4  -6    2.27    2.40
   5  -4   6   12.98    3.20
   5   4   6   14.78    5.55
  -5  -4  -6   13.02    3.75
   6  -4   6    3.79    1.59
  -6  -4  -6    5.37    2.73
   7  -4   6    4.44    1.96
  -7  -4  -6    3.04    3.57
   8  -4   6    6.95    2.00
  -8  -4  -6    7.10    3.78
   9  -4   6    4.19    2.07
  -9  -4  -6    8.65    4.97
  10  -4   6    5.85    1.99
 -10  -4  -6    5.14    3.94
 -12   5   6   80.52   29.52
  12  -5  -6   18.94   12.02
 -11   5   6    7.40   14.54
  11  -5  -6    9.59    4.48
 -10   5   6   36.00   25.03
  10  -5  -6    7.51    3.34
  -9   5   6   18.67   16.92
   9  -5  -6    2.94    1.86
  -8   5   6   31.40   17.16
   8  -5  -6   10.67    3.49
  -7   5   6   10.91   14.27
   7  -5  -6   23.83    6.46
  -6   5   6   29.79   16.10
   6  -5  -6   43.80   13.36
  -5   5   6   15.30   15.52
   5  -5  -6   28.11    8.80
  -4  -5   6    7.30    2.02
  -4   5   6   22.63   15.39
   4  -5  -6    8.39    3.13
   4  -5  -6    2.03    1.38
  -3  -5   6   10.13    4.04
  -3   5   6   27.97   14.96
   3  -5  -6    6.61    3.29
   3  -5  -6    9.22    2.16
  -2  -5   6    2.41    1.28
  -2   5   6   22.33   17.71
   2  -5  -6    5.82    3.51
   2  -5  -6    6.77    2.33
  -1  -5   6    8.27    2.07
  -1   5   6    9.86   12.11
   1  -5  -6    8.81    4.01
   1  -5  -6    8.15    2.89
   0  -5   6    2.13    1.64
   0   5   6   13.08   11.06
   0  -5  -6    0.12    3.24
   0  -5  -6    2.55    2.83
   1  -5   6    5.69    2.21
   1   5   6   13.08    9.75
  -1  -5  -6   13.20    3.91
  -1  -5  -6    6.76    3.24
   2  -5   6    3.90    2.11
   2   5   6    6.95    8.10
  -2  -5  -6    3.45    2.39
   3  -5   6   45.73   11.41
   3   5   6   48.10   12.42
  -3  -5  -6   48.69   15.83
   4  -5   6    5.67    1.51
  -4  -5  -6    5.03    2.55
   5  -5   6   31.05    9.88
  -5  -5  -6   31.32   11.92
   6  -5   6    4.06    2.59
  -6  -5  -6    7.87    3.47
   7  -5   6    5.36    3.32
  -7  -5  -6    3.80    4.11
   8  -5   6    1.61    2.05
  -8  -5  -6    4.24    3.35
  -9   6   6   14.41   16.38
   9  -6  -6    1.71    2.21
  -8   6   6    3.32   14.61
   8  -6  -6   22.03    7.87
  -7   6   6    8.76   14.20
   7  -6  -6    6.78    2.82
  -6   6   6    6.16   13.03
   6  -6  -6    1.47    3.72
  -5   6   6    1.76   13.37
   5  -6  -6    6.32    4.39
  -4   6   6   -3.11   13.00
   4  -6  -6    2.53    2.44
  -3  -6   6    4.28    1.83
  -3   6   6   14.25   12.31
   3  -6  -6    2.16    2.16
  -2  -6   6    2.82    1.89
  -2   6   6    5.86   10.72
   2  -6  -6    3.72    2.57
   2  -6  -6    2.49    2.00
  -1  -6   6   -0.31    0.83
  -1   6   6   11.47   14.32
   1  -6  -6    0.82    3.16
   1  -6  -6    3.94    1.88
   0  -6   6    3.33    1.57
   0   6   6    9.65   10.33
   0  -6  -6    3.92    2.39
   0  -6  -6    3.10    1.51
   1  -6   6    2.66    1.15
  -1  -6  -6    3.75    1.70
   2  -6   6    3.36    2.00
  -2  -6  -6    4.32    2.35
   3  -6   6    3.79    2.09
  -3  -6  -6    1.58    1.29
   4  -6   6   25.41   12.65
  -4  -6  -6   23.42   12.36
   5  -6   6    7.19    3.64
  -5  -6  -6   -1.14    2.63
  -2   7   6   11.70   12.14
  16   0  -7    2.62    4.17
  15   0  -7    5.39    2.91
 -14   0   7   28.79   12.63
  14   0  -7    3.34    2.62
 -13   0   7   16.47    9.26
  13   0  -7    3.74    2.78
 -12   0   7    5.75    8.88
  12   0  -7   -0.88    2.71
 -11   0   7    4.67   10.70
  11   0  -7    3.40    2.73
 -10   0   7   16.69   13.23
  10   0  -7    4.27    2.89
  -9   0   7   37.91   13.82
   9   0  -7   -0.98    2.27
  -8   0   7   22.34   14.36
   8   0  -7    3.65    2.38
  -7   0   7   14.25    9.99
   7   0  -7   -1.26    1.91
  -6   0   7   17.49   12.20
   6   0  -7    2.25    1.05
  -5   0   7    7.44    7.48
   5   0  -7    0.98    1.35
  -4   0   7    7.62    7.07
   4   0  -7    1.17    1.03
  -3   0   7   11.16    6.23
   3   0  -7    1.25    1.55
  -2   0   7   -0.33    5.63
   2   0  -7    1.40    1.93
  -1   0   7    8.94    4.99
   1   0  -7    3.07    1.88
   0   0   7    0.05    4.20
   1   0   7    4.97    3.90
   2   0   7    3.60    3.58
   3   0   7   -5.68    3.28
   4   0   7   -1.61    3.05
  -4   0  -7    1.54    3.38
   5   0   7    1.53    2.87
  -5   0  -7    5.38    3.51
   6   0   7    3.52    2.48
   6   0   7    2.78   12.35
  -6   0  -7    9.98    4.61
   7   0   7    2.11    2.40
   7   0   7   27.82   19.03
  -7   0  -7    4.59    3.02
   8   0   7    2.97    2.29
   8   0   7   12.17   13.48
  -8   0  -7    6.04    3.01
   9   0   7    0.76    2.20
   9   0   7   -1.19   13.68
  -9   0  -7   -0.66    2.26
  10   0   7   -0.97    2.13
  10   0   7    7.55   13.23
 -10   0  -7    0.35    2.21
  11   0   7    2.73    2.47
  11   0   7   14.98   14.76
 -11   0  -7   -1.00    2.38
  16  -1  -7   19.96    6.75
  16   1  -7   30.32    8.94
 -15   1   7   16.35   13.30
  15  -1  -7   -1.55    2.67
 -14   1   7   26.92   14.63
  14  -1  -7    1.18    2.72
  14   1  -7    4.90    2.61
  13  -1  -7    4.97    3.95
  13   1  -7    1.30    2.56
 -12  -1   7   -3.84    5.60
 -12   1   7   12.17   10.55
  12  -1  -7    4.62    2.96
  12   1  -7    5.36    2.76
 -11  -1   7    5.15    5.93
 -11   1   7   12.87   11.35
  11  -1  -7    1.98    2.53
  11   1  -7    3.72    2.75
 -10  -1   7   78.13   12.22
 -10   1   7  100.54   19.29
  10  -1  -7   81.27    7.74
  10   1  -7   92.54    8.77
  -9  -1   7    3.87    7.40
   9  -1  -7    6.39    2.78
   9   1  -7    8.38    3.17
  -8  -1   7  303.02   34.84
  -8   1   7  251.30   31.85
   8  -1  -7  324.33   33.78
   8   1  -7  314.01   32.56
  -7  -1   7   47.64    9.11
  -7   1   7   56.91   14.54
   7  -1  -7   59.47   12.83
   7   1  -7   46.18    5.56
  -6  -1   7    8.43    6.14
  -6   1   7   10.54   12.13
   6  -1  -7    3.44    1.11
   6   1  -7    1.60    1.53
  -5  -1   7    6.81    5.48
  -5   1   7    8.50   11.13
   5  -1  -7    7.93    2.42
   5   1  -7    2.02    1.53
  -4  -1   7   30.00    5.54
  -4   1   7   58.64   14.35
   4  -1  -7   33.97    6.42
   4   1  -7   29.37    3.20
  -3  -1   7   36.01    6.12
  -3   1   7   20.12    9.18
   3   1  -7   32.40    3.22
   3  -1  -7   33.62    8.40
  -2  -1   7   68.69    8.01
  -2   1   7   79.50   11.99
   2   1  -7   58.89    5.13
   2  -1  -7   67.91    7.60
  -1  -1   7    1.40    3.43
  -1   1   7   11.29    8.94
   1  -1  -7   -0.34    1.79
   0  -1   7  168.18   13.49
   0   1   7  132.81   13.32
   0  -1  -7  170.38   14.11
   1  -1   7  107.26   10.70
   1   1   7   75.89    8.73
   2  -1   7    9.84    4.91
   2   1   7    2.35    3.83
   3  -1   7    1.64    2.99
   3   1   7    4.23    5.30
  -3  -1  -7    4.13    3.57
   4  -1   7   14.21    3.71
   4   1   7   15.99    4.95
   4  -1   7    4.38    9.23
  -4  -1  -7   14.04    3.42
   5  -1   7    4.48    2.72
   5   1   7    0.64    3.17
   5  -1   7   28.58   11.01
  -5  -1  -7    0.22    2.97
  -5   1  -7    3.24    2.99
   6  -1   7    2.52    2.74
   6   1   7    5.30    2.62
   6  -1   7    7.72    9.71
  -6  -1  -7    8.31    4.56
  -6   1  -7    2.98    2.99
   7  -1   7   -2.24    2.58
   7   1   7    3.98    3.54
   7  -1   7   -5.76   10.30
  -7  -1  -7   -3.77    2.84
  -7   1  -7    4.36    2.91
   8  -1   7   19.99    3.96
   8   1   7   23.55    4.43
   8  -1   7   22.18   13.46
   8   1   7   33.78   19.52
  -8  -1  -7   26.13    5.10
  -8   1  -7   16.91    4.55
   9  -1   7    8.69    3.24
   9   1   7    9.14    3.01
   9  -1   7   -4.58    9.95
   9   1   7   14.05   17.65
  -9   1  -7    9.26    2.94
  10  -1   7    2.07    1.99
  10   1   7    0.53    1.95
  10  -1   7   -2.24    9.12
  10   1   7   35.89   19.41
 -10  -1  -7    3.80    3.44
 -10   1  -7   11.75    3.41
  11  -1   7    4.83    3.21
  11   1   7   33.12   18.23
 -11  -1  -7    7.61    3.50
 -11   1  -7    2.86    2.72
 -15   2   7   17.41   12.89
  15  -2  -7    5.58    4.25
  15   2  -7    4.79    2.93
 -14   2   7    5.62   14.08
  14  -2  -7    1.94    2.74
  14   2  -7    3.27    4.23
 -13   2   7   30.95   13.06
  13  -2  -7   13.17    4.41
  13   2  -7    3.99    2.75
 -12   2   7   16.61   14.44
  12  -2  -7    3.06    2.81
  12   2  -7    1.13    2.36
 -11   2   7   16.05   13.21
  11  -2  -7    1.77    2.71
  11   2  -7   -0.54    2.45
 -10  -2   7   21.63    5.32
 -10   2   7   49.05   16.01
  10  -2  -7   26.99    5.16
  10   2  -7   24.77    4.44
  -9  -2   7    8.10    4.80
  -9   2   7   21.98   16.26
   9  -2  -7    8.29    3.26
   9   2  -7    6.61    1.99
  -8  -2   7   36.90    6.30
  -8   2   7   54.29   17.72
   8  -2  -7   33.26    8.89
   8   2  -7   31.48    3.39
  -7  -2   7  269.68   13.96
  -7   2   7  257.82   26.79
   7  -2  -7  251.26   15.87
   7   2  -7  275.28   11.74
  -6  -2   7   73.57    9.19
  -6   2   7   60.46   17.43
   6  -2  -7   70.52    8.42
   6   2  -7   80.38    8.73
  -5  -2   7   10.90    5.55
  -5   2   7   31.42   19.09
   5  -2  -7    3.91    1.52
   5   2  -7    7.09    1.80
  -4  -2   7  120.51   10.30
  -4   2   7   94.38   17.31
   4  -2  -7   81.67    8.97
   4   2  -7   83.75    5.14
  -3   2   7   11.52   11.30
   3   2  -7    4.64    1.21
   3  -2  -7   10.53    2.85
  -2  -2   7  245.57   14.70
  -2   2   7  268.55   26.99
   2  -2  -7  248.21   14.12
  -2  -2   7  231.38   12.59
  -1  -2   7   -0.27    2.59
  -1   2   7   11.72    8.16
   1  -2  -7    4.46    2.84
  -1  -2   7    2.97    0.56
   0  -2   7   -0.72    2.63
   0   2   7    8.57    7.03
   0  -2  -7    2.94    1.32
   0  -2   7    1.49    1.91
   1  -2   7    5.76    2.81
   1   2   7   14.01    6.39
  -1  -2  -7    4.62    2.27
   1  -2   7    8.48    3.72
  -1  -2  -7    4.90    3.34
   2  -2   7    0.88    2.89
   2   2   7    0.52    4.88
   2  -2   7   10.15    4.54
  -2  -2  -7    5.10    3.45
   3  -2   7   94.77    6.86
   3   2   7   78.80    8.69
   3  -2   7   90.40    9.51
  -3  -2  -7   93.78    8.45
   4  -2   7   91.69    8.32
   4   2   7   81.69    9.04
   4  -2   7   81.83   11.34
  -4  -2  -7   88.57    8.89
   5  -2   7  112.57    9.64
   5   2   7  165.62   14.31
   5  -2   7  143.99   15.10
  -5  -2  -7  133.97   12.06
   6  -2   7   32.14    5.40
   6   2   7   24.31    4.24
  -6  -2  -7   30.19    4.90
  -6   2  -7   26.14    4.53
   7  -2   7   22.92    4.54
   7   2   7   22.04    4.14
   7  -2   7   22.22    7.87
  -7  -2  -7   23.25    4.27
  -7   2  -7   21.59    4.15
   8  -2   7    1.80    2.44
   8   2   7    1.79    2.28
   8  -2   7   10.20    5.10
  -8  -2  -7   -1.56    2.53
  -8   2  -7    4.45    3.46
   9  -2   7    5.04    3.07
   9   2   7    1.75    2.12
   9  -2   7    8.59    4.67
  -9  -2  -7    7.96    3.68
  -9   2  -7    2.73    2.61
  10  -2   7    5.57    3.37
  10  -2   7    5.50    4.94
  10   2   7   46.36   24.33
 -10  -2  -7    5.33    2.72
  11  -2   7    2.59    2.53
  11  -2   7    9.89    7.97
  11   2   7   34.01   27.68
 -11  -2  -7    0.77    2.25
 -14   3   7   12.20   14.50
  14  -3  -7    0.19    3.01
  14   3  -7    1.68    2.71
 -13   3   7   41.66   19.11
  13  -3  -7    6.38    2.69
  13   3  -7    1.99    2.83
 -12   3   7   38.10   22.80
  12  -3  -7   23.43   10.40
  12   3  -7   28.79    7.34
 -11   3   7   14.16   13.43
  11  -3  -7   19.84    6.68
  11   3  -7   24.16    4.39
 -10   3   7   -2.03   12.58
  10  -3  -7    6.35    3.09
  10   3  -7    2.41    1.93
  -9   3   7   53.25   19.72
   9  -3  -7   57.04   18.78
   9   3  -7   38.78    6.78
  -8  -3   7   49.84    6.00
  -8   3   7   59.93   17.93
   8  -3  -7   58.70   14.34
   8   3  -7   53.47    6.32
  -7  -3   7   39.94    4.27
  -7   3   7   72.82   22.43
   7  -3  -7   57.28   12.09
   7   3  -7   36.14    3.62
  -6  -3   7   49.44    4.83
  -6   3   7   68.64   21.95
   6  -3  -7   47.63   11.92
   6   3  -7   43.08    3.59
  -5  -3   7   10.63    3.03
   5  -3  -7   14.16    5.03
  -4  -3   7   97.45    6.17
  -4   3   7   88.68   18.05
   4  -3  -7   89.56    5.76
  -3  -3   7   68.72    4.63
  -3   3   7   87.18   18.53
   3  -3  -7   69.93    6.81
  -2  -3   7   75.27    9.21
  -2   3   7   78.89   17.79
   2  -3  -7   70.25   10.51
   2  -3  -7   69.50    8.80
  -1  -3   7   22.04    3.59
  -1   3   7   11.50   10.56
   1  -3  -7   27.90    7.73
   1  -3  -7   29.01    4.54
   0  -3   7  233.89   10.96
   0   3   7  257.10   21.70
   0  -3  -7  237.96   11.55
   0  -3  -7  219.79   11.35
   1  -3   7   23.24    3.32
   1   3   7   31.38   11.52
  -1  -3  -7   16.06    3.47
  -1  -3  -7   19.77    3.96
   2  -3   7  157.53   12.25
   2   3   7  171.38   18.19
  -2  -3  -7  150.83   12.36
   3  -3   7  262.86   20.54
   3   3   7  237.34   21.42
  -3  -3  -7  249.87   19.86
   4  -3   7   17.24    4.53
   4   3   7   13.59    4.76
  -4  -3  -7   15.93    3.38
   5  -3   7   34.52    6.93
   5   3   7   47.09    8.91
  -5  -3  -7   55.70    9.98
   6  -3   7   22.09    5.36
   6   3   7   12.24    3.94
  -6  -3  -7   11.02    3.61
   7  -3   7    5.19    3.86
   7   3   7    1.19    1.77
  -7  -3  -7    2.70    3.00
  -7   3  -7    3.74    2.00
   8  -3   7    9.58    3.69
  -8  -3  -7    8.21    4.17
   9  -3   7   13.30    4.62
  -9  -3  -7   20.05    7.56
  10  -3   7    0.00    2.33
 -10  -3  -7   -0.23    2.91
 -13   4   7    9.11   16.61
  13  -4  -7    4.06    2.44
 -12   4   7   13.57   23.99
  12  -4  -7   -0.12    2.43
 -11   4   7   34.88   23.75
  11  -4  -7    9.20    6.47
 -10   4   7   11.97   13.92
  10  -4  -7    5.91    2.41
  -9   4   7   36.21   21.98
   9  -4  -7    2.70    1.78
  -8   4   7    2.54   17.30
   8  -4  -7    7.96    4.41
  -7   4   7   50.11   24.37
   7  -4  -7   49.54   16.55
  -6  -4   7    5.74    1.97
  -6   4   7   50.99   23.50
   6  -4  -7    6.76    3.02
   6  -4  -7    4.41    2.63
  -5  -4   7  323.26   46.58
  -5   4   7  275.04   38.68
   5  -4  -7  307.74   44.72
   5  -4  -7  305.55   44.21
  -4  -4   7  139.84   15.09
  -4   4   7  112.90   23.89
   4  -4  -7  123.32   13.96
   4  -4  -7  131.74   14.52
  -3  -4   7   35.79    4.65
  -3   4   7   29.33   15.66
   3  -4  -7   33.80    9.74
   3  -4  -7   32.90    4.25
  -2  -4   7   33.15    3.98
  -2   4   7    9.55   12.70
   2  -4  -7   26.94    7.43
   2  -4  -7   25.66    3.97
  -1  -4   7    7.53    2.65
  -1   4   7   18.96   12.44
   1  -4  -7    5.31    3.68
   1  -4  -7   14.10    2.80
   0  -4   7    5.07    3.38
   0   4   7   22.54   14.51
   0  -4  -7    4.52    2.11
   0  -4  -7    3.21    2.59
   1  -4   7    8.98    2.27
   1   4   7   -5.53    8.54
  -1  -4  -7    9.07    4.51
  -1  -4  -7    2.72    2.38
   2  -4   7   96.43   14.60
   2   4   7  148.01   26.34
  -2  -4  -7  128.74   19.54
   3  -4   7   53.01    8.65
   3   4   7   39.42    9.95
  -3  -4  -7   49.93    8.46
   4  -4   7   52.27    8.25
   4   4   7   37.32    8.18
  -4  -4  -7   55.39    9.01
   5  -4   7    2.40    2.36
   5   4   7    5.85    3.91
  -5  -4  -7    5.42    2.81
   6  -4   7   20.57    8.75
  -6  -4  -7   16.68    4.54
   7  -4   7    5.43    2.11
  -7  -4  -7    9.75    5.64
   8  -4   7    8.67    5.27
  -8  -4  -7    4.40    2.62
   9  -4   7    6.85    1.69
  -9  -4  -7    1.65    2.33
 -11   5   7   -2.76   14.82
  11  -5  -7    2.43    1.60
 -10   5   7    8.88   17.30
  10  -5  -7    3.16    2.47
  -9   5   7   11.52   16.18
   9  -5  -7    3.06    1.39
  -8   5   7    6.35   15.92
   8  -5  -7    5.84    2.68
  -7   5   7   20.17   16.28
   7  -5  -7   29.80    9.66
  -6   5   7   18.57   15.49
   6  -5  -7   25.76   12.17
  -5  -5   7    1.91    1.20
  -5   5   7   20.06   16.07
   5  -5  -7    2.12    2.44
  -4   5   7   57.08   21.73
   4  -5  -7   86.26   12.50
   4  -5  -7   88.04   12.51
  -3  -5   7    8.76    2.12
  -3   5   7   29.20   20.72
   3  -5  -7   11.55    3.65
   3  -5  -7    8.65    2.26
  -2  -5   7   12.78    2.27
  -2   5   7   45.23   18.25
   2  -5  -7   15.39    6.04
   2  -5  -7   17.96    3.74
  -1  -5   7   20.33    3.92
  -1   5   7   20.64   16.36
   1  -5  -7   27.27    9.04
   1  -5  -7   23.63    4.41
   0  -5   7    3.76    1.93
   0   5   7   13.59   11.04
   0  -5  -7    8.07    3.67
   0  -5  -7    4.05    2.23
   1  -5   7    4.74    2.27
   1   5   7    5.37    8.61
  -1  -5  -7    3.48    2.21
   2  -5   7   13.59    4.13
   2   5   7   22.14    7.99
  -2  -5  -7   16.77    4.43
   3  -5   7   34.16   13.20
  -3  -5  -7   75.71   14.81
   4  -5   7    9.50    4.05
  -4  -5  -7   14.29    4.00
   5  -5   7   35.60   15.95
  -5  -5  -7   27.45   15.67
   6  -5   7    6.06    2.32
  -6  -5  -7    6.62    2.55
   7  -5   7    7.43    3.14
  -7  -5  -7    8.90    4.20
  -8   6   7   32.34   25.24
   8  -6  -7    4.66    2.11
  -7   6   7   26.64   21.02
   7  -6  -7   17.10    6.32
  -6   6   7   17.32   16.30
   6  -6  -7    6.53    4.19
  -5   6   7   33.08   25.03
   5  -6  -7    5.60    2.43
  -4   6   7   17.27   13.84
   4  -6  -7    8.08    4.59
  -3  -6   7   10.83    4.37
  -3   6   7   17.50   13.68
   3  -6  -7   12.91    6.24
  -2  -6   7    5.84    2.94
  -2   6   7    5.79   11.00
   2  -6  -7    8.02    3.89
   2  -6  -7    7.44    2.68
  -1  -6   7   17.94    8.74
  -1   6   7   18.08   14.37
   1  -6  -7   19.04    6.89
   1  -6  -7   20.96    9.57
   0  -6   7    2.96    1.94
   0   6   7   -1.21    9.57
   0  -6  -7    3.57    3.04
   0  -6  -7    2.41    1.54
   1  -6   7   20.90   12.41
   1   6   7   29.19   18.15
  -1  -6  -7   20.39   12.61
   2  -6   7    5.46    2.95
  -2  -6  -7    8.68    2.41
   3  -6   7    3.07    2.69
  -3  -6  -7    2.71    1.90
   4  -6   7    4.53    2.62
  -4  -6  -7    2.00    2.13
  15   0  -8    8.90    4.24
 -14   0   8   28.90   15.66
  14   0  -8   32.32    9.69
 -13   0   8   23.29   11.92
  13   0  -8   58.58   12.17
 -12   0   8   40.84   15.34
  12   0  -8   20.51    4.47
 -11   0   8   23.70   14.32
  11   0  -8    2.90    2.43
 -10   0   8   -7.12    9.37
  10   0  -8    4.39    2.59
  -9   0   8   47.09   13.64
   9   0  -8   32.00    4.10
  -8   0   8   32.33   13.31
   8   0  -8    9.91    2.82
  -7   0   8  260.79   21.20
   7   0  -8  254.15   13.95
  -6   0   8  195.74   24.18
   6   0  -8  202.95   21.23
  -5   0   8  372.68   26.29
   5   0  -8  381.10   21.00
  -4   0   8   34.27   13.17
   4   0  -8    9.17    3.41
  -3   0   8  177.40   14.53
   3   0  -8  181.85   10.48
  -2   0   8  203.84   15.30
   2   0  -8  218.24   13.84
  -1   0   8    6.51    5.59
   1   0  -8    6.63    2.31
   0   0   8    7.72    5.05
   1   0   8  473.90   49.57
   2   0   8   32.68    7.15
   3   0   8    6.11    3.65
   4   0   8   23.90    4.73
   5   0   8    3.16    3.04
  -5   0  -8    5.62    3.79
   6   0   8    3.38    3.86
  -6   0  -8    3.95    3.63
   7   0   8    5.18    3.94
   7   0   8   -2.42   13.10
  -7   0  -8    4.23    3.09
   8   0   8   37.18    5.62
   8   0   8   32.66   21.14
  -8   0  -8   36.92    6.07
   9   0   8   46.95    6.63
   9   0   8   22.95   15.90
  -9   0  -8   51.03    7.92
  10   0   8    4.11    3.20
  10   0   8   39.70   24.30
 -10   0  -8    2.36    2.68
 -15   1   8    4.00   10.29
  15  -1  -8   11.53    4.09
  15   1  -8   15.49    5.55
 -14   1   8   77.16   28.45
  14  -1  -8   54.85   15.43
  14   1  -8   69.09   19.53
 -13   1   8    0.21   11.82
  13  -1  -8    2.09    2.49
  13   1  -8    4.78    3.08
 -12  -1   8   43.42   11.13
 -12   1   8   30.21   12.26
  12  -1  -8   47.27    8.34
  12   1  -8   58.15    9.10
 -11  -1   8  135.24   19.28
 -11   1   8  119.46   25.31
  11  -1  -8  118.24   12.92
  11   1  -8  126.83   13.73
 -10  -1   8   55.07   11.15
 -10   1   8   68.33   18.92
  10  -1  -8   42.98    6.19
  10   1  -8   53.88    7.79
  -9  -1   8  215.01   21.41
  -9   1   8  192.37   24.24
   9  -1  -8  172.07   14.10
   9   1  -8  189.58   14.98
  -8  -1   8    4.23    5.55
  -8   1   8    3.94   11.17
   8  -1  -8    3.13    1.83
   8   1  -8    4.30    2.38
  -7  -1   8  472.10   24.44
  -7   1   8  512.93   31.94
   7  -1  -8  558.63   23.00
   7   1  -8  559.84   23.21
  -6  -1   8  203.41   24.10
  -6   1   8  201.65   27.51
   6  -1  -8  226.04   23.73
   6   1  -8  219.59   23.02
  -5  -1   8   87.85   11.93
  -5   1   8  103.80   17.76
   5  -1  -8  102.64   13.06
   5   1  -8   96.53   12.75
  -4  -1   8   54.75    7.01
  -4   1   8   42.78   11.74
   4   1  -8   57.49    6.74
   4  -1  -8   58.79   11.05
  -3  -1   8   50.41    6.99
  -3   1   8   73.44   14.85
   3   1  -8   44.33    5.54
   3  -1  -8   49.32   11.06
  -2  -1   8    8.52    4.29
  -2   1   8    9.45    8.73
   2   1  -8    1.43    1.05
   2  -1  -8    0.99    1.38
  -1  -1   8   83.80    9.43
  -1   1   8   63.16   10.85
   1  -1  -8   71.21    7.52
   0  -1   8  190.83   21.04
   0   1   8  175.92   21.98
   0  -1  -8  177.87   18.87
   1  -1   8    7.19    5.68
   1   1   8    7.13    4.84
   2  -1   8   58.19    6.04
   2   1   8   69.97    8.42
   3  -1   8   63.07    6.65
   3   1   8   73.59   10.39
  -3  -1  -8   54.98    6.91
   4  -1   8   45.49    5.82
   4   1   8   51.41    6.85
   4  -1   8   49.62   15.30
  -4  -1  -8   67.72    8.93
   5  -1   8    6.21    3.08
   5   1   8    9.04    4.15
   5  -1   8   35.67   17.87
  -5  -1  -8   10.20    5.40
  -5   1  -8    4.66    3.49
   6  -1   8    2.72    2.72
   6   1   8    7.77    4.10
   6  -1   8    8.65   11.63
  -6  -1  -8    1.80    3.17
  -6   1  -8    3.25    3.27
   7  -1   8   14.00    3.62
   7   1   8   15.35    3.79
   7  -1   8   18.33   10.56
  -7  -1  -8   24.97    5.99
  -7   1  -8   30.71    7.01
   8  -1   8    7.04    3.47
   8   1   8    4.00    3.02
   8  -1   8    7.89   10.23
   8   1   8   23.90   16.49
  -8  -1  -8    4.85    3.01
  -8   1  -8    0.68    2.32
   9  -1   8   -0.01    2.16
   9   1   8    4.36    3.01
   9  -1   8    3.57    8.82
   9   1   8   13.60   16.13
  -9   1  -8    4.29    3.84
  10  -1   8    2.85    3.54
  10   1   8    1.90    1.83
  10  -1   8    3.68    7.86
  10   1   8   24.60   18.67
 -10  -1  -8    3.01    3.86
 -10   1  -8    3.45    2.98
 -15   2   8   24.87   17.81
  15  -2  -8    1.50    2.91
  15   2  -8    8.41    3.68
 -14   2   8   29.46   22.04
  14  -2  -8   32.75   16.63
  14   2  -8   34.71   17.72
 -13   2   8   80.00   25.25
  13  -2  -8   48.67    7.26
  13   2  -8   57.31    8.30
 -12   2   8   25.27   20.38
  12  -2  -8    6.02    2.99
  12   2  -8    5.52    2.15
 -11   2   8   14.61   14.50
  11  -2  -8   23.71    7.10
  11   2  -8   35.94    6.32
 -10  -2   8   41.00    8.27
 -10   2   8   52.03   21.08
  10  -2  -8   35.03   10.36
  10   2  -8   38.61    6.75
  -9  -2   8  233.96   25.85
  -9   2   8  285.35   38.21
   9  -2  -8  247.44   27.21
   9   2  -8  237.24   25.01
  -8  -2   8    4.96    3.17
  -8   2   8   24.06   17.36
   8  -2  -8    3.28    2.47
   8   2  -8   -0.09    1.32
  -7  -2   8  282.40   21.80
  -7   2   8  346.92   39.52
   7  -2  -8  267.79   19.93
   7   2  -8  276.66   19.67
  -6  -2   8   57.53    5.36
  -6   2   8   98.97   21.36
   6  -2  -8   67.81    5.50
   6   2  -8   65.55    4.58
  -5  -2   8   42.26    5.35
  -5   2   8   32.15   14.87
   5  -2  -8   48.37    9.58
   5   2  -8   30.48    4.39
  -4  -2   8    2.82    4.01
  -4   2   8   24.43   14.50
   4   2  -8   -0.06    0.45
   4  -2  -8    3.50    2.09
  -3  -2   8  188.41   20.56
  -3   2   8  178.67   26.64
   3   2  -8  145.82   15.05
   3  -2  -8  166.14   17.68
  -2  -2   8   49.00    6.98
  -2   2   8   21.98   10.66
   2  -2  -8   41.09   11.90
  -1  -2   8  142.14   15.98
  -1   2   8  138.65   19.68
   1  -2  -8  171.64   18.34
   0  -2   8    3.12    2.78
   0   2   8   10.93    7.76
   0  -2  -8   -0.08    2.68
   0  -2   8   12.20    4.87
   1  -2   8  117.47    7.23
   1   2   8  128.23   12.96
   1  -2   8   89.31    9.51
  -1  -2  -8  110.22    8.01
   2  -2   8   32.67    4.08
   2   2   8   33.39    7.95
   2  -2   8   28.76    6.32
  -2  -2  -8   34.25    5.55
   3  -2   8   76.70    7.79
   3   2   8   72.34    8.62
   3  -2   8   85.38   10.33
  -3  -2  -8  109.48   11.68
   4  -2   8   31.47    5.50
   4   2   8   40.10    7.48
   4  -2   8   19.46    6.63
  -4  -2  -8   43.46    7.88
   5  -2   8    4.85    3.17
   5   2   8   20.04    6.05
   5  -2   8    8.75    5.50
  -5  -2  -8   16.10    5.46
   6  -2   8   20.41    5.03
   6   2   8   25.48    5.86
   6  -2   8   13.93    5.02
  -6  -2  -8   27.57    7.02
  -6   2  -8   20.48    4.80
   7  -2   8   17.72    4.83
   7   2   8   11.47    3.15
   7  -2   8    9.31    6.82
  -7  -2  -8   21.92    5.31
  -7   2  -8   19.00    4.90
   8  -2   8    7.72    3.70
   8   2   8    7.20    2.61
  -8  -2  -8    7.70    3.52
  -8   2  -8    5.17    3.36
   9  -2   8    2.79    2.49
   9   2   8   -0.16    1.60
  -9  -2  -8    2.55    3.93
  -9   2  -8    2.48    1.92
  10  -2   8    1.85    2.53
  10   2   8   22.72   20.51
 -10  -2  -8    1.68    2.84
 -14   3   8   18.47   14.27
  14  -3  -8    4.57    1.64
 -13   3   8   46.12   29.93
  13  -3  -8    3.61    1.97
 -12   3   8    6.06   14.53
  12  -3  -8   12.60    4.24
 -11   3   8   47.44   17.04
  11  -3  -8   32.75   10.99
 -10   3   8   -3.61   13.19
  10  -3  -8    3.82    2.80
  -9   3   8   13.80   13.39
   9  -3  -8    6.11    1.99
  -8  -3   8    3.13    1.87
  -8   3   8   44.39   16.25
   8  -3  -8   12.05    4.55
  -7  -3   8   73.45    8.68
  -7   3   8   72.91   22.89
   7  -3  -8   77.63   16.52
  -6  -3   8    2.33    1.86
  -6   3   8    8.13   15.38
   6  -3  -8    4.20    4.14
  -5  -3   8    2.93    2.37
  -5   3   8    9.14   13.86
   5  -3  -8   -1.03    2.45
  -4  -3   8  119.57    9.64
  -4   3   8  115.87   24.30
   4  -3  -8  112.62   10.95
  -3  -3   8   54.04    5.63
  -3   3   8   70.21   20.46
   3  -3  -8   41.61    5.37
  -2  -3   8   49.31    5.34
  -2   3   8   46.00   17.82
   2  -3  -8   56.32    9.47
   2  -3  -8   46.69    5.85
  -1  -3   8   12.28    3.64
  -1   3   8   20.66   15.27
   1  -3  -8   13.08    4.83
   1  -3  -8   17.36    3.87
   0  -3   8   24.36    3.76
   0   3   8   22.93   12.46
   0  -3  -8   19.47    4.67
   0  -3  -8   26.28    4.51
   1  -3   8    1.68    2.49
   1   3   8    4.51    7.17
  -1  -3  -8    3.87    2.92
   2  -3   8    1.01    2.59
   2   3   8   13.77    6.53
  -2  -3  -8   -1.19    2.89
   3  -3   8  154.30   23.05
   3   3   8  132.27   21.78
  -3  -3  -8  160.59   24.13
   4  -3   8   36.76    5.20
   4   3   8   30.70    7.24
  -4  -3  -8   46.41    6.80
   5  -3   8    6.23    4.32
   5   3   8   10.85    3.21
  -5  -3  -8   13.07    4.38
   6  -3   8   52.23   10.82
   6   3   8   58.10   11.79
  -6  -3  -8   68.39   14.14
   7  -3   8   51.91    7.79
   7   3   8   43.37    6.23
  -7  -3  -8   48.64    7.73
  -7   3  -8   56.65    8.30
   8  -3   8    0.72    2.39
  -8  -3  -8    2.11    2.86
   9  -3   8    2.90    2.69
  -9  -3  -8    5.15    3.08
 -12   4   8   17.65   16.35
  12  -4  -8   13.50    6.60
 -11   4   8   15.92   16.15
  11  -4  -8    7.30    2.44
 -10   4   8   51.19   17.20
  10  -4  -8   10.69    3.90
  -9   4   8   72.98   25.48
   9  -4  -8   42.71   11.68
  -8   4   8    9.72   17.49
   8  -4  -8    7.04    3.56
  -7  -4   8    3.27    1.86
  -7   4   8   12.97   15.94
   7  -4  -8    4.15    2.65
   7  -4  -8    3.87    1.99
  -6  -4   8    9.41    2.26
  -6   4   8   13.96   16.92
   6  -4  -8    9.79    4.54
   6  -4  -8    6.66    3.28
  -5  -4   8    7.38    2.46
  -5   4   8   13.63   14.90
   5  -4  -8   10.40    4.41
   5  -4  -8   10.32    3.77
  -4  -4   8    7.45    2.58
  -4   4   8   15.50   15.50
   4  -4  -8   10.56    3.87
   4  -4  -8   13.34    4.20
  -3  -4   8   51.45    8.63
  -3   4   8   23.30   16.04
   3  -4  -8   40.66   15.59
   3  -4  -8   51.33    9.24
  -2  -4   8    3.93    3.19
  -2   4   8   48.80   24.83
   2  -4  -8    2.63    1.71
   2  -4  -8    0.00    2.38
  -1  -4   8    5.63    2.79
  -1   4   8   15.26   11.90
   1  -4  -8    6.10    3.77
   1  -4  -8    4.90    2.94
   0  -4   8    6.08    3.89
   0   4   8   12.74   10.16
   0  -4  -8    6.47    3.71
   0  -4  -8    2.86    3.08
   1   4   8   12.02    8.85
   2  -4   8    2.40    2.53
   2   4   8    8.31    6.71
  -2  -4  -8    2.09    2.79
   3  -4   8   14.96    3.72
   3   4   8    3.79    4.81
  -3  -4  -8    6.03    3.02
   4  -4   8    8.28    3.20
   4   4   8    3.05    3.40
  -4  -4  -8   14.69    4.88
   5  -4   8    9.89    2.64
   5   4   8   13.40    4.53
  -5  -4  -8   10.20    4.36
   6  -4   8    8.53    3.73
  -6  -4  -8    5.32    3.06
   7  -4   8   -0.68    3.00
  -7  -4  -8    2.80    3.31
 -10   5   8   -1.65   17.73
  -9   5   8   17.00   18.75
   9  -5  -8    1.75    2.07
  -8   5   8   27.99   17.66
   8  -5  -8    9.07    6.70
  -7   5   8   17.82   14.31
   7  -5  -8    2.95    1.67
  -6   5   8   43.65   23.57
   6  -5  -8    6.72    2.74
  -5  -5   8   57.32   11.01
  -5   5   8   25.06   17.12
   5  -5  -8   44.06   17.47
  -4  -5   8   32.46    6.67
  -4   5   8   61.84   23.83
   4  -5  -8   27.47   11.92
   4  -5  -8   31.36    6.97
  -3  -5   8   46.87    9.26
  -3   5   8   67.97   24.65
   3  -5  -8   58.24   15.04
   3  -5  -8   44.17    9.08
  -2  -5   8    8.80    2.91
  -2   5   8   20.15   14.44
   2  -5  -8    3.06    2.29
   2  -5  -8    4.15    3.27
  -1  -5   8   30.29    6.69
  -1   5   8   11.40   10.63
   1  -5  -8   25.36   13.62
   1  -5  -8   33.51    7.49
   0  -5   8    0.60    1.76
   0   5   8   11.03    9.48
   0  -5  -8    1.83    2.67
   0  -5  -8    2.74    2.46
   1  -5   8    1.97    2.19
   1   5   8   16.51   14.19
  -1  -5  -8    5.77    3.17
   2  -5   8   11.61    3.70
   2   5   8   15.82   10.02
  -2  -5  -8   11.13    3.52
   3  -5   8    2.95    2.59
   3   5   8    8.16    7.17
  -3  -5  -8    6.10    3.82
   4  -5   8   -0.13    2.46
  -4  -5  -8    3.38    2.81
   5  -5   8    4.18    2.22
  -5  -5  -8    6.95    4.27
  -6   6   8   10.06   22.03
   6  -6  -8    5.49    1.85
  -5   6   8   21.92   21.78
   5  -6  -8    4.12    2.81
  -4   6   8   14.47   15.07
   4  -6  -8    6.86    2.70
  -3  -6   8    3.93    1.88
  -3   6   8   42.37   21.56
   3  -6  -8   10.79    3.98
  -2  -6   8   16.68    7.63
  -2   6   8    4.46   12.67
   2  -6  -8   23.64   12.27
  -1  -6   8   11.38    5.33
  -1   6   8   14.34   11.67
   1  -6  -8    8.90    3.89
   1  -6  -8    6.62    2.75
   0  -6   8    3.89    2.03
   0   6   8   26.10   14.82
   0  -6  -8    6.23    3.25
   0  -6  -8    5.70    2.51
   1  -6   8    4.46    2.79
   1   6   8   -0.04    8.02
  -1  -6  -8    1.11    1.92
   2  -6   8    4.08    1.68
  -2  -6  -8    4.31    1.83
  15   0  -9    2.57    2.55
 -14   0   9   21.42   16.83
  14   0  -9    2.17    2.73
 -13   0   9   14.25   15.17
  13   0  -9    1.40    2.16
 -12   0   9   10.09   13.60
  12   0  -9    3.57    2.24
 -11   0   9   30.40   15.75
  11   0  -9    4.93    3.23
 -10   0   9   22.17   13.24
  10   0  -9    2.45    2.35
  -9   0   9   18.81   13.86
   9   0  -9    1.99    1.69
  -8   0   9   16.12    8.98
   8   0  -9    1.48    1.28
  -7   0   9    8.26    7.77
   7   0  -9    0.60    0.88
  -6   0   9    9.54    7.83
   6   0  -9    1.71    1.41
  -5   0   9   -0.62    7.00
   5   0  -9    0.87    1.19
  -4   0   9    8.35    6.44
   4   0  -9    1.38    1.07
  -3   0   9    4.17    5.55
   3   0  -9    1.76    0.90
  -2   0   9    6.04    5.45
   2   0  -9    1.29    1.11
  -1   0   9   14.22    8.03
   1   0  -9    2.27    1.54
   0   0   9    5.13    5.13
   1   0   9    5.26    4.85
   2   0   9    3.09    5.48
   3   0   9    4.84    3.58
   4   0   9    7.75    4.44
  -4   0  -9    4.64    3.69
   5   0   9    3.16    2.72
  -5   0  -9    1.23    3.66
   6   0   9    3.42    2.60
   6   0   9   34.11   20.29
  -6   0  -9    1.40    3.19
   7   0   9    1.35    2.30
   7   0   9   37.35   23.08
  -7   0  -9    9.00    4.29
   8   0   9    1.35    2.20
   8   0   9   27.31   21.04
  -8   0  -9    0.51    2.56
   9   0   9    4.63    2.70
   9   0   9    8.00   14.15
  -9   0  -9    3.70    2.92
 -15   1   9   36.75   18.94
  15  -1  -9   26.96    8.19
  15   1  -9   31.57    8.79
 -14   1   9    3.95   12.82
  14  -1  -9    7.81    2.65
  14   1  -9    7.19    3.18
 -13   1   9    5.08   12.13
  13  -1  -9    2.81    3.58
  13   1  -9    0.98    2.46
 -12  -1   9    8.76    6.50
 -12   1   9    3.72   12.60
  12  -1  -9   -0.27    2.42
  12   1  -9    0.48    1.94
 -11  -1   9    3.37    6.01
 -11   1   9   16.45   13.44
  11  -1  -9    4.71    1.91
  11   1  -9    9.18    2.75
 -10  -1   9   15.42    7.82
 -10   1   9   57.59   21.52
  10  -1  -9   31.53   10.43
  10   1  -9   31.34    4.59
  -9  -1   9   12.84    7.00
  -9   1   9   19.34   12.99
   9  -1  -9    6.89    2.90
   9   1  -9    3.68    1.94
  -8  -1   9   18.42    8.43
  -8   1   9   28.62   18.93
   8  -1  -9   18.98    5.64
   8   1  -9   17.66    4.56
  -7  -1   9    4.63    5.18
  -7   1   9   11.59   10.76
   7  -1  -9    3.32    2.00
   7   1  -9    2.96    1.97
  -6  -1   9  355.84   28.29
  -6   1   9  341.97   30.89
   6  -1  -9  394.84   28.57
   6   1  -9  404.63   28.53
  -5  -1   9    5.16    4.49
  -5   1   9   21.77   13.34
   5   1  -9   14.81    4.97
   5  -1  -9   12.73    6.52
  -4  -1   9   42.13    6.04
  -4   1   9   50.57   11.65
   4   1  -9   41.88    6.34
   4  -1  -9   37.32   10.83
  -3  -1   9   23.48    5.95
  -3   1   9   11.63    9.85
   3   1  -9   11.67    3.44
   3  -1  -9    8.95    3.66
  -2  -1   9   11.49    5.96
  -2   1   9   16.64   10.77
   2   1  -9    5.97    1.49
   2  -1  -9    7.10    3.10
  -1  -1   9    3.06    4.15
  -1   1   9    8.30    8.95
   1  -1  -9    2.31    2.33
   0  -1   9    6.02    4.03
   0   1   9    5.47    5.63
   1  -1   9   10.93    5.68
   1   1   9    8.94    6.76
   2  -1   9    8.31    3.67
   2   1   9   11.96    4.74
   3  -1   9   27.93    5.38
   3   1   9   19.56    5.72
  -3  -1  -9   23.67    6.23
   4  -1   9    9.35    4.57
   4   1   9   27.26    6.44
   4  -1   9   42.45   15.41
  -4  -1  -9   27.64    7.22
   5  -1   9    6.99    4.43
   5   1   9   10.39    4.66
   5  -1   9   19.86   13.97
  -5  -1  -9   16.95    5.66
  -5   1  -9    9.04    5.32
   6  -1   9   36.89    5.97
   6   1   9   25.46    4.56
   6  -1   9   32.37   16.08
  -6  -1  -9   39.16    7.10
  -6   1  -9   49.17    7.75
   7  -1   9    6.42    3.33
   7   1   9    6.01    3.02
   7  -1   9   18.40   10.00
  -7  -1  -9   -1.13    3.18
  -7   1  -9    0.22    2.73
   8  -1   9    3.42    2.35
   8   1   9    0.00    2.30
   8  -1   9    0.05    9.21
  -8  -1  -9    4.46    2.97
  -8   1  -9    1.02    2.90
   9  -1   9    6.52    2.87
   9   1   9   12.00    4.13
   9  -1   9   29.82   14.69
   9   1   9   -5.76   14.52
  -9  -1  -9    3.89    3.04
 -14   2   9    9.81   12.87
  14  -2  -9    4.69    2.49
  14   2  -9    4.76    2.18
 -13   2   9   39.29   29.02
  13  -2  -9   14.88   10.96
  13   2  -9   34.10   17.26
 -12   2   9   34.19   18.33
  12  -2  -9   17.38    5.30
  12   2  -9   24.33    4.44
 -11   2   9   48.37   22.17
  11  -2  -9    4.55    2.15
  11   2  -9    7.53    2.32
 -10  -2   9   11.56    4.33
 -10   2   9    4.26   12.94
  10  -2  -9    3.55    2.65
  10   2  -9    5.14    2.18
  -9  -2   9   64.07    9.12
  -9   2   9   43.13   20.73
   9  -2  -9   51.36   14.69
   9   2  -9   38.26    4.62
  -8  -2   9   15.17    4.56
  -8   2   9   42.24   16.22
   8  -2  -9   12.62    4.09
   8   2  -9   12.08    3.58
  -7  -2   9    1.81    3.93
  -7   2   9   11.37   13.65
   7  -2  -9    2.16    1.60
   7   2  -9    1.64    1.05
  -6  -2   9    0.68    3.39
   6  -2  -9    3.12    1.83
   6   2  -9    1.63    1.27
  -5  -2   9    3.95    3.83
  -5   2   9   40.55   18.78
   5  -2  -9    2.46    1.58
  -4  -2   9   22.62    4.22
  -4   2   9   35.78   17.89
   4  -2  -9   22.17    6.88
  -3  -2   9    2.48    3.12
  -3   2   9   12.41   11.12
   3  -2  -9    6.37    2.98
  -2  -2   9   -0.79    3.19
  -2   2   9    1.31    9.14
   2  -2  -9    2.46    2.17
  -1  -2   9   84.90    8.37
  -1   2   9   60.53   12.69
   1  -2  -9   92.96   11.07
   0  -2   9    4.08    2.81
   0   2   9   12.26    7.00
   0  -2  -9   -0.85    2.38
   1  -2   9    5.55    2.71
   1   2   9    1.39    5.94
  -1  -2  -9    1.58    3.39
   2  -2   9   48.13    6.98
   2   2   9   27.40    7.62
  -2  -2  -9   41.19    7.48
   3  -2   9    4.93    3.40
   3   2   9    3.23    6.16
  -3  -2  -9    3.23    3.67
   4  -2   9   65.13    8.51
  -4  -2  -9   56.23    9.18
   5   2   9   53.00    7.96
  -5  -2  -9   48.69    8.43
   6  -2   9    4.28    4.19
   6   2   9   11.12    3.52
  -6  -2  -9    9.58    4.59
  -6   2  -9    9.81    3.10
   7  -2   9   13.90    5.58
   7   2   9   14.47    4.94
  -7  -2  -9   26.23    8.81
  -7   2  -9   13.63    5.57
   8  -2   9    2.65    2.57
   8   2   9    8.76    5.15
  -8  -2  -9    3.17    3.11
  -8   2  -9    8.31    3.49
   9  -2   9    4.07    2.72
   9   2   9   26.84   19.36
  -9  -2  -9    1.28    3.02
 -13   3   9   65.60   29.96
  13  -3  -9    5.35    2.14
 -12   3   9   24.79   24.98
  12  -3  -9    4.25    2.89
 -11   3   9   18.09   16.36
  11  -3  -9   18.81   10.65
 -10   3   9   28.06   21.65
  10  -3  -9    4.02    3.49
  -9  -3   9    2.51    2.44
  -9   3   9   10.25   13.74
   9  -3  -9    5.37    3.53
  -8  -3   9    9.29    2.86
  -8   3   9   45.54   22.41
   8  -3  -9   12.14    3.38
  -7  -3   9   14.16    3.26
  -7   3   9   46.88   23.73
   7  -3  -9   15.99    5.49
  -6  -3   9    5.02    3.33
  -6   3   9   23.78   18.44
   6  -3  -9    1.32    2.02
  -5  -3   9   49.63    8.45
  -5   3   9   47.43   18.55
   5  -3  -9   47.29   14.57
  -4  -3   9    4.57    2.56
  -4   3   9    6.58   13.74
   4  -3  -9    3.76    2.43
  -3  -3   9   55.89    7.13
  -3   3   9   92.02   21.86
   3  -3  -9   57.12    9.34
  -2  -3   9   35.19    6.08
  -2   3   9   34.45   16.88
   2  -3  -9   28.43    7.04
   2  -3  -9   25.90    5.73
  -1  -3   9    1.08    2.50
  -1   3   9    9.26    9.65
   1  -3  -9    2.64    2.79
   1  -3  -9    6.20    4.48
   0  -3   9   83.59   13.08
   0   3   9   90.97   18.47
   0  -3  -9   63.03   12.25
   0  -3  -9   79.19   12.91
   1  -3   9   12.51    3.92
   1   3   9   11.67    7.44
  -1  -3  -9   15.27    5.20
   2  -3   9    2.58    2.70
   2   3   9    2.61    5.48
  -2  -3  -9    5.31    3.32
   3  -3   9    3.60    2.78
   3   3   9   16.63    8.29
  -3  -3  -9    3.82    3.21
   4  -3   9  103.90   12.76
   4   3   9  108.94   14.55
  -4  -3  -9  108.10   13.62
   6  -3   9   41.47   12.16
   6   3   9   41.63   12.26
  -6  -3  -9   35.16   11.42
  -6   3  -9   31.83    9.75
   7  -3   9   14.65    4.65
   7   3   9    7.15    2.09
  -7  -3  -9   27.01    7.94
   8  -3   9    3.95    2.86
  -8  -3  -9   11.66    5.66
 -11   4   9   33.42   18.85
  11  -4  -9    5.92    2.80
 -10   4   9   14.05   17.30
  10  -4  -9    2.33    2.14
  -9   4   9   78.44   25.47
   9  -4  -9   31.08    6.06
  -8   4   9   33.73   19.36
   8  -4  -9    2.99    2.73
  -7  -4   9    2.66    1.61
  -7   4   9   19.72   16.79
   7  -4  -9    3.98    1.78
   7  -4  -9    3.93    2.34
  -6  -4   9    3.94    2.59
  -6   4   9   22.12   16.41
   6  -4  -9    1.86    1.38
   6  -4  -9    0.67    2.36
  -5  -4   9   23.26    4.78
  -5   4   9   14.00   15.59
   5  -4  -9   20.46    8.86
   5  -4  -9   37.66    6.93
  -4  -4   9   31.32    5.54
  -4   4   9   60.86   22.71
   4  -4  -9   21.86   12.64
   4  -4  -9   29.68    6.11
  -3  -4   9   63.40    9.59
  -3   4   9   32.12   16.33
   3  -4  -9   60.38   13.79
   3  -4  -9   47.88    8.21
  -2  -4   9    1.02    2.15
  -2   4   9   -6.26   12.43
   2  -4  -9    5.85    2.82
   2  -4  -9    7.60    3.81
  -1  -4   9    6.95    2.69
  -1   4   9   12.37   11.05
   1  -4  -9    5.34    3.36
   1  -4  -9    1.81    2.75
   0  -4   9   11.17    2.92
   0   4   9   14.47    8.74
   0  -4  -9   23.82    5.64
   0  -4  -9   17.44    6.05
   1  -4   9   -0.22    2.67
   1   4   9    3.57    7.37
  -1  -4  -9   10.11    4.83
   2  -4   9   22.72    5.81
   2   4   9    8.21    5.87
  -2  -4  -9   26.58    7.12
   3  -4   9    5.66    2.82
   3   4   9   11.46    7.54
  -3  -4  -9    7.80    4.21
   4  -4   9    1.04    2.66
   4   4   9    7.81    5.31
  -4  -4  -9    3.11    3.19
   5  -4   9   -2.95    2.82
   5   4   9   -2.11    2.88
  -5  -4  -9   -1.55    3.09
   6  -4   9    0.96    2.81
  -6  -4  -9    3.56    4.76
  -9   5   9   19.75   18.08
   9  -5  -9    4.09    3.05
  -8   5   9   19.10   16.10
   8  -5  -9    5.37    1.92
  -7   5   9   -7.15   15.57
   7  -5  -9   21.60   12.80
  -6   5   9    3.01   12.98
   6  -5  -9    5.24    2.54
  -5  -5   9   18.95    6.29
  -5   5   9   19.83   15.13
   5  -5  -9   13.37    5.91
  -4  -5   9    7.82    2.44
  -4   5   9   19.77   15.49
   4  -5  -9    3.56    2.31
   4  -5  -9   10.14    4.60
  -3  -5   9   94.92   11.44
  -3   5   9  108.90   24.59
   3  -5  -9   79.91   13.52
   3  -5  -9   89.97   11.33
  -2  -5   9    2.89    2.16
  -2   5   9   -0.76   11.49
   2  -5  -9   -2.71    2.79
   2  -5  -9    3.91    2.18
  -1  -5   9    5.19    2.59
  -1   5   9   35.89   17.99
   1  -5  -9    5.30    2.76
   1  -5  -9    6.45    3.43
   0  -5   9    3.28    3.23
   0   5   9   18.83   11.27
   0  -5  -9    3.49    2.87
   0  -5  -9    5.09    2.75
   1  -5   9    3.61    2.17
   1   5   9    4.86    7.99
  -1  -5  -9    4.20    2.99
   2  -5   9    2.46    2.45
   2   5   9   16.65   11.70
  -2  -5  -9    5.53    3.14
   3  -5   9    0.43    2.57
   3   5   9    4.57    4.70
  -3  -5  -9   -1.97    2.92
   4  -5   9   22.63    6.74
  -4  -5  -9   21.33    7.40
 -14   0  10  149.28   40.45
  14   0 -10  148.78   36.01
 -13   0  10   15.02   12.04
  13   0 -10    8.41    3.49
 -12   0  10   75.83   19.30
  12   0 -10   78.64   11.12
 -11   0  10    7.74    9.53
  11   0 -10   14.01    4.07
 -10   0  10   32.56   10.15
  10   0 -10   29.62   10.54
  -9   0  10  232.39   24.78
   9   0 -10  179.91   18.26
  -8   0  10  212.17   26.31
   8   0 -10  202.99   29.88
  -7   0  10   92.00   16.30
   7   0 -10   70.27    8.26
  -6   0  10   74.10   12.48
  -5   0  10  961.76  101.28
   5   0 -10 1185.84  122.07
  -4   0  10   24.09    7.99
   4   0 -10   13.35    5.37
  -3   0  10  106.03   13.31
   3   0 -10  127.11   10.71
  -2   0  10   18.37    6.25
   2   0 -10   17.95    4.86
  -1   0  10    8.03    5.71
   0   0  10   -0.22    4.56
   1   0  10    4.45    6.12
   2   0  10  116.39   18.55
   3   0  10   24.89    4.38
   4   0  10   82.35   12.71
  -4   0 -10   99.64   15.96
   5   0  10    3.06    2.83
  -5   0 -10    2.42    3.53
   6   0  10   13.34    4.07
   6   0  10   17.14   12.41
  -6   0 -10   13.27    4.87
   7   0  10   15.49    8.35
   7   0  10    8.05   13.96
  -7   0 -10   13.36    7.86
   8   0  10    7.59    3.58
   8   0  10   28.78   20.45
  -8   0 -10   -0.81    3.13
 -14   1  10   18.67   13.99
  14  -1 -10   14.94    5.42
 -13   1  10   32.90   24.20
  13  -1 -10    3.44    2.08
  13   1 -10    8.57    4.96
 -12  -1  10   31.24    9.19
 -12   1  10   79.94   23.72
  12  -1 -10   43.41   15.76
  12   1 -10   58.43    8.14
 -11  -1  10   97.02   20.76
 -11   1  10  112.87   18.30
  11  -1 -10   99.61   19.85
  11   1 -10   68.59   15.53
 -10  -1  10   49.89   10.72
 -10   1  10   36.88   20.13
  10  -1 -10   30.04    9.20
  10   1 -10   20.86    7.53
  -9  -1  10    7.61    5.35
  -9   1  10   31.39   21.55
   9   1 -10    7.80    2.50
  -8  -1  10   11.68    5.79
  -8   1  10    5.17   10.59
   8  -1 -10   20.52    6.32
   8   1 -10   13.51    5.74
  -7  -1  10   32.45   10.37
  -7   1  10   23.35   11.44
   7  -1 -10   19.60    6.66
   7   1 -10   17.19    5.58
  -6  -1  10   29.36    7.75
  -6   1  10   35.07   11.08
   6   1 -10   31.72    5.91
   6  -1 -10   32.89    7.21
  -5  -1  10   17.15    5.69
  -5   1  10   36.40   12.98
   5   1 -10   21.79    4.70
   5  -1 -10   30.53    5.69
  -4  -1  10    6.62    5.91
  -4   1  10   -1.02    7.81
   4   1 -10    2.04    1.20
   4  -1 -10    0.28    1.71
  -3  -1  10   56.63    7.44
  -3   1  10   29.44    8.75
   3   1 -10   41.37    4.47
   3  -1 -10   45.03    6.59
  -2  -1  10   -0.26    3.89
  -2   1  10   11.99    7.14
   2  -1 -10    2.31    2.14
  -1  -1  10    8.01    5.46
   1  -1 -10   14.66    3.48
   0  -1  10   63.75    9.14
   0   1  10   51.94    9.21
   1  -1  10    4.29    3.85
   1   1  10   30.85    8.39
   2  -1  10    7.09    3.70
   2   1  10    5.75    5.84
   3  -1  10   31.51    6.57
   3   1  10   25.46    6.53
  -3  -1 -10   23.80    6.85
   4  -1  10    5.01    3.19
   4   1  10    3.99    3.34
   4  -1  10   19.39   16.01
  -4  -1 -10    5.90    3.95
   5  -1  10    3.05    3.04
   5   1  10    0.74    2.82
  -5  -1 -10    4.56    5.00
  -5   1 -10    3.42    3.22
   6  -1  10    3.23    2.83
   6   1  10    4.75    2.53
  -6  -1 -10    2.96    3.27
  -6   1 -10    4.81    3.18
   7  -1  10    4.25    2.71
   7   1  10    7.48    3.81
  -7  -1 -10   11.04    7.20
  -7   1 -10    5.91    3.34
   8  -1  10    2.75    2.82
   8   1  10    5.77    3.33
   8   1  10   29.66   23.63
  -8  -1 -10   -0.77    3.06
  -8   1 -10   -1.38    2.57
 -13   2  10   21.32   15.71
  13  -2 -10   25.81   12.51
 -12   2  10   57.80   18.85
  12  -2 -10   27.88   16.53
 -11   2  10    1.87   15.48
  11  -2 -10    3.82    2.95
 -10  -2  10    6.90    3.21
 -10   2  10   50.87   24.08
  10  -2 -10   12.45    3.39
  -9  -2  10   33.04    7.52
  -9   2  10   40.69   20.00
   9  -2 -10   26.46    7.96
  -8  -2  10   46.96    8.33
  -8   2  10  100.63   24.08
   8  -2 -10   44.45   15.13
  -7  -2  10   82.31   11.09
  -7   2  10   88.55   19.13
   7  -2 -10   73.65   14.01
  -6  -2  10    5.48    5.08
  -6   2  10    8.73   13.59
   6  -2 -10    1.72    2.08
  -5  -2  10   13.85    6.24
  -5   2  10   26.21   19.78
   5  -2 -10    4.00    2.44
  -4  -2  10   15.61    5.65
  -4   2  10   28.08   13.37
   4  -2 -10    8.54    4.49
  -3  -2  10    0.15    3.37
  -3   2  10    9.78   10.24
   3  -2 -10    0.29    1.98
  -2  -2  10   10.93    3.17
  -2   2  10   12.53    8.84
   2  -2 -10   16.03    7.37
  -1  -2  10    8.60    3.33
  -1   2  10    9.87   10.84
   1  -2 -10    7.35    3.70
   0  -2  10    1.94    3.04
   0   2  10    6.16    6.95
   1  -2  10   18.88    4.55
   1   2  10   19.25    8.30
  -1  -2 -10   29.84    6.23
   2  -2  10   20.91    5.03
   2   2  10    6.78    4.80
  -2  -2 -10   23.46    6.54
   3  -2  10    5.00    3.28
   3   2  10    9.06    4.57
  -3  -2 -10    7.88    5.13
   4  -2  10    7.88    3.06
   4   2  10   13.08    4.72
  -4  -2 -10   11.43    4.30
   5  -2  10   88.70   11.63
   5   2  10   81.47   10.88
  -5  -2 -10   86.95   12.28
   6  -2  10    8.52    2.97
   6   2  10   13.43    7.83
  -6  -2 -10   10.05    6.97
  -6   2 -10    9.02    6.64
   7  -2  10    8.51    2.97
   7   2  10    2.94    2.29
  -7  -2 -10    1.39    3.20
  -7   2 -10    1.73    2.76
 -12   3  10    9.92   15.44
  12  -3 -10    2.29    1.64
 -11   3  10   45.56   28.31
  11  -3 -10   52.40   29.88
 -10   3  10   -5.91   15.32
  10  -3 -10    2.03    2.12
  -9  -3  10    2.99    2.09
  -9   3  10   -1.26   14.41
   9  -3 -10   -2.19    2.47
  -8  -3  10    4.19    2.34
  -8   3  10    8.04   14.29
   8  -3 -10    2.51    2.83
  -7  -3  10   97.50   11.79
  -7   3  10  100.41   24.96
   7  -3 -10   85.48   14.17
  -6  -3  10    5.33    2.39
  -6   3  10   22.22   16.92
   6  -3 -10    6.63    3.48
  -5  -3  10   28.89    5.47
  -5   3  10   50.98   21.67
   5  -3 -10   23.09   10.56
  -4  -3  10   16.50    4.50
  -4   3  10   10.28   13.01
   4  -3 -10   15.91    4.58
  -3  -3  10   63.38    8.66
  -3   3  10   29.63   13.03
   3  -3 -10   44.61   16.48
  -2  -3  10    3.74    3.06
  -2   3  10    2.77   10.95
   2  -3 -10    3.39    3.41
   2  -3 -10    0.78    3.84
  -1  -3  10   49.84    8.23
  -1   3  10   58.12   15.73
   1  -3 -10   61.98   16.23
   1  -3 -10   63.11   10.94
   0  -3  10    4.67    2.79
   0   3  10    9.26    7.83
   0  -3 -10    9.29    4.15
   0  -3 -10    9.12    3.71
   1  -3  10   11.76    3.86
   1   3  10    3.38    6.12
  -1  -3 -10    8.76    4.97
   2  -3  10    0.20    2.47
   2   3  10    4.23    5.08
  -2  -3 -10    4.16    3.40
   3  -3  10    7.84    3.86
   3   3  10    8.48    4.25
  -3  -3 -10   16.46    6.00
   4  -3  10    4.44    2.94
   4   3  10    5.09    4.22
  -4  -3 -10   21.01    7.71
   5  -3  10    9.18    5.72
   5   3  10    5.01    5.12
  -5  -3 -10    6.02    5.06
   6  -3  10   11.86    4.88
   6   3  10   10.11    3.85
  -6  -3 -10    7.91    3.96
  -6   3 -10   10.28    3.21
 -10   4  10   12.62   16.83
  10  -4 -10    4.10    2.57
  -9   4  10   12.38   23.99
   9  -4 -10   10.79    9.10
  -8   4  10   16.30   18.89
   8  -4 -10    5.63    2.75
  -7  -4  10    3.85    2.40
  -7   4  10   18.04   17.13
   7  -4 -10    3.98    2.14
   7  -4 -10    2.13    2.34
  -6  -4  10   10.87    3.01
  -6   4  10   24.33   18.11
   6  -4 -10   11.83    4.56
   6  -4 -10    5.97    2.69
  -5  -4  10   28.34    4.74
  -5   4  10   43.77   17.77
   5  -4 -10   17.68   10.56
   5  -4 -10   25.38    5.40
  -4  -4  10    7.59    3.45
  -4   4  10   34.63   22.20
   4  -4 -10    3.88    2.94
   4  -4 -10    7.05    3.51
  -3  -4  10    3.87    2.39
  -3   4  10   25.31   13.37
   3  -4 -10    4.21    3.35
   3  -4 -10    9.40    3.36
  -2  -4  10   13.88    3.41
  -2   4  10   13.09   10.63
   2  -4 -10    9.46    7.63
   2  -4 -10   20.61    5.96
  -1  -4  10   15.57    4.07
  -1   4  10   13.17   10.09
   1  -4 -10   12.79    7.20
   1  -4 -10   20.82    5.46
   0  -4  10    5.04    3.95
   0   4  10   10.09    7.95
   0  -4 -10   -1.30    2.86
   0  -4 -10   10.21    4.77
   1  -4  10   13.03    5.70
   1   4  10    7.68    6.71
  -1  -4 -10    3.50    4.59
   2  -4  10    3.79    3.08
   2   4  10    7.18    6.08
  -2  -4 -10    7.24    4.78
   3  -4  10    4.16    3.15
   3   4  10    3.67    4.04
  -3  -4 -10    6.37    3.51
   4  -4  10    2.20    2.91
   4   4  10    9.11    5.15
  -4  -4 -10   -1.17    2.97
  -7   5  10   71.25   30.81
   7  -5 -10    3.42    4.62
  -6   5  10   36.54   24.92
   6  -5 -10    3.98    2.47
  -5  -5  10    1.98    1.75
  -5   5  10   22.24   15.42
   5  -5 -10    6.81    3.92
  -4  -5  10   19.32    5.27
  -4   5  10   25.72   15.32
   4  -5 -10   16.06    9.92
   4  -5 -10   10.30    4.02
  -3  -5  10   16.01    4.90
  -3   5  10   10.57   13.28
   3  -5 -10   17.05    5.91
   3  -5 -10   16.34    4.86
  -2  -5  10   32.58    8.47
  -2   5  10   32.59   18.85
   2  -5 -10   19.88    7.35
  -1  -5  10   45.86   10.90
  -1   5  10   63.74   21.32
   1  -5 -10   49.48   12.03
   1  -5 -10   39.74   10.35
   0  -5  10    1.24    2.31
   0   5  10    2.80    8.18
   0  -5 -10    9.03    3.91
   1  -5  10   -0.42    2.30
   1   5  10    5.03    7.31
  -1  -5 -10    4.62    2.90
 -13   0  11   27.71   16.27
  13   0 -11    3.07    1.18
 -12   0  11   38.03   23.18
  12   0 -11    3.98    1.23
  11   0 -11    0.87    2.55
 -10   0  11   15.98   12.04
  10   0 -11    2.46    1.49
  -9   0  11    9.02    8.24
   9   0 -11    2.05    1.07
  -8   0  11    4.70    9.37
   8   0 -11    3.41    1.37
  -7   0  11   10.19    8.25
   7   0 -11   -1.10    1.65
  -6   0  11    9.16    8.98
   6   0 -11    2.60    2.38
  -5   0  11    7.78    6.00
   5   0 -11    1.29    0.97
  -4   0  11    9.38    5.72
   4   0 -11   -0.22    1.53
  -3   0  11    4.33    7.14
   3   0 -11    0.63    1.03
  -2   0  11    5.55    5.03
   2   0 -11    2.66    2.17
  -1   0  11   15.25    7.36
   0   0  11    0.21    4.75
   2   0  11   -3.17    3.66
   3   0  11    7.53    4.79
   4   0  11    4.14    3.31
  -4   0 -11    1.85    3.67
   5   0  11    2.95    2.69
  -5   0 -11    2.02    3.44
   6   0  11    1.70    2.70
   6   0  11   16.33   13.52
  -6   0 -11    1.70    3.52
  13  -1 -11   18.93    9.01
  13   1 -11   11.64    5.95
 -12  -1  11    1.09    5.29
 -12   1  11    5.36   10.66
  12  -1 -11    5.74    2.89
  12   1 -11    4.92    2.30
 -11  -1  11   11.45    6.66
 -11   1  11   -5.83   11.11
  11  -1 -11    5.71    2.73
  11   1 -11    1.18    1.18
 -10  -1  11    8.18    6.12
 -10   1  11    5.75   11.62
  10  -1 -11   15.96    5.92
  10   1 -11   14.78    5.02
  -9  -1  11   12.52    6.24
   9  -1 -11    6.00    2.19
   9   1 -11    1.32    0.96
  -8  -1  11   27.78    7.79
  -8   1  11   25.83   11.85
   8  -1 -11    5.76    2.67
   8   1 -11    6.85    2.71
  -7  -1  11   10.90    5.91
  -7   1  11   12.89    9.79
   7  -1 -11    8.76    4.74
  -6  -1  11    3.93    5.47
  -6   1  11   20.73    9.47
   6  -1 -11    2.36    1.62
  -5  -1  11   33.79    7.27
  -5   1  11   35.30   12.17
   5  -1 -11   24.66   10.29
  -4  -1  11  106.39   12.82
  -4   1  11  106.98   16.35
   4  -1 -11  135.43   14.12
  -3  -1  11    7.13    6.09
  -3   1  11    9.17    7.29
   3  -1 -11    0.93    1.59
  -2  -1  11   57.30   10.46
  -2   1  11   43.30   10.40
   2  -1 -11   37.77    8.08
  -1  -1  11    1.17    4.02
  -1   1  11    3.12    5.31
   0  -1  11    0.04    3.59
   0   1  11    1.75    4.98
   1  -1  11    6.12    3.69
   1   1  11    4.86    4.79
   2  -1  11   11.62    3.70
   2   1  11    9.69    7.59
  -2  -1 -11    8.38    3.93
   3  -1  11   11.45    4.22
   3   1  11    2.52    3.26
  -3  -1 -11    4.89    3.96
   4  -1  11    1.67    2.96
   4   1  11    6.68    4.11
  -4  -1 -11    5.86    5.42
   5  -1  11    2.00    2.82
   5   1  11    0.89    2.52
  -5  -1 -11   -2.28    3.60
  -5   1 -11   -1.83    3.24
   6  -1  11   20.92    6.31
   6   1  11   27.68    7.78
  -6  -1 -11   37.36   10.10
  -6   1 -11   27.69    8.35
 -12   2  11   10.11   14.46
  12  -2 -11    6.85    2.97
 -11   2  11   32.53   21.52
  11  -2 -11    1.08    1.55
 -10  -2  11    8.71    4.88
 -10   2  11   21.04   21.53
  10  -2 -11    0.59    1.94
  -9  -2  11    7.20    3.56
  -9   2  11   14.29   13.48
   9  -2 -11    3.59    1.41
  -8  -2  11   35.54    9.86
   8  -2 -11   21.59   12.09
  -7  -2  11    5.93    5.29
  -7   2  11   -0.50   11.38
   7  -2 -11    2.28    2.08
  -6  -2  11   28.40    6.26
  -6   2  11   19.62   12.10
   6  -2 -11   23.34    8.96
  -5   2  11   26.57   17.92
   5  -2 -11    3.11    3.44
  -4   2  11   51.61   17.24
   4  -2 -11   34.43   15.30
  -3  -2  11    3.05    3.48
  -3   2  11   12.17   12.79
   3  -2 -11   -0.84    2.24
  -2  -2  11    8.22    3.30
  -2   2  11   11.53   10.98
   2  -2 -11   13.38    3.69
  -1  -2  11   25.07    5.40
  -1   2  11   25.52   10.18
   1  -2 -11   31.51    6.13
   0  -2  11    3.74    4.13
   0   2  11    6.70    6.35
   1  -2  11    8.09    3.18
   1   2  11   18.89    7.72
  -1  -2 -11   15.09    6.02
   2  -2  11   -1.60    2.93
   2   2  11   11.39    5.49
  -2  -2 -11    8.49    5.61
   3  -2  11    2.58    2.99
   3   2  11    0.89    3.48
  -3  -2 -11    1.00    3.90
   4  -2  11    9.19    6.27
   4   2  11    4.38    3.29
  -4  -2 -11   10.00    6.35
   5  -2  11   16.85    5.44
   5   2  11    6.99    4.34
  -5  -2 -11   11.39    5.99
 -11   3  11   17.17   16.04
  11  -3 -11    7.60    3.01
 -10   3  11  110.29   27.43
  10  -3 -11  103.88   29.53
  -9  -3  11    2.42    3.21
  -9   3  11    0.32   15.47
   9  -3 -11   -0.16    2.33
  -8  -3  11    1.32    2.32
  -8   3  11   10.46   15.62
   8  -3 -11    2.41    1.57
  -7  -3  11   28.72    5.03
  -7   3  11   72.69   24.19
   7  -3 -11   29.95    7.50
  -6  -3  11    2.70    2.89
  -6   3  11   12.29   15.78
   6  -3 -11    3.09    2.80
  -5  -3  11    4.66    2.95
  -5   3  11   16.89   14.01
   5  -3 -11    4.58    2.14
  -4  -3  11    8.66    3.09
   4  -3 -11   13.10    3.97
  -3  -3  11    5.11    3.78
  -3   3  11   15.47   11.67
   3  -3 -11    4.49    2.24
  -2  -3  11   18.61    5.36
  -2   3  11   11.20   10.15
   2  -3 -11   20.56   11.50
   2  -3 -11   25.83    7.62
  -1  -3  11    4.34    3.05
  -1   3  11   17.69   10.45
   1  -3 -11   -1.29    2.60
   1  -3 -11   -0.56    4.21
   0  -3  11   13.20    4.23
   0   3  11   18.77    8.98
   0  -3 -11    8.84    5.60
   1  -3  11    8.84    3.22
   1   3  11   12.78    6.78
  -1  -3 -11    8.00    3.71
   2  -3  11    4.13    4.04
   2   3  11    9.74    6.48
  -2  -3 -11    2.84    3.75
   3  -3  11    5.63    3.09
   3   3  11    2.71    4.53
  -3  -3 -11    6.72    3.92
   4  -3  11    5.55    4.57
   4   3  11    2.31    3.59
  -4  -3 -11    6.18    5.02
  -9   4  11   24.50   18.81
   9  -4 -11   11.27    9.64
  -8   4  11   21.21   18.79
   8  -4 -11    4.45    3.07
  -7  -4  11    0.69    1.73
  -7   4  11   26.60   18.53
   7  -4 -11   -1.24    2.58
   7  -4 -11    1.70    2.77
  -6  -4  11    5.48    2.87
  -6   4  11   54.94   34.34
   6  -4 -11    3.80    2.02
   6  -4 -11    3.44    3.94
  -5  -4  11   17.17    8.86
  -5   4  11   19.69   16.88
   5  -4 -11   18.54   11.91
   5  -4 -11   35.42   18.22
  -4  -4  11    7.11    2.46
  -4   4  11   27.30   18.24
   4  -4 -11    6.13    3.89
   4  -4 -11   13.57    7.60
  -3  -4  11    3.58    2.55
  -3   4  11   21.67   18.34
   3  -4 -11    4.21    1.95
   3  -4 -11    2.76    3.07
  -2  -4  11    9.09    5.85
  -2   4  11   19.07   17.03
   2  -4 -11    2.48    2.35
   2  -4 -11    3.60    3.64
  -1  -4  11    3.06    2.60
  -1   4  11   14.43   11.67
   1  -4 -11    4.12    2.70
   1  -4 -11    4.88    5.07
   0  -4  11    2.49    2.47
   0   4  11   -1.65    7.94
   0  -4 -11    3.70    3.23
   1  -4  11    7.35    3.10
   1   4  11   28.70   12.88
  -1  -4 -11    3.32    3.50
   2  -4  11    1.48    3.08
   2   4  11    8.41    5.01
  -2  -4 -11    5.05    3.74
 -12   0  12   18.14   11.97
  12   0 -12    3.64    2.17
 -11   0  12   64.11   19.62
  11   0 -12   19.27    9.46
 -10   0  12   24.19   16.81
  10   0 -12   12.43    8.16
  -9   0  12   89.15   12.46
   9   0 -12   67.23   19.63
  -8   0  12   30.67    8.90
   8   0 -12   15.19    9.38
  -7   0  12   10.41    7.65
   7   0 -12    6.82    2.97
  -6   0  12   20.28    8.64
   6   0 -12   13.65    6.66
  -5   0  12   17.02    8.09
   5   0 -12    7.47    2.95
  -4   0  12  201.82   24.45
   4   0 -12  217.30    5.96
  -3   0  12  208.10   25.47
   3   0 -12  182.58   20.40
  -2   0  12    7.58    4.94
  -1   0  12    7.40    4.93
   0   0  12    4.62    4.54
   1   0  12    2.81    3.74
   2   0  12    2.34    3.40
   3   0  12    6.67    3.36
  -3   0 -12   16.41    9.60
   4   0  12    1.87    2.90
  -4   0 -12    9.11    5.27
 -11  -1  12   30.54   10.98
 -11   1  12   53.62   20.52
  11  -1 -12   19.31   11.24
 -10  -1  12   21.29   13.08
 -10   1  12   14.28   12.77
  10  -1 -12   16.47   10.71
  -9  -1  12   13.70    6.87
  -9   1  12   -3.22   11.11
   9  -1 -12    3.71    2.92
  -8  -1  12   22.21    9.70
  -8   1  12    9.48   10.25
   8  -1 -12    1.93    1.50
  -7  -1  12   42.38   10.07
  -7   1  12   27.33   13.60
   7  -1 -12   25.57   12.87
  -6  -1  12   66.29   14.77
  -6   1  12   77.07   18.74
   6  -1 -12   84.67   16.37
  -5  -1  12    9.10    4.94
  -5   1  12   12.78    7.34
   5  -1 -12   10.44    5.45
  -4  -1  12   14.42    5.43
  -4   1  12   12.61    7.13
   4  -1 -12   10.53    6.82
  -3  -1  12   77.63   16.83
  -3   1  12   64.67   15.92
   3  -1 -12   75.41   14.70
  -2  -1  12    5.87    3.98
  -2   1  12    2.22    5.90
   2  -1 -12    6.41    3.39
  -1  -1  12    4.01    3.65
  -1   1  12    2.56    5.09
   0  -1  12    8.95    4.78
   0   1  12   13.82    6.98
   1  -1  12    5.16    3.51
   1   1  12   11.62    6.23
   2  -1  12   11.75    4.76
   2   1  12   10.10    6.14
  -2  -1 -12    8.16    4.13
   3  -1  12    4.38    2.90
   3   1  12   12.60    7.95
   4  -1  12   17.90    5.66
   4   1  12    4.15    3.48
  -4  -1 -12    9.27    5.59
  -4   1 -12    8.41    4.26
 -11   2  12   23.05   14.81
  11  -2 -12    1.75    1.80
 -10  -2  12    5.03    3.44
 -10   2  12   19.00   14.43
  10  -2 -12   11.96    4.80
  -9  -2  12   72.54    8.58
  -9   2  12   44.23   29.50
   9  -2 -12   55.43   28.20
  -8  -2  12    5.94    3.95
  -8   2  12   15.27   13.02
   8  -2 -12   10.29    7.44
  -7  -2  12    8.13    4.59
  -7   2  12    8.23   11.69
   7  -2 -12    2.76    2.38
  -6  -2  12   10.64    5.03
  -6   2  12   40.08   12.78
   6  -2 -12    7.47    5.06
  -5  -2  12    9.60    4.73
  -5   2  12   27.46   11.41
   5  -2 -12    7.10    3.28
  -4  -2  12    5.49    3.83
  -4   2  12   26.31   14.73
   4  -2 -12    9.44    7.57
  -3  -2  12    2.30    3.42
  -3   2  12   15.06   12.43
   3  -2 -12    0.17    1.15
  -2  -2  12   10.35    3.87
  -2   2  12   16.09    7.69
   2  -2 -12   11.97    4.14
  -1  -2  12   42.36    6.60
  -1   2  12   40.99    9.99
   0  -2  12    9.08    3.58
   0   2  12   -2.19    5.16
   0  -2 -12    5.06    3.99
   1  -2  12    0.16    2.82
   1   2  12    0.56    4.13
  -1  -2 -12    9.90    6.08
   2  -2  12    6.55    4.19
   2   2  12    5.43    4.15
  -2  -2 -12    6.69    4.07
   3  -2  12    1.92    3.43
   3   2  12    7.73    4.12
  -3  -2 -12    8.98    6.12
  -9   3  12   42.58   27.57
   9  -3 -12    6.23    2.80
  -8  -3  12    3.52    3.15
  -8   3  12   23.11   15.46
   8  -3 -12   -0.10    2.62
  -7  -3  12    5.92    3.82
  -7   3  12   31.76   24.05
   7  -3 -12    2.48    1.95
  -6  -3  12   22.55   11.82
  -6   3  12   55.86   36.34
   6  -3 -12   14.14   11.30
  -5  -3  12   24.00   12.57
  -5   3  12   14.97   13.71
   5  -3 -12   14.01    9.57
  -4  -3  12    2.40    2.83
  -4   3  12   15.56   13.20
   4  -3 -12    5.60    4.20
  -3  -3  12    0.67    2.50
  -3   3  12    3.91    9.59
   3  -3 -12    3.20    1.72
   3  -3 -12    7.10    4.92
  -2  -3  12    1.99    2.79
  -2   3  12    7.45    7.70
   2  -3 -12    6.61    2.74
   2  -3 -12   -1.94    3.67
  -1  -3  12    4.47    3.16
  -1   3  12    1.18    6.00
   1  -3 -12    7.65    4.14
   0  -3  12    3.75    3.24
   0   3  12    7.23    8.54
   0  -3 -12    8.03    6.29
   1  -3  12   -0.09    2.89
   1   3  12    7.16    5.51
  -1  -3 -12   -3.43    3.69
   2  -3  12   11.22    5.34
   2   3  12    7.96    4.96
  -2  -3 -12   17.33    7.70
  -5  -4  12   14.79    5.03
  -5   4  12    9.79   14.17
   5  -4 -12   10.42    9.32
   5  -4 -12   21.85    7.45
  -4  -4  12    1.70    2.24
  -4   4  12   27.20   19.15
   4  -4 -12    5.49    3.55
   4  -4 -12    3.26    4.42
  -3  -4  12   15.17    5.29
  -3   4  12   29.23   14.54
   3  -4 -12    9.54    5.28
   3  -4 -12    4.24    3.78
  -2  -4  12   14.29    5.22
  -2   4  12   10.90   10.38
   2  -4 -12   16.78    6.60
 -10   0  13    9.06    9.61
  -9   0  13   13.09    8.10
  -8   0  13   10.78    7.17
  -7   0  13    6.36    6.53
  -6   0  13   12.92    9.68
  -5   0  13    4.36    6.04
  -4   0  13    8.88    5.19
  -3   0  13    5.77    4.71
  -2   0  13    3.86    4.53
  -1   0  13    7.53    4.94
   0   0  13    6.67    5.66
   1   0  13    0.33    3.51
   2   0  13    4.25    3.69
  -9  -1  13   -3.07    5.05
  -9   1  13    9.23   13.63
   9  -1 -13    1.29    1.21
  -8  -1  13    8.88    5.31
  -8   1  13   14.76   10.71
   8  -1 -13    3.68    2.24
  -7  -1  13    6.60    4.94
  -7   1  13   22.54   17.52
   7  -1 -13    1.81    1.32
  -6  -1  13   17.25   11.51
  -6   1  13    5.90    7.73
   6  -1 -13    3.61    1.18
  -5  -1  13   12.23    7.74
  -5   1  13   14.53    8.86
   5  -1 -13    0.86    1.66
  -4  -1  13   25.09    9.74
  -4   1  13   24.83    9.60
   4  -1 -13   11.72    8.47
  -3  -1  13   18.38    6.72
  -3   1  13   17.36   10.29
  -2  -1  13   15.58    9.48
  -2   1  13    4.46    5.08
  -1  -1  13    2.85    3.78
  -1   1  13   12.55    9.28
   0  -1  13   25.73    7.66
   0   1  13   33.69    9.98
   1  -1  13    7.20    3.83
   1   1  13    2.04    4.28
   2  -1  13    4.88    3.44
   2   1  13    5.82    3.90
  -2  -1 -13    0.28    4.63
  -8  -2  13   53.17   14.56
  -8   2  13  101.28   34.92
   8  -2 -13   46.00   13.99
  -7  -2  13    1.92    5.14
  -7   2  13   22.90   13.05
   7  -2 -13    4.05    1.91
  -6  -2  13    7.55    4.02
  -6   2  13   17.89   15.30
   6  -2 -13    1.14    1.82
  -5  -2  13    1.18    3.43
  -5   2  13    8.83   10.11
   5  -2 -13    5.89    2.58
  -4  -2  13    2.40    3.24
  -4   2  13   14.51    9.19
   4  -2 -13    4.17    3.43
  -3  -2  13    6.07    3.36
  -3   2  13   18.86    8.75
   3  -2 -13    3.16    3.40
  -2  -2  13    6.38    3.45
  -2   2  13   10.18    8.75
  -1  -2  13    5.74    3.32
  -1   2  13    4.24    5.41
   0  -2  13    2.86    3.12
   0   2  13    5.23    5.18
   0  -2 -13    6.04    4.46
  -4  -3  13    8.62    3.05
  -4   3  13    5.14   10.30
  -6   0  14   12.81    6.87
  -5   0  14   20.91   10.41
  -4   0  14   22.06    9.60
  -3   0  14   26.45   10.96
  -4  -1  14   10.52    5.42
  -4   1  14   13.50    7.24
   0   0   0    0.00    0.00

_computing_structure_solution     'SHELXT 2014/5 (Sheldrick, 2014)'
;
_shelx_hkl_checksum              97839
loop_
_space_group_symop_operation_xyz
'x, y, z'
'-x, y+1/2, -z+1/2'
'-x, -y, -z'
'x, -y-1/2, z-1/2'
loop_
_atom_site_label
_atom_site_type_symbol
_atom_site_fract_x
_atom_site_fract_y
_atom_site_fract_z
_atom_site_U_iso_or_equiv
_atom_site_adp_type
_atom_site_occupancy
_atom_site_site_symmetry_order
_atom_site_calc_flag
_atom_site_refinement_flags_posn
_atom_site_refinement_flags_adp
_atom_site_refinement_flags_occupancy
_atom_site_disorder_assembly
_atom_site_disorder_group
S1 S 0.13302(8) 0.71366(17) 0.72175(11) 0.0692(4) Uani 1 1 d . . . . .
C2 C 0.0761(3) 0.6616(6) 0.8436(4) 0.0609(10) Uani 1 1 d . . . . .
H2 H 0.0232 0.7505 0.8631 0.073 Uiso 1 1 calc R U . . .
C3 C 0.1164(3) 0.4772(6) 0.9083(3) 0.0530(8) Uani 1 1 d . U . . .
H3 H 0.0941 0.4248 0.9780 0.064 Uiso 1 1 calc R U . . .
C4 C 0.1961(2) 0.3692(5) 0.8608(3) 0.0404(7) Uani 1 1 d . U . . .
H4 H 0.2312 0.2386 0.8949 0.049 Uiso 1 1 calc R U . . .
C5 C 0.2153(2) 0.4824(5) 0.7568(3) 0.0373(7) Uani 1 1 d . . . . .
C6 C 0.2960(2) 0.4340(4) 0.6878(2) 0.0328(6) Uani 1 1 d . . . . .
C7 C 0.3248(2) 0.5841(4) 0.6066(3) 0.0337(6) Uani 1 1 d . . . . .
H7 H 0.2866 0.7174 0.5884 0.040 Uiso 1 1 calc R U . . .
C8 C 0.4100(2) 0.5442(4) 0.5495(2) 0.0307(6) Uani 1 1 d . . . . .
C9 C 0.4433(2) 0.7008(4) 0.4713(2) 0.0314(6) Uani 1 1 d . . . . .
H9 H 0.4052 0.8339 0.4517 0.038 Uiso 1 1 calc R U . . .
C10 C 0.5312(2) 0.6635(4) 0.4223(2) 0.0299(6) Uani 1 1 d . . . . .
C11 C 0.5659(2) 0.8204(4) 0.3429(3) 0.0337(6) Uani 1 1 d . . . . .
H11 H 0.5312 0.9579 0.3267 0.040 Uiso 1 1 calc R U . . .
C12 C 0.6479(2) 0.7761(4) 0.2901(3) 0.0356(6) Uani 1 1 d . . . . .
H12 H 0.6683 0.8831 0.2386 0.043 Uiso 1 1 calc R U . . .
loop_
_atom_site_aniso_label
_atom_site_aniso_U_11
_atom_site_aniso_U_22
_atom_site_aniso_U_33
_atom_site_aniso_U_23
_atom_site_aniso_U_13
_atom_site_aniso_U_12
S1 0.0724(7) 0.0690(7) 0.0834(8) 0.0260(5) 0.0515(5) 0.0288(5)
C2 0.0555(19) 0.071(2) 0.068(2) -0.0004(19) 0.0371(18) 0.0144(17)
C3 0.0522(19) 0.069(2) 0.0443(19) -0.0007(16) 0.0251(15) -0.0075(16)
C4 0.0347(14) 0.0536(17) 0.0370(16) 0.0012(13) 0.0165(12) -0.0004(13)
C5 0.0347(14) 0.0415(15) 0.0381(16) -0.0016(12) 0.0136(12) -0.0036(12)
C6 0.0321(13) 0.0378(14) 0.0287(14) -0.0021(11) 0.0080(11) -0.0005(11)
C7 0.0339(13) 0.0349(14) 0.0331(15) 0.0010(11) 0.0101(11) 0.0045(11)
C8 0.0354(14) 0.0290(13) 0.0272(14) -0.0012(10) 0.0067(11) 0.0007(10)
C9 0.0351(13) 0.0283(13) 0.0317(14) 0.0009(10) 0.0101(11) 0.0043(10)
C10 0.0356(13) 0.0268(12) 0.0261(13) -0.0015(10) 0.0057(11) 0.0007(10)
C11 0.0436(15) 0.0270(13) 0.0309(14) 0.0015(10) 0.0097(12) 0.0012(11)
C12 0.0429(15) 0.0333(14) 0.0323(15) 0.0040(11) 0.0127(12) -0.0021(12)
loop_
_atom_type_symbol
_atom_type_description
_atom_type_scat_dispersion_real
_atom_type_scat_dispersion_imag
_atom_type_scat_source
C C 0.0033 0.0016 'International Tables Vol C Tables 4.2.6.8 and 6.1.1.4'
H H 0.0000 0.0000 'International Tables Vol C Tables 4.2.6.8 and 6.1.1.4'
S S 0.1246 0.1234 'International Tables Vol C Tables 4.2.6.8 and 6.1.1.4'
loop_
_geom_angle_atom_site_label_1
_geom_angle_atom_site_label_2
_geom_angle_atom_site_label_3
_geom_angle
_geom_angle_site_symmetry_1
_geom_angle_site_symmetry_3
_geom_angle_publ_flag
C2 S1 C5 92.53(16) . . ?
C3 C2 S1 112.0(3) . . ?
C3 C2 H2 124.0 . . ?
S1 C2 H2 124.0 . . ?
C2 C3 C4 113.8(3) . . ?
C2 C3 H3 123.1 . . ?
C4 C3 H3 123.1 . . ?
C5 C4 C3 111.7(3) . . ?
C5 C4 H4 124.2 . . ?
C3 C4 H4 124.2 . . ?
C4 C5 C6 128.2(3) . . ?
C4 C5 S1 110.0(2) . . ?
C6 C5 S1 121.6(2) . . ?
C7 C6 C12 118.1(3) . 3_666 ?
C7 C6 C5 123.1(2) . . ?
C12 C6 C5 118.8(2) 3_666 . ?
C6 C7 C8 122.6(2) . . ?
C6 C7 H7 118.7 . . ?
C8 C7 H7 118.7 . . ?
C9 C8 C7 123.1(2) . . ?
C9 C8 C10 118.4(2) . 3_666 ?
C7 C8 C10 118.5(2) . 3_666 ?
C10 C9 C8 122.1(2) . . ?
C10 C9 H9 119.0 . . ?
C8 C9 H9 119.0 . . ?
C9 C10 C11 122.8(2) . . ?
C9 C10 C8 119.5(2) . 3_666 ?
C11 C10 C8 117.7(2) . 3_666 ?
C12 C11 C10 122.0(2) . . ?
C12 C11 H11 119.0 . . ?
C10 C11 H11 119.0 . . ?
C11 C12 C6 121.0(3) . 3_666 ?
C11 C12 H12 119.5 . . ?
C6 C12 H12 119.5 3_666 . ?
loop_
_geom_bond_atom_site_label_1
_geom_bond_atom_site_label_2
_geom_bond_distance
_geom_bond_site_symmetry_2
_geom_bond_publ_flag
S1 C2 1.698(4) . ?
S1 C5 1.724(3) . ?
C2 C3 1.338(5) . ?
C2 H2 0.9300 . ?
C3 C4 1.417(4) . ?
C3 H3 0.9300 . ?
C4 C5 1.392(4) . ?
C4 H4 0.9300 . ?
C5 C6 1.458(4) . ?
C6 C7 1.373(4) . ?
C6 C12 1.437(4) 3_666 ?
C7 C8 1.412(4) . ?
C7 H7 0.9300 . ?
C8 C9 1.402(4) . ?
C8 C10 1.445(3) 3_666 ?
C9 C10 1.388(4) . ?
C9 H9 0.9300 . ?
C10 C11 1.421(4) . ?
C10 C8 1.445(3) 3_666 ?
C11 C12 1.350(4) . ?
C11 H11 0.9300 . ?
C12 C6 1.437(4) 3_666 ?
C12 H12 0.9300 . ?
