#------------------------------------------------------------------------------
#$Date: 2020-03-04 03:31:43 +0200 (Wed, 04 Mar 2020) $
#$Revision: 248689 $
#$URL: file:///home/coder/svn-repositories/cod/cif/4/51/74/4517419.cif $
#------------------------------------------------------------------------------
#
# This file is available in the Crystallography Open Database (COD),
# http://www.crystallography.net/
#
# All data on this site have been placed in the public domain by the
# contributors.
#
data_4517419
loop_
_publ_author_name
'Sosorev, Andrey Yu'
'Trukhanov, Vasiliy A.'
'Maslennikov, Dmitry R.'
'Borshchev, Oleg V.'
'Polyakov, Roman A.'
'Skorotetcky, Maxim S.'
'Surin, Nikolay M.'
'Kazantsev, Maxim S.'
'Dominskiy, Dmitry I.'
'Tafeenko, Viktor A.'
'Ponomarenko, Sergey A.'
'Paraschuk, Dmitry Yu'
_publ_section_title
;
 Fluorinated Thiophene-Phenylene Co-Oligomers for Optoelectronic Devices.
;
_journal_issue                   8
_journal_name_full               'ACS applied materials &amp; interfaces'
_journal_page_first              9507
_journal_page_last               9519
_journal_paper_doi               10.1021/acsami.9b20295
_journal_volume                  12
_journal_year                    2020
_chemical_formula_moiety         'C26 H4 F14 S2'
_chemical_formula_sum            'C26 H4 F14 S2'
_chemical_formula_weight         646.41
_space_group_crystal_system      triclinic
_space_group_IT_number           2
_space_group_name_Hall           '-P 1'
_space_group_name_H-M_alt        'P -1'
_atom_sites_solution_hydrogens   geom
_audit_creation_method           SHELXL-2014/7
_cell_angle_alpha                72.545(3)
_cell_angle_beta                 77.250(4)
_cell_angle_gamma                63.092(3)
_cell_formula_units_Z            1
_cell_length_a                   7.5177(4)
_cell_length_b                   7.7270(4)
_cell_length_c                   11.3250(6)
_cell_measurement_reflns_used    5679
_cell_measurement_temperature    295(2)
_cell_measurement_theta_max      70
_cell_measurement_theta_min      4
_cell_volume                     556.83(5)
_computing_structure_refinement  'SHELXL-2014/7 (Sheldrick, 2014)'
_diffrn_ambient_temperature      295
_diffrn_detector                 Pilatus100K
_diffrn_detector_area_resol_mean 5.81
_diffrn_detector_type            STOE
_diffrn_measured_fraction_theta_full 0.990
_diffrn_measured_fraction_theta_max 0.988
_diffrn_measurement_device_type  STOE
_diffrn_measurement_method       'rotation method'
_diffrn_radiation_collimation    'focusing mirrors'
_diffrn_radiation_monochromator  none
_diffrn_radiation_polarisn_norm  0
_diffrn_radiation_type           'Cu K\a'
_diffrn_radiation_wavelength     1.54186
_diffrn_reflns_av_R_equivalents  0.0331
_diffrn_reflns_av_unetI/netI     0.0281
_diffrn_reflns_Laue_measured_fraction_full 0.990
_diffrn_reflns_Laue_measured_fraction_max 0.988
_diffrn_reflns_limit_h_max       9
_diffrn_reflns_limit_h_min       -9
_diffrn_reflns_limit_k_max       9
_diffrn_reflns_limit_k_min       -9
_diffrn_reflns_limit_l_max       8
_diffrn_reflns_limit_l_min       -13
_diffrn_reflns_number            6004
_diffrn_reflns_point_group_measured_fraction_full 0.990
_diffrn_reflns_point_group_measured_fraction_max 0.988
_diffrn_reflns_theta_full        67.686
_diffrn_reflns_theta_max         70.450
_diffrn_reflns_theta_min         4.113
_diffrn_source                   'Cu GeniX 3D'
_diffrn_source_current           0.600
_diffrn_source_power             0.030
_diffrn_source_voltage           50
_exptl_absorpt_correction_T_max  0.605
_exptl_absorpt_correction_T_min  0.482
_exptl_absorpt_correction_type   multi-scan
_exptl_absorpt_process_details
;
[c.f. r.h. blessing, acta cryst. (1995), a51, 33-38]
;
_exptl_crystal_colour            green
_exptl_crystal_density_diffrn    1.928
_exptl_crystal_description       plate
_exptl_crystal_F_000             318
_refine_diff_density_max         0.258
_refine_diff_density_min         -0.247
_refine_diff_density_rms         0.069
_refine_ls_extinction_coef       0.025(2)
_refine_ls_extinction_expression Fc^*^=kFc[1+0.001xFc^2^\l^3^/sin(2\q)]^-1/4^
_refine_ls_extinction_method     'SHELXL-2014/7 (Sheldrick 2014'
_refine_ls_goodness_of_fit_ref   1.000
_refine_ls_hydrogen_treatment    constr
_refine_ls_matrix_type           full
_refine_ls_number_parameters     191
_refine_ls_number_reflns         2022
_refine_ls_number_restraints     0
_refine_ls_restrained_S_all      1.000
_refine_ls_R_factor_all          0.0490
_refine_ls_R_factor_gt           0.0404
_refine_ls_shift/su_max          0.000
_refine_ls_shift/su_mean         0.000
_refine_ls_structure_factor_coef Fsqd
_refine_ls_weighting_details
'w=1/[\s^2^(Fo^2^)+(0.0768P)^2^] where P=(Fo^2^+2Fc^2^)/3'
_refine_ls_weighting_scheme      calc
_refine_ls_wR_factor_gt          0.1049
_refine_ls_wR_factor_ref         0.1092
_reflns_Friedel_coverage         0.000
_reflns_number_gt                1623
_reflns_number_total             2022
_reflns_threshold_expression     'I > 2\s(I)'
_cod_data_source_file            am9b20295_si_004.cif
_cod_data_source_block           14fac5
_cod_depositor_comments
'Adding full bibliography for 4517419--4517421.cif.'
_cod_database_code               4517419
_shelx_shelxl_version_number     2014/7
_shelx_space_group_comment
;
The symmetry employed for this shelxl refinement is uniquely defined
by the following loop, which should always be used as a source of
symmetry information in preference to the above space-group names.
They are only intended as comments.
;
_shelx_res_file
;

    shelx.res created by SHELXL-2014/7


TITL shelxt_a.res in P-1
REM Old TITL   in P-1

REM SHELXT solution in P-1
REM R1 0.181,  Rweak 0.014,  Alpha 0.082,  Orientation as input
REM Formula found by SHELXT:  C13 F7 S

CELL  1.54186   7.5177   7.7270  11.3250   72.545   77.250   63.092
ZERR    1.000   0.0004   0.0004   0.0006    0.003    0.004    0.003
LATT  1
SFAC C H F S
UNIT  26   4    14   2
L.S. 10
BOND $H
LIST 4
acta
conf
htab
FMAP 2
PLAN 20
HTAB C3 F14
HTAB C4 F8
EQIV $1 -x+1, -y+1, -z
HTAB C4 F8_$1
WGHT    0.076800
EXTI    0.025015
FVAR       0.82744
S1    4    0.101997    0.754347    0.368079    11.00000    0.05001    0.03719 =
         0.04451   -0.00990   -0.00862   -0.00576
F7    3    0.196447    0.935991   -0.223420    11.00000    0.05592    0.05169 =
         0.04339   -0.01213    0.00234    0.00280
F8    3    0.339733    0.674344   -0.024542    11.00000    0.05327    0.05271 =
         0.05193   -0.01141   -0.00082    0.01743
F10   3    0.015431    0.751355    0.614890    11.00000    0.07666    0.05520 =
         0.05638   -0.01720   -0.00965   -0.00765
F11   3    0.040293    0.622750    0.858014    11.00000    0.10157    0.09649 =
         0.05596   -0.02965   -0.00150   -0.03454
F12   3    0.318394    0.256111    0.954409    11.00000    0.12287    0.11087 =
         0.04741    0.00459   -0.02716   -0.05156
F13   3    0.565107    0.017006    0.799403    11.00000    0.10240    0.06468 =
         0.07890    0.01467   -0.04624   -0.01823
F14   3    0.539015    0.135837    0.557292    11.00000    0.08115    0.05073 =
         0.07174   -0.01251   -0.02909    0.00213
C2    1    0.252835    0.513141    0.438219    11.00000    0.04244    0.04031 =
         0.04540   -0.00617   -0.00791   -0.01209
C3    1    0.339052    0.400328    0.351813    11.00000    0.05684    0.03665 =
         0.05214   -0.00717   -0.00884   -0.00298
AFIX  43
H3    2    0.423937    0.265416    0.371493    11.00000   -1.20000
AFIX   0
C4    1    0.288888    0.504886    0.231092    11.00000    0.05863    0.04114 =
         0.04578   -0.01183   -0.00514   -0.00521
AFIX  43
H4    2    0.337267    0.446973    0.162904    11.00000   -1.20000
AFIX   0
C5    1    0.161691    0.700560    0.223665    11.00000    0.03881    0.04001 =
         0.04369   -0.00780   -0.00456   -0.00900
C6    1    0.080164    0.852714    0.111467    11.00000    0.03675    0.03608 =
         0.04399   -0.00946   -0.00464   -0.00611
C7    1    0.093982    0.973300   -0.113650    11.00000    0.04005    0.03987 =
         0.04151   -0.01125   -0.00015   -0.00534
C8    1    0.169411    0.834298   -0.007795    11.00000    0.03535    0.03672 =
         0.05076   -0.01164   -0.00317    0.00130
C9    1    0.272055    0.449974    0.572777    11.00000    0.04831    0.04471 =
         0.04638   -0.00541   -0.01043   -0.01901
C10   1    0.153516    0.567604    0.656594    11.00000    0.05511    0.04948 =
         0.05161   -0.00814   -0.00949   -0.01980
C11   1    0.166247    0.504595    0.783029    11.00000    0.07306    0.07406 =
         0.04599   -0.01731   -0.00457   -0.03569
C12   1    0.305991    0.318588    0.831958    11.00000    0.07878    0.07536 =
         0.04662   -0.00086   -0.01820   -0.03851
C13   1    0.428592    0.199215    0.753163    11.00000    0.07131    0.05765 =
         0.05995    0.00771   -0.02793   -0.02770
C14   1    0.412184    0.262942    0.627302    11.00000    0.06075    0.04700 =
         0.05328   -0.00525   -0.01721   -0.01766
HKLF 4

REM  shelxt_a.res in P-1
REM R1 =  0.0404 for    1623 Fo > 4sig(Fo)  and  0.0490 for all    2022 data
REM    191 parameters refined using      0 restraints

END

WGHT      0.0769      0.0000

REM Instructions for potential hydrogen bonds
HTAB C3 F14
HTAB C4 F8
HTAB C4 F8_$1

REM Highest difference peak  0.258,  deepest hole -0.247,  1-sigma level  0.069
Q1    1   0.1949  0.4629  0.6348  11.00000  0.05    0.26
Q2    1   0.1522  0.7604  0.2832  11.00000  0.05    0.24
Q3    1   0.1040  0.8049  0.0604  11.00000  0.05    0.24
Q4    1   0.2096  0.7815  0.3170  11.00000  0.05    0.24
Q5    1   0.3135  0.5210  0.3813  11.00000  0.05    0.22
Q6    1   0.0134  0.7157  0.4487  11.00000  0.05    0.22
Q7    1   0.1327  0.7732  0.1727  11.00000  0.05    0.22
Q8    1  -0.0195  1.0260 -0.1166  11.00000  0.05    0.21
Q9    1   0.3276  0.4255  0.5776  11.00000  0.05    0.20
Q10   1  -0.0062  0.9800 -0.1035  11.00000  0.05    0.20
Q11   1   0.1317  0.8917  0.0445  11.00000  0.05    0.20
Q12   1   0.2724  0.4660  0.5147  11.00000  0.05    0.19
Q13   1   0.3980  0.4221  0.3392  11.00000  0.05    0.19
Q14   1   0.1523  0.6314  0.3352  11.00000  0.05    0.19
Q15   1   0.4992  0.0144  0.9166  11.00000  0.05    0.19
Q16   1   0.1036  0.5172  0.6929  11.00000  0.05    0.18
Q17   1   0.3727  0.2081  0.8091  11.00000  0.05    0.18
Q18   1   0.1484  0.5593  0.4363  11.00000  0.05    0.18
Q19   1   0.0728  0.6946  0.2532  11.00000  0.05    0.18
Q20   1   0.1305  0.9147 -0.0599  11.00000  0.05    0.18
;
_shelx_res_checksum              2004
_shelx_hkl_file
;
  -4   0   0  108.81    3.28   0-0.46276-0.46049 0.63727-0.25478 0.60184-0.51008
  -3   0  -1    5.58    1.33   0-0.47139-0.20729 0.64023-0.32035 0.59814-0.67203
  -3  -1   0    2.73    1.22   0-0.50555-0.09239 0.65146-0.59337 0.58271-0.46085
  -2   1  -2 1244.41   11.97   0-0.51187-0.01657 0.65345-0.16654 0.57971-0.87309
  -1  -1   1  461.04   17.69   0-0.52918 0.37902 0.65876-0.82663 0.57125-0.35113
  -1   0  -1  184.33    5.99   0-0.50676 0.29030 0.65184-0.52353 0.58214-0.70190
   1   1   0    6.81    1.76   0-0.51616 0.65514 0.65479-0.52348 0.57765-0.65033
  -4   1  -1  224.09    4.93   0-0.51761-0.48693 0.65523-0.00981 0.57695-0.68081
  -4   2  -1   -0.08    1.14   0-0.53928-0.56183 0.66175 0.21500 0.56614-0.72287
  -2  -1   0 5233.87   29.07   0-0.51931 0.15245 0.65576-0.69413 0.57612-0.47667
  -4  -1   0    2.27    1.15   0-0.56164-0.26757 0.66811-0.51439 0.55438-0.40877
  -4   0  -1  235.01    4.59   0-0.54637-0.36295 0.66381-0.24770 0.56248-0.61371
  -3   1  -2  550.41    6.81   0-0.54614-0.21323 0.66374-0.08128 0.56260-0.83326
  -1   1  -2  120.96    4.18   0-0.56215 0.26427 0.66825-0.27659 0.55410-0.87038
  -5   0   0   55.47    2.58   0-0.57793-0.57634 0.67250-0.19395 0.54539-0.43061
  -4   1  -2  242.45    5.04   0-0.61266-0.37760 0.68109-0.00307 0.52498-0.77278
  -3  -1  -1 1346.98   11.49   0-0.61409 0.03028 0.68143-0.59062 0.52410-0.54573
  -3   0  -2  636.09    7.39   0-0.59871-0.06547 0.67777-0.32443 0.53340-0.75131
  -2   0  -2   90.89    3.26   0-0.61618 0.18251 0.68191-0.42405 0.52282-0.76356
  -5   0  -1   -0.55    1.12   0-0.63940-0.49861 0.68696-0.17795 0.50802-0.54194
  -4  -1  -1  230.28    4.60   0-0.63421-0.18006 0.68588-0.49913 0.51140-0.51009
  -4   0  -2  302.20    5.25   0-0.63635-0.25885 0.68633-0.23709 0.51001-0.70450
  -3   1  -3  172.49    4.08   0-0.67393-0.07142 0.69347-0.07750 0.48431-0.89784
  -5  -1  -1  324.67    5.78   0-0.69093-0.35442 0.69619-0.41384 0.47183-0.44774
  -2  -1  -1  662.49    9.38   0-0.67932 0.32670 0.69437-0.69949 0.48042-0.52491
  -5   0  -2   93.86    3.11   0-0.70021-0.42563 0.69752-0.15267 0.46476-0.63656
  -4  -1  -2    5.86    1.23   0-0.71071-0.08967 0.69890-0.47927 0.45655-0.59830
  -4   1  -3    5.34    1.00   0-0.70796-0.26768 0.69855 0.01276 0.45872-0.84975
  -3  -1  -2  380.11    6.05   0-0.71691 0.14774 0.69964-0.57551 0.45159-0.61645
  -3   0  -3   12.77    1.48   0-0.71715 0.06696 0.69967-0.31286 0.45139-0.81230
  -5  -1  -2    1.72    1.05   0-0.74382-0.28670 0.70224-0.38599 0.42898-0.54675
  -4   0  -3   30.56    1.78   0-0.72606-0.15470 0.70064-0.21832 0.44409-0.78205
  -5   0  -3   44.02    2.24   0-0.76711-0.34472 0.70357-0.12565 0.40787-0.72310
  -2   0  -3  664.63    8.03   0-0.76748 0.34817 0.70358-0.41267 0.40752-0.79149
  -4  -1  -3   63.12    2.41   0-0.78486-0.00114 0.70393-0.45066 0.39070-0.67612
  -1   0  -2  390.42    7.73   0-0.76942 0.56700 0.70365-0.54185 0.40570-0.66960
  -5  -1  -3  371.60    5.81   0-0.80221-0.21461 0.70366-0.35507 0.37287-0.63574
  -3  -1  -3   16.03    1.57   0-0.80745 0.25226 0.70345-0.54611 0.36727-0.67508
  -2  -1  -2  169.10    4.56   0-0.80225 0.46374 0.70366-0.67558 0.37283-0.56104
   1   1   1    8.89    1.67   0-0.80039 0.92213 0.70372-0.60368 0.37480-0.30564
  -4  -2  -2   72.05    2.83   0-0.82520 0.11976 0.70157-0.71283 0.34546-0.43459
  -4   0  -4    6.27    1.11   0-0.80899-0.05749 0.70280-0.18934 0.36363-0.84561
  -3  -2  -1   39.93    2.49   0-0.82397 0.33465 0.70169-0.84140 0.34689-0.31523
  -3   0  -4   31.28    1.91   0-0.81890 0.18274 0.70213-0.28374 0.35266-0.85736
  -1  -1   0  143.95    7.24   0-0.83187 0.69550 0.70089-0.83566 0.33764-0.26096
  -5  -1  -4   20.07    1.64   0-0.85601-0.14677 0.69708-0.31800 0.30759-0.71316
  -4  -1  -4  181.58    3.88   0-0.85168 0.07975 0.69790-0.41366 0.31326-0.74191
  -5  -2  -3  114.29    3.28   0-0.86404-0.05770 0.69577-0.57851 0.29613-0.50644
  -4  -2  -3  178.44    4.11   0-0.87211 0.18056 0.69378-0.67174 0.28481-0.51775
  -3  -2  -2  213.83    4.83   0-0.87278 0.39811 0.69360-0.80007 0.28384-0.39582
  -2   0  -4 2184.73   14.47   0-0.87582 0.46969 0.69277-0.36900 0.27944-0.80687
  -3  -1  -4   12.95    1.25   0-0.88048 0.33868 0.69132-0.50191 0.27246-0.72430
  -2  -1  -3    7.51    1.46   0-0.88764 0.56267 0.68900-0.62893 0.26148-0.59260
  -5  -2  -4   42.46    2.15   0-0.90182-0.00591 0.68364-0.53314 0.23837-0.59168
  -5  -1  -5  126.86    3.55   0-0.90458-0.08430 0.68241-0.26959 0.23358-0.78306
  -1   0  -3   95.87    3.77   0-0.90545 0.71666 0.68201-0.48729 0.23205-0.63943
  -4  -2  -4  221.54    4.47   0-0.91368 0.23627 0.67808-0.62286 0.21718-0.59340
  -4  -1  -5   80.97    2.65   0-0.90772 0.14960 0.68109-0.36312 0.22810-0.80043
  -3  -2  -3  145.10    3.82   0-0.91520 0.45454 0.67727-0.75036 0.21432-0.46962
  -1  -1  -1   10.18    2.07   0-0.92370 0.80152 0.67216-0.77381 0.19752-0.26483
  -5  -2  -5    8.69    1.26   0-0.93529 0.04154 0.66396-0.48067 0.17236-0.66848
  -3  -1  -5   22.35    1.68   0-0.93467 0.40724 0.66445-0.44208 0.17378-0.76924
  -4  -2  -5  102.21    3.08   0-0.94681 0.28336 0.65358-0.56531 0.14376-0.66234
  -3  -2  -4  100.59    3.16   0-0.94849 0.50181 0.65182-0.69188 0.13917-0.53811
  -2  -2  -1 8757.05   37.29   0-0.94425 0.68620 0.65612-0.89191 0.15053-0.14158
  -2  -1  -4 1041.19    9.89   0-0.94309 0.63218 0.65722-0.56312 0.15352-0.62831
   0   0   2  191.98    7.07   0-0.94667 0.91794 0.65372-0.72073 0.14414 0.14433
  -5  -3  -4    1.29    0.99   0-0.95304 0.13925 0.64663-0.72494 0.12587-0.42705
  -4  -1  -6   20.71    1.56   0-0.94958 0.20540 0.65060-0.29969 0.13591-0.85145
  -5  -2  -6   23.80    1.69   0-0.96133 0.08123 0.63529-0.41869 0.09882-0.73844
  -2  -2  -2 1043.50   11.41   0-0.96062 0.71678 0.63640-0.83894 0.10136-0.23628
  -1  -1  -2  188.10    5.61   0-0.96304 0.85531 0.63255-0.70065 0.09258-0.30351
  -5  -3  -5   69.43    2.77   0-0.96810 0.16995 0.62327-0.67003 0.07216-0.51615
  -4  -3  -4    0.40    1.02   0-0.96772 0.38517 0.62406-0.79899 0.07383-0.39649
  -3  -1  -6   12.50    1.33   0-0.96820 0.45542 0.62306-0.36836 0.07171-0.81008
   0   0   1    0.04    0.92   0-0.96803 0.95392 0.62341-0.65660 0.07245 0.07111
  -4  -2  -6  181.69    3.98   0-0.96990 0.32079 0.61928-0.49828 0.06378-0.72636
  -3  -2  -5  524.67    6.67   0-0.97065 0.53841 0.61751-0.62517 0.06012-0.60243
  -2  -2  -3  137.69    4.01   0-0.97384 0.74416 0.60889-0.77823 0.04265-0.32116
  -2  -1  -5 1644.65   12.40   0-0.97307 0.67661 0.61115-0.48465 0.04715-0.66536
  -4  -3  -5  602.40    7.46   0-0.97723 0.40950 0.59658-0.73814 0.01851-0.48509
  -5  -3  -6    0.46    0.75   0-0.97793 0.19290 0.59332-0.60632 0.01224-0.59893
  -3  -3  -3   80.45    3.06   0-0.97916 0.61397 0.58603-0.88972-0.00107-0.20147
  -1  -1  -3   43.50    2.72   0-0.97905 0.88570 0.58679-0.62194 0.00029-0.35463
  -4  -2  -7  248.78    4.76   0-0.98034 0.34593 0.57464-0.42100-0.02100-0.78535
  -3  -2  -6    0.04    0.96   0-0.98033 0.56233 0.57473-0.54901-0.02085-0.66415
  -2  -2  -4   27.43    1.99   0-0.98038 0.76490 0.57394-0.70969-0.02221-0.40017
  -4  -3  -6  706.56    7.93   0-0.98072 0.42758 0.56166-0.67062-0.04291-0.56706
  -3  -3  -4   30.68    1.84   0-0.98072 0.62912 0.56363-0.83374-0.03965-0.30652
   0   0  -1    1.97    1.86   0-0.97966 0.99415 0.54266-0.50924-0.07337-0.06983
  -5  -4  -6   22.44    1.82   0-0.97648 0.28777 0.52123-0.76446-0.10578-0.42833
  -3  -3  -5  206.78    4.35   0-0.97847 0.64137 0.53306-0.77016-0.08813-0.40131
  -3  -2  -7    1.01    0.99   0-0.97656 0.57296 0.52164-0.46322-0.10518-0.72396
  -2  -2  -5   64.48    2.52   0-0.97824 0.77691 0.53145-0.63447-0.09056-0.47483
  -1  -1  -4  230.94    5.16   0-0.97872 0.89944 0.53480-0.53698-0.08549-0.41241
  -4  -3  -7   -0.01    0.75   0-0.97608 0.44390 0.51925-0.59640-0.10878-0.64242
  -4  -4  -5    3.14    0.97   0-0.97135 0.50019 0.49946-0.87083-0.13717-0.27520
  -3  -3  -6   40.45    2.14   0-0.97005 0.64759 0.49483-0.69919-0.14356-0.48932
   0   0  -2  182.39    7.05   0-0.96995 0.99854 0.49448-0.42857-0.14405-0.14243
  -4  -4  -6    1.23    1.07   0-0.96280 0.50362 0.47238-0.80923-0.17355-0.38218
  -2  -2  -6  937.32    9.21   0-0.96594 0.77891 0.48151-0.55152-0.16152-0.54720
  -1  -1  -5    2.49    1.24   0-0.96426 0.89983 0.47654-0.44612-0.16810-0.47178
  -2  -3  -3  328.24    6.10   0-0.95433 0.81994 0.45053-0.84957-0.20139-0.02384
  -4  -4  -7  152.82    3.95   0-0.94754 0.50387 0.43512-0.74041-0.22035-0.47946
  -3  -3  -7   24.26    1.65   0-0.95373 0.64497 0.44920-0.62019-0.20313-0.57299
  -2  -3  -4   18.73    1.75   0-0.94939 0.82927 0.43920-0.80484-0.21541-0.15352
   0   0  -3   43.73    3.19   0-0.94943 0.99218 0.43929-0.34020-0.21529-0.21446
  -2  -3  -5  166.40    4.01   0-0.93775 0.83182 0.41476-0.74739-0.24446-0.26763
  -2  -2  -7    4.03    0.94   0-0.94214 0.76918 0.42364-0.46026-0.23409-0.61783
  -1  -2  -3  206.95    5.06   0-0.94109 0.94276 0.42147-0.68646-0.23663-0.06447
  -1  -2  -2   82.12    3.68   0-0.94034 0.92775 0.41995-0.71810-0.23842 0.08105
  -3  -4  -5   95.01    3.07   0-0.93390 0.69194 0.40725-0.87381-0.25309-0.18309
  -3  -3  -8   72.01    2.72   0-0.92749 0.63257 0.39525-0.53308-0.26663-0.65226
  -1  -2  -4  160.70    4.21   0-0.93120 0.94692 0.40212-0.63388-0.25892-0.18580
  -3  -4  -6  409.71    6.16   0-0.92054 0.69284 0.38288-0.81646-0.28040-0.29913
  -2  -3  -6   30.25    1.89   0-0.91878 0.82738 0.37984-0.67967-0.28371-0.37197
  -1  -2  -1  490.20    9.57   0-0.91654 0.88959 0.37598-0.70702-0.28788 0.27424
  -3  -4  -7    1.17    1.01   0-0.90212 0.68635 0.35228-0.74902-0.31285-0.40690
  -1  -2  -5 1910.38   13.30   0-0.91241 0.94239 0.36900-0.56774-0.29532-0.29276
   4   2   1  222.18    4.59   0 0.79575-0.07693-0.87891 0.92321 0.05388-0.10619
   4   2   2   60.82    2.45   0 0.79104-0.08630-0.88248 0.89309 0.05514 0.03609
   4   2   3  143.61    3.78   0 0.80371-0.11297-0.87265 0.84947 0.05172 0.18310
   5   2   1  153.46    3.85   0 0.80079 0.14925-0.87498 0.82212 0.05252-0.12719
   5   2   2   42.72    2.31   0 0.79600 0.13938-0.87871 0.79418 0.05381 0.01455
   2   1  -2  112.53    3.76   0 0.80727-0.41254-0.86983 0.97445 0.05082-0.43525
   4   2   0   89.45    2.97   0 0.81531-0.08223-0.86311 0.94018 0.04857-0.24439
   5   2   0   57.88    2.44   0 0.81938 0.14523-0.85960 0.83942 0.04740-0.26513
   3   2   1   29.69    1.99   0 0.83775-0.34979-0.84270 0.98239 0.04198-0.07229
   3   2   2  163.70    3.99   0 0.83753-0.36302-0.84291 0.94913 0.04205 0.07193
   3   2   0  320.50    5.31   0 0.85541-0.35301-0.82467 0.99720 0.03649-0.21000
   3   2   3  104.40    3.22   0 0.85696-0.39693-0.82298 0.89594 0.03598 0.22089
   4   2  -1   16.29    1.34   0 0.84773-0.10045-0.83274 0.94272 0.03894-0.37844
   5   2  -1   63.81    2.47   0 0.84972 0.12837-0.83068 0.84502 0.03831-0.39988
   1   1   1    6.31    1.57   0 0.89266-0.77100-0.77934 0.88017 0.02347 0.04518
   3   2  -1  456.81    6.27   0 0.88666-0.37019-0.78742 0.99285 0.02571-0.34295
   1   1   0   98.48    4.06   0 0.90010-0.76482-0.76884 0.90279 0.02062-0.09572
   5   3   1   11.65    1.31   0 0.91561-0.06181-0.74493 0.92341 0.01442-0.14274
   5   3   2  163.27    3.67   0 0.91066-0.07036-0.75292 0.89790 0.01650-0.00177
   5   3   3   34.85    1.90   0 0.91561-0.08963-0.74493 0.85736 0.01442 0.14351
   1   1  -1  319.09    7.07   0 0.93435-0.78445-0.71135 0.87743 0.00583-0.22432
   1   1   2  123.15    5.12   0 0.92822-0.82067-0.72302 0.79091 0.00872 0.20376
   4   3   1 2485.18   13.86   0 0.93437-0.30986-0.71131 0.98371 0.00582-0.11199
   4   3   2    8.51    1.23   0 0.93221-0.32232-0.71551 0.95609 0.00685 0.03048
   5   3   0   24.28    1.57   0 0.92838-0.05962-0.72272 0.93316 0.00865-0.28030
   2   2   1 9999.99   30.62   0 0.93992-0.68234-0.70013 0.93525 0.00303-0.01038
   2   2   2  722.07    8.62   0 0.94631-0.70268-0.68630 0.88807-0.00028 0.13613
   4   3   0  335.23    5.23   0 0.94539-0.30682-0.68835 0.99334 0.00020-0.24976
   4   3   3    1.88    0.67   0 0.93923-0.34267-0.70156 0.90831 0.00338 0.17918
   5   3  -1   73.04    2.74   0 0.94751-0.06431-0.68359 0.92673-0.00092-0.41421
   2   2   0  609.10    7.52   0 0.94791-0.67653-0.68267 0.95054-0.00114-0.15015
   2   2  -1  235.87    4.90   0 0.96561-0.67941-0.63668 0.93648-0.01171-0.28314
   2   2   3   89.61    3.39   0 0.96765-0.73830-0.63048 0.79930-0.01309 0.29259
   4   3  -1   56.38    2.32   0 0.96273-0.31057-0.64505 0.98415-0.00984-0.38326
   1   1  -2  153.45    5.08   0 0.97687-0.81275-0.59909 0.79860-0.01994-0.34284
   3   3   0  182.12    4.06   0 0.98105-0.57332-0.58228 0.98309-0.02349-0.20378
   3   3   1  250.57    4.55   0 0.97569-0.58283-0.60346 0.97259-0.01900-0.06491
   3   3   2    2.70    0.88   0 0.97594-0.59763-0.60254 0.93802-0.01920 0.07990
   5   4   2   84.81    2.98   0 0.98205-0.23635-0.57792 0.95152-0.02440-0.01442
   2   2  -2   28.61    2.02   0 0.98662-0.68701-0.55606 0.88935-0.02889-0.40958
   3   3   3   55.77    2.32   0 0.98285-0.61790-0.57439 0.87732-0.02512 0.22831
   5   4   1   24.58    1.69   0 0.98453-0.22521-0.56658 0.97376-0.02673-0.15576
   5   4   3   31.18    1.83   0 0.98393-0.25305-0.56942 0.91108-0.02614 0.13070
   3   3  -1   48.04    2.31   0 0.99030-0.56912-0.53489 0.96953-0.03314-0.33763
   5   4   0   13.65    1.35   0 0.98985-0.21616-0.53772 0.97784-0.03257-0.29309
   4   4   1  104.75    3.30   0 0.99581-0.46689-0.49069 0.99282-0.04177-0.11757
   4   4   2  875.71    8.92   0 0.99522-0.48055-0.49679 0.96680-0.04060 0.02426
   4   4   0   59.18    2.63   0 0.99781-0.45422-0.46380 0.99829-0.04688-0.25629
   4   4   3  129.33    3.54   0 0.99657-0.49621-0.48190 0.91884-0.04348 0.17051
   4   4  -1   21.10    1.70   0 0.99901-0.44165-0.41457 0.98257-0.05585-0.39094
   2   3   1  382.20    6.53   0 0.99783-0.83597-0.37510 0.83998-0.06276 0.00117
   5   5   2  125.78    4.07   0 0.99759-0.34694-0.37080 0.97358-0.06349-0.02877
   5   5   3    2.55    1.20   0 0.99727-0.36070-0.36562 0.93454-0.06438 0.11540
   0   0  -1    0.27    2.86   0 0.99325-0.97930-0.32067 0.35423-0.07187-0.07136
   2   3   0   51.26    2.54   0 0.99695-0.82054-0.36090 0.85807-0.06515-0.14013
   2   3   2   14.47    1.60   0 0.99676-0.84900-0.35820 0.78994-0.06561 0.14722
   3   4   1    3.02    1.29   0 0.99521-0.69718-0.33958 0.93745-0.06874-0.06853
   3   4   2  170.80    4.45   0 0.99514-0.71127-0.33885 0.90396-0.06886 0.07446
   5   5   1   20.05    1.79   0 0.99668-0.33182-0.35712 0.99279-0.06579-0.16988
   1   2   0   27.73    2.70   0 0.99157-0.95106-0.30678 0.67002-0.07413-0.05487
   1   2   1  497.89    9.15   0 0.99080-0.96424-0.30092 0.63129-0.07508 0.08931
   2   3  -1    2.21    1.45   0 0.99265-0.80201-0.31546 0.84622-0.07272-0.27499
   2   3   3  287.02    6.36   0 0.99114-0.85704-0.30346 0.70205-0.07467 0.29986
   3   4   0    0.64    1.20   0 0.99261-0.68077-0.31515 0.94666-0.07277-0.20689
   3   4   3   15.49    1.70   0 0.99203-0.72262-0.31039 0.84328-0.07355 0.22294
   1   2  -1  114.78    4.60   0 0.98559-0.93077-0.26677 0.66249-0.08052-0.19220
   3   4  -1   15.40    1.85   0 0.98583-0.65926-0.26820 0.93211-0.08030-0.34400
   1   2   2   79.13    4.26   0 0.98042-0.96808-0.23880 0.53621-0.08480 0.24243
   4   5   1   56.58    2.85   0 0.98315-0.55010-0.25301 0.98554-0.08261-0.13060
   4   5   2  255.52    5.59   0 0.98476-0.56572-0.26194 0.96152-0.08122 0.01112
   4   5   3    1.59    1.44   0 0.98215-0.57690-0.24767 0.91483-0.08344 0.15829
   4   5   0   19.93    1.91   0 0.97727-0.52984-0.22357 0.98858-0.08711-0.26957
   1   2  -2    8.15    2.01   0 0.96773-0.89893-0.18288 0.61213-0.09315-0.32321
   0  -1  -2  136.91    7.78   0 0.94251-0.81811-0.09740-0.06875-0.10516-0.12817
   0  -1   0  233.41    8.93   0 0.94850-0.85260-0.11573-0.11567-0.10266 0.15690
   2   4   1  178.39    4.96   0 0.94459-0.87768-0.10366 0.79789-0.10431-0.01115
   0  -1  -1 1226.67   21.70   0 0.92889-0.81878-0.05886-0.13988-0.11029 0.02085
   2   4   0  145.84    4.51   0 0.93936-0.85876-0.08817 0.81523-0.10641-0.15243
   2   4   2   32.23    2.31   0 0.94044-0.88782-0.09133 0.75244-0.10598 0.13399
   3   5   0   27.32    2.50   0 0.93207-0.71434-0.06752 0.92756-0.10915-0.22506
   3   5   1   54.68    2.87   0 0.94035-0.73801-0.09104 0.91865-0.10602-0.08490
   3   5   2   30.07    2.25   0 0.94093-0.75267-0.09277 0.88772-0.10579 0.05780
   3   5   3   20.10    2.08   0 0.93305-0.75931-0.07023 0.83223-0.10879 0.20459
   2   4  -1    2.27    1.16   0 0.92438-0.83012-0.04685 0.80644-0.11184-0.28972
   2   4   3  189.71    5.27   0 0.92504-0.88655-0.04858 0.67648-0.11162 0.28323
   1   3   0   48.22    2.93   0 0.91308-0.96820-0.01826 0.61127-0.11548-0.06741
   1   3   1    0.73    1.39   0 0.91261-0.98157-0.01710 0.57732-0.11563 0.07687
   3   5  -1  121.37    4.43   0 0.91344-0.68312-0.01912 0.91305-0.11538-0.36208
   1   3  -1  120.43    4.49   0 0.89952-0.94027 0.01383 0.61211-0.11945-0.20701
   1   3   2    2.30    1.35   0 0.89621-0.97905 0.02134 0.50659-0.12036 0.22442
   0   1  -1   95.83    6.17   0 0.85237-0.93341 0.11151 0.15042-0.13079-0.06617
   1   3   3   70.85    3.87   0 0.85722-0.95433 0.10223 0.39199-0.12977 0.37741
   0   1   0  272.42    9.96   0 0.84991-0.94523 0.11618 0.11289-0.13129 0.07779
   2   5   0  906.62   11.61   0 0.83765-0.85227 0.13875 0.81814-0.13373-0.17819
   2   5   1    0.06    1.29   0 0.84684-0.87945 0.12192 0.79746-0.13192-0.03610
   2   5   2    6.76    1.44   0 0.84405-0.88635 0.12708 0.76292-0.13248 0.10808
   3   6   1   16.10    2.14   0 0.84019-0.73270 0.13414 0.92284-0.13324-0.11095
   3   6   2   86.97    3.93   0 0.84312-0.74992 0.12880 0.89526-0.13266 0.03192
   3   6   3    0.49    1.48   0 0.83457-0.75489 0.14430 0.84633-0.13432 0.17744
   0   0  -2  147.10   21.82   0 0.79577-0.76624 0.21007-0.14511-0.14106-0.14611
   2   5  -1  125.52    4.65   0 0.81506-0.81588 0.17826 0.81138-0.13789-0.31704
   2   5   3    9.49    1.57   0 0.82679-0.88337 0.15808 0.69944-0.13581 0.25394
   0   1  -2   45.83    4.20   0 0.80947-0.87652 0.18763 0.10748-0.13883-0.20172
   0   1   1 1425.58   23.17   0 0.79284-0.90190 0.21473-0.01858-0.14151 0.23185
   1   4   0  296.27    6.43   0 0.80810-0.95874 0.18990 0.63291-0.13906-0.09714
   1   4   1  721.40    9.93   0 0.81100-0.97538 0.18508 0.60461-0.13857 0.04575
   1   4   2    3.36    1.62   0 0.79741-0.97522 0.20739 0.54994-0.14079 0.19164
   0   2  -1  120.62    5.16   0 0.77623-0.95286 0.24074 0.25135-0.14400-0.10645
   0   2   0  358.96    8.28   0 0.78280-0.97367 0.23059 0.22856-0.14304 0.03606
   1   4  -1  148.28    4.65   0 0.78944-0.92595 0.22018 0.63576-0.14204-0.23752
   0   2   1  237.52    6.97   0 0.76030-0.96488 0.26469 0.16151-0.14620 0.18272
   1   4   3  146.85    4.64   0 0.76421-0.95581 0.25890 0.46440-0.14567 0.33982
   0   2  -2  422.09    8.91   0 0.74032-0.90315 0.29357 0.23151-0.14870-0.24500
   0   2   2  809.77   12.17   0 0.70007-0.91839 0.34829 0.04479-0.15320 0.33342
   0   3   0    1.35    1.55   0 0.70377-0.98884 0.34344 0.34494-0.15282-0.00722
   2   6   1   95.61    3.67   0 0.72290-0.84670 0.31781 0.83533-0.15073-0.07059
   2   6   2   57.24    2.88   0 0.72290-0.86034 0.31781 0.80196-0.15073 0.07255
   2   6   3   17.87    1.95   0 0.70678-0.85900 0.33947 0.74747-0.15250 0.21803
   0   3  -1 2006.30   16.08   0 0.69043-0.96248 0.36066 0.36118-0.15409-0.14933
   0   3   1   38.37    2.47   0 0.69211-0.99204 0.35850 0.29713-0.15393 0.13723
   1   5   0   18.87    1.99   0 0.68832-0.93425 0.36335 0.68911-0.15430-0.13456
   1   5   1   95.79    3.49   0 0.69587-0.95526 0.35365 0.66544-0.15355 0.00778
   1   5   2  138.26    4.20   0 0.68613-0.95967 0.36615 0.62008-0.15451 0.15210
   1   5  -1   18.59    1.73   0 0.66395-0.89631 0.39378 0.69168-0.15657-0.27570
  -1  -2  -3  212.79    5.78   0-0.94599 0.94763 0.10881-0.37224 0.10041-0.40050
   0   1   0  256.80    7.71   0-0.94842 0.85241 0.11617 0.11486 0.10005-0.15055
  -3  -5  -2   31.60    1.99   0-0.94087 0.75288 0.09369-0.88856 0.10114-0.05320
  -3  -5  -1   56.33    2.52   0-0.94000 0.73751 0.09119-0.91923 0.10125 0.08998
  -2  -4  -2   35.67    2.10   0-0.94075 0.88788 0.09334-0.75389 0.10115-0.12893
  -2  -4  -1  195.22    4.23   0-0.94446 0.87766 0.10418-0.79826 0.10065 0.01499
  -2  -4   0  159.71    3.98   0-0.93878 0.85828 0.08769-0.81515 0.10141 0.15765
   0   1   2  148.34    6.24   0-0.94389 0.81975 0.10248 0.06056 0.10073 0.13684
  -3  -5  -3   21.49    1.54   0-0.93358 0.75953 0.07324-0.83487 0.10212-0.19750
  -3  -5   0   31.24    1.90   0-0.93095 0.71401 0.06613-0.92693 0.10243 0.23247
  -2  -4  -3  192.88    4.34   0-0.92611 0.88744 0.05337-0.68087 0.10297-0.27418
  -2  -4   1    1.28    1.10   0-0.92276 0.82849 0.04475-0.80453 0.10332 0.29879
   0   1   1 1222.99   17.00   0-0.92948 0.81918 0.06221 0.13478 0.10260-0.00896
  -1  -3  -1    1.72    1.29   0-0.91238 0.98151 0.01916-0.57944 0.10435-0.06541
  -1  -3   0   47.28    2.44   0-0.91207 0.96688 0.01843-0.61149 0.10437 0.07887
  -1  -3  -2    1.66    1.29   0-0.89771 0.98059-0.01468-0.51213 0.10558-0.21015
  -1  -3   1  120.74    3.67   0-0.89618 0.93707-0.01808-0.60885 0.10570 0.22118
  -1  -3  -3   66.43    2.77   0-0.86363 0.96013-0.08532-0.40749 0.10773-0.35467
  -3  -6  -2   88.40    3.00   0-0.84332 0.74953-0.12334-0.90035 0.10861-0.00779
  -2  -5  -2    6.78    1.22   0-0.84424 0.88723-0.12166-0.76882 0.10857-0.08401
  -2  -5  -1    0.85    0.91   0-0.84552 0.87426-0.11934-0.80444 0.10852 0.05951
   0  -1   0  266.44    7.67   0-0.84706 0.94263-0.11652-0.11367 0.10846-0.05309
   0  -1   1   92.33    4.67   0-0.84217 0.92333-0.12541-0.13792 0.10866 0.09011
  -3  -6  -3   -0.06    0.74   0-0.83672 0.76203-0.13511-0.85136 0.10873-0.15434
  -3  -6  -1   16.66    1.45   0-0.83768 0.73114-0.13341-0.92412 0.10870 0.13486
  -2  -5  -3   10.88    1.32   0-0.83014 0.88696-0.14665-0.70991 0.10896-0.22777
  -2  -5   0  888.75    8.92   0-0.83384 0.84860-0.14019-0.81672 0.10883 0.20263
  -1  -4  -1  672.51    7.53   0-0.80977 0.97431-0.18105-0.60904 0.10954-0.01708
  -1  -4   0  271.79    4.91   0-0.80386 0.95430-0.19068-0.63242 0.10968 0.12617
  -1  -4  -2    2.92    0.88   0-0.79960 0.97795-0.19744-0.55960 0.10975-0.16013
  -1  -4   1  137.49    3.67   0-0.78054 0.91710-0.22720-0.62944 0.11009 0.26898
   0  -1  -1 1364.13   16.94   0-0.80048 0.90959-0.19604 0.00025 0.10973-0.19826
   0  -1   2   43.68    3.38   0-0.78277 0.85015-0.22379-0.07337 0.11006 0.23228
  -1  -4  -3  132.59    3.37   0-0.77159 0.96353-0.24078-0.48185 0.11032-0.30517
   0  -2  -1  209.63    4.98   0-0.76336 0.96751-0.25296-0.17247 0.11040-0.14650
   0  -2   0  326.69    6.11   0-0.77857 0.96942-0.23027-0.22949 0.11023-0.00273
   0  -2   1  106.63    3.73   0-0.76430 0.94124-0.25158-0.24132 0.11040 0.14043
  -2  -6  -3   16.16    1.50   0-0.71199 0.86388-0.32429-0.76221 0.11057-0.17711
  -2  -6  -2   58.14    2.44   0-0.72293 0.86104-0.30973-0.81019 0.11060-0.03330
  -2  -6  -1   89.50    2.94   0-0.71860 0.84342-0.31553-0.83794 0.11059 0.10960
   0  -2  -2  799.99    9.49   0-0.71406 0.93215-0.32156-0.07062 0.11058-0.29028
  -1  -5  -2  133.48    3.38   0-0.68855 0.96203-0.35457-0.63113 0.11042-0.10930
  -1  -5  -1   92.03    2.82   0-0.69291 0.95257-0.34906-0.67002 0.11045 0.03383
   0  -3  -1   38.63    2.14   0-0.69272 0.99250-0.34930-0.30631 0.11045-0.09378
   0  -3   0    0.37    1.11   0-0.69629 0.98235-0.34475-0.34445 0.11048 0.04928
  -1  -5  -3    1.24    1.02   0-0.66684 0.95407-0.38135-0.57144 0.11022-0.25207
  -1  -5   0   19.44    1.42   0-0.68021 0.92615-0.36496-0.68784 0.11038 0.17728
   0  -3  -2  113.53    3.23   0-0.66480 0.97849-0.38382-0.23818 0.11020-0.23734
   0  -3   1 2135.79   13.82   0-0.67637 0.94846-0.36972-0.35307 0.11034 0.19294
   0  -1  -2  139.13    5.49   0-0.67915 0.80190-0.36628 0.20412 0.11037-0.34279
   0  -3  -3    3.15    1.03   0-0.60981 0.93692-0.44717-0.14123 0.10924-0.38017
   0  -2  -3  584.82    8.32   0-0.62076 0.85299-0.43502 0.07658 0.10947-0.43293
   0  -4  -2  205.64    4.02   0-0.58649 0.99613-0.47239-0.37957 0.10887-0.18332
   0  -4  -1  211.62    4.00   0-0.60337 0.99839-0.45425-0.43109 0.10928-0.04033
   0  -4   0  574.80    6.66   0-0.59872 0.97999-0.45929-0.45945 0.10917 0.10311
   0  -4  -3   38.14    1.91   0-0.54942 0.97196-0.51044-0.30785 0.10777-0.32542
   0  -4   1   79.43    2.61   0-0.57288 0.94023-0.48652-0.46571 0.10846 0.24714
   0  -5  -1    2.63    0.96   0-0.49451 0.98524-0.56324-0.55154 0.10590 0.01651
   0  -5  -3   82.81    2.65   0-0.46029 0.97825-0.59403-0.45398 0.10453-0.26973
   0  -5  -2   69.67    2.32   0-0.48665 0.99176-0.57044-0.51077 0.10559-0.12776
   0  -5   0    9.06    1.03   0-0.48258 0.95936-0.57414-0.57407 0.10543 0.15974
   1  -3   0   60.51    2.30   0-0.42792 0.94452-0.62178-0.16301 0.10316 0.03326
   1  -2   0  572.74    7.04   0-0.44429 0.86629-0.60790 0.05262 0.10388-0.01981
   1  -2   1  819.96    8.57   0-0.43317 0.84092-0.61737 0.02850 0.10339 0.12398
   1  -3  -1 1286.75    9.67   0-0.42067 0.95145-0.62783-0.12349 0.10282-0.10962
   1  -3   1   97.12    2.93   0-0.40723 0.91121-0.63887-0.17966 0.10219 0.17791
   1  -2  -1  143.97    3.51   0-0.42330 0.85901-0.62564 0.10403 0.10294-0.16230
   1  -4  -1  289.85    4.63   0-0.36354 0.99027-0.67327-0.30736 0.10012-0.05440
   1  -3  -2   33.96    1.68   0-0.38792 0.93272-0.65431-0.06330 0.10133-0.25130
   1  -2  -2  961.47    8.99   0-0.36908 0.81827-0.66902 0.18087 0.10040-0.30299
   1  -4  -2    3.52    0.98   0-0.34518 0.98507-0.68723-0.26006 0.09920-0.19575
   1  -4   0    0.39    0.57   0-0.36137 0.97354-0.67504-0.33951 0.10004 0.09050
   1  -1   0  877.45    9.73   0-0.35268 0.67884-0.68162 0.35601 0.09959-0.06780
   1  -1   1  669.73    8.62   0-0.35131 0.66388-0.68264 0.32334 0.09952 0.07573
   1  -4  -3   94.25    2.72   0-0.30318 0.95704-0.71757-0.19646 0.09692-0.33756
   1  -3  -3  139.68    3.27   0-0.32833 0.88694-0.69962 0.01532 0.09831-0.39171
   1  -1  -1   91.52    3.35   0-0.30327 0.64315-0.71750 0.42543 0.09693-0.20867
   1  -1   2  119.64    3.82   0-0.29629 0.59501-0.72237 0.32958 0.09653 0.22208
   1  -2  -3   79.74    2.84   0-0.27672 0.73999-0.73574 0.28104 0.09545-0.44178
  -1   0  -1  175.20    5.39   0-0.20387-0.01480-0.78224 0.91203 0.09097-0.20902
   1  -1  -2   71.13    3.03   0-0.20143 0.55517-0.78370 0.52523 0.09082-0.34618
   2  -3   0  109.60    2.90   0-0.16748 0.91564-0.80359-0.07683 0.08861 0.02484
   2  -3  -2   44.30    1.90   0-0.12864 0.90385-0.82502 0.01209 0.08589-0.25916
   2  -3  -1   26.37    1.45   0-0.16030 0.92200-0.80768-0.03967 0.08809-0.11781
   2  -3   1  156.53    3.44   0-0.15082 0.88520-0.81297-0.10077 0.08744 0.16919
   2  -2  -1  198.92    3.84   0-0.13632 0.80261-0.82090 0.20354 0.08643-0.16889
   2  -2   0  418.97    5.44   0-0.15513 0.80823-0.81058 0.15946 0.08773-0.02688
   2  -2   1  948.65    8.46   0-0.14549 0.78473-0.81591 0.13191 0.08707 0.11722
  -1   0   0  270.56    6.37   0-0.11615-0.11599-0.83167 0.92732 0.08500-0.05934
   2  -4  -2  114.12    3.02   0-0.10297 0.97456-0.83847-0.20454 0.08405-0.20444
   2  -4  -1   52.58    2.04   0-0.12423 0.98083-0.82742-0.24921 0.08558-0.06273
   2  -4   0   24.89    1.48   0-0.12250 0.96542-0.82833-0.28145 0.08545 0.08066
   2  -4  -3  633.58    7.06   0-0.06209 0.94689-0.85862-0.15129 0.08094-0.34449
   2  -3  -3    4.10    0.97   0-0.07222 0.86166-0.85377 0.07401 0.08170-0.39823
   2  -2  -2   31.68    1.58   0-0.08813 0.76868-0.84599 0.26194 0.08288-0.30852
   2  -1   0  368.73    5.32   0-0.04663 0.60421-0.86582 0.44433 0.07976-0.07124
   2  -1   1   40.52    1.88   0-0.04634 0.59008-0.86595 0.41118 0.07974 0.07208
   2  -2  -3   61.43    2.22   0-0.01093 0.70545-0.88168 0.33105 0.07702-0.44610
   2  -1  -1   58.92    2.26   0-0.01122 0.58252-0.88155 0.49350 0.07704-0.21186
   2  -1   2 1223.56    9.98   0-0.00772 0.53793-0.88305 0.39480 0.07676 0.21861
   2  -1  -2    9.22    1.11   0 0.05937 0.52597-0.90957 0.55479 0.07107-0.34927
   3  -3  -1  103.38    2.87   0 0.07550 0.91728-0.91535-0.02676 0.06970-0.12239
   3  -3   0  134.72    3.24   0 0.06797 0.91126-0.91268-0.06328 0.07034 0.02031
   3  -2   0   93.55    2.66   0 0.08100 0.80224-0.91726 0.17101 0.06922-0.03120
   1   0   1  175.87    5.28   0 0.10550 0.11200-0.92549 0.79578 0.06710 0.05578
   3  -3  -2    1.20    0.86   0 0.10445 0.90254-0.92515 0.01528 0.06719-0.26217
   3  -3   1   82.60    2.59   0 0.08218 0.88295-0.91769-0.09123 0.06913 0.16465
   3  -2  -1    3.72    0.90   0 0.09856 0.79908-0.92322 0.21013 0.06771-0.17322
   3  -2   1   31.95    1.62   0 0.08798 0.78168-0.91967 0.13969 0.06863 0.11260
   1   0   0  279.04    6.37   0 0.11685 0.11419-0.92912 0.83321 0.06614-0.08665
   3  -2  -2   26.82    1.57   0 0.14012 0.77188-0.93618 0.25689 0.06405-0.31263
   3  -1   0 1664.40   10.68   0 0.16796 0.62087-0.94397 0.42720 0.06151-0.07603
   3  -1   1   14.85    1.29   0 0.16683 0.60810-0.94367 0.39322 0.06162 0.06743
   1   0  -1   35.49    2.45   0 0.21022 0.03478-0.95444 0.89198 0.05770-0.22239
   1   0   2  358.60    7.78   0 0.19283 0.01080-0.95035 0.78704 0.05936 0.20698
   3  -1  -1   -0.01    0.63   0 0.19483 0.60175-0.95083 0.47364 0.05917-0.21797
   3  -1   2  587.86    6.44   0 0.19397 0.56685-0.95062 0.36708 0.05926 0.21284
   2   0   0   12.81    1.25   0 0.23178 0.23076-0.95912 0.76725 0.05565-0.09879
   2   0   1  127.51    3.32   0 0.22186 0.22664-0.95702 0.73169 0.05662 0.04280
  -5  -4  -1   25.71    2.21   0-0.73179-0.02781 0.13589-0.54229 0.74923-0.56772
  -5  -3  -2  185.66    4.87   0-0.73261-0.10755 0.13529-0.27937 0.74846-0.76397
  -4  -3  -2    8.03    1.64   0-0.73324 0.12372 0.13484-0.37459 0.74789-0.78503
  -1  -1  -1    7.29    2.27   0-0.73241 0.61088 0.13544-0.23658 0.74866-0.81620
  -4  -4  -1  102.72    3.72   0-0.74323 0.21434 0.12739-0.62953 0.73826-0.57872
  -2  -1  -2  133.87    4.89   0-0.74311 0.40519 0.12749-0.09891 0.73839-0.92689
  -5  -4  -2   92.75    3.72   0-0.77324 0.02763 0.10267-0.47569 0.70437-0.66573
  -4  -2  -3  156.09    4.96   0-0.77352 0.08302 0.10243-0.07883 0.70402-0.93812
  -3  -3  -2    3.52    1.25   0-0.76892 0.39001 0.10648-0.44114 0.70979-0.76986
  -2  -3  -1  414.98    8.40   0-0.77917 0.61668 0.09729-0.56137 0.69659-0.63507
  -5  -3  -3   40.49    2.82   0-0.78639-0.04007 0.09044-0.20072 0.68654-0.84529
  -4  -4  -2 1017.12   11.65   0-0.78856 0.27365 0.08832-0.55712 0.68337-0.66736
  -2  -2  -2  835.79   11.27   0-0.78438 0.54118 0.09238-0.29336 0.68941-0.82478
  -4  -3  -3    0.14    1.03   0-0.79362 0.20270 0.08323-0.28642 0.67567-0.85811
  -3  -2  -3  116.47    4.29   0-0.79938 0.33951 0.07723-0.14912 0.66646-0.92291
  -3  -1  -3   12.91    1.83   0-0.79462 0.24006 0.08222 0.07548 0.67411-0.98404
  -5  -4  -3   37.12    2.68   0-0.81160 0.08006 0.06348-0.40351 0.64478-0.74937
  -1  -2  -1  525.43   11.56   0-0.82435 0.79789 0.04726-0.37745 0.61814-0.63232
  -5  -3  -4    2.78    1.71   0-0.83011 0.01605 0.03910-0.11621 0.60441-0.90737
  -4  -4  -3  154.00    4.60   0-0.82651 0.32565 0.04429-0.47960 0.61323-0.74027
  -4  -2  -4  205.02    5.87   0-0.83197 0.15573 0.03632 0.02065 0.59964-0.97642
  -3  -3  -3   64.98    3.08   0-0.82517 0.46022 0.04616-0.34754 0.61638-0.81966
  -4  -3  -4    0.39    1.42   0-0.83892 0.25621 0.02510-0.19848 0.58010-0.90676
  -2  -3  -2   16.11    2.06   0-0.83507 0.68650 0.03147-0.46200 0.59128-0.67317
  -5  -5  -3    1.43    1.32   0-0.84239 0.20544 0.01894-0.58870 0.56909-0.61999
  -5  -4  -4   32.48    2.36   0-0.84187 0.12423 0.01988-0.32637 0.57077-0.81836
  -2  -1  -3    7.55    1.95   0-0.84233 0.51739 0.01904 0.04349 0.56927-0.90171
  -4  -4  -4  175.21    5.11   0-0.85282 0.36635-0.00330-0.39859 0.52823-0.79896
  -3  -2  -4   94.92    4.25   0-0.85032 0.40438 0.00270-0.04109 0.53948-0.93894
  -2  -2  -3  121.33    4.61   0-0.84795 0.61888 0.00794-0.17512 0.54917-0.82771
  -3  -4  -3   17.30    1.89   0-0.85345 0.58328-0.00492-0.52578 0.52512-0.67475
  -3  -3  -4   29.26    2.52   0-0.85691 0.50550-0.01471-0.25297 0.50640-0.85240
  -1  -1  -2  170.42    6.87   0-0.85474 0.74708-0.00838-0.05837 0.51855-0.72949
  -5  -5  -4   37.58    2.70   0-0.85786 0.23588-0.01779-0.51817 0.50050-0.69552
  -5  -4  -5    0.30    1.60   0-0.86040 0.15625-0.02722-0.24598 0.48198-0.87340
  -1   0  -2  372.24   12.37   0-0.86081 0.65815-0.02897 0.19199 0.47849-0.74243
  -4  -3  -5  543.65    9.00   0-0.86139 0.29370-0.03159-0.10753 0.47338-0.94019
  -2  -3  -3  329.08    7.28   0-0.86148 0.72710-0.03201-0.36502 0.47255-0.69795
  -4  -4  -5    2.77    1.55   0-0.86427 0.39175-0.05197-0.31668 0.43168-0.84530
  -3  -4  -4    3.27    1.67   0-0.86436 0.60767-0.05332-0.44443 0.42886-0.72203
  -1  -2  -2   82.60    4.55   0-0.86365 0.85132-0.04543-0.25119 0.44524-0.60303
  -5  -4  -6   19.58    2.60   0-0.86413 0.17484-0.07510-0.16460 0.38253-0.91582
  -3  -3  -5  198.66    5.53   0-0.86422 0.52721-0.07393-0.16078 0.38509-0.87455
  -3  -2  -5  518.97    9.44   0-0.86455 0.43275-0.06852 0.06344 0.39683-0.93950
  -2  -2  -4   24.96    2.48   0-0.86458 0.64938-0.06770-0.06641 0.39861-0.82030
  -2  -1  -4 1018.77   14.59   0-0.86412 0.55344-0.07517 0.17091 0.38240-0.85737
  -4  -5  -5   53.01    3.22   0-0.86223 0.48416-0.08911-0.50878 0.35143-0.71102
  -4  -3  -6  700.89   11.07   0-0.86230 0.30873-0.08871-0.01712 0.35234-0.96176
  -2  -3  -4   17.75    2.42   0-0.86212 0.74186-0.08966-0.27425 0.35021-0.71879
   0   1   1 1253.37   24.02   0-0.86200 0.75256-0.09031 0.28722 0.34873-0.25688
  -4  -4  -6    0.93    1.65   0-0.85975 0.40090-0.10007-0.23508 0.32653-0.88257
  -3  -4  -5   97.09    4.02   0-0.85978 0.61735-0.09996-0.36408 0.32679-0.76237
  -1  -1  -3   39.45    3.78   0-0.85710 0.76372-0.10896 0.07559 0.30593-0.66036
   0  -1   0  290.29   18.00   0-0.85464 0.95008-0.11583-0.11398 0.28973-0.23603
  -1  -2  -3  205.60    6.41   0-0.85478 0.85634-0.11545-0.14771 0.29062-0.59194
  -4  -5  -6   97.13    4.10   0-0.84904 0.48532-0.12860-0.43627 0.25873-0.76213
  -3  -3  -6   39.76    2.68   0-0.84909 0.52608-0.12851-0.07261 0.25897-0.89184
  -2  -4  -4  448.83    8.68   0-0.84738 0.82186-0.13193-0.46160 0.25059-0.56580
  -2  -2  -5   64.62    3.64   0-0.84730 0.64590-0.13208 0.03139 0.25023-0.81558
  -4  -4  -7  148.23    4.98   0-0.83893 0.39374-0.14667-0.15545 0.21396-0.91299
  -3  -4  -6  403.94    7.87   0-0.84035 0.61154-0.14440-0.28657 0.21971-0.79855
  -2  -3  -5  163.66    5.03   0-0.84254 0.73596-0.14077-0.18958 0.22882-0.74088
  -1  -3  -3   70.30    3.77   0-0.83517 0.93167-0.15231-0.34068 0.19939-0.44727
  -1   0  -3   86.40    5.67   0-0.83309 0.64423-0.15529 0.35174 0.19173-0.59950
  -2  -4  -5  457.94    8.34   0-0.82223 0.81068-0.16929-0.39059 0.15515-0.61354
  -1  -2  -4  164.02    5.53   0-0.82237 0.83754-0.16913-0.06054 0.15557-0.59996
  -3  -5  -6   94.71    4.08   0-0.81571 0.68245-0.17669-0.48414 0.13504-0.66091
  -3  -3  -7   25.43    2.60   0-0.81455 0.50572-0.17795 0.00976 0.13162-0.90760
  -1  -1  -4  209.23    6.67   0-0.81529 0.73548-0.17714 0.17710 0.13381-0.63179
  -3  -4  -7    1.19    1.24   0-0.80666 0.59286-0.18608-0.21161 0.10924-0.83221
  -2  -3  -6   30.57    2.33   0-0.80720 0.71434-0.18554-0.11163 0.11073-0.76595
  -2  -2  -6  899.56   11.85   0-0.80675 0.61940-0.18599 0.11830 0.10949-0.81814
  -1  -3  -4  303.15    7.06   0-0.80359 0.91409-0.18907-0.27060 0.10094-0.49254
   0  -1  -1 1318.38   23.76   0-0.80312 0.91254-0.18952-0.00673 0.09968-0.18951
  -2  -4  -6   50.73    2.99   0-0.78679 0.78948-0.20399-0.32259 0.05856-0.66082
   0   0   1   -0.05    1.30   0-0.79133 0.77687-0.20017 0.16839 0.06955 0.07115
  -3  -5  -7   29.20    2.45   0-0.78015 0.66102-0.20934-0.41836 0.04288-0.71261
  -1  -2  -5 1963.34   16.85   0-0.77618 0.80559-0.21241 0.01582 0.03385-0.62162
  -3  -4  -8   37.01    2.65   0-0.75981 0.56042-0.22424-0.14093-0.00159-0.86476
  -1  -3  -5   12.57    2.03   0-0.76371 0.88803-0.22154-0.20436 0.00661-0.54194
  -2  -3  -7   11.20    1.57   0-0.75836 0.68001-0.22520-0.03895-0.00469-0.79426
  -2  -2  -7    3.35    1.72   0-0.74920 0.57544-0.23123 0.19729-0.02328-0.82878
  -1  -1  -5    2.70    1.45   0-0.75581 0.69018-0.22692 0.25923-0.00994-0.63177
   0  -2  -2  765.09   12.97   0-0.74562 0.96408-0.23351-0.15913-0.03037-0.15005
   0  -1  -2  144.87    6.23   0-0.75933 0.88254-0.22455 0.06187-0.00268-0.23094
  -2  -4  -7  188.39    5.03   0-0.74186 0.75850-0.23583-0.25799-0.03770-0.70797
  -1  -3  -6  179.43    4.84   0-0.71640 0.85476-0.25042-0.14277-0.08474-0.59318
  -1  -2  -6  147.50    4.66   0-0.72033 0.76387-0.24829 0.08464-0.07774-0.65368
   0  -2  -3  577.61    9.78   0-0.71595 0.94819-0.25066-0.10852-0.08554-0.23830
   0  -1  -3   19.30    2.72   0-0.71409 0.85138-0.25165 0.12194-0.08881-0.28810
   0  -1   1   83.39   10.17   0-0.70963 0.79107-0.25398-0.00982-0.09658 0.29429
   0   0  -1    0.57    1.63   0-0.72289 0.73715-0.24688 0.28028-0.07314-0.07084
  -2  -3  -8  121.72    4.21   0-0.69794 0.63406-0.25978 0.02831-0.11651-0.82565
  -2  -4  -8   18.54    1.74   0-0.68767 0.71831-0.26463-0.19637-0.13353-0.75490
  -1  -4  -6  200.05    5.10   0-0.68086 0.91425-0.26776-0.35508-0.14447-0.48040
  -1  -1  -6   49.89    3.06   0-0.68626 0.63487-0.26528 0.33095-0.13580-0.64909
   0  -2  -4  748.51   10.02   0-0.67834 0.92459-0.26889-0.05717-0.14845-0.31886
   0   0  -2  141.88    6.72   0-0.68146 0.70916-0.26749 0.33441-0.14351-0.14308
  -1  -3  -7   34.55    2.32   0-0.66136 0.81394-0.27617-0.08438-0.17473-0.64638
   0  -1  -4    9.26    2.07   0-0.66446 0.81560-0.27487 0.17899-0.17002-0.35088
  -1  -2  -7   93.48    3.43   0-0.65632 0.71389-0.27820 0.14748-0.18240-0.69234
   0  -3  -4  370.68    7.14   0-0.64342 0.98572-0.28331-0.27256-0.20136-0.21305
  -1  -4  -7   37.52    2.30   0-0.63267 0.88026-0.28729-0.30268-0.21678-0.55158
   0  -2  -5  426.65    7.01   0-0.63353 0.89414-0.28698-0.00592-0.21557-0.39525
   0   0  -3   36.68    2.90   0-0.63353 0.67543-0.28698 0.38703-0.21557-0.21458
  -1  -3  -8   26.55    2.05   0-0.59837 0.76486-0.29909-0.02835-0.26348-0.70122
   0  -3  -5  312.74    6.01   0-0.61135 0.96695-0.29480-0.22786-0.24621-0.31141
   0  -1  -5   13.30    1.63   0-0.61029 0.77573-0.29516 0.23167-0.24765-0.41576
  -1  -4  -8   47.73    2.50   0-0.57697 0.83848-0.30566-0.25145-0.29100-0.62044
  -1  -2  -8  239.08    5.47   0-0.58390 0.65570-0.30358 0.20545-0.28224-0.73584
   0  -2  -6  381.20    6.43   0-0.58250 0.85694-0.30401 0.04402-0.28401-0.47029
   0   0  -4  254.83    6.35   0-0.57964 0.63593-0.30487 0.43796-0.28763-0.28592
   0  -3  -6   24.24    1.71   0-0.56999 0.93966-0.30787-0.18171-0.29954-0.40130
   0  -1  -6    1.76    1.26   0-0.55039 0.72919-0.31332 0.28342-0.32340-0.48305
   0  -3  -7    2.45    0.97   0-0.52003 0.90423-0.32098-0.13454-0.35868-0.48540
   0  -2  -7  103.23    3.25   0-0.52364 0.81305-0.32011 0.09310-0.35459-0.54273
   1  -3  -3  164.45    5.63   0 0.22138 0.33714-0.87395 0.19002 0.67289-0.96605
   2  -4  -2  104.25    4.29   0 0.20934 0.66107-0.86702-0.17590 0.68243-0.80155
   2   0   0   11.81    2.92   0 0.23118 0.23065-0.87946 0.68825 0.66497-0.70943
   3  -3  -1  102.09    4.43   0 0.23241 0.75955-0.88014-0.06235 0.66396-0.71540
   2  -2  -2   38.57    2.89   0 0.23504 0.44507-0.88161 0.29793 0.66178-0.88697
   3  -2  -1    3.30    1.33   0 0.24379 0.65313-0.88637 0.17332 0.65455-0.75914
   0  -2  -3  610.77   11.14   0 0.28795-0.05568-0.90894 0.55073 0.61631-0.93962
   1  -2  -3   93.19    4.35   0 0.30452 0.15865-0.91675 0.46253 0.60118-0.94721
   1  -1  -2   70.23    4.30   0 0.30271 0.05127-0.91592 0.65787 0.60285-0.85820
   2  -4  -3  643.65    9.75   0 0.30554 0.57945-0.91722-0.09264 0.60024-0.86315
   2  -3  -3    3.26    1.78   0 0.30927 0.48035-0.91892 0.13779 0.59677-0.91229
   1  -4  -4  337.64    7.27   0 0.32538 0.34247-0.92603 0.04575 0.58152-0.96515
   3  -3  -2    0.70    1.24   0 0.32046 0.68643-0.92389 0.01399 0.58622-0.78106
   3  -1  -1    0.53    1.12   0 0.31507 0.48730-0.92152 0.43772 0.59132-0.74930
   0  -1  -2  153.98    6.35   0 0.34289-0.21980-0.93334 0.77131 0.56448-0.79736
   1  -3  -4   43.63    2.64   0 0.35867 0.21374-0.93953 0.28854 0.54868-0.98451
   2  -2  -3   72.20    3.47   0 0.36363 0.32981-0.94140 0.39112 0.54363-0.91263
   2  -1  -2   10.04    1.74   0 0.34904 0.23560-0.93580 0.58210 0.55837-0.83646
   3  -2  -2   30.12    2.25   0 0.34565 0.56505-0.93445 0.25493 0.56175-0.80986
   3  -3  -3    9.29    1.57   0 0.40825 0.61183-0.95642 0.08034 0.49614-0.83447
   2  -3  -4   94.39    3.52   0 0.41718 0.38638-0.95902 0.21179 0.48620-0.94474
   2   0  -1  375.05    7.51   0 0.41819 0.05785-0.95931 0.80120 0.48507-0.67315
   3  -1  -2   27.49    2.31   0 0.42440 0.39112-0.96102 0.51095 0.47804-0.77904
   1  -2  -4  752.00    9.49   0 0.45151 0.02625-0.96772 0.54625 0.44640-0.93588
   1   0  -1   38.67    3.21   0 0.45187-0.20666-0.96780 0.90567 0.44597-0.61139
   3  -2  -3  215.79    5.16   0 0.44222 0.48275-0.96559 0.31874 0.45742-0.84844
   0  -2  -4  656.41    9.18   0 0.47758-0.23039-0.97279 0.64723 0.41425-0.88148
   1  -3  -5    7.40    1.34   0 0.48195 0.10485-0.97351 0.35586 0.40874-0.98864
   1  -1  -3  115.96    3.92   0 0.47654-0.10832-0.97262 0.74763 0.41555-0.81480
   2  -2  -4  377.47    6.53   0 0.47758 0.23078-0.97279 0.45553 0.41425-0.92655
   2  -1  -3  349.00    6.15   0 0.47780 0.12122-0.97283 0.65167 0.41397-0.83565
   3   0  -1  373.45    6.72   0 0.46424 0.24245-0.97037 0.71622 0.43080-0.64162
   2  -3  -5  439.30    7.08   0 0.51622 0.30164-0.97758 0.26381 0.36369-0.96637
   3  -1  -3  117.20    3.60   0 0.52105 0.30923-0.97794 0.56121 0.35711-0.80261
   2   0  -2  110.08    3.50   0 0.54706-0.05738-0.97884 0.85420 0.32045-0.65188
   3  -2  -4    3.82    1.14   0 0.53066 0.40887-0.97848 0.36428 0.34376-0.87918
   0  -1  -3   18.82    1.96   0 0.56210-0.42446-0.97855 0.84951 0.29832-0.67508
   1  -2  -5  478.61    6.67   0 0.56822-0.07617-0.97822 0.58994 0.28911-0.92217
   3   0  -2   81.69    2.98   0 0.55918 0.16167-0.97866 0.75786 0.30268-0.65730
   2  -2  -5    9.05    1.13   0 0.57376 0.14936-0.97779 0.49267 0.28059-0.93613
   2  -1  -4  761.11    8.05   0 0.58046 0.03352-0.97718 0.68975 0.27021-0.83583
   1  -1  -4  102.67    3.12   0 0.59728-0.21444-0.97497 0.78315 0.24321-0.78623
   1   0  -2 1108.18   11.09   0 0.60581-0.34602-0.97348 0.94428 0.22916-0.53830
   2  -3  -6  126.75    3.42   0 0.60250 0.22984-0.97409 0.29319 0.23465-0.98047
   3  -1  -4   32.12    1.95   0 0.60188 0.24258-0.97420 0.59042 0.23567-0.82436
   3  -2  -5   43.97    2.21   0 0.60822 0.34552-0.97299 0.39271 0.22508-0.90377
   2   0  -3  126.47    3.31   0 0.63696-0.13231-0.96550 0.87388 0.17498-0.65068
   3   0  -3  121.27    3.27   0 0.63431 0.10070-0.96634 0.77921 0.17976-0.67840
   1  -2  -6   55.91    2.25   0 0.65738-0.15093-0.95774 0.60244 0.13669-0.91318
   2  -2  -6  135.36    3.56   0 0.65305 0.08428-0.95955 0.50820 0.14500-0.94435
   2  -1  -5   58.53    2.23   0 0.65920-0.03139-0.95695 0.70252 0.13315-0.84254
   4  -1  -4  153.63    3.92   0 0.64631 0.42872-0.96217 0.48340 0.15773-0.76993
   0  -1  -4    8.29    1.26   0 0.67586-0.52366-0.94872 0.85268 0.09966-0.62014
   2   1   0 5527.79   28.82   0 0.66741-0.29931-0.95310 0.99160 0.11686-0.21543
   3  -1  -5    8.33    1.24   0 0.66912 0.18889-0.95225 0.60333 0.11341-0.84589
   0   0   1   -0.04    0.53   0 0.68735-0.70272-0.94197 0.90896 0.07539 0.06783
   1  -1  -5  735.71    7.36   0 0.68093-0.28302-0.94585 0.78696 0.08907-0.77616
   1   0  -3    0.63    0.99   0 0.69010-0.41655-0.94022 0.94465 0.06941-0.52300
   2   0  -4  219.70    4.00   0 0.70081-0.18134-0.93278 0.87434 0.04544-0.66532
   3   0  -4  184.48    3.70   0 0.69312 0.05604-0.93822 0.78479 0.06274-0.70525
   2  -2  -7   25.00    1.66   0 0.71565 0.03600-0.92069 0.50325 0.01021-0.95353
   2   1  -1  328.90    5.81   0 0.71187-0.33015-0.92397 0.99586 0.01940-0.26197
   3   1  -2   32.67    1.79   0 0.71266-0.08651-0.92330 0.93278 0.01750-0.42643
   2  -1  -6   62.91    2.21   0 0.71908-0.07690-0.91750 0.69692 0.00166-0.85509
   3  -1  -6   20.91    1.44   0 0.72225 0.15081-0.91449 0.59773-0.00635-0.86985
  -1  -1  -2  146.97    7.21   0 0.74037-0.84728-0.89471 0.82746-0.05509-0.15571
   0  -1  -5   11.95    1.27   0 0.74068-0.57378-0.89433 0.83127-0.05597-0.60831
   1  -1  -6    0.78    0.79   0 0.73843-0.32715-0.89708 0.77135-0.04959-0.78059
   1   0  -4 1545.36   10.41   0 0.74116-0.45252-0.89373 0.93085-0.05735-0.53923
   3   0  -5   24.62    1.55   0 0.73846 0.02460-0.89704 0.77766-0.04969-0.73660
  -1  -1   0  111.37    4.76   0 0.74643-0.88207-0.88680 0.75308-0.07286 0.14974
   0   0  -1    0.50    0.78   0 0.74657-0.73273-0.88662 0.92000-0.07326-0.07096
   2   0  -5   60.31    2.04   0 0.74630-0.21318-0.88698 0.86217-0.07246-0.69044
   2   1  -2  113.76    3.03   0 0.74441-0.34860-0.88949 0.99457-0.06688-0.31920
   3   1  -3   73.21    2.40   0 0.74690-0.10662-0.88617 0.92932-0.07425-0.47824
   2  -1  -7  145.55    3.36   0 0.76209-0.10525-0.86288 0.67483-0.12266-0.87369
   0   0  -2  156.98    4.54   0 0.76807-0.73897-0.85193 0.91888-0.14378-0.14337
   2   1  -3  126.48    3.01   0 0.76927-0.35936-0.84957 0.98746-0.14820-0.38106
   1  -1  -7   44.11    1.87   0 0.77674-0.35042-0.83341 0.74120-0.17727-0.79673
   1   0  -5  263.67    4.18   0 0.77473-0.47207-0.83799 0.90871-0.16919-0.57104
   2   0  -6  147.99    3.17   0 0.77800-0.23065-0.83041 0.83894-0.18252-0.72374
   3   0  -6  156.29    3.36   0 0.77156 0.00641-0.84484 0.75789-0.15682-0.77253
   3   1  -4  853.53    7.44   0 0.77292-0.11837-0.84195 0.91807-0.16207-0.53376
   0   0  -3   37.45    2.03   0 0.78545-0.74228-0.81049 0.91089-0.21587-0.21479
   2   1  -4  183.04    3.37   0 0.78791-0.36362-0.80289 0.97430-0.22802-0.44492
   3   1  -5   20.22    1.34   0 0.79161-0.12276-0.79024 0.89922-0.24771-0.59115
   1   0  -6   26.68    1.44   0 0.79548-0.47878-0.77478 0.87900-0.27087-0.61277
   0   0  -4  254.41    4.31   0 0.79784-0.74025-0.76346 0.89703-0.28712-0.28716
   1   1  -2  180.74    3.86   0 0.79872-0.63376-0.75889 0.96012-0.29359-0.06987
   1   1  -1  378.67    6.37   0 0.79885-0.64792-0.75822 0.92630-0.29453 0.07454
   2   0  -7    1.85    0.62   0 0.79795-0.23682-0.76292 0.80530-0.28788-0.76291
   2   1  -5    0.03    0.68   0 0.80003-0.36832-0.75156 0.95585-0.30379-0.50538
   1   1  -3 1218.21    8.96   0 0.80246-0.62310-0.73537 0.96970-0.32575-0.18119
   3   1  -6   73.07    2.25   0 0.80312-0.12006-0.73022 0.87222-0.33255-0.64942
   0   0  -5 1827.29   10.89   0 0.80518-0.73338-0.70943 0.87656-0.35907-0.35891
   1   0  -7  160.27    3.22   0 0.80561-0.47448-0.70372 0.84135-0.36617-0.66086
   3   2  -3   92.36    2.51   0 0.80478-0.25889-0.71417 0.98650-0.35311-0.25277
   1   1  -4  123.31    2.71   0 0.80587-0.61239-0.69859 0.96597-0.37235-0.27798
   1   1   0  107.39    4.35   0 0.80681-0.67005-0.67541 0.81017-0.40001 0.32359
   2   1  -6   27.64    1.45   0 0.80639-0.35457-0.68858 0.92759-0.38446-0.57521
   3   2  -4  161.83    3.12   0 0.80682-0.24755-0.67445 0.98096-0.40111-0.34812
   0   0  -6    6.01    0.73   0 0.80679-0.72117-0.64823 0.84863-0.43079-0.43057
   1   1  -5    9.01    0.82   0 0.80686-0.59960-0.65164 0.95233-0.42702-0.36660
   2   2  -2   31.91    1.55   0 0.80632-0.50567-0.63367 0.96902-0.44664 0.00689
   3   2  -5    3.80    0.72   0 0.80600-0.23277-0.62672 0.96588-0.45406-0.43759
   2   1  -7  121.41    2.73   0 0.80561-0.33901-0.62005 0.89191-0.46106-0.64194
   2   2  -3   14.21    1.00   0 0.80581-0.49093-0.62356 0.99193-0.45737-0.12564
   2   2  -1  266.49    4.44   0 0.80521-0.51851-0.61398 0.91630-0.46738 0.17109
   1   1  -6   28.54    1.29   0 0.80368-0.58167-0.59593 0.92981-0.48574-0.45139
   2   2  -4  925.55    6.96   0 0.80368-0.47433-0.59593 0.99732-0.48574-0.24070
   2   6   1   89.98    2.79   0 0.36986-0.49206 0.37035 0.78246 0.48426-0.70600
   2   3  -2   99.66    2.95   0 0.35696-0.15266 0.40494 0.15877 0.45709-0.94889
   0   2  -1  122.10    3.44   0 0.34950-0.52581 0.42400 0.06881 0.44162-0.69144
   1   4  -1  140.82    3.25   0 0.35029-0.48463 0.42202 0.43356 0.44325-0.82249
   1   5   0   18.85    1.46   0 0.34635-0.58993 0.43185 0.62023 0.43512-0.72368
   2   5  -1  111.88    3.11   0 0.34373-0.34254 0.43831 0.55110 0.42971-0.88358
   0   1  -1   95.89    3.51   0 0.33736-0.41895 0.45362-0.19013 0.41675-0.61323
   0   4   0  532.96    6.43   0 0.33488-0.71472 0.45949 0.45900 0.41170-0.62461
   1   2  -2    8.95    1.03   0 0.33736-0.26836 0.45362-0.02375 0.41675-0.83256
   2   4  -2  676.04    7.42   0 0.33099-0.22112 0.46859 0.32431 0.40378-0.94783
   0   3  -1 2025.71   12.44   0 0.32797-0.59889 0.47551 0.24676 0.39769-0.70055
   1   3  -2   85.42    2.62   0 0.32672-0.35293 0.47837 0.18118 0.39515-0.86390
   1   5  -1   20.78    1.47   0 0.30344-0.53310 0.52896 0.55651 0.34866-0.78026
  -1   2   0  570.21    7.67   0 0.30063-0.72209 0.53497 0.02075 0.34308-0.42675
   0   4  -1   80.47    2.50   0 0.29109-0.65654 0.55418 0.39703 0.32437-0.68018
   1   1  -2  182.73    4.55   0 0.30018-0.13673 0.53589-0.33522 0.34220-0.70475
   1   4  -2   -0.04    0.59   0 0.29750-0.41664 0.54135 0.34015 0.33693-0.85882
   2   5  -2  117.72    3.17   0 0.29189-0.27677 0.55259 0.46972 0.32593-0.92277
   0   2  -2  473.32    6.03   0 0.27992-0.44242 0.57575-0.04964 0.30266-0.69581
  -1   1   0  848.57   10.99   0 0.26813-0.59530 0.59762-0.27134 0.27992-0.31030
   0   3  -2   91.38    2.60   0 0.27203-0.52906 0.59047 0.16492 0.28742-0.73350
  -1   2  -1  845.34    8.43   0 0.24847-0.65549 0.63209-0.04340 0.24248-0.46937
   1   2  -3   88.33    2.58   0 0.25334-0.17096 0.62378-0.16041 0.25170-0.81079
   1   3  -3  535.39    5.90   0 0.25923-0.27161 0.61351 0.07922 0.26292-0.87507
   1   5  -2   14.33    1.27   0 0.25400-0.47075 0.62263 0.49617 0.25297-0.82863
  -1   3  -1   99.01    2.85   0 0.23842-0.74043 0.64877 0.16950 0.22353-0.50373
   0   1  -2   48.43    2.12   0 0.24050-0.30820 0.64535-0.34866 0.22745-0.56744
   0   4  -2   69.29    2.25   0 0.24246-0.59410 0.64210 0.34281 0.23115-0.72991
   0   5  -1    0.65    0.64   0 0.24099-0.70150 0.64454 0.53633 0.22837-0.63737
   1   4  -3   47.91    2.00   0 0.23873-0.34572 0.64825 0.27426 0.22412-0.88897
  -1   1  -1  664.14    7.96   0 0.20573-0.51890 0.69915-0.33921 0.16275-0.33674
   0   2  -3 2439.91   12.05   0 0.21037-0.35883 0.69234-0.13318 0.17131-0.70789
   0   3  -3   41.19    1.72   0 0.21317-0.45625 0.68816 0.10078 0.17649-0.76560
  -1   2  -2  198.71    3.77   0 0.19550-0.58881 0.71366-0.09161 0.14407-0.51454
  -1   3  -2   70.14    2.32   0 0.19235-0.68047 0.71806 0.13324 0.13831-0.56209
   0   4  -3  124.70    2.96   0 0.18972-0.52754 0.72170 0.29640 0.13351-0.77570
   1   3  -4    5.98    0.82   0 0.18818-0.18651 0.72383 0.00184 0.13069-0.88596
   1   4  -4   55.69    2.10   0 0.17485-0.26850 0.74153 0.21432 0.10655-0.91527
   0   0   1    0.06    0.56   0 0.15665-0.17094 0.76443-0.79803 0.07384 0.07048
   0   1  -3  436.69    5.50   0 0.15831-0.21220 0.76239-0.43205 0.07681-0.56064
  -1   1  -2  124.06    3.04   0 0.14979-0.44870 0.77239-0.37961 0.06176-0.37914
  -1   2  -3   22.78    1.42   0 0.14250-0.52174 0.78096-0.12610 0.04879-0.56254
  -1   3  -3  100.15    2.67   0 0.14413-0.61829 0.77906 0.10556 0.05169-0.61855
   0   2  -4  102.43    2.42   0 0.14196-0.27681 0.78159-0.18871 0.04782-0.72810
   0   3  -4   75.85    2.19   0 0.15140-0.38112 0.77046 0.05126 0.06464-0.79757
   0   4  -4   58.22    2.05   0 0.13282-0.45791 0.79176 0.25937 0.03175-0.81820
   1   0   1  181.70    5.12   0 0.12985 0.08622 0.79505-0.92405 0.02652 0.09498
  -1   4  -3  190.52    3.62   0 0.11857-0.68831 0.80722 0.30658 0.00667-0.62708
  -1   1  -3    2.36    0.68   0 0.09731-0.38058 0.82879-0.40378-0.03041-0.43092
  -1   2  -4   63.89    2.01   0 0.08958-0.45509 0.83618-0.14749-0.04381-0.61311
  -1   3  -4  212.73    3.80   0 0.09368-0.55406 0.83229 0.08570-0.03671-0.67339
   0   3  -5   59.07    1.95   0 0.08880-0.30474 0.83691 0.01823-0.04516-0.83099
   0   0  -1    0.63    1.02   0 0.07279-0.05849 0.85126-0.81831-0.07260-0.07043
   0   1  -4  189.04    3.35   0 0.08564-0.12573 0.83971-0.47637-0.05050-0.57652
   0   2  -5    3.55    0.74   0 0.07531-0.19511 0.84904-0.22313-0.06828-0.75549
  -2   1  -2 1181.20    9.09   0 0.03972-0.56932 0.87799-0.38925-0.12884-0.16556
  -2   2  -3  126.35    2.88   0 0.05341-0.66393 0.86743-0.11622-0.10565-0.38554
  -1   1  -4  405.78    4.74   0 0.04620-0.31701 0.87308-0.41386-0.11788-0.48633
  -1   3  -5   36.48    1.68   0 0.04134-0.48783 0.87677 0.07464-0.12610-0.72721
  -1   2  -5  120.12    2.51   0 0.03548-0.38729 0.88105-0.15965-0.13590-0.66469
   0   0  -2  181.70    4.87   0 0.03069-0.00382 0.88450-0.81737-0.14397-0.14307
  -2   1  -3  173.25    3.23   0 0.01400-0.52978 0.89579-0.37385-0.17189-0.26618
  -2   2  -4  171.49    3.25   0 0.01598-0.61253 0.89451-0.11038-0.16859-0.46597
   0   1  -5   91.47    2.25   0 0.01909-0.04522 0.89246-0.49609-0.16340-0.60699
  -1   0  -2  371.49    5.76   0-0.00784-0.19650 0.90898-0.74564-0.20808-0.05636
  -1   0  -1  179.96    4.87   0-0.01253-0.20590 0.91158-0.78161-0.21580 0.09517
  -1   1  -5    1.18    0.63   0-0.00440-0.25166 0.90702-0.41599-0.20240-0.54442
   0   0  -3   45.24    2.18   0-0.01227 0.05322 0.91143-0.81096-0.21536-0.21524
  -2   1  -4   99.00    2.33   0-0.01741-0.48426 0.91416-0.35910-0.22381-0.35763
  -2   2  -5  274.16    4.12   0-0.02466-0.55811 0.91788-0.10081-0.23569-0.54237
  -1   0  -3   91.46    2.62   0-0.02695-0.16301 0.91901-0.72231-0.23944-0.16813
  -1   2  -6    4.96    0.67   0-0.01882-0.31865 0.91490-0.16007-0.22613-0.71844
  -2   1  -5   11.60    0.84   0-0.05295-0.43462 0.93043-0.34222-0.28162-0.44325
  -1   0  -4  848.78    7.08   0-0.05694-0.11915 0.93196-0.70210-0.28805-0.26329
  -1   1  -6   86.20    2.14   0-0.05520-0.18780 0.93130-0.40585-0.28524-0.60570
   0   0  -4  289.91    4.67   0-0.05634 0.11126 0.93173-0.79796-0.28708-0.28703
  -2   2  -6 1164.35    8.34   0-0.06777-0.50101 0.93578-0.08589-0.30542-0.61597
  -2   0  -4 2168.78   10.92   0-0.09609-0.31065 0.94354-0.61798-0.35039-0.17798
  -2   0  -3  666.82    6.42   0-0.08288-0.33825 0.94032-0.64787-0.32950-0.05562
  -2   0  -2   96.61    2.73   0-0.08553-0.34989 0.94102-0.68183-0.33370 0.09208
  -2   1  -6    5.15    0.78   0-0.09216-0.38159 0.94265-0.32198-0.34419-0.52415
  -1   0  -5   65.29    1.99   0-0.09197-0.07005 0.94261-0.67973-0.34389-0.35072
  -1   0   0  282.57    8.70   0-0.11648-0.11633 0.94712-0.85049-0.38235 0.40555
  -1   1  -7    8.21    0.84   0-0.10657-0.12266 0.94559-0.38673-0.36687-0.66745
  -3   1  -5  300.78    4.16   0-0.12047-0.59798 0.94762-0.26423-0.38856-0.31360
  -2   0  -5   99.17    2.29   0-0.11855-0.27444 0.94739-0.58816-0.38558-0.28619
  -2   0  -1  137.02    3.71   0-0.11965-0.33015 0.94752-0.72145-0.38728 0.28940
  -1   0  -6  116.46    2.51   0-0.13045-0.01764 0.94857-0.65252-0.40400-0.43392
  -2   1  -7  304.69    3.94   0-0.13328-0.32653 0.94877-0.29454-0.40840-0.60294
  -3   1  -6   15.59    1.06   0-0.14781-0.55657 0.94920-0.23336-0.43080-0.41454
  -2   0  -6  176.67    2.95   0-0.14754-0.23128 0.94920-0.55752-0.43039-0.38475
  -1   2   0  582.73    8.86   0 0.44967-0.87104 0.61007-0.05536-0.13872 0.05421
   0   0  -2  176.87   13.36   0 0.43654-0.40688 0.62201-0.55630-0.14205-0.14493
   0   5  -1    0.61    1.33   0 0.46157-0.92351 0.59904 0.58196-0.13565-0.27402
  -1   2  -1  823.42   10.27   0 0.44579-0.85313 0.61376-0.02604-0.13975-0.08815
  -1   2   1  155.63    4.83   0 0.41998-0.85575 0.63688-0.11484-0.14621 0.20509
  -1   3  -1  102.95    3.65   0 0.42430-0.92571 0.63308 0.18458-0.14515-0.13616
  -1   3   0   62.10    3.01   0 0.43321-0.95021 0.62514 0.15915-0.14293 0.00496
  -1   3   1 1284.81   12.23   0 0.42028-0.95087 0.63662 0.11446-0.14614 0.15160
  -1   2  -2  193.74    5.02   0 0.41358-0.80671 0.64253-0.02195-0.14778-0.22333
  -1   3  -2   65.72    2.92   0 0.39104-0.87820 0.66182 0.18807-0.15321-0.27094
  -1   1  -1  681.43   10.23   0 0.37657-0.68868 0.67391-0.31575-0.15657-0.01772
  -1   1   0  871.59   11.91   0 0.35950-0.68521 0.68779-0.36284-0.16050 0.12988
  -1   2  -3   22.21    2.03   0 0.35520-0.73374 0.69123-0.03758-0.16147-0.35269
  -1   3   2   35.27    2.22   0 0.37683-0.92221 0.67369 0.04474-0.15651 0.30537
  -1   4  -1  440.51    6.85   0 0.35751-0.95463 0.68939 0.35747-0.16095-0.17348
  -1   4   0    0.78    1.25   0 0.37138-0.98378 0.67816 0.33612-0.15778-0.03278
  -1   4   1  291.48    5.72   0 0.36582-0.99198 0.68269 0.29843-0.15905 0.11107
  -1   1  -2  122.57    4.27   0 0.35036-0.64796 0.69511-0.30400-0.16256-0.15513
  -1   2   2  961.99   11.74   0 0.34640-0.79688 0.69823-0.20923-0.16344 0.36601
  -1   4  -2  242.57    5.06   0 0.32217-0.90587 0.71691 0.36303-0.16877-0.30879
  -1   1  -3    2.81    0.98   0 0.28485-0.56918 0.74449-0.31963-0.17666-0.28372
  -1   1   1  102.38    4.30   0 0.28079-0.62174 0.74739-0.45497-0.17749 0.29026
  -2   2  -2   77.56    2.90   0 0.16644-0.78942 0.82207-0.10503-0.19929-0.14921
  -2   2  -1  914.93    9.16   0 0.17867-0.81711 0.81473-0.13139-0.19712-0.00790
  -2   2   0  432.25    6.44   0 0.16780-0.82022 0.82126-0.16956-0.19905 0.13707
  -2   3  -2   10.20    1.34   0 0.16354-0.88209 0.82379 0.12221-0.19980-0.20133
  -2   3  -1  160.15    3.81   0 0.18312-0.91653 0.81203 0.10097-0.19633-0.06210
  -2   3   0  106.84    3.17   0 0.18145-0.92916 0.81304 0.06710-0.19662 0.08147
  -2   3   1   28.26    1.73   0 0.15548-0.91739 0.82848 0.01865-0.20117 0.22927
  -2   4  -1   12.78    1.45   0 0.13500-0.96348 0.84021 0.30244-0.20466-0.10686
  -2   4   0   23.65    1.79   0 0.13955-0.98260 0.83764 0.27200-0.20389 0.03519
  -2   2  -3  121.48    3.44   0 0.12534-0.73509 0.84566-0.09602-0.20627-0.28526
  -2   2   1  208.09    4.53   0 0.12366-0.79063 0.84658-0.22894-0.20654 0.28822
  -2   3  -3   34.35    1.97   0 0.12029-0.82547 0.84843 0.13079-0.20710-0.33778
  -2   4   1   56.65    2.37   0 0.12366-0.98066 0.84658 0.23025-0.20654 0.18122
  -1   1   2   75.42    3.80   0 0.12029-0.47559 0.84843-0.58896-0.20710 0.46373
   1   0   0  259.23    7.27   0 0.11664 0.11518 0.85043-0.94678-0.20770 0.18628
  -2   1  -2 1183.78   10.52   0 0.08461-0.61351 0.86739-0.38063-0.21280-0.08199
  -2   1  -1   41.37    2.18   0 0.08742-0.63057 0.86594-0.41200-0.21236 0.06094
  -2   1  -3  171.71    4.04   0 0.05051-0.56512 0.88433-0.36439-0.21798-0.22017
  -2   1   0  399.58    6.44   0 0.05418-0.61170 0.88257-0.46176-0.21743 0.20942
  -1  -3   1  115.10    5.02   0 0.73828-0.69834-0.46376-0.16189 0.59839-0.27295
  -1  -3   5  163.24    5.41   0 0.73439-0.75042-0.46858-0.29013 0.60324 0.29770
  -1  -3   2   78.66    4.14   0 0.75714-0.73134-0.43895-0.22025 0.57334-0.10440
  -1  -3   3  510.22    9.45   0 0.75952-0.74831-0.43562-0.25688 0.56996 0.04330
  -1  -3   4    7.18    1.66   0 0.75170-0.75372-0.44638-0.27932 0.58090 0.17630
  -1  -2   1  117.16    5.28   0 0.74915-0.80421-0.44978 0.05400 0.58435-0.31257
  -1  -2   5  285.92    7.19   0 0.75702-0.86871-0.43912-0.08924 0.57352 0.27341
  -1  -1   2  193.68    6.83   0 0.75297-0.91736-0.44467 0.24573 0.57916-0.21698
  -1  -2   2    9.53    2.52   0 0.77550-0.84487-0.41185-0.01774 0.54566-0.12885
  -1  -2   4   84.13    4.15   0 0.77289-0.87141-0.41588-0.07928 0.54979 0.15342
  -1  -1   3 1265.45   16.14   0 0.77049-0.94902-0.41954 0.18743 0.55354-0.04784
  -1  -1   4  150.42    5.55   0 0.76818-0.96073-0.42299 0.15767 0.55707 0.09242
  -1  -2   3   89.99    4.19   0 0.78052-0.86388-0.40401-0.05827 0.53777 0.02102
   0  -3   6  534.29   10.12   0 0.77896-0.57750-0.40651-0.48156 0.54034 0.48149
   0  -2   7    3.65    2.04   0 0.78412-0.69176-0.39813-0.29346 0.53171 0.58060
   0  -3   5   59.50    3.38   0 0.80219-0.58748-0.36599-0.48899 0.49845 0.37918
   0  -2   6    0.46    1.60   0 0.81283-0.70671-0.34459-0.31469 0.47611 0.49145
   0  -3   4   73.78    3.68   0 0.81875-0.58992-0.33164-0.48989 0.46253 0.27053
   0  -3   3   37.36    2.72   0 0.82921-0.58610-0.30644-0.48184 0.43600 0.15392
   0  -1   6  188.55    5.42   0 0.82998-0.82046-0.30445-0.12292 0.43391 0.48003
   0   1   2  176.56   14.42   0 0.83858-0.96211-0.28049 0.44458 0.40852-0.17572
   1  -2   7    2.66    1.69   0 0.83044-0.50723-0.30324-0.48545 0.43263 0.65624
   0  -3   2   86.05    3.62   0 0.83384-0.57627-0.29418-0.46056 0.42306 0.02269
   0  -2   5    3.80    1.23   0 0.83362-0.71310-0.29477-0.33095 0.42368 0.40106
   1  -3   5   31.79    2.68   0 0.83736-0.38976-0.28416-0.66695 0.41243 0.44225
   0  -2   4   99.05    3.89   0 0.84767-0.71402-0.25079-0.34071 0.37688 0.30306
   0  -2   0  351.73    9.10   0 0.85285-0.66258-0.23043-0.22803 0.35521-0.24998
   0  -1   5   96.97    3.71   0 0.84922-0.82495-0.24489-0.14939 0.37070 0.39929
   1  -3   4  192.44    5.18   0 0.85012-0.38894-0.24145-0.67638 0.36702 0.34353
   1  -2   6    6.61    1.83   0 0.85089-0.51458-0.23844-0.51486 0.36379 0.58130
   1  -1   7   10.26    1.75   0 0.85217-0.62434-0.23328-0.32343 0.35826 0.67719
  -1   0   0  256.36    9.59   0-0.11607-0.11521 0.70418-0.60832 0.44376-0.42121
   1   0   1  192.10    7.55   0-0.12629 0.34212 0.71057-0.83928 0.43994-0.31981
   3   1   2  356.45    7.52   0-0.11831 0.68717 0.70559-0.83010 0.44293-0.27782
   3   1   6   10.21    1.66   0-0.11109 0.62450 0.70104-0.95965 0.44560 0.29438
   4   2   2   62.78    3.49   0-0.11870 0.82383 0.70584-0.69685 0.44278-0.35367
   4   2   7  258.96    6.52   0-0.11476 0.74931 0.70336-0.86117 0.44424 0.36430
   3   1   3   15.25    2.39   0-0.15864 0.71415 0.73023-0.88850 0.42745-0.11939
   3   1   5   25.54    2.58   0-0.15055 0.67769 0.72538-0.95023 0.43063 0.16569
   4   2   6  200.57    5.88   0-0.15732 0.80658 0.72944-0.85467 0.42797 0.23632
   5   3   4    0.61    1.28   0-0.13991 0.95375 0.71893-0.64315 0.43476-0.13341
   5   3   5   68.11    3.76   0-0.14944 0.94857 0.72471-0.68157 0.43107 0.01349
   5   3   6   -0.37    1.31   0-0.13677 0.92322 0.71701-0.70838 0.43596 0.15115
   2   1   0 5194.87   37.70   0-0.17403 0.54031 0.73905-0.70138 0.42131-0.52007
   3   1   4   15.55    2.00   0-0.16728 0.70839 0.73509-0.92736 0.42404 0.02843
   4   2   3  183.04    5.44   0-0.16858 0.85976 0.73586-0.76067 0.42351-0.19084
   4   2   4  237.60    6.30   0-0.18802 0.86493 0.74714-0.80515 0.41558-0.03945
   4   2   5  108.55    4.45   0-0.18229 0.84581 0.74385-0.83595 0.41794 0.10236
   1   0   2  430.27   10.52   0-0.22843 0.43031 0.76956-0.93196 0.39835-0.13478
   1   0   3  108.14    5.27   0-0.24976 0.43758 0.78086-0.97666 0.38884 0.01824
   5   4   5   -0.59    1.52   0-0.28303 0.98839 0.79776-0.52783 0.37338 0.01838
   5   4   6   25.37    2.46   0-0.27334 0.96270 0.79295-0.55385 0.37796 0.15699
   4   3   7    0.57    1.18   0-0.29254 0.83254 0.80241-0.73081 0.36883 0.38474
   2   1   1  657.17   11.18   0-0.33102 0.68297 0.82044-0.81624 0.34971-0.30564
   2   1   5 1559.64   14.95   0-0.34499 0.64095 0.82662-0.95616 0.34252 0.27669
   3   2   6    1.18    1.37   0-0.34365 0.76420 0.82604-0.85650 0.34321 0.34458
   4   3   6  696.48    9.90   0-0.33584 0.88973 0.82259-0.71771 0.34725 0.26396
   4   3   3   -0.24    0.98   0-0.35987 0.95661 0.83300-0.62859 0.33470-0.15223
   4   3   4    0.41    1.36   0-0.37133 0.95481 0.83777-0.66692 0.32856-0.00480
   4   3   5  564.84    8.69   0-0.36371 0.93141 0.83461-0.69602 0.33265 0.13452
   2   1   2  172.32    5.50   0-0.39594 0.73371 0.84752-0.87669 0.31507-0.12759
   2   1   4 1025.00   11.98   0-0.38906 0.69896 0.84485-0.94080 0.31890 0.15617
   3   2   2  200.97    5.59   0-0.39707 0.87076 0.84796-0.74331 0.31444-0.20264
   3   2   5  517.23    8.09   0-0.39001 0.82234 0.84522-0.84139 0.31837 0.22469
   2   1   3    7.44    1.55   0-0.40861 0.73287 0.85230-0.91496 0.30801 0.02369
   3   2   4  104.19    3.76   0-0.41661 0.86258 0.85525-0.81771 0.30342 0.09593
  -4   0   5   14.88    3.69   0-0.42830-0.56679-0.62443 0.84015 0.49214 0.31829
  -2   1   2    8.83    2.73   0-0.45364-0.13145-0.59952 0.95442 0.50234-0.22281
  -2   1   3  349.40   10.32   0-0.42861-0.17195-0.62414 0.94600 0.49227-0.06786
  -2   1   4  790.33   15.29   0-0.42922-0.18523-0.62355 0.91199 0.49252 0.07570
  -2   1   5   55.29    4.35   0-0.44938-0.17927-0.60379 0.85740 0.50065 0.21173
  -1   1   2   63.77    5.46   0-0.44691 0.09174-0.60625 0.86545 0.49967-0.24161
  -4   0   1    5.21    2.89   0-0.40966-0.52647-0.64214 0.99075 0.48440-0.24977
  -1   1   3  121.20    7.37   0-0.40800 0.03851-0.64368 0.86963 0.48370-0.08234
  -1   1   4  113.73    6.91   0-0.40655 0.02327-0.64502 0.83807 0.48309 0.06166
  -4   0   2   81.62    5.54   0-0.38742-0.56548-0.66252 0.97972 0.47492-0.09557
  -4   0   3  506.57   12.42   0-0.38401-0.58295-0.66556 0.94901 0.47345 0.04997
  -4   0   4   49.45    4.38   0-0.39955-0.58167-0.65154 0.90238 0.48009 0.18718
  -2   0  -1  127.75    8.77   0-0.38658-0.06100-0.66327 0.88864 0.47456-0.57169
  -3   0   0    2.00    3.06   0-0.34874-0.34562-0.69599 0.98550 0.45795-0.38985
  -5  -1   2   39.46    4.36   0-0.32995-0.75883-0.71155 0.89593 0.44943 0.00603
  -5  -1   3   20.09    3.24   0-0.33862-0.76427-0.70447 0.85395 0.45337 0.14637
  -3   0   5   24.78    3.71   0-0.32564-0.43814-0.71502 0.83540 0.44746 0.34084
  -3   0   1  367.45    9.93   0-0.28739-0.41995-0.74473 0.99989 0.42965-0.21702
  -3   0   4  192.89    7.06   0-0.28622-0.46360-0.74561 0.90030 0.42910 0.21494
  -4  -1   5   30.39    3.68   0-0.27126-0.62865-0.75668 0.74435 0.42193 0.44197
  -3   0   2   80.83    4.87   0-0.26220-0.45945-0.76324 0.98504 0.41756-0.06136
  -3   0   3  131.58    5.98   0-0.26347-0.47216-0.76232 0.95052 0.41817 0.08167
  -2   0   0   12.37    3.41   0-0.23132-0.23090-0.78476 0.97693 0.40242-0.35576
  -4  -1   4   69.45    4.19   0-0.22029-0.66528-0.79217 0.81316 0.39689 0.32297
  -5  -2   3    2.55    2.19   0-0.17580-0.83206-0.82051 0.74200 0.37425 0.27750
  -4  -1   1   30.19    3.05   0-0.16700-0.67625-0.82582 0.94746 0.36969-0.08096
  -4  -1   2   52.81    3.75   0-0.16547-0.69192-0.82674 0.91497 0.36889 0.06363
  -4  -1   3  221.41    6.75   0-0.18386-0.68739-0.81556 0.86949 0.37840 0.19794
  -2   0   4  219.11    7.03   0-0.17824-0.34008-0.81902 0.87771 0.37551 0.24493
  -5  -2   1   67.41    4.24   0-0.13554-0.84367-0.84406 0.83164 0.35308 0.01190
  -5  -2   2    7.34    2.33   0-0.14712-0.84626-0.83750 0.79199 0.35920 0.14964
  -3  -1   5   19.37    2.55   0-0.14124-0.52743-0.84085 0.73320 0.35610 0.48478
  -2   0   1  368.82    9.43   0-0.15476-0.32103-0.83307 0.99164 0.36323-0.17348
  -2   0   3  131.16    5.60   0-0.14212-0.36205-0.84035 0.93235 0.35657 0.12024
  -4  -2   5   72.25    4.01   0-0.12626-0.67790-0.84922 0.60728 0.34808 0.56922
  -2   0   2  113.79    5.10   0-0.13114-0.35881-0.84652 0.97196 0.35069-0.01744
  -1   2   3   80.81    6.40   0-0.50668 0.04061-0.43253 0.88876 0.73072-0.38296
  -2   2   4  354.55   11.46   0-0.49628-0.21568-0.45699 0.97530 0.71530-0.20058
  -2   2   7   25.84    4.30   0-0.49844-0.25634-0.45206 0.87064 0.71850 0.22742
  -1   2   8   76.28    5.92   0-0.50083-0.03611-0.44649 0.73575 0.72205 0.34392
   0   2   4  705.57   15.89   0-0.50055 0.25100-0.44716 0.77425 0.72163-0.25280
   1   1   3   34.56    6.36   0-0.49915 0.59127-0.45042 0.48531 0.71955-0.36492
  -2   2   5    7.48    3.67   0-0.48915-0.23596-0.47275 0.95781 0.70474-0.04548
  -2   2   6  129.54    7.36   0-0.49019-0.25015-0.47050 0.92190 0.70628 0.09615
  -1   2   4  755.83   16.27   0-0.48576 0.00500-0.48003 0.90331 0.69971-0.20767
  -1   2   7  216.92    9.15   0-0.48699-0.03632-0.47741 0.80104 0.70153 0.22118
   0   2   5  411.46   12.23   0-0.48814 0.22430-0.47495 0.76871 0.70323-0.09042
   0   2   6  364.40   11.38   0-0.48713 0.20918-0.47712 0.73809 0.70173 0.05411
   0   2   7   99.35    6.17   0-0.49422 0.20195-0.46158 0.68879 0.71227 0.18775
  -1   2   5  546.45   13.72   0-0.47692-0.01795-0.49825 0.88804 0.68672-0.05121
  -1   2   6   63.50    5.76   0-0.47818-0.03092-0.49570 0.85229 0.68859 0.09077
  -1   1   1   93.67    8.92   0-0.46209 0.12065-0.52686 0.81973 0.66478-0.55109
  -3   1   6   18.21    4.10   0-0.43932-0.43663-0.56656 0.88546 0.63109 0.24708
  -1   1   8   17.39    3.66   0-0.44139 0.00040-0.56313 0.62365 0.63415 0.48502
   0   1   2  160.08   10.33   0-0.44116 0.31611-0.56352 0.72769 0.63381-0.39954
  -3   1   5    3.40    2.95   0-0.42735-0.43312-0.58567 0.93742 0.61342 0.12134
  -2   1   7  164.24    7.70   0-0.42592-0.23255-0.58788 0.77809 0.61130 0.38738
  -2   1   2   11.56    4.00   0-0.40852-0.17803-0.61357 0.96856 0.58564-0.30580
  -2   1   6   69.41    5.45   0-0.40384-0.24053-0.62015 0.84355 0.57874 0.27578
  -1   1   7   45.73    4.52   0-0.41279-0.01411-0.60745 0.70147 0.59193 0.38353
  -2   1   5   60.39    4.79   0-0.38768-0.24234-0.64174 0.89821 0.55494 0.15584
  -1   1   2   68.00    6.66   0-0.39410 0.03813-0.63333 0.89297 0.56438-0.30714
  -1   1   6    0.43    2.66   0-0.38948-0.02731-0.63940 0.76976 0.55759 0.27615
   0   1   3   23.35    4.93   0-0.39275 0.25359-0.63511 0.76574 0.56240-0.18421
   0   1   6    0.59    2.21   0-0.40116 0.21926-0.62378 0.65463 0.57479 0.23412
  -2   1   3  343.28   10.22   0-0.38492-0.21617-0.64523 0.96767 0.55089-0.12744
  -2   1   4  773.17   14.87   0-0.38003-0.23548-0.65141 0.94092 0.54370 0.02335
   0   1   4    7.56    3.97   0-0.37848 0.22503-0.65334 0.75075 0.54141-0.01981
   0   1   5   11.64    2.92   0-0.38400 0.21583-0.64640 0.71098 0.54954 0.11537
  -1   1   3  117.65    6.13   0-0.36506-0.00525-0.66951 0.89642 0.52169-0.12111
  -1   1   5  763.56   13.60   0-0.36911-0.02942-0.66472 0.82518 0.52765 0.15979
  -3  -3   0  161.99    4.35   0 0.53088-0.93772-0.93933 0.53874 0.47396-0.24561
  -3  -3   3  132.77    3.91   0 0.54396-0.99396-0.93783 0.43804 0.46717 0.19258
  -2  -2  -1 9470.79   39.21   0 0.54343-0.79995-0.93789 0.70471 0.46745-0.45872
  -3  -4   4   86.46    3.56   0 0.56941-0.93768-0.93418 0.17070 0.45345 0.40374
  -3  -3   1   46.01    2.42   0 0.55988-0.98125-0.93566 0.50219 0.45868-0.08674
  -3  -3   2  382.75    6.52   0 0.56180-0.99791-0.93537 0.46900 0.45763 0.05812
  -3  -4   3    2.40    1.34   0 0.61101-0.96606-0.92609 0.19657 0.42938 0.28379
  -3  -4   2    0.64    1.37   0 0.63938-0.97924-0.91890 0.22302 0.41171 0.15659
  -2  -2   4  916.98   10.50   0 0.62529-0.95381-0.92265 0.52388 0.42062 0.30624
  -3  -5   2  114.41    4.23   0 0.65880-0.90345-0.91311-0.01404 0.39901 0.22325
  -3  -4   0    0.63    0.91   0 0.64272-0.95426-0.91795 0.28821 0.40959-0.12838
  -3  -4   1   13.33    1.59   0 0.65026-0.97632-0.91574 0.25254 0.40467 0.02029
  -2  -2   0  671.68   10.00   0 0.64317-0.91439-0.91782 0.65141 0.40930-0.25732
  -2  -2   3   13.16    1.79   0 0.66309-0.97799-0.91174 0.54591 0.39612 0.18705
  -3  -5   1   83.95    3.73   0 0.67750-0.90729-0.90678 0.01243 0.38619 0.09205
  -2  -2   1  267.98    6.09   0 0.68057-0.96630-0.90568 0.60654 0.38404-0.08882
  -2  -2   2   32.63    2.46   0 0.68382-0.98378-0.90450 0.57186 0.38175 0.05756
  -2  -3   4    7.08    1.56   0 0.71052-0.94463-0.89385 0.26543 0.36224 0.41844
  -2  -4   4    3.36    1.57   0 0.73660-0.87472-0.88176 0.02307 0.34191 0.49167
  -1  -1   0  111.95    5.49   0 0.73946-0.87493-0.88033 0.74757 0.33960-0.26377
  -1  -1   4  121.41    4.11   0 0.72245-0.91564-0.88852 0.62395 0.35310 0.29716
  -2  -3   3  169.32    4.59   0 0.75524-0.97376-0.87201 0.27631 0.32656 0.30941
  -2  -4   3   84.45    3.62   0 0.78124-0.90503-0.85659 0.03085 0.30379 0.38608
  -2  -3  -1  361.60    7.76   0 0.77188-0.93298-0.86238 0.39900 0.31218-0.25093
  -2  -3   2  102.17    3.81   0 0.78501-0.98972-0.85418 0.29179 0.30035 0.19181
  -1  -1   3 1243.59   13.30   0 0.76835-0.94721-0.86448 0.63296 0.31529 0.19118
  -2  -5   2   91.55    3.93   0 0.80397-0.81609-0.84124-0.18264 0.28251 0.31625
  -2  -3   0   52.03    3.11   0 0.80006-0.97563-0.84402 0.34772 0.28628-0.08168
  -2  -3   1    2.47    1.58   0 0.80094-0.99148-0.84340 0.31427 0.28543 0.06306
  -1  -1   1  391.51    8.90   0 0.79545-0.94534-0.84721 0.68161 0.29067-0.07176
  -1  -1   2  189.59    5.78   0 0.79556-0.95983-0.84714 0.64845 0.29057 0.07217
   1   1   1    7.37    2.15   0 0.79384-0.67235-0.84832 0.94928 0.29219-0.22459
  -2  -4   2  648.43    9.24   0 0.81452-0.92311-0.83350 0.04049 0.27213 0.27341
  -1   3   2   40.13    4.29   0-0.86093 0.31381-0.01254 0.73225 0.49716-0.34475
  -2   3   2   43.70    4.46   0-0.84613 0.06740-0.06312 0.87911 0.48235-0.30662
  -1   2   0  543.80   15.72   0-0.85193 0.42927-0.04448 0.60050 0.48800-0.57006
  -1   3   3  148.20    7.40   0-0.84794 0.28639-0.05744 0.74368 0.48409-0.18771
  -1   3   6    0.06    2.34   0-0.85148 0.24575-0.04598 0.63547 0.48755 0.23586
   0   2   2  834.33   18.29   0-0.85019 0.62954-0.05023 0.44434 0.48628-0.30437
  -2   3   3    3.82    2.84   0-0.83437 0.04144-0.09748 0.87993 0.47126-0.15029
  -2   3   6  143.59    6.92   0-0.84269 0.00727-0.07360 0.75621 0.47902 0.27170
  -1   3   4   49.07    4.20   0-0.84219 0.26628-0.07509 0.72826 0.47854-0.03873
  -1   3   5    7.90    2.53   0-0.84369 0.25352-0.07061 0.69052 0.47996 0.10304
  -2   3   4   89.24    5.25   0-0.83044 0.02348-0.10814 0.85781 0.46766-0.00462
  -2   3   5  426.07   11.06   0-0.83329 0.01158-0.10045 0.81607 0.47026 0.13677
   0  -1   0  269.49   15.00   0-0.82749 0.92353-0.11589-0.11359 0.46500-0.41128
   0   2   3  579.09   14.38   0-0.83109 0.59600-0.10640 0.46711 0.46825-0.14224
   0   2   4  723.93   15.96   0-0.82557 0.57640-0.12085 0.44870 0.46328 0.00658
  -1   1  -1  612.40   21.73   0-0.81503 0.50270-0.14670 0.50561 0.45396-0.62654
   0   1   1 1414.42   30.51   0-0.81192 0.70176-0.15400 0.35128 0.45126-0.35970
  -1   2   1  143.72    7.58   0-0.80714 0.36999-0.16487 0.68784 0.44716-0.38564
  -2   2   1  191.67    8.78   0-0.76832 0.10025-0.24344 0.86261 0.41503-0.33067
  -2   2   6  136.38    6.75   0-0.77827 0.03851-0.22477 0.67776 0.42309 0.38016
  -1   2   2  912.07   17.88   0-0.77521 0.32371-0.23061 0.72030 0.42060-0.21549
  -1   2   5  556.04   13.51   0-0.77512 0.28055-0.23077 0.62088 0.42053 0.21578
  -3   2   5   43.38    4.34   0-0.76472-0.19137-0.24995 0.83324 0.41213 0.27027
  -2   2   5   10.12    3.42   0-0.75511 0.02865-0.26696 0.75437 0.40447 0.25499
  -1   2   3   79.71    6.30   0-0.76063 0.29481-0.25728 0.71384 0.40886-0.06036
  -1   2   4  767.92   15.59   0-0.76179 0.28156-0.25521 0.67866 0.40979 0.08271
   0   1   2  155.63   10.88   0-0.75163 0.62667-0.27293 0.43719 0.40172-0.16663
  -3   2   2   27.99    3.67   0-0.75036-0.16371-0.27499 0.95684 0.40086-0.14972
  -3   2   3  199.40    8.44   0-0.74420-0.18370-0.28534 0.93401 0.39602-0.00121
  -3   2   4    5.91    2.84   0-0.74994-0.19139-0.27570 0.89228 0.40053 0.13657
  -2   2   2   31.02    4.55   0-0.74302 0.06088-0.28731 0.87294 0.39510-0.16769
  -2   2   4  373.75   11.07   0-0.73909 0.02790-0.29375 0.81326 0.39203 0.12364
   0   1   4    9.39    4.53   0-0.74346 0.59083-0.28657 0.38361 0.39544 0.12588
  -2   2   3   61.70    4.91   0-0.73451 0.03780-0.30113 0.85409 0.38845-0.01664
   0   1   3   20.06    4.46   0-0.73216 0.59305-0.30487 0.43556 0.38663-0.00835
   0  -2   4   99.67    4.92   0 0.79206-0.65938-0.18309-0.40783 0.43064 0.24903
   1  -3   1   91.90    4.74   0 0.79079-0.28778-0.16925-0.64873 0.42403-0.14517
   1  -3   3   84.79    4.50   0 0.79079-0.31724-0.16928-0.71495 0.42404 0.14249
   0  -2   1  119.23    5.68   0 0.78928-0.61291-0.15507-0.33671 0.41710-0.16858
   0  -2   2  463.12   10.64   0 0.78661-0.62507-0.13283-0.39233 0.40619-0.01373
   0  -2   3 2532.60   24.13   0 0.78802-0.64044-0.14410-0.41378 0.41174 0.12396
   0   1   1 1188.26   30.54   0 0.78553-0.89514-0.12477 0.32164 0.40219-0.31258
   1  -3   2   65.00    3.80   0 0.78946-0.30086-0.15669-0.69438 0.41789 0.00450
   2  -3   4   21.73    2.75   0 0.78867-0.09776-0.14964-0.86365 0.41446 0.27313
   0  -1   0  255.60   11.55   0 0.78432-0.68892-0.11567-0.11351 0.39769-0.34545
   2  -3   2    9.92    2.57   0 0.78331-0.06443-0.10889-0.83832 0.39428 0.00522
   2  -3   3   36.56    3.07   0 0.78498-0.07977-0.12031-0.86042 0.40001 0.14345
   1  -2   5  129.89    5.53   0 0.77950-0.43071-0.08509-0.63496 0.38211 0.41863
   2  -2   6 1101.15   15.72   0 0.77850-0.21268-0.07934-0.76993 0.37916 0.54302
   1  -2   0  582.83   11.44   0 0.76209-0.34061-0.00129-0.55373 0.33768-0.25584
   1  -2   4   69.29    3.91   0 0.76724-0.40409-0.02333-0.66367 0.34960 0.30707
   2  -2   5  283.09    7.73   0 0.76339-0.18302-0.00670-0.80948 0.34062 0.43716
   0  -1   1  105.32    6.20   0 0.75859-0.67801 0.01296-0.27466 0.32983-0.13453
   0  -1   2   50.25    4.44   0 0.75254-0.68655 0.03577-0.33048 0.31718 0.02141
   0  -1   3  446.19   10.74   0 0.76019-0.70884 0.00664-0.33449 0.33331 0.14908
   1  -2   3   22.22    2.89   0 0.75631-0.37845 0.02176-0.67588 0.32498 0.18809
   3  -2   5   55.80    3.54   0 0.75984 0.05127 0.00801-0.92062 0.33255 0.42280
   1  -2   1  839.61   12.49   0 0.75068-0.34402 0.04295-0.63067 0.31325-0.08817
   1  -2   2  199.28    6.04   0 0.74967-0.35742 0.04652-0.66724 0.31124 0.05753
   2  -2   4  170.70    5.44   0 0.74841-0.15417 0.05091-0.83439 0.30877 0.32480
   3  -2   4   15.16    2.47   0 0.74554 0.08059 0.06075-0.93984 0.30319 0.30770
   1  -1   5    2.57    1.86   0 0.73611-0.48394 0.09111-0.58053 0.28569 0.46117
   2  -2   3  116.63    4.52   0 0.73519-0.12650 0.09396-0.84421 0.28403 0.20554
   3  -2   3  195.00    5.71   0 0.73451 0.10613 0.09604-0.94329 0.28282 0.18429
   2  -2   1  907.22   12.08   0 0.72648-0.08879 0.11987-0.80377 0.26880-0.06676
   2  -2   2   75.21    3.72   0 0.72695-0.10360 0.11851-0.83582 0.26960 0.07614
   3  -1   6   16.58    1.98   0 0.72016-0.01877 0.13784-0.85414 0.25813 0.58726
   1  -1   4  420.41    8.23   0 0.70551-0.43810 0.17633-0.63361 0.23485 0.36807
   3   2   4   94.55    3.94   0-0.49611 0.94015 0.72354-0.68410 0.50302-0.10365
   3   2   5  486.26    8.66   0-0.50161 0.93100 0.72451-0.71800 0.50121 0.04209
   4   4   4  178.75    5.62   0-0.50585 0.98954 0.72525-0.32115 0.49980-0.22912
   4   4   7  145.35    5.33   0-0.51102 0.95097 0.72612-0.42126 0.49806 0.20454
   2   1   3    7.51    1.87   0-0.52191 0.84490 0.72789-0.78892 0.49430-0.16357
   2   1   4 1083.69   14.49   0-0.54162 0.85036 0.73081-0.82574 0.48723-0.01235
   4   4   5    2.33    1.46   0-0.52755 0.99721 0.72876-0.35913 0.49231-0.07824
   4   4   6    2.79    1.62   0-0.52878 0.98350 0.72894-0.39222 0.49188 0.06583
   3   3   2    4.38    1.74   0-0.56046 0.93807 0.73325-0.39766 0.48012-0.42110
   1   1   0  149.64    8.77   0-0.59825 0.73360 0.73711-0.60366 0.46475-0.54090
   3   3   7   31.13    3.14   0-0.60335 0.90781 0.73751-0.56721 0.46255 0.31561
   4   5   5   63.28    3.88   0-0.58120 0.95434 0.73557-0.13414 0.47190-0.10995
   4   5   6  114.93    5.11   0-0.58611 0.94441 0.73605-0.16758 0.46987 0.03610
   2   2   1 9237.19   47.07   0-0.63098 0.88754 0.73915-0.50494 0.45010-0.45884
   3   3   3   88.56    4.45   0-0.62218 0.98515 0.73872-0.43616 0.45417-0.25157
   3   3   4   33.62    3.01   0-0.64982 0.99808 0.73978-0.47009 0.44105-0.09477
   3   3   5  225.37    6.47   0-0.65194 0.98670 0.73981-0.50391 0.44000 0.05016
   3   3   6   41.48    2.95   0-0.63660 0.95595 0.73940-0.53591 0.44745 0.18684
   3   4   8   40.75    3.49   0-0.65082 0.84458 0.73979-0.37213 0.44056 0.42914
   2   2   6  918.49   12.28   0-0.70864 0.89266 0.73855-0.66959 0.40956 0.30073
   3   4   3   16.98    2.23   0-0.70284 0.97062 0.73890-0.20677 0.41290-0.26299
   3   4   7    1.23    1.37   0-0.69200 0.90162 0.73941-0.33936 0.41900 0.30601
   2   2   2  962.23   13.28   0-0.72058 0.96251 0.73766-0.53621 0.40250-0.26745
   3   4   4    2.64    1.57   0-0.72733 0.98101 0.73705-0.23806 0.39840-0.10453
   3   4   5   94.55    3.98   0-0.73168 0.96997 0.73661-0.26958 0.39571 0.04199
   3   4   6  415.36    8.09   0-0.71885 0.94307 0.73780-0.30413 0.40354 0.17775
   3   5   7   26.32    2.55   0-0.72969 0.84369 0.73682-0.10632 0.39694 0.27556
   2   2   3  119.38    4.48   0-0.75569 0.98356 0.73357-0.56490 0.38011-0.10112
   2   2   5   61.56    3.37   0-0.74371 0.94215 0.73523-0.63284 0.38800 0.17815
   3   5   6   79.11    3.80   0-0.75054 0.87956 0.73432-0.07084 0.38353 0.14523
   2   2   4   22.28    2.01   0-0.76041 0.97348 0.73284-0.59760 0.37696 0.04559
   2   3   7   10.46    1.76   0-0.77653 0.85079 0.72998-0.46460 0.36569 0.43546
   3   5   5  139.99    4.64   0-0.75873 0.90177 0.73310-0.03626 0.37810 0.00663
   2   4   8   14.18    1.72   0-0.78652 0.75040 0.72792-0.26533 0.35837 0.53434
   4   0   1  232.02    7.24   0 0.41224 0.49710 0.46815-0.88525 0.29878-0.24807
   4   0   5   46.84    3.66   0 0.43115 0.41993 0.44646-0.99507 0.30565 0.32048
   4   0   2  307.08    7.93   0 0.38799 0.50718 0.49513-0.94551 0.28986-0.09543
   4   0   3   26.80    3.04   0 0.38434 0.49625 0.49913-0.98190 0.28850 0.04978
   4   0   4    6.97    1.82   0 0.40003 0.46597 0.48185-0.99793 0.29431 0.18724
   3   0   5    0.25    1.95   0 0.36410 0.25979 0.52087-0.97973 0.28093 0.37149
   1   0  -1    1.57    2.14   0 0.34546-0.09754 0.54039-0.60753 0.27391-0.43730
   3   0   0    1.06    1.53   0 0.34644 0.34643 0.53938-0.82725 0.27428-0.34428
   5   1   5  131.08    5.20   0 0.34504 0.64226 0.54083-0.95513 0.27375 0.27673
   3   0   4   30.66    3.11   0 0.31078 0.32405 0.57543-0.99514 0.26058 0.24436
   5   1   3  363.23    8.38   0 0.31078 0.70578 0.57543-0.92474 0.26057 0.00188
   5   1   4   18.19    2.44   0 0.31963 0.68247 0.56664-0.94836 0.26401 0.14194
   3   0   1    7.20    1.72   0 0.29433 0.38402 0.59143-0.91288 0.25419-0.17934
   3   0   2  666.27   10.59   0 0.27539 0.38850 0.60948-0.96369 0.24674-0.02944
   3   0   3   11.65    2.55   0 0.28236 0.36604 0.60289-0.98987 0.24949 0.11144
   4   1   6   20.53    2.58   0 0.27920 0.46273 0.60589-0.95770 0.24824 0.46879
   2   0   4 2162.66   19.90   0 0.24098 0.16253 0.64109-0.96485 0.23298 0.29484
   2   0   0   12.79    2.21   0 0.23142 0.23021 0.64961-0.84163 0.22914-0.27591
   4   1   5   78.41    3.91   0 0.22229 0.53379 0.65766-0.97664 0.22544 0.34770
   2   0   3  681.19   10.95   0 0.19070 0.22678 0.68476-0.97544 0.21253 0.17113
   5   2   6   23.68    2.36   0 0.20309 0.67372 0.67428-0.89138 0.21763 0.42376
   2   0   1  134.08    5.12   0 0.17519 0.27146 0.69760-0.92242 0.20618-0.10956
   2   0   2   92.51    4.44   0 0.16575 0.26651 0.70530-0.96302 0.20226 0.03803
   4   1   1  220.04    5.90   0 0.17843 0.63522 0.69493-0.88220 0.20752-0.20970
   4   1   2    6.32    1.71   0 0.15649 0.64372 0.71276-0.93363 0.19839-0.05747
   4   1   3   57.72    3.19   0 0.15873 0.62662 0.71096-0.96490 0.19933 0.08577
   4   1   4  179.06    5.20   0 0.18067 0.58969 0.69308-0.97865 0.20845 0.22072
   5   2   5    8.37    1.90   0 0.15722 0.73483 0.71217-0.89795 0.19870 0.29898
   1   0   3   87.61    4.56   0 0.12868 0.05829 0.73452-0.92970 0.18675 0.22023
   5   2   4   38.32    2.71   0 0.12507 0.78116 0.73730-0.88938 0.18522 0.16815
   1   0   0  257.52    9.20   0 0.11624 0.11383 0.74407-0.83976 0.18141-0.20506
   5   2   3   96.60    3.81   0 0.11145 0.80965 0.74768-0.86700 0.17937 0.03012
  -4  -2   5   69.24    4.24   0 0.09994-0.90503-0.88095 0.64058 0.61778 0.29945
  -3  -1   1  301.55    7.96   0 0.08988-0.70174-0.87593 0.90165 0.62309-0.35716
  -3  -1   6   75.03    4.08   0 0.08857-0.77247-0.87527 0.73640 0.62378 0.36084
  -2   0   3  135.04    5.50   0 0.10048-0.60528-0.88121 0.97478 0.61749-0.14030
  -2   0   5   66.18    3.92   0 0.09911-0.63273-0.88054 0.90866 0.61822 0.14605
  -4  -2   2    1.70    1.55   0 0.13856-0.90301-0.89927 0.75926 0.59657-0.11041
  -4  -2   4   17.51    2.59   0 0.13144-0.92251-0.89601 0.68916 0.60057 0.17297
  -3  -1   5   19.63    2.56   0 0.13118-0.80059-0.89589 0.79025 0.60072 0.24004
  -2   0   4  217.28    6.08   0 0.11286-0.63221-0.88727 0.94825 0.61082 0.00987
   1   0   0  231.91   10.61   0 0.11677 0.11419-0.88914 0.79391 0.60868-0.63099
  -4  -2   3    0.78    1.30   0 0.14669-0.92323-0.90291 0.72882 0.59198 0.03758
  -3  -1   2   31.47    2.55   0 0.14513-0.77133-0.90222 0.89519 0.59287-0.18340
  -3  -1   3   67.97    3.64   0 0.16447-0.80492-0.91065 0.87055 0.58168-0.02873
  -3  -1   4  804.61   11.18   0 0.15773-0.81271-0.90776 0.83478 0.58562 0.11119
  -1   0   1   32.85    3.31   0 0.18036-0.42522-0.91722 0.98057 0.57228-0.40563
  -3  -2   6   36.70    2.65   0 0.23125-0.81981-0.93664 0.56837 0.54057 0.49704
  -4  -3   4    7.16    1.69   0 0.26118-0.95801-0.94671 0.51043 0.52083 0.30551
  -2  -1   6   24.10    2.23   0 0.26072-0.71370-0.94657 0.71237 0.52114 0.43970
  -4  -3   3  154.76    4.91   0 0.29573-0.97662-0.95704 0.55287 0.49700 0.18505
  -3  -2   5    2.82    1.54   0 0.29041-0.86464-0.95554 0.62120 0.50074 0.39236
  -2  -1   0 5505.72   34.50   0 0.28118-0.64670-0.95285 0.91569 0.50717-0.40825
  -1   0   2 1083.85   14.36   0 0.29475-0.55370-0.95676 0.98753 0.49769-0.18744
  -1   0   5  244.48    5.96   0 0.27799-0.58046-0.95190 0.88437 0.50937 0.23144
  -2  -1   5    0.27    1.31   0 0.31791-0.75812-0.96291 0.76178 0.48110 0.33756
  -1   0   3    0.11    1.76   0 0.32558-0.60008-0.96481 0.96234 0.47549-0.02112
  -1   0   4 1542.29   14.99   0 0.31432-0.60232-0.96200 0.92730 0.48370 0.11313
  -3  -2   4  148.01    4.38   0 0.33779-0.89717-0.96769 0.66463 0.46645 0.28320
  -3  -2   1  495.45    8.65   0 0.37774-0.89429-0.97572 0.77211 0.43573-0.11729
  -3  -2   3   85.12    3.55   0 0.36985-0.91520-0.97430 0.70509 0.44193 0.16352
  -2  -1   1  325.44    7.55   0 0.37544-0.75562-0.97532 0.90512 0.43754-0.19541
  -2  -1   4  176.40    4.76   0 0.36542-0.78916-0.97347 0.80441 0.44538 0.22811
  -4  -4   3   29.56    2.44   0 0.39175-0.97698-0.97804 0.34343 0.42459 0.31047
  -3  -3   5   15.02    2.06   0 0.39842-0.87608-0.97905 0.41247 0.41919 0.52733
  -3  -2   2    0.36    1.02   0 0.38581-0.91681-0.97709 0.74004 0.42935 0.03286
  -2  -2   6   82.25    3.56   0 0.39917-0.75603-0.97916 0.51498 0.41858 0.59542
  -2  -1   2  114.72    4.35   0 0.40210-0.79657-0.97958 0.87718 0.41619-0.03112
  -2  -1   3  128.40    4.20   0 0.39435-0.80369-0.97844 0.84296 0.42249 0.10673
  -2  -3   6   -0.08    1.04   0 0.62634-0.89108-0.69790 0.00286 0.66259 0.40570
  -2  -2   2   28.85    2.05   0 0.64284-0.94267-0.69509 0.36279 0.64934-0.21112
  -2  -2   5   62.06    2.71   0 0.64063-0.98438-0.69549 0.26468 0.65115 0.21798
  -1   0   3    0.94    1.28   0 0.64570-0.91947-0.69456 0.69339 0.64698-0.19342
  -2  -3   5   11.57    1.64   0 0.66939-0.91681-0.68973 0.02795 0.62686 0.29560
  -2  -2   3   14.55    1.62   0 0.66467-0.97891-0.69076 0.32546 0.63097-0.04925
  -2  -2   4  929.03   10.41   0 0.66165-0.99024-0.69141 0.29299 0.63357 0.09200
  -1   0   4 1544.30   14.23   0 0.67003-0.95836-0.68959 0.65508 0.62629-0.02954
  -1   0   5  259.21    5.70   0 0.66251-0.96564-0.69122 0.62402 0.63283 0.10739
  -2  -3   2   84.56    3.63   0 0.70739-0.91185-0.68013 0.11760 0.59185-0.10097
  -2  -3   4    7.62    1.62   0 0.69736-0.93013-0.68290 0.05362 0.60142 0.17773
  -1  -1   7   21.84    1.84   0 0.68717-0.92406-0.68555 0.32280 0.61090 0.47013
  -2  -3   3  149.19    4.41   0 0.71146-0.93010-0.67896 0.08340 0.58788 0.04660
  -1  -2   7  306.03    6.47   0 0.72275-0.86431-0.67554 0.08242 0.57667 0.55743
  -1  -1   6   30.61    1.99   0 0.73743-0.95968-0.67068 0.34071 0.56153 0.37530
  -1  -3   6   29.43    2.24   0 0.77210-0.80308-0.65744-0.13336 0.52314 0.51997
  -1  -2   6    1.67    1.28   0 0.77516-0.90176-0.65613 0.09558 0.51955 0.47063
  -1  -1   1  381.20    8.48   0 0.76325-0.91270-0.66108 0.49558 0.53332-0.31487
  -1  -1   5   10.23    1.42   0 0.77616-0.98433-0.65570 0.35909 0.51837 0.27427
   1   1   0  109.73    5.57   0 0.78416-0.64858-0.65213 0.78668 0.50882-0.58454
  -1  -3   5  168.32    4.48   0 0.81554-0.83306-0.63644-0.12120 0.46874 0.43062
  -1  -2   5  276.91    5.45   0 0.81675-0.92963-0.63577 0.10818 0.46710 0.37929
  -1  -1   2  189.22    5.28   0 0.81324-0.97748-0.63769 0.43942 0.47182-0.11007
  -1  -1   3 1245.43   12.00   0 0.81887-0.99773-0.63460 0.40341 0.46422 0.04113
  -1  -1   4  128.95    3.75   0 0.80403-0.99764-0.64254 0.37849 0.48394 0.16505
   0  -1   7    3.46    1.14   0 0.83660-0.84288-0.62410 0.16449 0.43922 0.61799
  -1  -3   4    6.73    1.37   0 0.85094-0.85326-0.61469-0.10990 0.41766 0.33696
  -1  -2   0   26.41    2.71   0 0.84678-0.88681-0.61750 0.25546 0.42404-0.29650
  -1  -2   4   87.38    3.17   0 0.85034-0.94805-0.61510 0.12067 0.41858 0.28322
   0  -2   7    2.76    1.08   0 0.84323-0.75303-0.61984-0.06940 0.42939 0.68115
  -3  -2  -1   25.80    2.48   0 0.26357-0.75086-0.96805 0.83028 0.44312-0.41148
  -1   0   3    0.59    1.34   0 0.26395-0.53848-0.96812 0.96590 0.44297 0.01138
  -4  -3   0  323.53    6.61   0 0.29488-0.93196-0.97414 0.66850 0.43007-0.17848
  -4  -3   2   21.25    2.13   0 0.30564-0.97163-0.97600 0.60442 0.42544 0.11356
  -4  -3   3  141.41    4.35   0 0.27802-0.95880-0.97099 0.56690 0.43719 0.24591
  -2  -1   0 5496.11   30.58   0 0.29203-0.65765-0.97363 0.93627 0.43129-0.33184
  -4  -3   1   62.88    3.03   0 0.31232-0.96399-0.97710 0.63854 0.42251-0.02744
  -3  -2   4  139.61    4.34   0 0.30825-0.86739-0.97644 0.67357 0.42429 0.32605
  -2  -1   4  167.15    5.03   0 0.32935-0.75318-0.97966 0.81114 0.41495 0.25882
  -3  -2   0  322.14    6.94   0 0.34338-0.84508-0.98153 0.81025 0.40857-0.23320
  -3  -2   3   85.28    3.68   0 0.35282-0.89752-0.98266 0.71253 0.40421 0.20227
  -2  -1   1  337.50    7.71   0 0.36691-0.74741-0.98418 0.91422 0.39759-0.15424
  -4  -4   3   32.03    2.52   0 0.38300-0.96792-0.98563 0.35118 0.38987 0.34647
  -3  -2   1  502.50    8.41   0 0.37561-0.89192-0.98500 0.78115 0.39344-0.07461
  -3  -2   2    0.70    1.00   0 0.37667-0.90719-0.98510 0.74787 0.39294 0.06911
  -2  -1   2  111.21    4.49   0 0.38816-0.78276-0.98603 0.88284 0.38736-0.00092
  -2  -1   3  123.90    4.39   0 0.37217-0.78144-0.98469 0.84874 0.39509 0.13504
  -4  -4   2    7.92    1.83   0 0.42247-0.99246-0.98790 0.38642 0.37014 0.22142
  -4  -4   0   63.99    3.38   0 0.44627-0.98811-0.98834 0.45295 0.35770-0.05368
  -4  -4   1   21.85    2.12   0 0.44370-0.99993-0.98833 0.41960 0.35906 0.08867
  -3  -3   4    0.75    1.50   0 0.44901-0.91304-0.98835 0.45549 0.35623 0.44597
  -4  -5   1   -0.29    1.32   0 0.51279-0.97166-0.98560 0.18918 0.32046 0.17861
  -3  -4   4   93.03    3.82   0 0.52273-0.89013-0.98465 0.22091 0.31457 0.54195
  -3  -3   3  159.62    4.51   0 0.50523-0.95437-0.98622 0.48592 0.32487 0.33456
  -3  -3  -1  250.47    5.86   0 0.54409-0.93606-0.98215 0.61404 0.30167-0.21731
  -3  -3   2  400.87    6.63   0 0.54436-0.98007-0.98211 0.51555 0.30150 0.21419
  -2  -2   4  907.53   10.52   0 0.54110-0.86888-0.98254 0.58373 0.30351 0.42296
  -3  -3   0  179.51    4.72   0 0.57074-0.97661-0.97799 0.57699 0.28499-0.05734
  -3  -3   1   46.11    2.55   0 0.56876-0.98883-0.97834 0.54379 0.28626 0.08551
  -3  -4   3    1.69    0.92   0 0.58395-0.93726-0.97549 0.24500 0.27642 0.43590
  -2   1   5   61.24    5.60   0-0.16342-0.46610-0.71883 0.97608 0.72405-0.01290
  -2   1   6   68.04    5.30   0-0.17059-0.47381-0.71142 0.93680 0.72928 0.12546
  -3   0   3  118.95    6.60   0-0.10261-0.63381-0.77758 0.96701 0.67703-0.17739
  -3   0   6  152.34    7.43   0-0.11506-0.66477-0.76612 0.85753 0.68705 0.24379
  -1   0   0  252.57   15.95   0-0.11618-0.11468-0.76508 0.86143 0.68794-0.66468
  -1   1   3  116.67    6.64   0-0.12659-0.24306-0.75525 0.98269 0.69616-0.29558
  -1   1   7   48.16    4.22   0-0.12284-0.30379-0.75882 0.85439 0.69321 0.28217
  -3   0   4  182.64    7.67   0-0.08973-0.66088-0.78918 0.94588 0.66644-0.02333
  -3   0   5   22.36    3.39   0-0.09486-0.67021-0.78461 0.90776 0.67068 0.11654
  -1   1   4  107.90    6.45   0-0.09088-0.29318-0.78816 0.98246 0.66739-0.12315
  -1   1   5  775.01   14.33   0-0.08433-0.31405-0.79393 0.95572 0.66194 0.02643
  -1   1   6    2.14    1.96   0-0.09606-0.31675-0.78354 0.91174 0.67166 0.16052
  -2   0   1  353.64   11.98   0-0.06670-0.40944-0.80904 0.96831 0.64701-0.45749
   0   1   3   21.21    3.66   0-0.07350-0.06492-0.80326 0.93430 0.65282-0.27480
  -2   0   7    0.13    2.02   0-0.04928-0.51469-0.82343 0.78580 0.63187 0.41763
   0   1   4   10.02    3.08   0-0.03143-0.12173-0.83762 0.93604 0.61596-0.09502
  -2   0   6  149.16    6.04   0-0.00951-0.53849-0.85426 0.84928 0.59590 0.31140
   0   1   5   13.14    2.50   0-0.02740-0.13943-0.84075 0.90605 0.61232 0.05211
  -2   0   2  107.89    5.79   0 0.01010-0.50059-0.86839 0.99467 0.57744-0.24475
  -3  -1   6   76.96    4.33   0 0.01985-0.70368-0.87518 0.73656 0.56808 0.41513
  -2   0   3  123.14    5.63   0 0.03787-0.54264-0.88724 0.98107 0.55050-0.07456
  -2   0   4  213.23    6.80   0 0.03826-0.55760-0.88750 0.94830 0.55011 0.06958
  -2   0   5   64.85    3.89   0 0.02066-0.55430-0.87573 0.90381 0.56731 0.19591
  -1   0   7  172.40    6.39   0 0.02938-0.36013-0.88163 0.74727 0.55883 0.46897
  -3  -1   5   20.98    2.78   0 0.05919-0.72886-0.90075 0.79513 0.52917 0.31008
  -3  -1   4  817.65   11.98   0 0.08907-0.74404-0.91829 0.84553 0.49830 0.19740
  -2  -1   7  124.20    5.02   0 0.07241-0.53880-0.90872 0.64063 0.51563 0.58862
  -1   0   6   29.22    2.86   0 0.08140-0.39763-0.91395 0.81243 0.50632 0.37776
  -1  -4   4   48.33    3.71   0 0.85747-0.76295-0.72161-0.23397 0.33989 0.47001
  -1  -5   2   11.10    2.25   0 0.87046-0.65289-0.70331-0.41604 0.32757 0.24661
  -1  -3   4    8.52    1.96   0 0.87269-0.87447-0.70000-0.02595 0.32536 0.43084
  -1  -2  -1  521.05   12.43   0 0.86413-0.88953-0.71243 0.38244 0.33370-0.34900
  -1  -5   0   15.53    2.40   0 0.88554-0.63814-0.67967-0.37387 0.31189-0.02504
  -1  -5   1   16.00    2.49   0 0.88237-0.64976-0.68487-0.40178 0.31533 0.11573
  -1  -4   3   33.86    3.08   0 0.88496-0.77772-0.68064-0.24173 0.31253 0.35280
  -1  -3   3  554.81   10.08   0 0.90034-0.88796-0.65332-0.03914 0.29462 0.31787
  -1  -2   3   90.78    4.17   0 0.88967-0.97220-0.67251 0.20990 0.30722 0.25200
  -1  -4   2   -0.09    1.35   0 0.90358-0.78025-0.64701-0.24373 0.29046 0.23004
  -1  -3  -1    1.19    2.42   0 0.91223-0.84265-0.62941 0.06814 0.27902-0.24124
  -1  -2   0   31.32    3.19   0 0.90399-0.94395-0.64621 0.28322 0.28993-0.16189
  -1  -2   2   11.84    2.57   0 0.90772-0.97585-0.63878 0.20918 0.28510 0.12993
  -1  -4   0  262.18    7.31   0 0.91524-0.76442-0.62284-0.20021 0.27481-0.04106
  -1  -4   1  130.69    5.18   0 0.91333-0.77709-0.62698-0.22906 0.27749 0.10000
  -1  -3   2   82.24    4.32   0 0.91766-0.89105-0.61743-0.04179 0.27132 0.19706
  -1  -2   1  136.75    5.85   0 0.91333-0.96778-0.62698 0.23096 0.27749-0.00601
   0  -4   4   56.64    4.46   0 0.92233-0.59759-0.60654-0.44520 0.26432 0.52257
  -1  -3   0   45.90    3.75   0 0.92599-0.87040-0.59758 0.00450 0.25858-0.07775
  -1  -3   1  120.41    5.40   0 0.92633-0.88520-0.59672-0.02929 0.25803 0.06635
   0  -5   1    1.77    2.32   0 0.93068-0.46735-0.58535-0.59708 0.25077 0.15692
   0  -4   3  126.02    5.92   0 0.94174-0.60329-0.55271-0.46593 0.23009 0.41256
   0  -3   4   82.80    4.96   0 0.94714-0.71818-0.53420-0.28702 0.21850 0.51457
   0  -4   2   70.53    4.31   0 0.95389-0.60028-0.50713-0.47798 0.20160 0.29667
   0  -2   4   99.64    4.21   0 0.95840-0.82497-0.48543-0.10571 0.18811 0.49159
   2  -1   3  174.18    4.68   0 0.20165 0.31202 0.38089-0.90102 0.62059-0.18489
   2  -1   6    5.28    1.26   0 0.20900 0.26148 0.36728-0.98635 0.62825 0.23937
   4   0   6  224.06    5.56   0 0.20009 0.63797 0.38376-0.96532 0.61895 0.14947
   0  -1   2   51.01    3.04   0 0.19091-0.12499 0.40034-0.69519 0.60936-0.27068
   1  -1   2  129.21    4.28   0 0.18870 0.10803 0.40433-0.79505 0.60700-0.29175
   1  -1   6   91.44    3.46   0 0.18730 0.05208 0.40686-0.93000 0.60550 0.28501
   1   1  -1  369.51   11.51   0 0.18150-0.03327 0.41725-0.24884 0.59926-0.81868
   2  -1   4  102.11    3.42   0 0.19047 0.30878 0.40114-0.95412 0.60889-0.02930
   2  -1   5   10.87    1.38   0 0.19458 0.29035 0.39367-0.98026 0.61326 0.11009
   0  -1   3  448.11    7.76   0 0.15874-0.10723 0.45714-0.78535 0.57425-0.09207
   1  -1   3    3.82    1.38   0 0.16132 0.12228 0.45269-0.87853 0.57713-0.11691
   1  -1   5    1.60    1.10   0 0.16585 0.08775 0.44484-0.93495 0.58215 0.16352
   0  -1   4  192.47    4.89   0 0.15591-0.11891 0.46197-0.82314 0.57113 0.05473
   1  -1   4  414.48    6.62   0 0.15546 0.11264 0.46275-0.92007 0.57062 0.03188
   2   0   8    0.07    1.13   0 0.14750 0.19879 0.47629-0.93210 0.56165 0.54062
   3   0   7   10.59    1.33   0 0.15199 0.44018 0.46866-0.98695 0.56673 0.36902
   3   0   6   49.13    2.44   0 0.12708 0.47988 0.51021-0.99649 0.53824 0.25307
   1   0   0    1.68    1.26   0 0.11573 0.11621 0.52852-0.62791 0.52504-0.54466
   2   0   7   21.51    1.75   0 0.10620 0.25456 0.54372-0.96676 0.51375 0.44476
   3   0   3   12.88    1.57   0 0.11286 0.53616 0.53311-0.91956 0.52166-0.16186
   3   0   5    0.44    1.04   0 0.10964 0.51084 0.53826-0.99101 0.51784 0.13034
   2   0   1  126.62    4.46   0 0.08663 0.35968 0.57427-0.79831 0.49019-0.39422
   3   0   4   25.98    1.76   0 0.10340 0.53149 0.54820-0.96751 0.51041-0.00685
   4   1   7   20.05    1.66   0 0.09691 0.63104 0.55836-0.94196 0.50264 0.35704
   2   0   6  177.64    4.13   0 0.07141 0.30413 0.59737-0.98846 0.47140 0.34332
   4   1   6   19.46    1.72   0 0.07219 0.67034 0.59620-0.94785 0.47236 0.24328
   3   1   8   78.73    2.91   0 0.06615 0.41568 0.60512-0.92618 0.46491 0.56189
   1   0   6  126.54    3.62   0 0.03743 0.10612 0.64666-0.94049 0.42869 0.40885
   2   0   2   94.98    3.50   0 0.03066 0.40157 0.65617-0.91362 0.41998-0.18062
   2   0   5   98.69    3.07   0 0.04170 0.34765 0.64061-0.99726 0.43415 0.23644
   2   0   3  668.42    8.15   0 0.01558 0.40246 0.67696-0.96762 0.40037-0.01745
   2   0   4 2177.28   14.18   0 0.02191 0.38184 0.66830-0.99183 0.40864 0.11806
   2   1   8   -0.11    0.79   0 0.02285 0.23137 0.66700-0.89424 0.40987 0.63737
   3   1   7    3.76    1.00   0 0.02379 0.47358 0.66570-0.95494 0.41110 0.47120
   2   2   4   25.44    2.65   0-0.74894 0.96221 0.31234-0.17654 0.70383-0.28161
   2   2   5   61.98    4.04   0-0.77363 0.97280 0.30066-0.19812 0.68552-0.11939
   2   2   6  931.51   13.59   0-0.77830 0.96337 0.29828-0.22895 0.68176 0.02837
   2   3   4   17.57    2.30   0-0.76085 0.87847 0.30689 0.05922 0.69529-0.32573
   2   3   8  116.15    5.26   0-0.77391 0.83438 0.30052-0.06789 0.68530 0.25973
   2   4   5  414.35    9.00   0-0.76369 0.77146 0.30554 0.25729 0.69318-0.23286
   2   4   6   49.66    3.63   0-0.77786 0.77188 0.29850 0.23117 0.68212-0.07810
   2   4   7  184.34    6.38   0-0.77879 0.75769 0.29803 0.19846 0.68136 0.06689
   2   4   8   20.06    2.51   0-0.76776 0.73240 0.30357 0.16028 0.69009 0.20157
   1   0   3   96.22    5.91   0-0.78571 0.97353 0.29439-0.48940 0.67556-0.26784
   2   3   5  157.74    5.83   0-0.78722 0.89067 0.29357 0.03914 0.67426-0.16105
   2   3   6   28.73    3.13   0-0.79484 0.88441 0.28939 0.01043 0.66756-0.01077
   2   3   7   12.04    2.40   0-0.79048 0.86482 0.29180-0.02607 0.67143 0.12981
   1   1   2  181.98    7.75   0-0.83059 0.93745 0.26715-0.19924 0.63118-0.42057
   1   4   8   48.96    3.82   0-0.84277 0.57591 0.25837 0.30059 0.61652 0.29881
   1   2   2   86.44    5.57   0-0.85180 0.86288 0.25138 0.04625 0.60472-0.44677
   1   4   7   38.17    3.54   0-0.85651 0.60503 0.24752 0.34478 0.59817 0.17290
   1   3   3   64.26    4.55   0-0.86831 0.76970 0.23725 0.25746 0.58050-0.33206
   1   3   8   27.69    3.05   0-0.86106 0.68937 0.24373 0.08508 0.59160 0.37691
   1   4   5  566.21   11.06   0-0.86074 0.63754 0.24401 0.41476 0.59207-0.10876
   1   4   6  209.64    6.88   0-0.86311 0.62567 0.24194 0.38345 0.58853 0.03844
   1   1   3   41.71    4.43   0-0.87893 0.97155 0.22692-0.19201 0.56265-0.20861
   1   2   7   98.40    5.11   0-0.87987 0.81962 0.22595-0.09403 0.56096 0.31606
   1   3   7   36.79    3.48   0-0.87810 0.72220 0.22776 0.13463 0.56411 0.25966
   1   1   4  236.19    8.10   0-0.89148 0.96940 0.21306-0.21126 0.53850-0.04025
   1   1   5    3.07    2.44   0-0.88893 0.95279 0.21604-0.24814 0.54373 0.09945
   1   2   3  216.23    7.79   0-0.89040 0.88734 0.21433 0.05055 0.54074-0.23944
   1   3   4  285.09    8.17   0-0.88765 0.77434 0.21750 0.24424 0.54628-0.15414
   1   3   6  180.88    6.41   0-0.88881 0.74666 0.21617 0.17927 0.54396 0.13570
   0   4   7  203.78    7.14   0-0.89828 0.41474 0.20461 0.48323 0.52361 0.27060
   1   2   6  148.21    5.84   0-0.89433 0.84824 0.20964-0.04450 0.53247 0.20043
   1   3   5   14.94    2.36   0-0.89230 0.76495 0.21212 0.21603 0.53682-0.00013
   1   2   4  160.66    6.29   0-0.90176 0.88459 0.19991 0.03185 0.51532-0.07046
   1   2   5 1933.60   20.42   0-0.90176 0.87005 0.19991-0.00150 0.51532 0.07362
   0  -3   4   73.06    4.97   0 0.90557-0.67700-0.44342-0.37805 0.32769 0.40529
   0  -3  -1   42.34    4.30   0 0.91082-0.61026-0.39051-0.26555 0.30427-0.29000
   1  -4   3  202.21    7.49   0 0.91010-0.34041-0.40054-0.71383 0.30875 0.31093
   0  -3   3   35.22    3.44   0 0.91096-0.66716-0.38838-0.40032 0.30331 0.28564
   1  -4   2  254.43    8.03   0 0.91202-0.32741-0.36756-0.71433 0.29396 0.18193
   0  -3   0   -0.26    2.77   0 0.91268-0.62531-0.33808-0.34705 0.28060-0.12241
   0  -3   1 2130.12   22.36   0 0.91269-0.64098-0.33552-0.38719 0.27943 0.02235
   0  -3   2   81.39    4.73   0 0.91253-0.65489-0.35115-0.40411 0.28654 0.15870
   1  -4   1  446.09   10.22   0 0.91253-0.31370-0.35115-0.69730 0.28654 0.04542
   0  -2  -1  227.25    9.65   0 0.91215-0.70703-0.30221-0.12368 0.26416-0.30291
   1  -3   4  195.89    7.29   0 0.91227-0.45326-0.30580-0.61181 0.26581 0.44452
   0  -2   3 2412.01   25.03   0 0.91161-0.76400-0.28905-0.26939 0.25806 0.27780
   0  -1  -1 1262.05   31.70   0 0.91160-0.80187-0.28878 0.09266 0.25794-0.34940
   0  -2   2  440.93   11.34   0 0.90795-0.74631-0.24006-0.28549 0.23520 0.15691
   1  -3   3   96.93    5.36   0 0.90850-0.43381-0.24564-0.63912 0.23782 0.32869
   0  -2   0  345.75   10.69   0 0.90694-0.71616-0.22996-0.22892 0.23042-0.12578
   0  -2   1  118.67    6.62   0 0.90526-0.72888-0.21565-0.27644 0.22366 0.02460
   0  -1   3  464.94   13.07   0 0.90427-0.85253-0.20795-0.12067 0.22001 0.26257
   1  -3   2   73.81    4.79   0 0.90357-0.41532-0.20275-0.64850 0.21754 0.20443
   2  -3   4   25.21    3.03   0 0.90651-0.21542-0.22616-0.78701 0.22863 0.45877
   1  -3   0   67.72    4.76   0 0.89976-0.38237-0.17722-0.60752 0.20536-0.07042
   1  -3   1  112.09    5.65   0 0.89990-0.39739-0.17812-0.63957 0.20579 0.07228
   2  -3   3   36.40    3.81   0 0.89840-0.19305-0.16910-0.81177 0.20147 0.34235
   1  -2   4   65.86    4.59   0 0.89563-0.53155-0.15334-0.53393 0.19387 0.46284
   0  -1   0  263.54   12.61   0 0.88795-0.79261-0.11552-0.11368 0.17558-0.12389
   0  -1   2   52.48    4.96   0 0.89142-0.82498-0.13175-0.16360 0.18346 0.15508
   2  -3   1  159.93    6.28   0 0.88487-0.15128-0.10198-0.81230 0.16897 0.08647
   2  -3   2    9.84    2.11   0 0.89020-0.17009-0.12592-0.82159 0.18064 0.21932
   2  -2   5  245.73    8.06   0 0.89061-0.30945-0.12787-0.68810 0.18158 0.59647
   3  -3   2  204.35    7.48   0 0.88739 0.06361-0.11298-0.93036 0.17434 0.20247
   0  -1   1   99.02    6.79   0 0.88237-0.80167-0.09143-0.17070 0.16382 0.03139
   2   0   3  671.32   13.25   0 0.28164 0.13684 0.66701-0.95787 0.11509 0.26950
   1   0  -1   38.63    4.49   0 0.24403 0.00065 0.69480-0.75764 0.11096-0.27745
   2   0   0   12.31    3.02   0 0.23069 0.23050 0.70432-0.89596 0.10947-0.15540
   2   0   2   91.71    5.01   0 0.22453 0.20838 0.70865-0.96669 0.10877 0.13217
   4   1   4  181.73    6.08   0 0.24157 0.52925 0.69657-0.98266 0.11069 0.31985
   2   0   1  134.78    5.67   0 0.20575 0.24142 0.72166-0.94639 0.10662-0.00922
   4   1   0    3.44    1.34   0 0.21763 0.60981 0.71347-0.86732 0.10798-0.25370
   4   1   3   62.06    3.80   0 0.19802 0.58735 0.72691-0.98017 0.10573 0.18085
   4   1   1  205.55    5.87   0 0.18475 0.62945 0.73585-0.92315 0.10415-0.10507
   4   1   2    6.04    1.63   0 0.17807 0.62098 0.74026-0.96006 0.10337 0.03894
   5   2   4   40.34    3.30   0 0.16203 0.74474 0.75067-0.90280 0.10147 0.25352
   1   0   2  371.69   11.36   0 0.14287 0.05909 0.76298-0.92483 0.09899 0.16484
   5   2   1  153.11    5.21   0 0.14399 0.80617 0.76228-0.81529 0.09913-0.17563
   5   2   2   42.97    3.18   0 0.12831 0.80806 0.77196-0.85875 0.09723-0.02967
   5   2   3   98.67    4.37   0 0.13350 0.78764 0.76878-0.88746 0.09786 0.11342
   6   3   2   38.32    2.90   0 0.14819 0.92356 0.75965-0.71162 0.09963-0.10768
   6   3   3    2.10    1.46   0 0.14315 0.91410 0.76280-0.74836 0.09903 0.03478
   1   0   0  276.70   10.14   0 0.11592 0.11444 0.77945-0.87521 0.09571-0.11873
   1   0   1  187.20    8.29   0 0.08949 0.12661 0.79497-0.92388 0.09244 0.02797
   3   1  -1  297.75    7.71   0 0.08380 0.52775 0.79823-0.82349 0.09172-0.35677
   3   1   4    9.84    2.36   0 0.08574 0.45406 0.79712-0.98729 0.09197 0.36039
   3   1   3   13.43    2.44   0 0.01955 0.53463 0.83301-0.99033 0.08348 0.22616
   3   1   0    1.23    1.43   0 0.01172 0.58582 0.83703-0.89501 0.08242-0.20420
   5   3   5   61.68    3.75   0-0.00418 0.80081 0.84496-0.79976 0.08031 0.36594
   3   1   1 1318.63   14.66   0-0.02000 0.60284 0.85263-0.94381 0.07818-0.05611
   3   1   2  362.30    7.72   0-0.01660 0.58506 0.85100-0.97508 0.07863 0.08699
   4   2   0   97.66    4.16   0-0.04401 0.77721 0.86384-0.78828 0.07492-0.27217
   4   2   4  213.64    6.08   0-0.03345 0.70892 0.85897-0.91534 0.07636 0.30146
   5   3   4    0.95    1.71   0-0.05000 0.86189 0.86655-0.78903 0.07410 0.22681
   4   2   1  214.89    5.64   0-0.08243 0.80153 0.88083-0.83836 0.06947-0.12313
   4   2   3  148.04    4.75   0-0.07474 0.76513 0.87756-0.90153 0.07055 0.16339
   5   3   1   14.03    1.90   0-0.05570 0.91072 0.86924-0.69234 0.07318-0.20224
   5   3   2  201.55    5.58   0-0.07646 0.91737 0.87829-0.73452 0.07031-0.05579
   5   3   3   47.38    3.04   0-0.07407 0.90031 0.87727-0.76690 0.07064 0.08771
   4   2   2   59.11    3.01   0-0.09223 0.79688 0.88491-0.87534 0.06813 0.02168
   1   2   2   96.60    6.50   0-0.92512 0.93711 0.38394-0.08664 0.45229-0.29327
   1   3   2    1.52    3.13   0-0.92273 0.83898 0.39117 0.13604 0.45474-0.34904
   1   4   3  139.07    6.19   0-0.91936 0.72639 0.40077 0.32357 0.45793-0.26112
   1   4   6  218.77    7.87   0-0.92470 0.68893 0.38524 0.23915 0.45274 0.17591
   0   5   4   29.65    3.85   0-0.93122 0.39710 0.36352 0.65345 0.44516-0.13392
   1   4   4   64.24    4.31   0-0.92709 0.71963 0.37774 0.31350 0.45015-0.10932
   1   4   5  551.77   11.73   0-0.92838 0.70688 0.37346 0.28452 0.44867 0.03598
   0   5   5  122.65    5.87   0-0.93298 0.38455 0.35702 0.62667 0.44283 0.01235
   1   2   3  218.37    8.64   0-0.93769 0.93559 0.33721-0.07286 0.43557-0.13299
   1   3   3   70.85    4.70   0-0.93534 0.83746 0.34751 0.14675 0.43938-0.18965
   1   3   5   13.13    3.28   0-0.93822 0.81238 0.33472 0.09292 0.43464 0.10264
   0   4   7  195.83    7.35   0-0.94235 0.46149 0.31270 0.37428 0.42623 0.36969
   1   2   4  170.68    7.35   0-0.94019 0.92372 0.32487-0.09357 0.43092 0.01545
   1   3   4  302.03    8.82   0-0.93912 0.82752 0.33032 0.13087 0.43298-0.03955
   0   4   2  207.09    7.54   0-0.94347 0.53287 0.30578 0.54766 0.42351-0.34706
   0   4   3   36.21    3.92   0-0.94767 0.52332 0.26962 0.55036 0.40888-0.18895
   0   4   6   27.66    3.21   0-0.94681 0.48082 0.27918 0.44131 0.41282 0.23835
   0   3   1   39.23    4.43   0-0.94918 0.64805 0.24306 0.41363 0.39768-0.41233
   0   4   4   30.37    3.18   0-0.94865 0.51035 0.25535 0.53169 0.40292-0.03956
   0   4   5   11.51    2.51   0-0.94843 0.49580 0.25914 0.49488 0.40451 0.10269
  -1   4   6   69.01    4.78   0-0.94935 0.25183 0.21337 0.60297 0.38467 0.29053
   0   2   0  355.30   11.95   0-0.94944 0.75920 0.23040 0.22889 0.39218-0.49762
  -1   4   3   93.69    5.55   0-0.94809 0.29271 0.18485 0.73129 0.37171-0.12836
  -1   4   5   33.22    3.74   0-0.94831 0.26458 0.18816 0.66155 0.37324 0.15771
   0   3   2  112.09    6.26   0-0.94805 0.63358 0.18419 0.43934 0.37141-0.24247
   0   3   6   24.28    2.97   0-0.94922 0.57739 0.20753 0.28331 0.38203 0.32212
  -1   4   4  337.10    9.16   0-0.94763 0.27830 0.17839 0.70474 0.36870 0.01856
   0   3   5  312.97    8.76   0-0.94715 0.59003 0.17274 0.35110 0.36607 0.19450
   0   3   3    2.93    2.25   0-0.94545 0.61653 0.15618 0.43408 0.35828-0.08596
   0   3   4  375.24    9.70   0-0.94524 0.60230 0.15444 0.40264 0.35745 0.05924
  -3  -4   2    0.65    0.44   0 0.62321-0.96326-0.96906 0.27165 0.21212 0.35505
  -2  -2  -1 9480.06   33.65   0 0.64730-0.90488-0.96100 0.72730 0.20370-0.19413
  -2  -2   2   14.43    1.13   0 0.63615-0.93559-0.96488 0.63133 0.20765 0.23287
  -3  -5   2   94.86    3.32   0 0.65335-0.89707-0.95878 0.03057 0.20150 0.42259
  -3  -4  -2  112.06    3.57   0 0.66616-0.94934-0.95385 0.38819 0.19679-0.20159
  -3  -4   1   11.03    1.42   0 0.66125-0.98690-0.95578 0.29083 0.19861 0.22754
  -2  -2   1  253.56    5.89   0 0.66904-0.95504-0.95269 0.65197 0.19571 0.10132
  -3  -5   1   96.82    4.04   0 0.69362-0.92416-0.94206 0.04714 0.18624 0.29386
  -3  -4  -1    2.65    1.15   0 0.68386-0.98161-0.94646 0.34780 0.19006-0.05260
  -3  -4   0    1.44    0.93   0 0.68152-0.99343-0.94748 0.31597 0.19097 0.08960
  -2  -2   0  656.50    9.46   0 0.67533-0.94692-0.95012 0.68298 0.19334-0.04021
  -1  -1  -1    6.69    2.04   0 0.69017-0.81151-0.94364 0.84301 0.18760-0.25442
  -3  -5  -2   20.84    2.34   0 0.72231-0.91025-0.92775 0.13205 0.17454-0.12635
  -3  -5   0   20.97    2.32   0 0.71836-0.93510-0.92985 0.06778 0.17620 0.15980
  -3  -6  -1    9.94    1.77   0 0.72588-0.83172-0.92582-0.13371 0.17304 0.07260
  -3  -5  -1   40.91    2.71   0 0.72827-0.93104-0.92450 0.09622 0.17201 0.01988
  -1  -1   2  185.49    6.32   0 0.72688-0.89083-0.92527 0.72567 0.17261 0.19124
  -2  -3   2   97.18    3.93   0 0.76514-0.97010-0.90207 0.33879 0.15543 0.33839
  -1  -1   0  119.75    5.85   0 0.76384-0.89920-0.90293 0.76950 0.15604-0.07894
  -1  -1   1  388.73    9.50   0 0.76561-0.91562-0.90175 0.73534 0.15521 0.06512
   0   0   2  170.16   10.85   0 0.78572-0.81455-0.88760 0.82210 0.14543 0.14181
  -2  -5   2   92.80    4.00   0 0.80009-0.81311-0.87653-0.14751 0.13814 0.46262
  -2  -4   2  642.42    9.66   0 0.80546-0.91443-0.87217 0.07868 0.13533 0.41175
  -2  -3  -2   14.48    1.92   0 0.80027-0.94799-0.87639 0.44547 0.13805-0.21952
  -2  -3   1    2.44    1.71   0 0.80218-0.99259-0.87485 0.34522 0.13705 0.21304
  -2  -3  -1  412.37    8.24   0 0.82238-0.98420-0.85762 0.39355 0.12616-0.06400
  -2  -3   0   55.95    3.13   0 0.82154-0.99751-0.85838 0.36110 0.12663 0.07938
  -2  -6  -1   77.33    4.26   0 0.84185-0.71720-0.83907-0.31606 0.11500 0.10755
  -2  -5   1  111.03    4.60   0 0.83616-0.83482-0.84471-0.14637 0.11835 0.33840
  -2  -4   1    2.82    1.44   0 0.84091-0.93518-0.84002 0.07839 0.11556 0.28781
  -2  -5   0  904.44   13.91   0 0.85896-0.84364-0.82096-0.13709 0.10449 0.20825
   4  -1   5   71.40    4.17   0 0.67638 0.27133 0.19633-0.97526 0.26642 0.41345
   3  -1   5  304.05    8.43   0 0.65383 0.06222 0.23708-0.92033 0.25151 0.45065
   4  -1   4   99.23    5.03   0 0.64825 0.31394 0.24679-0.99343 0.24786 0.28783
   1  -1   3    1.28    2.44   0 0.62738-0.34407 0.28198-0.70734 0.23439 0.22695
   4  -1   3    6.23    2.17   0 0.62842 0.34704 0.28025-0.99312 0.23507 0.15658
   1  -1   0  885.91   15.66   0 0.61918-0.29339 0.29532-0.62013 0.22916-0.20024
   2  -1   4  102.25    4.61   0 0.61625-0.11697 0.30003-0.85397 0.22730 0.35340
   3  -1   4  288.82    7.39   0 0.61643 0.11413 0.29976-0.95018 0.22741 0.33076
   4  -1   2  226.30    6.65   0 0.61987 0.37092 0.29421-0.97350 0.22960 0.01817
   1  -1   1  663.91   12.51   0 0.59237-0.28112 0.33730-0.69529 0.21221-0.03970
   1  -1   2  125.63    5.40   0 0.59871-0.30162 0.32759-0.71896 0.21619 0.09951
   3  -1   3  172.98    5.71   0 0.58800 0.15651 0.34392-0.96073 0.20948 0.20470
   2  -1   0  369.25    8.79   0 0.56866-0.01207 0.37248-0.79330 0.19750-0.19135
   2  -1   3  166.30    5.42   0 0.57901-0.06559 0.35735-0.87806 0.20390 0.23283
   3  -1   1   16.64    2.41   0 0.57199 0.20184 0.36765-0.91797 0.19955-0.07265
   3  -1   2  591.05    9.86   0 0.57238 0.18671 0.36708-0.95094 0.19979 0.07065
   5   0   4  135.72    5.30   0 0.56591 0.53200 0.37646-0.98865 0.19581 0.26419
   2  -1   1   42.03    3.52   0 0.54933-0.00733 0.39994-0.85394 0.18571-0.03619
   2  -1   2 1212.62   14.57   0 0.55474-0.02693 0.39236-0.87965 0.18902 0.10432
   5   0   3   44.28    3.35   0 0.54647 0.56569 0.40391-0.98297 0.18397 0.13173
   4   0   5   45.97    3.28   0 0.53282 0.31894 0.42257-0.97153 0.17573 0.45088
  -3  -1   0    1.79    1.87   0 0.01394-0.61129-0.91521 0.97331 0.32212-0.20051
  -3  -1   3   73.47    3.90   0 0.00441-0.64451-0.91129 0.86998 0.32510 0.22921
  -5  -3   1   90.88    3.99   0 0.05378-0.93709-0.93071 0.68692 0.30927 0.11043
  -5  -3   2    5.59    1.58   0 0.02714-0.92479-0.92053 0.64367 0.31788 0.24576
  -4  -2  -1  196.44    5.74   0 0.04689-0.76646-0.92814 0.88540 0.31152-0.25572
  -4  -2   3    1.26    1.27   0 0.02714-0.80380-0.92053 0.74499 0.31788 0.31217
  -3  -1   1  287.94    6.93   0 0.04300-0.65405-0.92667 0.95122 0.31278-0.04579
  -3  -1   2   32.59    2.74   0 0.03775-0.66311-0.92466 0.91616 0.31448 0.09579
  -2  -1  -2  136.58    6.56   0 0.04644-0.38424-0.92797 0.95693 0.31166-0.49874
  -1   0   1   35.31    3.54   0 0.02317-0.26814-0.91895 0.98169 0.31914-0.15147
  -1   0   3    1.22    1.45   0 0.02941-0.30462-0.92142 0.91854 0.31715 0.13679
  -5  -3   0   27.64    2.38   0 0.05946-0.92855-0.93280 0.72277 0.30734-0.03158
  -4  -2   0   85.50    3.74   0 0.08183-0.81540-0.94071 0.86497 0.29988-0.10053
  -4  -2   1   18.41    2.16   0 0.08719-0.83496-0.94253 0.83343 0.29806 0.04513
  -4  -2   2   -0.24    1.03   0 0.06796-0.83129-0.93586 0.79335 0.30453 0.17992
  -1   0   2 1149.72   16.57   0 0.05832-0.31753-0.93239 0.96207 0.30772 0.00342
  -5  -4   0   17.07    2.23   0 0.21596-0.99009-0.97780 0.53710 0.25143 0.07819
  -5  -4   1    3.89    1.26   0 0.19452-0.98303-0.97308 0.50176 0.25960 0.21174
  -4  -3   3  174.34    5.22   0 0.19619-0.87649-0.97346 0.56776 0.25897 0.42510
  -2  -1  -1  600.74   11.71   0 0.22507-0.57697-0.97967 0.97536 0.24790-0.29150
  -4  -3   2   24.95    2.24   0 0.25237-0.91890-0.98474 0.61233 0.23710 0.30279
  -3  -2   3   95.22    3.86   0 0.24853-0.79370-0.98407 0.71358 0.23863 0.36884
  -2  -1   3  134.68    4.66   0 0.22971-0.63885-0.98058 0.84372 0.24604 0.28473
   0   4   7  207.86    7.92   0-0.88522 0.40289 0.18066 0.50619 0.54629 0.24886
   1   2   3  218.84    8.55   0-0.88207 0.87909 0.19629 0.06821 0.55476-0.25243
   1   3   5   13.18    2.74   0-0.88295 0.75588 0.19217 0.23514 0.55255-0.01516
   0   4   4   31.22    3.44   0-0.88714 0.44793 0.16928 0.61750 0.53997-0.17678
   0   4   5   10.15    3.13   0-0.88883 0.43489 0.15778 0.59578 0.53343-0.02594
   0   4   6   29.63    3.84   0-0.88817 0.42031 0.16249 0.55762 0.53613 0.11491
   1   2   4  165.45    7.70   0-0.88793 0.87036 0.16411 0.06693 0.53705-0.09077
   1   2   5 1926.30   24.09   0-0.88837 0.85650 0.16110 0.03667 0.53534 0.05448
   0  -1   1   97.58   12.50   0-0.89189 0.97339 0.12831-0.39089 0.51612-0.31890
  -1   4   6   64.70    4.72   0-0.89281 0.19267 0.11209 0.70368 0.50618 0.16871
   0   1   0  305.51   15.91   0-0.89274 0.79724 0.11363 0.11611 0.50713-0.55971
   0   3   2  110.42    6.15   0-0.89217 0.57679 0.12422 0.49934 0.51363-0.38510
   0   3   7    1.55    2.75   0-0.89287 0.50569 0.11031 0.34652 0.50507 0.34347
  -1   4   5   35.94    3.51   0-0.89309 0.20846 0.10285 0.74679 0.50034 0.03006
   0   2   1  214.74    9.69   0-0.89268 0.68765 0.06941 0.35682 0.47870-0.44094
   0   3   3    2.07    2.21   0-0.89298 0.56349 0.07725 0.51255 0.48387-0.21112
   0   3   4  372.84   10.13   0-0.89208 0.54816 0.05883 0.49823 0.47163-0.05559
   0   3   5  310.19    9.16   0-0.89222 0.53414 0.06096 0.46282 0.47307 0.08678
   0   3   6   20.77    2.86   0-0.89303 0.52141 0.07919 0.41073 0.48514 0.21845
  -1   3   7    1.31    2.52   0-0.89094 0.27278 0.04457 0.50868 0.46192 0.41031
   0   2   6  377.09   10.78   0-0.88720 0.61085 0.01453 0.24584 0.44086 0.31578
  -1   3   6    1.36    2.12   0-0.88599 0.28226 0.00700 0.57869 0.43541 0.29209
   1   2   0   27.06    3.41   0-0.82367 0.86438 0.60614-0.24326 0.45779-0.58635
   2   3   3  329.22    8.23   0-0.83975 0.97216 0.59565-0.19766 0.44909-0.22257
   2   3   6   28.94    2.83   0-0.84172 0.93115 0.59428-0.29678 0.44797 0.21003
   2   4   3  183.12    6.61   0-0.85332 0.89067 0.58589 0.04179 0.44110-0.26749
   2   4   7  173.37    6.65   0-0.84698 0.82623 0.59056-0.09626 0.44492 0.30427
   2   5   4    5.17    2.12   0-0.85225 0.78103 0.58669 0.23787 0.44175-0.17782
   2   5   7   56.21    4.06   0-0.84455 0.72849 0.59229 0.13207 0.44634 0.24975
   2   3   4   19.38    2.51   0-0.85609 0.97449 0.58384-0.21958 0.43934-0.06879
   2   3   5  179.95    6.25   0-0.85595 0.95987 0.58395-0.25318 0.43944 0.07445
   2   4   6   56.12    4.05   0-0.86630 0.86052 0.57577-0.04847 0.43275 0.17230
   2   5   5    9.03    2.69   0-0.86219 0.77402 0.57908 0.21192 0.43546-0.02630
   2   5   6    4.37    1.92   0-0.85840 0.75637 0.58207 0.17558 0.43790 0.11559
   1   1   2  178.64    7.84   0-0.87602 0.98284 0.56758-0.50037 0.42601-0.21448
   2   4   4  403.44    8.90   0-0.87129 0.89416 0.57165 0.02281 0.42933-0.11209
   2   4   5  421.45    9.14   0-0.87482 0.88276 0.56863-0.00726 0.42687 0.03451
   1   1   3   36.83    3.85   0-0.90184 0.99423 0.54260-0.50886 0.40574-0.05028
   1   1   4  211.82    7.70   0-0.89807 0.97665 0.54658-0.54624 0.40895 0.08972
   1   2   1  528.95   12.31   0-0.92346 0.94918 0.51715-0.18750 0.38520-0.37024
   1   5   6   30.72    3.62   0-0.92791 0.59547 0.51117 0.34259 0.38038 0.19565
   1   3   1    0.19    3.60   0-0.93590 0.86539 0.49979 0.06270 0.37119-0.40585
   1   4   7   43.17    3.78   0-0.93074 0.67894 0.50734 0.08248 0.37725 0.39516
   1   5   4  364.85    9.81   0-0.93430 0.62942 0.50217 0.41839 0.37310-0.08525
   1   5   5    0.33    2.51   0-0.93504 0.61613 0.50108 0.38586 0.37222 0.05881
   1   1   2  174.73    8.49   0-0.77058 0.87699 0.10625-0.03812 0.71014-0.49941
   1   4   6  211.07    7.47   0-0.77149 0.53306 0.10544 0.52006 0.70901-0.08251
   1   4   7   39.78    3.63   0-0.77205 0.51974 0.10494 0.48691 0.70830 0.06226
   1   0   3  100.66    7.14   0-0.79249 0.98046 0.08552-0.28045 0.67995-0.27229
   1   3   4  285.18    8.98   0-0.79680 0.68292 0.08106 0.38090 0.67321-0.28139
   1   3   8   27.89    3.29   0-0.79523 0.62450 0.08269 0.24622 0.67570 0.29119
   1   2   3  210.04    8.41   0-0.80889 0.80519 0.06766 0.19735 0.65245-0.35121
   1   2   8  219.98    8.20   0-0.80656 0.73141 0.07035 0.02821 0.65668 0.36355
   1   3   5   14.29    2.74   0-0.81030 0.68197 0.06601 0.36235 0.64983-0.11338
   1   3   6  186.02    7.30   0-0.81246 0.66975 0.06343 0.33211 0.64573 0.03371
   1   3   7   39.16    3.75   0-0.80711 0.64980 0.06973 0.29292 0.65571 0.16821
   1   1   3   44.52    5.35   0-0.82251 0.91422 0.05064-0.01535 0.62491-0.27075
   1   2   7   96.16    5.80   0-0.82177 0.76050 0.05163 0.08035 0.62655 0.24987
   0   3   8  141.45    6.54   0-0.83220 0.43093 0.03666 0.38813 0.60138 0.38895
   1   1   6   53.69    4.62   0-0.83127 0.88045 0.03807-0.10298 0.60380 0.18167
   1   2   4  164.26    7.21   0-0.82845 0.81037 0.04228 0.18964 0.61093-0.16610
   1   2   5 1921.40   22.85   0-0.83307 0.80108 0.03530 0.16355 0.59905-0.01028
   1   2   6  136.44    6.74   0-0.83058 0.78345 0.03913 0.12634 0.60559 0.12695
   1   1   4  228.94    8.79   0-0.83646 0.91406 0.02980-0.02788 0.58955-0.09163
   1   1   5    2.41    2.90   0-0.83748 0.90064 0.02810-0.06006 0.58658 0.05651
   0   2   8  167.94    7.03   0-0.84643 0.54082 0.01147 0.18306 0.55697 0.48673
   0   3   7    3.47    2.20   0-0.84328 0.45550 0.01772 0.43951 0.56823 0.27966
   0   3   6   22.72    2.80   0-0.84963 0.47637 0.00444 0.48660 0.54413 0.15842
   0   1   3   30.69    6.25   0-0.65517 0.51599-0.39972 0.53073 0.43790-0.05902
  -4   1   4  166.24    8.51   0-0.63143-0.44646-0.43083 0.91280 0.42851 0.18669
  -4   1   2   75.40    6.04   0-0.62197-0.42713-0.44271 0.99078 0.42465-0.09705
  -4   1   3   18.52    4.40   0-0.61848-0.44519-0.44706 0.96093 0.42323 0.04775
  -3   1   0 1658.13   25.41   0-0.62588-0.16322-0.43781 0.95609 0.42622-0.40922
  -2   1   0  381.17   13.43   0-0.61078 0.05254-0.45652 0.87870 0.42009-0.42597
  -3   1   5    2.82    3.94   0-0.59643-0.26379-0.47377 0.82496 0.41419 0.32118
  -1   1   1   99.26    8.64   0-0.58388 0.24271-0.48843 0.78143 0.40897-0.29426
  -3   1   1   -0.26    2.56   0-0.57833-0.22651-0.49481 0.97980 0.40666-0.24443
  -3   1   4   32.21    4.81   0-0.56669-0.27996-0.50794 0.89255 0.40174 0.19012
  -5   0   2    9.28    3.79   0-0.54449-0.63963-0.53213 0.94543 0.39223 0.01176
  -3   1   2   26.71    3.52   0-0.55468-0.26269-0.52114 0.97246 0.39660-0.09258
  -3   1   3  120.43    6.44   0-0.55214-0.27991-0.52390 0.94218 0.39551 0.05248
  -2   1   1   52.42    6.05   0-0.54577-0.02673-0.53076 0.91957 0.39278-0.25497
  -1   1   4  103.94    6.67   0-0.53688 0.15278-0.54020 0.73350 0.38894 0.15641
  -4   0   5   18.85    3.57   0-0.51800-0.47774-0.55962 0.77800 0.38069 0.43143
  -2   1   2    9.82    3.47   0-0.51398-0.07288-0.56369 0.91958 0.37893-0.09806
  -2   1   3  330.84    9.68   0-0.51020-0.09049-0.56749 0.89040 0.37726 0.04740
  -2   1   4  790.99   14.87   0-0.52801-0.08705-0.54937 0.83883 0.38505 0.18353
  -1   1   2   62.32    5.42   0-0.53105 0.17554-0.54621 0.80608 0.38638-0.12830
  -1   1   3  118.82    7.17   0-0.51843 0.14866-0.55919 0.78576 0.38087 0.02074
  -4   0   4   60.12    4.87   0-0.47404-0.50780-0.60245 0.85403 0.36117 0.30679
   4   3   8   43.40    2.83   0-0.38840 0.91093 0.63909-0.59846 0.60051 0.29790
   1   0   2  362.08    7.84   0-0.43696 0.63836 0.67272-0.83461 0.56511-0.30209
   3   2   8    1.92    1.07   0-0.42339 0.80990 0.66348-0.75673 0.57537 0.39968
   4   3   6  693.84    9.65   0-0.43048 0.98128 0.66832-0.56093 0.57005 0.04029
   4   3   7    0.35    1.00   0-0.41672 0.95317 0.65890-0.58515 0.58029 0.17475
   2   1   2  156.65    4.95   0-0.46199 0.79897 0.68936-0.71738 0.54541-0.35848
   2   1   7  197.22    4.80   0-0.45975 0.72554 0.68788-0.88322 0.54721 0.35934
   3   2   3  130.31    4.22   0-0.46339 0.92195 0.69028-0.61780 0.54428-0.28951
   3   2   7    1.55    1.28   0-0.46399 0.86476 0.69068-0.75078 0.54379 0.28726
   1   0   5   64.18    2.98   0-0.48255 0.64073 0.70285-0.96456 0.52848 0.16571
   1   0   3   93.66    3.75   0-0.49350 0.68059 0.70995-0.90511 0.51917-0.11273
   1   0   4  869.81   10.56   0-0.50149 0.67381 0.71500-0.94334 0.51224 0.03751
   2   1   6   40.03    2.28   0-0.50079 0.78031 0.71456-0.87540 0.51285 0.24930
   3   2   4   99.27    3.49   0-0.49892 0.94311 0.71338-0.67389 0.51448-0.11618
   3   2   5  501.01    7.53   0-0.50490 0.93476 0.71715-0.71090 0.50923 0.03281
   3   2   6    1.37    0.88   0-0.49204 0.90699 0.70901-0.73563 0.52043 0.16661
   2   1   3    8.41    1.41   0-0.52180 0.84438 0.72765-0.78877 0.49406-0.16422
   2   1   4 1035.55   11.06   0-0.53649 0.84524 0.73656-0.83140 0.48039-0.00599
   2   1   5 1596.94   13.45   0-0.52718 0.82117 0.73093-0.85876 0.48911 0.12898
   2   2   8  114.84    3.83   0-0.56134 0.71655 0.75128-0.74927 0.45629 0.54098
   3   3   8   80.19    3.27   0-0.54468 0.83462 0.74152-0.60391 0.47264 0.44883
   0  -5  -3  100.97    4.61   0 0.94316-0.42107-0.40358-0.64700-0.40609 0.24078
   3  -5  -7   14.43    2.21   0 0.94155 0.32827-0.41904-0.78732-0.40386-0.40393
   0  -5  -5  133.38    5.24   0 0.94510-0.39568-0.37792-0.60616-0.40943-0.04265
   0  -5  -4   35.18    3.13   0 0.94492-0.40910-0.38092-0.63595-0.40906 0.10028
   0  -4  -1  197.44    6.08   0 0.94534-0.54800-0.37375-0.51305-0.40994 0.47895
   1  -5  -2  135.39    5.30   0 0.94513-0.20720-0.37741-0.80218-0.40949 0.36515
   3  -5  -2    6.77    2.24   0 0.94450 0.25504-0.38711-0.98382-0.40827 0.31872
   2  -5  -2   12.49    2.60   0 0.94603 0.02466-0.35758-0.91826-0.41167 0.34279
   3  -5  -6    7.11    1.68   0 0.94547 0.31042-0.37073-0.86883-0.41014-0.25414
   3  -5  -5    7.80    2.10   0 0.94637 0.29789-0.34458-0.92747-0.41307-0.10779
   3  -5  -3   92.27    4.51   0 0.94617 0.26984-0.35307-0.98433-0.41216 0.17803
   5  -4  -5    2.12    1.97   0 0.94588 0.66363-0.36158-0.87245-0.41121-0.21138
   1  -5  -6   52.13    3.40   0 0.94645-0.15190-0.33533-0.71150-0.41389-0.20494
   1  -5  -5   71.05    3.89   0 0.94637-0.16597-0.31720-0.76246-0.41559-0.05958
   1  -5  -4    3.51    2.06   0 0.94639-0.17966-0.31864-0.79416-0.41546 0.08268
   1  -5  -3   27.24    2.60   0 0.94642-0.19346-0.33842-0.80774-0.41358 0.22546
   2  -5  -6    1.01    1.79   0 0.94646 0.07962-0.32628-0.81517-0.41476-0.22841
   2  -5  -3  530.88    9.89   0 0.94643 0.03799-0.32160-0.92034-0.41519 0.20429
   3  -5  -4    8.11    1.69   0 0.94640 0.28376-0.34021-0.96530-0.41340 0.03583
   5  -4  -4   11.66    2.40   0 0.94643 0.64881-0.33764-0.93005-0.41366-0.06386
   5  -4  -3   -0.27    1.15   0 0.94641 0.63376-0.33893-0.96166-0.41353 0.07554
   0  -4  -2  199.70    5.87   0 0.94617-0.53494-0.30859-0.54485-0.41633 0.34204
   2  -5  -5   22.14    2.53   0 0.94613 0.06554-0.30703-0.86953-0.41646-0.08099
   2  -5  -4   67.15    3.72   0 0.94609 0.05178-0.30547-0.90408-0.41659 0.06262
   6  -3  -4    2.82    2.50   0 0.94538 0.78456-0.28725-0.84645-0.41800-0.13434
   0  -4  -3   40.99    3.05   0 0.94390-0.51808-0.26442-0.55558-0.41948 0.20155
   1  -4  -1  273.97    6.99   0 0.94383-0.31517-0.26354-0.71899-0.41953 0.46553
   4  -4  -6    5.67    1.84   0 0.94336 0.44783-0.25766-0.84825-0.41987-0.31906
   6  -3  -3    6.58    1.94   0 0.94471 0.77078-0.27612-0.89232-0.41874 0.01268
   0  -4  -4   29.93    2.50   0 0.94206-0.50245-0.24380-0.54295-0.42061 0.05928
   2  -4  -1   56.88    3.72   0 0.93890-0.07961-0.21593-0.86295-0.42178 0.44505
   4  -4  -5    1.45    1.66   0 0.94003 0.44063-0.22511-0.91600-0.42143-0.17791
   4  -4  -2   50.36    3.45   0 0.94152 0.39450-0.23847-0.99952-0.42086 0.25505
   1  -4  -2    2.01    1.41   0 0.93721-0.29473-0.20365-0.74606-0.42216 0.32424
   4  -4  -4   31.49    2.74   0 0.93774 0.42543-0.20741-0.96481-0.42205-0.03087
   4  -4  -3   26.42    2.64   0 0.93839 0.41129-0.21224-0.99236-0.42190 0.11282
   5  -3  -6    5.31    2.15   0 0.93448 0.59670-0.18561-0.78712-0.42260-0.39522
   1  -4  -5   34.99    3.12   0 0.92878-0.24430-0.15361-0.69574-0.42294-0.10522
   1  -4  -3   91.44    4.22   0 0.93076-0.27350-0.16409-0.75157-0.42287 0.18144
   2  -4  -6  349.43    8.37   0 0.92866 0.00121-0.15297-0.75979-0.42294-0.27176
   2  -4  -2  123.20    5.04   0 0.93023-0.05577-0.16124-0.88453-0.42289 0.30218
   3  -4  -6    1.91    1.50   0 0.93350 0.22834-0.17973-0.82936-0.42267-0.29651
   3  -4  -2    0.19    1.78   0 0.93263 0.17684-0.17459-0.96847-0.42275 0.27295
   6  -2  -6    4.61    2.55   0 0.93039 0.73165-0.16209-0.67492-0.42289-0.46929
   1  -4  -4  337.39    7.50   0 0.92774-0.25709-0.14875-0.73411-0.42282 0.03825
   2  -4  -5    5.20    2.35   0 0.92272-0.00652-0.12503-0.82119-0.42272-0.12887
   2  -4  -3  707.47   11.51   0 0.92355-0.03517-0.12876-0.88375-0.42275 0.15842
   3  -4  -5   39.09    3.17   0 0.92774 0.21930-0.14875-0.89407-0.42282-0.15105
   3  -4  -4   -0.27    2.26   0 0.92449 0.21141-0.13309-0.93778-0.42278-0.01212
   3  -4  -3    5.72    2.08   0 0.92719 0.19201-0.14603-0.96266-0.42282 0.13632
   5  -3  -5   21.00    2.64   0 0.92393 0.58933-0.13050-0.87264-0.42276-0.25073
   2  -4  -4   42.64    3.19   0 0.92102-0.01988-0.11774-0.86207-0.42259 0.01533
   5  -3  -4   19.93    2.77   0 0.91795 0.58130-0.10484-0.93253-0.42238-0.10740
   5  -3  -3    9.85    2.45   0 0.91645 0.56838-0.09874-0.97089-0.42225 0.03593
   5  -3  -2   46.51    3.36   0 0.92077 0.55024-0.11665-0.98821-0.42257 0.18136
   6  -2  -5   15.57    3.02   0 0.91436 0.73484-0.09055-0.78096-0.42205-0.32683
   4  -3  -6   36.07    3.57   0 0.90653 0.38927-0.06183-0.81412-0.42113-0.37231
   7  -1  -4   21.35    3.40   0 0.90393 0.86697-0.05292-0.71895-0.42075-0.25801
   4  -3  -5    1.41    2.50   0 0.89328 0.38924-0.01887-0.88977-0.41906-0.23154
   6  -2  -4    3.46    1.65   0 0.90247 0.73186-0.04804-0.85665-0.42060-0.18455
   6  -2  -3   60.10    4.08   0 0.89676 0.72424-0.02962-0.90713-0.41968-0.04173
   6  -2  -2   56.61    3.94   0 0.89791 0.70878-0.03323-0.93544-0.41987 0.10166
   2  -3  -1   26.27    2.74   0 0.88766-0.12428-0.00206-0.84720-0.41803 0.38786
   3  -3  -6  413.35    9.72   0 0.88528 0.17943 0.00474-0.78387-0.41756-0.35322
   3  -3  -1  104.97    5.11   0 0.88640 0.10924 0.00157-0.94610-0.41778 0.36453
   4  -3  -4   31.47    3.56   0 0.88569 0.38219 0.00357-0.94514-0.41764-0.08876
   4  -3  -3  172.81    6.72   0 0.88489 0.36930 0.00586-0.98066-0.41748 0.05452
   4  -3  -2  599.85   11.31   0 0.89114 0.34873-0.01225-0.99618-0.41869 0.19958
   5  -2  -6    9.39    2.41   0 0.88238 0.54946 0.01287-0.75457-0.41697-0.45342
   7  -1  -3    9.79    2.31   0 0.89261 0.86480-0.01666-0.78592-0.41897-0.11680
   1  -3  -4   42.20    3.42   0 0.87421-0.29909 0.03476-0.68731-0.41501-0.02239
   3  -3  -5  172.40    6.60   0 0.87025 0.18103 0.04497-0.85721-0.41412-0.21333
   3  -3  -2    1.28    2.31   0 0.87070 0.13805 0.04383-0.95583-0.41423 0.21782
   6  -1  -6   27.30    3.09   0 0.87448 0.69059 0.03406-0.64027-0.41507-0.53128
   2  -3  -5  416.23    9.42   0 0.86384-0.04435 0.06103-0.77709-0.41265-0.19113
   2  -3  -4   90.12    4.74   0 0.85654-0.05118 0.07852-0.82830-0.41088-0.04953
   2  -3  -3    4.59    2.07   0 0.85805-0.06625 0.07494-0.85826-0.41125 0.09403
   2  -3  -2   43.88    3.05   0 0.86857-0.09096 0.04929-0.86534-0.41375 0.24041
   3  -3  -4   41.95    3.83   0 0.86161 0.17588 0.06644-0.91044-0.41211-0.07194
   3  -3  -3    7.88    2.75   0 0.86179 0.16103 0.06601-0.94359-0.41216 0.07234
   5  -2  -5   -0.59    2.48   0 0.86041 0.55967 0.06934-0.84288-0.41182-0.31621
   7   0  -5   10.50    3.55   0 0.85645 0.83356 0.07872-0.58238-0.41086-0.46784
   5  -2  -4   39.79    4.02   0 0.84558 0.55764 0.10380-0.91154-0.40825-0.17412
   5  -2  -2   31.34    4.06   0 0.84162 0.53425 0.11249-0.98636-0.40722 0.11124
   6  -1  -5   15.71    2.77   0 0.84379 0.70915 0.10774-0.74784-0.40779-0.39451
   4  -2  -6    6.31    2.17   0 0.83769 0.36213 0.12096-0.76727-0.40619-0.43953
   5  -2  -3    0.43    2.04   0 0.83910 0.55349 0.11796-0.95717-0.40656-0.03705
   8   1  -3    0.68    2.43   0 0.83833 0.95683 0.11959-0.55891-0.40636-0.26032
   4  -2  -5  303.97    9.12   0 0.81181 0.37460 0.17322-0.85201-0.39899-0.30398
   6  -1  -4    1.50    1.95   0 0.82115 0.71789 0.15500-0.82899-0.40165-0.25691
   7   0  -4    1.99    1.96   0 0.82468 0.84977 0.14794-0.68809-0.40264-0.33194
   8   1  -2    1.42    3.01   0 0.81573 0.95940 0.16565-0.63516-0.40011-0.12176
   4  -2  -4   10.03    3.17   0 0.79485 0.37746 0.20465-0.91660-0.39398-0.16632
   4  -2  -1   -0.21    2.09   0 0.80626 0.32955 0.18369-0.99556-0.39735 0.26269
   5  -1  -6   19.22    2.84   0 0.80467 0.53140 0.18666-0.69783-0.39689-0.52679
   6  -1  -3   11.36    2.52   0 0.80770 0.71747 0.18099-0.88845-0.39777-0.11720
   6  -1  -2   86.70    5.06   0 0.80424 0.70661 0.18747-0.92827-0.39676 0.02613
   6   0  -6    0.34    2.13   0 0.79905 0.67230 0.19703-0.57348-0.39523-0.60162
   7   0  -3    7.40    2.12   0 0.80337 0.85689 0.18909-0.76291-0.39650-0.19454
   7   0  -2    1.31    2.52   0 0.79387 0.85391 0.20641-0.81423-0.39369-0.05364
   3  -2  -5   43.06    4.19   0 0.77740 0.17773 0.23516-0.81775-0.38868-0.29159
   3  -2  -1    5.02    2.28   0 0.77586 0.12327 0.23778-0.95366-0.38820 0.28302
   4  -2  -3    8.14    2.55   0 0.78712 0.37009 0.21839-0.96309-0.39165-0.02329
   4  -2  -2  155.48    6.45   0 0.79121 0.35291 0.21115-0.98954-0.39289 0.12052
   7   1  -5    2.48    2.83   0 0.77735 0.81517 0.23526-0.51206-0.38866-0.54267
   3  -2  -4    1.58    2.81   0 0.75739 0.18405 0.26818-0.88330-0.38238-0.15388
   3  -2  -2   29.11    3.45   0 0.75576 0.15788 0.27078-0.95289-0.38186 0.13246
   5  -1  -5  135.33    6.16   0 0.76784 0.55415 0.25119-0.79585-0.38568-0.39377
   2  -2  -4  336.97    9.00   0 0.74647-0.03673 0.28558-0.80493-0.37892-0.13421
   3  -2  -3  212.17    7.23   0 0.75051 0.17638 0.27928-0.92819-0.38022-0.01267
   5  -1  -4  125.59    6.46   0 0.74019 0.56804 0.29524-0.87184-0.37688-0.25897
   6   0  -5   10.86    2.67   0 0.75285 0.70465 0.27559-0.68519-0.38097-0.47508
   8   2  -3   10.74    3.49   0 0.74917 0.95068 0.28138-0.48968-0.37979-0.34029
   5  -1  -3    0.81    2.82   0 0.72171 0.56865 0.32276-0.92996-0.37081-0.12032
   5  -1  -2   11.97    3.71   0 0.71910 0.56009 0.32655-0.96921-0.36994 0.02074
   5  -1  -1    8.31    2.61   0 0.72854 0.53648 0.31274-0.99002-0.37307 0.16878
   6   0  -4  108.90    6.19   0 0.71633 0.72706 0.33053-0.77451-0.36902-0.34255
   7   1  -4   28.46    3.38   0 0.73047 0.84836 0.30988-0.61995-0.37371-0.41375
   8   2  -2    4.62    2.97   0 0.71833 0.96738 0.32766-0.56885-0.36969-0.20692
   4  -1  -5  148.78    6.91   0 0.69950 0.39075 0.35428-0.80117-0.36335-0.39274
   6   0  -3   12.16    3.47   0 0.69202 0.73900 0.36449-0.84282-0.36080-0.20717
   7   1  -3   19.29    3.68   0 0.69637 0.86820 0.35859-0.70210-0.36228-0.28177
   7   2  -5    2.80    2.42   0 0.69712 0.79959 0.35756-0.40432-0.36254-0.62029
   8   2  -1    9.31    3.03   0 0.70280 0.96881 0.34972-0.62400-0.36447-0.06852
   4  -1  -4  163.11    7.11   0 0.66778 0.40862 0.39643-0.87731-0.35243-0.26027
   6   0  -2    4.06    3.38   0 0.67755 0.73719 0.38377-0.89365-0.35582-0.06867
   6   0  -1    2.49    3.05   0 0.67793 0.72272 0.38327-0.92648-0.35595 0.07513
   7   1  -2    7.60    3.16   0 0.67451 0.87589 0.38774-0.76346-0.35477-0.14504
   7   1  -1    7.02    3.01   0 0.66769 0.86903 0.39654-0.80685-0.35240-0.00524
   4  -1  -3   17.53    3.41   0 0.64894 0.41319 0.42014-0.93579-0.34581-0.12251
   4  -1  -1  103.27    5.75   0 0.65193 0.38292 0.41645-0.99640-0.34687 0.16479
   5   0  -5   61.99    5.30   0 0.65491 0.57102 0.41274-0.72628-0.34792-0.48402
   6   1  -5    5.92    3.20   0 0.65145 0.70945 0.41704-0.59612-0.34670-0.56118
   8   3  -3   24.47    4.46   0 0.66507 0.93945 0.39993-0.37907-0.35148-0.42165
   4  -1  -2   82.81    4.95   0 0.64280 0.40564 0.42768-0.97573-0.34369 0.01824
   7   2  -4   16.38    2.81   0 0.63468 0.84933 0.43747-0.51788-0.34080-0.50020
   8   3  -2   -0.82    2.83   0 0.62328 0.97030 0.45095-0.46312-0.33671-0.29734
   3  -1  -4   31.23    3.19   0 0.61063 0.23474 0.46553-0.85079-0.33213-0.25772
   5   0  -4   92.55    5.35   0 0.61189 0.60017 0.46409-0.81162-0.33259-0.35586
   6   1  -4   91.35    5.74   0 0.59963 0.74844 0.47794-0.69203-0.32814-0.43649
   8   4  -3    0.91    3.90   0 0.60012 0.91022 0.47739-0.22639-0.32831-0.49977
   3  -1  -3  116.92    5.51   0 0.58632 0.24501 0.49261-0.91120-0.32329-0.12236
   5   0  -3    5.06    3.26   0 0.58115 0.61562 0.49821-0.87926-0.32139-0.22449
   7   2  -3   58.46    4.53   0 0.58546 0.88454 0.49355-0.60696-0.32297-0.37430
   8   3  -1   -0.08    1.88   0 0.59149 0.98448 0.48696-0.53088-0.32519-0.16541
   5   0  -2   12.61    2.84   0 0.56401 0.61960 0.51636-0.93081-0.31505-0.08718
   5   0  -1    2.48    2.05   0 0.56201 0.60786 0.51844-0.96587-0.31431 0.05614
   6   1  -3   12.80    2.83   0 0.55913 0.77426 0.52143-0.76935-0.31324-0.30691
   6   2  -5    9.45    2.87   0 0.55392 0.71185 0.52679-0.47694-0.31130-0.64993
   7   2  -2   -1.21    2.97   0 0.54942 0.90563 0.53139-0.67385-0.30962-0.24806
   7   3  -4    6.78    2.84   0 0.54733 0.84061 0.53351-0.38344-0.30884-0.58480
   4   0  -4   60.73    4.48   0 0.51378 0.46704 0.56648-0.81849-0.29620-0.36926
   5   1  -5   25.00    3.25   0 0.53509 0.59642 0.54577-0.63151-0.30425-0.58065
   6   1  -2    1.63    2.39   0 0.53214 0.78719 0.54869-0.82874-0.30314-0.17488
   6   1  -1   39.87    4.47   0 0.52015 0.78501 0.56038-0.87401-0.29861-0.03548
   7   2  -1    1.47    2.95   0 0.52940 0.91119 0.55138-0.73083-0.30211-0.10840
   8   4  -2   18.02    3.14   0 0.53645 0.95885 0.54442-0.32712-0.30477-0.37743
   7   4  -4    0.61    2.19   0 0.48686 0.80828 0.59158-0.21139-0.28589-0.66452
   8   4  -1   10.04    3.09   0 0.49269 0.98734 0.58625-0.40095-0.28812-0.25119
   4   0  -3  539.67   10.88   0 0.47436 0.49257 0.60285-0.88787-0.28108-0.24075
   5   1  -4    8.45    3.00   0 0.47038 0.64499 0.60638-0.72283-0.27954-0.46244
   6   2  -4    3.34    2.23   0 0.48338 0.76898 0.59475-0.57846-0.28456-0.53409
   7   3  -3   -0.16    1.98   0 0.48196 0.89189 0.59603-0.47640-0.28401-0.46831
   8   4   0    2.00    2.57   0 0.46800 0.99833 0.60849-0.45733-0.27862-0.11755
   8   5  -2   -0.34    3.30   0 0.48054 0.91845 0.59731-0.14990-0.28346-0.45429
   4   0  -2   80.43    4.37   0 0.45131 0.50174 0.62299-0.94149-0.27216-0.10647
   4   0  -1    1.83    1.85   0 0.44549 0.49298 0.62795-0.97895-0.26989 0.03466
   7   3  -2    0.16    2.59   0 0.43624 0.92821 0.63573-0.55385-0.26628-0.34313
   5   1  -3   21.40    2.87   0 0.42200 0.68085 0.64748-0.79893-0.26070-0.33710
   6   2  -3   83.63    4.75   0 0.42594 0.81221 0.64426-0.66150-0.26224-0.41224
   7   3  -1    0.34    2.45   0 0.39719 0.94813 0.66728-0.61698-0.25090-0.21282
   7   4  -3    3.80    2.40   0 0.39952 0.87878 0.66546-0.31851-0.25182-0.55269
   8   5  -1    0.04    1.78   0 0.42101 0.96345 0.64828-0.23294-0.26031-0.33511
   5   1  -2   43.80    3.35   0 0.38616 0.70210 0.67582-0.85939-0.24654-0.20808
   5   1  -1   31.43    3.03   0 0.36825 0.70637 0.68936-0.90721-0.23939-0.07123
   5   1   0    5.30    2.13   0 0.36985 0.69181 0.68816-0.94049-0.24003 0.07238
   6   2  -2  122.04    5.54   0 0.38259 0.84120 0.67855-0.72861-0.24511-0.28559
   6   3  -4    7.70    2.59   0 0.37899 0.77619 0.68129-0.43426-0.24368-0.62695
   7   3   0    4.03    2.47   0 0.37701 0.95234 0.68279-0.66491-0.24289-0.07689
   8   5   0    7.73    2.40   0 0.37957 0.98958 0.68085-0.29848-0.24391-0.20428
   8   6  -1    2.48    2.70   0 0.38717 0.90208 0.67505-0.03072-0.24694-0.39934
   4   1  -4   61.45    3.67   0 0.34500 0.54025 0.70633-0.72870-0.23007-0.48812
   6   2  -1    9.21    2.50   0 0.35314 0.85543 0.70047-0.78191-0.23335-0.15337
   6   2   0   10.19    2.40   0 0.34384 0.85122 0.70716-0.82428-0.22961-0.01388
   7   5  -3    1.70    1.69   0 0.34660 0.83420 0.70518-0.12831-0.23072-0.62563
   5   2  -4   13.94    2.25   0 0.33449 0.68715 0.71375-0.60247-0.22583-0.56862
   7   4  -2    0.04    1.68   0 0.33320 0.93013 0.71466-0.39740-0.22531-0.43687
   8   6   0    4.10    1.86   0 0.33063 0.94373 0.71646-0.10395-0.22427-0.27730
  -3   5  -4   23.52    1.50   0-0.74040-0.37431 0.57382 0.99702-0.58835-0.18009
  -3   5  -3   33.38    1.96   0-0.74279-0.38638 0.55909 0.97866-0.58783-0.03735
  -2   5  -5    0.98    1.02   0-0.74275-0.12767 0.55939 0.95270-0.58784-0.35194
  -1   5  -5    7.54    1.40   0-0.74360 0.10613 0.55371 0.85811-0.58759-0.37120
   0   5  -4   93.15    3.30   0-0.74298 0.32275 0.55782 0.72426-0.58777-0.24966
   0   5   0    8.63    1.13   0-0.74016 0.26105 0.57523 0.57466-0.58839 0.32415
  -4   4  -6   24.76    2.08   0-0.74712-0.47413 0.52603 0.97811-0.58600-0.39470
  -1   5   0    0.43    0.82   0-0.74482 0.03550 0.54457 0.70151-0.58714 0.34413
   0   5  -3    2.75    1.26   0-0.74604 0.31160 0.53515 0.71322-0.58660-0.10961
   0   5  -2   21.55    1.84   0-0.74649 0.29663 0.53142 0.68494-0.58636 0.03558
   0   5  -1    1.00    0.91   0-0.74492 0.28101 0.54385 0.63933-0.58710 0.17755
   1   4  -1  138.62    3.51   0-0.74585 0.60800 0.53665 0.31951-0.58669 0.21017
  -3   4  -7   11.42    1.44   0-0.74861-0.22669 0.51158 0.92850-0.58492-0.56287
  -2   5  -4   77.40    2.72   0-0.74775-0.13557 0.52003 0.95445-0.58557-0.20648
  -2   5  -3    6.54    1.51   0-0.74938-0.14719 0.50319 0.93818-0.58422-0.06555
  -2   5  -2   17.00    1.74   0-0.74933-0.16233 0.50379 0.90415-0.58427 0.07903
  -1   5  -4    0.56    0.94   0-0.74816 0.09590 0.51612 0.86245-0.58527-0.23164
  -1   5  -3    2.48    1.19   0-0.74981 0.08372 0.49817 0.84873-0.58377-0.08931
  -1   5  -1   51.84    2.43   0-0.74873 0.05352 0.51026 0.76815-0.58481 0.20075
   1   4  -2    0.31    0.58   0-0.74811 0.62523 0.51661 0.37361-0.58531 0.06258
  -4   4  -5    0.03    0.97   0-0.75140-0.48491 0.47519 0.99591-0.58146-0.25694
  -1   5  -2  497.66    6.66   0-0.75010 0.06917 0.49432 0.81733-0.58338 0.05605
  -4   3  -8   27.39    2.11   0-0.75271-0.34553 0.44478 0.89379-0.57802-0.63734
  -4   4  -4   17.09    1.55   0-0.75270-0.49753 0.44523 0.99067-0.57808-0.11496
  -3   4  -6   86.92    2.93   0-0.75283-0.23691 0.43988 0.96806-0.57738-0.42613
   0   4   0  557.72    6.82   0-0.75216 0.36912 0.46042 0.45876-0.57994 0.36967
  -5   3  -6   68.53    2.76   0-0.75306-0.60505 0.40954 0.96009-0.57309-0.32914
  -2   4  -6   -1.12    1.23   0-0.75308-0.00948 0.41193 0.90006-0.57345-0.45538
   0   4  -4   61.49    2.72   0-0.75308 0.42801 0.41304 0.63822-0.57362-0.21073
   0   4  -1   84.74    2.83   0-0.75308 0.38398 0.41424 0.53794-0.57380 0.21983
  -3   4  -5   75.72    2.83   0-0.75272-0.25162 0.38946 0.98446-0.56991-0.29001
  -1   4  -5   14.79    1.68   0-0.75244 0.21079 0.37994 0.80100-0.56833-0.33783
  -1   4   0    0.60    0.72   0-0.75287 0.13917 0.39610 0.62005-0.57099 0.38161
   0   4  -3  130.34    3.47   0-0.75281 0.41373 0.39347 0.62502-0.57056-0.06995
   0   4  -2   74.31    2.58   0-0.75281 0.39891 0.39321 0.59213-0.57052 0.07350
  -5   3  -5   35.93    1.89   0-0.75184-0.61944 0.36508 0.97126-0.56579-0.19465
  -4   3  -7   15.61    1.56   0-0.75106-0.36095 0.35022 0.95468-0.56308-0.50878
  -3   4  -4    2.20    0.98   0-0.75156-0.26687 0.35920 0.98118-0.56473-0.15092
  -3   4  -3    9.74    1.63   0-0.75092-0.28235 0.34797 0.95884-0.56266-0.00830
  -2   4  -5   52.27    2.33   0-0.75156-0.02161 0.35920 0.91796-0.56473-0.31813
  -2   4  -1   12.14    1.54   0-0.75047-0.08015 0.34089 0.80361-0.56131 0.25318
  -1   4  -4  128.24    3.55   0-0.75061 0.19428 0.34300 0.80496-0.56172-0.20012
  -1   4  -1  453.69    6.14   0-0.75098 0.15118 0.34884 0.69909-0.56282 0.23199
  -6   2  -6    0.26    0.99   0-0.74992-0.74231 0.33357 0.90142-0.55995-0.26867
  -5   2  -8   17.03    2.01   0-0.74775-0.48578 0.30777 0.89593-0.55470-0.58454
  -2   4  -4   28.08    1.79   0-0.74936-0.03794 0.32626 0.91807-0.55850-0.17980
  -2   4  -3   88.73    2.99   0-0.74811-0.05346 0.31166 0.89975-0.55551-0.03925
  -2   4  -2  308.16    5.28   0-0.74845-0.06794 0.31542 0.86249-0.55629 0.10474
  -1   4  -3  200.26    4.26   0-0.74922 0.17843 0.32451 0.79005-0.55815-0.05987
  -1   4  -2  257.27    4.63   0-0.74936 0.16420 0.32626 0.75521-0.55850 0.08422
  -4   3  -6   -0.14    1.13   0-0.74518-0.37983 0.28305 0.98815-0.54938-0.37722
  -3   3  -7   -0.16    1.16   0-0.74604-0.13427 0.29083 0.91849-0.55111-0.54242
  -4   3  -5   80.85    2.85   0-0.73948-0.40107 0.23969 0.99980-0.53916-0.24486
  -6   1  -8    3.66    1.46   0-0.73568-0.63326 0.21557 0.85500-0.53305-0.52936
  -5   2  -7   15.02    1.48   0-0.73656-0.51097 0.22088 0.95041-0.53442-0.46108
  -4   2  -8   -0.14    1.04   0-0.73441-0.26720 0.20808 0.90065-0.53109-0.62992
  -4   3  -4   17.77    1.70   0-0.73549-0.41899 0.21443 0.99188-0.53275-0.10661
  -3   3  -6    8.40    1.58   0-0.73685-0.15719 0.22270 0.95342-0.53489-0.41643
  -2   3  -6   79.55    2.96   0-0.73533 0.07222 0.21345 0.86729-0.53250-0.44075
  -5   1  -9   31.55    1.87   0-0.72882-0.39389 0.17758 0.82913-0.52289-0.70767
  -3   3  -5   22.24    1.81   0-0.72811-0.18171 0.17396 0.96985-0.52188-0.28485
  -1   3  -5   34.48    1.94   0-0.73286 0.28744 0.19917 0.75160-0.52880-0.32301
  -5   2  -6   14.37    1.31   0-0.72528-0.53622 0.15987 0.97899-0.51794-0.33385
  -3   3  -4   15.94    1.64   0-0.72168-0.20185 0.14303 0.96720-0.51302-0.14968
  -3   3  -2  199.81    4.15   0-0.72122-0.23076 0.14097 0.90295-0.51241 0.13676
  -2   3  -5    2.08    1.32   0-0.72447 0.04714 0.15603 0.88890-0.51683-0.31187
  -1   3  -4  195.59    4.07   0-0.72490 0.26452 0.15805 0.75947-0.51741-0.19071
  -1   3  -3   89.69    2.75   0-0.72075 0.24616 0.13885 0.74594-0.51178-0.05269
  -1   3  -2   61.82    2.27   0-0.72138 0.23219 0.14169 0.70988-0.51262 0.09171
  -6   1  -7   -0.42    0.80   0-0.71908-0.66210 0.13139 0.90567-0.50948-0.41157
  -5   2  -5    8.84    1.45   0-0.71620-0.55924 0.11905 0.98639-0.50572-0.20244
  -4   2  -7    6.85    1.39   0-0.71698-0.29741 0.12235 0.95308-0.50673-0.51107
  -3   3  -3  662.38    7.30   0-0.71921-0.21805 0.13196 0.94543-0.50965-0.00946
  -2   3  -4   25.89    1.83   0-0.71700 0.02559 0.12243 0.89126-0.50675-0.17860
  -2   3  -3   36.27    1.96   0-0.71314 0.00741 0.10636 0.87463-0.50177-0.04033
  -2   3  -2    9.31    1.27   0-0.71436-0.00539 0.11137 0.83631-0.50334 0.10505
  -7   0  -7    0.33    1.01   0-0.71096-0.80724 0.09735 0.80622-0.49903-0.34364
  -6   0  -9    6.36    1.42   0-0.70654-0.55261 0.08027 0.79140-0.49352-0.66069
  -6   1  -6   19.03    1.58   0-0.70496-0.69236 0.07434 0.92972-0.49158-0.28416
  -5   1  -8    4.38    1.14   0-0.70423-0.43475 0.07166 0.90282-0.49069-0.59726
  -3   2  -7    0.11    1.26   0-0.70608-0.08344 0.07854 0.90217-0.49296-0.55055
  -7  -1  -9    2.20    1.26   0-0.69659-0.69764 0.04421 0.69563-0.48150-0.59606
  -4   2  -6    4.29    1.10   0-0.70038-0.33106 0.05752 0.98476-0.48603-0.38862
  -4   2  -5   10.19    1.43   0-0.68667-0.35789 0.01123 0.99787-0.46996-0.26135
  -3   2  -6   45.82    2.26   0-0.68517-0.11332 0.00645 0.93964-0.46824-0.42935
  -2   2  -6 1123.74    9.53   0-0.68530 0.11810 0.00687 0.84301-0.46839-0.45187
  -7  -2 -10    4.70    1.20   0-0.67163-0.61180-0.03487 0.57463-0.45307-0.71677
  -6  -1 -10    4.47    1.05   0-0.68115-0.46952-0.00646 0.68115-0.46372-0.78002
  -6   0  -8   24.92    1.68   0-0.67571-0.59765-0.02290 0.86213-0.45760-0.55291
  -5   1  -7   20.64    1.55   0-0.67984-0.47176-0.01048 0.95186-0.46224-0.48082
  -4   1  -8  235.20    4.46   0-0.67974-0.22571-0.01077 0.88837-0.46213-0.64738
  -4   2  -4   92.62    2.92   0-0.67773-0.38074-0.01686 0.99283-0.45987-0.12722
  -4   2  -3  102.52    3.00   0-0.67492-0.39863-0.02525 0.96851-0.45672 0.01278
  -7  -1  -8    3.85    1.16   0-0.66277-0.74603-0.06002 0.76665-0.44330-0.49086
  -5   0  -9    6.94    1.11   0-0.66854-0.35909-0.04385 0.81943-0.44960-0.72769
  -3   2  -5   57.14    2.20   0-0.66733-0.14545-0.04730 0.96004-0.44826-0.30535
  -2   2  -5  262.97    4.44   0-0.66433 0.08286-0.05569 0.87172-0.44500-0.33088
  -6   0  -7    3.09    1.10   0-0.64808-0.63989-0.09904 0.90634-0.42759-0.43844
  -5   1  -6   38.42    1.95   0-0.65858-0.50725-0.07144 0.97971-0.43879-0.36038
  -4   1  -7   73.75    2.62   0-0.64886-0.27091-0.09705 0.94209-0.42841-0.53720
  -3   2  -4   14.18    1.49   0-0.65389-0.17314-0.08395 0.96282-0.43376-0.17593
  -3   2  -3  196.12    3.76   0-0.64801-0.19337-0.09922 0.94624-0.42752-0.03879
  -3   2  -2  378.10    5.16   0-0.65000-0.20655-0.09410 0.90817-0.42962 0.10652
  -2   2  -4  168.84    3.45   0-0.64815 0.05201-0.09887 0.88211-0.42767-0.20502
  -7  -1  -7   12.46    1.33   0-0.63381-0.78954-0.13457 0.80678-0.41272-0.37795
  -6  -1  -9   79.25    2.57   0-0.63398-0.52891-0.13417 0.77536-0.41289-0.68876
  -5   1  -5   34.72    1.84   0-0.64202-0.53840-0.11446 0.98939-0.42126-0.23389
  -3   1  -7   73.43    2.70   0-0.63304-0.05556-0.13642 0.88463-0.41192-0.57637
  -2   2  -3  117.59    2.86   0-0.63905 0.02870-0.12181 0.87226-0.41816-0.07078
  -7  -2  -9    1.90    1.02   0-0.62043-0.67738-0.16597 0.67365-0.39904-0.62701
  -6   0  -6   96.73    2.89   0-0.62459-0.67708-0.15640 0.92933-0.40327-0.31984
  -5   0  -8    0.70    0.91   0-0.62887-0.41296-0.14640 0.88963-0.40765-0.62512
  -5   1  -4  240.59    4.34   0-0.63199-0.56263-0.13901 0.98100-0.41085-0.10069
  -4   1  -6  222.98    4.13   0-0.62063-0.31347-0.16551 0.97728-0.39924-0.42245
  -7  -1  -6   20.14    1.56   0-0.61137-0.82617-0.18631 0.82514-0.38989-0.25761
  -6  -2 -10    0.86    0.88   0-0.60585-0.44765-0.19838 0.64368-0.38436-0.80717
  -6   0  -5   10.31    1.38   0-0.60784-0.70768-0.19406 0.93458-0.38634-0.19317
  -8  -3  -8   52.56    2.37   0-0.59649-0.85383-0.21823 0.55771-0.37508-0.42822
  -7  -3 -10    4.13    1.14   0-0.59722-0.59115-0.21671 0.53007-0.37579-0.74032
  -6  -1  -8   12.22    1.48   0-0.59059-0.58703-0.23049 0.83974-0.36926-0.58831
  -5   0  -7   68.39    2.54   0-0.59212-0.46308-0.22734 0.93747-0.37076-0.51918
  -4   0  -8    0.13    1.21   0-0.59143-0.21577-0.22875 0.86872-0.37009-0.67867
  -4   1  -5   72.64    2.38   0-0.59735-0.35090-0.21643 0.99568-0.37592-0.30225
  -3   1  -6   14.32    1.31   0-0.59815-0.10462-0.21475 0.93000-0.37671-0.46761
  -7  -2  -8   38.05    1.91   0-0.57570-0.73689-0.26037 0.73462-0.35481-0.52731
  -5  -1  -9   12.11    1.23   0-0.58496-0.34633-0.24192 0.78809-0.36383-0.76042
  -4   1  -4  102.69    2.72   0-0.58011-0.38284-0.25166 0.99736-0.35909-0.17546
  -4   1  -3    4.61    1.09   0-0.57162-0.40594-0.26833 0.98079-0.35087-0.04001
  -8  -4  -9    7.30    1.12   0-0.56650-0.77207-0.27824 0.42034-0.34585-0.55028
  -8  -3  -7    9.16    1.20   0-0.56142-0.90200-0.28788 0.59601-0.34098-0.32134
  -6  -1  -7  217.24    4.20   0-0.55186-0.63951-0.30563 0.88225-0.33187-0.48238
  -5   0  -6    6.23    1.32   0-0.55968-0.51036-0.29113 0.96810-0.33932-0.40584
  -3   1  -5  305.14    4.45   0-0.56736-0.14979-0.27658 0.95868-0.34668-0.35398
  -2   1  -5   10.94    1.14   0-0.56259 0.07683-0.28567 0.87200-0.34210-0.38076
  -7  -3  -9   10.71    1.22   0-0.53502-0.66833-0.33582 0.61305-0.31598-0.65661
  -7  -2  -7    2.95    1.11   0-0.53848-0.78835-0.32973 0.77332-0.31923-0.42040
  -6  -2  -9    8.41    1.23   0-0.54416-0.52148-0.31962 0.73002-0.32458-0.72359
  -5   0  -5   13.92    1.52   0-0.53391-0.55101-0.33776 0.98239-0.31495-0.28743
  -4   0  -7  584.41    6.50   0-0.54973-0.27411-0.30953 0.92370-0.32985-0.58273
  -3   1  -4  291.21    4.33   0-0.54335-0.18814-0.32106 0.97074-0.32382-0.23324
  -8  -4  -8    0.71    1.19   0-0.51403-0.83940-0.37174 0.48258-0.29674-0.45716
  -7  -4 -10    0.52    1.04   0-0.52198-0.57134-0.35839 0.43890-0.30411-0.75949
  -6  -1  -6   49.66    2.21   0-0.51905-0.68708-0.36334 0.90674-0.30139-0.36967
  -5  -1  -8   34.39    1.83   0-0.53060-0.41498-0.34362 0.85610-0.31214-0.66877
  -5   0  -4  144.75    3.34   0-0.51538-0.58354-0.36949 0.98079-0.29799-0.16095
  -3   1  -3  164.28    3.23   0-0.52763-0.21845-0.34874 0.96520-0.30937-0.10424
  -8  -5  -9    2.58    1.19   0-0.49933-0.74359-0.39569 0.30916-0.28333-0.56122
  -7  -2  -6    3.54    1.17   0-0.50738-0.83363-0.38265 0.79175-0.29072-0.30504
  -4   0  -6  229.69    3.96   0-0.50754-0.33080-0.38238 0.96416-0.29087-0.47811
  -7  -3  -8   10.79    1.34   0-0.48040-0.73688-0.42542 0.66935-0.26609-0.56332
  -6  -2  -8   88.05    2.66   0-0.48915-0.59213-0.41184 0.79035-0.27403-0.63128
  -6  -1  -5   63.52    2.28   0-0.49297-0.72725-0.40583 0.91551-0.27751-0.24927
  -5  -2  -9   -0.74    1.09   0-0.48350-0.35461-0.42065 0.73237-0.26890-0.80018
  -5  -1  -7    0.72    1.19   0-0.48088-0.48007-0.42468 0.90529-0.26652-0.57113
  -8  -4  -7    0.60    0.71   0-0.47162-0.89582-0.43880 0.51674-0.25811-0.35224
  -7  -5 -10    8.83    1.33   0-0.45533-0.54170-0.46291 0.31298-0.24349-0.76785
  -4   0  -5   47.20    1.89   0-0.47059-0.38220-0.44035 0.98931-0.25718-0.36819
  -3   0  -6   49.53    1.91   0-0.47349-0.13345-0.43597 0.92121-0.25980-0.53159
  -8  -5  -8   16.09    1.65   0-0.43883-0.81846-0.48660 0.36609-0.22886-0.47211
  -7  -4  -9   12.30    1.16   0-0.44909-0.65755-0.47202 0.51919-0.23799-0.68267
  -7  -3  -7    1.91    1.10   0-0.43414-0.79715-0.49315 0.70570-0.22471-0.46219
  -6  -3  -9   10.04    1.18   0-0.44803-0.52268-0.47354 0.65488-0.23704-0.75910
  -6  -2  -7   44.22    2.14   0-0.43939-0.65699-0.48580 0.83151-0.22937-0.53211
  -5  -1  -6   60.94    2.36   0-0.43519-0.53903-0.49169 0.93852-0.22564-0.46787
  -4   0  -4    5.71    1.08   0-0.44010-0.42809-0.48480 0.99953-0.22999-0.25121
  -5  -2  -8   23.45    1.77   0-0.41668-0.43298-0.51693 0.80030-0.20941-0.71894
  -4  -1  -7   21.27    1.62   0-0.42406-0.30418-0.50695 0.89121-0.21590-0.64438
  -4   0  -3   29.77    1.58   0-0.42049-0.46113-0.51180 0.99408-0.21276-0.12563
  -3   0  -5    1.09    0.82   0-0.42276-0.19872-0.50872 0.95961-0.21475-0.43304
  -8  -5  -7    0.63    0.90   0-0.39037-0.88091-0.55129 0.39881-0.18646-0.37125
  -7  -3  -6    3.81    1.25   0-0.39493-0.85048-0.54547 0.72439-0.19042-0.35170
  -6  -2  -6    0.98    1.17   0-0.39599-0.71441-0.54411 0.85713-0.19134-0.42677
  -5  -1  -5  129.19    3.18   0-0.39636-0.59224-0.54363 0.95719-0.19166-0.35808
  -8  -6  -8    2.84    1.12   0-0.38256-0.78017-0.56105 0.21198-0.17982-0.46823
  -7  -5  -9   -0.39    1.00   0-0.37328-0.63855-0.57257 0.38871-0.17182-0.69612
  -7  -4  -8    2.13    0.87   0-0.38614-0.73547-0.55655 0.57176-0.18292-0.59394
  -6  -3  -8   16.06    1.46   0-0.38105-0.60480-0.56294 0.71195-0.17852-0.67366
  -5  -1  -4   18.50    1.52   0-0.36641-0.63678-0.58098 0.96212-0.16591-0.24004
  -6  -4  -9    2.48    1.06   0-0.35262-0.52238-0.59747 0.54840-0.15414-0.78824
  -6  -2  -5    6.27    1.12   0-0.36024-0.76423-0.58839 0.86893-0.16066-0.31268
  -5  -2  -7   11.11    1.43   0-0.35141-0.51176-0.59889 0.84829-0.15311-0.63084
  -4  -1  -6   21.76    1.46   0-0.36350-0.37940-0.58446 0.93489-0.16346-0.55253
  -8  -4  -2    9.50    1.72   0-0.44762-0.99102-0.60446 0.51934 0.10228 0.00474
  -7  -3   1    1.28    1.57   0-0.43152-0.91429-0.61821 0.56771 0.10161 0.36118
  -8  -5   0    7.26    1.73   0-0.40781-0.96361-0.63793 0.25456 0.10063 0.34706
  -7  -3  -3    4.13    1.73   0-0.39110-0.89801-0.65140 0.73272 0.09986-0.21081
  -7  -3   0    4.80    1.87   0-0.39264-0.93968-0.65017 0.63239 0.09993 0.21924
  -5  -1  -2    2.68    1.34   0-0.39665-0.63639-0.64697 0.96407 0.10012-0.21943
  -5  -1   1   39.63    2.53   0-0.39372-0.68115-0.64932 0.86715 0.09998 0.21154
  -8  -6   0    4.65    1.52   0-0.36550-0.91143-0.67152 0.06136 0.09887 0.40224
  -8  -5  -4    0.46    1.49   0-0.36844-0.94439-0.66926 0.41809 0.09901-0.22490
  -8  -5  -1   26.87    2.55   0-0.36644-0.99193-0.67080 0.32308 0.09891 0.20513
  -7  -3  -2    5.63    1.89   0-0.37207-0.93094-0.66645 0.71493 0.09919-0.06694
  -7  -3  -1    6.20    1.86   0-0.37205-0.94536-0.66647 0.68018 0.09919 0.07686
  -6  -2  -3   16.09    1.81   0-0.38303-0.76919-0.65789 0.87357 0.09972-0.28714
  -6  -2   1    8.99    1.59   0-0.38330-0.82751-0.65768 0.74111 0.09973 0.28824
  -5  -1  -1  303.98    6.12   0-0.37373-0.67151-0.66517 0.94893 0.09927-0.07432
  -5  -1   0    6.28    1.66   0-0.37255-0.68806-0.66608 0.91592 0.09921 0.06869
  -8  -5  -3    4.95    1.34   0-0.34700-0.98165-0.68549 0.40193 0.09798-0.08046
  -8  -5  -2    8.42    1.47   0-0.34590-0.99733-0.68631 0.37049 0.09792 0.06236
  -6  -2  -2   37.96    2.45   0-0.35299-0.81397-0.68099 0.86422 0.09828-0.14153
  -6  -2  -1   52.17    3.02   0-0.34299-0.83873-0.68847 0.83802 0.09777 0.00298
  -6  -2   0   10.87    1.60   0-0.35299-0.84329-0.68099 0.79720 0.09828 0.14592
  -8  -7  -1    2.33    2.05   0-0.30078-0.86545-0.71893-0.08969 0.09556 0.31362
  -8  -6  -1   10.27    1.91   0-0.30798-0.95413-0.71388 0.13495 0.09595 0.26088
  -7  -4   1   30.34    2.31   0-0.31821-0.93328-0.70658 0.42706 0.09651 0.41952
  -8  -7  -2    7.76    2.47   0-0.25610-0.89830-0.74919-0.02404 0.09299 0.17351
  -8  -6  -4    0.31    0.94   0-0.28522-0.93385-0.72971 0.24910 0.09468-0.16808
  -8  -6  -3    7.09    1.68   0-0.26912-0.96391-0.74058 0.22734 0.09376-0.02353
  -8  -6  -2   53.88    3.18   0-0.27720-0.97060-0.73515 0.18916 0.09422 0.11912
  -7  -4  -4    2.59    1.56   0-0.27121-0.90724-0.73918 0.62230 0.09388-0.29534
  -7  -4   0   16.04    2.24   0-0.26702-0.96966-0.74198 0.49448 0.09364 0.27903
  -8  -7  -4   -0.40    1.73   0-0.23920-0.88142-0.76012 0.04995 0.09197-0.11201
  -8  -7  -3   16.98    2.53   0-0.23588-0.90132-0.76223 0.01818 0.09177 0.03099
  -7  -4  -3    2.44    1.71   0-0.23981-0.95438-0.75973 0.60993 0.09201-0.14902
  -7  -4  -2   79.64    3.65   0-0.22828-0.97918-0.76703 0.58592 0.09131-0.00660
  -7  -4  -1   23.71    2.32   0-0.23691-0.98476-0.76158 0.54626 0.09183 0.13651
  -6  -3   1   18.60    2.17   0-0.22530-0.89009-0.76890 0.62291 0.09112 0.34965
  -5  -2   1   69.60    3.06   0-0.18945-0.79007-0.79066 0.77858 0.08879 0.27576
  -7  -5   0   23.97    2.24   0-0.16988-0.97031-0.80209 0.32395 0.08755 0.33755
  -6  -3  -3    1.74    1.16   0-0.18694-0.87062-0.79218 0.77672 0.08867-0.22255
  -6  -3  -2   38.91    2.56   0-0.16481-0.90708-0.80498 0.75729 0.08722-0.07796
  -6  -3  -1    5.35    1.53   0-0.16483-0.92227-0.80497 0.72530 0.08722 0.06546
  -6  -3   0   50.99    2.63   0-0.18351-0.91712-0.79419 0.68020 0.08844 0.20832
  -5  -2  -2   44.39    2.46   0-0.15971-0.77599-0.80786 0.89453 0.08688-0.15290
  -5  -2   0   65.18    2.88   0-0.15629-0.80859-0.80978 0.83011 0.08665 0.13447
  -7  -5  -4    8.18    1.71   0-0.13903-0.94322-0.81928 0.47454 0.08541-0.23566
  -7  -5  -1    1.05    1.50   0-0.13118-0.99525-0.82353 0.37883 0.08487 0.19630
  -5  -2  -1  160.87    4.09   0-0.14673-0.80365-0.81506 0.86902 0.08593-0.00850
  -7  -8  -1    2.45    1.82   0-0.09594-0.74413-0.84189-0.29297 0.08239 0.35623
  -7  -6   0    0.28    1.10   0-0.11501-0.93122-0.83209 0.12342 0.08374 0.38949
  -7  -5  -3    4.78    1.36   0-0.11617-0.98170-0.83149 0.45275 0.08382-0.09075
  -7  -5  -2   -0.38    1.15   0-0.11328-0.99878-0.83299 0.41683 0.08362 0.05279
  -6  -4   1    7.17    1.62   0-0.09257-0.92759-0.84359 0.46706 0.08214 0.41096
  -7  -6  -1    2.47    1.42   0-0.06311-0.96662-0.85798 0.18327 0.07999 0.25333
  -7  -8  -2    4.10    1.77   0-0.03903-0.78820-0.86921-0.23095 0.07818 0.22045
  -7  -7  -1    7.30    1.32   0-0.04659-0.88936-0.86575-0.03832 0.07876 0.30730
  -7  -6  -4    7.89    1.50   0-0.04717-0.94101-0.86549 0.29109 0.07880-0.17687
  -7  -6  -3   24.83    2.41   0-0.03050-0.97096-0.87306 0.26363 0.07753-0.03104
  -7  -6  -2    3.19    1.31   0-0.03671-0.97945-0.87027 0.22866 0.07801 0.11142
  -6  -4   0   22.30    1.95   0-0.04136-0.96455-0.86816 0.52521 0.07836 0.27067
  -7  -8  -4    0.18    1.34   0-0.01108-0.78566-0.88156-0.15516 0.07596-0.06803
  -7  -8  -3    1.38    1.43   0-0.01108-0.79965-0.88156-0.18771 0.07596 0.07528
  -7  -7  -4    0.09    1.30   0 0.00812-0.89391-0.88965 0.08401 0.07444-0.11847
  -7  -7  -3   14.96    1.98   0 0.00757-0.91391-0.88942 0.05072 0.07449 0.02412
  -7  -7  -2    2.03    1.12   0-0.00875-0.91329-0.88256 0.01160 0.07578 0.16591
  -6  -4  -3   12.39    1.62   0-0.01515-0.94637-0.87980 0.63463 0.07628-0.15854
  -6  -4  -2   71.33    3.09   0-0.00293-0.97346-0.88503 0.60808 0.07532-0.01375
  -6  -4  -1  204.42    5.00   0-0.01166-0.97948-0.88131 0.57134 0.07600 0.12964
  -5  -3   1   92.35    3.23   0-0.00293-0.88133-0.88503 0.64292 0.07532 0.34179
  -5  -3  -3   36.89    2.29   0 0.03452-0.86014-0.90023 0.78994 0.07233-0.22973
  -5  -3   0   28.35    2.07   0 0.04179-0.91097-0.90303 0.69344 0.07173 0.20182
  -6  -9  -2    2.19    1.18   0 0.06652-0.56520-0.91222-0.51420 0.06966 0.25486
  -6  -5   0   22.32    2.01   0 0.06217-0.97198-0.91064 0.33699 0.07002 0.33146
  -5  -3  -2  188.41    4.47   0 0.05985-0.90052-0.90979 0.76720 0.07022-0.08395
  -5  -3  -1   12.03    1.35   0 0.06188-0.91737-0.91053 0.73442 0.07005 0.06002
  -6  -9  -4    4.05    1.86   0 0.11531-0.58644-0.92877-0.43153 0.06548-0.02892
  -6  -9  -3    2.77    1.84   0 0.10468-0.58896-0.92535-0.47033 0.06641 0.11413
  -6  -7   0    8.97    1.75   0 0.12015-0.83858-0.93030-0.10435 0.06506 0.44209
  -6  -6   0    1.59    1.51   0 0.11785-0.93230-0.92957 0.12792 0.06526 0.38947
  -6  -5  -4   18.15    1.88   0 0.08941-0.94152-0.92026 0.47929 0.06773-0.24062
  -6  -5  -3    1.27    1.56   0 0.11378-0.98089-0.92829 0.45323 0.06562-0.09485
  -6  -5  -2  328.28    6.53   0 0.11684-0.99864-0.92926 0.42262 0.06535 0.04896
  -6  -5  -1  107.40    3.69   0 0.09983-0.99573-0.92376 0.38398 0.06683 0.19171
  -6  -8  -1   14.80    1.69   0 0.13363-0.74173-0.93442-0.29699 0.06389 0.35236
  -6  -8  -5    1.14    1.24   0 0.18131-0.73131-0.94770-0.15140 0.05955-0.21823
  -6  -8  -2    4.82    1.42   0 0.18102-0.77520-0.94762-0.25035 0.05958 0.21230
  -6  -7  -1    6.88    1.68   0 0.17976-0.88274-0.94730-0.05415 0.05970 0.30325
  -6  -6  -4    3.96    1.50   0 0.18060-0.93641-0.94752 0.27529 0.05962-0.18025
  -6  -6  -2    0.99    1.52   0 0.18679-0.97531-0.94909 0.21088 0.05904 0.10820
  -6  -6  -1    9.86    1.61   0 0.16497-0.96446-0.94338 0.17217 0.06106 0.24906
  -6  -8  -4    0.34    0.93   0 0.20270-0.76848-0.95298-0.17974 0.05755-0.07303
  -6  -8  -3    0.81    1.01   0 0.20270-0.78302-0.95298-0.21254 0.05755 0.07060
  -6  -7  -4   -0.05    1.41   0 0.21703-0.87767-0.95627 0.04949 0.05619-0.12368
  -6  -7  -3   20.52    2.32   0 0.22629-0.90167-0.95829 0.02346 0.05530 0.01993
  -6  -7  -2    9.59    1.81   0 0.21416-0.90284-0.95563-0.01258 0.05646 0.16294
  -6  -6  -3   24.38    2.16   0 0.19472-0.96665-0.95106 0.24793 0.05830-0.03568
  -5  -4  -3   34.33    2.31   0 0.21942-0.95018-0.95680 0.61709 0.05596-0.16075
  -5  -4  -1   27.60    2.14   0 0.22542-0.98462-0.95811 0.55099 0.05538 0.12719
  -5  -4   0   14.93    1.63   0 0.19472-0.96867-0.95106 0.51199 0.05830 0.26783
  -5  -9  -2    2.89    1.98   0 0.25179-0.51947-0.96342-0.55959 0.05279 0.24941
  -5  -4  -2   96.20    3.36   0 0.23396-0.97860-0.95989 0.58610 0.05454-0.01567
  -5  -9  -5    4.57    1.76   0 0.27054-0.49679-0.96679-0.45672 0.05093-0.18116
  -5  -9  -4    1.35    2.14   0 0.29045-0.52925-0.96999-0.48869 0.04892-0.03518
  -5  -9  -3    6.75    2.20   0 0.28420-0.53870-0.96903-0.52087 0.04956 0.10802
  -5  -5   0    1.55    1.44   0 0.29286-0.97136-0.97036 0.30082 0.04867 0.32958
  -4  -3   0  357.36    6.19   0 0.29001-0.92854-0.96993 0.66441 0.04897 0.20163
  -5  -8  -1    0.91    1.36   0 0.31817-0.69892-0.97378-0.35702 0.04608 0.34801
  -5  -7   0   12.36    2.06   0 0.32713-0.81420-0.97483-0.15538 0.04514 0.43856
  -5  -5  -4   32.58    2.45   0 0.31847-0.93971-0.97381 0.43713 0.04605-0.24203
  -5  -6   0   15.09    1.75   0 0.33645-0.91934-0.97584 0.07649 0.04415 0.38663
  -5  -5  -3    1.65    1.49   0 0.34595-0.97890-0.97677 0.40512 0.04314-0.09529
  -5  -5  -2  128.04    4.19   0 0.34819-0.99658-0.97697 0.37241 0.04290 0.04834
  -5  -5  -1   20.86    1.90   0 0.32932-0.99427-0.97508 0.33941 0.04490 0.19004
  -4  -9  -1   -0.68    1.40   0 0.33398-0.38614-0.97558-0.67652 0.04441 0.37384
  -5  -8  -5   41.40    2.66   0 0.36283-0.68517-0.97818-0.21472 0.04141-0.22311
  -5  -8  -4    2.69    1.58   0 0.38595-0.72074-0.97961-0.24763 0.03888-0.07679
  -5  -8  -3    0.65    1.47   0 0.38595-0.73490-0.97961-0.28146 0.03888 0.06618
  -5  -8  -2    1.23    1.08   0 0.36635-0.72963-0.97843-0.31560 0.04102 0.20757
  -5  -7  -1   -0.53    1.60   0 0.38054-0.85110-0.97933-0.12093 0.03947 0.29653
  -5  -6  -1   14.31    1.96   0 0.38072-0.94853-0.97934 0.11191 0.03945 0.24793
  -4  -9  -2    6.34    2.25   0 0.39325-0.42980-0.97993-0.64009 0.03807 0.24063
  -5  -7  -4    0.14    1.59   0 0.41445-0.84217-0.98053-0.02317 0.03561-0.12623
  -5  -7  -3    5.46    1.83   0 0.42058-0.86621-0.98060-0.05072 0.03492 0.01743
  -5  -7  -2   15.56    2.19   0 0.41109-0.86894-0.98046-0.08383 0.03599 0.16049
  -5  -6  -4    1.28    1.13   0 0.39328-0.91909-0.97992 0.21157 0.03799-0.18153
  -5  -6  -3   22.81    2.36   0 0.40920-0.94830-0.98042 0.17929 0.03621-0.03625
  -5  -6  -2    5.84    1.31   0 0.40395-0.95776-0.98029 0.14560 0.03680 0.10659
  -4  -9  -5   32.85    2.74   0 0.40944-0.39993-0.98043-0.54194 0.03618-0.18837
  -4  -9  -3   -1.13    2.15   0 0.41811-0.44116-0.98058-0.60911 0.03520 0.09805
  -4  -9  -4   41.49    2.84   0 0.42660-0.43824-0.98061-0.57125 0.03433-0.04204
  -4  -4   0   61.99    2.92   0 0.43724-0.98016-0.98056 0.44486 0.03310 0.27005
  -3  -9  -1    0.90    1.70   0 0.44241-0.26185-0.98048-0.76759 0.03250 0.36574
  -4  -8  -1   -0.03    1.45   0 0.48318-0.62955-0.97871-0.44368 0.02771 0.34161
  -4  -4  -3  133.84    4.07   0 0.46357-0.96305-0.97983 0.54375 0.03005-0.15746
  -4  -4  -2  984.97   10.95   0 0.47621-0.99057-0.97917 0.51000 0.02854-0.01252
  -4  -4  -1  103.02    3.52   0 0.46769-0.99614-0.97963 0.47706 0.02956 0.13016
  -4  -8  -5   10.71    1.96   0 0.51416-0.60520-0.97589-0.31259 0.02394-0.22933
  -4  -7   0   36.62    2.97   0 0.50588-0.76033-0.97677-0.25051 0.02496 0.43668
  -4  -5   0   19.27    2.19   0 0.51342-0.96084-0.97597 0.20991 0.02403 0.33184
  -3  -9  -5   13.76    2.71   0 0.50567-0.26968-0.97679-0.63835 0.02499-0.19970
  -3  -9  -2   12.30    2.13   0 0.49622-0.30280-0.97767-0.73767 0.02615 0.23153
  -4  -8  -4    8.27    2.00   0 0.53592-0.63963-0.97310-0.34944 0.02130-0.08226
  -4  -8  -3   20.81    2.53   0 0.53634-0.65507-0.97304-0.38277 0.02125 0.06142
  -4  -8  -2    3.45    1.39   0 0.51921-0.65106-0.97529-0.41511 0.02341 0.20269
  -4  -6   0   60.27    3.42   0 0.53426-0.88491-0.97334-0.02327 0.02152 0.38719
  -3  -9  -4    0.47    1.85   0 0.52590-0.30238-0.97446-0.67568 0.02257-0.05399
  -3  -9  -3    4.50    2.14   0 0.52318-0.31338-0.97481-0.70850 0.02291 0.08899
  -4  -7  -1   80.88    3.94   0 0.55179-0.79382-0.97062-0.22243 0.01937 0.29851
  -4  -6  -1   23.46    2.74   0 0.57326-0.91050-0.96667 0.00337 0.01657 0.24898
  -4  -5  -3    0.76    1.45   0 0.56168-0.96606-0.96889 0.30173 0.01809-0.09305
  -4  -5  -2  252.56    6.13   0 0.56474-0.98327-0.96833 0.26856 0.01769 0.05104
  -4  -5  -1   51.81    2.83   0 0.54815-0.98178-0.97122 0.23885 0.01984 0.19241
  -2  -9  -2    1.16    1.91   0 0.55770-0.13210-0.96960-0.84258 0.01861 0.21410
  -4  -7  -4    1.66    1.52   0 0.58220-0.78175-0.96479-0.12928 0.01543-0.12877
  -4  -7  -3    5.20    1.93   0 0.58979-0.80315-0.96311-0.16302 0.01442 0.01565
  -4  -7  -2    3.07    1.55   0 0.57912-0.80695-0.96545-0.19458 0.01584 0.15925
  -4  -6  -4   11.31    1.91   0 0.58503-0.88083-0.96418 0.10219 0.01505-0.18137
  -4  -6  -3    1.66    1.78   0 0.59659-0.90759-0.96152 0.06408 0.01350-0.03591
  -4  -6  -2    6.40    1.98   0 0.59458-0.91772-0.96200 0.03227 0.01377 0.10703
  -2  -9  -4   10.31    2.01   0 0.58385-0.12987-0.96443-0.78240 0.01521-0.06650
  -2  -9  -3    4.84    1.87   0 0.58362-0.14393-0.96449-0.81477 0.01524 0.07709
  -3  -8  -5    1.15    1.76   0 0.63073-0.48892-0.95230-0.43459 0.00880-0.23594
  -3  -8  -1   -0.72    1.40   0 0.60559-0.51973-0.95929-0.56105 0.01228 0.33091
  -3  -8  -4    1.25    1.92   0 0.65039-0.52299-0.94601-0.47362 0.00601-0.08967
  -3  -8  -3    7.16    2.14   0 0.65142-0.54019-0.94565-0.50657 0.00586 0.05490
  -3  -8  -2    0.50    1.44   0 0.63837-0.53945-0.94994-0.53521 0.00772 0.19552
  -3  -7   0   22.18    2.94   0 0.64975-0.67493-0.94622-0.37547 0.00610 0.43182
  -3  -7  -1   26.54    2.87   0 0.68964-0.70131-0.93103-0.35723 0.00025 0.29448
  -3  -6   0    3.61    2.23   0 0.69880-0.81928-0.92704-0.16411-0.00115 0.38603
  -3  -5   0   27.21    2.91   0 0.70712-0.92391-0.92323 0.06142-0.00242 0.33522
  -2  -8  -1   -1.14    2.03   0 0.69685-0.37891-0.92791-0.68455-0.00085 0.31975
  -3  -7  -4   18.38    2.59   0 0.71527-0.68405-0.91930-0.26968-0.00363-0.13260
  -3  -7  -3    4.28    2.63   0 0.72143-0.70393-0.91624-0.30654-0.00460 0.01238
  -3  -7  -2   40.35    3.37   0 0.71303-0.71052-0.92039-0.33445-0.00328 0.15456
  -3  -6  -1   12.56    2.88   0 0.73133-0.83847-0.91112-0.14771-0.00617 0.24814
  -2  -8  -5   66.10    3.77   0 0.71140-0.34194-0.92117-0.55939-0.00303-0.24691
  -2  -8  -4   94.21    4.92   0 0.73077-0.37359-0.91141-0.60371-0.00608-0.10017
  -2  -8  -2   34.26    3.25   0 0.72273-0.39192-0.91559-0.66579-0.00480 0.18571
  -3  -6  -4   36.32    3.60   0 0.74230-0.80633-0.90511-0.05349-0.00791-0.18144
  -3  -6  -3    0.96    2.22   0 0.75026-0.83092-0.90053-0.09419-0.00921-0.03622
  -3  -6  -2   82.70    4.80   0 0.74991-0.84201-0.90073-0.12481-0.00915 0.10770
  -3  -5  -3   18.21    2.62   0 0.74898-0.92345-0.90128 0.13944-0.00900-0.08871
  -3  -5  -2   32.80    3.17   0 0.75105-0.93933-0.90006 0.10466-0.00934 0.05510
  -3  -5  -1   51.02    3.49   0 0.73721-0.93994-0.90793 0.07965-0.00708 0.19649
  -2  -8  -3   -0.76    1.82   0 0.73386-0.38736-0.90975-0.64055-0.00654 0.04221
  -1  -8  -1   17.20    2.66   0 0.74760-0.19931-0.90208-0.80877-0.00877 0.31103
  -2  -7   0    4.33    2.29   0 0.75671-0.55168-0.89665-0.52017-0.01026 0.42576
   3  -1  -3  112.56    4.35   0 0.29651 0.53515 0.55105-0.96971-0.82223 0.37726
   4   0  -2   82.81    3.85   0 0.28035 0.67318 0.56292-0.88043-0.82300 0.44500
   6   2  -5    6.02    2.13   0 0.27713 0.99041 0.56526-0.51532-0.82312-0.13788
   6   2  -3   82.09    4.53   0 0.27902 0.96010 0.56389-0.57977-0.82305 0.14988
   6   3  -7    4.05    2.32   0 0.28240 0.91926 0.56143-0.21749-0.82291-0.47757
   5   1  -7   10.71    2.33   0 0.25648 0.90433 0.58005-0.59964-0.82371-0.34755
   5   1  -2   46.24    3.17   0 0.26351 0.82534 0.57506-0.75794-0.82356 0.36902
   6   2  -4    3.14    1.75   0 0.26848 0.98511 0.57150-0.55585-0.82343 0.00563
   6   4  -7   -1.82    2.61   0 0.24692 0.85793 0.58678-0.01279-0.82383-0.52894
   4   0  -3  513.75    9.00   0 0.22174 0.74569 0.60417-0.88848-0.82389 0.30247
   5   1  -6    3.96    1.97   0 0.21662 0.92954 0.60763-0.65970-0.82381-0.20496
   5   1  -3   25.40    2.70   0 0.22152 0.88189 0.60432-0.75556-0.82389 0.22687
   5   2  -8   26.21    2.52   0 0.20615 0.87440 0.61465-0.37074-0.82357-0.54514
   6   3  -6   19.84    2.36   0 0.21692 0.96999 0.60743-0.29399-0.82381-0.33339
   4   0  -6    1.45    1.73   0 0.18343 0.82749 0.62955-0.81583-0.82279-0.13048
   4   0  -5   20.35    2.47   0 0.17460 0.82166 0.63525-0.85497-0.82234 0.01477
   4   0  -4   51.32    3.29   0 0.18651 0.79546 0.62756-0.87872-0.82293 0.15758
   5   1  -5   25.83    2.40   0 0.19829 0.93398 0.61984-0.70521-0.82339-0.06125
   5   1  -4    8.16    1.65   0 0.19997 0.91835 0.61873-0.73696-0.82345 0.08224
   6   3  -5   26.24    2.83   0 0.17671 0.99490 0.63389-0.35336-0.82245-0.19148
   6   5  -6    6.24    2.30   0 0.17163 0.82444 0.63715 0.13571-0.82217-0.43891
   6   3  -4    8.00    1.83   0 0.15994 0.99817 0.64456-0.39834-0.82152-0.04946
   6   3  -3    8.39    2.00   0 0.16333 0.98045 0.64242-0.42826-0.82174 0.09491
   6   4  -6    7.84    1.53   0 0.16616 0.92505 0.64064-0.09805-0.82192-0.38850
   5   2  -7   55.62    3.19   0 0.13105 0.93359 0.66243-0.45028-0.81926-0.40602
   5   3  -8    9.83    1.69   0 0.12991 0.85307 0.66312-0.18657-0.81915-0.60324
   5   4  -8    6.30    2.57   0 0.10606 0.78006 0.67735 0.02730-0.81670-0.66032
   6   4  -5    2.04    1.69   0 0.11515 0.96238 0.67198-0.16311-0.81769-0.24930
   5   2  -6   32.88    2.92   0 0.08235 0.96829 0.69108-0.51209-0.81385-0.26749
   5   2  -2    7.57    1.63   0 0.09462 0.89939 0.68404-0.63691-0.81541 0.30755
   6   4  -4   14.87    2.39   0 0.08732 0.97557 0.68824-0.21112-0.81450-0.10870
   4   1  -7  143.93    4.95   0 0.04378 0.88589 0.71248-0.63504-0.80816-0.34104
   4   1  -2   57.91    2.98   0 0.05864 0.79914 0.70438-0.79187-0.81051 0.37955
   5   2  -5   23.69    2.58   0 0.05521 0.98195 0.70627-0.56085-0.80998-0.12855
   5   2  -4   17.84    2.43   0 0.04640 0.97580 0.71107-0.59838-0.80859 0.01417
   5   2  -3    3.77    1.52   0 0.05893 0.94906 0.70422-0.62514-0.81056 0.15790
   5   3  -7    0.46    1.65   0 0.04475 0.92512 0.71196-0.27080-0.80832-0.46974
   4   1  -6   94.66    4.06   0 0.00355 0.91183 0.73357-0.68955-0.80087-0.20416
   4   1  -3  226.63    5.62   0 0.00881 0.86351 0.73088-0.78581-0.80190 0.22801
   4   3  -9   43.40    2.83   0 0.02116 0.74491 0.72449-0.12034-0.80422-0.73796
   4   4  -9    7.68    2.32   0 0.02027 0.65315 0.72495 0.10610-0.80406-0.79027
   5   4  -7   19.12    2.17   0 0.00277 0.87120 0.73397-0.06181-0.80071-0.53064
   5   5  -7    1.10    2.35   0 0.01773 0.76081 0.72628 0.17460-0.80359-0.57993
   3   0  -5   25.52    2.23   0-0.03118 0.79650 0.75076-0.87373-0.79368 0.00861
   3   0  -4  181.26    4.95   0-0.01761 0.76820 0.74413-0.89988-0.79668 0.15550
   4   1  -5   35.73    2.71   0-0.01726 0.91761 0.74396-0.73214-0.79675-0.06508
   4   1  -4   72.35    3.45   0-0.01558 0.90203 0.74313-0.76502-0.79711 0.07967
   4   2  -8   -0.67    1.60   0-0.01882 0.86353 0.74473-0.40013-0.79642-0.54890
   5   3  -6   24.41    2.55   0-0.01476 0.97036 0.74273-0.33508-0.79729-0.33707
   5   3  -5   42.91    3.02   0-0.05355 0.99456 0.76137-0.38576-0.78844-0.20265
   4   2  -7   -0.10    1.66   0-0.08921 0.92013 0.77749-0.46487-0.77924-0.42569
   4   3  -8    2.85    1.52   0-0.09067 0.84285 0.77813-0.20756-0.77884-0.61929
   4   5  -8   10.89    2.09   0-0.07559 0.63565 0.77144 0.26092-0.78290-0.72263
   5   3  -4    4.48    1.53   0-0.07216 0.99932 0.76990-0.42828-0.78380-0.06294
   5   3  -3  167.07    5.08   0-0.07131 0.98378 0.76951-0.45995-0.78402 0.08059
   5   4  -6    1.47    1.22   0-0.06988 0.92962 0.76886-0.13054-0.78439-0.40315
   5   5  -6   43.02    2.74   0-0.07331 0.83788 0.77042 0.09859-0.78350-0.45730
   4   4  -8   20.68    1.92   0-0.11443 0.77120 0.78831 0.01261-0.77207-0.68056
   5   4  -5   -0.48    1.57   0-0.12259 0.96428 0.79171-0.18443-0.76963-0.27887
   5   5  -5    0.49    1.48   0-0.13282 0.88610 0.79589 0.04046-0.76650-0.33285
   4   2  -6   16.73    1.70   0-0.13718 0.95758 0.79766-0.52432-0.76512-0.29282
   4   2  -5   70.33    3.38   0-0.16997 0.97569 0.81040-0.56973-0.75435-0.15988
   4   2  -2    0.02    0.99   0-0.14229 0.90856 0.79970-0.65529-0.76351 0.27110
   5   4  -4    0.39    1.35   0-0.14910 0.98041 0.80239-0.22784-0.76131-0.14658
   3   3  -9    0.72    0.94   0-0.17797 0.71383 0.81337-0.11375-0.75162-0.76777
   3   4  -9    1.41    1.17   0-0.17797 0.61825 0.81337 0.11614-0.75162-0.82055
   4   2  -4   19.43    1.91   0-0.18305 0.97471 0.81524-0.60758-0.74984-0.02098
   4   2  -3    0.52    1.02   0-0.17628 0.95278 0.81274-0.63731-0.75221 0.12385
   4   3  -7   48.43    2.69   0-0.17233 0.91054 0.81127-0.27368-0.75358-0.50181
   4   5  -7    0.16    1.34   0-0.19637 0.74361 0.82003 0.17702-0.74505-0.61566
   3   1  -6   78.19    3.16   0-0.21509 0.89883 0.82654-0.68655-0.73807-0.24337
   3   2  -8   24.00    2.26   0-0.21979 0.83611 0.82813-0.39128-0.73626-0.58713
   4   3  -6   38.25    2.58   0-0.23336 0.95799 0.83261-0.32871-0.73094-0.38037
   4   4  -7   29.39    2.23   0-0.21033 0.85345 0.82491-0.05795-0.73988-0.56834
   4   6  -6    3.71    1.52   0-0.22091 0.65734 0.82850 0.36620-0.73583-0.53450
   3   1  -5   19.54    1.70   0-0.24193 0.91200 0.83535-0.72877-0.72758-0.10992
   3   1  -4  799.35    9.22   0-0.24915 0.90443 0.83762-0.76345-0.72462 0.03031
   3   5  -8    0.76    1.91   0-0.26103 0.59126 0.84126 0.28507-0.71966-0.76184
   3   2  -7   12.34    1.84   0-0.29529 0.89832 0.85109-0.44910-0.70476-0.47337
   3   3  -8   -0.82    1.51   0-0.29001 0.80666 0.84964-0.17915-0.70715-0.66806
   3   4  -8    0.51    1.37   0-0.29864 0.72623 0.85200 0.04586-0.70323-0.72876
   3   6  -7    0.07    1.59   0-0.28072 0.50190 0.84703 0.47456-0.71129-0.68202
   4   3  -5    9.84    1.55   0-0.27742 0.98734 0.84609-0.37466-0.71274-0.25546
   4   4  -6   16.10    1.72   0-0.28292 0.91062 0.84766-0.11265-0.71032-0.45535
   4   5  -6   68.47    3.12   0-0.28210 0.81481 0.84742 0.11745-0.71068-0.50756
   2   4  -9   10.41    1.63   0-0.33708 0.54553 0.86169 0.16391-0.68496-0.86566
   4   3  -4    6.08    1.43   0-0.30485 0.99968 0.85364-0.41533-0.70044-0.12313
   4   3  -3  166.27    4.42   0-0.31220 0.99327 0.85556-0.45037-0.69700 0.01655
   4   4  -5    4.71    1.81   0-0.33389 0.95061 0.86094-0.16048-0.68654-0.33582
   2   3  -9   78.75    3.20   0-0.35022 0.65344 0.86473-0.06951-0.67835-0.81796
   3   2  -6   50.01    2.71   0-0.35351 0.94199 0.86546-0.49573-0.67667-0.35818
   4   5  -5   -0.53    1.17   0-0.34654 0.86334 0.86390 0.06938-0.68021-0.39981
   3   2  -5    3.96    1.35   0-0.39502 0.96940 0.87381-0.53770-0.65449-0.23695
   3   3  -7  300.99    5.79   0-0.37057 0.87738 0.86910-0.23605-0.66776-0.56430
   3   4  -7   27.49    2.31   0-0.39649 0.80829 0.87407-0.01147-0.65368-0.63146
   3   5  -7   31.05    2.12   0-0.37322 0.68858 0.86964 0.22407-0.66635-0.67240
   3   6  -6   -1.61    1.36   0-0.39056 0.59607 0.87299 0.41673-0.65696-0.59444
   4   4  -4   17.76    1.86   0-0.37349 0.97368 0.86969-0.20227-0.66621-0.21157
   4   4  -3   29.34    2.41   0-0.39413 0.97965 0.87364-0.23833-0.65499-0.07871
   4   5  -4    1.22    1.49   0-0.39316 0.89761 0.87347 0.02472-0.65553-0.27543
   2   5  -8   19.62    1.90   0-0.40647 0.50377 0.87581 0.34732-0.64811-0.81163
   2   6  -7    0.73    2.05   0-0.41531 0.40414 0.87727 0.54245-0.64305-0.72573
   3   2  -4  163.95    4.07   0-0.42150 0.98063 0.87824-0.57383-0.63945-0.10812
   1   4  -9    4.48    1.29   0-0.46306 0.43873 0.88375 0.23844-0.61418-0.91297
   2   3  -8    0.04    1.40   0-0.45524 0.74386 0.88285-0.11510-0.61909-0.73851
   2   4  -8    7.07    1.56   0-0.45815 0.65206 0.88319 0.11016-0.61727-0.78958
   3   3  -6   16.25    1.64   0-0.43704 0.92979 0.88052-0.28023-0.63023-0.45818
   3   5  -6    5.33    1.56   0-0.45702 0.75999 0.88306 0.17734-0.61798-0.57783
   2   1  -5    1.52    1.04   0-0.47842 0.91482 0.88532-0.68107-0.60436-0.21091
   2   2  -7   73.76    2.97   0-0.48871 0.86018 0.88622-0.38782-0.59760-0.55790
   3   3  -5   15.46    1.86   0-0.48873 0.96759 0.88622-0.31969-0.59758-0.34644
   3   4  -6   33.80    2.08   0-0.47067 0.86837 0.88457-0.05478-0.60937-0.53235
   3   6  -5   12.16    1.59   0-0.47142 0.66325 0.88465 0.37271-0.60889-0.49600
   1   5  -8   13.51    1.81   0-0.51468 0.38207 0.88795 0.43042-0.57997-0.85714
   1   6  -7    1.37    1.66   0-0.50853 0.26595 0.88762 0.62839-0.58423-0.76199
   2   5  -7   59.60    2.85   0-0.51530 0.60026 0.88798 0.30135-0.57954-0.73646
   2   6  -6   43.43    2.60   0-0.52234 0.49758 0.88830 0.49806-0.57459-0.65122
   0   4  -9    3.62    1.27   0-0.55112 0.29617 0.88897 0.32898-0.55369-0.95206
   2   3  -7  113.71    3.57   0-0.54385 0.81959 0.88891-0.15978-0.55908-0.65035
   3   3  -4    1.71    0.97   0-0.52711 0.99086 0.88850-0.35360-0.57123-0.22967
   3   3  -3  162.46    3.96   0-0.55010 0.99953 0.88896-0.38757-0.55445-0.10309
   3   4  -5   21.74    1.86   0-0.53001 0.91307 0.88860-0.09146-0.56915-0.42904
   3   5  -5    1.79    1.16   0-0.52541 0.81255 0.88844 0.13919-0.57244-0.47936
   2   2  -6   80.71    2.78   0-0.55584 0.91218 0.88899-0.42272-0.55007-0.46175
   2   4  -7   33.66    2.13   0-0.55252 0.73237 0.88899 0.07046-0.55257-0.71008
   3   4  -4  108.99    3.53   0-0.57560 0.94475 0.88867-0.12515-0.53488-0.31922
   3   5  -4   49.68    2.67   0-0.57756 0.85087 0.88861 0.10556-0.53333-0.37421
   0   5  -8    0.10    1.32   0-0.58717 0.22309 0.88825 0.52637-0.52575-0.88798
   1   3  -8   68.32    2.95   0-0.59859 0.65692 0.88762-0.02949-0.51648-0.81378
   1   4  -8    1.04    1.16   0-0.58209 0.54463 0.88847 0.20065-0.52981-0.85378
   2   5  -6   26.89    2.22   0-0.60027 0.67126 0.88752 0.26821-0.51511-0.65737
   2   6  -5   18.73    2.00   0-0.60348 0.56459 0.88730 0.46526-0.51246-0.56979
  -1   5  -8    3.21    1.44   0-0.61833 0.02483 0.88608 0.62350-0.49988-0.89123
   1   5  -7    0.87    1.39   0-0.62274 0.47577 0.88565 0.40088-0.49610-0.79777
   1   6  -6    9.12    1.49   0-0.61747 0.36092 0.88616 0.59620-0.50062-0.70225
   2   2  -5   68.69    2.47   0-0.60859 0.95146 0.88692-0.45423-0.50812-0.35984
   2   3  -6    0.92    1.06   0-0.61533 0.87611 0.88635-0.18952-0.50244-0.56355
   2   4  -6   35.08    2.21   0-0.62849 0.79459 0.88504 0.04035-0.49112-0.62761
   3   4  -3    2.06    1.04   0-0.60859 0.96274 0.88692-0.15514-0.50812-0.20261
   1   2  -7  286.67    5.06   0-0.65528 0.79573 0.88147-0.28714-0.46707-0.66571
   0   4  -8   21.13    1.91   0-0.67260 0.40414 0.87851 0.30509-0.45075-0.90957
   0   6  -6   13.69    1.67   0-0.67606 0.18840 0.87784 0.69991-0.44743-0.73229
   1   4  -7   45.05    2.47   0-0.67523 0.62333 0.87800 0.17699-0.44823-0.79121
   2   3  -5   15.37    1.66   0-0.67379 0.92068 0.87828-0.21480-0.44962-0.47237
   2   5  -5  254.40    5.06   0-0.66858 0.72479 0.87925 0.24380-0.45459-0.57382
  -1   6  -6    1.12    1.35   0-0.69360-0.02562 0.87406 0.80068-0.43002-0.72704
   0   3  -8   34.94    2.16   0-0.70590 0.53405 0.87105 0.08208-0.41749-0.88968
   0   5  -7    6.36    1.36   0-0.69704 0.32111 0.87326 0.50688-0.42656-0.84356
   1   3  -7    7.82    1.32   0-0.68500 0.72978 0.87598-0.05137-0.43858-0.74805
   1   5  -6   37.11    2.40   0-0.70662 0.54669 0.87086 0.38096-0.41675-0.73256
   1   6  -5    3.25    1.40   0-0.69842 0.42698 0.87292 0.57653-0.42515-0.63354
   2   4  -5   49.66    2.29   0-0.69074 0.84237 0.87472 0.01801-0.43288-0.54216
  -1   4  -8    5.26    1.32   0-0.72901 0.22918 0.86444 0.41628-0.39286-0.94486
   1   2  -6    1.55    1.09   0-0.72687 0.85209 0.86511-0.30247-0.39519-0.59472
   2   3  -4    7.55    1.36   0-0.72109 0.95429 0.86685-0.23701-0.40144-0.37638
   2   5  -4   21.50    2.03   0-0.72378 0.76589 0.86605 0.22308-0.39854-0.48545
  -2   4  -8   19.37    1.75   0-0.75199 0.02226 0.85657 0.51796-0.36695-0.94863
  -2   5  -7   24.97    1.98   0-0.74085-0.09954 0.86056 0.71253-0.37967-0.84437
  -1   5  -7   22.92    1.69   0-0.73766 0.12803 0.86164 0.61542-0.38325-0.86438
   1   4  -6   13.11    1.65   0-0.74847 0.68454 0.85787 0.16368-0.37101-0.72492
   2   4  -4    5.33    1.13   0-0.74070 0.87900 0.86061-0.00010-0.37985-0.45150
   0   4  -7  232.77    4.80   0-0.76183 0.48044 0.85273 0.29752-0.35527-0.86191
   0   6  -5   -0.21    0.81   0-0.75744 0.25400 0.85447 0.69040-0.36045-0.67826
   1   3  -6   28.76    1.78   0-0.75634 0.78771 0.85490-0.06406-0.36175-0.68045
   1   5  -5    3.25    1.62   0-0.77303 0.59917 0.84804 0.37056-0.34173-0.66273
   1   6  -4    5.86    1.25   0-0.76000 0.47629 0.85346 0.56218-0.35743-0.55778
  -1   6  -5   64.85    2.48   0-0.78351 0.05131 0.84325 0.79763-0.32860-0.68472
   0   3  -7   36.40    2.25   0-0.78988 0.60272 0.84018 0.08046-0.32046-0.84235
   0   5  -6   18.02    1.64   0-0.77862 0.38783 0.84552 0.50193-0.33474-0.79189
   1   2  -5  268.14    4.52   0-0.78632 0.89854 0.84191-0.31344-0.32502-0.52007
   2   4  -3   86.74    2.73   0-0.78177 0.90552 0.84407-0.01728-0.33079-0.35686
  -3   5  -6   10.68    1.47   0-0.80679-0.28030 0.83132 0.80489-0.29807-0.75884
  -1   4  -7    1.02    1.31   0-0.81497 0.30174 0.82662 0.42312-0.28681-0.91101
   1   3  -5  180.99    3.85   0-0.81529 0.83249 0.82643-0.06826-0.28636-0.61239
   1   4  -5    0.52    1.40   0-0.81077 0.73005 0.82906 0.15904-0.29262-0.65793
  -2   5  -6   12.88    1.48   0-0.83284-0.02217 0.81536 0.72431-0.26109-0.81903
  -1   5  -6    5.72    1.08   0-0.81979 0.19760 0.82373 0.61951-0.28001-0.82443
   0   4  -6   42.25    2.47   0-0.83191 0.53609 0.81598 0.30140-0.26246-0.81087
   0   6  -4   50.07    2.27   0-0.81884 0.30319 0.82431 0.68754-0.28136-0.61041
   1   5  -4   34.49    2.31   0-0.82596 0.63735 0.81987 0.36573-0.27117-0.59051
  -3   4  -7    6.88    1.13   0-0.84166-0.13440 0.80923 0.62939-0.24770-0.90066
   0   5  -5    1.30    1.20   0-0.84136 0.43555 0.80945 0.50555-0.24816-0.73464
  -2   7   2   21.17    2.71   0-0.89819-0.26512 0.76569 0.97049 0.03626-0.07756
  -2   7   3    0.13    2.03   0-0.89843-0.27374 0.76535 0.93622 0.03631 0.06863
  -1   7   1   14.46    1.85   0-0.90237-0.00953 0.75976 0.91234 0.03726-0.24208
   0   7   1    2.64    1.25   0-0.89182 0.20762 0.77437 0.80272 0.03477-0.26183
   0   7   2   41.23    2.86   0-0.90400 0.20917 0.75741 0.78530 0.03765-0.12193
   0   7   4   67.08    3.37   0-0.90122 0.17734 0.76141 0.71516 0.03698 0.16643
   1   6   0   68.61    3.71   0-0.89942 0.55977 0.76396 0.51835 0.03655-0.37733
  -1   7   2   12.73    1.92   0-0.91416-0.01380 0.74194 0.89735 0.04021-0.10175
  -1   7   3    9.73    1.91   0-0.91602-0.02499 0.73897 0.86666 0.04068 0.04208
  -1   7   4   32.13    2.29   0-0.90838-0.04653 0.75088 0.82147 0.03877 0.18762
   0   7   3   11.49    1.79   0-0.90704 0.19884 0.75289 0.75647 0.03844 0.02098
   1   6   1   13.81    2.28   0-0.91849 0.56423 0.73495 0.51490 0.04132-0.23832
   1   6   2  112.17    4.43   0-0.92808 0.55893 0.71845 0.49875 0.04387-0.09719
   1   6   3   -0.18    1.81   0-0.92939 0.54059 0.71608 0.47506 0.04423 0.04284
   1   6   4   45.56    2.88   0-0.92272 0.52519 0.72783 0.42306 0.04243 0.19184
   0   6   0    7.52    2.12   0-0.94290 0.37212 0.68975 0.68880 0.04808-0.36599
   1   5   0   21.95    2.24   0-0.94191 0.69789 0.69181 0.36034 0.04778-0.33516
  -3   6   0    3.34    1.66   0-0.95021-0.31450 0.67369 0.99292 0.05033-0.30115
   1   5   1   91.48    3.86   0-0.95545 0.69704 0.66127 0.35836 0.05202-0.19553
  -3   6   1    8.83    1.83   0-0.96251-0.31544 0.64294 0.99000 0.05445-0.16030
  -3   6   3    8.13    1.78   0-0.96383-0.34423 0.63929 0.92849 0.05492 0.12650
  -2   6   0   30.30    2.64   0-0.96533-0.06869 0.63505 0.93561 0.05546-0.32841
  -1   6   0   63.98    3.53   0-0.96242 0.15952 0.64320 0.83141 0.05441-0.34975
   0   6   1   60.32    3.13   0-0.95638 0.37145 0.65894 0.68693 0.05235-0.22666
   0   6   2    3.82    1.91   0-0.96277 0.36182 0.64223 0.67197 0.05454-0.08587
   0   6   3  332.06    7.32   0-0.96313 0.34915 0.64124 0.63938 0.05466 0.05839
   0   6   4  535.82    9.04   0-0.95806 0.32896 0.65470 0.59242 0.05291 0.20397
   1   5   2  146.70    4.73   0-0.96135 0.68807 0.64609 0.34084 0.05404-0.05385
   1   5   3    2.09    1.49   0-0.96059 0.67316 0.64812 0.30567 0.05377 0.08966
  -3   6   2   19.01    1.94   0-0.96641-0.32752 0.63190 0.96898 0.05591-0.01922
  -2   6   4    1.64    1.61   0-0.97167-0.11935 0.61574 0.82365 0.05792 0.24412
  -1   6   1   17.73    2.32   0-0.97263 0.15616 0.61258 0.82910 0.05831-0.20945
  -1   6   4   -0.09    1.84   0-0.97215 0.11273 0.61417 0.72831 0.05811 0.22087
  -2   6   1    0.61    1.21   0-0.97502-0.07314 0.60440 0.93280 0.05926-0.18793
  -2   6   2    2.65    1.63   0-0.97868-0.08520 0.59101 0.91385 0.06085-0.04530
  -2   6   3  102.96    4.17   0-0.97777-0.09883 0.59446 0.87742 0.06045 0.09780
  -1   6   2   13.96    1.85   0-0.97704 0.14631 0.59718 0.81178 0.06012-0.06850
  -1   6   3   14.73    1.99   0-0.97698 0.13114 0.59741 0.77894 0.06010 0.07486
   0   5   0    7.76    1.74   0-0.98258 0.50781 0.57522 0.57323 0.06266-0.32796
  -4   5   0   12.16    1.85   0-0.99092-0.40958 0.53270 0.99993 0.06736-0.24159
   0   5   1    4.05    1.34   0-0.98919 0.49953 0.54290 0.57320 0.06627-0.18688
   0   5   2   85.32    3.90   0-0.99180 0.48694 0.52710 0.55581 0.06795-0.04518
   0   5   3   96.67    4.16   0-0.99109 0.47264 0.53170 0.51883 0.06747 0.09900
  -4   5   1   10.60    1.76   0-0.99438-0.42140 0.50846 0.99115 0.06988-0.10025
  -4   5   2    1.71    1.49   0-0.99495-0.43390 0.50369 0.96209 0.07036 0.04293
  -4   5   3   11.77    1.62   0-0.99266-0.45097 0.52133 0.91243 0.06857 0.18793
  -3   5  -1    2.80    1.34   0-0.99369-0.16102 0.51382 0.95561 0.06934-0.40971
  -2   5  -1  112.57    4.49   0-0.99491 0.07111 0.50403 0.86936 0.07033-0.43371
  -3   5   0   14.51    2.13   0-0.99812-0.17122 0.46911 0.96757 0.07375-0.27032
  -3   5   4    4.05    1.78   0-0.99743-0.22885 0.47853 0.82638 0.07285 0.30437
  -1   5   0    0.46    1.39   0-0.99606 0.28850 0.49349 0.75179 0.07139-0.31342
  -5   4  -1    3.84    1.48   0-0.99928-0.52307 0.44674 0.98418 0.07583-0.31760
  -3   5   1    2.97    2.07   0-0.99943-0.18406 0.44234 0.96015 0.07623-0.12778
  -3   5   2    8.42    2.02   0-0.99956-0.19854 0.43787 0.93471 0.07664 0.01437
  -3   5   3   89.11    4.07   0-0.99927-0.21356 0.44725 0.89059 0.07579 0.15857
  -2   5   0   37.19    2.76   0-0.99881 0.06001 0.45758 0.88347 0.07483-0.29422
  -2   5   4   60.25    3.32   0-0.99898 0.00293 0.45405 0.75506 0.07516 0.28021
  -1   5   1   43.18    2.83   0-0.99856 0.27664 0.46212 0.74988 0.07441-0.17293
  -1   5   2  140.15    4.93   0-0.99916 0.26365 0.44996 0.72946 0.07554-0.03030
  -1   5   3   27.20    2.37   0-0.99896 0.24784 0.45455 0.69192 0.07512 0.11385
   0   4   0  529.30    8.85   0-0.99867 0.61849 0.46011 0.45865 0.07460-0.28563
  -5   4   0    2.63    1.51   0-0.99974-0.53683 0.40923 0.99006 0.07916-0.17760
  -5   4   3    1.15    1.05   0-0.99975-0.57970 0.42729 0.87222 0.07759 0.25502
  -2   5   1   72.52    3.50   0-0.99972 0.04669 0.42909 0.87889 0.07743-0.15276
  -2   5   2    9.30    2.41   0-0.99980 0.03204 0.41886 0.85641 0.07833-0.00987
  -2   5   3  508.70    8.83   0-0.99975 0.01820 0.42704 0.81529 0.07761 0.13412
   0   4   1  213.91    5.64   0-0.99977 0.60445 0.42550 0.46060 0.07775-0.14520
   0   4   2  212.27    5.65   0-0.99978 0.59026 0.41358 0.43945 0.07879-0.00280
   0   4   3   41.67    2.68   0-0.99977 0.57588 0.42524 0.39539 0.07777 0.14179
  -5   4   1    5.84    1.30   0-0.99937-0.55230 0.39232 0.97307 0.08058-0.03513
  -5   4   2    1.24    1.09   0-0.99954-0.56585 0.39832 0.93437 0.08007 0.10901
  -6   3  -1    0.06    2.10   0-0.99676-0.66272 0.34822 0.95030 0.08412-0.24939
  -4   4  -1    2.27    1.96   0-0.99681-0.29489 0.34885 0.98709 0.08407-0.34848
  -6   3   0    0.72    1.94   0-0.99368-0.68039 0.31805 0.94774 0.08638-0.10890
  -6   3   1    2.16    2.01   0-0.99320-0.69672 0.31408 0.92026 0.08667 0.03462
  -6   3   2    1.63    1.66   0-0.99488-0.70640 0.32867 0.86992 0.08560 0.17911
  -4   4   0    7.08    2.11   0-0.99271-0.31182 0.31018 0.99291 0.08696-0.20845
  -4   4   3   25.43    2.77   0-0.99309-0.35460 0.31321 0.89060 0.08674 0.22304
  -3   4  -1   56.76    3.67   0-0.99239-0.06767 0.30770 0.93231 0.08714-0.37462
  -2   4  -1   11.87    2.19   0-0.99371 0.16387 0.31826 0.82590 0.08637-0.39589
  -1   4   0    0.65    1.29   0-0.99544 0.38311 0.33404 0.68099 0.08519-0.27414
  -7   2  -1    0.53    2.13   0-0.99066-0.80422 0.29513 0.86852 0.08807-0.17836
  -7   2   0   -1.91    2.25   0-0.98823-0.82383 0.27924 0.85513 0.08918-0.03684
  -7   2   1    4.54    2.29   0-0.98831-0.83399 0.27976 0.81739 0.08914 0.10743
  -4   4   1    2.00    1.94   0-0.99004-0.32991 0.29094 0.97890 0.08837-0.06610
  -4   4   2   53.07    3.48   0-0.99027-0.34389 0.29249 0.94491 0.08826 0.07796
  -1   4   1  291.21    6.66   0-0.99180 0.36529 0.30328 0.67885 0.08749-0.13247
  -1   4   2    3.94    1.68   0-0.99030 0.34880 0.29268 0.65639 0.08824 0.00909
  -1   4   3   99.90    4.07   0-0.99223 0.33652 0.30653 0.61004 0.08726 0.15496
  -3   4   0    0.15    1.54   0-0.98592-0.09554 0.26562 0.94400 0.09010-0.23372
  -3   4   1    5.71    2.21   0-0.98167-0.10616 0.24296 0.93059 0.09159-0.09103
  -3   4   3    9.28    2.33   0-0.98443-0.13417 0.25735 0.85073 0.09065 0.19687
  -2   4   0   26.43    2.31   0-0.98706 0.14406 0.27221 0.83935 0.08966-0.25629
  -2   4   1   61.27    3.55   0-0.98216 0.12433 0.24545 0.83323 0.09143-0.11400
  -2   4   3  688.82   10.52   0-0.98362 0.09686 0.25302 0.75891 0.09094 0.17385
  -5   3   3   10.58    2.05   0-0.97426-0.51033 0.20884 0.86167 0.09371 0.29201
  -3   4   2   -0.32    1.47   0-0.98124-0.12848 0.24082 0.90364 0.09172 0.04950
  -2   4   2  125.56    4.54   0-0.98090 0.10891 0.23916 0.80633 0.09183 0.02914
  -5   3  -1    8.04    1.79   0-0.97341-0.45298 0.20526 0.99682 0.09395-0.28374
  -5   3   0    0.55    1.96   0-0.96561-0.47630 0.17448 0.99457 0.09574-0.14114
  -5   3   2   45.02    3.38   0-0.96576-0.50477 0.17504 0.92747 0.09571 0.14670
  -5   3   1   11.14    1.99   0-0.96286-0.49329 0.16437 0.97146 0.09628 0.00197
  -4   3  -1   62.43    3.85   0-0.95056-0.24538 0.12325 0.98279 0.09848-0.31013
  -4   3   3  176.91    5.95   0-0.94625-0.30784 0.10998 0.86416 0.09914 0.26407
  -2   3  -1  148.25    5.16   0-0.94820 0.21489 0.11592 0.79856 0.09885-0.35546
  -8   0  -2   15.46    3.03   0-0.93431-0.88664 0.07574 0.75747 0.10079-0.20632
  -8   0   1   23.84    3.26   0-0.93659-0.92606 0.08206 0.65353 0.10051 0.22497
  -7   1  -2    0.59    1.62   0-0.93443-0.75078 0.07608 0.89110 0.10078-0.28193
  -7   1   2    3.39    1.76   0-0.93587-0.80810 0.08007 0.75509 0.10060 0.28955
  -6   2  -1   22.38    2.34   0-0.94225-0.62080 0.09824 0.96982 0.09975-0.21261
  -6   2   0   -0.57    1.96   0-0.93604-0.64638 0.08053 0.95694 0.10058-0.07125
  -6   2   1   14.59    2.33   0-0.93512-0.65672 0.07798 0.92463 0.10069 0.07353
  -6   2   2   61.21    3.52   0-0.94284-0.66347 0.09994 0.86918 0.09966 0.21789
  -4   3   0   24.97    2.88   0-0.93911-0.27192 0.08917 0.98409 0.10017-0.16787
  -4   3   1   15.73    2.62   0-0.93432-0.29116 0.07578 0.96465 0.10079-0.02480
  -4   3   2  584.93   10.46   0-0.93681-0.30296 0.08267 0.92495 0.10048 0.11900
  -3   3  -1   86.78    4.24   0-0.93963-0.02488 0.09067 0.91915 0.10010-0.33427
  -8   0  -1   -1.20    2.63   0-0.92436-0.91107 0.04945 0.75192 0.10199-0.06437
  -8   0   0   -0.26    2.64   0-0.92432-0.92432 0.04933 0.71775 0.10199 0.07957
  -7   1  -1   11.27    2.24   0-0.92095-0.77764 0.04076 0.89398 0.10235-0.14070
  -7   1   1    1.67    1.76   0-0.92149-0.80610 0.04211 0.82615 0.10230 0.14723
  -3   3   0  139.51    5.16   0-0.92487-0.05432 0.05076 0.92616 0.10193-0.19236
  -3   3   3   10.68    2.07   0-0.92912-0.09414 0.06186 0.81667 0.10145 0.23942
  -2   3   0  104.25    4.21   0-0.93104 0.18276 0.06699 0.81401 0.10123-0.21406
  -2   3   1   26.97    2.64   0-0.92184 0.15908 0.04302 0.80497 0.10226-0.07155
  -2   3   2   43.42    3.08   0-0.92203 0.14447 0.04348 0.77216 0.10224 0.07203
  -7   1   0    8.75    1.66   0-0.91659-0.79645 0.02996 0.87196 0.10283 0.00286
  -5   2  -2    3.54    2.18   0-0.91184-0.40608 0.01845 0.98645 0.10329-0.38370
  -3   3   1  108.25    4.40   0-0.91775-0.07635 0.03281 0.91142 0.10271-0.04951
  -3   3   2    2.24    1.57   0-0.91913-0.08876 0.03623 0.87501 0.10257 0.09383
  -5   2  -1   12.83    2.70   0-0.89237-0.44054-0.02588 0.99943 0.10492-0.24136
  -5   2   3    0.38    1.62   0-0.90422-0.48954 0.00058 0.84170 0.10397 0.33033
  -5   2   0   -0.36    2.14   0-0.87997-0.47130-0.05214 0.99039 0.10579-0.09868
  -5   2   1    5.16    2.34   0-0.87901-0.48315-0.05411 0.96095 0.10585 0.04601
  -5   2   2   35.06    3.17   0-0.88676-0.48874-0.03792 0.91110 0.10533 0.19003
  -6   1  -2   30.68    3.50   0-0.85833-0.59495-0.09499 0.96691 0.10704-0.31085
  -8  -1   1   12.45    2.53   0-0.84382-0.92393-0.12193 0.62641 0.10774 0.27132
  -7   0   2    1.36    2.11   0-0.84447-0.80320-0.12075 0.72700 0.10771 0.33878
  -6   1  -1   -1.24    2.42   0-0.84187-0.63389-0.12546 0.96675 0.10783-0.16840
  -6   1   2   88.59    4.66   0-0.85101-0.65992-0.10873 0.84831 0.10742 0.26341
  -4   2  -1   -0.98    1.79   0-0.85147-0.25747-0.10788 0.98599 0.10740-0.26580
  -4   2   2  149.85    5.83   0-0.83885-0.30585-0.13088 0.90818 0.10795 0.16464
  -8  -1  -2    4.98    2.11   0-0.82702-0.89774-0.15166 0.75563 0.10844-0.16020
  -8  -1  -1    1.29    2.07   0-0.82156-0.92245-0.16100 0.73403 0.10862-0.01735
  -8  -1   0   25.53    3.26   0-0.82387-0.92976-0.15707 0.69433 0.10855 0.12662
  -7   0  -2   21.55    3.18   0-0.82519-0.76409-0.15481 0.89206 0.10850-0.23621
  -7   0   1   38.41    3.65   0-0.81962-0.81242-0.16428 0.80190 0.10869 0.19462
  -6   1   0    5.09    2.07   0-0.83202-0.65162-0.14297 0.94885 0.10825-0.02603
  -6   1   1  196.14    6.55   0-0.83523-0.66145-0.13732 0.90900 0.10813 0.11920
  -4   2   0  212.06    6.57   0-0.83587-0.27888-0.13619 0.98013 0.10811-0.12278
  -4   2   1    1.47    1.87   0-0.83105-0.29837-0.14466 0.95481 0.10829 0.02027
  -3   2  -1   31.67    2.84   0-0.83105-0.03817-0.14466 0.92499 0.10829-0.28927
  -7   0  -1    0.77    1.73   0-0.81148-0.79328-0.17785 0.88308 0.10899-0.09337
  -7   0   0    3.62    2.41   0-0.80862-0.80886-0.18255 0.85353 0.10907 0.05011
  -3   2   0   93.95    4.59   0-0.80980-0.07369-0.18062 0.92790 0.10904-0.14624
  -3   2   1    4.85    1.99   0-0.80312-0.09610-0.19151 0.90733 0.10922-0.00321
  -3   2   2   28.97    3.04   0-0.80912-0.10384-0.18174 0.86312 0.10905 0.14093
  -9  -3  -3   -0.38    2.89   0-0.78979-0.96203-0.21265 0.48556 0.10954-0.17656
  -9  -3  -2    2.49    3.13   0-0.77629-0.99085-0.23339 0.47361 0.10980-0.03328
  -9  -3  -1    3.96    3.10   0-0.78001-0.99967-0.22774 0.43326 0.10973 0.10737
  -5   1  -2  112.29    5.57   0-0.78720-0.43475-0.21668 0.99261 0.10960-0.33595
  -5   1  -1   86.87    5.13   0-0.76147-0.47486-0.25543 0.99747 0.11001-0.19267
  -5   1   2   14.30    2.53   0-0.76839-0.51106-0.24525 0.88852 0.10992 0.23830
  -8  -2   1    9.98    2.56   0-0.73889-0.93344-0.28763 0.56205 0.11025 0.32248
  -5   1   0   42.69    3.62   0-0.75022-0.50092-0.27166 0.98124 0.11017-0.04919
  -5   1   1    5.43    2.26   0-0.75252-0.51270-0.26837 0.94519 0.11014 0.09403
  -8  -2  -3   10.67    2.46   0-0.72287-0.89250-0.30952 0.71786 0.11033-0.25380
  -8  -2   0    2.77    2.39   0-0.70996-0.94888-0.32669 0.63449 0.11034 0.17817
  -7  -1  -3   30.23    3.82   0-0.71406-0.76507-0.32129 0.86214 0.11034-0.32841
  -6   0  -2   10.89    3.15   0-0.71743-0.64149-0.31680 0.95791 0.11034-0.26079
  -6   0   2    8.51    2.34   0-0.72867-0.68687-0.30166 0.81055 0.11031 0.31443
  -9  -4  -3    0.03    3.55   0-0.68636-0.97265-0.35692 0.40160 0.11028-0.12393
  -9  -4  -1    2.64    3.51   0-0.68877-0.99513-0.35388 0.33110 0.11030 0.16274
  -8  -2  -2   40.94    3.65   0-0.70160-0.92798-0.33751 0.71218 0.11035-0.10915
  -8  -2  -1    1.58    1.89   0-0.69765-0.94686-0.34259 0.68365 0.11033 0.03423
  -7  -1  -2   11.95    3.15   0-0.68662-0.80739-0.35659 0.86472 0.11028-0.18544
  -7  -1   1    9.98    2.78   0-0.69544-0.84088-0.34542 0.75261 0.11033 0.24520
  -6   0  -1  171.01    6.53   0-0.69848-0.67387-0.34152 0.95102 0.11034-0.11702
  -6   0   0   -0.34    2.65   0-0.69350-0.69356-0.34789 0.92365 0.11032 0.02642
  -6   0   1    0.46    2.12   0-0.70346-0.70204-0.33510 0.87678 0.11035 0.16732
  -4   1  -1  208.96    7.02   0-0.69465-0.31041-0.34642 0.99295 0.11032-0.21525
  -4   1   2   77.69    4.71   0-0.69469-0.35422-0.34638 0.89400 0.11032 0.21535
  -9  -4  -2    2.62    3.05   0-0.67566-0.99493-0.37023 0.38058 0.11024 0.01945
  -7  -1  -1   13.48    2.93   0-0.67480-0.83438-0.37128 0.84631 0.11023-0.04064
  -7  -1   0   17.85    2.96   0-0.67737-0.84499-0.36811 0.80956 0.11025 0.10213
  -4   1   0   33.34    3.30   0-0.67822-0.34190-0.36706 0.98130 0.11026-0.07167
  -4   1   1  113.83    5.15   0-0.67822-0.35601-0.36706 0.94820 0.11026 0.07202
  -3  -6  -9    0.95    1.69   0 0.51962-0.51221-0.30541-0.48918-0.82797-0.07753
  -3  -6  -8    0.75    1.73   0 0.51777-0.52669-0.30867-0.52221-0.82704 0.06377
  -3  -6  -7   38.34    2.89   0 0.51258-0.53209-0.31771-0.54382-0.82434 0.20745
  -3  -5  -5  162.49    4.87   0 0.51767-0.66169-0.30886-0.38944-0.82698 0.44529
  -2  -6  -5   39.72    2.97   0 0.51366-0.32918-0.31585-0.70812-0.82491 0.47181
  -1  -6 -12   25.10    2.35   0 0.51038 0.00417-0.32147-0.56819-0.82318-0.55774
  -2  -6 -11   -0.38    1.27   0 0.52878-0.26177-0.28878-0.53660-0.83240-0.38396
  -3  -5  -6   89.90    3.94   0 0.53993-0.66945-0.26746-0.39748-0.83737 0.31159
  -2  -6  -6  132.11    4.39   0 0.53584-0.33776-0.27543-0.71569-0.83565 0.33957
  -2  -5  -4    0.54    1.38   0 0.54202-0.46984-0.26333-0.56196-0.83822 0.57441
  -1  -6 -11    3.85    1.54   0 0.54469-0.04506-0.25796-0.66363-0.83927-0.39846
   0  -6 -11    9.18    1.94   0 0.53708 0.19333-0.27303-0.74613-0.83618-0.42143
  -3  -5  -7   30.68    2.55   0 0.55288-0.66798-0.24099-0.39101-0.84231 0.17276
  -2  -6 -10   35.91    2.43   0 0.54719-0.29241-0.25286-0.60592-0.84028-0.23081
  -2  -6  -9   16.48    2.21   0 0.55477-0.31515-0.23696-0.65510-0.84295-0.08415
  -2  -6  -8   27.68    2.44   0 0.55535-0.32942-0.23570-0.68979-0.84314 0.05963
  -2  -6  -7    4.84    1.40   0 0.54936-0.33853-0.24840-0.70877-0.84107 0.20029
  -1  -6  -6   18.20    2.18   0 0.55469-0.12541-0.23713-0.85036-0.84292 0.32398
  -1  -6 -10   11.86    1.78   0 0.56245-0.07684-0.22009-0.73407-0.84535-0.24840
  -1  -6  -7  116.08    4.23   0 0.56680-0.12322-0.21013-0.84402-0.84650 0.18336
  -1  -5 -12    4.20    1.34   0 0.56811-0.14551-0.20706-0.45359-0.84682-0.58814
   0  -6 -10    0.90    0.93   0 0.55874 0.15693-0.22837-0.82166-0.84427-0.27367
  -2  -5  -5    8.13    1.44   0 0.56853-0.48015-0.20609-0.58815-0.84714 0.44065
  -1  -6  -9   26.37    2.11   0 0.57028-0.09888-0.20194-0.78639-0.84754-0.10238
  -1  -6  -8    1.61    1.26   0 0.57166-0.11559-0.19862-0.82159-0.84783 0.03987
  -1  -5  -4  346.14    6.93   0 0.57366-0.26804-0.19377-0.72891-0.84824 0.56228
   0  -6  -9   49.95    2.79   0 0.56905 0.13378-0.20485-0.87939-0.84726-0.12576
   0  -6  -8   11.04    1.70   0 0.57175 0.11716-0.19841-0.91847-0.84785 0.01819
   0  -5 -12   11.67    1.81   0 0.57149 0.07791-0.19904-0.55492-0.84780-0.61025
  -2  -5 -10   55.90    3.14   0 0.58701-0.42772-0.15930-0.46954-0.84996-0.27471
  -2  -5  -6    3.00    1.76   0 0.58505-0.48377-0.16463-0.59529-0.84982 0.29929
   1  -5 -11    1.45    1.94   0 0.58543 0.28152-0.16358-0.72087-0.84985-0.48813
  -2  -5  -9   25.69    2.47   0 0.59483-0.45019-0.13712-0.52484-0.85009-0.13041
  -2  -5  -7   64.31    3.37   0 0.59383-0.47763-0.14005-0.58828-0.85012 0.15737
  -1  -5 -11    5.29    1.49   0 0.59295-0.18775-0.14263-0.54886-0.85014-0.44048
  -1  -5  -5    0.93    1.38   0 0.59420-0.27662-0.13897-0.75321-0.85011 0.42046
  -2  -5  -8   17.16    1.89   0 0.59705-0.46625-0.13051-0.56452-0.84999 0.01300
   0  -5 -11    6.27    1.25   0 0.59747 0.03766-0.12924-0.65846-0.84996-0.46413
   1  -5 -10   16.89    1.94   0 0.60431 0.24868-0.10760-0.80908-0.84901-0.34432
  -2  -4  -5  368.76    7.12   0 0.60499-0.61260-0.10539-0.45891-0.84895 0.39062
  -1  -5 -10   18.00    1.88   0 0.60601-0.21570-0.10197-0.62316-0.84872-0.29836
  -1  -5  -6   36.42    2.41   0 0.60751-0.27417-0.09684-0.76033-0.84834 0.27573
   0  -5 -10   19.93    2.06   0 0.61142 0.01057-0.08302-0.73772-0.84712-0.32273
   0  -4 -12   41.63    2.43   0 0.60972-0.05519-0.08912-0.43469-0.84770-0.66346
   1  -4 -12    1.88    1.58   0 0.60562 0.17997-0.10325-0.51757-0.84881-0.68457
  -2  -4  -6   51.21    2.89   0 0.61634-0.60928-0.06425-0.46674-0.84521 0.24283
  -1  -5  -9    8.14    1.60   0 0.61289-0.23729-0.07750-0.68061-0.84677-0.15662
  -1  -5  -8   19.69    2.22   0 0.61525-0.25378-0.06852-0.72268-0.84574-0.01457
  -1  -5  -7   19.70    2.02   0 0.61369-0.26574-0.07450-0.74995-0.84644 0.12956
   0  -5  -9   17.31    2.19   0 0.61836-0.01126-0.05614-0.79802-0.84412-0.18301
   0  -5  -6  267.84    6.27   0 0.61577-0.05063-0.06651-0.88625-0.84549 0.24932
   1  -5  -9   13.15    1.62   0 0.61346 0.22468-0.07536-0.87511-0.84653-0.20292
   1  -5  -8   -0.93    1.58   0 0.61710 0.20615-0.06124-0.92083-0.84482-0.06895
   2  -4 -11   11.90    1.89   0 0.61266 0.38977-0.07836-0.67125-0.84686-0.56664
  -2  -4  -7  200.19    5.41   0 0.62128-0.60013-0.04363-0.45468-0.84253 0.09678
   0  -5  -8   88.09    3.86   0 0.62126-0.02822-0.04371-0.84328-0.84254-0.04118
   0  -5  -7   24.18    2.29   0 0.62058-0.04142-0.04667-0.87301-0.84301 0.10282
   2  -3 -12   18.51    2.14   0 0.62159 0.30037-0.04224-0.44486-0.84231-0.76725
  -1  -4 -10   15.93    2.22   0 0.62969-0.33478-0.00269-0.49163-0.83474-0.36603
   0  -4 -11    0.59    1.30   0 0.62730-0.08608-0.01533-0.54326-0.83741-0.52966
   1  -4 -11   42.99    2.41   0 0.62616 0.14504-0.02102-0.63244-0.83854-0.55260
   2  -4 -10    1.71    1.41   0 0.62830 0.36048-0.01016-0.77274-0.83635-0.43381
  -1  -4  -5  607.36    8.84   0 0.63044-0.40675 0.00144-0.66171-0.83381 0.35181
   1  -3 -12    7.69    1.38   0 0.63040 0.05954 0.00122-0.39049-0.83386-0.75372
  -1  -4  -9    0.72    1.42   0 0.63503-0.35426 0.02991-0.55825-0.82671-0.23013
  -1  -4  -8   58.45    3.26   0 0.63743-0.37127 0.04775-0.60889-0.82165-0.09153
  -1  -4  -6  224.84    5.53   0 0.63584-0.39807 0.03558-0.66275-0.82515 0.19985
   0  -4 -10   19.32    2.16   0 0.63609-0.10973 0.03747-0.62720-0.82463-0.39940
   1  -4 -10    1.84    1.52   0 0.63597 0.12152 0.03653-0.72279-0.82489-0.42139
   2  -4  -9   -0.82    1.49   0 0.63612 0.33506 0.03764-0.84776-0.82458-0.30521
  -1  -4  -7   44.88    2.69   0 0.63779-0.38563 0.05058-0.64442-0.82080 0.05140
   0  -4  -9   32.52    2.60   0 0.64012-0.12813 0.07208-0.69609-0.81396-0.26661
   0  -4  -5   10.13    1.68   0 0.63916-0.18366 0.06257-0.81828-0.81707 0.31105
   1  -4  -9   -0.08    1.67   0 0.63998 0.10562 0.07057-0.79181-0.81446-0.29708
   2  -3 -11   25.77    2.26   0 0.63877 0.26834 0.05904-0.57792-0.81819-0.64861
   2  -2 -12    1.20    1.40   0 0.63820 0.18914 0.05402-0.31166-0.81975-0.84266
   3  -3 -10    1.90    1.06   0 0.63840 0.48554 0.05574-0.70485-0.81922-0.52695
   0  -4  -8   49.51    3.02   0 0.64188-0.14470 0.09293-0.75033-0.80663-0.12946
   0  -4  -7  208.94    5.56   0 0.64231-0.15911 0.09919-0.78992-0.80430 0.01168
   0  -4  -6   24.74    2.32   0 0.64174-0.17278 0.09100-0.81306-0.80733 0.15761
   1  -4  -8   35.32    2.79   0 0.64223 0.08622 0.09808-0.85120-0.80472-0.15506
   1  -3 -11    6.20    1.45   0 0.64158 0.03453 0.08885-0.51162-0.80811-0.63500
   3  -2 -11    0.34    1.97   0 0.64212 0.40252 0.09636-0.48353-0.80536-0.74092
   4  -2 -10    1.21    1.43   0 0.64067 0.61990 0.07788-0.59281-0.81198-0.61035
   1  -4  -7    0.35    1.41   0 0.64281 0.07282 0.10762-0.89158-0.80103-0.02340
   3  -3  -9    5.15    1.60   0 0.64324 0.46631 0.11652-0.79720-0.79750-0.40493
  -1  -3  -8   25.99    2.55   0 0.64403-0.47304 0.14799-0.47897-0.78397-0.18191
   0  -3 -10    9.78    1.62   0 0.64385-0.21269 0.13504-0.49638-0.78972-0.48589
   2  -3 -10    2.33    1.22   0 0.64368 0.24987 0.12846-0.68084-0.79253-0.53079
  -1  -3  -7   39.16    2.75   0 0.64406-0.48727 0.16197-0.52565-0.77742-0.04485
  -1  -3  -6  190.14    5.22   0 0.64409-0.50162 0.15813-0.55537-0.77924 0.10100
   1  -3 -10   32.93    2.35   0 0.64411 0.01747 0.15180-0.60774-0.78218-0.51792
   1  -2 -11   60.53    3.11   0 0.64394-0.06358 0.16939-0.36110-0.77384-0.72327
   2  -2 -11   16.52    1.79   0 0.64408 0.16685 0.15981-0.44755-0.77844-0.74146
   0  -3  -9  426.49    7.67   0 0.64365-0.22705 0.18080-0.57402-0.76808-0.36507
   1  -3  -9   92.49    3.85   0 0.64279 0.00496 0.19933-0.68880-0.75839-0.39798
   2  -3  -9   20.77    2.19   0 0.64371 0.23472 0.17912-0.76453-0.76893-0.41074
   3  -2 -10    7.87    1.69   0 0.64333 0.38452 0.18877-0.60609-0.76398-0.63454
   3  -1 -11   13.71    2.06   0 0.64318 0.30391 0.19207-0.34603-0.76225-0.83326
   0  -3  -8  130.99    4.47   0 0.64184-0.23947 0.21361-0.63965-0.75048-0.23832
   2  -3  -8   22.31    2.58   0 0.64162 0.22306 0.21646-0.83432-0.74886-0.28650
   4  -1 -10   21.08    2.34   0 0.64237 0.52133 0.20618-0.49000-0.75461-0.72084
   0  -3  -7    3.91    1.33   0 0.64025-0.25274 0.23170-0.69133-0.73995-0.10490
   0  -3  -6   23.34    1.99   0 0.63984-0.26622 0.23559-0.72861-0.73762 0.03607
   1  -3  -8   21.14    2.10   0 0.64000-0.00609 0.23416-0.75642-0.73848-0.27377
   1  -2 -10    9.93    2.04   0 0.63899-0.07276 0.24326-0.46991-0.73295-0.61839
   2  -3  -7    6.59    1.96   0 0.63943 0.21061 0.23937-0.89040-0.73533-0.15672
   2  -2 -10   -0.17    1.67   0 0.63901 0.15586 0.24314-0.56061-0.73303-0.63482
   2  -1 -11   11.78    1.61   0 0.64043 0.07518 0.22986-0.28739-0.74104-0.83139
   3   0 -11    0.36    1.71   0 0.63876 0.21446 0.24523-0.17071-0.73174-0.91788
   1  -3  -7    1.62    1.54   0 0.63754-0.01872 0.25489-0.81070-0.72563-0.14366
   1  -3  -6    0.84    1.64   0 0.63587-0.03254 0.26680-0.85124-0.71792-0.00640
   1  -3  -5    8.28    1.50   0 0.63746-0.04753 0.25550-0.87685-0.72525 0.14406
   3  -2  -9   -0.18    1.31   0 0.63791 0.37600 0.25205-0.69965-0.72743-0.53176
   5   0  -9    0.46    1.96   0 0.63437 0.65144 0.27643-0.45947-0.71149-0.69618
   2  -2  -9  143.86    4.96   0 0.63116 0.15173 0.29470-0.64982-0.69877-0.53353
   3  -1 -10   19.82    2.13   0 0.63293 0.30003 0.28498-0.47180-0.70561-0.74600
   4  -1  -9   -0.25    1.48   0 0.63219 0.51495 0.28910-0.60219-0.70273-0.62990
   4   0 -10    2.05    1.73   0 0.63183 0.43739 0.29107-0.34525-0.70135-0.82659
   0  -2  -8  163.06    5.07   0 0.62739-0.32046 0.31321-0.50943-0.68522-0.35609
   1  -2  -9   10.42    2.00   0 0.63004-0.07903 0.30044-0.55934-0.69463-0.51431
   2  -1 -10    3.17    1.66   0 0.62694 0.07546 0.31525-0.40767-0.68369-0.74517
   3  -2  -8   19.18    2.17   0 0.63008 0.36928 0.30024-0.78451-0.69477-0.41682
   2  -2  -8    2.78    1.89   0 0.62085 0.14816 0.34060-0.72920-0.66397-0.42497
   3  -2  -7   14.98    2.39   0 0.62174 0.36381 0.33712-0.85325-0.66676-0.30108
   4   1 -10    7.28    2.02   0 0.62050 0.35564 0.34192-0.16255-0.66290-0.91783
   0  -2  -7   90.25    3.68   0 0.61959-0.32762 0.34548-0.57504-0.66008-0.23743
   1  -2  -8   51.17    2.96   0 0.61949-0.08262 0.34586-0.63830-0.65976-0.40506
   3  -1  -9   13.01    2.24   0 0.61701 0.30171 0.35481-0.57547-0.65235-0.65589
   3   0 -10   23.16    2.08   0 0.61824 0.21820 0.35043-0.30703-0.65600-0.84908
   4  -1  -8    0.24    1.37   0 0.61881 0.51583 0.34834-0.69434-0.65773-0.53460
   5   0  -8    2.50    1.61   0 0.61667 0.65457 0.35598-0.57093-0.65137-0.61366
   5   1  -9    2.47    2.18   0 0.61688 0.57362 0.35528-0.30779-0.65196-0.80885
   1  -2  -7  216.29    5.63   0 0.60893-0.08524 0.38112-0.70612-0.62951-0.29173
   1  -1  -9   18.57    2.42   0 0.60993-0.15378 0.37808-0.40625-0.63224-0.62937
   2  -2  -7   27.42    2.47   0 0.61048 0.14478 0.37636-0.79734-0.63376-0.31122
   2  -1  -9   70.10    3.57   0 0.60808 0.07916 0.38367-0.50825-0.62721-0.65743
   4   0  -9    3.10    1.64   0 0.60988 0.44394 0.37822-0.46287-0.63211-0.75233
   6   2  -8    2.77    2.12   0 0.60879 0.70176 0.38155-0.23281-0.62913-0.76321
   1  -2  -6   64.19    3.19   0 0.60060-0.09140 0.40467-0.76266-0.60762-0.17004
   2  -2  -6  136.92    4.75   0 0.60204 0.13784 0.40079-0.85456-0.61132-0.18972
   3  -1  -8   81.49    3.95   0 0.59856 0.30567 0.41004-0.66443-0.60244-0.56263
   4  -1  -7    8.31    1.78   0 0.60403 0.51636 0.39530-0.77842-0.61648-0.42718
   5   2  -9   -1.20    1.76   0 0.60318 0.49080 0.39767-0.12028-0.61427-0.89903
   2  -2  -5    9.54    1.48   0 0.59733 0.12844 0.41319-0.90041-0.59935-0.05841
   3   0  -9   44.10    3.05   0 0.59129 0.23118 0.42802-0.41899-0.58451-0.77661
   5   0  -7   18.35    2.11   0 0.59627 0.66027 0.41587-0.66377-0.59671-0.52376
   1  -1  -8   17.15    1.99   0 0.58869-0.14676 0.43403-0.49637-0.57829-0.53899
   2  -1  -8  471.36    7.89   0 0.58670 0.08616 0.43856-0.59608-0.57356-0.56754
   2   0  -9    0.20    1.72   0 0.58311 0.01300 0.44647-0.33886-0.56515-0.77445
   4   0  -8  205.77    5.83   0 0.58424 0.45510 0.44402-0.56268-0.56778-0.67255
   4   1  -9   -0.33    1.24   0 0.58778 0.37169 0.43613-0.29077-0.57611-0.86187
   5   1  -8    3.36    1.38   0 0.58670 0.58936 0.43856-0.42486-0.57356-0.74325
   3  -1  -7   12.17    1.92   0 0.57890 0.31046 0.45545-0.74185-0.55549-0.46593
   3   1  -9    1.15    1.90   0 0.56960 0.15857 0.47387-0.23415-0.53468-0.88087
   4   2  -9   -0.32    1.49   0 0.57399 0.28950 0.46538-0.09144-0.54440-0.94632
   6   2  -7   75.91    3.79   0 0.57258 0.72396 0.46813-0.35175-0.54128-0.70837
   1  -1  -7   45.60    2.74   0 0.56601-0.13852 0.48048-0.57505-0.52686-0.44721
   2  -1  -7  178.23    5.28   0 0.56433 0.09412 0.48354-0.67412-0.52324-0.47415
   3  -1  -6   24.69    2.61   0 0.56003 0.31555 0.49118-0.81035-0.51401-0.36385
   3   0  -8   13.38    2.38   0 0.56032 0.24812 0.49067-0.51310-0.51464-0.70369
   5   2  -8   23.54    2.35   0 0.56133 0.51750 0.48890-0.24464-0.51678-0.85357
   2   0  -8  181.69    5.09   0 0.54982 0.02700 0.50826-0.43596-0.49266-0.70156
   4   0  -7    2.26    1.37   0 0.55719 0.46838 0.49608-0.64840-0.50803-0.58945
   4   1  -8   46.77    3.08   0 0.55038 0.39348 0.50737-0.39685-0.49380-0.80027
   5   1  -7   10.79    2.11   0 0.55339 0.60774 0.50245-0.52016-0.50006-0.67269
   5   3  -8    9.11    2.06   0 0.54878 0.43484 0.50992-0.03471-0.49052-0.93245
   6   3  -7    3.35    1.88   0 0.54934 0.65229 0.50903-0.16299-0.49167-0.81135
   1  -1  -6    0.75    1.09   0 0.54374-0.13061 0.51769-0.64506-0.48021-0.35078
   2  -1  -6   71.83    3.31   0 0.54253 0.10163 0.51953-0.74348-0.47776-0.37600
   3  -1  -5    6.47    1.53   0 0.54374 0.31702 0.51769-0.87018-0.48021-0.25397
   6   2  -6    2.61    1.75   0 0.53562 0.74779 0.52978-0.44725-0.46389-0.64369
   6   4  -7    0.52    1.88   0 0.54374 0.56171 0.51769 0.05875-0.48021-0.87600
   2  -1  -5   59.95    3.04   0 0.52281 0.10710 0.54751-0.80466-0.43876-0.27166
   3   0  -7   72.67    3.71   0 0.52690 0.26668 0.54201-0.59830-0.44671-0.62632
   3   1  -8    0.68    1.77   0 0.52576 0.18703 0.54356-0.33652-0.44448-0.82570
   4   0  -6   -0.46    1.79   0 0.52772 0.48191 0.54089-0.71884-0.44831-0.50890
   4   2  -8   -0.27    1.57   0 0.52466 0.32377 0.54505-0.20392-0.44234-0.90442
   2   0  -7    1.88    1.39   0 0.51261 0.05041 0.56060-0.52093-0.41914-0.63173
   4   1  -7  147.82    4.70   0 0.50974 0.41943 0.56413-0.48656-0.41372-0.73665
   5   1  -6    2.73    1.57   0 0.51978 0.62686 0.55149-0.60286-0.43284-0.59741
   5   2  -7   53.53    3.13   0 0.51634 0.54832 0.55592-0.34493-0.42623-0.80047
   7   4  -5    6.52    2.03   0 0.50938 0.80007 0.56458-0.15032-0.41302-0.67682
   7   5  -5    3.60    1.66   0 0.50397 0.70982 0.57115 0.07117-0.40302-0.74034
  -3  -6  -3   -1.05    1.77   0 0.75679-0.82692-0.89616-0.10281-0.01183-0.03129
  -3  -6  -2   81.33    3.75   0 0.74973-0.84222-0.90037-0.12503-0.01063 0.11212
  -3  -5  -3   17.89    1.90   0 0.75088-0.92360-0.89969 0.13708-0.01083-0.08372
  -3  -5  -2   30.39    2.35   0 0.75203-0.93935-0.89901 0.10331-0.01102 0.06022
  -2  -7   0    4.63    2.13   0 0.75592-0.54930-0.89669-0.52211-0.01168 0.43033
  -1  -8  -1   17.03    1.83   0 0.74587-0.20125-0.90261-0.80756-0.00998 0.31473
   0  -8  -1   35.72    3.04   0 0.76396 0.01182-0.89172-0.91457-0.01306 0.29505
  -1  -8  -4   10.05    1.89   0 0.78043-0.19000-0.88083-0.72964-0.01600-0.11071
  -1  -8  -3    7.41    1.77   0 0.78275-0.20770-0.87923-0.76594-0.01641 0.03381
  -1  -8  -2   21.38    2.01   0 0.77274-0.21206-0.88602-0.79142-0.01464 0.17468
  -2  -7  -2    2.75    2.22   0 0.80934-0.57456-0.85926-0.49296-0.02138 0.15231
  -2  -7  -1    7.70    1.90   0 0.78979-0.57051-0.87416-0.51042-0.01777 0.29118
   0  -8  -4   67.42    3.54   0 0.79334 0.02520-0.87157-0.83452-0.01842-0.13283
   0  -8  -3    2.58    1.93   0 0.80110 0.00560-0.86573-0.87388-0.01984 0.01393
   0  -8  -2    8.48    1.66   0 0.79032-0.00090-0.87377-0.89934-0.01787 0.15497
  -2  -7  -4  202.80    6.04   0 0.81070-0.54830-0.85815-0.42657-0.02165-0.13513
  -2  -7  -3  141.91    5.10   0 0.81577-0.56779-0.85399-0.46439-0.02261 0.00953
  -2  -6   0    8.88    2.25   0 0.82032-0.70951-0.85016-0.33822-0.02347 0.38827
  -1  -7   0    0.17    1.96   0 0.82505-0.38538-0.84607-0.67385-0.02439 0.41590
  -2  -6  -1   95.42    4.64   0 0.84668-0.72209-0.82589-0.32918-0.02869 0.24992
  -2  -6  -4    3.38    2.04   0 0.85533-0.68775-0.81707-0.23878-0.03049-0.17761
  -2  -6  -3   19.18    2.70   0 0.86376-0.71006-0.80802-0.28060-0.03227-0.03360
  -2  -6  -2   59.80    3.85   0 0.86059-0.72172-0.81147-0.31050-0.03159 0.10967
  -2  -5   0  901.59   12.36   0 0.85321-0.83854-0.81926-0.13883-0.03005 0.34226
  -1  -7  -1   20.47    2.86   0 0.85551-0.40463-0.81688-0.66357-0.03052 0.28175
   0  -7   0    2.39    1.96   0 0.86627-0.19767-0.80523-0.80536-0.03280 0.40550
  -2  -5  -1    0.48    1.81   0 0.87603-0.84666-0.79391-0.13141-0.03500 0.20327
  -1  -7  -4   41.04    3.18   0 0.87056-0.37598-0.80032-0.58105-0.03380-0.14678
  -1  -7  -3   35.21    3.35   0 0.87615-0.39608-0.79376-0.62009-0.03503-0.00215
  -1  -7  -2   -1.09    1.75   0 0.87084-0.40040-0.79999-0.65157-0.03386 0.13911
   1  -7   0    9.06    2.21   0 0.87825 0.02009-0.79124-0.91417-0.03550 0.38351
  -2  -5  -3   10.57    1.89   0 0.88577-0.82748-0.78176-0.07701-0.03736-0.08174
  -2  -5  -2    6.51    1.70   0 0.88658-0.84279-0.78073-0.11122-0.03754 0.06278
  -1  -6   0   71.03    4.40   0 0.89892-0.55848-0.76419-0.51964-0.04043 0.38132
   0  -7  -1    2.67    2.04   0 0.89197-0.21000-0.77369-0.80151-0.03879 0.26595
   2  -7  -4   13.00    2.51   0 0.88550 0.30191-0.78210-0.88597-0.03730-0.21505
   2  -7  -3   -0.75    2.82   0 0.89862 0.27400-0.76461-0.93712-0.04036-0.06579
   2  -7  -2   23.84    3.48   0 0.89778 0.25954-0.76578-0.96923-0.04016 0.07668
   2  -7  -1   18.26    2.71   0 0.88442 0.25673-0.78348-0.98483-0.03705 0.21663
   0  -7  -4   63.10    3.68   0 0.90159-0.17746-0.76025-0.71598-0.04127-0.16368
   0  -7  -3   12.14    2.64   0 0.90774-0.19759-0.75125-0.75819-0.04278-0.01737
   0  -7  -2   40.18    3.02   0 0.90409-0.20806-0.75664-0.78654-0.04188 0.12467
   1  -7  -4   32.17    3.05   0 0.90881 0.04698-0.74963-0.82239-0.04304-0.18558
   1  -7  -2   11.65    2.39   0 0.91402 0.01335-0.74156-0.89748-0.04436 0.10325
   1  -7  -1   13.54    2.08   0 0.90185 0.00982-0.75989-0.91275-0.04133 0.24423
  -1  -6  -4   44.07    3.73   0 0.92331-0.52503-0.72625-0.42443-0.04681-0.18787
  -1  -6  -1   14.07    2.45   0 0.91843-0.56399-0.73444-0.51566-0.04553 0.24160
   1  -7  -3   11.33    1.95   0 0.91612 0.02539-0.73820-0.86725-0.04493-0.04066
  -1  -6  -3   -0.72    1.78   0 0.92996-0.53930-0.71445-0.47618-0.04863-0.04202
  -1  -6  -2  109.41    5.00   0 0.92802-0.55915-0.71795-0.49943-0.04809 0.10172
  -1  -5   0   20.47    2.59   0 0.94162-0.69679-0.69180-0.36212-0.05196 0.33973
   0  -6   0    7.59    2.43   0 0.94269-0.36947-0.68957-0.69119-0.05228 0.36871
   3  -6   0    3.64    2.21   0 0.95002 0.31653-0.67355-0.99319-0.05453 0.30052
  -1  -5  -3    2.39    2.23   0 0.96005-0.67215-0.64904-0.30807-0.05782-0.08512
  -1  -5  -1   89.29    4.83   0 0.95544-0.69640-0.66076-0.35984-0.05626 0.20047
   0  -6  -4  537.99   11.33   0 0.95835-0.32913-0.65346-0.59297-0.05723-0.20112
   0  -6  -1   58.98    4.26   0 0.95658-0.36985-0.65793-0.68857-0.05664 0.22978
  -1  -5  -2  137.63    5.48   0 0.96145-0.68806-0.64540-0.34173-0.05824 0.05885
   0  -6  -3  327.66    8.64   0 0.96357-0.34872-0.63959-0.64029-0.05899-0.05535
   0  -6  -2    4.85    2.03   0 0.96279-0.36262-0.64175-0.67203-0.05871 0.08993
   1  -6   0   68.12    4.33   0 0.96201-0.15887-0.64390-0.83191-0.05843 0.35188
   2  -6   0   30.11    3.48   0 0.96496 0.06933-0.63569-0.93595-0.05949 0.32879
   3  -6  -3    6.97    2.16   0 0.96396 0.34422-0.63851-0.92921-0.05913-0.12476
   3  -6  -2   21.61    2.90   0 0.96685 0.32770-0.63021-0.96891-0.06019 0.01846
   3  -6  -1    8.84    2.04   0 0.96216 0.31835-0.64347-0.99053-0.05849 0.16148
   1  -6  -4    1.26    1.89   0 0.97227-0.11153-0.61330-0.73000-0.06228-0.21788
   1  -6  -3   16.63    3.35   0 0.97704-0.13101-0.59677-0.77889-0.06427-0.07430
   1  -6  -2    9.61    3.14   0 0.97701-0.14592-0.59692-0.81208-0.06425 0.06947
   1  -6  -1   17.78    2.62   0 0.97241-0.15500-0.61286-0.83006-0.06233 0.21176
   2  -6  -4    2.14    1.80   0 0.97207 0.11959-0.61397-0.82490-0.06220-0.24142
   2  -6  -3  103.72    5.56   0 0.97786 0.09889-0.59377-0.87742-0.06463-0.09753
   2  -6  -1    2.52    2.31   0 0.97494 0.07281-0.60431-0.93292-0.06337 0.18992
   0  -5   0    9.39    2.97   0 0.98267-0.50622-0.57446-0.57497-0.06686 0.33074
   2  -6  -2    3.17    2.01   0 0.97864 0.08388-0.59080-0.91399-0.06498 0.04816
   0  -5  -1    3.32    2.79   0 0.98923-0.49864-0.54238-0.57451-0.07041 0.19122
   0  -5  -3   92.44    5.10   0 0.99138-0.47180-0.52955-0.52026-0.07170-0.09546
   0  -5  -2   80.90    4.70   0 0.99183-0.48651-0.52667-0.55660-0.07201 0.04832
   3  -5   1    3.31    2.65   0 0.99364 0.16081-0.51397-0.95556-0.07332 0.41040
   4  -5  -3   13.06    2.89   0 0.99294 0.45162-0.51906-0.91248-0.07279-0.18837
   4  -5  -1    9.98    2.80   0 0.99436 0.42014-0.50836-0.99105-0.07389 0.09920
   4  -5   0   13.34    2.38   0 0.99092 0.41011-0.53243-0.99993-0.07140 0.24081
   1  -5   0    2.63    2.69   0 0.99622-0.28907-0.49171-0.75159-0.07554 0.31552
   2  -5   1  114.34    5.92   0 0.99481-0.06981-0.50462-0.87021-0.07426 0.43400
   4  -5  -2    3.02    1.68   0 0.99490 0.43462-0.50389-0.96201-0.07434-0.04388
   0  -4   0  542.48   12.13   0 0.99871-0.61676-0.45921-0.46090-0.07863 0.28934
   1  -5  -3   27.84    4.03   0 0.99895-0.24804-0.45448-0.69164-0.07906-0.11274
   1  -5  -2  139.24    6.66   0 0.99918-0.26325-0.44934-0.72985-0.07953 0.03197
   1  -5  -1   39.71    4.21   0 0.99860-0.27583-0.46126-0.75055-0.07844 0.17429
   2  -5  -4   61.54    4.97   0 0.99901-0.00383-0.45316-0.75472-0.07919-0.27915
   2  -5   0   38.42    4.41   0 0.99881-0.05918-0.45736-0.88401-0.07880 0.29486
   3  -5   0   13.29    2.73   0 0.99808 0.17097-0.46950-0.96757-0.07766 0.27067
   5  -4   1    3.45    2.63   0 0.99928 0.52416-0.44681-0.98417-0.07976 0.31472
   0  -4  -3   40.87    3.78   0 0.99978-0.57597-0.42406-0.39592-0.08173-0.13779
   0  -4  -1  216.54    7.77   0 0.99977-0.60396-0.42538-0.46147-0.08161 0.14909
   2  -5  -3  531.28   12.51   0 0.99976-0.01800-0.42630-0.81523-0.08153-0.13347
   2  -5  -2   15.09    3.41   0 0.99980-0.03230-0.42014-0.85639-0.08207 0.01113
   2  -5  -1   69.56    5.50   0 0.99974-0.04539-0.42819-0.87958-0.08137 0.15386
   3  -5  -3   93.18    5.30   0 0.99926 0.21259-0.44711-0.89015-0.07968-0.15884
   3  -5  -2   11.03    3.07   0 0.99964 0.19654-0.43423-0.93433-0.08083-0.01365
   3  -5  -1    5.41    2.43   0 0.99941 0.18435-0.44304-0.96045-0.08005 0.12927
   5  -4  -3    1.06    2.62   0 0.99973 0.58130-0.42842-0.87216-0.08135-0.25564
   0  -4  -2  207.63    7.34   0 0.99978-0.58978-0.41276-0.44035-0.08272 0.00656
   5  -4  -2    1.40    2.54   0 0.99952 0.56565-0.39750-0.93458-0.08401-0.10950
   5  -4  -1    5.55    2.72   0 0.99935 0.55101-0.39156-0.97324-0.08450 0.03406
   5  -4   0    2.35    1.96   0 0.99973 0.53642-0.40810-0.99009-0.08312 0.17642
   1  -4   0   -0.54    2.55   0 0.99547-0.37607-0.33410-0.68659-0.08901 0.27391
   4  -4   1    0.72    2.45   0 0.99681 0.29755-0.34866-0.98789-0.08791 0.34358
   6  -3  -2    4.14    4.34   0 0.99482 0.70616-0.32792-0.87011-0.08947-0.18051
   6  -3   1   -0.12    2.16   0 0.99659 0.66115-0.34599-0.95127-0.08812 0.24489
   1  -4  -3   94.94    5.54   0 0.99212-0.33701-0.30553-0.60972-0.09101-0.15272
   1  -4  -2    3.43    2.71   0 0.99047-0.34910-0.29365-0.65613-0.09184-0.00730
   1  -4  -1  294.15    9.15   0 0.99165-0.36400-0.30204-0.67993-0.09126 0.13425
   2  -4   1   12.12    2.90   0 0.99383-0.16356-0.31920-0.82614-0.09003 0.39792
   3  -4   1   53.00    5.24   0 0.99237 0.06982-0.30742-0.93326-0.09088 0.37369
   4  -4  -3   30.83    3.62   0 0.99308 0.35450-0.31299-0.89006-0.09048-0.22439
   4  -4  -2   55.53    5.21   0 0.99023 0.34318-0.29203-0.94429-0.09195-0.07985
   4  -4  -1    3.02    3.24   0 0.99001 0.32974-0.29053-0.97883-0.09206 0.06551
   4  -4   0    9.32    3.56   0 0.99267 0.31222-0.30978-0.99297-0.09071 0.20788
   6  -3  -1    1.67    3.16   0 0.99238 0.69273-0.30751-0.92201-0.09087-0.03552
   6  -3   0   -0.08    2.57   0 0.99338 0.67862-0.31542-0.94827-0.09030 0.10480
   7  -2   1    0.34    3.97   0 0.99033 0.80252-0.29271-0.86991-0.09191 0.17572
   2  -4   0   23.55    3.84   0 0.98686-0.14284-0.27081-0.84017-0.09336 0.25669
   3  -4   0    2.35    3.38   0 0.98616 0.08854-0.26676-0.94177-0.09363 0.23444
   7  -2  -1    4.65    3.16   0 0.98839 0.83422-0.28009-0.81698-0.09274-0.11018
   7  -2   0    0.21    4.00   0 0.98722 0.82111-0.27297-0.85726-0.09322 0.03369
   2  -4  -3  689.89   14.17   0 0.98364-0.09766-0.25292-0.75813-0.09454-0.17334
   2  -4  -2  118.22    6.39   0 0.98062-0.10834-0.23757-0.80638-0.09551-0.02892
   2  -4  -1   56.10    4.51   0 0.98221-0.12426-0.24547-0.83319-0.09501 0.11412
   3  -4  -3    4.19    3.09   0 0.98441 0.13371-0.25705-0.85096-0.09427-0.19546
   3  -4  -2    1.20    3.29   0 0.98009 0.12138-0.23499-0.90088-0.09567-0.05036
   3  -4  -1    4.68    3.71   0 0.98167 0.10720-0.24279-0.93114-0.09518 0.09222
   5  -3  -3   11.05    3.35   0 0.97401 0.51147-0.20752-0.86072-0.09731-0.29450
   5  -3   1    5.33    3.47   0 0.97321 0.45299-0.20415-0.99691-0.09751 0.28107
   5  -3  -2   42.64    5.01   0 0.96579 0.50403-0.17487-0.92675-0.09917-0.14958
   5  -3  -1   13.00    3.97   0 0.96283 0.49322-0.16403-0.97114-0.09976-0.00420
   5  -3   0    1.04    3.52   0 0.96566 0.47577-0.17437-0.99451-0.09920 0.13940
   6  -2   2   40.22    4.71   0 0.95613 0.59302-0.14091-0.95845-0.10090 0.35083
   2  -3   1  145.27    6.93   0 0.94809-0.21357-0.11529-0.79978-0.10213 0.35589
   3  -3   1   88.32    6.41   0 0.93976 0.02582-0.09063-0.91986-0.10327 0.33322
   4  -3  -3  172.06    8.47   0 0.94612 0.30650-0.10931-0.86303-0.10241-0.26601
   4  -3   1   67.84    5.45   0 0.95055 0.24619-0.12293-0.98314-0.10176 0.30783
   6  -2  -2   57.88    5.68   0 0.94272 0.66274-0.09921-0.86828-0.10288-0.22178
   6  -2   1   16.43    4.41   0 0.94200 0.62136-0.09709-0.96957-0.10298 0.20871
   2  -3   0  100.84    6.23   0 0.93101-0.18184-0.06642-0.81488-0.10424 0.21437
   3  -3  -3    8.10    3.95   0 0.92897 0.09274-0.06098-0.81619-0.10447-0.23895
   4  -3  -2  574.78   14.10   0 0.93674 0.30189-0.08211-0.92407-0.10356-0.12121
   4  -3  -1   14.39    4.18   0 0.93428 0.29052-0.07529-0.96422-0.10386 0.02293
   4  -3   0   29.47    3.75   0 0.93916 0.27100-0.08893-0.98394-0.10326 0.16679
   6  -2  -1   12.85    3.39   0 0.93511 0.65621-0.07757-0.92455-0.10376-0.07548
   6  -2   0   -0.59    3.48   0 0.93272 0.64256-0.07103-0.95742-0.10404 0.06490
   7  -1  -2    1.75    2.33   0 0.93613 0.80629-0.08041-0.75393-0.10363-0.29581
   7  -1   2    0.73    3.15   0 0.93093 0.74703-0.06619-0.89444-0.10425 0.27675
   8   0  -1   21.44    4.45   0 0.93664 0.92691-0.08183-0.65115-0.10357-0.22892
   8   0   2   12.46    5.20   0 0.93353 0.88644-0.07323-0.75698-0.10395 0.20382
   2  -3  -2   42.32    4.07   0 0.92198-0.14526-0.04287-0.77171-0.10514-0.07149
   2  -3  -1   26.16    3.51   0 0.92198-0.15923-0.04287-0.80497-0.10514 0.07168
   3  -3  -2   -0.46    3.78   0 0.91846 0.09710-0.03406-0.87765-0.10549-0.09510
   3  -3  -1  106.80    6.78   0 0.91772 0.07659-0.03223-0.91139-0.10556 0.04840
   3  -3   0  140.46    7.26   0 0.92532 0.05403-0.05142-0.92617-0.10480 0.19124
   7  -1  -1    1.75    3.06   0 0.92153 0.80611-0.04173-0.82538-0.10518-0.15085
   7  -1   0    6.99    3.32   0 0.91633 0.79719-0.02880-0.87077-0.10569-0.00693
   7  -1   1   13.58    3.57   0 0.92027 0.77834-0.03856-0.89323-0.10531 0.13498
   8   0   0   -1.22    3.86   0 0.92443 0.92402-0.04914-0.71717-0.10489-0.08505
   8   0   1   -1.08    4.09   0 0.92377 0.91081-0.04743-0.75208-0.10496 0.05713
   5  -2  -3   -3.66    3.86   0 0.90401 0.48988 0.00040-0.83957-0.10677-0.33481
   5  -2   2    2.55    3.18   0 0.91166 0.40519-0.01750-0.98698-0.10612 0.38003
   5  -2  -2   30.89    5.35   0 0.88691 0.48821 0.03813-0.91010-0.10801-0.19326
   5  -2   1   15.00    4.43   0 0.89100 0.44167 0.02938-0.99940-0.10773 0.23844
   5  -2  -1    2.95    2.82   0 0.87901 0.48215 0.05462-0.96074-0.10851-0.04769
   5  -2   0   -0.66    2.54   0 0.88067 0.47129 0.05120-0.98967-0.10841 0.09254
   4  -2   1    2.40    3.68   0 0.85209 0.24910 0.10727-0.98468-0.10986 0.26445
   6  -1  -2   88.34    7.04   0 0.85115 0.65881 0.10901-0.84737-0.10990-0.26723
   6  -1   2   35.91    5.17   0 0.85724 0.59591 0.09758-0.96680-0.10963 0.30668
   3  -2   1   32.05    4.54   0 0.83121 0.03878 0.14494-0.92558-0.11058 0.28772
   4  -2  -2  159.15    8.15   0 0.83865 0.30450 0.13179-0.90728-0.11032-0.16672
   4  -2  -1    1.65    4.06   0 0.83188 0.29835 0.14376-0.95451-0.11056-0.02196
   4  -2   0  203.86    9.34   0 0.83496 0.28073 0.13835-0.98023-0.11045 0.11996
   6  -1  -1  206.77    9.55   0 0.83511 0.66142 0.13808-0.90801-0.11045-0.12319
   6  -1   0    3.22    4.43   0 0.83151 0.65036 0.14440-0.94849-0.11057 0.02125
   6  -1   1    1.27    4.24   0 0.83695 0.62733 0.13483-0.96861-0.11038 0.16394
   7   0  -2    1.55    2.61   0 0.84446 0.80319 0.12133-0.72588-0.11010-0.34231
   8   1  -1   10.90    4.17   0 0.84430 0.92394 0.12162-0.62514-0.11011-0.27546
   7   0   2   23.47    4.15   0 0.82478 0.76486 0.15606-0.89133-0.11076 0.23210
   8   1   0   27.94    4.36   0 0.82412 0.92969 0.15718-0.69331-0.11078-0.13132
   8   1   2    5.96    2.72   0 0.82642 0.89854 0.15324-0.75404-0.11071 0.15533
  -6  -8  -8    0.62    1.21   0 0.15904-0.66675-0.81943-0.18195-0.27923-0.30291
  -6  -5  -6   77.42    2.90   0 0.13710-0.95919-0.81370 0.43593-0.27622-0.17972
  -6  -5  -5   -0.06    1.13   0 0.15295-0.98933-0.81788 0.40202-0.27841-0.03418
  -6  -5  -4   21.03    1.81   0 0.14698-0.99903-0.81633 0.37392-0.27759 0.10984
  -5  -4  -1   29.36    1.80   0 0.15428-0.91456-0.81822 0.41043-0.27859 0.46558
  -6  -8  -7   -0.14    0.82   0 0.19318-0.71803-0.82756-0.20907-0.28363-0.15699
  -6  -8  -4    0.03    0.70   0 0.16922-0.73656-0.82194-0.31052-0.28056 0.26724
  -6  -7  -3   25.66    1.83   0 0.17322-0.84962-0.82291-0.11334-0.28108 0.36312
  -6  -6  -7    0.38    1.01   0 0.18702-0.90004-0.82616 0.25147-0.28286-0.26176
  -6  -6  -3   26.87    1.87   0 0.17294-0.94456-0.82284 0.11683-0.28105 0.31029
  -6  -8  -6   -0.46    0.89   0 0.21700-0.75088-0.83269-0.23304-0.28662-0.01124
  -6  -8  -5    0.75    0.77   0 0.20197-0.75420-0.82951-0.27084-0.28481 0.13230
  -6  -7  -7    9.75    1.40   0 0.22096-0.83887-0.83349 0.02951-0.28709-0.20606
  -6  -7  -4    0.62    1.06   0 0.21941-0.87923-0.83318-0.06939-0.28691 0.22444
  -6  -6  -6   11.83    1.50   0 0.21484-0.94242-0.83224 0.22554-0.28637-0.11640
  -6  -6  -5   52.96    2.52   0 0.22126-0.96336-0.83356 0.19369-0.28712 0.02819
  -6  -6  -4    2.17    1.07   0 0.20708-0.96436-0.83061 0.15867-0.28544 0.17100
  -5  -4  -2   95.80    2.91   0 0.21671-0.96217-0.83263 0.45808-0.28659 0.32973
  -6  -7  -6   11.84    1.29   0 0.24102-0.87311-0.83737 0.00002-0.28936-0.06023
  -6  -7  -5    6.14    1.08   0 0.23933-0.88591-0.83706-0.03346-0.28917 0.08237
  -5  -9  -7    1.45    1.21   0 0.26500-0.46170-0.84157-0.51957-0.29195-0.11869
  -5  -9  -5    2.20    1.25   0 0.25860-0.48585-0.84049-0.58314-0.29127 0.16880
  -5  -4  -3   35.56    1.89   0 0.25636-0.98726-0.84011 0.49838-0.29103 0.19017
  -5  -9  -6   19.63    1.67   0 0.27633-0.48722-0.84337-0.54955-0.29307 0.02616
  -5  -4  -5    0.09    0.68   0 0.27103-0.97306-0.84253 0.56052-0.29253-0.09704
  -5  -4  -4   29.84    1.60   0 0.27382-0.99053-0.84298 0.53482-0.29281 0.04869
  -5  -6  -2    5.13    1.29   0 0.33163-0.88656-0.85057 0.01559-0.29824 0.44728
  -5  -5  -2  131.22    3.36   0 0.30187-0.95171-0.84703 0.24212-0.29557 0.39139
  -5  -8  -8    7.75    1.03   0 0.33894-0.61532-0.85131-0.24559-0.29882-0.30883
  -5  -8  -4    3.41    1.14   0 0.35283-0.68731-0.85259-0.37610-0.29994 0.26684
  -5  -5  -6  113.10    3.39   0 0.36315-0.95512-0.85342 0.38096-0.30073-0.17839
  -5  -5  -3    1.86    1.13   0 0.34824-0.98355-0.85218 0.28080-0.29958 0.25126
  -5  -8  -7    7.49    1.07   0 0.37498-0.66656-0.85423-0.27579-0.30158-0.16222
  -5  -8  -6    2.00    1.17   0 0.38832-0.69526-0.85500-0.30746-0.30251-0.01592
  -5  -8  -5   40.03    2.28   0 0.38121-0.70080-0.85461-0.34198-0.30202 0.12537
  -5  -7  -8    2.48    0.92   0 0.37094-0.74310-0.85396-0.01192-0.30129-0.35969
  -5  -7  -3    5.66    1.11   0 0.37094-0.81628-0.85396-0.17770-0.30129 0.35818
  -5  -6  -7   16.74    1.73   0 0.39616-0.87761-0.85537 0.18587-0.30302-0.26765
  -5  -6  -3   26.35    1.95   0 0.38578-0.92514-0.85487 0.05254-0.30233 0.30706
  -5  -5  -5   30.57    1.94   0 0.37903-0.98463-0.85448 0.34832-0.30187-0.03374
  -5  -5  -4   35.43    1.91   0 0.37229-0.99415-0.85405 0.31602-0.30139 0.10997
  -4  -9  -7   -1.05    1.34   0 0.39200-0.35869-0.85518-0.60144-0.30275-0.13320
  -4  -4  -1  103.59    2.92   0 0.39505-0.92386-0.85532 0.35172-0.30295 0.46604
  -5  -7  -7   23.33    1.93   0 0.41168-0.79783-0.85592-0.04413-0.30392-0.21365
  -5  -7  -4   -0.39    1.19   0 0.41493-0.84053-0.85601-0.14373-0.30411 0.21258
  -5  -6  -6   -0.10    1.12   0 0.42240-0.91903-0.85616 0.15337-0.30453-0.12105
  -5  -6  -5   17.27    1.66   0 0.42840-0.93987-0.85624 0.12030-0.30486 0.02185
  -5  -6  -4    1.04    1.09   0 0.41816-0.94246-0.85608 0.08757-0.30429 0.16533
  -4  -9  -6    4.53    1.17   0 0.40700-0.38966-0.85578-0.62975-0.30364 0.01094
  -5  -7  -6   39.10    2.15   0 0.43069-0.83147-0.85626-0.07665-0.30501-0.06889
  -5  -7  -5    0.38    0.88   0 0.42965-0.84588-0.85625-0.10952-0.30495 0.07541
  -4  -4  -2  991.45    8.89   0 0.45766-0.97225-0.85609 0.38573-0.30630 0.32578
  -4  -8  -8    1.72    1.04   0 0.48193-0.52792-0.85524-0.33745-0.30719-0.32329
  -3  -9  -7   -0.06    1.21   0 0.48261-0.21805-0.85521-0.69526-0.30721-0.15196
  -4  -8  -7   27.57    1.86   0 0.51761-0.57717-0.85274-0.37349-0.30801-0.17880
  -4  -8  -4    9.07    1.45   0 0.50303-0.60711-0.85394-0.47027-0.30768 0.25159
  -4  -4  -5    1.71    0.94   0 0.50956-0.97873-0.85344 0.48139-0.30783-0.10323
  -4  -4  -4  168.13    3.87   0 0.51212-0.99786-0.85323 0.44904-0.30789 0.04015
  -4  -4  -3  144.90    3.45   0 0.49589-0.99606-0.85444 0.41716-0.30748 0.18390
  -3  -9  -6    3.22    1.09   0 0.49840-0.24698-0.85427-0.72973-0.30755-0.00641
  -4  -8  -6   18.92    1.54   0 0.53118-0.60655-0.85134-0.40717-0.30809-0.03471
  -4  -8  -5   11.35    1.37   0 0.52676-0.61678-0.85180-0.43920-0.30803 0.10854
  -4  -7  -8   23.00    1.97   0 0.53204-0.67254-0.85124-0.11120-0.30810-0.37601
  -4  -7  -3    3.68    1.45   0 0.54252-0.75675-0.85002-0.27762-0.30823 0.34240
  -4  -5  -2  260.47    4.91   0 0.52133-0.94034-0.85234 0.15154-0.30793 0.38052
  -4  -7  -7    1.51    1.35   0 0.56995-0.72601-0.84613-0.14933-0.30829-0.23155
  -4  -7  -4    1.51    1.36   0 0.57636-0.77588-0.84508-0.24919-0.30826 0.19907
  -4  -6  -7    3.52    1.36   0 0.57703-0.82784-0.84496 0.08013-0.30826-0.28568
  -4  -6  -3    0.98    1.24   0 0.57636-0.88540-0.84508-0.05221-0.30826 0.28951
  -4  -5  -6   88.26    3.21   0 0.57093-0.93216-0.84597 0.27805-0.30828-0.19412
  -4  -5  -3    2.50    1.07   0 0.56270-0.96752-0.84726 0.17935-0.30830 0.23654
  -4  -7  -6   17.02    1.65   0 0.58933-0.75935-0.84260-0.18594-0.30801-0.08805
  -4  -7  -5    3.70    1.42   0 0.59160-0.77623-0.84217-0.21888-0.30798 0.05561
  -4  -6  -6   29.84    2.31   0 0.60286-0.86813-0.83993 0.04176-0.30780-0.14168
  -4  -6  -4   17.41    1.87   0 0.60177-0.89678-0.84015-0.02471-0.30782 0.14577
  -4  -5  -5   46.51    2.28   0 0.58652-0.96238-0.84312 0.24228-0.30804-0.05039
  -4  -5  -4   96.04    3.12   0 0.58370-0.97437-0.84364 0.21000-0.30807 0.09313
  -3  -8  -8   19.74    1.54   0 0.58933-0.40314-0.84260-0.44487-0.30801-0.34653
  -4  -6  -5   49.81    2.54   0 0.61109-0.89092-0.83810 0.00696-0.30750 0.00185
  -3  -8  -7    0.87    1.14   0 0.62488-0.45392-0.83490-0.48516-0.30713-0.20341
  -3  -8  -4    0.28    1.26   0 0.62521-0.49648-0.83482-0.58057-0.30712 0.22688
  -3  -8  -6   26.94    1.96   0 0.64088-0.48335-0.83081-0.52349-0.30655-0.05996
  -3  -8  -5    1.27    1.03   0 0.63888-0.49743-0.83134-0.55543-0.30663 0.08348
  -3  -7  -8   23.12    2.01   0 0.65646-0.56651-0.82640-0.23095-0.30586-0.40171
  -2  -8  -8   25.07    1.97   0 0.65900-0.24312-0.82564-0.55759-0.30574-0.37140
  -3  -7  -7   -0.59    1.15   0 0.69387-0.61435-0.81398-0.27981-0.30371-0.26168
  -3  -7  -4   16.07    2.22   0 0.70765-0.67622-0.80868-0.38122-0.30264 0.17048
  -2  -8  -7    5.57    1.33   0 0.69722-0.29407-0.81273-0.60381-0.30346-0.23116
  -1  -8  -8   25.31    2.10   0 0.69178-0.04384-0.81474-0.66566-0.30386-0.39486
  -3  -7  -6    9.78    1.56   0 0.71277-0.65188-0.80662-0.31768-0.30215-0.11751
  -3  -7  -5  151.47    4.51   0 0.71762-0.67092-0.80460-0.35297-0.30173 0.02573
  -3  -6  -7   34.25    2.59   0 0.72169-0.74114-0.80287-0.05794-0.30135-0.31526
  -3  -6  -3    0.81    1.43   0 0.73235-0.81152-0.79813-0.19586-0.30032 0.25859
  -3  -5  -2   30.57    2.00   0 0.71601-0.90422-0.80528 0.00909-0.30187 0.35088
  -3  -4  -5   96.27    3.39   0 0.72226-0.96174-0.80262 0.33594-0.30130-0.13323
  -3  -4  -4    2.92    1.21   0 0.72946-0.98394-0.79944 0.29913-0.30061 0.00958
  -2  -8  -6    9.79    1.38   0 0.71479-0.32780-0.80579-0.64393-0.30198-0.08789
  -2  -8  -5   66.16    2.97   0 0.71722-0.34348-0.80477-0.67856-0.30176 0.05632
  -1  -8  -7    0.92    1.40   0 0.73128-0.09768-0.79862-0.71684-0.30042-0.25862
   0  -8  -7    7.54    1.76   0 0.73241 0.13363-0.79810-0.80946-0.30031-0.28098
  -3  -6  -6   93.52    3.87   0 0.74637-0.78067-0.79152-0.10208-0.29873-0.17408
  -3  -6  -5   17.97    2.20   0 0.75611-0.80490-0.78659-0.14083-0.29759-0.03158
  -3  -6  -4   43.85    2.90   0 0.75164-0.81630-0.78888-0.17092-0.29812 0.11323
  -3  -5  -6   82.07    3.36   0 0.74367-0.87409-0.79284 0.12958-0.29904-0.22658
  -3  -5  -3   18.89    1.81   0 0.74820-0.92127-0.79061 0.02755-0.29852 0.20344
  -2  -7  -8    4.25    1.47   0 0.74650-0.42449-0.79145-0.36072-0.29872-0.43204
  -1  -8  -6    9.47    1.62   0 0.75646-0.13832-0.78640-0.75901-0.29754-0.11565
  -3  -5  -5  156.83    4.50   0 0.76080-0.90445-0.78417 0.08703-0.29697-0.08525
  -3  -5  -4   26.48    2.08   0 0.76193-0.92036-0.78357 0.05275-0.29683 0.05870
  -1  -8  -5    1.19    0.96   0 0.76136-0.15757-0.78387-0.79466-0.29690 0.02666
   0  -8  -6    0.38    1.40   0 0.76118 0.08842-0.78397-0.85717-0.29693-0.14055
   0  -8  -5   12.43    1.90   0 0.77140 0.06588-0.77837-0.89557-0.29558 0.00174
  -2  -7  -7   61.61    3.08   0 0.78067-0.47500-0.77301-0.41329-0.29428-0.29175
  -2  -7  -6   33.41    2.78   0 0.80038-0.50843-0.76068-0.45932-0.29117-0.15169
  -1  -7  -8   37.01    2.59   0 0.79983-0.24813-0.76104-0.48799-0.29126-0.46239
  -2  -7  -5   23.35    2.33   0 0.80767-0.52951-0.75581-0.49730-0.28989-0.00973
  -2  -7  -4  217.08    5.84   0 0.80219-0.53873-0.75952-0.52688-0.29085 0.13563
   0  -7  -8   -0.19    1.14   0 0.81899-0.03393-0.74777-0.60158-0.28779-0.49185
   1  -7  -8    7.60    1.72   0 0.80715 0.20789-0.75616-0.68626-0.28998-0.50891
  -2  -6  -7    2.25    1.47   0 0.82482-0.61337-0.74343-0.21295-0.28664-0.35353
  -1  -7  -7   12.44    2.21   0 0.83537-0.29659-0.73519-0.54672-0.28443-0.32712
  -2  -6  -6  125.84    4.47   0 0.84771-0.65071-0.72486-0.26512-0.28162-0.21431
  -2  -6  -5   43.12    3.11   0 0.85843-0.67638-0.71525-0.30780-0.27897-0.07336
  -2  -6  -4    2.87    2.00   0 0.85852-0.69165-0.71517-0.34022-0.27895 0.06992
  -2  -6  -3   17.33    2.09   0 0.84756-0.69400-0.72500-0.36448-0.28166 0.21640
  -1  -7  -6   17.92    2.41   0 0.85546-0.33141-0.71798-0.59795-0.27972-0.18670
   1  -7  -7    0.57    2.28   0 0.85346 0.14877-0.71979-0.75844-0.28022-0.37942
  -2  -5  -6    3.93    1.80   0 0.86775-0.76599-0.70646-0.05266-0.27633-0.27302
  -2  -5  -2    5.83    1.46   0 0.86248-0.81869-0.71156-0.18120-0.27776 0.30337
  -1  -7  -5    0.85    1.42   0 0.86378-0.35521-0.71031-0.63836-0.27741-0.04596
  -1  -7  -4   41.89    3.05   0 0.86189-0.36723-0.71211-0.67031-0.27792 0.09919
   0  -7  -7    6.98    1.43   0 0.86087-0.09149-0.71308-0.66573-0.27819-0.35457
   2  -7  -5   31.00    2.99   0 0.86949 0.33147-0.70472-0.93081-0.27584-0.11453
  -2  -5  -5    9.44    2.08   0 0.88307-0.79524-0.69061-0.10350-0.27177-0.13350
  -2  -5  -4    2.09    1.55   0 0.88734-0.81517-0.68587-0.14014-0.27041 0.00800
  -2  -5  -3   10.02    1.68   0 0.88144-0.82318-0.69237-0.16711-0.27228 0.15349
  -2  -4  -5  412.95    7.96   0 0.88104-0.88981-0.69281 0.13016-0.27240-0.18584
  -1  -6  -7  127.78    4.90   0 0.88924-0.44757-0.68372-0.36901-0.26979-0.39330
   0  -7  -6   11.98    2.11   0 0.88283-0.12783-0.69086-0.72078-0.27184-0.21700
   1  -7  -6    2.98    1.74   0 0.88520 0.09968-0.68826-0.81699-0.27110-0.24199
   0  -7  -5   -0.60    1.30   0 0.89283-0.15028-0.67957-0.76481-0.26850-0.08183
   0  -7  -4   67.97    3.57   0 0.89309-0.16737-0.67927-0.79897-0.26842 0.06728
   1  -7  -5    4.59    1.39   0 0.89718 0.07447-0.67439-0.86659-0.26700-0.10136
   1  -7  -4   29.98    2.81   0 0.89936 0.05678-0.67172-0.90208-0.26622 0.04182
  -1  -6  -6   18.53    2.32   0 0.91017-0.48223-0.65782-0.42802-0.26214-0.25683
  -1  -6  -5  189.86    6.23   0 0.92071-0.50752-0.64296-0.47611-0.25774-0.11792
  -1  -6  -3    1.86    2.04   0 0.91730-0.53339-0.64792-0.53798-0.25921 0.17028
   3  -6  -6   13.63    2.73   0 0.92147 0.42880-0.64184-0.82681-0.25740-0.35580
  -1  -6  -4   48.34    3.29   0 0.92340-0.52459-0.63902-0.51308-0.25638 0.02442
   0  -6  -7  184.10    5.71   0 0.92427-0.25106-0.63769-0.51072-0.25598-0.43012
   2  -6  -7    4.43    1.80   0 0.92954 0.20568-0.62944-0.70910-0.25350-0.47815
  -1  -5  -6   33.46    3.19   0 0.93998-0.60763-0.61169-0.24391-0.24810-0.32393
   0  -6  -6    7.92    2.29   0 0.94276-0.28345-0.60661-0.57579-0.24655-0.29598
   1  -6  -7   24.50    2.44   0 0.93667-0.03271-0.61755-0.62684-0.24988-0.45943
   3  -6  -5   21.16    3.31   0 0.94271 0.39468-0.60670-0.89521-0.24658-0.22126
  -1  -5  -5    0.26    1.96   0 0.95250-0.62815-0.58733-0.30672-0.24056-0.19209
   0  -6  -5   33.63    3.25   0 0.95310-0.30853-0.58607-0.62876-0.24018-0.15823
   0  -6  -3  339.42    8.59   0 0.95426-0.33828-0.58357-0.69817-0.23941 0.12833
   1  -6  -6    5.93    2.25   0 0.95557-0.06555-0.58070-0.69674-0.23852-0.32674
   2  -6  -6    1.67    1.76   0 0.95168 0.16963-0.58907-0.78404-0.24110-0.34846
   3  -6  -4    2.83    2.01   0 0.95195 0.37092-0.58850-0.94564-0.24093-0.08460
  -1  -5  -4  384.05    8.30   0 0.95769-0.65419-0.57608-0.34602-0.23690-0.04839
  -1  -5  -3    2.51    1.53   0 0.95671-0.66758-0.57828-0.37650-0.23758 0.09537
   0  -6  -4  545.22   10.26   0 0.95671-0.32635-0.57828-0.66994-0.23758-0.01742
   2  -6  -5    1.21    2.05   0 0.96409 0.14243-0.56069-0.84541-0.23210-0.21370
   4  -5  -6   30.28    3.01   0 0.95769 0.52696-0.57608-0.76063-0.23690-0.44988
  -1  -4  -5  538.47   10.09   0 0.96687-0.74493-0.55350-0.10506-0.22965-0.25204
   1  -6  -5   -0.52    1.78   0 0.96566-0.08570-0.55672-0.75463-0.23066-0.19498
   1  -6  -4    0.20    2.31   0 0.96994-0.10865-0.54503-0.79850-0.22699-0.05204
   1  -6  -3   15.01    2.76   0 0.96933-0.12133-0.54674-0.83050-0.22753 0.09378
   2  -6  -4    3.98    2.09   0 0.97009 0.12148-0.54460-0.89272-0.22686-0.07503
   2  -6  -3  109.26    5.05   0 0.96980 0.10838-0.54542-0.92702-0.22711 0.07029
   3  -5  -7   11.64    1.88   0 0.96594 0.30277-0.55597-0.65051-0.23043-0.57768
  -1  -4  -4   60.97    3.55   0 0.97436-0.76677-0.53182-0.16004-0.22268-0.11576
   0  -5  -6  282.36    7.37   0 0.97436-0.41086-0.53182-0.41976-0.22268-0.37276
   1  -5  -7  334.12    7.93   0 0.97448-0.16623-0.53143-0.48303-0.22256-0.53963
   2  -5  -7   16.47    2.42   0 0.97737 0.06196-0.52189-0.58791-0.21953-0.56525
   4  -5  -5   -1.61    3.11   0 0.97759 0.49342-0.52114-0.84405-0.21929-0.32579
   0  -5  -5  131.19    5.38   0 0.98304-0.43419-0.50054-0.48401-0.21271-0.23909
   3  -5  -6    7.58    2.22   0 0.98436 0.27220-0.49493-0.74351-0.21091-0.45349
   4  -5  -4   35.01    3.41   0 0.98536 0.47332-0.49044-0.91143-0.20947-0.19005
   0  -5  -4   36.24    3.10   0 0.98702-0.45215-0.48258-0.53506-0.20677-0.10220
   0  -5  -3   91.59    4.58   0 0.98762-0.46674-0.47949-0.57201-0.20577 0.04067
   1  -5  -6   50.85    3.49   0 0.98702-0.19338-0.48258-0.56537-0.20677-0.41151
   2  -5  -6    0.46    2.07   0 0.98957 0.03579-0.46884-0.67445-0.20233-0.43964
   4  -5  -3   12.18    2.38   0 0.98847 0.45558-0.47500-0.96003-0.20432-0.05111
   5  -4  -5    0.43    3.10   0 0.98976 0.61822-0.46769-0.76572-0.20196-0.41834
   3  -5  -5    5.03    1.83   0 0.99203 0.25018-0.45296-0.82072-0.19721-0.32340
  -4   3  -8   29.41    2.25   0-0.49042-0.60801 0.39885 0.94041-0.81697-0.39487
  -3   4  -6   82.45    3.25   0-0.49214-0.49805 0.41042 0.99540-0.81644-0.18754
  -3   4  -5   74.58    3.02   0-0.48975-0.51468 0.39448 0.97903-0.81714-0.04285
  -2   4  -7   13.55    1.64   0-0.48432-0.25944 0.36105 0.98188-0.81781-0.35260
  -2   4  -2  303.53    5.54   0-0.48524-0.33080 0.36644 0.81185-0.81779 0.36568
  -1   4  -1  448.71    6.51   0-0.48684-0.11190 0.37607 0.67227-0.81766 0.48636
   0   4  -1   80.39    2.81   0-0.48684 0.11895 0.37605 0.57571-0.81766 0.46321
   1   4  -2    0.58    1.04   0-0.48662 0.36355 0.37471 0.51257-0.81769 0.29593
  -4   3  -7   17.24    1.63   0-0.48100-0.63056 0.34219 0.96312-0.81773-0.25349
  -3   3  -9    6.65    1.79   0-0.48104-0.37075 0.34241 0.93067-0.81773-0.56490
  -1   4  -7    0.47    1.26   0-0.47893-0.03515 0.33091 0.92007-0.81750-0.37791
  -4   2 -10   21.46    1.78   0-0.47648-0.49455 0.31774 0.85394-0.81707-0.63555
  -2   4  -6    0.66    1.00   0-0.47721-0.28166 0.32158 0.98855-0.81721-0.20930
  -2   4  -5   52.78    2.49   0-0.47367-0.29903 0.30335 0.97431-0.81644-0.06617
  -2   4  -4   29.08    2.18   0-0.47375-0.31322 0.30379 0.94039-0.81646 0.07778
  -2   4  -3   84.75    2.93   0-0.47773-0.32373 0.32431 0.88660-0.81730 0.22196
  -1   4  -2  257.68    4.72   0-0.47585-0.10859 0.31445 0.76686-0.81694 0.34240
   0   4  -2   72.16    2.56   0-0.47616 0.12287 0.31610 0.66891-0.81701 0.31982
  -3   3  -8   59.78    2.49   0-0.46552-0.40045 0.26399 0.97787-0.81370-0.42489
  -2   3  -9   17.65    1.63   0-0.46763-0.15193 0.27378 0.90480-0.81449-0.59085
  -1   4  -6   -0.03    1.07   0-0.46967-0.06045 0.28352 0.93168-0.81519-0.23881
  -1   4  -5   16.54    1.69   0-0.46500-0.07618 0.26156 0.91980-0.81349-0.09196
  -1   4  -3  203.16    4.32   0-0.46780-0.10259 0.27458 0.83956-0.81455 0.19588
   0   4  -5  484.87    6.73   0-0.46688 0.15719 0.27026 0.81423-0.81422-0.11345
   0   4  -4   57.37    2.53   0-0.46531 0.14068 0.26301 0.78802-0.81362 0.02917
   0   4  -3  126.93    3.45   0-0.46850 0.12956 0.27793 0.73984-0.81480 0.17391
  -5   1 -10    4.91    1.32   0-0.45816-0.65241 0.23077 0.80848-0.81037-0.56186
  -1   4  -4  127.43    3.40   0-0.46427-0.09121 0.25789 0.88954-0.81312 0.05179
  -4   2  -9    6.99    1.25   0-0.45393-0.53436 0.21302 0.92758-0.80831-0.49704
  -3   2 -10   38.63    2.06   0-0.45058-0.29114 0.19920 0.87825-0.80646-0.66679
  -3   3  -7    1.11    1.21   0-0.45354-0.42662 0.21140 0.99796-0.80810-0.28605
  -2   3  -8    2.09    1.24   0-0.44901-0.18683 0.19279 0.95283-0.80556-0.45664
  -4   1 -11    0.77    1.04   0-0.44715-0.41583 0.18527 0.79162-0.80447-0.73451
  -3   3  -6    7.40    1.25   0-0.44586-0.44881 0.18016 0.99615-0.80368-0.14609
  -3   3  -5   18.16    1.81   0-0.44309-0.46601 0.16928 0.97407-0.80196-0.00461
  -3   3  -4   15.00    1.60   0-0.44550-0.47797 0.17874 0.93115-0.80346 0.14008
  -5   1  -9   31.61    1.77   0-0.43360-0.69043 0.13332 0.87384-0.79557-0.43429
  -4   2  -8   -0.33    1.06   0-0.43517-0.56204 0.13914 0.96521-0.79668-0.36685
  -2   3  -7  160.50    3.79   0-0.43455-0.21386 0.13683 0.97607-0.79624-0.32045
  -5   0 -11   16.91    1.52   0-0.42348-0.57625 0.09664 0.74540-0.78797-0.67715
  -4   0 -12    7.66    1.39   0-0.42506-0.32702 0.10215 0.67779-0.78918-0.84161
  -4   2  -7    6.75    1.28   0-0.42405-0.59208 0.09861 0.97759-0.78841-0.22952
  -3   1 -11    4.49    1.02   0-0.42146-0.21043 0.08964 0.79100-0.78641-0.77732
  -3   2  -9    5.24    1.27   0-0.42492-0.33095 0.10164 0.94335-0.78907-0.53982
  -2   3  -6   81.77    2.75   0-0.42474-0.23818 0.10103 0.97892-0.78894-0.18366
  -2   3  -3   33.38    1.72   0-0.42870-0.27755 0.11502 0.86545-0.79190 0.24943
  -1   3  -7   31.80    1.85   0-0.42805 0.01069 0.11272 0.90381-0.79143-0.34842
  -1   3  -2   60.68    2.11   0-0.43061-0.05875 0.12191 0.72939-0.79331 0.37195
  -4   1 -10   42.38    1.98   0-0.41374-0.46492 0.06332 0.88098-0.78019-0.61656
  -4   2  -6    3.74    1.26   0-0.41676-0.61431 0.07345 0.96884-0.78265-0.09228
  -2   3  -5    1.28    1.00   0-0.41986-0.25791 0.08395 0.96262-0.78512-0.04489
  -2   3  -4   24.62    1.55   0-0.42137-0.27089 0.08914 0.92514-0.78631 0.10083
  -1   3  -6   42.18    2.27   0-0.41615-0.01573 0.07139 0.91253-0.78216-0.21331
  -1   3  -3   91.70    2.60   0-0.41630-0.05870 0.07189 0.81265-0.78228 0.21776
   0   3  -4   70.72    2.34   0-0.41461 0.18514 0.06624 0.75487-0.78091 0.05030
  -3   2  -8    1.97    1.40   0-0.40390-0.36715 0.03120 0.98127-0.77185-0.41307
  -2   2  -9   22.19    1.50   0-0.40863-0.11574 0.04642 0.90235-0.77589-0.57533
  -1   3  -5   33.14    1.74   0-0.40951-0.03680 0.04930 0.90129-0.77664-0.07509
  -1   3  -4  200.80    3.65   0-0.40916-0.05161 0.04815 0.86907-0.77634 0.06802
  -5  -1 -12    1.09    0.91   0-0.39809-0.49128 0.01289 0.63321-0.76674-0.78707
  -5   0 -10    0.40    0.71   0-0.38706-0.62667-0.02095 0.83136-0.75662-0.56349
  -4   0 -11   11.04    1.27   0-0.37717-0.39092-0.05004 0.79536-0.74721-0.74069
  -4   1  -9   15.22    1.29   0-0.38580-0.50734-0.02471 0.93641-0.75544-0.49701
  -3   1 -10    0.32    1.08   0-0.38271-0.26342-0.03389 0.88007-0.75252-0.66439
  -3   2  -7    0.02    0.95   0-0.38755-0.39763-0.01950 0.99806-0.75707-0.28990
  -2   2  -8  249.48    4.40   0-0.38381-0.15521-0.03064 0.94624-0.75356-0.45397
  -3   2  -6   43.02    1.88   0-0.37694-0.42272-0.05071 0.99666-0.74700-0.15013
  -3   2  -5   52.16    2.15   0-0.37280-0.44080-0.06257 0.97553-0.74298-0.01050
  -3   2  -4   13.41    1.17   0-0.37614-0.45218-0.05302 0.93289-0.74623 0.13595
  -5   0  -9    9.33    1.23   0-0.35772-0.67029-0.10456 0.88108-0.72782-0.44863
  -4  -1 -12    0.44    0.94   0-0.35449-0.30488-0.11331 0.66467-0.72449-0.85476
  -4   1  -8  242.43    4.09   0-0.36285-0.54411-0.09051 0.96795-0.73304-0.37609
  -2   2  -7    2.16    1.05   0-0.36389-0.19146-0.08763 0.97061-0.73409-0.32993
  -1   2  -7    4.20    1.21   0-0.35712 0.03398-0.10620 0.89310-0.72720-0.35990
  -6  -2 -11    0.43    0.97   0-0.34351-0.69813-0.14257 0.62338-0.71292-0.62411
  -5  -1 -11    7.83    0.95   0-0.34824-0.55601-0.13017 0.74265-0.71791-0.69361
  -4   1  -7   71.33    2.49   0-0.34618-0.57493-0.13559 0.98068-0.71574-0.24942
  -3   0 -11   17.59    1.36   0-0.34932-0.18758-0.12730 0.77719-0.71904-0.79098
  -3   1  -9    9.12    1.19   0-0.35126-0.31007-0.12214 0.93751-0.72107-0.55398
  -2   2  -6 1148.05    8.47   0-0.34997-0.21795-0.12558 0.97581-0.71972-0.19997
  -2   2  -5  257.22    4.02   0-0.34227-0.24030-0.14581 0.96295-0.71159-0.06494
  -2   2  -4  161.66    3.17   0-0.34297-0.25391-0.14398 0.92855-0.71235 0.07981
  -2   2  -3  108.25    2.59   0-0.35255-0.25844-0.11869 0.86922-0.72242 0.23296
  -5   0  -8   -0.63    0.85   0-0.33526-0.70494-0.16393 0.90801-0.70401-0.33495
  -4   0 -10    4.89    0.97   0-0.33738-0.44514-0.15851 0.87224-0.70630-0.63735
  -4   1  -6  217.36    3.88   0-0.33581-0.59965-0.16250 0.97471-0.70461-0.11693
  -2   1  -9    6.04    1.25   0-0.33263-0.09631-0.17061 0.88912-0.70116-0.59651
  -1   2  -6    6.64    0.97   0-0.33949 0.00266-0.15308 0.90644-0.70857-0.23479
  -1   2  -5  122.72    2.79   0-0.32911-0.02196-0.17948 0.90042-0.69732-0.10177
  -5  -2 -12   11.78    1.21   0-0.32511-0.46958-0.18954 0.60434-0.69287-0.80881
  -3   1  -8    0.41    0.75   0-0.32396-0.35172-0.19237 0.97493-0.69161-0.44048
  -6  -2 -10    1.74    0.88   0-0.29954-0.75520-0.25105 0.69770-0.66393-0.52719
  -5  -1 -10    3.88    1.09   0-0.30639-0.61226-0.23496 0.81436-0.67181-0.59390
  -4  -1 -11    0.93    0.96   0-0.29949-0.37331-0.25116 0.76806-0.66388-0.76922
  -4   0  -9   30.43    1.84   0-0.30308-0.49374-0.24276 0.92392-0.66802-0.53128
  -3   0 -10    0.42    1.10   0-0.30416-0.24741-0.24022 0.85830-0.66926-0.69669
  -3   1  -7   78.04    2.49   0-0.30182-0.38833-0.24571 0.99544-0.66657-0.32146
  -2   1  -8   96.25    2.76   0-0.30023-0.14364-0.24944 0.93549-0.66473-0.48974
  -3   1  -6   14.85    1.46   0-0.28554-0.41885-0.28312 0.99941-0.64757-0.19666
  -5  -2 -11    0.18    0.85   0-0.27106-0.53893-0.31539 0.69984-0.63020-0.72939
  -5  -1  -9   16.34    1.44   0-0.27250-0.66114-0.31224 0.86015-0.63194-0.49248
  -4  -2 -12    1.84    0.70   0-0.28033-0.28385-0.29495 0.61489-0.64131-0.88288
  -4   0  -8    0.11    1.21   0-0.27386-0.53626-0.30925 0.95501-0.63358-0.42788
  -3  -1 -11    0.17    0.98   0-0.27187-0.17269-0.31361 0.73510-0.63118-0.82880
  -3   1  -5  296.15    4.26   0-0.27658-0.44175-0.30326 0.98594-0.63684-0.06405
  -2   1  -7  329.07    4.62   0-0.27302-0.18539-0.31109 0.96510-0.63257-0.37808
  -6  -4 -12    3.84    1.08   0-0.26133-0.57539-0.33661 0.38706-0.61825-0.75260
  -6  -3 -11   12.39    1.15   0-0.26703-0.67822-0.32437 0.57206-0.62518-0.65650
  -5  -3 -12    0.88    0.94   0-0.25429-0.44487-0.35153 0.53878-0.60961-0.83781
  -3   0  -9  106.15    2.79   0-0.26386-0.30160-0.33120 0.91590-0.62133-0.60126
  -5  -1  -8   37.89    1.94   0-0.24318-0.70409-0.37496 0.88895-0.59560-0.38449
  -4  -1 -10   26.55    1.58   0-0.25327-0.43417-0.35404 0.83819-0.60812-0.68250
  -4   0  -7  584.91    6.15   0-0.25094-0.57491-0.35890 0.97366-0.60525-0.30710
  -2   0  -9  211.11    4.02   0-0.24315-0.09087-0.37501 0.86396-0.59556-0.64936
  -2   1  -6    4.89    0.85   0-0.25094-0.22133-0.35890 0.97901-0.60525-0.26199
  -5  -2 -10   13.84    1.41   0-0.22280-0.60096-0.41598 0.76549-0.56979-0.64430
  -4   0  -6  228.47    3.84   0-0.23412-0.60600-0.39346 0.97525-0.58416-0.18446
  -3   0  -8   16.93    1.51   0-0.22811-0.35161-0.40548 0.95683-0.57655-0.50257
  -2   1  -5   10.56    1.00   0-0.23609-0.25109-0.38947 0.97673-0.58665-0.13656
  -1   1  -6   86.36    2.35   0-0.23688-0.00465-0.38788 0.91160-0.58764-0.30183
  -6  -5 -12    3.26    1.14   0-0.21066-0.53007-0.43970 0.26246-0.55412-0.76539
  -6  -3 -10   59.99    2.17   0-0.21969-0.74032-0.42223 0.63748-0.56574-0.57223
  -4  -3 -12   10.66    1.22   0-0.21068-0.25770-0.43966 0.52934-0.55415-0.91738
  -4  -2 -11   31.70    1.64   0-0.21969-0.35745-0.42223 0.70762-0.56574-0.81535
  -4  -1  -9  133.37    3.14   0-0.21127-0.49031-0.43854 0.88919-0.55490-0.59163
  -3  -1 -10    3.21    0.93   0-0.21714-0.24008-0.42720 0.81587-0.56247-0.75003
  -6  -4 -11   17.03    1.33   0-0.19851-0.65206-0.46283 0.48167-0.53821-0.69000
  -5  -4 -12   43.62    1.94   0-0.19220-0.41239-0.47456 0.43018-0.52993-0.86571
  -5  -3 -11    2.14    1.02   0-0.19414-0.51983-0.47097 0.62394-0.53248-0.77251
  -3   0  -7   11.97    1.37   0-0.19753-0.39742-0.46465 0.98395-0.53694-0.39785
  -2   0  -8    0.31    0.79   0-0.20038-0.14874-0.45931 0.91535-0.54067-0.56124
  -5  -2  -9    0.17    1.07   0-0.17820-0.65508-0.50009 0.81277-0.51136-0.55510
  -4  -1  -8   72.29    2.45   0-0.17435-0.54188-0.50698 0.92484-0.50621-0.49690
  -4  -2 -10   96.80    2.87   0-0.16596-0.42643-0.52195 0.77622-0.49485-0.74269
  -3  -1  -9   69.69    2.34   0-0.16765-0.30260-0.51899 0.87384-0.49711-0.67240
  -3   0  -6   49.45    1.84   0-0.17185-0.43691-0.51157 0.99736-0.50276-0.28866
  -2   0  -7   20.83    1.38   0-0.16154-0.20148-0.52967 0.95306-0.48887-0.46865
  -6  -5 -11    0.92    0.94   0-0.14164-0.61291-0.56380 0.35224-0.46150-0.71481
  -6  -4 -10    0.94    0.92   0-0.14544-0.71821-0.55743 0.54283-0.46672-0.61852
  -5  -5 -12    6.09    1.22   0-0.14230-0.36622-0.56270 0.28789-0.46240-0.88043
  -5  -3 -10   17.99    1.53   0-0.14091-0.58749-0.56503 0.68560-0.46048-0.70126
  -5  -2  -8   26.20    1.73   0-0.14494-0.70717-0.55828 0.84152-0.46603-0.46108
  -4  -4 -12   26.81    1.67   0-0.14950-0.22315-0.55057 0.40944-0.47228-0.94616
  -4  -3 -11    1.39    1.00   0-0.14417-0.33940-0.55957 0.61715-0.46497-0.86442
  -4  -1  -7   20.01    1.57   0-0.14229-0.58830-0.56273 0.94752-0.46238-0.39725
  -3   0  -5    0.65    0.61   0-0.15339-0.46967-0.54396 0.99698-0.47759-0.17107
  -5  -4 -11    5.34    1.11   0-0.12567-0.49347-0.59001 0.51325-0.43945-0.81279
  -3  -2 -10   10.74    1.37   0-0.12756-0.23389-0.58695 0.74479-0.44208-0.81761
  -2   0  -6  176.40    3.32   0-0.12702-0.25079-0.58782 0.97832-0.44134-0.37284
  -5  -6 -12    3.58    1.07   0-0.11147-0.29994-0.61281 0.10616-0.41942-0.87007
  -4  -2  -9    1.24    0.97   0-0.11620-0.49059-0.60534 0.82602-0.42608-0.66774
  -4  -1  -6   21.19    1.34   0-0.11562-0.62942-0.60626 0.95794-0.42526-0.29101
  -3  -1  -8   84.16    2.49   0-0.12169-0.36301-0.59659 0.91766-0.43376-0.59199
  -6  -6 -11    0.42    0.98   0-0.10232-0.55706-0.62714 0.18549-0.40642-0.71729
  -6  -4  -9    2.67    0.95   0-0.09985-0.77889-0.63095 0.58310-0.40290-0.53837
  -5  -3  -9  105.89    3.04   0-0.09260-0.65045-0.64199 0.72895-0.39258-0.62513
  -4  -5 -12   14.72    1.24   0-0.10305-0.17453-0.62602 0.25514-0.40745-0.95790
  -2  -1  -8   -0.14    0.99   0-0.09087-0.16560-0.64461 0.87024-0.39010-0.66683
  -6  -5 -10    2.01    0.80   0-0.08374-0.68490-0.65522 0.40924-0.37995-0.65283
  -5  -5 -11    5.22    1.10   0-0.07034-0.45450-0.67485 0.36738-0.36059-0.83865
  -4  -4 -11   14.78    1.41   0-0.07549-0.31154-0.66737 0.49363-0.36805-0.90673
  -4  -3 -10    1.47    0.95   0-0.08184-0.41519-0.65805 0.68127-0.37721-0.80676
  -4  -2  -8   11.08    1.39   0-0.07046-0.55027-0.67467 0.86260-0.36077-0.58961
  -3  -1  -7    3.41    1.06   0-0.07974-0.41986-0.66114 0.95033-0.37419-0.50680
  -5  -4 -10   12.07    1.23   0-0.06654-0.56662-0.68030 0.56993-0.35507-0.75364
  -3  -2  -9  360.11    5.14   0-0.06919-0.30605-0.67650 0.80145-0.35893-0.75763
  -6  -6 -10   11.41    1.36   0-0.03947-0.63489-0.71803 0.24369-0.31529-0.66421
  -6  -5  -9    0.25    1.04   0-0.03723-0.75038-0.72104 0.44462-0.31198-0.58154
  -5  -3  -8    1.33    0.85   0-0.04885-0.70776-0.70523 0.75853-0.32915-0.54537
  -3  -3 -10    0.92    1.03   0-0.04164-0.22332-0.71509 0.64079-0.31851-0.88487
  -3  -1  -6   10.25    1.10   0-0.04146-0.47279-0.71534 0.97133-0.31823-0.42048
  -2  -1  -7  192.98    3.65   0-0.03627-0.23177-0.72234 0.91562-0.31054-0.59425
  -6  -7 -10   68.69    2.73   0-0.01833-0.56126-0.74592 0.04244-0.28383-0.64270
  -5  -7 -11   21.33    1.68   0-0.02036-0.31260-0.74329-0.02389-0.28689-0.80657
  -5  -6 -11    0.84    0.72   0-0.03252-0.39536-0.72733 0.18933-0.30507-0.84105
  -4  -5 -11    8.95    1.35   0-0.02297-0.26884-0.73991 0.33605-0.29080-0.93096
  -4  -3  -9    7.55    1.35   0-0.02489-0.48617-0.73740 0.72746-0.29368-0.74636
  -4  -2  -7  263.09    4.26   0-0.02837-0.60703-0.73283 0.88739-0.29888-0.50765
  -5  -5 -10   23.60    1.70   0-0.00629-0.53140-0.76117 0.42021-0.26572-0.78972
  -5  -4  -9    0.42    0.89   0-0.01262-0.63432-0.75318 0.60919-0.27529-0.68956
  -5  -3  -7   17.15    1.40   0-0.01010-0.76165-0.75638 0.77696-0.27148-0.45903
  -4  -4 -10    6.45    1.30   0-0.00900-0.39316-0.75775 0.55075-0.26983-0.86162
  -3  -2  -8    0.76    0.86   0-0.01321-0.37633-0.75242 0.84364-0.27619-0.69669
   5  -1  -2   13.39    3.76   0 0.76899 0.51139 0.24462-0.88827-0.11006-0.23942
   5  -1   2  124.83    6.54   0 0.78728 0.43544 0.21685-0.99260-0.10977 0.33495
   9   3   1    4.60    3.44   0 0.78223 0.99960 0.22464-0.43314-0.10986-0.11159
   9   3   2    1.47    4.13   0 0.77613 0.99094 0.23393-0.47322-0.10996 0.03186
   5  -1  -1    8.69    3.62   0 0.75316 0.51220 0.26765-0.94543-0.11017-0.09403
   5  -1   0   44.82    4.70   0 0.75062 0.49963 0.27128-0.98128-0.11019 0.04828
   5  -1   1   94.35    5.79   0 0.76223 0.47483 0.25450-0.99744-0.11008 0.19143
   6   0  -2    6.80    3.53   0 0.72821 0.68712 0.30208-0.81122-0.10998-0.31408
   8   2  -1   12.01    2.66   0 0.74004 0.93252 0.28577-0.56352-0.10994-0.32416
   8   2   3   10.73    3.41   0 0.72307 0.89255 0.30905-0.71815-0.10999 0.25253
   4  -1  -2   81.64    5.51   0 0.69498 0.35214 0.34570-0.89380-0.10981-0.21600
   4  -1   1  203.56    7.89   0 0.69498 0.31055 0.34570-0.99295-0.10981 0.21459
   6   0  -1   -2.69    3.47   0 0.70317 0.70197 0.33516-0.87539-0.10985-0.17195
   6   0   1  164.24    7.59   0 0.69881 0.67358 0.34080-0.95117-0.10983 0.11558
   6   0   2    7.13    2.92   0 0.71802 0.64062 0.31563-0.95843-0.10988 0.25924
   7   1  -1    6.60    3.50   0 0.69702 0.84008 0.34310-0.75342-0.10982-0.24610
   7   1   3   27.84    3.82   0 0.71458 0.76564 0.32022-0.86200-0.10987 0.32697
   8   2   0    2.73    2.22   0 0.71029 0.94911 0.32587-0.63415-0.10987-0.17908
   8   2   1    1.43    2.83   0 0.69777 0.94698 0.34214-0.68348-0.10982-0.03556
   8   2   2   44.17    4.79   0 0.70161 0.92855 0.33719-0.71142-0.10984 0.10730
   4  -1  -1  104.09    5.93   0 0.67748 0.35588 0.36744-0.94829-0.10949-0.07259
   4  -1   0   32.59    4.00   0 0.67757 0.34258 0.36734-0.98123-0.10949 0.07005
   6   0   0    1.92    2.14   0 0.69351 0.69406 0.34732-0.92353-0.10961-0.02783
   7   1   0   20.12    3.91   0 0.67744 0.84477 0.36749-0.81002-0.10949-0.10304
   7   1   1   14.64    3.71   0 0.67467 0.83331 0.37090-0.84747-0.10947 0.03874
   7   1   2   11.32    3.04   0 0.68636 0.80772 0.35637-0.86477-0.10956 0.18378
   9   4   1    0.14    3.07   0 0.69058 0.99494 0.35105-0.32974-0.10959-0.16439
   9   4   2   -0.17    4.72   0 0.67620 0.99511 0.36902-0.38034-0.10948-0.02242
   9   4   3    1.62    4.25   0 0.67705 0.97353 0.36797-0.40993-0.10949 0.12217
   5   0  -2   15.81    3.33   0 0.61560 0.56793 0.43995-0.85507-0.10845-0.29367
   8   3  -1    1.29    1.89   0 0.63412 0.94311 0.41903-0.46493-0.10879-0.37608
   5   0  -1    1.57    2.84   0 0.58781 0.58249 0.47015-0.91780-0.10778-0.15030
   5   0   2   99.43    5.58   0 0.61223 0.51445 0.44365-0.99014-0.10832 0.28096
   8   3   0    3.93    2.87   0 0.59432 0.96921 0.46318-0.54224-0.10793-0.23356
   8   3   3   12.39    3.60   0 0.58686 0.93349 0.47115-0.64889-0.10776 0.19702
   9   5   2    7.12    4.18   0 0.59409 0.98070 0.46343-0.24495-0.10793-0.07525
   9   5   3   -0.77    4.03   0 0.59451 0.96722 0.46297-0.27722-0.10794 0.06629
   5   0   0   53.05    4.26   0 0.57785 0.57681 0.48062-0.96115-0.10751-0.00713
   5   0   1   -0.57    2.39   0 0.58636 0.56254 0.47164-0.98388-0.10771 0.13337
   7   2  -1    0.59    3.08   0 0.56241 0.87860 0.49661-0.67630-0.10710-0.30196
   8   3   1    5.05    3.07   0 0.57143 0.97548 0.48731-0.59816-0.10734-0.09034
   8   3   2    1.18    2.95   0 0.57064 0.96388 0.48813-0.63265-0.10732 0.05292
   6   1  -1   42.58    4.09   0 0.54849 0.75666 0.51066-0.82456-0.10667-0.22768
   6   1   0   26.69    3.87   0 0.52988 0.76070 0.52904-0.87728-0.10611-0.08393
   6   1   2   99.11    6.03   0 0.54416 0.71852 0.51499-0.92779-0.10655 0.20313
   7   2   0    0.10    3.02   0 0.53427 0.89297 0.52476-0.73759-0.10625-0.15954
   7   2   2    9.20    3.31   0 0.53117 0.86899 0.52778-0.80669-0.10615 0.12625
   7   2   3   61.10    4.99   0 0.55504 0.82932 0.50407-0.81544-0.10686 0.27156
   4   0   2  307.52    9.00   0 0.51058 0.38513 0.54754-0.99708-0.10544 0.30093
   6   1   1   15.42    2.91   0 0.52834 0.74930 0.53051-0.91083-0.10602 0.05923
   7   2   1   21.60    3.55   0 0.52340 0.88969 0.53530-0.78070-0.10587-0.01691
   4   0  -1    3.68    2.16   0 0.47259 0.46637 0.58256-0.93494-0.10408-0.13120
   4   0   1  227.96    7.41   0 0.47558 0.43441 0.57987-0.99725-0.10419 0.15647
   8   4   0    1.03    2.06   0 0.48857 0.97849 0.56809-0.41692-0.10467-0.28926
   8   4   4    1.58    2.78   0 0.48755 0.92296 0.56902-0.54939-0.10463 0.28462
   4   0   0  102.39    4.97   0 0.46271 0.46124 0.59134-0.97609-0.10368 0.01235
   8   4   1    3.99    2.30   0 0.45755 0.99487 0.59588-0.47734-0.10348-0.14693
   8   4   2   11.35    3.14   0 0.44750 0.99118 0.60462-0.51889-0.10307-0.00523
   8   4   3    4.12    2.18   0 0.45755 0.96721 0.59588-0.54393-0.10348 0.14084
   7   3  -1   -0.64    2.08   0 0.43150 0.91611 0.61828-0.56534-0.10241-0.35889
   8   5   0    6.44    2.57   0 0.40731 0.96405 0.63835-0.25753-0.10135-0.34565
   5   1  -1   37.36    3.24   0 0.39360 0.68020 0.64942-0.86792-0.10073-0.20983
   5   1   2    0.59    1.88   0 0.39547 0.63641 0.64792-0.96409-0.10081 0.22050
   6   2  -1    7.54    2.93   0 0.38278 0.82712 0.65801-0.74168-0.10022-0.28711
   6   2   3   14.44    3.09   0 0.38280 0.77028 0.65799-0.87291-0.10022 0.28764
   7   3   0    7.84    2.98   0 0.39105 0.93905 0.65146-0.63394-0.10061-0.21813
   7   3   3    6.13    3.03   0 0.38869 0.89777 0.65333-0.73318-0.10050 0.21204
   5   1   0    6.30    2.12   0 0.37294 0.68673 0.66573-0.91662-0.09978-0.06733
   5   1   1  304.95    8.24   0 0.37294 0.67248 0.66573-0.94872-0.09978 0.07611
   6   2   0    9.41    2.98   0 0.35223 0.84309 0.68157-0.79752-0.09876-0.14461
   6   2   1   50.92    4.35   0 0.34321 0.83820 0.68832-0.83869-0.09830-0.00122
   6   2   2   42.03    4.01   0 0.35206 0.81498 0.68169-0.86343-0.09875 0.14240
   7   3   1    4.23    2.41   0 0.37294 0.94487 0.66573-0.68151-0.09978-0.07523
   7   3   2    5.37    2.50   0 0.37186 0.93064 0.66657-0.71555-0.09972 0.06921
   8   5   1   26.76    3.07   0 0.36538 0.99171 0.67157-0.32200-0.09941-0.20552
   8   5   2    9.33    2.64   0 0.34662 0.99735 0.68578-0.36993-0.09847-0.06238
   8   5   3    5.49    2.57   0 0.34800 0.98138 0.68474-0.40206-0.09854 0.08309
   8   5   4    1.37    1.81   0 0.37051 0.94402 0.66761-0.41771-0.09966 0.22684
   8   6   0    2.27    2.45   0 0.36456 0.91151 0.67219-0.06090-0.09937-0.40007
   7   4  -1   26.87    3.61   0 0.31677 0.93305 0.70762-0.42792-0.09690-0.41850
   8   6   1    9.48    2.73   0 0.30731 0.95444 0.71434-0.13649-0.09639-0.26043
   8   6   2   56.24    4.43   0 0.27659 0.97065 0.73551-0.18932-0.09466-0.11932
   8   6   4   -0.56    2.24   0 0.28497 0.93477 0.72982-0.24847-0.09513 0.16558
   8   7   1    2.06    2.64   0 0.30035 0.86554 0.71919 0.08932-0.09599-0.31258
   7   4   0   13.85    2.79   0 0.26604 0.96982 0.74256-0.49528-0.09405-0.27664
   7   4   4    1.74    2.07   0 0.27192 0.90700 0.73863-0.62271-0.09439 0.29709
   8   6   3    8.48    2.18   0 0.26941 0.96397 0.74032-0.22813-0.09425 0.02515
   8   7   2    9.97    4.13   0 0.25250 0.89795 0.75147 0.02450-0.09326-0.17156
   8   7   4   -1.15    2.54   0 0.24747 0.87912 0.75473-0.04405-0.09296 0.11161
   6   3  -1   19.00    3.06   0 0.22426 0.88970 0.76944-0.62314-0.09154-0.34901
   7   4   1   21.58    3.05   0 0.23702 0.98439 0.76141-0.54747-0.09231-0.13661
   7   4   2   79.47    4.69   0 0.22826 0.97935 0.76695-0.58558-0.09178 0.00713
   7   4   3    4.36    2.30   0 0.23900 0.95387 0.76015-0.61124-0.09243 0.15158
   8   7   3   16.29    3.26   0 0.23618 0.90153 0.76194-0.01923-0.09226-0.02925
   5   2  -1   73.42    4.29   0 0.18863 0.78977 0.79108-0.77911-0.08932-0.27410
   6   3   0   52.64    3.87   0 0.18348 0.91668 0.79410-0.68094-0.08899-0.20727
   6   3   3    1.54    2.32   0 0.18722 0.87044 0.79191-0.77711-0.08923 0.22398
   5   2   0   70.64    4.01   0 0.15615 0.80813 0.80975-0.83069-0.08720-0.13288
   5   2   1  161.35    5.63   0 0.14602 0.80405 0.81538-0.86881-0.08652 0.01010
   5   2   2   43.08    3.09   0 0.15977 0.77650 0.80772-0.89423-0.08744 0.15448
   6   3   1    5.21    2.02   0 0.16322 0.92252 0.80577-0.72501-0.08767-0.06434
   6   3   2   38.34    3.24   0 0.16494 0.90711 0.80480-0.75744-0.08779 0.07880
   7   5   0   22.56    2.67   0 0.16981 0.97010 0.80202-0.32435-0.08811-0.33734
   7   5   4    7.02    2.63   0 0.13957 0.94337 0.81892-0.47348-0.08608 0.23630
   7   5   1    0.04    1.81   0 0.13100 0.99509 0.82355-0.37463-0.08549-0.19627
   7   5   2    1.16    2.23   0 0.11304 0.99889 0.83305-0.42145-0.08425-0.05294
   7   5   3    5.61    2.58   0 0.11486 0.98194 0.83210-0.45309-0.08438 0.09063
   7   6   0   -0.12    2.17   0 0.11417 0.93037 0.83246-0.12281-0.08433-0.39151
   6   4  -1    7.25    1.97   0 0.09142 0.92732 0.84411-0.46660-0.08272-0.41067
   7   8   1    3.05    2.30   0 0.09460 0.74461 0.84251 0.29217-0.08295-0.35584
   6   4   0   22.78    2.84   0 0.04057 0.96433 0.86844-0.52562-0.07897-0.26987
   7   6   1    0.84    1.66   0 0.06329 0.96656 0.85785-0.18318-0.08067-0.25259
   7   6   2    3.55    2.26   0 0.03899 0.97919 0.86916-0.22734-0.07885-0.11135
   7   6   4    7.48    2.44   0 0.04580 0.94118 0.86604-0.29063-0.07937 0.17694
   7   7   1    8.74    2.08   0 0.04531 0.88906 0.86627 0.03874-0.07933-0.30747
   7   8   2    4.14    3.27   0 0.03797 0.78717 0.86962 0.23222-0.07877-0.21661
   5   3  -1   91.03    4.21   0 0.00162 0.88114 0.88555-0.64320-0.07599-0.34040
   6   4   1  200.94    6.42   0 0.01006 0.97967 0.88196-0.57058-0.07665-0.12848
   6   4   2   73.52    4.16   0 0.00273 0.97370 0.88507-0.60736-0.07608 0.01418
   6   4   3   16.15    2.63   0 0.01566 0.94658 0.87954-0.63440-0.07709 0.15920
   7   6   3   26.53    2.91   0 0.03132 0.97106 0.87264-0.26348-0.07829 0.03115
   7   7   2    1.50    1.90   0 0.00723 0.91326 0.88317-0.01142-0.07643-0.16627
   7   7   4    0.01    1.80   0 0.00511 0.89059 0.88407-0.07449-0.07626 0.11707
   7   8   3    1.34    2.21   0 0.01117 0.79973 0.88148 0.18766-0.07674-0.07521
   7   8   4    0.16    2.05   0 0.00840 0.78719 0.88267 0.15289-0.07652 0.06800
   5   3   3   37.73    2.86   0-0.03442 0.86067 0.90010-0.78930-0.07309 0.23093
   7   7   3   18.62    2.43   0-0.00767 0.91425 0.88937-0.05086-0.07523-0.02524
   5   3   0   28.92    2.48   0-0.04197 0.91065 0.90303-0.69396-0.07248-0.20038
   5   3   1   13.11    2.08   0-0.06250 0.91739 0.91070-0.73448-0.07078-0.05819
   5   3   2  184.62    5.52   0-0.06094 0.90142 0.91013-0.76584-0.07091 0.08514
   6   5   0   26.09    2.84   0-0.06282 0.97177 0.91081-0.33773-0.07075-0.33122
   6   5   1  101.91    4.61   0-0.10104 0.99572 0.92408-0.38364-0.06752-0.19065
   6   5   4   19.64    2.79   0-0.08960 0.94183 0.92025-0.47837-0.06850 0.24087
   6   9   3    3.22    2.54   0-0.10421 0.58855 0.92512 0.47081-0.06724-0.11464
   6   5   2  328.47    7.47   0-0.11850 0.99869 0.92967-0.42165-0.06598-0.04889
   6   5   3    1.94    1.69   0-0.11504 0.98102 0.92858-0.45351-0.06628 0.09540
   6   6   0    2.48    1.52   0-0.11821 0.93190 0.92958-0.12584-0.06600-0.38810
   6   7   0    9.30    2.18   0-0.12235 0.83981 0.93087 0.10153-0.06564-0.44177
   6   8   1   16.82    2.26   0-0.13437 0.74275 0.93454 0.29536-0.06458-0.35282
   6   9   4    5.58    2.10   0-0.11504 0.58696 0.92858 0.43224-0.06628 0.02516
   6   6   1   11.44    2.38   0-0.16516 0.96511 0.94332-0.17532-0.06179-0.24895
   5   4   0   15.78    2.26   0-0.19654 0.96867 0.95135-0.51134-0.05885-0.26714
   6   6   2    0.73    1.89   0-0.19054 0.97560 0.94989-0.21205-0.05941-0.10782
   6   6   3   23.41    2.96   0-0.19668 0.96664 0.95139-0.24678-0.05883 0.03511
   6   6   4    1.21    1.63   0-0.18032 0.93676 0.94730-0.27536-0.06036 0.18008
   6   7   1    6.94    1.77   0-0.17917 0.88347 0.94701 0.05238-0.06047-0.30320
   6   8   2    6.09    1.54   0-0.18146 0.77544 0.94760 0.25005-0.06025-0.21350
   6   8   3   -0.41    1.57   0-0.20419 0.78384 0.95318 0.21143-0.05813-0.07123
   6   8   4    1.26    1.53   0-0.19951 0.76744 0.95207 0.18138-0.05857 0.07297
   6   8   5    2.16    1.35   0-0.17974 0.73107 0.94716 0.15191-0.06041 0.21816
   5   4   1   30.04    2.54   0-0.22571 0.98447 0.95798-0.55169-0.05609-0.12601
   5   4   2   94.13    3.97   0-0.23348 0.97861 0.95962-0.58625-0.05533 0.01659
   5   4   3   34.06    2.55   0-0.21993 0.95064 0.95673-0.61588-0.05664 0.16149
   6   7   2   11.01    1.87   0-0.21312 0.90283 0.95521 0.01260-0.05729-0.16338
   6   7   3   21.16    2.73   0-0.22600 0.90237 0.95805-0.02458-0.05606-0.02079
   6   7   4    0.84    1.35   0-0.21936 0.88020 0.95660-0.05487-0.05669 0.12357
   5   9   2    5.71    2.09   0-0.25102 0.51928 0.96310 0.55973-0.05362-0.25014
   5   9   5    2.66    2.03   0-0.27230 0.49882 0.96692 0.45529-0.05151 0.17953
   4   3   0  346.81    6.85   0-0.29084 0.92843 0.96988-0.66481-0.04963-0.19976
   5   5   0    0.18    1.71   0-0.29289 0.97113 0.97018-0.30050-0.04943-0.32935
   5   9   3    6.42    2.32   0-0.28465 0.53975 0.96893 0.51985-0.05026-0.10883
   5   9   4    1.40    2.33   0-0.29121 0.53008 0.96993 0.48819-0.04960 0.03372
   4   9   1   -0.76    2.15   0-0.33378 0.38515 0.97538 0.67702-0.04520-0.37746
   5   5   1   18.52    2.42   0-0.33163 0.99409 0.97515-0.33806-0.04543-0.19011
   5   5   4   36.68    2.63   0-0.31905 0.93995 0.97370-0.43602-0.04675 0.24226
   5   6   0   13.92    2.22   0-0.33702 0.91911 0.97571-0.07656-0.04486-0.38689
   5   7   0   11.75    2.20   0-0.32827 0.81385 0.97478 0.15528-0.04578-0.43982
   5   8   1    1.00    1.55   0-0.32910 0.70413 0.97487 0.35009-0.04570-0.34688
   5   5   2  125.62    4.39   0-0.34704 0.99671 0.97669-0.37376-0.04381-0.04781
   5   5   3    1.96    1.28   0-0.34376 0.97903 0.97638-0.40561-0.04416 0.09594
   5   8   2    0.73    1.60   0-0.36791 0.73001 0.97837 0.31494-0.04156-0.20841
   5   8   5   49.96    3.22   0-0.36468 0.68393 0.97814 0.21641-0.04191 0.22288
   4   9   2    8.51    2.73   0-0.39488 0.43170 0.97983 0.63853-0.03856-0.24374
   4   9   5   33.27    2.76   0-0.40821 0.40394 0.98024 0.53836-0.03706 0.18801
   5   6   1   16.68    2.02   0-0.38058 0.94892 0.97916-0.11366-0.04014-0.24841
   5   6   2    7.12    1.92   0-0.40351 0.95873 0.98012-0.14853-0.03759-0.10740
   5   6   4   -0.69    1.71   0-0.39583 0.91902 0.97986-0.20509-0.03845 0.17659
   5   7   1    1.54    1.33   0-0.38004 0.85245 0.97913 0.11759-0.04020-0.30057
   5   8   3    1.22    1.27   0-0.38703 0.73518 0.97949 0.28120-0.03943-0.06715
   5   8   4    4.83    1.47   0-0.38542 0.72079 0.97941 0.24786-0.03961 0.07583
   5   6   3   26.37    2.46   0-0.40837 0.94907 0.98024-0.18102-0.03702 0.03572
   5   7   2   16.38    2.07   0-0.41102 0.86938 0.98030 0.08303-0.03672-0.16082
   5   7   4    2.31    1.40   0-0.41579 0.84538 0.98038 0.01731-0.03618 0.12589
   4   1  -1   31.70    2.37   0 0.18615 0.65684 0.81499-0.93701-0.25920-0.02672
   5   2  -2    5.96    1.73   0 0.17784 0.81467 0.81985-0.77537-0.25883-0.24637
   5   2   2   41.69    2.71   0 0.20357 0.73198 0.80460-0.89067-0.25991 0.32830
   6   3  -1   18.06    2.41   0 0.18346 0.93077 0.81657-0.67111-0.25908-0.17915
   6   3   2   37.32    2.80   0 0.19873 0.87243 0.80752-0.75946-0.25972 0.25233
   7   5  -1   -0.95    1.75   0 0.18209 0.97536 0.81737-0.30394-0.25902-0.31066
   5   2  -1   71.60    3.38   0 0.15052 0.82850 0.83533-0.82378-0.25746-0.10440
   5   2   0   65.79    3.25   0 0.14517 0.81922 0.83829-0.85983-0.25718 0.03896
   5   2   1  157.11    4.72   0 0.16237 0.78761 0.82870-0.88254-0.25807 0.18318
   6   3   0   54.40    3.12   0 0.16754 0.93245 0.82577-0.71257-0.25832-0.03587
   6   3   1    2.69    1.52   0 0.17270 0.91336 0.82281-0.74225-0.25856 0.10619
   7   5   0   18.65    2.54   0 0.14336 0.99690 0.83928-0.36211-0.25708-0.16706
   7   5   3    5.38    1.70   0 0.16524 0.93207 0.82707-0.44763-0.25821 0.26559
   7   5   1    1.17    1.39   0 0.12955 0.99653 0.84675-0.40230-0.25634-0.02453
   7   5   2    1.01    1.40   0 0.13647 0.97542 0.84303-0.43154-0.25673 0.11936
   7   6  -1    2.96    1.67   0 0.12666 0.93256 0.84829-0.10758-0.25617-0.36326
   7   7  -1    1.45    1.72   0 0.12868 0.83475 0.84721 0.12312-0.25629-0.41726
   7   8   0    1.22    1.90   0 0.11967 0.73181 0.85199 0.31387-0.25576-0.32597
   6   4  -2    5.40    1.80   0 0.08974 0.94252 0.86730-0.45831-0.25384-0.38110
   7   6   0    1.48    1.54   0 0.07963 0.96435 0.87229-0.16505-0.25315-0.22377
   7   6   3   22.86    2.63   0 0.07616 0.92532 0.87397-0.26552-0.25290 0.20734
   7   8   1    4.45    2.23   0 0.07291 0.76593 0.87555 0.26138-0.25267-0.18477
   6   4  -1    7.81    1.84   0 0.04432 0.97452 0.88896-0.51395-0.25051-0.24087
   7   6   1    0.28    1.64   0 0.05716 0.97309 0.88303-0.20864-0.25150-0.08211
   7   6   2    3.92    1.81   0 0.05550 0.96063 0.88381-0.24293-0.25138 0.06106
   7   7   0    5.86    1.39   0 0.06645 0.88218 0.87864 0.05897-0.25220-0.27777
   7   7   3   16.70    2.20   0 0.03479 0.87091 0.89327-0.05473-0.24975 0.15222
   7   8   2    3.67    2.17   0 0.04770 0.77717 0.88742 0.21376-0.25078-0.04495
   6   4   0   21.77    2.32   0 0.01881 0.98527 0.90030-0.55745-0.24840-0.09893
   6   4   1  205.52    5.57   0 0.01426 0.97527 0.90226-0.59123-0.24801 0.04400
   6   4   2   66.55    3.27   0 0.03217 0.94375 0.89444-0.61647-0.24952 0.18909
   6   5  -2   20.45    2.28   0 0.00105 0.93636 0.90785-0.26877-0.24684-0.44086
   7   7   1    6.33    1.33   0 0.03275 0.90195 0.89418 0.01058-0.24956-0.13604
   7   7   2    1.94    1.47   0 0.02146 0.89873 0.89915-0.02786-0.24862 0.00573
   5   3  -2    5.80    1.28   0-0.00360 0.90141 0.90977-0.63492-0.24636-0.31248
   5   3   2  191.52    4.98   0-0.02211 0.86190 0.91725-0.77330-0.24464 0.26037
   6   8  -1    0.96    1.92   0-0.03370 0.67019 0.92178 0.37428-0.24352-0.45954
   5   3  -1   91.26    3.38   0-0.04287 0.92585 0.92528-0.68301-0.24265-0.17231
   5   3   0   28.97    2.12   0-0.05825 0.92749 0.93097-0.72225-0.24108-0.03021
   5   3   1   13.19    1.72   0-0.05216 0.90648 0.92874-0.75306-0.24171 0.11336
   6   5  -1    2.45    1.56   0-0.05437 0.97766 0.92955-0.32427-0.24148-0.30388
   6   5   3    0.49    1.62   0-0.05740 0.93019 0.93066-0.45760-0.24117 0.27177
   6   6  -2    5.77    1.30   0-0.03968 0.88110 0.92407-0.05435-0.24297-0.49862
   6   5   0   22.58    2.18   0-0.08814 0.99738 0.94142-0.36826-0.23790-0.16271
   6   5   1  109.36    4.04   0-0.10138 0.99630 0.94578-0.40542-0.23640-0.02030
   6   5   2  321.89    6.80   0-0.09355 0.97451 0.94322-0.43619-0.23730 0.12428
   6   6  -1    5.61    1.30   0-0.10610 0.93338 0.94729-0.10967-0.23580-0.36169
   6   7  -1   13.66    1.65   0-0.10495 0.83667 0.94692 0.12012-0.23594-0.41475
   6   8   0   14.35    1.71   0-0.10842 0.73105 0.94803 0.31503-0.23553-0.32424
   5   4  -2    5.69    1.27   0-0.14189 0.94401 0.95812-0.45246-0.23148-0.38061
   6   6   0    1.99    1.21   0-0.14880 0.96225 0.96007-0.15671-0.23060-0.22346
   6   6   1    9.77    1.85   0-0.17070 0.96961 0.96597-0.19455-0.22776-0.08252
   6   6   2    1.33    1.48   0-0.16652 0.95664 0.96488-0.22694-0.22831 0.06116
   6   6   3   26.62    2.38   0-0.15261 0.92304 0.96113-0.25690-0.23012 0.20774
   6   7   0    9.01    1.64   0-0.15929 0.87662 0.96295 0.07103-0.22926-0.27675
   6   8   1   17.41    1.86   0-0.15306 0.76087 0.96125 0.26894-0.23006-0.18583
   6   8   2    6.36    1.42   0-0.17189 0.76590 0.96627 0.23048-0.22760-0.04427
   6   8   3    1.17    1.08   0-0.16678 0.74681 0.96494 0.19950-0.22828 0.09911
   5   4  -1    1.52    1.34   0-0.19050 0.97722 0.97090-0.49817-0.22511-0.24362
   5   4   2   96.47    3.41   0-0.20319 0.94791 0.97386-0.60035-0.22334 0.18604
   6   7   1    8.42    1.68   0-0.18992 0.89353 0.97076 0.02945-0.22519-0.13729
   6   7   2   10.54    1.75   0-0.19974 0.88911 0.97307-0.00575-0.22382 0.00452
   6   7   3   24.72    2.32   0-0.18827 0.86302 0.97036-0.03561-0.22542 0.15010
   5   4   0   15.41    1.54   0-0.21570 0.98909 0.97664-0.53759-0.22151-0.10232
   5   4   1   29.20    2.11   0-0.22081 0.97974 0.97772-0.57096-0.22077 0.03983
   5   5  -2   39.47    2.46   0-0.22754 0.93354 0.97912-0.24380-0.21978-0.44481
   5   8  -1    0.17    1.20   0-0.23264 0.63897 0.98014 0.41354-0.21902-0.46141
   5   9   1    1.70    1.49   0-0.21400 0.49556 0.97627 0.58021-0.22175-0.22433
   5   6  -2    6.87    1.57   0-0.25819 0.86912 0.98490-0.01973-0.21519-0.50345
   5   9   2    5.48    1.49   0-0.24569 0.51270 0.98266 0.54028-0.21711-0.08225
   4   3  -1   66.88    2.66   0-0.28852 0.94029 0.98969-0.65186-0.21029-0.18110
   5   5  -1   51.07    2.51   0-0.28161 0.97437 0.98868-0.28717-0.21142-0.30952
   5   8   0    4.68    1.32   0-0.30076 0.69183 0.99135 0.36780-0.20826-0.32895
   4   3   0  360.97    5.77   0-0.30718 0.94498 0.99216-0.68723-0.20718-0.04087
   5   5   0    0.48    1.01   0-0.31657 0.99404 0.99326-0.32382-0.20558-0.17239
   5   5   1   19.24    1.95   0-0.33008 0.99412 0.99469-0.35883-0.20323-0.03014
   5   5   2  127.96    3.96   0-0.32495 0.97394 0.99417-0.39062-0.20413 0.11408
   5   6  -1   -0.88    1.27   0-0.32594 0.91656 0.99427-0.05715-0.20395-0.36957
   5   7  -1   15.09    1.57   0-0.30939 0.80997 0.99243 0.16991-0.20681-0.42046
   5   8   1    1.07    1.24   0-0.34031 0.71727 0.99564 0.33050-0.20141-0.19153
   4   9   1   -1.63    1.63   0-0.36122 0.41219 0.99722 0.65352-0.19757-0.22657
   5   6   0   14.33    1.76   0-0.36276 0.94488 0.99732-0.09777-0.19728-0.23328
   5   6   3   27.32    2.15   0-0.37009 0.91012 0.99775-0.19742-0.19591 0.19629
   5   7   0   12.90    1.79   0-0.35890 0.84563 0.99707 0.13234-0.19800-0.28503
   5   8   2    1.87    1.22   0-0.35776 0.72120 0.99699 0.29623-0.19821-0.05245
   5   8   3    1.12    1.20   0-0.35591 0.70407 0.99687 0.26309-0.19855 0.09257
   4   8  -1    7.60    1.46   0-0.39848 0.57285 0.99882 0.48906-0.19052-0.46649
   4   9   2    9.21    1.80   0-0.38917 0.42492 0.99857 0.61982-0.19234-0.08421
   5   6   1   14.95    1.60   0-0.38464 0.95271 0.99842-0.13220-0.19322-0.09382
   5   6   2    6.55    1.51   0-0.38753 0.94163 0.99852-0.16564-0.19266 0.04931
   5   7   1    1.59    1.37   0-0.39033 0.86127 0.99861 0.09689-0.19212-0.14764
   5   7   2   20.50    1.97   0-0.39817 0.85686 0.99882 0.06433-0.19059-0.00522
   5   7   3    5.20    1.57   0-0.38882 0.83342 0.99856 0.03202-0.19241 0.13946
   4   4  -1   21.86    1.78   0-0.42688 0.98352 0.99895-0.43117-0.18487-0.25984
   3   9   1    1.33    1.57   0-0.46446 0.28378 0.99758 0.75011-0.17674-0.22306
   4   4   0   65.19    2.62   0-0.45521 0.99769 0.99808-0.46331-0.17876-0.12240
   4   4   1  104.39    3.20   0-0.46295 0.99124 0.99767-0.49555-0.17708 0.01939
   4   4   2  907.23    9.26   0-0.44886 0.96267 0.99837-0.52907-0.18012 0.16598
   4   5  -2   92.93    3.22   0-0.44366 0.91934 0.99856-0.16815-0.18123-0.46038
   4   6  -2   -0.84    1.20   0-0.45684 0.83302 0.99800 0.06842-0.17841-0.51568
   4   8   0    6.17    1.38   0-0.45780 0.61831 0.99796 0.45690-0.17820-0.33486
   3   9   2   13.90    2.02   0-0.49148 0.29735 0.99546 0.71905-0.17071-0.08549
   4   5  -1   -0.54    1.14   0-0.49350 0.95663 0.99526-0.18833-0.17025-0.33281
   4   7  -1   28.00    2.18   0-0.48351 0.75398 0.99619 0.26162-0.17253-0.43252
   4   8   1    0.49    1.18   0-0.49442 0.64056 0.99517 0.42698-0.17004-0.20009
   3   8  -1   24.20    1.91   0-0.52542 0.46785 0.99137 0.59311-0.16261-0.47256
   4   6  -1   94.69    3.45   0-0.51461 0.88020 0.99285 0.03486-0.16520-0.38612
   4   8   2    5.44    1.36   0-0.51233 0.64379 0.99314 0.39604-0.16574-0.06119
   4   8   3   20.76    1.92   0-0.51009 0.62824 0.99342 0.36235-0.16627 0.08372
   2   9   2    0.87    1.29   0-0.55080 0.12469 0.98721 0.82529-0.15611-0.07692
   4   5   0   18.38    1.57   0-0.53222 0.97904 0.99035-0.22509-0.16072-0.19356
   4   5   1   54.51    2.56   0-0.54861 0.98105 0.98761-0.25563-0.15666-0.05348
   4   5   2  238.32    5.02   0-0.54652 0.96442 0.98798-0.28881-0.15718 0.09037
   4   6   0   65.18    2.86   0-0.55410 0.90531 0.98660 0.00856-0.15527-0.25177
   4   7   0   42.18    2.35   0-0.53025 0.78597 0.99066 0.23456-0.16121-0.29914
   4   7   1   99.04    3.59   0-0.55796 0.79994 0.98586 0.20611-0.15429-0.16204
   3   7  -2   19.35    1.74   0-0.56316 0.61589 0.98482 0.40210-0.15297-0.57205
   3   8   0    7.84    1.48   0-0.58086 0.51037 0.98097 0.56933-0.14834-0.34214
   4   6   1   25.97    2.08   0-0.57655 0.91327 0.98196-0.01998-0.14948-0.11409
   4   6   2    6.78    1.43   0-0.58108 0.90391 0.98092-0.05089-0.14828 0.02836
   4   7   2    4.23    1.48   0-0.57066 0.79703 0.98325 0.17536-0.15103-0.02231
   4   7   3    6.42    1.28   0-0.56316 0.77587 0.98482 0.14225-0.15297 0.12315
   3   8   1   -0.39    1.20   0-0.61022 0.52462 0.97340 0.55118-0.14024-0.20967
   2   8  -1    1.29    0.83   0-0.61643 0.32855 0.97160 0.70819-0.13849-0.47187
   3   6  -2    4.11    1.06   0-0.62236 0.77019 0.96981 0.18763-0.13680-0.53516
   3   7  -1    6.26    1.47   0-0.62648 0.66562 0.96854 0.38405-0.13562-0.44457
   3   8   2    1.15    1.26   0-0.63181 0.53229 0.96683 0.51803-0.13408-0.06874
   3   8   3    4.25    1.40   0-0.63205 0.51851 0.96676 0.48439-0.13401 0.07456
   2   8   0   48.76    2.52   0-0.66761 0.36697 0.95391 0.69310-0.12329-0.34474
   3   4  -1   15.39    1.41   0-0.65239 0.97810 0.95973-0.29619-0.12796-0.29343
   3   7   0   24.43    2.11   0-0.66811 0.69258 0.95372 0.36769-0.12314-0.31384
   1   8  -1   25.63    1.85   0-0.67030 0.14561 0.95288 0.82565-0.12255-0.46697
   2   7  -2    0.92    1.00   0-0.67524 0.49715 0.95085 0.53205-0.12100-0.58035
   3   4   0    0.57    0.86   0-0.68268 0.99379 0.94770-0.31626-0.11864-0.16052
   3   5  -1  116.70    3.58   0-0.68637 0.91720 0.94608-0.05265-0.11745-0.35743
   3   6  -1    3.72    1.18   0-0.67610 0.81020 0.95049 0.17390-0.12073-0.40672
   2   8   1    0.38    0.88   0-0.69994 0.38377 0.93988 0.67495-0.11294-0.21084
   2   8   2   31.51    2.20   0-0.71593 0.38636 0.93197 0.64885-0.10756-0.07237
   2   8   3    0.22    1.20   0-0.71359 0.36786 0.93317 0.62102-0.10836 0.06708
   3   6   0    2.76    1.49   0-0.71259 0.83165 0.93368 0.15861-0.10870-0.27621
   3   7   1   29.31    2.11   0-0.69410 0.70463 0.94260 0.34552-0.11486-0.17916
   3   7   2   44.96    2.58   0-0.70561 0.70172 0.93715 0.31786-0.11105-0.03867
   3   7   3    7.62    1.40   0-0.70201 0.68373 0.93889 0.28371-0.11225 0.10573
   0   8   0   23.30    2.19   0-0.73858-0.02453 0.91955 0.91908-0.09956-0.32275
   1   8   0    8.66    1.15   0-0.72179 0.18954 0.92887 0.81388-0.10549-0.33917
   2   7  -1   31.10    2.29   0-0.73202 0.53976 0.92329 0.52632-0.10191-0.45629
   3   5   0   26.30    1.82   0-0.71998 0.93571 0.92983-0.06911-0.10612-0.22491
   3   5   1   49.94    2.44   0-0.73666 0.93900 0.92066-0.09316-0.10025-0.08735
   3   5   2   29.67    2.02   0-0.73893 0.92627 0.91935-0.12406-0.09944 0.05554
   3   6   1   14.13    1.72   0-0.73379 0.83934 0.92229 0.13590-0.10128-0.13917
   3   6   2   81.52    3.27   0-0.74023 0.83258 0.91860 0.10621-0.09897 0.00202
   1   7  -2    5.89    1.42   0-0.75199 0.34224 0.91151 0.66753-0.09476-0.58371
   1   8   1   15.46    1.59   0-0.75274 0.20599 0.91104 0.79902-0.09448-0.20675
   2   6  -2   32.78    2.37   0-0.75110 0.66836 0.91206 0.34095-0.09509-0.55394
   0   8   1   31.21    2.23   0-0.77148-0.00697 0.89879 0.90700-0.08735-0.19098
   0   8   2    6.89    1.53   0-0.78587-0.00701 0.88855 0.88424-0.08166-0.05254
   1   8   2   17.49    1.58   0-0.76739 0.20681 0.90156 0.77550-0.08893-0.06870
   1   8   3    7.07    1.10   0-0.76721 0.19122 0.90169 0.74269-0.08901 0.07591
   2   7   0    6.03    1.37   0-0.76963 0.56355 0.90005 0.51679-0.08807-0.32693
   1   7  -1  146.61    4.44   0-0.80295 0.37958 0.87544 0.67073-0.07470-0.46140
   2   6  -1   17.60    2.02   0-0.79796 0.70074 0.87942 0.34073-0.07679-0.42877
   2   7   1    6.43    1.43   0-0.79293 0.57122 0.88333 0.50206-0.07887-0.19161
   2   7   2    3.53    1.54   0-0.80350 0.56824 0.87500 0.47737-0.07447-0.05366
   2   7   3  135.52    4.32   0-0.80218 0.55271 0.87607 0.44245-0.07503 0.09149
   0   7  -1    2.97    1.32   0-0.84311 0.18961 0.83918 0.80271-0.05671-0.45582
   1   6  -2  138.52    4.52   0-0.84055 0.52632 0.84173 0.50681-0.05792-0.56831
   1   7   0   -1.36    1.55   0-0.83921 0.39629 0.84306 0.67006-0.05855-0.33317
   2   5  -1  123.73    3.72   0-0.83172 0.83143 0.85029 0.13892-0.06203-0.39007
   2   6   0    7.49    1.45   0-0.82864 0.71837 0.85317 0.33378-0.06343-0.29777
  -2   7   0   43.15    2.73   0-0.86581-0.26315 0.81468 0.98667-0.04542-0.27881
  -1   7  -1    1.03    1.20   0-0.85441-0.03165 0.82741 0.91101-0.05118-0.43875
   1   7   1   17.41    2.16   0-0.85761 0.40515 0.82392 0.65636-0.04959-0.19907
   2   5   0  879.56    9.92   0-0.85974 0.84477 0.82157 0.13523-0.04852-0.25999
   2   6   1   97.59    3.51   0-0.84769 0.72251 0.83450 0.31950-0.05447-0.16323
   2   6   2   63.70    3.09   0-0.85506 0.71598 0.82670 0.29417-0.05086-0.02360
   0   7   0    2.96    1.46   0-0.87464 0.20542 0.80415 0.80460-0.04076-0.32823
   1   6  -1  106.83    4.21   0-0.87845 0.55175 0.79943 0.51618-0.03870-0.44413
   1   7   2    1.02    1.20   0-0.86684 0.40072 0.81345 0.63414-0.04486-0.06002
   1   7   3   36.37    2.38   0-0.86597 0.38625 0.81446 0.59938-0.04531 0.08485
   2   5   1    0.72    1.16   0-0.87652 0.84565 0.80183 0.12191-0.03975-0.12564
   2   5   2    5.48    1.53   0-0.88017 0.83601 0.79726 0.09428-0.03777 0.01585
  -2   7   1   17.15    1.99   0-0.88620-0.25648 0.78947 0.97889-0.03438-0.14578
  -2   7   2   22.41    2.39   0-0.89363-0.26482 0.77939 0.95547-0.03014-0.00641
  -1   7   0    9.69    1.34   0-0.88566-0.01344 0.79018 0.91488-0.03468-0.31259
   0   6  -2   11.15    2.04   0-0.89377 0.34882 0.77919 0.66576-0.03006-0.57405
   0   7   1    1.68    1.46   0-0.89303 0.20983 0.78022 0.79531-0.03049-0.19498
   1   5  -2   12.37    1.90   0-0.89273 0.67404 0.78064 0.33837-0.03066-0.54237
  -1   7   1   13.11    1.54   0-0.90346-0.01029 0.76517 0.90705-0.02431-0.17882
   0   7   2   38.05    2.38   0-0.90057 0.20478 0.76945 0.77365-0.02605-0.05567
   0   7   3   13.04    1.58   0-0.89981 0.18885 0.77056 0.73950-0.02651 0.08865
   1   6   0   74.91    3.37   0-0.90383 0.56215 0.76460 0.51846-0.02408-0.31505
  -7  -5  -8    7.76    1.19   0-0.08992-0.93667-0.56715 0.35333-0.49814-0.22668
  -7  -5  -5    0.06    1.09   0-0.08715-0.98419-0.56846 0.25575-0.49853 0.19852
  -6  -3  -4    2.02    1.07   0-0.08459-0.95815-0.56966 0.58705-0.49889 0.21970
  -7  -7  -9   -0.27    1.34   0-0.05444-0.76917-0.58358-0.05802-0.50271-0.26230
  -7  -6  -9    4.08    0.93   0-0.06664-0.85050-0.57803 0.16720-0.50117-0.31565
  -7  -6  -5    9.23    1.33   0-0.04931-0.92397-0.58588 0.04092-0.50333 0.26274
  -7  -5  -7    1.28    0.81   0-0.06664-0.97404-0.57803 0.33118-0.50117-0.08098
  -7  -5  -6    5.69    1.06   0-0.06577-0.98951-0.57843 0.29787-0.50128 0.06494
  -6  -3  -6    1.17    1.04   0-0.06210-0.95265-0.58010 0.66400-0.50175-0.06506
  -6  -3  -5   14.56    1.48   0-0.06300-0.96550-0.57970 0.63089-0.50164 0.08054
  -5  -2  -3   82.97    2.50   0-0.05711-0.86362-0.58237 0.70009-0.50238 0.29334
  -7  -7  -8    2.48    1.09   0-0.01591-0.82055-0.60054-0.07311-0.50717-0.11218
  -7  -7  -7   12.05    1.34   0-0.00807-0.84171-0.60387-0.10354-0.50797 0.03374
  -7  -6  -8    0.83    0.99   0-0.02616-0.90529-0.59612 0.15225-0.50609-0.16647
  -7  -6  -7    1.82    1.04   0-0.01069-0.93473-0.60276 0.12627-0.50771-0.01974
  -7  -6  -6    7.13    1.30   0-0.01878-0.94072-0.59931 0.08943-0.50688 0.12287
  -6  -4  -3   11.85    1.45   0-0.02012-0.94069-0.59873 0.35253-0.50673 0.42489
  -5  -2  -5    8.18    1.15   0-0.01096-0.88366-0.60265 0.78893-0.50768 0.01075
  -5  -2  -4   36.64    1.86   0-0.02105-0.88549-0.59833 0.74894-0.50664 0.15388
  -6  -4  -8   62.10    2.47   0 0.03106-0.92264-0.62000 0.54131-0.51134-0.28766
  -6  -4  -4   21.30    1.54   0 0.03222-0.97971-0.62046 0.40821-0.51143 0.28661
  -5  -3  -2  228.25    4.12   0 0.03222-0.87210-0.62046 0.47543-0.51143 0.49857
  -6  -6 -10    8.40    1.20   0 0.09502-0.76636-0.64429 0.17054-0.51531-0.46632
  -6  -5  -9    0.44    0.98   0 0.09148-0.87411-0.64301 0.36586-0.51514-0.37596
  -6  -4  -7   26.23    1.75   0 0.06360-0.96924-0.63268 0.52064-0.51358-0.14164
  -6  -4  -6   36.22    1.87   0 0.07405-0.99362-0.63661 0.49092-0.51421 0.00293
  -6  -4  -5   49.35    2.17   0 0.06360-0.99707-0.63268 0.45330-0.51358 0.14583
  -6  -8  -9   -0.45    1.24   0 0.11977-0.61329-0.65303-0.31239-0.51619-0.21458
  -6  -7 -10   55.13    2.68   0 0.11226-0.68863-0.65042-0.05283-0.51592-0.41212
  -6  -5  -4   22.69    1.67   0 0.10589-0.95715-0.64818 0.20449-0.51566 0.34438
  -5  -3  -3   39.91    1.82   0 0.10184-0.92818-0.64675 0.53514-0.51549 0.35961
  -6  -8  -8    1.10    1.03   0 0.14312-0.65234-0.66090-0.33898-0.51684-0.07140
  -6  -6  -9   13.65    1.47   0 0.15991-0.84515-0.66636 0.15920-0.51714-0.32012
  -6  -5  -8    0.32    0.88   0 0.13937-0.93485-0.65966 0.34949-0.51675-0.22963
  -6  -5  -7   80.01    3.02   0 0.16238-0.97195-0.66714 0.32406-0.51717-0.08514
  -6  -5  -6   83.74    3.00   0 0.16393-0.98801-0.66764 0.29144-0.51719 0.05885
  -6  -5  -5    0.27    1.16   0 0.15368-0.98400-0.66435 0.25490-0.51705 0.20041
  -5  -3  -4    1.10    0.81   0 0.14836-0.96013-0.66262 0.58447-0.51695 0.21574
  -6  -7  -9    2.12    0.83   0 0.17155-0.76124-0.67004-0.06681-0.51729-0.26774
  -6  -7  -6   12.33    1.60   0 0.19630-0.82816-0.67758-0.15958-0.51731 0.16436
  -6  -6  -8   16.63    1.71   0 0.19601-0.89680-0.67749 0.13762-0.51731-0.17558
  -6  -6  -5   56.66    2.72   0 0.17943-0.92122-0.67248 0.03211-0.51733 0.25527
  -5  -3  -6    0.73    0.75   0 0.17069-0.95429-0.66977 0.65747-0.51728-0.07057
  -5  -3  -5   57.35    2.23   0 0.17098-0.96835-0.66986 0.62410-0.51729 0.07407
  -6  -7  -8    0.40    0.76   0 0.20240-0.80663-0.67939-0.09079-0.51711-0.12354
  -6  -7  -7   11.52    1.35   0 0.20980-0.82844-0.68153-0.12208-0.51703 0.02000
  -6  -6  -7    1.01    0.86   0 0.21150-0.92573-0.68202 0.10886-0.51701-0.03309
  -6  -6  -6   12.65    1.42   0 0.20638-0.93438-0.68055 0.07423-0.51707 0.11110
  -5  -8 -10    0.43    1.23   0 0.23588-0.48540-0.68881-0.34137-0.51649-0.38102
  -5  -7 -11   19.71    1.73   0 0.20809-0.54040-0.68104-0.08220-0.51705-0.57834
  -5  -4  -3   38.74    2.06   0 0.21544-0.94587-0.68315 0.34100-0.51694 0.41382
  -4  -2  -4  184.62    3.78   0 0.22112-0.89655-0.68475 0.73957-0.51684 0.14189
  -5  -8  -9    1.76    1.15   0 0.29470-0.55774-0.70358-0.35981-0.51385-0.24122
  -5  -7 -10    1.22    1.02   0 0.29610-0.64244-0.70390-0.09723-0.51376-0.43794
  -5  -6 -10    1.26    1.10   0 0.29507-0.73544-0.70366 0.13342-0.51382-0.48885
  -5  -4  -7    2.94    1.22   0 0.29131-0.96532-0.70279 0.49326-0.51405-0.16318
  -5  -4  -5    0.34    1.02   0 0.29651-0.99945-0.70399 0.42908-0.51373 0.12222
  -5  -4  -4   31.82    1.75   0 0.26800-0.98457-0.69717 0.38840-0.51527 0.26885
  -5  -8  -8    7.97    1.32   0 0.32489-0.60264-0.71023-0.38545-0.51168-0.09814
  -5  -5  -9   18.50    1.63   0 0.30533-0.85556-0.70600 0.33374-0.51311-0.39937
  -5  -4  -6   17.49    1.50   0 0.30478-0.99253-0.70587 0.46368-0.51315-0.02136
  -5  -7  -9    0.06    1.19   0 0.35492-0.71466-0.71619-0.11729-0.50900-0.29805
  -5  -6  -9    3.67    1.38   0 0.35710-0.81088-0.71660 0.11282-0.50879-0.35062
  -5  -5  -8   -0.64    1.23   0 0.35410-0.91429-0.71603 0.30528-0.50908-0.26189
  -5  -5  -4   41.91    2.10   0 0.33590-0.95651-0.71249 0.17356-0.51074 0.31674
  -4  -7 -11    0.50    1.22   0 0.36184-0.46189-0.71747-0.14606-0.50832-0.60852
  -5  -7  -8    4.25    1.32   0 0.38855-0.76233-0.72207-0.14360-0.50535-0.15725
  -5  -7  -6   42.74    2.54   0 0.39271-0.79359-0.72273-0.21058-0.50485 0.12933
  -5  -6  -8    5.63    1.49   0 0.39468-0.86426-0.72304 0.08736-0.50461-0.21010
  -5  -6  -5   20.19    1.88   0 0.39270-0.90426-0.72273-0.01281-0.50485 0.21982
  -5  -5  -7   13.84    1.43   0 0.37693-0.95618-0.72013 0.28142-0.50669-0.11798
  -5  -5  -6  133.48    3.80   0 0.38431-0.97649-0.72137 0.24891-0.50585 0.02470
  -5  -5  -5   38.09    2.11   0 0.37045-0.97728-0.71901 0.21337-0.50739 0.17010
  -4  -8 -10    1.93    1.06   0 0.37585-0.39405-0.71995-0.40555-0.50681-0.41400
  -4  -3  -4    0.76    0.78   0 0.39651-0.97787-0.72333 0.54935-0.50439 0.18072
  -5  -7  -7   29.94    1.92   0 0.40052-0.78792-0.72395-0.17567-0.50387-0.01498
  -5  -6  -7   24.13    2.04   0 0.41320-0.89636-0.72582 0.05673-0.50222-0.07019
  -5  -6  -6    0.26    1.29   0 0.41320-0.91035-0.72582 0.02383-0.50222 0.07310
  -4  -3  -6  666.69    7.46   0 0.40824-0.96106-0.72510 0.61748-0.50288-0.10640
  -4  -3  -5  538.22    6.61   0 0.41434-0.98080-0.72598 0.58472-0.50206 0.03629
  -4  -8  -9    3.82    0.92   0 0.43540-0.46819-0.72878-0.42997-0.49909-0.27767
  -4  -7 -10    0.27    0.94   0 0.45081-0.56476-0.73060-0.16576-0.49669-0.47596
  -4  -6 -10  121.81    3.86   0 0.46263-0.67116-0.73185 0.06629-0.49474-0.53203
  -4  -4  -3  163.11    3.90   0 0.46166-0.96088-0.73175 0.29367-0.49490 0.36855
  -4  -8  -8    2.18    0.87   0 0.46787-0.51419-0.73238-0.46048-0.49388-0.13862
  -4  -5  -9  123.09    3.84   0 0.49280-0.81141-0.73450 0.26603-0.48933-0.44630
  -3  -8 -10    9.78    1.55   0 0.47429-0.25913-0.73298-0.49045-0.49276-0.45042
  -3  -7 -11    0.11    1.25   0 0.48048-0.34908-0.73352-0.22573-0.49164-0.64532
  -4  -7  -9    4.48    1.29   0 0.50846-0.63545-0.73556-0.19333-0.48619-0.34386
  -4  -4  -7  151.49    3.92   0 0.50699-0.94912-0.73548 0.43033-0.48649-0.21422
  -4  -4  -4  185.87    4.12   0 0.50590-0.99130-0.73541 0.33090-0.48671 0.21708
  -4  -7  -8   27.29    2.18   0 0.54359-0.68451-0.73706-0.22574-0.47865-0.20755
  -4  -6  -9    4.42    1.18   0 0.52423-0.74769-0.73639 0.03772-0.48301-0.39901
  -4  -5  -8    8.93    1.54   0 0.54184-0.87391-0.73701 0.23516-0.47906-0.31318
  -4  -4  -6    0.94    0.89   0 0.52621-0.98267-0.73648 0.39814-0.48258-0.07476
  -4  -4  -5    2.57    0.87   0 0.52621-0.99733-0.73648 0.36487-0.48258 0.06887
  -3  -8  -9    2.68    1.20   0 0.53902-0.33773-0.73693-0.51929-0.47971-0.32058
  -2  -7 -11    6.73    1.49   0 0.55358-0.18784-0.73725-0.31509-0.47628-0.69022
  -4  -7  -7    0.92    0.99   0 0.56039-0.71645-0.73735-0.25768-0.47458-0.06789
  -4  -7  -6   17.91    1.71   0 0.55967-0.73004-0.73735-0.29103-0.47476 0.07625
  -4  -6  -8    6.68    1.55   0 0.56442-0.80166-0.73737 0.00542-0.47357-0.26612
  -4  -5  -7    0.72    1.35   0 0.57157-0.91821-0.73736 0.20206-0.47176-0.17616
  -4  -5  -5   49.04    2.57   0 0.57985-0.95492-0.73728 0.13532-0.46959 0.10901
  -4  -5  -4  104.36    3.29   0 0.55557-0.94496-0.73731 0.10234-0.47576 0.25871
  -3  -8  -8   23.38    1.84   0 0.57559-0.39131-0.73733-0.55081-0.47071-0.18499
  -3  -7 -10    0.36    0.98   0 0.56649-0.44894-0.73738-0.25526-0.47305-0.52298
  -4  -6  -7    3.90    1.24   0 0.58805-0.83835-0.73713-0.02925-0.46743-0.12880
  -4  -6  -6   33.22    2.39   0 0.59443-0.86024-0.73695-0.06132-0.46566 0.01397
  -4  -6  -5   55.46    2.63   0 0.58404-0.86346-0.73721-0.09480-0.46851 0.16047
  -4  -5  -6  105.31    3.34   0 0.58428-0.94532-0.73721 0.16867-0.46845-0.03577
  -3  -6 -10    2.58    1.35   0 0.59654-0.57339-0.73688-0.02444-0.46507-0.58502
  -2  -8  -9    3.16    1.47   0 0.60340-0.17344-0.73663-0.61219-0.46311-0.36250
  -3  -7  -9   12.30    1.61   0 0.62657-0.52046-0.73535-0.29088-0.45623-0.39645
  -3  -6  -9    2.41    1.41   0 0.65732-0.64996-0.73258-0.06301-0.44608-0.45859
  -3  -5  -9    0.20    1.42   0 0.64816-0.73538-0.73354 0.16800-0.44921-0.50890
  -3  -3  -6   39.31    2.03   0 0.63749-0.95879-0.73452 0.53059-0.45274-0.17933
  -2  -8  -8   25.73    1.91   0 0.64685-0.23102-0.73367-0.64859-0.44965-0.23285
  -2  -7 -10    2.74    1.07   0 0.64916-0.29956-0.73344-0.35384-0.44887-0.56955
  -3  -7  -8   23.86    1.81   0 0.66336-0.57406-0.73191-0.32606-0.44405-0.26515
  -3  -7  -7    1.48    1.35   0 0.68500-0.60979-0.72896-0.36215-0.43609-0.12972
  -1  -8  -8   26.91    2.17   0 0.67924-0.03015-0.72981-0.75022-0.43827-0.26400
  -3  -7  -6    9.31    1.45   0 0.69178-0.63009-0.72787-0.39695-0.43343 0.01197
  -3  -6  -8    1.86    1.51   0 0.70071-0.70600-0.72634-0.10161-0.42990-0.33150
  -3  -5  -8   13.16    1.59   0 0.69785-0.79925-0.72684 0.12963-0.43104-0.38394
  -3  -4  -7    1.34    0.94   0 0.69472-0.90590-0.72738 0.32603-0.43228-0.29161
  -2  -7  -9   79.81    3.14   0 0.70856-0.37339-0.72489-0.39642-0.42669-0.44879
  -2  -6 -10   34.20    2.07   0 0.69493-0.44056-0.72734-0.13012-0.43220-0.64062
  -1  -7 -10   11.66    1.52   0 0.69199-0.11128-0.72783-0.45576-0.43335-0.60923
  -3  -6  -7   31.28    2.40   0 0.72753-0.74683-0.72094-0.14026-0.41858-0.19940
  -3  -5  -7   27.34    2.26   0 0.73072-0.84679-0.72021 0.08928-0.41716-0.25372
  -3  -4  -6  417.03    6.43   0 0.72044-0.94630-0.72250 0.28848-0.42168-0.15802
  -3  -4  -5  100.79    3.38   0 0.73071-0.97074-0.72021 0.25281-0.41716-0.01911
  -3  -4  -4    4.14    1.09   0 0.72533-0.97854-0.72144 0.22134-0.41955 0.12689
  -3  -6  -6   98.88    3.61   0 0.73991-0.77384-0.71798-0.17686-0.41300-0.06157
  -3  -6  -5   16.37    1.77   0 0.73854-0.78760-0.71832-0.20895-0.41364 0.08293
  -3  -5  -6   90.14    3.45   0 0.75009-0.87977-0.71533 0.05104-0.40821-0.11910
  -3  -5  -5  160.41    4.47   0 0.75515-0.89880-0.71393 0.01601-0.40576 0.02187
  -3  -5  -4   27.60    1.95   0 0.74440-0.90260-0.71684-0.01426-0.41091 0.17073
  -2  -7  -8    4.74    1.50   0 0.74943-0.42757-0.71551-0.43918-0.40853-0.32299
  -2  -6  -9   15.26    1.92   0 0.75602-0.51602-0.71369-0.17677-0.40533-0.52368
  -1  -7  -9   13.95    1.57   0 0.75845-0.19293-0.71299-0.50324-0.40413-0.49476
  -1  -6 -10   14.16    1.53   0 0.75823-0.27324-0.71306-0.24025-0.40425-0.69212
  -2  -7  -7   65.17    3.06   0 0.77489-0.46658-0.70794-0.47983-0.39572-0.19201
  -2  -5  -9   24.73    2.08   0 0.76595-0.62127-0.71077 0.05020-0.40035-0.58122
   0  -7  -9    8.15    1.92   0 0.77512 0.02267-0.70787-0.60360-0.39560-0.52615
  -2  -7  -6   33.37    2.32   0 0.78573-0.49309-0.70425-0.51658-0.38984-0.05436
  -2  -6  -8   27.50    2.40   0 0.79815-0.57343-0.69966-0.22422-0.38286-0.40107
  -1  -7  -8   35.85    2.34   0 0.80180-0.24987-0.69823-0.55183-0.38073-0.37413
   0  -6 -10    0.65    0.76   0 0.78914-0.07270-0.70303-0.34697-0.38796-0.73020
  -2  -5  -8   15.02    2.04   0 0.81382-0.68381-0.69323-0.00056-0.37342-0.46413
  -1  -6  -9   27.23    2.15   0 0.81957-0.34990-0.69070-0.29558-0.36984-0.58155
   0  -7  -8   -0.16    1.18   0 0.82409-0.04121-0.68863-0.65695-0.36696-0.41133
   1  -7  -8    8.63    1.56   0 0.80959 0.20005-0.69503-0.74554-0.37600-0.42520
  -2  -6  -7    2.25    1.16   0 0.82665-0.61662-0.68741-0.26903-0.36530-0.27461
  -2  -6  -6  124.33    4.35   0 0.84322-0.64646-0.67907-0.31155-0.35413-0.14333
  -2  -4  -7  174.30    4.86   0 0.83811-0.81787-0.68175 0.18488-0.35766-0.38924
  -1  -7  -7   11.52    1.57   0 0.82942-0.29351-0.68608-0.59629-0.36349-0.24723
  -2  -6  -5   38.50    2.56   0 0.84934-0.66665-0.67571-0.34789-0.34979-0.00424
  -2  -5  -7   56.73    3.05   0 0.84672-0.73184-0.67716-0.04964-0.35166-0.34231
  -1  -7  -6   16.63    1.86   0 0.84501-0.32227-0.67809-0.63792-0.35287-0.11393
  -1  -6  -8    1.53    1.65   0 0.86124-0.40490-0.66875-0.35124-0.34095-0.46725
  -1  -5  -9    9.42    1.64   0 0.84470-0.46880-0.67826-0.07843-0.35309-0.65207
   0  -7  -7    6.02    1.52   0 0.85599-0.08765-0.67189-0.70641-0.34491-0.28956
   0  -6  -9   46.38    2.57   0 0.85480-0.15119-0.67259-0.40988-0.34580-0.62820
   1  -7  -7   -0.00    1.52   0 0.85365 0.14459-0.67325-0.79646-0.34664-0.31332
   1  -6  -9    0.19    1.20   0 0.85617 0.07812-0.67179-0.50973-0.34478-0.65606
  -2  -5  -6    3.66    1.28   0 0.86837-0.76823-0.66424-0.09489-0.33537-0.21512
  -2  -4  -6   48.28    2.55   0 0.86591-0.86100-0.66582 0.13606-0.33731-0.26514
   0  -7  -6   12.23    1.92   0 0.87440-0.12077-0.66026-0.75124-0.33051-0.15984
  -2  -5  -5    9.23    1.63   0 0.88010-0.79288-0.65631-0.13691-0.32586-0.08124
  -2  -5  -4    1.20    1.02   0 0.88065-0.80840-0.65592-0.16998-0.32539 0.06193
  -2  -4  -5  397.49    7.38   0 0.88257-0.89172-0.65454 0.09137-0.32375-0.13542
  -1  -6  -7  121.52    4.42   0 0.89002-0.44683-0.64900-0.40433-0.31723-0.34704
  -1  -5  -8   27.27    2.60   0 0.88967-0.52729-0.64927-0.14106-0.31755-0.54283
   0  -5  -9   14.93    2.08   0 0.89085-0.28524-0.64836-0.20364-0.31649-0.71120
   2  -6  -8   12.59    2.47   0 0.89043 0.25912-0.64868-0.65846-0.31686-0.55957
  -1  -6  -6   19.81    2.57   0 0.90800-0.47945-0.63403-0.45257-0.30022-0.21987
   0  -6  -8   13.10    1.77   0 0.89586-0.20815-0.64435-0.47181-0.31192-0.51913
   1  -6  -8   31.51    2.37   0 0.90652 0.01097-0.63534-0.57585-0.30169-0.55243
   1  -5  -9    9.41    1.84   0 0.91040-0.07277-0.63185-0.31690-0.29779-0.75351
  -1  -6  -5  195.48    5.82   0 0.91763-0.50266-0.62495-0.49475-0.29016-0.08639
  -1  -5  -7   23.73    2.63   0 0.91968-0.57295-0.62292-0.19945-0.28795-0.42933
   0  -6  -7  201.63    5.68   0 0.92396-0.25085-0.61852-0.53050-0.28319-0.40388
   3  -6  -6   14.00    2.36   0 0.91924 0.42989-0.62336-0.84599-0.28843-0.32352
  -1  -4  -7   41.13    2.75   0 0.92786-0.67704-0.61435 0.02163-0.27867-0.49101
   0  -5  -8   88.48    3.88   0 0.93210-0.33843-0.60960-0.27577-0.27363-0.60999
   1  -6  -7   24.98    2.57   0 0.93621-0.03357-0.60479-0.63957-0.26856-0.44188
   2  -6  -7    5.28    1.56   0 0.92840 0.20815-0.61375-0.72723-0.27803-0.45475
   3  -5  -8   19.61    2.71   0 0.92917 0.35609-0.61291-0.56011-0.27713-0.67605
  -1  -5  -6   36.57    2.74   0 0.93990-0.60701-0.60023-0.25585-0.26382-0.30960
   4   1  -2   53.90    2.62   0 0.10449 0.75277 0.82304-0.91099-0.56745 0.13724
   5   2  -3    4.36    1.38   0 0.10190 0.90604 0.82433-0.74548-0.56741-0.08183
   5   2  -1   72.00    3.16   0 0.12009 0.85857 0.81516-0.80157-0.56765 0.20450
   6   5  -5    2.14    1.21   0 0.11695 0.86540 0.81676-0.07692-0.56762-0.55303
   6   6  -5    1.89    1.49   0 0.12937 0.75698 0.81037 0.15948-0.56770-0.60648
   5   2  -2    7.41    1.33   0 0.09928 0.89357 0.82560-0.77882-0.56741 0.05924
   6   4  -4   17.23    1.65   0 0.09783 0.96522 0.82632-0.35039-0.56738-0.35570
   6   4   1  199.77    5.23   0 0.09870 0.89102 0.82589-0.51290-0.56740 0.36184
   5   3   1   12.99    1.61   0 0.03051 0.82353 0.85748-0.67925-0.56482 0.43551
   6   4  -3   17.70    1.79   0 0.05462 0.99309 0.84678-0.40239-0.56608-0.21351
   6   4  -2    5.28    1.47   0 0.03563 0.99924 0.85525-0.44548-0.56511-0.07219
   6   4  -1    6.42    1.51   0 0.03483 0.98470 0.85560-0.47840-0.56507 0.07271
   6   4   0   21.63    1.87   0 0.05579 0.94913 0.84625-0.50120-0.56613 0.21723
   6   5  -4    0.90    1.09   0 0.03591 0.93122 0.85513-0.14817-0.56513-0.41228
   6   6  -4    0.27    0.84   0 0.02670 0.84507 0.85912 0.07792-0.56458-0.46583
   6   7  -3    1.66    1.95   0 0.00178 0.76100 0.86957 0.26514-0.56288-0.37759
   5   3  -4    2.57    1.36   0-0.02859 0.95501 0.88157-0.53863-0.56037-0.28780
   5   3   0   27.33    2.00   0-0.02879 0.89754 0.88165-0.67065-0.56035 0.28773
   6   5  -3   -0.15    1.02   0-0.01632 0.96790 0.87682-0.19947-0.56146-0.27527
   6   6  -3    0.51    1.09   0-0.03851 0.89600 0.88532 0.01863-0.55943-0.32740
   5   3  -3  165.78    4.34   0-0.06173 0.97349 0.89367-0.58426-0.55705-0.14624
   5   3  -2    4.62    1.31   0-0.07324 0.97075 0.89768-0.62013-0.55574-0.00457
   5   3  -1   93.22    3.20   0-0.06296 0.94571 0.89411-0.65027-0.55692 0.14080
   6   5  -2   22.29    1.88   0-0.04538 0.98400 0.88778-0.24725-0.55879-0.13036
   6   5  -1    3.14    1.43   0-0.05762 0.97854 0.89221-0.28430-0.55751 0.01115
   6   5   0   19.34    1.80   0-0.04190 0.95133 0.88650-0.31179-0.55914 0.15719
   6   7  -2    3.88    1.15   0-0.05486 0.80305 0.89122 0.20880-0.55780-0.23674
   5   6  -5    8.58    1.30   0-0.10735 0.76248 0.90877 0.15540-0.55146-0.59823
   6   6  -2    4.40    1.17   0-0.07793 0.92133 0.89918-0.02905-0.55523-0.18702
   6   6  -1    4.73    1.47   0-0.09611 0.92416 0.90520-0.06728-0.55296-0.04522
   6   6   0    2.85    1.28   0-0.09274 0.90610 0.90410-0.09987-0.55340 0.09887
   6   7  -1   13.63    1.52   0-0.08372 0.81640 0.90113 0.16643-0.55453-0.09629
   4   2  -3    0.84    0.83   0-0.13267 0.90934 0.91639-0.74115-0.54783-0.08050
   4   2  -2    0.16    0.87   0-0.13409 0.89649 0.91680-0.77463-0.54762 0.06277
   4   2  -1   17.36    1.33   0-0.11036 0.85779 0.90968-0.80055-0.55106 0.21132
   5   4  -4    1.08    1.22   0-0.13542 0.96611 0.91718-0.34484-0.54741-0.35282
   5   5  -5    0.55    0.82   0-0.11787 0.86787 0.91199-0.07660-0.55001-0.54691
   5   7  -4   -0.76    1.72   0-0.13378 0.67918 0.91671 0.34547-0.54766-0.51251
   5   4  -3   84.85    3.11   0-0.17645 0.99307 0.92821-0.38953-0.54075-0.21549
   5   4   0   14.36    1.56   0-0.17696 0.95032 0.92834-0.48773-0.54066 0.21475
   5   8  -2    4.22    1.57   0-0.15710 0.57517 0.92319 0.50530-0.54406-0.27955
   4   7  -5   12.64    1.82   0-0.21263 0.53822 0.93663 0.45586-0.53410-0.64790
   5   4  -2    4.75    1.32   0-0.19764 0.99970 0.93326-0.42672-0.53701-0.07656
   5   4  -1    2.39    1.19   0-0.19764 0.98606 0.93326-0.46103-0.53701 0.06678
   5   5  -4   33.77    1.95   0-0.19057 0.92646 0.93160-0.12983-0.53834-0.41510
   5   6  -4   12.58    1.44   0-0.19440 0.83429 0.93251 0.09998-0.53762-0.46893
   5   7  -3    1.76    0.95   0-0.21047 0.74159 0.93616 0.29323-0.53453-0.38281
   5   5  -3   -0.45    1.13   0-0.23802 0.95965 0.94185-0.16715-0.52890-0.28596
   4   3  -4    5.61    1.20   0-0.26384 0.95934 0.94653-0.50944-0.52317-0.30082
   4   3   0  351.57    5.37   0-0.27413 0.91190 0.94821-0.64201-0.52077 0.27126
   4   8  -3    1.62    1.27   0-0.25546 0.45894 0.94508 0.61068-0.52508-0.42066
   5   5  -2   33.50    2.06   0-0.26990 0.97699 0.94753-0.21212-0.52177-0.14373
   5   5   0    1.25    1.09   0-0.27016 0.94852 0.94757-0.27693-0.52170 0.14179
   5   6  -3   22.56    1.69   0-0.25349 0.87983 0.94473 0.05400-0.52552-0.33624
   5   7  -2    3.65    1.18   0-0.26043 0.77647 0.94594 0.25085-0.52395-0.24931
   4   3  -3  163.81    3.72   0-0.29988 0.98075 0.95200-0.54776-0.51446-0.16495
   4   3  -1   64.74    2.36   0-0.30727 0.95945 0.95296-0.61393-0.51257 0.11959
   4   6  -5   33.31    1.96   0-0.30471 0.72753 0.95264 0.20870-0.51323-0.61462
   5   5  -1   43.28    2.23   0-0.28074 0.97272 0.94926-0.24584-0.51918-0.00280
   5   6  -2    6.21    1.18   0-0.29188 0.90333 0.95090 0.01510-0.51646-0.20378
   5   6  -1    0.75    1.08   0-0.30671 0.90665 0.95289-0.01803-0.51272-0.06435
   5   6   0   11.71    1.58   0-0.30970 0.89199 0.95326-0.05274-0.51194 0.07961
   5   7  -1   15.73    1.46   0-0.28771 0.79000 0.95030 0.21219-0.51749-0.11043
   4   3  -2   24.70    1.50   0-0.31468 0.98124 0.95387-0.58215-0.51062-0.02576
   4   5  -5    0.55    1.01   0-0.33209 0.84686 0.95578-0.02543-0.50595-0.56433
   4   7  -4   23.69    1.59   0-0.31688 0.63112 0.95412 0.40334-0.51004-0.52659
   4   8  -2    0.04    0.80   0-0.32377 0.51375 0.95490 0.56721-0.50820-0.29735
   3   7  -5   15.41    1.98   0-0.36703 0.46225 0.95869 0.52829-0.49598-0.66142
   4   4  -4   17.45    1.44   0-0.35851 0.95796 0.95811-0.29018-0.49849-0.37876
   3   8  -3    3.00    1.13   0-0.38762 0.35957 0.95979 0.69165-0.48962-0.43283
   4   4  -3   29.45    1.85   0-0.40168 0.98731 0.96026-0.32556-0.48515-0.24835
   4   5  -4    1.23    1.07   0-0.39753 0.90112 0.96014-0.06172-0.48648-0.44348
   4   6  -4   23.38    1.67   0-0.38547 0.79403 0.95970 0.16835-0.49028-0.49333
   4   7  -3    2.28    0.85   0-0.38869 0.68752 0.95983 0.36476-0.48928-0.40389
   4   4  -2    5.84    1.17   0-0.42738 0.99806 0.96053-0.35777-0.47654-0.11290
   4   4  -1   20.49    1.54   0-0.43328 0.98985 0.96049-0.39151-0.47451 0.02845
   4   4   0   57.03    2.22   0-0.41794 0.96001 0.96052-0.42419-0.47974 0.17720
   4   6  -3    4.89    1.24   0-0.44245 0.83803 0.96033 0.13355-0.47130-0.36773
   4   7  -2   27.95    1.89   0-0.43597 0.72055 0.96045 0.33177-0.47358-0.27503
   3   6  -5   12.01    1.41   0-0.46898 0.66095 0.95930 0.29747-0.46167-0.64244
   3   7  -4    0.37    1.03   0-0.46254 0.54475 0.95963 0.49539-0.46407-0.54948
   3   8  -2   13.31    1.44   0-0.45456 0.41244 0.95997 0.65758-0.46699-0.31118
   4   5  -3   32.84    1.85   0-0.44682 0.93726 0.96022-0.09614-0.46978-0.31626
   4   7  -1   28.45    1.96   0-0.46435 0.73434 0.95954 0.29999-0.46340-0.14131
   2   7  -5    1.77    1.25   0-0.47982 0.34493 0.95863 0.62477-0.45748-0.67581
   2   8  -3    7.37    1.21   0-0.47727 0.22049 0.95880 0.78705-0.45846-0.44036
   3   3  -4    1.24    0.85   0-0.49636 0.96081 0.95731-0.42487-0.45101-0.34890
   4   5  -2   87.16    2.81   0-0.47880 0.95533 0.95870-0.12763-0.45787-0.18452
   4   5  -1    0.32    0.99   0-0.49432 0.95591 0.95749-0.15806-0.45182-0.04814
   4   5   0   17.57    1.51   0-0.49109 0.93835 0.95777-0.19243-0.45310 0.09775
   4   6  -2    0.42    0.82   0-0.48186 0.86172 0.95848 0.10396-0.45670-0.23947
   4   6  -1   81.95    2.92   0-0.50361 0.86964 0.95662 0.07204-0.44811-0.10388
   3   5  -5    2.19    0.85   0-0.50863 0.79558 0.95609 0.07100-0.44605-0.60515
   3   7  -3   27.30    1.86   0-0.53088 0.59901 0.95337 0.46772-0.43674-0.43294
   1   7  -5   10.71    1.57   0-0.55418 0.18722 0.94980 0.72915-0.42656-0.68400
   2   8  -2    3.77    1.02   0-0.54640 0.27315 0.95110 0.76169-0.43004-0.32566
   3   3  -3  153.53    3.35   0-0.53890 0.98825 0.95226-0.45161-0.43334-0.22322
   3   4  -4  105.19    3.01   0-0.56341 0.93183 0.94815-0.18460-0.42236-0.43121
   3   6  -4    5.98    1.28   0-0.54627 0.72222 0.95112 0.27347-0.43010-0.53037
   1   8  -2    9.96    1.37   0-0.59421 0.09000 0.94166 0.86855-0.40761-0.32543
   2   7  -4    7.96    1.16   0-0.57422 0.42401 0.94605 0.60477-0.41723-0.57275
   3   5  -4   53.71    2.29   0-0.57681 0.84990 0.94552 0.04777-0.41600-0.49063
   3   7  -2   18.83    1.69   0-0.57787 0.63229 0.94530 0.44223-0.41550-0.31015
   2   6  -5   17.17    1.44   0-0.59867 0.55950 0.94060 0.41214-0.40539-0.67546
   3   4  -3    1.99    0.98   0-0.61038 0.96391 0.93763-0.20638-0.39950-0.31096
   3   6  -3    0.95    0.81   0-0.60146 0.76445 0.93992 0.25132-0.40400-0.41244
   3   7  -1    4.12    1.15   0-0.60876 0.64703 0.93806 0.41758-0.40033-0.18260
   2   7  -3   55.25    2.37   0-0.63949 0.47639 0.92922 0.58782-0.38423-0.46210
   3   4  -2    2.48    0.87   0-0.64047 0.98069 0.92890-0.23126-0.38369-0.18332
   3   5  -3   18.04    1.44   0-0.62675 0.88604 0.93310 0.02709-0.39107-0.37197
   3   6  -2    2.38    1.24   0-0.64106 0.78962 0.92872 0.22975-0.38337-0.29018
   1   7  -4   13.40    1.29   0-0.64872 0.26921 0.92622 0.71948-0.37910-0.58830
   2   5  -5  259.31    4.81   0-0.65688 0.71296 0.92342 0.19890-0.37453-0.65304
   2   6  -4   15.11    1.64   0-0.67149 0.61759 0.91807 0.40159-0.36611-0.57042
   3   4  -1   14.23    1.17   0-0.65621 0.98104 0.92366-0.25813-0.37490-0.04794
   3   5  -2  133.24    3.39   0-0.66253 0.90675 0.92140 0.00600-0.37130-0.24782
   3   6  -1    3.16    1.18   0-0.66556 0.80092 0.92029 0.20460-0.36955-0.16009
   0   7  -4    1.42    1.30   0-0.68606 0.07413 0.91230 0.83034-0.35743-0.58765
   1   6  -5    3.77    1.15   0-0.69326 0.42302 0.90926 0.53872-0.35302-0.70539
   2   7  -2    1.70    1.13   0-0.68693 0.50869 0.91193 0.57121-0.35690-0.34564
   3   5  -1   98.15    2.97   0-0.68341 0.91295 0.91338-0.01835-0.35903-0.11671
   3   5   0   21.35    1.61   0-0.68892 0.90435 0.91110-0.04931-0.35568 0.02346
   1   7  -3    5.17    1.13   0-0.71455 0.31992 0.89956 0.71286-0.33952-0.48281
   2   5  -4   24.20    1.77   0-0.72069 0.76325 0.89655 0.19273-0.33549-0.54831
   2   7  -1   30.22    2.00   0-0.71653 0.52534 0.89860 0.55188-0.33823-0.22087
   2   4  -4    5.69    1.11   0-0.73557 0.87159 0.88882-0.02906-0.32537-0.50537
   2   6  -3    3.17    1.04   0-0.72425 0.65582 0.89473 0.39289-0.33303-0.46172
  -1   7  -3    6.30    1.30   0-0.75841-0.09807 0.87578 0.92810-0.30926-0.46853
   0   6  -5   -0.03    0.71   0-0.75328 0.25004 0.87884 0.66741-0.31298-0.72171
   0   7  -3   11.75    1.11   0-0.75443 0.12948 0.87816 0.83061-0.31215-0.48850
   1   5  -5    3.37    1.43   0-0.76675 0.59247 0.87061 0.34804-0.30308-0.70141
   1   6  -4    6.15    1.34   0-0.76154 0.47684 0.87386 0.54151-0.30696-0.60732
   1   7  -2    6.32    1.23   0-0.75969 0.35091 0.87500 0.70440-0.30832-0.37208
   2   6  -2   30.82    1.96   0-0.76264 0.68147 0.87318 0.38055-0.30614-0.34353
  -1   6  -5   64.98    2.50   0-0.78024 0.04784 0.86175 0.77841-0.29274-0.71948
   1   7  -1  133.29    3.66   0-0.78978 0.36746 0.85510 0.69151-0.28520-0.25078
   2   4  -3   83.45    2.69   0-0.78167 0.90426 0.86077-0.03415-0.29162-0.39522
   2   5  -3   75.80    2.60   0-0.76948 0.79693 0.86886 0.18770-0.30098-0.43907
   2   6  -1   17.09    1.67   0-0.78907 0.69373 0.85561 0.36457-0.28577-0.22004
  -1   7  -2   31.33    1.86   0-0.80888-0.06173 0.84072 0.93089-0.26936-0.36484
   0   7  -2    0.23    0.90   0-0.80034 0.16063 0.84733 0.82872-0.27653-0.38069
   1   4  -5    1.66    1.08   0-0.80469 0.72465 0.84400 0.14471-0.27290-0.67815
   1   6  -3   81.82    3.10   0-0.81096 0.51261 0.83906 0.54346-0.26758-0.50300
   2   5  -2  104.61    3.11   0-0.80444 0.81809 0.84419 0.17911-0.27311-0.32307
   0   6  -4   48.13    2.18   0-0.81881 0.30278 0.83265 0.67916-0.26081-0.63038
   0   7  -1    1.58    1.04   0-0.83116 0.17727 0.82196 0.82072-0.24971-0.26383
   1   5  -4   39.06    2.25   0-0.82526 0.63641 0.82716 0.35814-0.25508-0.60548
   2   4  -2  647.97    7.02   0-0.81479 0.92373 0.83597-0.04257-0.26433-0.27913
   2   5  -1  107.44    3.19   0-0.82797 0.82710 0.82479 0.16599-0.25262-0.20021
  -2   6  -4    2.33    1.55   0-0.84507-0.13258 0.80898 0.89375-0.23656-0.60731
  -1   6  -4   46.96    2.22   0-0.84670 0.10019 0.80739 0.79999-0.23498-0.63360
   0   5  -5    3.31    1.27   0-0.84143 0.43439 0.81247 0.50119-0.24006-0.74123
   1   6  -2  139.54    3.86   0-0.84691 0.53439 0.80719 0.54253-0.23478-0.39208
   2   4  -1    0.74    0.66   0-0.83608 0.93074 0.81747-0.05628-0.24511-0.15573
   0   6  -3   26.33    2.01   0-0.86467 0.33568 0.78879 0.68995-0.21683-0.53075
   1   4  -4   52.81    2.31   0-0.85888 0.76577 0.79500 0.16005-0.22281-0.58480
   1   5  -3    1.07    1.23   0-0.86272 0.66339 0.79090 0.36936-0.21885-0.50535
  -1   5  -5    6.36    1.45   0-0.88234 0.24506 0.76831 0.64278-0.19758-0.76182
   1   6  -1  107.02    3.31   0-0.87198 0.54505 0.78060 0.53611-0.20904-0.27388
  -3   5  -5   43.72    2.25   0-0.88703-0.21471 0.76248 0.84056-0.19223-0.71972
  -3   6  -2   32.60    2.14   0-0.90101-0.33614 0.74383 0.98889-0.17543-0.36279
  -2   5  -5    0.32    1.08   0-0.89877 0.03079 0.74695 0.75924-0.17821-0.75739
  -2   6  -3    1.01    1.01   0-0.89339-0.09866 0.75423 0.91658-0.18474-0.51719
  -1   6  -3    2.57    1.27   0-0.89183 0.13044 0.75630 0.81816-0.18661-0.53837
   0   4  -5  497.65    6.98   0-0.89049 0.58090 0.75804 0.32575-0.18819-0.74052
   0   5  -4   86.60    3.29   0-0.89164 0.47162 0.75653 0.52470-0.18682-0.65106
   0   6  -2   10.62    1.74   0-0.89761 0.35361 0.74854 0.69745-0.17963-0.42399
   1   4  -3   41.05    2.15   0-0.89944 0.79169 0.74603 0.17624-0.17739-0.48655
   1   5  -2   14.44    1.71   0-0.89933 0.68180 0.74617 0.37369-0.17751-0.39616
  -3   6  -1    8.83    1.41   0-0.92616-0.32516 0.70467 0.99532-0.14155-0.24974
  -2   6  -2   42.51    2.28   0-0.92548-0.08047 0.70585 0.93171-0.14255-0.41588
  -1   5  -4    1.53    1.35   0-0.92625 0.27488 0.70452 0.67657-0.14143-0.67671
  -1   6  -2   31.88    2.08   0-0.92238 0.14802 0.71112 0.82999-0.14701-0.43444
   0   5  -3    3.37    1.40   0-0.92710 0.49146 0.70303 0.54814-0.14017-0.55518
   0   6  -1  303.71    5.46   0-0.92025 0.36179 0.71466 0.69804-0.15002-0.30994
   1   4  -2    1.14    1.02   0-0.92830 0.80601 0.70092 0.18905-0.13840-0.38290
   1   5  -1   19.47    1.74   0-0.92104 0.68907 0.71335 0.37337-0.14890-0.28079
  -6   3  -4    2.61    1.34   0-0.93313-0.68236 0.47358 0.92337-0.26501-0.32989
  -5   4  -2    0.64    1.23   0-0.93305-0.57525 0.48509 0.98014-0.26546-0.11832
  -5   4  -1    4.72    1.17   0-0.93312-0.59089 0.47718 0.95408-0.26515 0.02537
  -2   5  -1  106.01    3.33   0-0.93301 0.00837 0.48762 0.88648-0.26555-0.09474
  -2   5   0   32.32    2.19   0-0.93306-0.00583 0.48424 0.85649-0.26543 0.04843
   0   4   1  205.92    4.41   0-0.93311 0.53705 0.47941 0.40647-0.26524 0.19931
  -4   4  -4   15.96    1.50   0-0.93299-0.31602 0.45875 0.97625-0.26438-0.42856
   0   4  -1   75.79    2.82   0-0.93305 0.56614 0.46261 0.48898-0.26455-0.08818
   0   4   0  560.06    7.25   0-0.93300 0.55131 0.45953 0.45923-0.26441 0.05506
  -6   3  -3   19.02    1.79   0-0.93166-0.70071 0.42418 0.93852-0.26265-0.18601
  -6   3  -2   24.48    2.16   0-0.93022-0.71542 0.40323 0.92674-0.26141-0.04549
  -6   3  -1    0.46    0.96   0-0.93091-0.73038 0.41239 0.88880-0.26197 0.09762
  -4   4  -3   78.69    3.02   0-0.93051-0.33345 0.40690 0.99525-0.26164-0.28784
  -1   4   2   11.48    1.41   0-0.93135 0.29115 0.41896 0.52886-0.26235 0.36327
  -5   3  -5   34.99    2.21   0-0.92845-0.44227 0.38377 0.94920-0.26032-0.50110
  -4   4  -2   11.37    1.65   0-0.92771-0.35035 0.37669 0.99261-0.25983-0.14670
  -4   4   0    6.02    1.50   0-0.92757-0.37860 0.37541 0.92726-0.25974 0.14110
  -1   4  -2  250.70    5.22   0-0.92747 0.34382 0.37448 0.70664-0.25968-0.21430
  -1   4   1  289.80    5.36   0-0.92745 0.30052 0.37437 0.60771-0.25967 0.21658
  -4   4  -1    1.75    0.99   0-0.92655-0.36524 0.36665 0.97005-0.25914-0.00402
  -3   4  -3   11.55    1.72   0-0.92549-0.10657 0.35800 0.94850-0.25850-0.31374
  -3   4   1    6.03    1.52   0-0.92330-0.16540 0.34187 0.83155-0.25727 0.26003
  -2   4  -3   83.67    3.12   0-0.92573 0.12537 0.35989 0.85027-0.25864-0.33647
  -1   4  -1  457.42    6.74   0-0.92482 0.32713 0.35287 0.69488-0.25812-0.07189
  -1   4   0    0.91    1.13   0-0.92486 0.31225 0.35317 0.66312-0.25814 0.06982
  -5   3  -4   24.76    2.05   0-0.91919-0.46577 0.31569 0.98538-0.25524-0.36305
  -3   4  -2   85.62    3.27   0-0.92060-0.12596 0.32419 0.94899-0.25595-0.17265
  -3   4  -1   59.09    2.73   0-0.91835-0.14251 0.31080 0.92982-0.25481-0.02998
  -3   4   0    1.13    1.44   0-0.91915-0.15521 0.31541 0.89137-0.25521 0.11294
  -2   4  -2  313.60    5.77   0-0.92020 0.10532 0.32175 0.85518-0.25575-0.19552
  -2   4   0   25.83    2.00   0-0.91775 0.07410 0.30735 0.80421-0.25451 0.09086
  -2   4   1   56.66    2.49   0-0.92155 0.06345 0.33019 0.74783-0.25645 0.23630
  -2   4  -1   13.13    1.45   0-0.91709 0.08684 0.30377 0.84052-0.25424-0.05372
  -6   2  -5   14.15    1.50   0-0.91024-0.59581 0.26893 0.93013-0.25132-0.43522
  -5   3  -3   20.58    1.67   0-0.91066-0.48910 0.27089 0.99644-0.25151-0.22271
  -5   3  -2    5.38    1.56   0-0.90581-0.50719 0.24905 0.98586-0.24934-0.08127
  -5   3  -1    6.87    1.54   0-0.90552-0.52190 0.24781 0.95440-0.24921 0.06197
  -7   1  -5   11.71    1.86   0-0.89466-0.74450 0.20473 0.86177-0.24459-0.36927
  -6   2  -4   67.57    2.84   0-0.89566-0.62510 0.20844 0.95828-0.24500-0.29749
  -4   3  -4   18.89    1.75   0-0.90092-0.25358 0.22876 0.97583-0.24722-0.39373
  -6   2  -3   27.53    2.02   0-0.88561-0.64988 0.17304 0.96113-0.24077-0.15765
  -4   3  -3   15.90    1.98   0-0.88825-0.27968 0.18201 0.98961-0.24184-0.25474
  -8   0  -4    5.75    1.40   0-0.88212-0.90982 0.16164 0.73510-0.23949-0.15282
  -8   0  -3   27.96    2.31   0-0.87682-0.93036 0.14486 0.71940-0.23741-0.00824
  -7   1  -4    6.21    1.48   0-0.87834-0.77776 0.14961 0.88231-0.23801-0.22829
  -6   2  -2   44.24    2.31   0-0.88123-0.66839 0.15878 0.94152-0.23914-0.01508
  -6   2  -1   20.89    1.76   0-0.88387-0.68026 0.16736 0.89951-0.24019 0.12955
  -5   2  -5    8.98    1.61   0-0.87516-0.40060 0.13976 0.96433-0.23677-0.47196
  -4   3  -2  197.75    4.70   0-0.88044-0.30127 0.15624 0.98288-0.23883-0.11461
  -4   3  -1   67.12    2.88   0-0.87820-0.31836 0.14918 0.95623-0.23795 0.02855
  -4   3   0   25.70    1.94   0-0.88300-0.32799 0.16450 0.90857-0.23984 0.17415
  -3   3  -3  661.94    8.44   0-0.87623-0.06013 0.14306 0.93319-0.23718-0.28237
  -2   3  -3   33.95    2.21   0-0.88078 0.17580 0.15735 0.82282-0.23897-0.30322
  -2   3   1   28.66    1.83   0-0.87707 0.11434 0.14565 0.70304-0.23751 0.27011
  -7   1  -3    8.75    1.42   0-0.86935-0.80131 0.12249 0.87663-0.23452-0.08874
  -7   1  -2    0.64    1.13   0-0.86837-0.81625 0.11965 0.84703-0.23414 0.05423
  -3   3  -2  193.07    4.65   0-0.86573-0.08470 0.11206 0.93164-0.23314-0.14256
  -3   3   0  144.07    3.98   0-0.86573-0.11372 0.11205 0.86582-0.23314 0.14477
  -2   3  -2    9.06    1.49   0-0.86801 0.14812 0.11861 0.82834-0.23401-0.16421
  -2   3  -1  157.34    4.00   0-0.86254 0.12839 0.10306 0.81080-0.23193-0.02265
  -2   3   0  106.12    3.31   0-0.86575 0.11748 0.11210 0.76947-0.23314 0.12203
  -5   2  -4    2.16    1.48   0-0.85352-0.43584 0.07860 0.99218-0.22860-0.33704
  -3   3  -1   89.32    3.16   0-0.86136-0.10392 0.09979 0.90987-0.23153-0.00045
  -8  -1  -6    4.74    1.65   0-0.83526-0.83317 0.03272 0.70157-0.22196-0.40478
  -7   0  -6   12.71    1.59   0-0.83511-0.69709 0.03235 0.83638-0.22190-0.48012
  -5   2  -3   59.24    2.87   0-0.83827-0.46553 0.03998 0.99822-0.22304-0.19876
  -6   1  -5    1.01    1.01   0-0.83144-0.57902 0.02366 0.94533-0.22054-0.41313
  -5   2  -2    4.24    1.29   0-0.83045-0.48750 0.02134 0.98380-0.22018-0.05790
  -5   2  -1   10.85    1.60   0-0.83119-0.50185 0.02308 0.94858-0.22045 0.08676
  -4   2  -4   88.84    3.38   0-0.82067-0.23680-0.00111 0.97617-0.21668-0.37114
  -8  -1  -5    0.01    1.84   0-0.80714-0.87797-0.03070 0.73455-0.21188-0.27308
  -7   0  -5    1.16    1.23   0-0.80378-0.74291-0.03782 0.87336-0.21070-0.34763
  -6   1  -4    0.85    1.41   0-0.80806-0.61639-0.02872 0.96472-0.21220-0.27767
  -8  -1  -4   10.47    1.77   0-0.78647-0.91016-0.07315 0.74080-0.20464-0.13307
  -6   1  -3   72.19    3.09   0-0.79352-0.64582-0.05901 0.96219-0.20708-0.13846
  -6   1  -2   30.83    2.26   0-0.78878-0.66472-0.06854 0.93935-0.20544 0.00315
  -6   1  -1   -0.06    1.24   0-0.79352-0.67546-0.05901 0.89655-0.20708 0.14258
  -4   2  -3  102.12    3.36   0-0.79962-0.27265-0.04651 0.98825-0.20920-0.23462
  -4   2  -2    0.71    1.39   0-0.78919-0.29937-0.06773 0.97985-0.20558-0.09601
  -4   2   0  199.17    4.69   0-0.79508-0.32046-0.05584 0.89886-0.20762 0.19460
  -8  -2  -7   63.08    3.21   0-0.77446-0.78404-0.09654 0.63491-0.20067-0.51625
  -8  -1  -3    2.77    1.00   0-0.78102-0.93044-0.08389 0.71851-0.20292 0.00728
  -7   0  -4   10.47    1.37   0-0.78176-0.77963-0.08245 0.88418-0.20317-0.21059
  -7   0  -3    2.06    1.36   0-0.77084-0.80562-0.10341 0.87265-0.19944-0.07132
  -7   0  -2   22.56    1.96   0-0.77077-0.81962-0.10354 0.83965-0.19941 0.07315
  -5   1  -5   37.73    2.41   0-0.77490-0.40414-0.09571 0.96921-0.20082-0.45508
  -4   2  -1   -0.68    1.00   0-0.78588-0.32109-0.07435 0.95275-0.20459 0.04273
  -3   2  -3  193.92    4.51   0-0.77879-0.06219-0.08823 0.93367-0.20215-0.26417
  -6   0  -6   90.18    3.41   0-0.75553-0.54505-0.13162 0.90501-0.19401-0.53044
  -3   2  -2  370.14    5.91   0-0.76226-0.09310-0.11935 0.93225-0.19628-0.12645
  -3   2  -1   35.79    2.11   0-0.75725-0.11236-0.12850 0.90851-0.19459 0.01528
  -3   2   0   95.02    3.04   0-0.76537-0.11900-0.11358 0.86091-0.19734 0.16156
  -5   1  -4  239.91    5.00   0-0.74401-0.44946-0.15209 0.99319-0.18997-0.32202
  -8  -2  -6   -0.13    1.14   0-0.72562-0.84657-0.18353 0.68754-0.18377-0.38922
  -7  -1  -6   20.18    1.89   0-0.72172-0.71489-0.19001 0.82902-0.18247-0.46610
  -6   0  -5    9.62    1.71   0-0.71516-0.60016-0.20079 0.94145-0.18030-0.40002
  -5   1  -3  135.48    3.74   0-0.72288-0.48510-0.18809 0.99650-0.18286-0.18530
  -5   1  -2  126.19    3.82   0-0.71253-0.50997-0.20506 0.97997-0.17944-0.04492
  -5   1  -1   92.90    3.30   0-0.71516-0.52207-0.20079 0.94301-0.18030 0.09974
  -8  -2  -5   13.00    1.63   0-0.69214-0.89464-0.23734 0.71000-0.17266-0.25583
  -4   1  -4  106.17    3.51   0-0.69224-0.26980-0.23719 0.98236-0.17269-0.36183
  -8  -2  -4    6.60    1.44   0-0.67245-0.92861-0.26716 0.70718-0.16616-0.11844
  -8  -2  -3   12.14    1.56   0-0.66701-0.94837-0.27521 0.68104-0.16440 0.02354
  -7  -1  -5   16.10    1.67   0-0.68367-0.76731-0.25031 0.85650-0.16981-0.33448
  -6   0  -4   34.01    2.20   0-0.68477-0.64449-0.24862 0.95562-0.17017-0.26633
  -6   0  -3   14.70    1.80   0-0.66651-0.67779-0.27594 0.94980-0.16424-0.12901
  -9  -4  -5   -0.29    1.20   0-0.65957-0.96773-0.28605 0.39546-0.16189-0.14087
  -9  -4  -4   12.35    1.92   0-0.64902-0.99277-0.30118 0.37645-0.15848 0.00254
  -8  -3  -7    8.45    1.31   0-0.66015-0.80272-0.28521 0.59477-0.16207-0.50156
  -7  -1  -4   44.40    2.40   0-0.65765-0.80771-0.28883 0.86147-0.16126-0.19896
  -7  -1  -3   30.77    2.25   0-0.64472-0.83472-0.30725 0.84684-0.15709-0.05988
  -7  -1  -2    9.94    1.64   0-0.64676-0.84795-0.30437 0.81212-0.15775 0.08378
  -6   0  -2    8.79    1.41   0-0.66091-0.69759-0.28410 0.92475-0.16232 0.01398
  -4   1  -3    5.63    1.11   0-0.66302-0.31233-0.28104 0.99367-0.16300-0.22760
  -4   1  -2  240.37    4.80   0-0.64564-0.34538-0.30596 0.98489-0.15739-0.08990
  -4   1  -1  201.45    4.42   0-0.64365-0.36190-0.30875 0.95482-0.15675 0.05301
  -5   0  -5   13.31    1.60   0-0.63394-0.44880-0.32223 0.96635-0.15347-0.44922
  -3   1  -3  175.20    4.09   0-0.62299-0.12205-0.33718 0.95358-0.14997-0.26323
  -8  -3  -6    9.11    1.47   0-0.60747-0.87016-0.35786 0.63347-0.14492-0.37362
  -6  -1  -6   51.73    2.52   0-0.61703-0.58746-0.34518 0.88872-0.14796-0.52273
  -9  -5  -5    5.10    1.73   0-0.57520-0.95712-0.39912 0.27885-0.13467-0.11161
  -8  -3  -5    0.45    1.15   0-0.57418-0.92116-0.40040 0.64412-0.13435-0.24204
  -7  -2  -6    2.46    1.19   0-0.58867-0.75311-0.38217 0.79095-0.13892-0.45637
  -5   0  -4  151.12    3.95   0-0.59329-0.50437-0.37627 0.98724-0.14038-0.31815
  -8  -4  -7    1.59    1.05   0-0.54647-0.82191-0.43404 0.51304-0.12559-0.48419
  -8  -3  -4   16.73    1.84   0-0.55038-0.95545-0.42938 0.63832-0.12681-0.10491
  -8  -3  -3   14.04    1.73   0-0.54665-0.97384-0.43383 0.61045-0.12564 0.03842
  -7  -2  -5   62.50    2.91   0-0.54567-0.80989-0.43499 0.81238-0.12534-0.32574
  -6  -1  -5   64.89    2.78   0-0.56780-0.65145-0.40827 0.91846-0.13227-0.39448
  -5   0  -3   48.78    2.30   0-0.56651-0.54586-0.40986 0.98871-0.13186-0.18287
  -5   0  -2   98.17    3.23   0-0.55307-0.57330-0.42616 0.97134-0.12765-0.04372
  -5   0  -1    0.56    1.15   0-0.55573-0.58496-0.42297 0.93443-0.12848 0.10035
  -7  -2  -4    3.33    1.39   0-0.51658-0.85375-0.46868 0.81217-0.11624-0.19054
  -6  -1  -4    0.63    0.88   0-0.53229-0.70216-0.45067 0.92808-0.12112-0.26219
  -8  -4  -6    2.14    1.21   0-0.49040-0.89152-0.49775 0.54277-0.10811-0.35763
  -7  -3  -7    1.93    1.07   0-0.50977-0.72050-0.47635 0.68985-0.11409-0.57246
  -7  -2  -3   60.05    2.94   0-0.50276-0.88181-0.48417 0.79483-0.11192-0.05166
  -7  -2  -2    9.02    1.61   0-0.50499-0.89352-0.48169 0.75944-0.11261 0.09303
  -6  -1  -3  103.91    3.32   0-0.51068-0.73787-0.47533 0.92016-0.11437-0.12474
  -6  -1  -2   90.30    3.34   0-0.50385-0.75911-0.48296 0.89383-0.11226 0.01695
  -4   0  -4    6.31    1.14   0-0.51204-0.35457-0.47380 0.98923-0.11479-0.36626
  -4   0  -3   29.09    1.88   0-0.47174-0.40935-0.51782 0.99997-0.10228-0.23535
  -8  -5  -7    1.50    1.05   0-0.44300-0.82841-0.54766 0.39586-0.09340-0.46299
  -8  -4  -5    0.97    0.90   0-0.45265-0.94322-0.53778 0.54996-0.09635-0.22567
  -8  -4  -4    0.98    1.23   0-0.43590-0.97825-0.55483 0.53523-0.09124-0.08747
  -8  -4  -3    1.43    1.31   0-0.43043-0.99447-0.56030 0.50699-0.08957 0.05524
  -7  -3  -6    6.12    1.49   0-0.44702-0.79935-0.54357 0.72244-0.09463-0.44654
  -6  -2  -6    0.42    0.98   0-0.45786-0.65228-0.53240 0.84580-0.09794-0.51980
  -5  -1  -5  128.77    3.64   0-0.45739-0.53041-0.53289 0.94792-0.09780-0.45135
  -4   0  -2  309.35    5.13   0-0.44885-0.44672-0.54169 0.99116-0.09519-0.09875
  -4   0  -1  233.29    4.57   0-0.44461-0.46556-0.54601 0.96237-0.09389 0.04330
  -5  -1  -4   20.38    1.79   0-0.40762-0.59525-0.58266 0.96423-0.08265-0.32258
  -8  -5  -6    2.41    1.15   0-0.38631-0.89949-0.60292 0.41820-0.07612-0.33665
  -7  -4  -7   10.87    1.62   0-0.37657-0.75980-0.61196 0.59545-0.07319-0.55902
  -7  -3  -5    1.84    1.09   0-0.40056-0.85993-0.58944 0.73588-0.08043-0.31748
  -6  -2  -5    8.32    1.34   0-0.40154-0.72289-0.58851 0.86901-0.08072-0.39233
  -5  -1  -3  371.76    5.89   0-0.37357-0.64344-0.61472 0.96292-0.07228-0.18950
  -8  -6  -7   16.77    1.77   0-0.36617-0.81159-0.62147 0.24211-0.06999-0.43340
  -8  -5  -5    5.36    1.35   0-0.34996-0.95150-0.63604 0.42016-0.06512-0.20371
  -7  -3  -4   64.04    2.72   0-0.36941-0.90502-0.61852 0.73188-0.07096-0.18291
  -7  -3  -3    5.25    1.43   0-0.35502-0.93372-0.63152 0.71152-0.06664-0.04396
  -7  -3  -2    4.92    1.49   0-0.35945-0.94454-0.62755 0.67457-0.06797 0.10241
  -6  -2  -4   12.48    1.45   0-0.36142-0.77767-0.62577 0.87401-0.06856-0.26097
  -5  -1  -2    1.54    1.14   0-0.35672-0.67449-0.63000 0.94479-0.06715-0.05141
  -5  -1  -1  302.93    5.37   0-0.36059-0.68556-0.62653 0.90913-0.06831 0.09367
  -8  -7  -7    4.97    1.72   0-0.32489-0.75690-0.65794 0.04676-0.05743-0.39077
  -8  -5  -4   -0.03    1.18   0-0.33123-0.98446-0.65249 0.40223-0.05932-0.06578
  -8  -5  -3    3.79    1.09   0-0.33199-0.99805-0.65183 0.36904-0.05955 0.07841
  -6  -2  -3   12.01    1.52   0-0.33629-0.81689-0.64809 0.86241-0.06084-0.12552
  -6  -2  -2   38.14    2.28   0-0.32968-0.83825-0.65382 0.83576-0.05886 0.01655
  -8  -6  -6   12.08    1.41   0-0.30879-0.88315-0.67157 0.25818-0.05264-0.30672
  -7  -4  -6   13.43    1.62   0-0.31084-0.84020-0.66985 0.62008-0.05325-0.43433
  -6  -3  -6    2.41    1.39   0-0.29121-0.72318-0.68611 0.76957-0.04741-0.51686
  -4  -1  -4  183.35    4.09   0-0.28366-0.48748-0.69224 0.97823-0.04517-0.38288
  -8  -7  -6    0.54    1.71   0-0.26762-0.82865-0.70505 0.06115-0.04040-0.26645
  -8  -6  -5    1.32    0.80   0-0.27218-0.93339-0.70144 0.25435-0.04175-0.17410
  -8  -6  -4    0.04    1.09   0-0.25791-0.96254-0.71266 0.23215-0.03753-0.03820
  -7  -5  -7    0.48    1.28   0-0.25913-0.78157-0.71171 0.46469-0.03789-0.54126
  -7  -4  -5   -0.05    1.40   0-0.26131-0.90253-0.71001 0.62208-0.03853-0.30716
  -5  -2  -5    9.22    1.48   0-0.25805-0.63482-0.71255 0.89838-0.03757-0.45893
   2   6  -7    3.40    1.62   0-0.40124 0.39538 0.82472 0.59220-0.70874-0.65946
   2   7  -5    2.90    1.51   0-0.40277 0.27112 0.82422 0.75695-0.70870-0.42454
   3   7  -3   33.57    1.92   0-0.40058 0.47025 0.82494 0.59593-0.70875-0.16069
   3   7  -2   21.18    1.84   0-0.41092 0.46644 0.82147 0.56616-0.70843-0.01781
   3   7  -1    4.66    1.28   0-0.40553 0.44601 0.82330 0.53089-0.70862 0.12582
   4   5  -3   30.41    1.92   0-0.39182 0.88394 0.82773 0.03628-0.70892-0.07744
   4   5  -2   82.81    2.91   0-0.39314 0.86992 0.82732 0.00422-0.70890 0.06553
   1   7  -5   12.43    1.59   0-0.44365 0.07675 0.80922 0.87048-0.70648-0.40354
   3   6  -5   13.06    1.56   0-0.43240 0.62676 0.81363 0.44228-0.70731-0.39727
   2   7  -4    7.31    1.05   0-0.44816 0.30125 0.80737 0.74242-0.70622-0.28487
   3   6  -4    6.91    1.39   0-0.46615 0.64698 0.79965 0.42493-0.70439-0.25761
   3   6   0    3.45    1.16   0-0.45421 0.57576 0.80484 0.28710-0.70566 0.31886
   1   6  -7    2.46    1.13   0-0.47638 0.23474 0.79494 0.72050-0.70315-0.64369
   1   7  -4   15.50    1.38   0-0.49045 0.11030 0.78816 0.85796-0.70116-0.26644
   2   6  -6   47.79    2.27   0-0.47936 0.45685 0.79354 0.59231-0.70276-0.52209
   2   7  -3   56.82    2.30   0-0.47372 0.31118 0.79618 0.72105-0.70350-0.14352
   3   4   0    0.62    0.54   0-0.47761 0.79034 0.79436-0.16249-0.70299 0.42184
   3   5  -5    1.54    1.16   0-0.49108 0.78221 0.78785 0.23662-0.70107-0.34980
   3   5   0   24.49    1.75   0-0.48612 0.70346 0.79029 0.07108-0.70181 0.36895
   3   6  -3    0.11    1.14   0-0.48496 0.65146 0.79086 0.40117-0.70198-0.11655
   3   6  -2    4.07    1.15   0-0.49066 0.64164 0.78805 0.36989-0.70113 0.02741
   3   6  -1    3.03    1.23   0-0.48085 0.61565 0.79283 0.33349-0.70256 0.17228
   2   6  -5   19.60    1.76   0-0.52835 0.49176 0.76769 0.58494-0.69424-0.38718
   3   4  -4  105.78    3.18   0-0.53779 0.90839 0.76208 0.00055-0.69211-0.16161
   3   4  -1   12.68    1.14   0-0.51970 0.84652 0.77263-0.10861-0.69605 0.27306
   3   5  -4   49.57    2.28   0-0.51931 0.79560 0.77285 0.21953-0.69613-0.21077
   3   5  -3   17.33    1.67   0-0.53325 0.79481 0.76480 0.19471-0.69315-0.07031
   3   5  -2  129.48    3.51   0-0.53315 0.77973 0.76486 0.16254-0.69318 0.07303
   3   5  -1  103.03    3.05   0-0.51813 0.75024 0.77351 0.12060-0.69637 0.22037
   1   6  -6   10.13    1.08   0-0.54785 0.29273 0.75584 0.72628-0.68964-0.51264
   2   6  -4   19.02    1.81   0-0.55953 0.50806 0.74829 0.57137-0.68654-0.25098
   3   4  -3    2.52    0.80   0-0.54709 0.90361 0.75632-0.02662-0.68983-0.02149
   3   4  -2    1.88    0.70   0-0.54177 0.88349 0.75963-0.06283-0.69115 0.12414
  -1   6  -6    1.19    1.17   0-0.57851-0.13787 0.73523 0.93794-0.68086-0.47456
   0   5  -8    0.60    1.26   0-0.57754 0.21673 0.73592 0.68087-0.68116-0.73537
   0   6  -6   15.00    1.51   0-0.58313 0.09584 0.73189 0.84564-0.67936-0.49968
   2   5  -6   28.20    1.84   0-0.56433 0.63752 0.74509 0.40967-0.68515-0.48663
   2   6  -3    2.88    1.26   0-0.57685 0.50939 0.73641 0.55102-0.68138-0.11355
   2   6  -2   35.74    2.14   0-0.58023 0.49987 0.73399 0.51937-0.68030 0.03009
  -1   5  -8    2.87    1.23   0-0.60513 0.00919 0.71508 0.79583-0.67160-0.71617
   1   5  -7    1.37    1.06   0-0.59583 0.45158 0.72238 0.56201-0.67504-0.61745
   1   6  -5    4.10    1.16   0-0.59374 0.32564 0.72398 0.72296-0.67579-0.38190
   2   5  -5  254.08    4.94   0-0.60269 0.66148 0.71702 0.40530-0.67252-0.35551
   1   6  -4    5.35    1.28   0-0.62109 0.33888 0.70186 0.71339-0.66531-0.24833
  -1   6  -5   65.72    2.43   0-0.62930-0.10349 0.69473 0.94595-0.66181-0.35025
   0   6  -5   -0.24    0.72   0-0.62713 0.12825 0.69664 0.84702-0.66277-0.37600
   1   5  -6   40.48    2.29   0-0.64514 0.48703 0.68019 0.57134-0.65437-0.49436
   1   6  -3   94.51    3.10   0-0.63720 0.33893 0.68760 0.69501-0.65819-0.11294
   2   4  -5   43.64    2.25   0-0.64549 0.79949 0.67986 0.21201-0.65419-0.32026
   2   5  -4   24.33    1.60   0-0.62747 0.67138 0.69635 0.39322-0.66262-0.22208
   2   5  -3   68.74    2.73   0-0.64019 0.66947 0.68484 0.37179-0.65678-0.08382
   2   5  -2  114.38    3.20   0-0.64118 0.65622 0.68392 0.33957-0.65630 0.05932
   2   5  -1  114.33    3.11   0-0.62947 0.62975 0.69458 0.29591-0.66173 0.20827
  -2   4  -9   32.75    2.01   0-0.65909-0.05614 0.66646 0.74088-0.64718-0.81090
   0   5  -7    6.31    1.02   0-0.65033 0.27379 0.67515 0.70531-0.65178-0.61834
   0   6  -4   50.09    2.26   0-0.65505 0.13926 0.67051 0.84115-0.64934-0.24200
   2   4  -1    1.42    0.94   0-0.65934 0.75491 0.66620 0.09445-0.64705 0.24577
  -2   5  -7   28.82    1.79   0-0.66631-0.17392 0.65903 0.91327-0.64322-0.58064
  -1   5  -7   33.23    1.84   0-0.67473 0.06708 0.65005 0.82621-0.63832-0.60818
   0   4  -8   19.36    1.71   0-0.67797 0.41271 0.64650 0.53663-0.63637-0.72332
   1   5  -5    3.84    1.52   0-0.67850 0.50621 0.64591 0.57260-0.63604-0.37003
   2   4  -4    3.80    0.99   0-0.66692 0.80650 0.65839 0.19964-0.64287-0.18737
   2   4  -3   77.58    2.68   0-0.67707 0.80100 0.64749 0.17884-0.63692-0.05038
   2   4  -2  573.62    6.78   0-0.67523 0.78466 0.64950 0.14382-0.63802 0.09451
   0   5  -6   22.41    1.87   0-0.69514 0.30386 0.62680 0.72093-0.62528-0.50116
  -3   4  -8    0.80    1.18   0-0.71555-0.24418 0.60093 0.86977-0.61033-0.67979
  -2   5  -6   15.71    1.40   0-0.71616-0.13869 0.60011 0.93914-0.60985-0.46976
   1   4  -6   11.28    1.49   0-0.70537 0.64163 0.61418 0.40690-0.61805-0.47782
   1   5  -4   42.73    2.18   0-0.70105 0.51285 0.61959 0.56594-0.62116-0.24030
   1   5  -3   -0.60    1.26   0-0.71223 0.50785 0.60533 0.55224-0.61291-0.11260
   1   5  -2   15.14    1.59   0-0.71526 0.49838 0.60131 0.51856-0.61055 0.03638
  -2   4  -8   26.90    1.78   0-0.73196 0.00172 0.57783 0.79756-0.59668-0.71742
  -1   4  -8    6.37    1.05   0-0.71819 0.22165 0.59728 0.68167-0.60826-0.72912
  -1   5  -6    6.32    1.02   0-0.71819 0.09551 0.59728 0.84676-0.60826-0.49471
   0   4  -7  227.02    4.77   0-0.72767 0.44696 0.58406 0.56660-0.60041-0.61636
   0   5  -5    1.67    1.33   0-0.72518 0.32043 0.58761 0.72679-0.60253-0.37961
  -2   5  -5    0.51    0.97   0-0.74648-0.12069 0.55545 0.95088-0.58307-0.35280
  -1   5  -5    8.20    1.35   0-0.74671 0.11050 0.55508 0.85611-0.58283-0.37598
   0   5  -4   98.90    3.18   0-0.74485 0.32550 0.55806 0.72346-0.58466-0.25328
   1   4  -5    0.16    0.99   0-0.73314 0.65079 0.57605 0.41755-0.59561-0.36245
  -2   3  -9   13.81    1.50   0-0.75878 0.13851 0.53474 0.64335-0.57025-0.83453
   0   5  -3    2.25    1.33   0-0.75615 0.32261 0.53931 0.70872-0.57310-0.12165
   1   4  -4   47.30    2.12   0-0.75194 0.65893 0.54644 0.40887-0.57753-0.23050
  -3   3  -9    4.95    1.24   0-0.76166-0.09289 0.52957 0.74477-0.56720-0.81404
  -3   4  -7   10.51    1.39   0-0.76627-0.20929 0.52118 0.91675-0.56191-0.58552
  -1   4  -7    1.95    0.97   0-0.76188 0.24894 0.52918 0.71862-0.56696-0.62590
  -1   5  -4    0.08    1.20   0-0.76943 0.11968 0.51526 0.85227-0.55816-0.25316
   0   4  -6   42.50    2.14   0-0.76144 0.46677 0.52997 0.58732-0.56745-0.50509
   1   3  -5  168.48    3.86   0-0.76609 0.78333 0.52152 0.23633-0.56213-0.33566
   1   4  -3   43.12    2.02   0-0.76144 0.65495 0.52997 0.39234-0.56745-0.09636
   1   4  -2    0.04    0.78   0-0.76342 0.63962 0.52641 0.36877-0.56522 0.03662
  -2   4  -7   12.13    1.25   0-0.77461 0.03127 0.50519 0.83700-0.55173-0.61906
  -1   3  -8    3.88    1.39   0-0.78074 0.37828 0.49273 0.55596-0.54372-0.73936
   0   4  -5  508.85    6.90   0-0.78445 0.47532 0.48485 0.59960-0.53862-0.39008
   1   3  -4    7.95    1.17   0-0.78232 0.78525 0.48939 0.23570-0.54157-0.21243
  -4   3  -8   27.20    2.01   0-0.79007-0.30691 0.47230 0.86478-0.53051-0.68446
  -3   4  -6   83.37    2.82   0-0.79662-0.19414 0.45684 0.94827-0.52034-0.48309
  -1   4  -6   -1.42    1.39   0-0.79192 0.26176 0.46803 0.74429-0.52771-0.52408
  -3   3  -8   55.77    2.43   0-0.80526-0.06034 0.43471 0.80669-0.50563-0.73261
  -2   3  -8    2.48    1.31   0-0.80138 0.16820 0.44498 0.70071-0.51249-0.74835
  -2   4  -6   -0.02    1.23   0-0.80244 0.04328 0.44221 0.86521-0.51065-0.51862
   0   3  -6  559.40    7.24   0-0.80251 0.60275 0.44204 0.44471-0.51053-0.50816
   0   4  -4   61.59    2.49   0-0.79947 0.47639 0.44984 0.60161-0.51572-0.26895
  -3   4  -5   76.65    2.80   0-0.81529-0.18981 0.40556 0.96676-0.48593-0.37391
  -1   3  -7   33.66    2.27   0-0.81155 0.39475 0.41694 0.59892-0.49365-0.64659
  -1   4  -5   13.33    1.85   0-0.81031 0.26875 0.42055 0.75994-0.49609-0.41056
   0   4  -3  134.48    3.43   0-0.80866 0.46974 0.42528 0.59323-0.49929-0.14220
   0   4  -2   74.69    2.69   0-0.81174 0.45877 0.41637 0.56908-0.49327-0.00461
  -4   2  -9    5.24    1.01   0-0.81720-0.17018 0.39971 0.74124-0.48181-0.82365
  -4   3  -7   17.50    1.61   0-0.82109-0.29071 0.38671 0.91724-0.47290-0.59836
  -3   2  -9    4.19    1.29   0-0.82066 0.06619 0.38820 0.65554-0.47392-0.85448
  -2   4  -5   55.31    2.51   0-0.81934 0.04664 0.39266 0.88398-0.47698-0.40594
  -1   4  -4  135.89    3.57   0-0.82245 0.26687 0.38195 0.76603-0.46962-0.29280
   0   3  -5   59.08    2.56   0-0.82042 0.60619 0.38901 0.46517-0.47448-0.40090
  -5   2  -8   17.00    1.86   0-0.82872-0.40373 0.35815 0.84518-0.45312-0.68609
  -3   3  -7    1.79    1.27   0-0.82957-0.05005 0.35466 0.85488-0.45068-0.64467
  -2   3  -7  159.69    4.04   0-0.82699 0.17886 0.36504 0.74682-0.45792-0.65929
  -2   4  -4   27.86    2.05   0-0.83004 0.04332 0.35270 0.89105-0.44930-0.28999
  -1   4  -3  207.39    4.36   0-0.82961 0.25998 0.35450 0.76020-0.45056-0.16809
  -2   2  -8  212.59    4.81   0-0.83615 0.29866 0.32435 0.59070-0.42939-0.77862
  -1   3  -6   42.51    2.29   0-0.83078 0.39990 0.34944 0.63364-0.44708-0.54937
   0   3  -4   75.41    2.63   0-0.83151 0.60343 0.34624 0.47523-0.44483-0.28678
  -4   2  -8   -0.84    1.16   0-0.84034-0.16374 0.30108 0.80975-0.41273-0.75393
  -4   3  -6    0.42    0.89   0-0.83770-0.28701 0.31626 0.95466-0.42356-0.50379
   0   2  -5    4.35    1.16   0-0.83959 0.72113 0.30560 0.31854-0.41596-0.40576
   0   3  -3   39.40    1.91   0-0.83804 0.59476 0.31440 0.47418-0.42224-0.16609
  -6   1  -8    4.70    1.44   0-0.84476-0.52407 0.27013 0.79954-0.39036-0.67198
  -5   1  -9   28.76    1.88   0-0.84277-0.28020 0.28522 0.72046-0.40126-0.82794
  -3   2  -8    3.81    1.18   0-0.84234 0.07361 0.28817 0.72251-0.40339-0.78216
  -3   3  -6    8.75    1.66   0-0.84301-0.05064 0.28348 0.89199-0.40001-0.55048
  -2   3  -6   84.94    2.96   0-0.84128 0.17876 0.29523 0.78390-0.40846-0.56510
  -1   3  -5   36.26    2.07   0-0.84199 0.39675 0.29052 0.66010-0.40508-0.44726
  -5   2  -7   16.24    1.36   0-0.84512-0.40277 0.26680 0.90331-0.38805-0.60699
  -4   1  -9   12.25    1.57   0-0.84699-0.04393 0.24922 0.66044-0.37525-0.87705
  -4   3  -5   86.61    2.85   0-0.84601-0.29372 0.25894 0.97963-0.38234-0.40144
  -1   3  -4  214.56    4.37   0-0.84776 0.38802 0.24059 0.67716-0.36893-0.34001
  -3   3  -5   20.81    1.87   0-0.84907-0.05983 0.22286 0.91935-0.35580-0.45070
  -2   2  -7    3.54    1.24   0-0.84834 0.29611 0.23357 0.64825-0.36369-0.70015
  -2   3  -5    2.57    1.16   0-0.84825 0.17111 0.23477 0.81209-0.36457-0.46682
  -1   2  -6    5.22    1.20   0-0.84825 0.51217 0.23477 0.51844-0.36457-0.57874
  -6   0  -9    6.22    1.23   0-0.85012-0.40936 0.20095 0.67046-0.33946-0.81393
  -5   2  -6   14.61    1.59   0-0.85040-0.41165 0.19090 0.94621-0.33197-0.51920
  -4   2  -7    7.48    1.24   0-0.84986-0.16626 0.20776 0.86672-0.34452-0.67285
  -3   2  -7   -0.52    1.49   0-0.85031 0.06232 0.19462 0.78077-0.33475-0.70534
  -2   3  -4   31.55    2.03   0-0.85054 0.15918 0.18241 0.83079-0.32562-0.36045
  -1   3  -3   98.15    2.89   0-0.85010 0.37546 0.20144 0.68328-0.33983-0.22551
  -7  -1  -9    1.76    1.32   0-0.85051-0.54322 0.16007 0.57818-0.30891-0.76826
  -6   1  -7    0.20    0.87   0-0.85061-0.53112 0.17308 0.86224-0.31871-0.60263
  -5   1  -8    3.88    1.05   0-0.85060-0.28750 0.17553 0.79663-0.32055-0.76510
  -3   1  -8   -1.13    1.42   0-0.85046 0.16994 0.15721 0.62918-0.30675-0.83096
  -3   3  -4   17.99    1.52   0-0.85061-0.07229 0.17381 0.93592-0.31926-0.34379
  -1   2  -5  127.71    3.47   0-0.85053 0.50047 0.16153 0.55901-0.31001-0.48916
  -5   0  -9    5.61    1.36   0-0.84961-0.17724 0.13171 0.64429-0.28729-0.88906
  -5   2  -5   10.02    1.45   0-0.84946-0.42645 0.12867 0.97649-0.28497-0.42256
  -4   1  -8  219.87    4.64   0-0.84999-0.05544 0.14049 0.73647-0.29397-0.81474
  -4   2  -6    5.35    1.42   0-0.84957-0.18042 0.13095 0.91089-0.28671-0.58869
  -2   2  -6 1106.79    9.70   0-0.85034 0.28365 0.15149 0.69809-0.30232-0.61794
  -2   3  -3   37.25    1.91   0-0.85004 0.14388 0.14188 0.83870-0.29503-0.24741
  -7   0  -7    0.41    1.07   0-0.84885-0.66958 0.11840 0.78415-0.27706-0.56588
  -6   1  -6   20.48    1.65   0-0.84685-0.55092 0.09301 0.90997-0.25753-0.51769
  -3   2  -6   45.89    2.14   0-0.84878 0.05009 0.11741 0.82825-0.27630-0.62061
  -6   0  -8   24.02    1.59   0-0.84606-0.42728 0.08512 0.75391-0.25141-0.75818
  -5   1  -7   20.36    1.61   0-0.84575-0.30626 0.08213 0.85849-0.24910-0.69277
  -4   2  -5   10.26    1.57   0-0.84358-0.20055 0.06351 0.94575-0.23462-0.49662
  -2   2  -5  273.52    4.82   0-0.84502 0.26317 0.07548 0.74084-0.24394-0.53225
  -8  -1  -6    4.64    1.31   0-0.83935-0.82922 0.03411 0.70416-0.21147-0.40969
  -7  -1  -8    4.63    1.23   0-0.83951-0.56875 0.03508 0.66954-0.21224-0.72150
  -7   0  -6   11.03    1.38   0-0.83951-0.69356 0.03508 0.83469-0.21224-0.48667
  -6  -1  -9   59.48    2.51   0-0.84141-0.32103 0.04762 0.59454-0.22209-0.87826
  -4   1  -7   73.03    2.91   0-0.84072-0.07925 0.04291 0.80124-0.21839-0.74621
  -3   1  -7   68.80    2.88   0-0.84183 0.15304 0.05050 0.69790-0.22434-0.76322
  -3   2  -5   56.82    2.49   0-0.84106 0.02827 0.04521 0.86737-0.22019-0.53320
  -7  -2  -9    1.23    1.17   0-0.83500-0.46380 0.00940 0.49841-0.19189-0.83182
  -6   1  -5    1.53    0.93   0-0.83823-0.57324 0.02753 0.94332-0.20623-0.42515
  -5   0  -8   -0.17    1.32   0-0.83605-0.20783 0.01510 0.72605-0.19641-0.83397
  -4   2  -4  100.51    3.17   0-0.83427-0.22424 0.00555 0.97038-0.18884-0.39792
  -2   1  -6    4.57    1.26   0-0.83506 0.36331 0.00972 0.61025-0.19214-0.67445
  -2   2  -4  174.65    3.74   0-0.83481 0.23872 0.00838 0.77518-0.19108-0.44159
  -6   0  -7    1.62    1.27   0-0.83021-0.45574-0.01435 0.81943-0.17289-0.69121
  -5   1  -6   39.42    2.10   0-0.83315-0.33258-0.00020 0.90784-0.18418-0.61390
  -4   0  -8    0.60    0.99   0-0.83290 0.02261-0.00145 0.64900-0.18318-0.87245
  -3   2  -4   22.78    1.78   0-0.82933 0.00199-0.01839 0.89796-0.16965-0.44056
  -3  -7  -2   42.53    2.95   0 0.69001-0.68544-0.87975-0.37624-0.17291 0.32743
  -3  -6  -1   15.03    2.15   0 0.69727-0.80317-0.87639-0.18297-0.17425 0.41998
  -2  -8  -2   31.70    2.56   0 0.68691-0.35570-0.88115-0.70127-0.17234 0.35742
  -3  -7  -6   10.52    1.66   0 0.70640-0.64688-0.87187-0.25129-0.17589-0.24376
  -3  -7  -3    7.99    1.82   0 0.71529-0.69802-0.86738-0.35517-0.17752 0.18831
  -3  -5  -1   54.01    2.89   0 0.71026-0.91153-0.86995 0.04082-0.17660 0.36920
  -2  -8  -6    9.46    1.72   0 0.71946-0.33309-0.86520-0.58432-0.17827-0.21150
  -2  -8  -3    0.07    1.59   0 0.71695-0.37101-0.86652-0.68519-0.17782 0.21363
  -3  -7  -5  146.08    4.76   0 0.72413-0.67861-0.86254-0.29391-0.17907-0.09693
  -3  -7  -4   17.49    1.91   0 0.72689-0.69549-0.86104-0.32818-0.17957 0.04721
  -3  -6  -2   76.21    3.72   0 0.73395-0.82567-0.85710-0.16917-0.18085 0.28311
  -3  -5  -2   31.48    2.44   0 0.74303-0.93099-0.85183 0.05602-0.18248 0.23184
  -2  -8  -5   64.28    3.30   0 0.73526-0.36204-0.85635-0.62573-0.18108-0.06537
  -2  -8  -4   94.51    3.98   0 0.73410-0.37633-0.85701-0.65796-0.18087 0.07832
  -1  -8  -2   17.54    2.03   0 0.73735-0.17519-0.85515-0.82225-0.18146 0.34296
  -3  -6  -5   15.68    1.94   0 0.75398-0.80422-0.84509-0.08117-0.18442-0.14481
  -3  -6  -4   43.09    2.99   0 0.76146-0.82582-0.84030-0.11857-0.18575 0.00037
  -3  -6  -3   -0.33    1.22   0 0.75454-0.82861-0.84474-0.15452-0.18452 0.13889
  -3  -5  -4   26.48    2.33   0 0.76192-0.92199-0.84000 0.11118-0.18583-0.05273
  -3  -5  -3   17.92    2.05   0 0.76075-0.93384-0.84077 0.07825-0.18562 0.09041
  -1  -8  -6   10.98    1.74   0 0.76299-0.14557-0.83930-0.70521-0.18602-0.22746
  -1  -8  -3    7.78    1.70   0 0.76624-0.19065-0.83715-0.80796-0.18659 0.20442
   0  -8  -6   -0.85    1.97   0 0.76538 0.08477-0.83772-0.80758-0.18644-0.24960
  -2  -7  -2    4.10    2.04   0 0.78580-0.55233-0.82333-0.52878-0.18994 0.32149
  -1  -8  -5    0.60    1.34   0 0.77887-0.17482-0.82835-0.75059-0.18873-0.08046
  -1  -8  -4   10.76    1.82   0 0.78042-0.19104-0.82724-0.78357-0.18900 0.06292
   0  -8  -5   11.87    2.73   0 0.79055 0.04182-0.81978-0.85365-0.19077-0.10080
   0  -8  -3    0.22    1.53   0 0.78332 0.02278-0.82514-0.91269-0.18951 0.18367
  -2  -7  -6   31.53    2.76   0 0.79902-0.50804-0.81318-0.40591-0.19215-0.25099
  -2  -7  -3  147.50    5.28   0 0.80766-0.55990-0.80619-0.51273-0.19363 0.18228
   0  -8  -4   67.92    3.45   0 0.79384 0.02667-0.81723-0.88998-0.19125 0.04248
  -2  -7  -5   23.60    2.42   0 0.81451-0.53819-0.80039-0.45138-0.19476-0.10456
  -2  -7  -4  211.69    6.10   0 0.81682-0.55491-0.79840-0.48719-0.19516 0.04000
  -2  -6  -1   90.95    4.11   0 0.81666-0.69166-0.79854-0.35652-0.19513 0.41763
  -2  -6  -2   62.75    3.75   0 0.84517-0.70696-0.77168-0.34988-0.19987 0.27874
  -2  -6  -5   40.52    3.22   0 0.86041-0.67860-0.75541-0.26699-0.20232-0.15011
  -2  -6  -4    3.17    2.04   0 0.86551-0.69859-0.74960-0.30637-0.20313-0.00671
  -2  -6  -3   20.99    2.71   0 0.86114-0.70802-0.75458-0.33434-0.20244 0.13676
  -2  -5  -1    0.66    1.13   0 0.85246-0.82363-0.76409-0.16053-0.20104 0.36903
  -1  -7  -6   14.66    2.35   0 0.85626-0.33451-0.75998-0.55455-0.20166-0.26490
  -1  -7  -2    0.91    1.56   0 0.84948-0.38412-0.76723-0.68046-0.20056 0.30848
  -2  -5  -2    4.02    1.75   0 0.87724-0.83403-0.73549-0.15539-0.20496 0.23008
  -1  -7  -5    0.94    1.47   0 0.87028-0.36228-0.74398-0.60475-0.20388-0.11821
  -1  -7  -4   39.45    3.48   0 0.87383-0.37995-0.73971-0.64145-0.20443 0.02542
  -1  -7  -3   35.77    2.88   0 0.86692-0.38804-0.74795-0.66625-0.20335 0.16846
   2  -7  -5   31.66    3.38   0 0.87846 0.32203-0.73396-0.90142-0.20515-0.18696
  -2  -5  -4    0.47    1.62   0 0.88984-0.81860-0.71912-0.10661-0.20685-0.05514
  -2  -5  -3   12.00    2.06   0 0.88935-0.83170-0.71978-0.13803-0.20677 0.08841
  -1  -6  -1   12.55    2.54   0 0.89363-0.53861-0.71387-0.53656-0.20741 0.40586
   0  -7  -6   11.35    1.93   0 0.88453-0.13093-0.72622-0.68477-0.20604-0.28329
   0  -7  -3   10.50    2.33   0 0.89791-0.18683-0.70777-0.80317-0.20805 0.14965
   0  -7  -2   34.96    2.83   0 0.88335-0.18685-0.72777-0.81592-0.20586 0.29152
   1  -7  -6    2.03    1.41   0 0.88662 0.09866-0.72345-0.78413-0.20636-0.30493
   1  -7  -2   14.88    2.24   0 0.89261 0.03733-0.71531-0.92425-0.20726 0.26845
   2  -7  -4   14.80    2.81   0 0.88864 0.29766-0.72075-0.94865-0.20667-0.04141
   2  -7  -3    0.95    1.79   0 0.88610 0.28781-0.72414-0.97851-0.20628 0.10193
   0  -7  -5    0.20    1.41   0 0.89865-0.15596-0.70669-0.73962-0.20809-0.13809
   0  -7  -4   70.82    3.62   0 0.90303-0.17742-0.70020-0.77727-0.20873 0.00685
   1  -7  -5    2.77    1.79   0 0.90414 0.06545-0.69852-0.84048-0.20889-0.15990
   1  -7  -4   37.04    2.91   0 0.90933 0.04618-0.69046-0.88276-0.20963-0.01599
   1  -7  -3    9.31    2.11   0 0.90644 0.03525-0.69499-0.91034-0.20922 0.12816
  -1  -6  -5  185.85    6.14   0 0.92290-0.51134-0.66760-0.45028-0.21148-0.16440
  -1  -6  -2  103.55    4.62   0 0.91447-0.54504-0.68214-0.53555-0.21033 0.26597
  -1  -6  -4   49.99    3.33   0 0.92806-0.53005-0.65811-0.49307-0.21213-0.01994
  -1  -6  -3   -1.02    1.69   0 0.92556-0.53531-0.66275-0.52666-0.21180 0.11973
   0  -6  -1   59.57    4.07   0 0.93602-0.34893-0.64243-0.70467-0.21315 0.38889
  -1  -5  -1   92.39    4.34   0 0.93843-0.67793-0.63741-0.38368-0.21341 0.35905
   0  -6  -6    3.39    2.18   0 0.94395-0.28564-0.62534-0.55540-0.21407-0.32705
   3  -6  -5   19.44    3.28   0 0.94559 0.39148-0.62160-0.87947-0.21425-0.25411
  -1  -5  -2  139.86    5.30   0 0.95302-0.67792-0.60356-0.38407-0.21500 0.21691
   0  -6  -5   30.81    3.23   0 0.95494-0.31024-0.59855-0.61574-0.21520-0.18355
   0  -6  -3  331.86    8.41   0 0.95783-0.34287-0.59074-0.68965-0.21549 0.10372
   0  -6  -2    5.14    2.00   0 0.95091-0.34921-0.60890-0.70498-0.21478 0.24546
   1  -6  -6    6.02    2.14   0 0.95644-0.06774-0.59454-0.68206-0.21535-0.34952
   2  -6  -6    2.25    1.68   0 0.95286 0.16806-0.60396-0.76925-0.21499-0.37229
   3  -6  -4    3.23    2.50   0 0.95542 0.36858-0.59729-0.93738-0.21525-0.10868
   3  -6  -3   11.67    2.24   0 0.95683 0.35295-0.59349-0.97536-0.21539 0.03509
   3  -6  -2   19.05    2.20   0 0.95149 0.34180-0.60744-0.99435-0.21484 0.17786
  -1  -5  -4  368.24    8.22   0 0.95908-0.65703-0.58726-0.33375-0.21559-0.06936
  -1  -5  -3    2.73    1.52   0 0.95908-0.67109-0.58726-0.36687-0.21559 0.07470
   0  -6  -4  539.81    9.97   0 0.95908-0.32959-0.58726-0.65999-0.21559-0.03988
   1  -6  -2   10.86    2.67   0 0.96582-0.13321-0.56693-0.84280-0.21618 0.22497
   2  -6  -5    1.53    1.90   0 0.96508 0.14203-0.56930-0.83839-0.21612-0.22846
   2  -6  -2    3.20    2.21   0 0.96678 0.09796-0.56379-0.94232-0.21626 0.20089
   1  -6  -5    1.06    1.70   0 0.96686-0.09146-0.56359-0.74683-0.21630-0.20503
   1  -6  -4    0.90    2.42   0 0.97173-0.11098-0.54659-0.79416-0.21663-0.06101
   1  -6  -3   13.60    2.79   0 0.97093-0.12402-0.54953-0.82645-0.21658 0.08182
   2  -6  -4    0.89    2.03   0 0.97089 0.12157-0.54968-0.88956-0.21658-0.08437
   2  -6  -3  106.15    5.05   0 0.97145 0.10747-0.54763-0.92416-0.21662 0.05843
   0  -5  -1    2.17    2.18   0 0.97733-0.48574-0.52409-0.59300-0.21690 0.33899
   4  -5  -5    2.35    2.91   0 0.97733 0.49601-0.52408-0.84358-0.21690-0.32616
   0  -5  -5  126.76    5.38   0 0.98277-0.43462-0.49742-0.48579-0.21697-0.23523
   0  -5  -2   83.34    4.58   0 0.98387-0.47858-0.49113-0.59280-0.21696 0.19563
   4  -5  -4   33.57    3.57   0 0.98448 0.47339-0.48747-0.91370-0.21694-0.18434
   0  -5  -4   31.44    2.93   0 0.98612-0.45169-0.47702-0.53976-0.21679-0.09181
   0  -5  -3   95.91    4.55   0 0.98633-0.46706-0.47561-0.57475-0.21678 0.05182
   4  -5  -3   11.90    2.36   0 0.98686 0.45757-0.47185-0.96265-0.21674-0.04128
   4  -5  -2    3.30    1.51   0 0.98622 0.44334-0.47632-0.99156-0.21678 0.10279
   5  -4  -5    0.23    2.72   0 0.98854 0.62092-0.45873-0.77573-0.21658-0.40289
   1  -5  -5   69.96    4.35   0 0.99107-0.21213-0.43290-0.64649-0.21610-0.25982
   1  -5  -1   42.29    3.32   0 0.98981-0.26688-0.44713-0.76592-0.21638 0.31519
   3  -5  -5    4.65    2.31   0 0.99040 0.25249-0.44083-0.83128-0.21626-0.30491
   3  -5  -1   -0.16    2.41   0 0.99118 0.19417-0.43154-0.97302-0.21607 0.26899
   0  -4  -1  207.09    6.86   0 0.99271-0.59657-0.40497-0.48228-0.21531 0.28445
   1  -5  -4    4.29    2.41   0 0.99256-0.22683-0.40850-0.70430-0.21541-0.11554
   1  -5  -3   29.32    3.42   0 0.99275-0.24101-0.40382-0.74263-0.21527 0.02618
   1  -5  -2  135.04    5.52   0 0.99216-0.25533-0.41664-0.76322-0.21564 0.17082
   2  -5  -5   18.94    3.14   0 0.99234 0.01827-0.41326-0.76235-0.21555-0.28324
   2  -5  -1   68.31    4.16   0 0.99223-0.03770-0.41541-0.89336-0.21561 0.29100
   3  -5  -4    3.96    2.37   0 0.99245 0.23560-0.41094-0.89425-0.21548-0.16210
   3  -5  -3   88.79    5.01   0 0.99290 0.22061-0.39931-0.93849-0.21513-0.01974
   3  -5  -2   10.14    2.65   0 0.99265 0.20619-0.40627-0.96498-0.21535 0.12429
   5  -4  -4   11.74    3.75   0 0.99279 0.60258-0.40268-0.86460-0.21524-0.26147
   0  -4  -4   28.11    3.10   0 0.99324-0.55459-0.37298-0.41411-0.21418-0.14741
   0  -4  -2  208.51    6.81   0 0.99324-0.58320-0.37236-0.48155-0.21416 0.13957
   2  -5  -4   62.70    4.07   0 0.99319 0.00343-0.38706-0.82185-0.21471-0.14067
   2  -5  -3  514.60   10.85   0 0.99326-0.00991-0.37760-0.86393-0.21436 0.00248
   2  -5  -2   12.97    2.38   0 0.99318-0.02454-0.38806-0.88778-0.21474 0.14710
   5  -4  -3   -0.22    2.39   0 0.99325 0.58862-0.37439-0.92663-0.21424-0.12071
   5  -4  -2    2.67    1.85   0 0.99322 0.57668-0.37026-0.96713-0.21408 0.02428
   5  -4  -1    8.35    2.09   0 0.99325 0.55835-0.37888-0.98613-0.21441 0.16687
   0  -4  -3   38.49    3.12   0 0.99309-0.56890-0.36156-0.45862-0.21370-0.00452
   6  -3  -4    2.33    2.30   0 0.99312 0.73841-0.36282-0.77093-0.21375-0.33901
   4  -4  -5    0.73    1.56   0 0.99189 0.38642-0.33166-0.80649-0.21232-0.38451
   6  -3  -3    4.39    3.43   0 0.99055 0.72511-0.31288-0.85370-0.21134-0.19816
   1  -4  -1  281.32    8.10   0 0.98778-0.35976-0.28514-0.69765-0.20969 0.25508
   4  -4  -4   36.10    3.59   0 0.98800 0.37553-0.28701-0.88217-0.20980-0.24536
   4  -4  -1    0.80    2.63   0 0.98674 0.33438-0.27661-0.99414-0.20915 0.18585
   6  -3  -2    1.59    3.09   0 0.98857 0.71439-0.29219-0.90777-0.21011-0.05579
   6  -3  -1    1.76    2.31   0 0.98881 0.69950-0.29441-0.93832-0.21024 0.08778
   1  -4  -4  340.47    8.57   0 0.98559-0.31556-0.26760-0.61491-0.20860-0.17662
   1  -4  -3   99.85    5.15   0 0.98348-0.32789-0.25309-0.66324-0.20763-0.03404
   1  -4  -2    3.83    2.21   0 0.98411-0.34208-0.25723-0.69152-0.20791 0.10958
   2  -4  -5    6.37    2.60   0 0.98463-0.07069-0.26082-0.68362-0.20815-0.34405
   3  -4  -5   39.66    3.56   0 0.98605 0.15967-0.27099-0.76978-0.20882-0.36681
   4  -4  -3   28.11    3.10   0 0.98523 0.36355-0.26498-0.93866-0.20843-0.10323
   4  -4  -2   52.48    4.35   0 0.98467 0.34960-0.26106-0.97598-0.20817 0.03994
   5  -3  -5   24.84    3.00   0 0.98367 0.52897-0.25438-0.74709-0.20771-0.46721
   7  -2  -1    1.57    3.11   0 0.98439 0.83895-0.25913-0.83887-0.20804 0.00928
   2  -4  -4   43.87    4.00   0 0.97820-0.07676-0.22232-0.75543-0.20531-0.20334
   2  -4  -1   53.82    4.27   0 0.97940-0.12070-0.22875-0.84990-0.20579 0.22810
   3  -4  -4   -0.92    2.27   0 0.97986 0.15858-0.23133-0.84477-0.20599-0.22615
   3  -4  -3    5.46    3.27   0 0.97627 0.14267-0.21243-0.89706-0.20455-0.08283
   3  -4  -1    6.83    2.92   0 0.97910 0.11009-0.22716-0.94671-0.20568 0.20468
   2  -4  -3  696.36   12.49   0 0.97493-0.08855-0.20589-0.80617-0.20394-0.06101
   2  -4  -2  117.49    5.46   0 0.97526-0.10281-0.20749-0.83807-0.20406 0.08274
   3  -4  -2    1.00    2.34   0 0.97570 0.12824-0.20961-0.93154-0.20423 0.06055
   5  -3  -4   20.66    3.35   0 0.97287 0.52537-0.19621-0.84071-0.20316-0.32719
   4  -3  -5    3.67    2.73   0 0.96273 0.32015-0.15426-0.75387-0.19953-0.45095
   5  -3  -3   10.62    3.04   0 0.96386 0.52098-0.15859-0.90990-0.19992-0.18779
   5  -3  -1   11.77    3.20   0 0.96102 0.49612-0.14787-0.98881-0.19894 0.09851
   6  -2  -4    4.41    2.30   0 0.96173 0.67416-0.15049-0.75438-0.19919-0.40721
   5  -3  -2   47.43    3.99   0 0.95989 0.51028-0.14374-0.95934-0.19855-0.04578
   4  -3  -4   26.76    3.90   0 0.94698 0.32033-0.10055-0.83957-0.19424-0.31402
   4  -3   0   23.91    3.91   0 0.94223 0.26916-0.08614-0.98797-0.19274 0.25951
   6  -2  -3   53.60    4.61   0 0.94513 0.67487-0.09487-0.83987-0.19366-0.26965
   7  -1  -3   13.18    4.41   0 0.94334 0.81534-0.08944-0.71150-0.19309-0.34637
   2  -3  -4   83.88    5.35   0 0.93119-0.12586-0.05474-0.69359-0.18931-0.27203
   3  -3  -4   40.98    4.48   0 0.93036 0.10596-0.05251-0.79158-0.18906-0.29573
   4  -3  -3  174.10    7.62   0 0.93580 0.31792-0.06743-0.90596-0.19072-0.17397
   4  -3  -2  584.85   13.11   0 0.93091 0.30852-0.05399-0.95305-0.18923-0.03179
   4  -3  -1   19.26    4.30   0 0.93262 0.29184-0.05864-0.98058-0.18975 0.11147
   6  -2  -2   61.05    4.83   0 0.93549 0.66995-0.06658-0.90241-0.19062-0.12982
   6  -2  -1   17.66    3.57   0 0.93224 0.65995-0.05758-0.94369-0.18963 0.01282
   6  -2   0    0.85    2.03   0 0.93721 0.64098-0.07143-0.96424-0.19115 0.15878
   8   0  -1   24.43    4.53   0 0.93004 0.93220-0.05163-0.68549-0.18896-0.13915
   2  -3  -3    3.78    2.52   0 0.91954-0.12771-0.02457-0.75846-0.18580-0.13174
   2  -3  -1   25.07    3.47   0 0.92058-0.15757-0.02717-0.82120-0.18610 0.15533
   3  -3  -3   10.98    3.50   0 0.91836 0.10541-0.02162-0.85709-0.18545-0.15600
   3  -3  -1  105.63    6.23   0 0.91694 0.07727-0.01812-0.92680-0.18503 0.13087
   3  -3   0  141.06    6.53   0 0.92866 0.05143-0.04802-0.92991-0.18852 0.27779
   7  -1  -2    5.10    2.45   0 0.92628 0.81684-0.04176-0.79238-0.18780-0.20790
   7  -1  -1    1.32    2.70   0 0.91762 0.81034-0.01980-0.84823-0.18523-0.06723
   7  -1   0    5.28    2.88   0 0.91814 0.79495-0.02109-0.88118-0.18538 0.07567
   8   0   0    1.02    4.14   0 0.92180 0.92243-0.03025-0.73337-0.18647 0.00141
   2  -3  -2   41.94    3.79   0 0.91546-0.13857-0.01451-0.80071-0.18455 0.01005
   3  -3  -2   -0.01    2.45   0 0.91343 0.10290-0.00960-0.90392-0.18395-0.01670
   5  -2  -4   36.73    4.09   0 0.91297 0.49049-0.00851-0.79763-0.18382-0.40083
   5  -2  -3   -0.70    3.62   0 0.89257 0.50147 0.03771-0.87648-0.17797-0.26351
   6  -1  -4    0.24    2.91   0 0.89436 0.64604 0.03384-0.70665-0.17848-0.48162
   4  -2  -4    8.94    3.86   0 0.87111 0.30158 0.08165-0.79177-0.17201-0.38937
   5  -2  -2   32.91    5.03   0 0.88017 0.49556 0.06359-0.93647-0.17451-0.12227
   5  -2  -1    6.85    4.07   0 0.87650 0.48282 0.07099-0.97647-0.17349 0.01957
   5  -2   0    2.07    2.71   0 0.88331 0.46360 0.05718-0.99694-0.17538 0.16594
   2  -3  -5  416.90    7.77   0 0.48072 0.33968 0.28057-0.99651-0.87085 0.26763
   3  -2  -3  208.18    5.68   0 0.46180 0.46595 0.30470-0.95312-0.87339 0.48121
   4  -2  -6    6.20    1.64   0 0.48323 0.71826 0.27732-0.92224-0.87047 0.02447
   4  -1 -10   21.31    2.22   0 0.47967 0.68619 0.28192-0.56771-0.87101-0.59917
   5  -1  -6   21.90    2.45   0 0.47238 0.86572 0.29129-0.80215-0.87205-0.05036
   5  -1  -5  145.56    4.85   0 0.47442 0.84939 0.28867-0.83214-0.87177 0.09245
   4  -1  -2   73.69    3.57   0 0.45081 0.59844 0.31845-0.86484-0.87460 0.54870
   5   0  -9   -0.52    2.05   0 0.45188 0.83312 0.31712-0.49854-0.87450-0.53284
   3  -2  -4    6.86    1.84   0 0.41358 0.52818 0.36360-0.97931-0.87717 0.34142
   4  -1  -9    0.80    1.49   0 0.41441 0.73933 0.36262-0.68039-0.87714-0.45700
   6   1  -7    5.00    1.37   0 0.42804 0.96448 0.34632-0.45903-0.87645-0.31999
   6   2  -8    3.93    2.32   0 0.40839 0.90465 0.36974-0.22052-0.87736-0.51229
   3  -2  -8   21.44    2.71   0 0.38754 0.61169 0.39397-0.87594-0.87767-0.23349
   3  -2  -5   48.90    3.45   0 0.38130 0.57479 0.40111-0.98292-0.87764 0.19790
   4  -1  -3   17.71    2.42   0 0.39319 0.67001 0.38746-0.90159-0.87765 0.40887
   5   0  -8    3.08    1.64   0 0.39117 0.87974 0.38980-0.60325-0.87766-0.38588
   6   1  -6    0.48    1.61   0 0.39520 0.98292 0.38514-0.53130-0.87763-0.17528
   3  -2  -7   18.82    2.32   0 0.36907 0.61644 0.41492-0.93085-0.87745-0.08911
   3  -2  -6   44.89    3.42   0 0.36614 0.60408 0.41820-0.96614-0.87736 0.05311
   4  -1  -8    0.74    2.01   0 0.36055 0.77165 0.42443-0.77017-0.87717-0.30817
   4  -1  -4  171.55    5.92   0 0.35260 0.72526 0.43321-0.91381-0.87682 0.26395
   4   0 -10    0.72    1.92   0 0.35777 0.71036 0.42751-0.47900-0.87706-0.64982
   5   0  -7   18.73    2.67   0 0.35299 0.90377 0.43278-0.67933-0.87684-0.24326
   4  -1  -7    7.05    2.31   0 0.33598 0.78482 0.45128-0.83310-0.87583-0.16737
   4  -1  -6   10.87    2.47   0 0.32477 0.78238 0.46329-0.87753-0.87494-0.02496
   4  -1  -5  164.99    5.87   0 0.33061 0.76192 0.45705-0.90531-0.87542 0.11940
   5   0  -6    0.45    2.05   0 0.33321 0.90958 0.45426-0.73481-0.87563-0.10131
   5   0  -5   67.95    4.25   0 0.32963 0.89875 0.45810-0.77167-0.87535 0.04281
   5   0  -4  101.50    4.66   0 0.34311 0.87084 0.44355-0.78988-0.87631 0.18696
   5   1  -9    2.05    2.40   0 0.34934 0.84061 0.43676-0.38740-0.87668-0.58370
   6   2  -7   88.83    4.38   0 0.33692 0.96076 0.45026-0.33465-0.87590-0.37191
   2  -2  -4  360.29    7.83   0 0.31629 0.39441 0.47216-0.99075-0.87413 0.36066
   2  -2  -5    8.75    2.02   0 0.27633 0.44899 0.51328-0.99922-0.86918 0.21254
   3  -1  -9   12.66    2.56   0 0.26912 0.64900 0.52050-0.73931-0.86808-0.43988
   4   0  -9    2.74    1.92   0 0.27833 0.77524 0.51127-0.59588-0.86948-0.51382
   5   1  -8    0.63    2.00   0 0.27835 0.89757 0.51124-0.49545-0.86948-0.44733
   5   2  -9   -0.71    2.74   0 0.27375 0.82150 0.51587-0.23811-0.86880-0.64632
   2  -2  -6  130.15    5.03   0 0.25718 0.48214 0.53233-0.98496-0.86611 0.06555
   3  -1  -3  107.71    4.34   0 0.26174 0.57063 0.52783-0.94621-0.86688 0.42102
   4   1 -10    8.27    2.01   0 0.25886 0.71406 0.53067-0.35285-0.86640-0.71437
   3  -1  -8   78.36    4.47   0 0.22257 0.68129 0.56567-0.81821-0.85943-0.30456
   3  -1  -4   31.61    2.86   0 0.21292 0.63371 0.57473-0.95991-0.85732 0.26815
   4   0  -8  210.99    6.69   0 0.22287 0.81684 0.56539-0.68382-0.85950-0.38059
   5   1  -7    9.85    2.12   0 0.22942 0.93182 0.55918-0.57703-0.86087-0.31178
   5   3  -9    1.58    2.02   0 0.23185 0.76736 0.55687-0.04785-0.86136-0.70500
   3  -1  -7    9.72    2.55   0 0.19342 0.69647 0.59273-0.87828-0.85272-0.16853
   3  -1  -6   24.45    2.83   0 0.18085 0.69452 0.60410-0.92291-0.84953-0.02713
   3  -1  -5    4.63    2.05   0 0.18665 0.67367 0.59887-0.95100-0.85103 0.11793
   3   0 -10   25.47    2.42   0 0.20483 0.63173 0.58225-0.53828-0.85546-0.64895
   4   0  -7    0.84    2.24   0 0.18492 0.84076 0.60044-0.75213-0.85058-0.24614
   4   0  -3  487.98    9.41   0 0.20752 0.76058 0.57976-0.86375-0.85608 0.33381
   4   2 -10    0.59    2.88   0 0.19050 0.68783 0.59539-0.18731-0.85200-0.78221
   5   1  -6    4.21    1.80   0 0.19871 0.94854 0.58789-0.63713-0.85401-0.17497
   5   1  -5   26.54    3.10   0 0.18634 0.94674 0.59916-0.68373-0.85095-0.03404
   5   2  -8   27.99    2.74   0 0.18575 0.89463 0.59969-0.35376-0.85080-0.51882
   4   0  -6   -0.08    1.90   0 0.16110 0.84869 0.62167-0.80172-0.84416-0.11548
   4   0  -5   21.06    2.79   0 0.15867 0.83844 0.62380-0.84179-0.84347 0.03418
   4   0  -4   50.91    3.32   0 0.17244 0.80991 0.61165-0.86274-0.84729 0.18144
   4   1  -9    1.18    1.83   0 0.16634 0.79244 0.61706-0.47218-0.84562-0.59112
   3   0  -9   43.10    3.43   0 0.12610 0.69642 0.65172-0.64162-0.83360-0.52648
   5   2  -7   52.98    3.69   0 0.12448 0.94178 0.65308-0.44098-0.83307-0.39237
   5   3  -8    8.95    2.15   0 0.12356 0.86134 0.65385-0.17849-0.83278-0.58964
   3   1 -10   -0.04    1.66   0 0.09866 0.64398 0.67441-0.39882-0.82440-0.73379
   4   1  -8   46.53    3.55   0 0.09789 0.84648 0.67504-0.56318-0.82414-0.46902
   5   4  -8    5.73    2.56   0 0.10550 0.78273 0.66883 0.03929-0.82678-0.65066
   3   0  -8   13.48    2.52   0 0.06740 0.74181 0.69932-0.72206-0.81292-0.40477
   4   2  -9    0.11    1.21   0 0.08058 0.78177 0.68893-0.31293-0.81789-0.67347
   5   2  -6   31.88    2.90   0 0.08158 0.97002 0.68813-0.50888-0.81826-0.26404
   2  -1  -7  165.14    5.30   0 0.05586 0.60247 0.70833-0.89798-0.80834-0.18867
   2  -1  -6   65.12    3.48   0 0.03920 0.60515 0.72101-0.94429-0.80159-0.05129
   2  -1  -5   61.57    3.38   0 0.04176 0.58776 0.71907-0.97500-0.80265 0.09318
   4   1  -7  150.75    5.36   0 0.04742 0.88277 0.71479-0.63675-0.80495-0.34442
   4   3  -9   38.75    3.06   0 0.02997 0.73808 0.72791-0.12381-0.79773-0.74535
   5   2  -5   23.39    2.73   0 0.05612 0.98147 0.70813-0.56240-0.80843-0.12968
   5   3  -7   -0.43    1.85   0 0.04346 0.92209 0.71779-0.27418-0.80334-0.47753
   3   0  -7   70.76    3.65   0 0.02346 0.77078 0.73274-0.78878-0.79489-0.27804
   3   1  -9    0.42    1.86   0 0.00625 0.72146 0.74527-0.50487-0.78734-0.62570
   3   2 -10   -0.47    1.19   0 0.02497 0.62211 0.73163-0.22698-0.79554-0.81478
   4   1  -6   97.57    4.50   0 0.01256 0.90337 0.74071-0.69613-0.79014-0.21546
   4   4  -9    6.94    2.16   0 0.02749 0.64554 0.72977 0.10169-0.79662-0.80019
   5   4  -7   18.58    2.36   0 0.00696 0.86882 0.74476-0.07318-0.78766-0.54377
   3   0  -6  170.02    5.14   0-0.00374 0.78386 0.75236-0.84202-0.78280-0.14634
   3   0  -5   25.91    2.57   0-0.01453 0.77995 0.75996-0.88247-0.77779-0.00757
   3   0  -4  184.82    5.25   0-0.00525 0.75645 0.75343-0.90854-0.78210 0.13972
   3   3 -10    2.38    2.09   0-0.00651 0.55801 0.75433-0.02096-0.78152-0.88146
   4   1  -5   33.45    2.73   0-0.00676 0.90813 0.75450-0.74259-0.78141-0.08102
   4   1  -4   72.61    3.64   0-0.00827 0.89510 0.75557-0.77651-0.78071 0.06206
   4   2  -8    0.23    1.48   0-0.00172 0.84878 0.75093-0.40673-0.78372-0.56564
   5   3  -6   20.55    2.44   0-0.00877 0.96572 0.75592-0.34741-0.78048-0.35447
   2   0  -8  190.19    5.56   0-0.07978 0.65665 0.80340-0.73020-0.74494-0.44818
   3   1  -8    0.46    1.66   0-0.06563 0.77884 0.79434-0.58279-0.75245-0.52250
   3   2  -9   13.72    2.40   0-0.08170 0.71407 0.80461-0.33444-0.74390-0.72207
   4   2  -7    1.40    1.52   0-0.06513 0.89993 0.79402-0.48588-0.75272-0.44989
   4   3  -8    1.68    1.40   0-0.06814 0.82171 0.79596-0.22476-0.75114-0.64767
   4   5  -8   10.89    2.21   0-0.06438 0.62588 0.79353 0.23977-0.75311-0.75303
   2   2 -10    7.44    1.71   0-0.11016 0.52450 0.82214-0.22280-0.72809-0.85866
   2   4 -10    8.36    2.46   0-0.10509 0.32995 0.81908 0.24029-0.73097-0.96195
   4   2  -6   12.63    2.50   0-0.11363 0.93437 0.82423-0.55081-0.72610-0.33199
   4   4  -8   19.91    2.02   0-0.09371 0.75215 0.81210-0.01096-0.73733-0.71528
   2   0  -7    1.69    1.35   0-0.13165 0.69488 0.83484-0.79497-0.71559-0.33452
   2   1  -9    6.36    1.91   0-0.13532 0.63166 0.83696-0.50115-0.71340-0.67659
   2   3 -10    5.12    1.56   0-0.13758 0.45658 0.83826-0.00835-0.71205-0.92812
   3   1  -7   43.65    2.86   0-0.12418 0.82308 0.83048-0.65642-0.71999-0.40596
   3   3  -9    0.68    1.16   0-0.13116 0.66842 0.83455-0.13438-0.71588-0.80385
   3   4  -9    1.87    1.88   0-0.13651 0.57800 0.83764 0.09259-0.71269-0.85973
   4   2  -5   71.87    3.60   0-0.14801 0.95463 0.84419-0.60366-0.70572-0.20881
   4   3  -7   46.12    3.18   0-0.14456 0.88421 0.84224-0.30506-0.70783-0.54744
   2   0  -6  150.52    4.43   0-0.17022 0.71864 0.85644-0.84960-0.69178-0.21391
   3   1  -6   80.99    3.62   0-0.16767 0.85257 0.85505-0.71529-0.69340-0.28836
   3   2  -8   18.91    2.43   0-0.16667 0.78458 0.85451-0.41795-0.69403-0.62852
   4   2  -4   19.18    2.25   0-0.16826 0.95948 0.85538-0.64675-0.69302-0.07869
   4   5  -7    0.67    1.37   0-0.17723 0.72829 0.86019 0.13918-0.68729-0.67765
   2   0  -5   62.63    2.79   0-0.19144 0.72617 0.86765-0.89455-0.67801-0.08416
   3   1  -5   19.33    2.22   0-0.19849 0.86852 0.87127-0.76331-0.67333-0.16533
   4   3  -6   34.48    2.84   0-0.20606 0.93136 0.87509-0.37098-0.66824-0.44351
   4   4  -7   31.65    2.47   0-0.18604 0.82980 0.86484-0.09685-0.68156-0.62705
   2   1  -8   75.77    3.27   0-0.21592 0.69779 0.87996-0.57750-0.66149-0.58486
   2   2  -9   54.64    2.86   0-0.21982 0.62055 0.88186-0.31606-0.65880-0.78445
   3   1  -4  817.18    9.62   0-0.21153 0.86770 0.87779-0.80396-0.66450-0.03037
   3   2  -7   12.34    2.15   0-0.23589 0.84084 0.88952-0.48570-0.64752-0.53258
   3   3  -8   -0.28    1.63   0-0.22952 0.74967 0.88652-0.21603-0.65203-0.72650
   3   5  -8    0.56    1.82   0-0.22405 0.55605 0.88390 0.24309-0.65586-0.82637
   2   3  -9   76.49    3.28   0-0.26319 0.56796 0.90185-0.10576-0.62767-0.86879
   2   4  -9    9.71    1.73   0-0.26109 0.47035 0.90093 0.12512-0.62924-0.92038
   3   4  -8    1.91    1.57   0-0.25227 0.67899 0.89702-0.00034-0.63573-0.79244
   3   6  -7   -0.50    1.87   0-0.26286 0.48556 0.90171 0.42271-0.62792-0.76829
   4   3  -5   11.06    2.03   0-0.25477 0.96525 0.89814-0.42719-0.63390-0.33429
   4   4  -6   12.69    2.06   0-0.25913 0.88921 0.90007-0.16572-0.63069-0.53489
   2   1  -7  130.25    4.03   0-0.28399 0.75126 0.91070-0.64080-0.61193-0.49075
   3   2  -6   44.53    2.69   0-0.29527 0.88428 0.91527-0.54507-0.60318-0.43210
   4   5  -6   68.87    3.26   0-0.27053 0.80509 0.90504 0.05931-0.62218-0.59551
   2   2  -8   38.73    2.59   0-0.31079 0.69757 0.92132-0.38960-0.59083-0.70869
   3   3  -7  311.50    6.15   0-0.31074 0.81882 0.92130-0.28808-0.59086-0.64101
   4   4  -5    5.58    1.76   0-0.31965 0.93522 0.92464-0.22360-0.58366-0.43669
   1   4  -9    2.81    1.41   0-0.35210 0.32930 0.93592 0.18652-0.55667-0.96942
   2   1  -6   26.85    2.05   0-0.34033 0.79325 0.93198-0.69521-0.56667-0.39249
   2   5  -8   24.11    2.30   0-0.34248 0.44109 0.93271 0.29145-0.56485-0.89333
   3   2  -5    3.18    1.56   0-0.34191 0.91681 0.93252-0.59476-0.56534-0.32701
   3   4  -7   29.17    2.38   0-0.34377 0.75588 0.93315-0.06851-0.56376-0.72249
   3   5  -7   30.64    2.08   0-0.33423 0.65254 0.92986 0.16301-0.57178-0.76692
   1   3  -9    5.44    1.56   0-0.36683 0.43902 0.94060-0.04827-0.54387-0.92899
   2   3  -8   -0.67    1.49   0-0.36779 0.65400 0.94089-0.17362-0.54302-0.80809
   2   4  -8    7.96    1.60   0-0.37636 0.57076 0.94347 0.05059-0.53543-0.87080
   2   6  -7    3.65    1.96   0-0.37604 0.36699 0.94338 0.47678-0.53571-0.83421
   3   2  -4  153.74    3.96   0-0.37691 0.93744 0.94364-0.63955-0.53493-0.21318
   3   3  -6   16.23    2.06   0-0.37872 0.87327 0.94417-0.34471-0.53331-0.55504
   3   6  -6    0.18    1.29   0-0.37101 0.58152 0.94187 0.35309-0.54018-0.71384
   2   1  -5    0.41    0.80   0-0.38553 0.82408 0.94609-0.74249-0.52722-0.28880
   2   2  -7   73.45    2.87   0-0.38958 0.76137 0.94723-0.44781-0.52354-0.63231
   1   1  -7   18.52    1.79   0-0.42688 0.66352 0.95655-0.59229-0.48854-0.59032
   1   2  -8    4.70    1.39   0-0.43183 0.58710 0.95764-0.32943-0.48372-0.79336
   1   5  -8   12.30    1.87   0-0.42265 0.28955 0.95560 0.36414-0.49262-0.94308
   3   4  -6   37.02    2.52   0-0.42114 0.81964 0.95525-0.12494-0.49407-0.64777
   3   5  -6    4.77    1.61   0-0.42328 0.72543 0.95574 0.10576-0.49201-0.70286
   1   6  -7    0.16    1.81   0-0.44654 0.20558 0.96063 0.55575-0.46922-0.87588
   2   2  -6   80.36    2.90   0-0.45677 0.81530 0.96251-0.49734-0.45890-0.55287
   2   3  -7  112.22    3.56   0-0.45029 0.72644 0.96133-0.23211-0.46546-0.74341
   2   5  -7   65.89    3.06   0-0.45076 0.53634 0.96142 0.22783-0.46498-0.85036
   3   3  -5   17.03    1.60   0-0.43735 0.91662 0.95880-0.39185-0.47835-0.46682
   0   5  -8    0.28    1.14   0-0.46673 0.10430 0.96416 0.45016-0.44861-0.96374
   1   3  -8   71.09    2.92   0-0.47166 0.53060 0.96493-0.10641-0.44347-0.88593
   1   4  -8    2.58    1.39   0-0.47145 0.43550 0.96489 0.12248-0.44370-0.93671
   2   4  -7   34.89    2.39   0-0.47026 0.65091 0.96471-0.00541-0.44493-0.81740
   2   7  -5    1.45    1.54   0-0.47528 0.34167 0.96546 0.61723-0.43969-0.69443
   3   6  -5   12.30    1.55   0-0.46461 0.65790 0.96382 0.29316-0.45080-0.65442
   1   1  -6   27.48    1.73   0-0.49600 0.71844 0.96806-0.63662-0.41753-0.51818
   2   6  -6   44.16    2.34   0-0.48626 0.46170 0.96693 0.41964-0.42804-0.79669
   3   3  -4    0.72    0.98   0-0.48584 0.95085 0.96687-0.43269-0.42848-0.37343
   3   4  -5   21.48    1.77   0-0.48709 0.87109 0.96703-0.17025-0.42714-0.57100
   3   5  -5   -0.33    1.52   0-0.49649 0.78497 0.96812 0.05912-0.41699-0.63443
   0   4  -8   16.36    1.61   0-0.53286 0.26457 0.97076 0.21305-0.37602-0.98349
   1   2  -7  280.75    4.91   0-0.51720 0.65817 0.96993-0.37530-0.39396-0.73858
   1   5  -7    2.35    1.39   0-0.53248 0.38763 0.97074 0.31463-0.37646-0.91559
   1   7  -5   12.97    1.80   0-0.53460 0.16753 0.97082 0.70959-0.37400-0.73643
   2   2  -5   67.19    2.42   0-0.51579 0.86006 0.96984-0.53734-0.39556-0.47256
   2   3  -6   -0.37    1.38   0-0.52462 0.78281 0.97039-0.26738-0.38553-0.68446
   1   6  -6    7.74    1.44   0-0.55725 0.30072 0.97105 0.51138-0.34702-0.85455
   2   4  -6   32.03    2.17   0-0.54940 0.71646 0.97110-0.04540-0.35650-0.76193
   2   5  -6   33.48    2.15   0-0.53815 0.60960 0.97094 0.18494-0.36985-0.80247
   3   4  -4  112.52    3.47   0-0.54326 0.91314 0.97104-0.20747-0.36382-0.49046
   1   3  -7    8.48    1.33   0-0.56034 0.60458 0.97100-0.14555-0.34329-0.84282
   1   4  -7   43.97    2.36   0-0.56493 0.51425 0.97087 0.08399-0.33764-0.90149
   2   6  -5   20.66    2.03   0-0.57080 0.53241 0.97064 0.38233-0.33035-0.75067
   3   5  -4   53.71    2.55   0-0.55862 0.83292 0.97103 0.02280-0.34540-0.56206
   0   5  -7    6.14    1.18   0-0.58359 0.20403 0.96986 0.41211-0.31425-0.95468
  -9  -3  -4    1.58    1.76   0-0.75077-0.98744-0.16527 0.47192-0.14987-0.05714
  -9  -3  -3    0.02    1.42   0-0.75260-0.99964-0.16251 0.43810-0.14980 0.08379
  -5   1  -3  133.03    4.16   0-0.73493-0.47219-0.18857 0.99797-0.15035-0.21798
  -5   1  -2  122.06    4.07   0-0.72072-0.50107-0.20891 0.98511-0.15074-0.07363
  -5   1  -1   91.90    3.59   0-0.72071-0.51585-0.20893 0.95224-0.15074 0.06987
  -5   1   0   42.57    2.41   0-0.73418-0.51662-0.18966 0.89949-0.15037 0.21315
  -8  -2  -5   10.90    1.77   0-0.69970-0.88727-0.23794 0.71151-0.15109-0.27622
  -7  -1  -5   18.35    2.02   0-0.69167-0.75899-0.24875 0.85669-0.15121-0.35257
  -6   0  -4   31.56    2.50   0-0.69276-0.63611-0.24729 0.95651-0.15120-0.28455
  -6   0   0   -0.21    1.52   0-0.69393-0.69368-0.24573 0.82208-0.15118 0.28977
  -8  -2  -4    7.27    1.57   0-0.67621-0.92566-0.26905 0.70979-0.15137-0.13180
  -8  -2  -3   11.75    1.73   0-0.66899-0.94647-0.27837 0.68647-0.15143 0.01106
  -8  -2  -2   44.29    2.68   0-0.67841-0.95112-0.26618 0.64118-0.15135 0.15517
  -6   0  -3   14.59    2.02   0-0.67123-0.67257-0.27548 0.95240-0.15141-0.14054
  -6   0  -1  174.74    4.67   0-0.67143-0.70138-0.27523 0.88504-0.15141 0.14660
  -4   1  -3    4.24    1.41   0-0.66825-0.30790-0.27931 0.99326-0.15144-0.23994
  -4   1   1  101.81    3.37   0-0.68951-0.34454-0.25156 0.83190-0.15122 0.33453
  -9  -4  -5    0.04    1.37   0-0.66095-0.96653-0.28835 0.40015-0.15130-0.14647
  -9  -4  -4   14.22    2.21   0-0.64901-0.99246-0.30331 0.38099-0.15133-0.00216
  -9  -4  -3    3.45    1.59   0-0.66032-0.99609-0.28915 0.33456-0.15130 0.13815
  -7  -1  -4   42.77    2.57   0-0.66137-0.80385-0.28782 0.86385-0.15130-0.20860
  -7  -1  -3   28.00    2.32   0-0.64671-0.83260-0.30616 0.84951-0.15134-0.06512
  -7  -1  -2   13.50    1.90   0-0.64739-0.84670-0.30531 0.81485-0.15134 0.07920
  -7  -1  -1   13.49    1.69   0-0.66368-0.84499-0.28489 0.76101-0.15129 0.22278
  -6   0  -2    8.26    1.43   0-0.66347-0.69456-0.28515 0.92822-0.15129 0.00321
  -4   1  -2  240.81    5.13   0-0.64801-0.34228-0.30455 0.98506-0.15133-0.09555
  -4   1  -1  202.74    4.66   0-0.64495-0.35995-0.30832 0.95551-0.15134 0.04792
  -4   1   0   34.50    2.09   0-0.65842-0.36097-0.29154 0.90488-0.15131 0.19125
  -8  -3  -6    8.39    1.50   0-0.60287-0.87340-0.35830 0.63616-0.15098-0.36650
  -5   0  -4  149.90    4.33   0-0.58857-0.50872-0.37461 0.98830-0.15080-0.30753
  -9  -5  -5    6.21    1.86   0-0.57060-0.96059-0.39460 0.27562-0.15050-0.09332
  -9  -5  -4    1.32    1.63   0-0.56762-0.97850-0.39787 0.24594-0.15044 0.05003
  -8  -3  -5    0.09    1.25   0-0.56564-0.92729-0.40004 0.64434-0.15040-0.22338
  -8  -3  -2   -0.23    1.35   0-0.56426-0.97410-0.40154 0.54863-0.15038 0.20353
  -5   0  -3   46.55    2.56   0-0.55942-0.55246-0.40678 0.98723-0.15028-0.16435
  -5   0   0   53.63    2.48   0-0.57822-0.57732-0.38619 0.86680-0.15063 0.26677
  -8  -3  -4   16.23    1.89   0-0.54535-0.96089-0.42176 0.63306-0.14993-0.07933
  -8  -3  -3   16.10    1.89   0-0.54366-0.97581-0.42355 0.60238-0.14989 0.06342
  -7  -2  -5   63.81    3.02   0-0.53445-0.82087-0.43322 0.81274-0.14966-0.30077
  -6  -1   0   26.81    2.16   0-0.54762-0.74360-0.41936 0.76626-0.14999 0.34213
  -5   0  -2   97.23    3.24   0-0.54812-0.57831-0.41882 0.96633-0.15000-0.02104
  -5   0  -1    0.89    0.98   0-0.55378-0.58777-0.41278 0.92637-0.15013 0.12219
  -7  -2  -4    2.16    1.41   0-0.50738-0.86415-0.46091 0.80769-0.14888-0.15721
  -7  -2  -2    9.04    1.66   0-0.50233-0.89550-0.46595 0.74567-0.14872 0.12965
  -7  -2  -1   21.27    1.82   0-0.52762-0.88517-0.44029 0.68623-0.14948 0.27462
  -6  -1  -4    1.23    1.06   0-0.52088-0.71386-0.44722 0.92696-0.14929-0.23278
  -6  -1  -1   15.14    1.82   0-0.51363-0.76317-0.45460 0.83421-0.14908 0.19770
  -8  -4  -6    2.33    1.24   0-0.47068-0.90995-0.49681 0.54365-0.14761-0.31727
  -7  -2  -3   64.00    2.78   0-0.49597-0.88848-0.47223 0.78556-0.14851-0.01415
  -6  -1  -3  106.34    3.36   0-0.50039-0.74764-0.46785 0.91401-0.14865-0.09030
  -6  -1  -2   93.03    3.26   0-0.49892-0.76374-0.46931 0.88328-0.14860 0.05377
  -8  -4  -2   12.01    1.67   0-0.45360-0.98473-0.51302 0.42644-0.14696 0.25699
  -4   0  -3   30.42    1.92   0-0.45085-0.42962-0.51559 0.99912-0.14685-0.19047
  -4   0   0  102.88    3.12   0-0.46294-0.46131-0.50425 0.88886-0.14733 0.24061
  -8  -5  -7    0.19    1.15   0-0.41988-0.85872-0.54382 0.39657-0.14551-0.41168
  -8  -4  -5    0.79    0.97   0-0.43629-0.95911-0.52900 0.54382-0.14625-0.17377
  -8  -4  -4    1.18    1.26   0-0.42207-0.98747-0.54186 0.52347-0.14561-0.03100
  -8  -4  -3    1.69    1.30   0-0.42853-0.99623-0.53605 0.48495-0.14590 0.11275
  -7  -3  -6    5.59    1.46   0-0.41785-0.82777-0.54563 0.72794-0.14541-0.39453
  -4   0  -2  311.46    5.26   0-0.43271-0.46229-0.53226 0.98273-0.14609-0.04767
  -4   0  -1  229.83    4.51   0-0.43680-0.47283-0.52853 0.94622-0.14627 0.09603
  -5  -1   0    6.28    1.25   0-0.39195-0.66820-0.56831 0.81839-0.14416 0.31342
  -8  -5  -6    2.20    1.25   0-0.35784-0.92838-0.59704 0.41542-0.14235-0.26819
  -7  -3  -5    1.89    1.10   0-0.37401-0.88613-0.58358 0.73243-0.14323-0.25305
  -7  -3  -4   79.20    3.12   0-0.34983-0.92445-0.60361 0.71932-0.14189-0.11174
  -7  -3  -2    6.86    1.49   0-0.35770-0.94428-0.59716 0.64607-0.14234 0.17715
  -6  -2  -5    8.65    1.28   0-0.36873-0.75516-0.58801 0.87067-0.14294-0.33054
  -5  -1  -4   18.92    1.56   0-0.37743-0.62496-0.58070 0.96431-0.14341-0.26179
  -5  -1  -3  355.61    5.74   0-0.34975-0.66701-0.60367 0.95404-0.14189-0.11967
  -5  -1  -1  300.62    5.15   0-0.35675-0.68914-0.59794 0.88187-0.14228 0.16778
  -8  -6  -7   16.85    1.91   0-0.32245-0.85221-0.62565 0.24370-0.14039-0.36137
  -8  -5  -5    3.93    1.34   0-0.32764-0.97159-0.62156 0.40502-0.14071-0.12786
  -8  -5  -4    0.69    1.09   0-0.31973-0.99436-0.62779 0.37921-0.14023 0.01646
  -8  -5  -3    4.26    1.32   0-0.33216-0.99561-0.61797 0.33545-0.14098 0.15964
  -7  -3  -3    3.77    1.21   0-0.34486-0.94389-0.60777 0.69077-0.14172 0.03228
  -6  -2  -4   11.89    1.66   0-0.33362-0.80489-0.61680 0.86680-0.14106-0.18841
  -6  -2  -3   14.99    1.66   0-0.31780-0.83580-0.62930 0.84568-0.14011-0.04536
  -6  -2  -2   39.29    2.27   0-0.32081-0.84635-0.62694 0.81004-0.14029 0.09792
  -6  -2  -1   54.62    2.43   0-0.34486-0.83695-0.60777 0.75790-0.14172 0.24329
  -5  -1  -2    1.26    0.83   0-0.34325-0.68894-0.60906 0.92637-0.14163 0.02332
  -8  -7  -7    4.82    1.42   0-0.27810-0.79863-0.65964 0.04592-0.13774-0.31311
  -8  -6  -6   12.45    1.39   0-0.27399-0.91530-0.66267 0.24806-0.13746-0.22137
  -8  -6  -5   -0.19    0.96   0-0.25473-0.95278-0.67672 0.23047-0.13614-0.08096
  -8  -6  -4    1.08    0.98   0-0.25032-0.96938-0.67988 0.20067-0.13583 0.06471
  -8  -6  -3    6.98    1.16   0-0.27098-0.96125-0.66489 0.15082-0.13726 0.20999
  -7  -4  -6   13.43    1.74   0-0.26552-0.88432-0.66889 0.61996-0.13689-0.35088
  -8  -7  -6    1.02    1.63   0-0.23305-0.86127-0.69211 0.04874-0.13460-0.17061
  -8  -7  -5    8.53    1.83   0-0.21495-0.89209-0.70460 0.02466-0.13326-0.02816
  -8  -7  -4   -0.54    1.11   0-0.22433-0.89985-0.69817-0.00994-0.13396 0.11230
  -7  -4  -5    0.68    1.32   0-0.22626-0.93829-0.69683 0.61480-0.13410-0.20965
  -7  -4  -2   78.31    3.12   0-0.22777-0.97912-0.69579 0.51305-0.13421 0.22115
  -7  -5  -7    0.77    1.16   0-0.19397-0.84557-0.71870 0.47222-0.13172-0.44582
  -7  -4  -4    1.61    0.97   0-0.20714-0.97181-0.70990 0.59483-0.13273-0.06752
  -7  -4  -3    4.39    1.14   0-0.20714-0.98553-0.70990 0.56161-0.13273 0.07631
  -6  -3  -5   18.55    1.54   0-0.18031-0.84794-0.72766 0.77934-0.13065-0.28926
  -6  -3  -4    4.07    1.21   0-0.15163-0.89371-0.74593 0.76617-0.12832-0.14847
  -6  -3  -1    4.65    0.98   0-0.17947-0.90684-0.72821 0.64745-0.13058 0.28542
  -5  -2  -4   39.75    2.09   0-0.15031-0.75700-0.74676 0.89995-0.12821-0.22418
  -7  -5  -6    6.46    1.17   0-0.13811-0.91586-0.75429 0.47493-0.12722-0.30749
  -7  -5  -2    0.05    1.14   0-0.12589-0.98646-0.76170 0.34857-0.12618 0.26064
  -6  -3  -3    2.26    0.97   0-0.13811-0.91904-0.75429 0.74010-0.12722-0.00634
  -6  -3  -2   38.81    1.98   0-0.14826-0.92376-0.74803 0.70104-0.12808 0.13897
  -5  -2  -3  100.13    2.93   0-0.12596-0.79556-0.76165 0.88149-0.12619-0.08262
  -5  -2  -2   44.38    2.05   0-0.12480-0.81154-0.76235 0.84955-0.12609 0.06094
  -5  -2  -1  154.42    3.51   0-0.14544-0.80494-0.74978 0.80308-0.12784 0.20635
  -7  -6  -7    0.51    1.09   0-0.09696-0.84677-0.77872 0.30186-0.12366-0.40098
  -7  -5  -5    0.45    0.90   0-0.10413-0.96436-0.77457 0.46198-0.12430-0.16650
  -7  -5  -4    6.53    1.48   0-0.09101-0.99233-0.78213 0.43547-0.12312-0.02313
  -7  -5  -3    5.20    1.31   0-0.09679-0.99974-0.77882 0.39959-0.12364 0.11925
  -7  -8  -7    2.63    1.49   0-0.04889-0.70328-0.80538-0.13161-0.11922-0.29985
  -7  -6  -6    5.38    1.33   0-0.04673-0.91162-0.80654 0.29650-0.11901-0.26222
  -6  -4  -6   36.88    2.18   0-0.06039-0.85704-0.79919 0.65268-0.12031-0.39035
  -7  -7  -7   11.02    1.25   0-0.04499-0.80301-0.80744 0.10021-0.11890-0.35332
  -7  -6  -5    8.30    1.42   0-0.01855-0.95385-0.82116 0.27693-0.11632-0.12145
  -7  -6  -3   29.72    2.05   0-0.02455-0.97600-0.81810 0.20780-0.11691 0.16644
  -6  -4  -5   52.72    2.44   0-0.01451-0.91820-0.82320 0.64462-0.11592-0.25148
  -7  -8  -6    8.47    1.47   0-0.00615-0.75895-0.82737-0.14513-0.11527-0.16118
  -7  -8  -5    0.12    1.06   0 0.00946-0.79077-0.83502-0.16850-0.11369-0.01872
  -7  -8  -4    0.73    0.97   0 0.00069-0.79588-0.83075-0.20538-0.11458 0.12565
  -7  -7  -6    4.02    1.19   0 0.00154-0.86323-0.83117 0.09107-0.11450-0.21483
  -7  -7  -3   16.30    1.70   0 0.00058-0.90512-0.83069-0.01024-0.11459 0.21701
  -7  -6  -4    8.41    1.27   0-0.01071-0.97580-0.82510 0.24868-0.11573 0.02197
  -6  -4  -4   20.55    1.78   0 0.01167-0.95862-0.83609 0.62437-0.11346-0.11044
  -6  -4  -3   14.16    1.56   0 0.01727-0.97866-0.83876 0.59384-0.11289 0.03326
  -6  -4  -2   74.77    2.80   0 0.00183-0.97770-0.83131 0.55284-0.11447 0.17811
  -7  -7  -5    9.49    1.29   0 0.02353-0.89917-0.84173 0.06665-0.11228-0.07310
  -7  -7  -4   -0.50    0.76   0 0.02353-0.91353-0.84173 0.03448-0.11228 0.06666
  -5  -3  -5   53.10    2.21   0 0.02239-0.81929-0.84120 0.79721-0.11239-0.33071
  -5  -3  -1   12.89    1.33   0 0.05206-0.90690-0.85482 0.67758-0.10926 0.24062
  -6  -5  -6   80.85    2.97   0 0.07474-0.89632-0.86474 0.48822-0.10677-0.35137
  -5  -3  -4    0.34    0.76   0 0.06338-0.87531-0.85983 0.78215-0.10801-0.19164
  -5  -3  -3   39.75    1.89   0 0.08207-0.90850-0.86784 0.75754-0.10595-0.04983
  -5  -3  -2  193.79    3.97   0 0.07898-0.91954-0.86654 0.72286-0.10630 0.09398
  -6  -9  -6    2.67    1.39   0 0.11489-0.55467-0.88113-0.41541-0.10228-0.14364
  -6  -6  -7    0.18    1.02   0 0.10950-0.82173-0.87901 0.30531-0.10289-0.44530
  -6  -5  -5    0.85    1.07   0 0.11446-0.95113-0.88096 0.47172-0.10233-0.21177
  -6  -5  -2  345.75    5.98   0 0.11300-0.99265-0.88039 0.37182-0.10249 0.21951
  -6  -9  -5    2.78    1.12   0 0.12979-0.58575-0.88686-0.44197-0.10056 0.00108
  -6  -8  -7    0.53    0.92   0 0.14780-0.67047-0.89353-0.14193-0.09843-0.34535
  -6  -7  -7    9.01    1.42   0 0.15798-0.77491-0.89717 0.09403-0.09721-0.39813
  -6  -5  -4   19.85    1.60   0 0.13459-0.98538-0.88867 0.44530-0.09999-0.07031
  -6  -5  -3    1.36    0.98   0 0.13431-0.99956-0.88856 0.41339-0.10003 0.07280
  -6  -6  -6    9.69    1.34   0 0.16474-0.89120-0.89953 0.29299-0.09642-0.30810
  -6  -8  -6    0.19    0.71   0 0.19725-0.73129-0.91034-0.15747-0.09248-0.20771
  -6  -8  -5    1.07    1.06   0 0.21862-0.76804-0.91691-0.18245-0.08977-0.06669
  -6  -8  -4    0.52    0.98   0 0.21633-0.78082-0.91622-0.21711-0.09006 0.07785
  -6  -7  -6   11.96    1.57   0 0.20734-0.83720-0.91349 0.07634-0.09121-0.26158
  -6  -6  -5   48.87    2.44   0 0.19837-0.93881-0.91069 0.27068-0.09234-0.16865
  -6  -6  -4    2.50    1.33   0 0.21266-0.96677-0.91512 0.24265-0.09053-0.02729
  -6  -6  -3   26.38    2.03   0 0.20534-0.97464-0.91288 0.20667-0.09146 0.11739
  -5  -4  -5    0.82    0.81   0 0.20228-0.90316-0.91192 0.63652-0.09184-0.29815
  -6  -7  -5    4.08    1.17   0 0.23369-0.87847-0.92128 0.05102-0.08787-0.12188
  -6  -7  -4    0.27    1.18   0 0.24104-0.90039-0.92334 0.02060-0.08692 0.02174
  -6  -7  -3   23.21    1.84   0 0.22760-0.90079-0.91954-0.01719-0.08866 0.16812
  -5  -9  -7    1.85    1.02   0 0.23092-0.42528-0.92049-0.44119-0.08823-0.32205
  -5  -4  -4   29.51    1.71   0 0.23563-0.95153-0.92183 0.61387-0.08762-0.15887
  -5  -4  -3   37.06    2.04   0 0.24847-0.97901-0.92537 0.58427-0.08594-0.01723
  -5  -4  -2  101.05    3.11   0 0.24072-0.98513-0.92325 0.54881-0.08696 0.12771
  -5  -9  -6   20.91    1.96   0 0.28116-0.49084-0.93366-0.45830-0.08163-0.18728
  -5  -5  -6  111.97    3.46   0 0.28045-0.87118-0.93349 0.46137-0.08173-0.39953
  -5  -9  -5    3.31    1.36   0 0.30196-0.52661-0.93839-0.48591-0.07869-0.04742
  -5  -9  -4    0.71    1.06   0 0.29761-0.53421-0.93744-0.52206-0.07930 0.09652
  -5  -8  -7    8.50    1.34   0 0.31890-0.60962-0.94192-0.18722-0.07632-0.38984
  -4  -3  -4    0.73    0.62   0 0.29327-0.87365-0.93646 0.76232-0.07990-0.24295
  -5  -7  -7   23.40    2.05   0 0.33647-0.72150-0.94528 0.04558-0.07380-0.44547
  -5  -5  -5   32.66    1.95   0 0.32733-0.93241-0.94358 0.43777-0.07511-0.26198
  -5  -5  -4   36.03    2.22   0 0.35288-0.97318-0.94812 0.41004-0.07141-0.12247
  -5  -5  -2  137.58    3.86   0 0.34673-0.99589-0.94709 0.34261-0.07231 0.16590
  -4  -9  -7   -0.32    1.27   0 0.34879-0.31258-0.94744-0.51019-0.07201-0.36426
  -5  -8  -6    3.01    0.95   0 0.36679-0.67131-0.95031-0.21222-0.06938-0.25320
  -5  -8  -3    1.75    1.17   0 0.38213-0.73005-0.95247-0.31053-0.06708 0.17514
  -5  -6  -6   -0.46    0.95   0 0.35938-0.85282-0.94917 0.24030-0.07048-0.35813
  -5  -5  -3    2.24    0.93   0 0.36097-0.99454-0.94942 0.37708-0.07024 0.02028
  -5  -8  -5   44.81    2.40   0 0.39202-0.71215-0.95372-0.24101-0.06558-0.11277
  -5  -8  -4    4.93    1.07   0 0.39828-0.73070-0.95446-0.27548-0.06462 0.03007
  -5  -7  -6   37.18    2.24   0 0.38784-0.78821-0.95320 0.02103-0.06622-0.30910
  -5  -6  -5   15.57    1.53   0 0.39724-0.90766-0.95434 0.21925-0.06478-0.21978
  -5  -6  -4   -0.28    1.35   0 0.41294-0.93829-0.95601 0.18069-0.06236-0.08219
  -5  -6  -3   25.63    2.14   0 0.41746-0.95666-0.95644 0.15517-0.06165 0.06466
  -5  -6  -2    4.98    1.49   0 0.39958-0.95210-0.95461 0.11879-0.06442 0.21008
  -4  -9  -6    4.03    1.76   0 0.40722-0.38492-0.95544-0.53293-0.06324-0.22864
  -5  -7  -5   -0.39    1.06   0 0.41902-0.83026-0.95655-0.01401-0.06142-0.17245
  -5  -7  -3    5.82    1.23   0 0.42647-0.86911-0.95719-0.07505-0.06024 0.11631
  -4  -4  -5    2.65    0.84   0 0.41979-0.88973-0.95662 0.58550-0.06130-0.35191
   5   2  -5   24.66    2.16   0 0.03867 0.99756 0.60397-0.45891-0.90062-0.03774
   5   2  -4   18.64    1.79   0 0.04361 0.97842 0.60189-0.48991-0.90087 0.10519
   5   3  -7    0.75    1.41   0 0.02211 0.94432 0.61084-0.17051-0.89963-0.37669
   5   4  -7   21.21    2.09   0 0.01124 0.86142 0.61525 0.05716-0.89884-0.43345
   4   1  -3  228.60    5.29   0-0.00912 0.88123 0.62335-0.67872-0.89711 0.32248
   4   2  -9    0.44    1.53   0 0.00178 0.86098 0.61906-0.24688-0.89810-0.59129
   4   4  -9    6.43    2.26   0-0.00919 0.68058 0.62338 0.20937-0.89710-0.69826
   5   3  -6   23.62    2.52   0-0.02048 0.97513 0.62774-0.21900-0.89597-0.23890
   5   3  -2    5.31    1.35   0 0.00963 0.88765 0.61592-0.33909-0.89874 0.33736
   4   1  -7  149.58    4.93   0-0.03011 0.96014 0.63144-0.55536-0.89494-0.25412
   4   1  -6   88.85    5.03   0-0.05800 0.97336 0.64172-0.59880-0.89140-0.11299
   4   1  -4   75.96    3.59   0-0.04838 0.93538 0.63823-0.66103-0.89270 0.17445
   4   3  -9   45.20    3.57   0-0.03730 0.80174 0.63414-0.02864-0.89409-0.65002
   4   5  -8   10.14    2.15   0-0.04637 0.60572 0.63749 0.39394-0.89296-0.61344
   5   3  -5   42.52    3.03   0-0.04462 0.98535 0.63685-0.26150-0.89318-0.09891
   5   3  -4    3.38    1.77   0-0.04773 0.97465 0.63799-0.29548-0.89278 0.04536
   5   3  -3  165.61    4.95   0-0.03127 0.94314 0.63188-0.32218-0.89481 0.18967
   5   4  -6    2.23    1.78   0-0.04664 0.90613 0.63759 0.00023-0.89292-0.29503
   3   0  -4  184.84    5.01   0-0.09131 0.84216 0.65335-0.80981-0.88624 0.24475
   4   1  -5   36.76    2.91   0-0.06442 0.96547 0.64401-0.63362-0.89047 0.02831
   4   2  -8    2.25    3.17   0-0.08194 0.92989 0.65015-0.31057-0.88779-0.45802
   5   4  -5    1.53    1.98   0-0.08108 0.92609 0.64986-0.04481-0.88792-0.15676
   5   4  -4    0.90    1.88   0-0.09172 0.92438 0.65349-0.08123-0.88617-0.01554
   3   2 -10    0.15    2.49   0-0.10942 0.75533 0.65940-0.15777-0.88302-0.72714
   3   3 -10   -1.31    2.69   0-0.12027 0.67178 0.66291 0.06915-0.88094-0.78332
   4   2  -2    1.04    1.21   0-0.11505 0.87338 0.66123-0.51821-0.88195 0.39650
   4   4  -8   19.66    2.86   0-0.12634 0.78197 0.66485 0.13610-0.87973-0.57365
   4   2  -7    1.12    2.80   0-0.13903 0.97308 0.66883-0.36226-0.87711-0.32549
   4   3  -8    2.66    2.48   0-0.13154 0.88379 0.66650-0.09677-0.87868-0.51994
   4   5  -7   -0.65    2.01   0-0.15311 0.70122 0.67311 0.32200-0.87401-0.49060
   4   2  -6    9.72    4.07   0-0.17635 0.99556 0.67990-0.40540-0.86849-0.19124
   4   2  -5   70.21    4.36   0-0.19395 0.99867 0.68481-0.44357-0.86398-0.05159
   4   2  -4   20.12    3.13   0-0.19069 0.98120 0.68392-0.47550-0.86483 0.09308
   4   2  -3   -0.29    1.66   0-0.16489 0.94356 0.67660-0.49931-0.87128 0.23456
   3   1  -8   -0.76    2.73   0-0.21510 0.92265 0.69046-0.47861-0.85822-0.41338
   3   2  -9   15.45    3.10   0-0.21859 0.84892 0.69136-0.22101-0.85722-0.61058
   3   4  -9   -1.30    2.34   0-0.21700 0.65589 0.69095 0.23612-0.85768-0.71367
   4   3  -7   50.81    3.37   0-0.19803 0.93624 0.68594-0.14977-0.86295-0.39315
   4   4  -7   30.77    2.81   0-0.20572 0.84849 0.68800 0.07912-0.86085-0.44850
   2   4 -10    8.14    1.83   0-0.23662 0.45785 0.69590 0.36409-0.85188-0.84198
   3   1  -7   49.74    3.52   0-0.26134 0.95970 0.70174-0.52911-0.84401-0.28273
   3   3  -9    0.61    1.97   0-0.24553 0.78113 0.69805 0.00112-0.84911-0.67041
   3   5  -8    3.26    1.61   0-0.23860 0.56574 0.69638 0.43366-0.85127-0.63019
   4   3  -6   38.99    3.45   0-0.24396 0.96797 0.69767-0.19404-0.84960-0.26272
   4   4  -6   10.95    2.93   0-0.26258 0.89026 0.70202 0.03255-0.84360-0.32293
   1   3 -11   20.21    2.28   0-0.29948 0.40129 0.70993 0.24561-0.83069-0.93085
   3   1  -6   76.07    3.50   0-0.29378 0.97763 0.70877-0.56916-0.83278-0.14910
   3   1  -4  781.74    9.17   0-0.29549 0.95081 0.70912-0.63539-0.83216 0.13752
   3   2  -8   20.41    2.58   0-0.29793 0.91511 0.70962-0.27378-0.83126-0.49263
   4   3  -5    9.72    2.30   0-0.27205 0.98094 0.70415-0.23300-0.84044-0.12771
   4   3  -4    6.75    2.52   0-0.28113 0.97473 0.70612-0.26639-0.83729 0.01190
   4   3  -3  160.62    4.69   0-0.26701 0.94733 0.70303-0.29738-0.84214 0.16055
   2   2 -10    6.77    1.42   0-0.30825 0.72206 0.71171-0.11368-0.82744-0.76049
   2   3 -10    4.91    1.48   0-0.30770 0.62563 0.71160 0.11814-0.82765-0.81317
   3   1  -5   21.09    2.00   0-0.30548 0.97553 0.71116-0.60430-0.82848-0.00997
   3   4  -8    0.29    1.68   0-0.32026 0.74409 0.71399 0.18220-0.82281-0.60858
   4   4  -5    5.05    1.79   0-0.29883 0.91266 0.70984-0.00822-0.83095-0.19036
   4   4  -4   13.68    2.54   0-0.31687 0.91597 0.71336-0.04433-0.82413-0.05424
   3   2  -7   10.90    2.00   0-0.35818 0.96074 0.72052-0.31743-0.80722-0.37193
   3   3  -8    1.44    1.33   0-0.33468 0.85578 0.71660-0.05011-0.81707-0.55919
   3   5  -7   30.03    2.24   0-0.33714 0.65266 0.71703 0.37683-0.81607-0.52233
   1   4 -10    8.38    1.67   0-0.37169 0.36133 0.72262 0.43179-0.80129-0.87095
   2   4  -9    8.68    1.74   0-0.37952 0.58718 0.72375 0.30300-0.79776-0.75245
   2   5  -8   23.64    2.15   0-0.38981 0.49042 0.72516 0.49695-0.79301-0.66565
   0   3 -11    0.37    1.42   0-0.41422 0.28478 0.72816 0.32613-0.78127-0.95711
   2   2  -9   55.72    2.98   0-0.41231 0.81194 0.72794-0.16261-0.78221-0.66163
   2   3  -9   80.79    3.29   0-0.42178 0.72748 0.72899 0.06570-0.77748-0.71942
   3   2  -6   47.91    2.59   0-0.40016 0.98866 0.72648-0.35659-0.78813-0.24735
   3   2  -5    4.09    1.67   0-0.42468 0.99961 0.72930-0.39203-0.77601-0.11801
   3   3  -7  310.78    5.88   0-0.40176 0.90935 0.72668-0.09384-0.78736-0.44492
   3   4  -7   28.44    2.22   0-0.39749 0.80863 0.72615 0.13738-0.78940-0.49644
   1   3 -10    9.49    1.62   0-0.45637 0.54403 0.73220 0.19212-0.75926-0.85782
   3   2  -4  156.45    3.98   0-0.43242 0.99207 0.73009-0.42604-0.77203 0.02385
   3   3  -6   15.62    2.28   0-0.45184 0.94545 0.73184-0.13217-0.76173-0.32686
   3   4  -6   31.99    2.68   0-0.45593 0.85291 0.73216 0.09852-0.75950-0.38245
   0   4 -10    5.47    1.53   0-0.46467 0.22285 0.73281 0.52154-0.75470-0.89130
   1   2 -10    1.10    1.42   0-0.47624 0.65814 0.73356-0.03908-0.74815-0.81410
   2   1  -7  134.19    3.92   0-0.48280 0.95012 0.73393-0.46510-0.74436-0.35861
   2   4  -8    8.25    1.95   0-0.48076 0.67508 0.73382 0.25865-0.74554-0.66120
   2   5  -7   62.91    3.11   0-0.48628 0.57183 0.73411 0.45528-0.74232-0.57338
   3   3  -5   15.15    2.08   0-0.48772 0.96568 0.73418-0.16689-0.74148-0.20322
   1   4  -9    4.03    1.54   0-0.51001 0.48754 0.73504 0.38624-0.72798-0.79803
   1   5  -8   13.97    1.81   0-0.50477 0.37348 0.73488 0.58366-0.73121-0.70498
   2   2  -8   42.38    2.42   0-0.49229 0.87898 0.73439-0.20329-0.73875-0.56081
   2   3  -8   -0.30    1.69   0-0.51062 0.79718 0.73506 0.03048-0.72760-0.62947
   3   3  -4    1.79    1.47   0-0.50709 0.97006 0.73495-0.20034-0.72979-0.07230
   3   3  -3  154.91    4.14   0-0.50617 0.95564 0.73493-0.23371-0.73035 0.07230
   3   4  -5   18.85    1.97   0-0.49835 0.88091 0.73465 0.06301-0.73511-0.26359
   2   1  -6   30.06    1.90   0-0.52532 0.97783 0.73534-0.49952-0.71832-0.24047
   0   3 -10    1.25    1.31   0-0.56852 0.42468 0.73489 0.28631-0.68916-0.90512
   1   2  -9   16.72    1.99   0-0.57479 0.74396 0.73466-0.07325-0.68468-0.73627
   1   3  -9    5.93    1.64   0-0.56724 0.64069 0.73493 0.15627-0.69006-0.78296
   2   1  -5    1.40    0.79   0-0.55082 0.98941 0.73531-0.53171-0.70145-0.11552
   2   2  -7   81.43    3.05   0-0.55614 0.92838 0.73522-0.23661-0.69780-0.45823
   2   4  -7   35.82    2.28   0-0.55856 0.73918 0.73517 0.22409-0.69613-0.56651
   0   2 -10    9.34    1.64   0-0.60477 0.55681 0.73293 0.05678-0.66237-0.87902
   0   4  -9    3.37    1.52   0-0.60302 0.34978 0.73306 0.48520-0.66371-0.84005
   0   5  -8    0.69    1.03   0-0.58172 0.21793 0.73435 0.68094-0.67965-0.73327
   1   5  -7    1.31    1.43   0-0.60110 0.45439 0.73320 0.55352-0.66518-0.62790
   2   3  -7  116.76    3.60   0-0.58006 0.85571 0.73443-0.00528-0.68086-0.52848
   1   4  -8    3.30    1.27   0-0.60811 0.57152 0.73268 0.35674-0.65977-0.72348
   2   2  -6   85.21    2.89   0-0.60650 0.96388 0.73280-0.26712-0.66102-0.35109
   2   4  -6   30.70    2.42   0-0.62008 0.78609 0.73163 0.19482-0.65035-0.46893
  -1   3 -10    4.91    1.33   0-0.64567 0.27082 0.72882 0.38718-0.62933-0.94137
  -1   4  -9   26.67    2.22   0-0.66136 0.17646 0.72662 0.58768-0.61579-0.86477
   1   2  -8    5.94    1.65   0-0.65569 0.80984 0.72745-0.09960-0.62074-0.65757
   1   3  -8   75.04    3.10   0-0.65283 0.71233 0.72786 0.13004-0.62322-0.70709
   2   2  -5   67.69    2.55   0-0.64394 0.98627 0.72904-0.29583-0.63080-0.23790
   2   3  -6   -0.63    1.23   0-0.63455 0.89337 0.73017-0.02935-0.63863-0.43508
  -2   3 -10    4.33    1.59   0-0.68338 0.07729 0.72303 0.48824-0.59589-0.95360
  -2   4  -9   32.73    2.22   0-0.67837-0.03736 0.72393 0.68578-0.60052-0.85702
   0   3  -9   31.74    2.32   0-0.67674 0.51851 0.72422 0.26341-0.60201-0.84846
   1   1  -7   20.48    1.84   0-0.67903 0.91533 0.72382-0.35884-0.59991-0.47997
   1   4  -7   44.59    2.66   0-0.68540 0.63574 0.72265 0.33226-0.59402-0.64572
   2   3  -5   13.30    1.89   0-0.67815 0.92544 0.72397-0.06094-0.60072-0.32199
   2   4  -5   43.39    2.41   0-0.66832 0.82015 0.72564 0.16727-0.60963-0.36570
  -1   2 -10    2.77    1.38   0-0.69957 0.42145 0.71988 0.16528-0.58051-0.93782
   0   2  -9   68.62    2.91   0-0.70304 0.64017 0.71913 0.03785-0.57714-0.82023
   0   4  -8   17.50    1.98   0-0.70211 0.43448 0.71933 0.46531-0.57805-0.78135
   2   3  -4    8.18    1.47   0-0.70907 0.94257 0.71778-0.08817-0.57121-0.20766
   1   1  -6   31.13    1.92   0-0.73116 0.95307 0.71228-0.38070-0.54860-0.38699
   1   2  -7  307.28    5.32   0-0.72174 0.86295 0.71474-0.12036-0.55838-0.57446
   1   3  -7    8.02    1.70   0-0.72304 0.76692 0.71441 0.11084-0.55705-0.63006
  -1   3  -9   12.32    1.94   0-0.75172 0.36355 0.70633 0.37653-0.52641-0.90141
   1   4  -6   11.51    1.99   0-0.74845 0.68245 0.70734 0.31546-0.53003-0.56579
  -3   4  -8    1.01    1.22   0-0.77706-0.18418 0.69779 0.77498-0.49722-0.79342
  -2   2 -10   15.03    1.44   0-0.76025 0.24969 0.70368 0.27820-0.51686-0.97848
  -1   4  -8    5.66    1.22   0-0.76176 0.26268 0.70318 0.57737-0.51514-0.82223
   0   2  -8  157.22    4.00   0-0.78017 0.70445 0.69662 0.02713-0.49349-0.76040
   0   3  -8   34.81    2.13   0-0.75987 0.58731 0.70381 0.25107-0.51729-0.78966
   0   4  -7  210.60    4.89   0-0.77709 0.49562 0.69777 0.45378-0.49719-0.71962
   1   2  -6    2.57    1.30   0-0.77701 0.90260 0.69781-0.13644-0.49729-0.49226
   1   3  -6   30.72    2.22   0-0.77919 0.81091 0.69699 0.09448-0.49467-0.54781
  -3   2 -10   35.15    2.02   0-0.78658 0.04188 0.69419 0.38397-0.48567-0.98681
  -2   3  -9   14.44    1.71   0-0.79522 0.17439 0.69068 0.48915-0.47489-0.92989
  -2   4  -8   22.57    1.82   0-0.78891 0.05927 0.69326 0.68378-0.48279-0.83130
  -1   2  -9    1.11    1.49   0-0.79294 0.49931 0.69162 0.16256-0.47776-0.89733
   1   4  -5   -1.09    1.53   0-0.79681 0.71443 0.69001 0.30389-0.47287-0.48789
  -3   3  -9    3.47    1.29   0-0.80607-0.04711 0.68594 0.59089-0.46086-0.92018
   1   2  -5  272.92    4.69   0-0.82104 0.93328 0.67886-0.14977-0.44072-0.40467
  -1   3  -8    5.49    1.69   0-0.83137 0.42799 0.67355 0.37838-0.42619-0.85705
  -1   4  -7    0.80    1.49   0-0.83541 0.32192 0.67137 0.57674-0.42035-0.77335
   0   1  -7    1.81    1.22   0-0.83077 0.83500 0.67387-0.21306-0.42704-0.63032
   0   3  -7   36.42    2.04   0-0.82589 0.64000 0.67643 0.24474-0.43396-0.72948
   0   4  -6   40.84    2.62   0-0.83669 0.54153 0.67066 0.44741-0.41849-0.65497
   1   3  -5  175.89    3.87   0-0.82589 0.84297 0.67643 0.08237-0.43396-0.46485
  -2   2  -9   23.77    2.09   0-0.84994 0.32504 0.66298 0.28587-0.39862-0.95344
   0   2  -7    2.48    1.19   0-0.84316 0.75330 0.66699 0.02377-0.40890-0.70160
  -4   3  -8   21.69    1.99   0-0.87484-0.22225 0.64643 0.69196-0.35821-0.85669
  -3   2  -9    6.07    1.41   0-0.87770 0.12230 0.64433 0.40169-0.35329-0.97597
  -3   4  -7   10.26    1.32   0-0.86518-0.11056 0.65321 0.78661-0.37440-0.77324
  -2   3  -8    2.29    1.57   0-0.87245 0.23793 0.64816 0.49885-0.36230-0.89899
  -2   4  -7   11.39    1.33   0-0.86460 0.12018 0.65360 0.69018-0.37536-0.79507
  -1   1  -8   12.71    1.58   0-0.87168 0.65960 0.64871-0.05888-0.36359-0.81347
  -1   2  -8  174.06    4.10   0-0.86489 0.55734 0.65340 0.16657-0.37488-0.85597
   1   3  -4    7.32    1.09   0-0.86402 0.86569 0.65399 0.07199-0.37631-0.37975
  -4   2  -9    4.53    1.08   0-0.87882-0.10971 0.64353 0.49888-0.35133-0.95425
  -3   3  -8   43.68    2.30   0-0.88811 0.02198 0.63632 0.60595-0.33475-0.90322
  -1   3  -7   32.35    2.49   0-0.89212 0.47491 0.63304 0.38403-0.32737-0.81256
  -1   4  -6    0.30    1.55   0-0.89144 0.36387 0.63360 0.58121-0.32863-0.72150
   0   1  -6  171.65    3.68   0-0.88349 0.87421 0.63997-0.21192-0.34310-0.56969
   0   3  -6  569.76    7.05   0-0.87938 0.67877 0.64312 0.24499-0.35037-0.66913
   0   4  -5  463.74    7.00   0-0.88437 0.57466 0.63929 0.44580-0.34153-0.58763
  -4   4  -6   23.92    1.84   0-0.89941-0.31931 0.62671 0.87580-0.31349-0.66814
   0   2  -6    0.61    0.91   0-0.89465 0.78937 0.63083 0.02792-0.32261-0.64465
  -3   4  -6   78.00    2.89   0-0.92290-0.06616 0.60361 0.80323-0.26455-0.74003
  -2   2  -8  271.71    5.46   0-0.91466 0.37617 0.61229 0.30348-0.28256-0.92557
  -2   4  -6   -1.54    1.47   0-0.91836 0.15649 0.60848 0.70208-0.27460-0.75576
  -1   2  -7    3.94    1.55   0-0.91933 0.59912 0.60746 0.17984-0.27249-0.81486
   0   3  -5   63.01    2.66   0-0.92150 0.70700 0.60513 0.24981-0.26768-0.60831
  -5   2  -8   11.53    1.54   0-0.92533-0.30670 0.60092 0.60122-0.25902-0.88122
  -1   1  -7   11.01    1.27   0-0.92621 0.70040 0.59993-0.04300-0.25701-0.77726
  -5  -6 -10    1.78    1.18   0 0.25199-0.69062-0.32634-0.24507-0.84116-0.16098
  -5  -5 -11    5.12    1.27   0 0.24034-0.76012-0.32480 0.01610-0.84092-0.35779
  -5  -5  -6  129.88    4.01   0 0.23975-0.83026-0.32472-0.15010-0.84090 0.36134
  -5  -4  -6   23.00    1.83   0 0.24649-0.93394-0.32562 0.08154-0.84106 0.30802
  -5  -3  -8    1.28    1.19   0 0.23966-0.98829-0.32470 0.37681-0.84090-0.03120
  -5  -3  -7   16.48    1.54   0 0.22721-0.99690-0.32300 0.34288-0.84050 0.11217
  -4  -5 -13   16.98    1.91   0 0.23921-0.49814-0.32464-0.01582-0.84089-0.66687
  -4  -2  -4  203.41    4.06   0 0.24291-0.91862-0.32514 0.37898-0.84098 0.46723
  -5  -6  -9    2.69    1.34   0 0.26525-0.71826-0.32802-0.27630-0.84130-0.01746
  -5  -5 -10   22.12    1.99   0 0.28091-0.81588-0.32995-0.01209-0.84122-0.21269
  -5  -5  -7   12.78    1.69   0 0.28098-0.85757-0.32996-0.11166-0.84122 0.21819
  -5  -4 -10   10.70    1.40   0 0.25789-0.88911-0.32708 0.21601-0.84126-0.26526
  -5  -4  -9    0.94    1.31   0 0.28269-0.92962-0.33016 0.18713-0.84119-0.12396
  -5  -4  -7    3.34    1.40   0 0.27818-0.95266-0.32962 0.11945-0.84125 0.16491
  -5  -5  -9   21.38    1.98   0 0.30136-0.84957-0.33233-0.04296-0.84078-0.06916
  -5  -5  -8    0.78    1.24   0 0.30414-0.86482-0.33265-0.07328-0.84068 0.07355
  -5  -4  -8   15.72    1.55   0 0.29208-0.95094-0.33126 0.15389-0.84104 0.02152
  -4  -6 -12   -0.15    1.17   0 0.30245-0.48240-0.33246-0.26787-0.84074-0.47124
  -4  -3  -4    0.28    0.85   0 0.31524-0.89600-0.33388 0.15937-0.84022 0.51747
  -4  -2  -5   92.19    2.80   0 0.30743-0.96922-0.33302 0.42000-0.84056 0.32362
  -4  -5 -12   15.44    1.54   0 0.34144-0.61640-0.33666-0.03543-0.83867-0.52588
  -4  -4 -12   23.19    1.63   0 0.32190-0.69206-0.33465 0.19285-0.83992-0.57812
  -4  -2  -6  179.21    3.91   0 0.34638-0.99393-0.33715 0.45722-0.83829 0.17770
  -4  -6 -11   24.18    1.79   0 0.36693-0.55982-0.33906-0.29703-0.83647-0.33061
  -3  -5 -13    1.28    1.22   0 0.37383-0.40419-0.33967-0.09428-0.83575-0.69780
  -3  -4 -13    7.70    1.53   0 0.37107-0.49574-0.33943 0.13509-0.83604-0.74846
  -4  -6 -10  144.88    3.79   0 0.40406-0.61180-0.34216-0.32713-0.83201-0.19163
  -4  -5 -11    9.32    1.47   0 0.40749-0.69618-0.34241-0.06360-0.83152-0.38867
  -4  -4 -11   14.72    1.64   0 0.39519-0.78040-0.34147 0.16628-0.83323-0.44083
  -4  -4  -5    3.03    1.04   0 0.40491-0.87569-0.34222-0.03046-0.83189 0.41975
  -4  -3 -10    3.08    1.01   0 0.39138-0.88645-0.34117 0.36509-0.83372-0.35003
  -4  -3  -5  553.88    6.53   0 0.38490-0.95075-0.34063 0.19740-0.83452 0.36994
  -4  -3  -9    8.57    1.50   0 0.42891-0.93840-0.34384 0.33436-0.82814-0.21132
  -4  -3  -6  697.30    7.48   0 0.42826-0.97935-0.34380 0.23335-0.82825 0.21985
  -3  -6 -12    0.07    0.80   0 0.41865-0.36856-0.34315-0.35080-0.82983-0.50685
  -4  -5 -10  102.30    3.19   0 0.44879-0.75208-0.34504-0.09374-0.82457-0.25252
  -4  -5  -9  148.92    3.99   0 0.47145-0.78975-0.34623-0.12515-0.81984-0.11319
  -4  -5  -7    0.60    1.24   0 0.46375-0.81090-0.34585-0.19060-0.82152 0.17433
  -4  -4 -10    7.47    1.19   0 0.44427-0.84367-0.34478 0.13689-0.82544-0.30444
  -4  -4  -6    0.65    0.85   0 0.45381-0.91100-0.34533 0.00627-0.82358 0.26689
  -4  -3  -8   40.03    2.04   0 0.44779-0.97086-0.34499 0.30067-0.82476-0.07062
  -4  -3  -7    0.11    0.84   0 0.44779-0.98438-0.34499 0.26777-0.82476 0.06429
  -2  -5 -13    0.52    1.03   0 0.47370-0.27226-0.34633-0.18378-0.81933-0.73479
  -4  -5  -8   10.28    1.33   0 0.47742-0.80967-0.34650-0.15727-0.81854 0.02900
  -4  -4  -9    0.06    0.87   0 0.47322-0.88471-0.34630 0.10529-0.81950-0.17395
  -4  -4  -8    3.92    1.33   0 0.48672-0.91351-0.34689 0.07311-0.81634-0.02590
  -4  -4  -7  148.60    3.67   0 0.48013-0.92180-0.34662 0.03938-0.81791 0.11890
  -3  -6 -11    5.01    1.08   0 0.48646-0.44843-0.34688-0.38399-0.81641-0.37339
  -3  -5 -12   27.37    1.65   0 0.47569-0.51891-0.34642-0.12231-0.81894-0.56845
  -3  -4 -12    0.53    0.81   0 0.47717-0.61662-0.34648 0.10951-0.81860-0.62194
  -2  -6 -12    2.14    1.06   0 0.49655-0.21372-0.34727-0.44639-0.81389-0.54362
  -2  -4 -13   39.13    2.18   0 0.49232-0.38464-0.34711 0.04625-0.81496-0.79257
  -3  -5 -11    4.91    1.10   0 0.54080-0.59942-0.34834-0.15297-0.80123-0.44222
  -3  -4 -11    5.85    1.44   0 0.54863-0.70133-0.34844 0.07702-0.79869-0.49857
  -3  -5 -10   53.83    2.56   0 0.58556-0.65841-0.34845-0.18586-0.78546-0.31388
  -3  -3 -10    0.32    0.90   0 0.56893-0.83242-0.34855 0.27541-0.79170-0.41479
  -3  -2  -7    1.57    0.95   0 0.58420-0.98850-0.34846 0.40665-0.78598-0.04359
  -3  -2  -6    0.73    0.88   0 0.58277-0.99891-0.34848 0.37352-0.78653 0.10105
  -2  -6 -11   -0.07    0.87   0 0.57363-0.30506-0.34854-0.47289-0.78998-0.42568
  -2  -5 -12   37.01    1.85   0 0.57470-0.38637-0.34853-0.21599-0.78958-0.62055
  -1  -4 -13    8.50    1.37   0 0.57132-0.23139-0.34854-0.04874-0.79083-0.84043
  -3  -4 -10    4.98    1.56   0 0.59851-0.76665-0.34826 0.04407-0.78031-0.37173
  -3  -3  -9   41.54    2.27   0 0.60963-0.88720-0.34802 0.24131-0.77563-0.28722
  -2  -4 -12   22.92    1.66   0 0.59455-0.50206-0.34833 0.01439-0.78193-0.68181
   0  -4 -13    4.63    1.21   0 0.60845-0.04038-0.34805-0.14188-0.77614-0.87784
  -3  -5  -9    1.95    1.12   0 0.61363-0.70011-0.34792-0.21923-0.77390-0.18309
  -3  -5  -8   15.47    1.68   0 0.62661-0.72807-0.34750-0.25195-0.76806-0.04438
  -3  -4  -9   73.16    2.83   0 0.63156-0.81419-0.34731 0.01071-0.76574-0.24406
  -3  -3  -8   73.50    2.76   0 0.63440-0.92675-0.34720 0.20739-0.76439-0.15424
  -3  -3  -6   35.49    1.86   0 0.63738-0.95812-0.34707 0.14114-0.76296 0.13166
  -1  -5 -12    5.05    1.15   0 0.63764-0.21859-0.34706-0.31293-0.76283-0.67080
  -3  -4  -8   36.96    2.20   0 0.65106-0.84744-0.34638-0.02359-0.75615-0.10965
  -3  -4  -7    1.23    1.19   0 0.65500-0.86602-0.34617-0.05676-0.75412 0.03100
  -3  -4  -6  391.94    5.77   0 0.64280-0.86783-0.34680-0.08925-0.76031 0.18175
  -3  -3  -7   23.20    1.56   0 0.64471-0.95061-0.34671 0.17344-0.75936-0.01602
  -2  -5 -11    1.80    0.87   0 0.64174-0.46959-0.34685-0.24882-0.76083-0.50621
  -2  -3 -11   14.65    1.75   0 0.64894-0.66589-0.34649 0.20999-0.75723-0.61644
   0  -5 -12   13.10    1.41   0 0.66283-0.01287-0.34570-0.41025-0.74999-0.70675
  -2  -5 -10   53.11    2.51   0 0.68873-0.53033-0.34383-0.28641-0.73535-0.38791
  -2  -4 -11   28.84    1.91   0 0.66562-0.58677-0.34553-0.02144-0.74849-0.57169
  -1  -4 -12   29.96    1.78   0 0.67618-0.35138-0.34481-0.08554-0.74263-0.74429
  -1  -3 -12    0.47    0.74   0 0.67035-0.44265-0.34522 0.14596-0.74590-0.79361
  -2  -3 -10    4.04    1.41   0 0.70735-0.73928-0.34212 0.17307-0.72382-0.50606
  -1  -5 -11    6.01    1.15   0 0.70885-0.30520-0.34197-0.35129-0.72285-0.56675
  -2  -5  -9   27.66    1.94   0 0.72218-0.57732-0.34054-0.32215-0.71400-0.26537
  -2  -4 -10  296.06    5.21   0 0.71615-0.65272-0.34121-0.05879-0.71807-0.45823
   0  -4 -12   49.08    2.15   0 0.72356-0.16817-0.34038-0.18550-0.71305-0.79648
   0  -3 -12    1.78    1.00   0 0.73555-0.27600-0.33893 0.04248-0.70459-0.85803
   1  -4 -12    3.22    1.20   0 0.73420 0.05076-0.33910-0.27967-0.70556-0.82908
  -2  -4  -9  428.75    6.43   0 0.75268-0.70383-0.33665-0.09677-0.69180-0.34079
  -2  -3  -9   65.97    2.85   0 0.74982-0.79631-0.33706 0.13388-0.69401-0.39222
  -2  -2  -8  111.49    3.25   0 0.74788-0.90377-0.33734 0.33154-0.69549-0.29907
  -1  -4 -11    1.71    1.15   0 0.74851-0.43867-0.33725-0.12509-0.69501-0.64601
  -1  -3 -11   51.29    2.60   0 0.74856-0.53402-0.33724 0.10442-0.69498-0.70134
   0  -5 -11    7.03    1.10   0 0.74527-0.10927-0.33770-0.45131-0.69747-0.61483
   1  -5 -11    2.31    1.04   0 0.74322 0.12076-0.33799-0.54453-0.69901-0.63859
  -2  -2  -7    4.24    1.20   0 0.77168-0.94230-0.33359 0.29450-0.67637-0.17554
  -1  -5 -10   18.17    1.49   0 0.75963-0.36986-0.33556-0.39086-0.68629-0.45934
   1  -3 -12    8.02    1.20   0 0.76699-0.07716-0.33438-0.05640-0.68030-0.90518
  -2  -4  -8   21.01    1.66   0 0.77798-0.74281-0.33249-0.13383-0.67097-0.21820
  -2  -4  -7  192.38    4.25   0 0.79127-0.77138-0.32998-0.16900-0.65904-0.08613
  -2  -4  -6   52.44    2.37   0 0.79269-0.78701-0.32970-0.20244-0.65772 0.05581
  -2  -3  -8  109.65    3.20   0 0.78001-0.84158-0.33212 0.09626-0.66919-0.27258
  -1  -5  -9    8.96    1.54   0 0.79519-0.41951-0.32919-0.43003-0.65538-0.34772
   0  -4 -11    0.32    1.02   0 0.79663-0.25651-0.32889-0.22978-0.65402-0.71194
  -2  -3  -7   10.47    1.16   0 0.79950-0.87440-0.32824 0.05889-0.65132-0.14710
  -2  -3  -6   27.18    1.73   0 0.80684-0.89645-0.32664 0.02475-0.64413-0.01062
  -1  -4 -10   18.26    1.63   0 0.79789-0.50396-0.32858-0.16695-0.65286-0.54628
  -1  -3 -10   35.98    2.11   0 0.80462-0.60535-0.32713 0.06101-0.64633-0.60615
   0  -5 -10   19.54    1.48   0 0.79950-0.17860-0.32824-0.49407-0.65132-0.51771
   0  -3 -11    5.42    1.38   0 0.81177-0.36811-0.32552-0.00261-0.63915-0.77981
   2  -4 -11   11.70    1.52   0 0.80574 0.19644-0.32689-0.42386-0.64523-0.76692
  -1  -2  -9   60.06    2.63   0 0.82995-0.74140-0.32098 0.25239-0.61970-0.54208
   1  -4 -11   44.39    1.90   0 0.81745-0.04606-0.32417-0.33075-0.63328-0.75588
  -1  -4  -9    1.17    1.03   0 0.83567-0.55526-0.31944-0.20938-0.61321-0.44279
  -1  -3  -9   13.83    1.90   0 0.84651-0.66099-0.31626 0.01709-0.60027-0.50939
   0  -4 -10   18.27    1.66   0 0.84795-0.32229-0.31582-0.27575-0.59849-0.62409
   1  -3 -11    6.17    1.17   0 0.84586-0.16978-0.31646-0.10786-0.60107-0.84131
  -1  -4  -8   57.52    2.60   0 0.86273-0.59696-0.31091-0.25118-0.57928-0.33278
   0  -3 -10    7.91    1.58   0 0.86528-0.43513-0.31001-0.05096-0.57579-0.70040
   0  -2 -10   19.88    1.96   0 0.85841-0.52334-0.31240 0.18144-0.58507-0.74390
   2  -3 -11   31.32    1.78   0 0.85306 0.05378-0.31417-0.20599-0.59204-0.87347
   2  -2 -11   15.45    1.37   0 0.86491-0.05292-0.31014 0.02033-0.57630-0.94206
   3  -2 -11    2.63    1.14   0 0.85563 0.18357-0.31333-0.06842-0.58872-0.95398
  -1  -4  -7   44.27    2.31   0 0.88102-0.63003-0.30398-0.29097-0.55291-0.21564
  -1  -3  -8   26.69    2.07   0 0.87746-0.70678-0.30542-0.02686-0.55832-0.40691
  -1  -2  -8  210.20    4.35   0 0.86761-0.79271-0.30919 0.20748-0.57260-0.44539
   1  -4 -10    0.74    0.83   0 0.87192-0.11484-0.30758-0.37988-0.56647-0.67915
   2  -4 -10    2.50    0.76   0 0.87167 0.11758-0.30768-0.47575-0.56683-0.70257
  -1  -2  -7   82.43    2.89   0 0.89488-0.83411-0.29782 0.16287-0.53043-0.34387
   0  -4  -9   32.46    1.88   0 0.88504-0.37322-0.30226-0.32297-0.54664-0.53197
  -1  -3  -7   34.23    1.89   0 0.89947-0.74366-0.29559-0.06928-0.52245-0.29904
   0  -3  -9  457.94    6.61   0 0.90408-0.48686-0.29323-0.10156-0.51406-0.61795
   0  -2  -9  650.86    8.08   0 0.90267-0.58159-0.29397 0.12950-0.51667-0.66834
   1  -3 -10   34.61    1.87   0 0.89795-0.23527-0.29634-0.16133-0.52513-0.77364
   1  -2 -10   11.91    1.63   0 0.90187-0.33610-0.29438 0.06808-0.51812-0.83377
   2  -3 -10    3.80    1.12   0 0.90831-0.01500-0.29096-0.26300-0.50605-0.81681
   3  -3 -10    1.48    0.92   0 0.89904 0.22458-0.29581-0.35350-0.52322-0.82134
   4  -2 -10    0.58    0.91   0 0.89774 0.36195-0.29645-0.21804-0.52552-0.89602
  -1  -3  -6  166.08    3.91   0 0.91421-0.77232-0.28757-0.11028-0.49432-0.18366
   0  -4  -8   51.12    2.27   0 0.91144-0.41460-0.28919-0.36876-0.49993-0.43534
   1  -4  -9   -0.23    0.86   0 0.90884-0.16273-0.29065-0.42797-0.50503-0.60226
   2  -4  -9   -0.34    0.98   0 0.91504 0.05937-0.28708-0.52392-0.49261-0.63378
   4  -3  -9    1.46    1.21   0 0.91616 0.42383-0.28640-0.49074-0.49028-0.73370
   0  -4  -7  211.87    4.47   0 0.93005-0.44722-0.27708-0.41392-0.45877-0.33299
   2  -2 -10   -0.03    0.78   0 0.92084-0.11990-0.28344-0.04065-0.48024-0.89595
   3  -2 -10    8.90    1.22   0 0.92166 0.10731-0.28291-0.13613-0.47843-0.91957
   0  -3  -8  129.60    3.46   0 0.93080-0.52962-0.27647-0.15108-0.45686-0.53156
   0  -2  -8  165.29    3.96   0 0.93323-0.62761-0.27461 0.07708-0.45068-0.59084
   1  -4  -8   32.14    2.00   0 0.93455-0.20735-0.27357-0.47963-0.44724-0.51082
   1  -3  -9   92.44    2.85   0 0.93243-0.28505-0.27524-0.21515-0.45274-0.70287
   1  -2  -9   12.57    1.78   0 0.93872-0.38724-0.27011 0.01035-0.43584-0.77290
   3  -3  -9    5.39    1.08   0 0.93953 0.17025-0.26940-0.41306-0.43355-0.76925
   5  -1  -9    0.32    1.14   0 0.93552 0.44459-0.27279-0.13985-0.44464-0.90814
   2  -4  -8   36.72    1.89   0 0.94046 0.01813-0.26858-0.58068-0.43085-0.55098
   2  -3  -9   19.91    1.47   0 0.94294-0.06418-0.26630-0.32073-0.42347-0.75491
   4  -2  -9   -0.11    0.79   0 0.94634 0.30042-0.26298-0.28430-0.41278-0.86766
   0  -3  -7    2.36    0.92   0 0.94938-0.56230-0.25978-0.20128-0.40260-0.44202
   4  -3  -8    0.29    0.69   0 0.95066 0.37598-0.25836-0.55270-0.39808-0.68377
  -1  -5  -4  376.42    7.51   0 0.82373-0.52018-0.36112-0.56136-0.61390 0.32950
   1  -6  -7   23.26    2.19   0 0.81914 0.08219-0.37395-0.87296-0.61408-0.09266
   1  -6  -6    6.15    1.53   0 0.82014 0.06718-0.37124-0.90823-0.61406 0.05020
  -1  -5  -8   22.54    2.22   0 0.82960-0.47027-0.34329-0.44690-0.61334-0.24585
  -1  -5  -5    1.20    1.57   0 0.83267-0.51473-0.33321-0.55825-0.61286 0.18376
   3  -5  -8   21.28    2.69   0 0.83196 0.45194-0.33559-0.83822-0.61298-0.33776
  -1  -5  -7   22.27    2.23   0 0.83539-0.49069-0.32361-0.50022-0.61238-0.10173
  -1  -5  -6   34.57    2.54   0 0.83647-0.50562-0.31972-0.53677-0.61212 0.04069
   0  -5  -9   14.23    1.88   0 0.83729-0.23308-0.31669-0.53659-0.61192-0.41386
   2  -5  -9    5.61    1.37   0 0.83729 0.22850-0.31669-0.72877-0.61192-0.46033
   3  -5  -7   12.36    1.94   0 0.84154 0.42744-0.30006-0.90822-0.61060-0.19669
   0  -5  -8   89.73    4.06   0 0.84650-0.25673-0.27780-0.60910-0.60838-0.27321
   0  -5  -4   35.26    2.71   0 0.84561-0.31082-0.28206-0.73620-0.60885 0.30107
   1  -5  -9   11.62    1.58   0 0.84296-0.00655-0.29395-0.65544-0.61004-0.43898
   0  -5  -7   24.96    2.53   0 0.85088-0.27482-0.25450-0.66509-0.60555-0.13275
   0  -5  -6  281.00    6.64   0 0.85204-0.28954-0.24748-0.70568-0.60459 0.01006
   0  -5  -5  125.26    4.57   0 0.85074-0.30136-0.25532-0.72990-0.60566 0.15410
   1  -5  -8   -0.05    1.69   0 0.85144-0.02839-0.25114-0.73144-0.60509-0.30052
   2  -5  -8   42.48    2.62   0 0.84830 0.20337-0.26870-0.81039-0.60735-0.32083
   4  -4  -8    1.68    1.56   0 0.84889 0.57226-0.26559-0.77427-0.60697-0.42153
  -1  -4  -6  207.66    5.75   0 0.85490-0.61850-0.22776-0.39846-0.60171-0.02341
  -1  -4  -5  551.95    9.08   0 0.85403-0.63198-0.23413-0.42515-0.60270 0.12167
   1  -5  -7  336.23    7.41   0 0.85519-0.04741-0.22553-0.79013-0.60135-0.16046
   1  -5  -5   63.06    3.61   0 0.85573-0.07668-0.22117-0.86032-0.60064 0.12676
   1  -5  -4    1.57    1.42   0 0.85248-0.08683-0.24464-0.87021-0.60426 0.27221
   2  -5  -7   14.76    1.94   0 0.85340 0.18528-0.23858-0.87351-0.60337-0.18085
   2  -5  -6    0.49    1.75   0 0.85522 0.17013-0.22530-0.91926-0.60131-0.04072
   2  -5  -5   21.46    2.72   0 0.85488 0.15670-0.22793-0.94872-0.60173 0.10312
   3  -4  -9    3.93    1.76   0 0.85496 0.34938-0.22728-0.68409-0.60163-0.54683
   1  -5  -6   54.14    3.07   0 0.85638-0.06367-0.21522-0.83313-0.59984-0.01815
   4  -4  -7    1.00    1.25   0 0.85681 0.54978-0.21136-0.86084-0.59917-0.28617
   0  -4  -3   36.11    2.56   0 0.85920-0.43463-0.18412-0.63759-0.59412 0.37661
   1  -4  -9   -1.18    1.61   0 0.85976-0.11325-0.17530-0.54310-0.59234-0.50951
   2  -4  -9    0.17    1.58   0 0.85958 0.11372-0.17831-0.63639-0.59296-0.53307
   3  -4  -8    6.57    1.86   0 0.86034 0.32880-0.16342-0.77950-0.58982-0.41618
   4  -4  -6    5.65    1.69   0 0.85943 0.53144-0.18067-0.92507-0.59344-0.14737
   4  -3  -9    1.01    2.20   0 0.85990 0.48015-0.17285-0.60275-0.59183-0.63363
   5  -3  -7    2.05    2.09   0 0.86042 0.68312-0.16134-0.77473-0.58937-0.37326
   0  -4  -7  212.90    6.08   0 0.86092-0.37983-0.13971-0.54916-0.58444-0.20766
   0  -4  -4   30.19    2.55   0 0.86089-0.42230-0.14224-0.64602-0.58504 0.22395
   0  -4  -6   30.14    2.67   0 0.86083-0.39404-0.12176-0.59979-0.58023-0.06811
   0  -4  -5   11.02    2.00   0 0.86084-0.40869-0.12219-0.63234-0.58034 0.07582
   1  -4  -8   31.17    2.84   0 0.86087-0.13422-0.12408-0.62630-0.58082-0.37816
   2  -4  -8   37.70    3.13   0 0.86081 0.09767-0.12043-0.72596-0.57989-0.40199
   3  -4  -7    0.34    1.84   0 0.86077 0.31472-0.11817-0.85404-0.57932-0.28579
   5  -3  -6    2.81    1.64   0 0.86063 0.66664-0.11239-0.85815-0.57782-0.23883
   1  -4  -7    0.82    2.07   0 0.85958-0.14627-0.08864-0.69672-0.57139-0.24460
   2  -4  -7    2.82    2.23   0 0.85916 0.08491-0.08209-0.79810-0.56953-0.26922
   3  -4  -6    3.31    1.94   0 0.85990 0.30048-0.09434-0.91510-0.57297-0.14425
   3  -4  -5   40.36    3.31   0 0.85938 0.28702-0.08552-0.95696-0.57050-0.00436
   3  -3  -9    6.02    1.80   0 0.85956 0.24878-0.08832-0.59074-0.57130-0.63033
   4  -3  -8    1.13    1.45   0 0.85963 0.46569-0.08944-0.71847-0.57161-0.51031
   1  -4  -6   70.89    3.86   0 0.85798-0.15984-0.06666-0.75054-0.56535-0.10657
   1  -4  -5   37.98    2.99   0 0.85748-0.17255-0.06122-0.78880-0.56370 0.03551
   1  -4  -4  335.24    7.19   0 0.85874-0.18894-0.07600-0.80769-0.56810 0.18335
   2  -4  -6  375.35    8.25   0 0.85724 0.07190-0.05872-0.85433-0.56294-0.13255
   2  -4  -5    6.30    2.26   0 0.85651 0.05957-0.05172-0.89557-0.56078 0.00952
   2  -4  -4   42.79    3.31   0 0.85738 0.04492-0.06019-0.91865-0.56339 0.15456
   5  -2  -8   -2.28    2.53   0 0.85733 0.60331-0.05967-0.61281-0.56323-0.59640
   4  -3  -7   64.94    3.88   0 0.85403 0.45709-0.03062-0.80869-0.55408-0.38546
   4  -2  -9    0.41    1.34   0 0.85413 0.38710-0.03131-0.50915-0.55431-0.71975
   0  -3  -6   21.67    2.48   0 0.84988-0.47756-0.00339-0.48763-0.54481-0.15707
   3  -3  -8    2.25    1.45   0 0.85203 0.24243-0.01672-0.69470-0.54943-0.50973
   2  -3  -8   19.06    2.27   0 0.84783 0.01465 0.00823-0.62328-0.54066-0.49578
   4  -3  -6   31.79    2.90   0 0.84775 0.44903 0.00871-0.88173-0.54049-0.25511
   4  -3  -5    1.54    2.11   0 0.84314 0.43868 0.03162-0.93802-0.53197-0.11984
   5  -2  -7   16.90    2.35   0 0.84592 0.60105 0.01819-0.72378-0.53702-0.47845
   6  -1  -7   -0.26    1.92   0 0.84677 0.73504 0.01388-0.58445-0.53860-0.55489
   1  -3  -7    1.35    1.56   0 0.84155-0.22356 0.03882-0.59271-0.52920-0.33987
   2  -3  -7    5.21    2.33   0 0.83664 0.01317 0.05942-0.70887-0.52105-0.37222
   3  -3  -7   22.81    2.67   0 0.84218 0.23734 0.03600-0.78061-0.53029-0.38568
   4  -2  -8    2.19    1.94   0 0.83830 0.39119 0.05269-0.62855-0.52375-0.61098
   1  -3  -6    1.36    1.99   0 0.83269-0.22926 0.07446-0.66115-0.51487-0.21035
   3  -3  -6  389.43    9.03   0 0.83283 0.23297 0.07393-0.85142-0.51509-0.25700
   5  -2  -6   18.11    2.61   0 0.83315 0.59866 0.07275-0.81150-0.51559-0.35667
   5  -1  -8    1.47    1.75   0 0.83250 0.53322 0.07514-0.51676-0.51459-0.69717
   6  -1  -6   26.62    3.02   0 0.82829 0.73964 0.09006-0.69471-0.50827-0.44009
   1  -3  -5    7.94    1.61   0 0.82760-0.23945 0.09254-0.71246-0.50721-0.07459
   1  -3  -4   40.95    2.92   0 0.82725-0.25243 0.09371-0.74695-0.50670 0.06864
   2  -3  -6  157.98    5.67   0 0.82641 0.00800 0.09651-0.77850-0.50548-0.24347
   2  -3  -5  435.54    9.35   0 0.81989 0.00056 0.11724-0.83326-0.49627-0.10915
   3  -3  -5  168.69    6.04   0 0.82669 0.22491 0.09558-0.90688-0.50589-0.12297
   3  -3  -4   38.85    3.49   0 0.82459 0.21244 0.10250-0.94642-0.50286 0.01767
   3  -2  -8   15.30    2.79   0 0.82275 0.17677 0.10839-0.58828-0.50025-0.61239
   4  -2  -7    4.12    2.38   0 0.81950 0.39592 0.11844-0.72948-0.49573-0.49527
   5  -2  -5    0.34    2.22   0 0.82237 0.59642 0.10956-0.87891-0.49973-0.23401
   7   0  -5   10.06    2.97   0 0.82029 0.86986 0.11603-0.61861-0.49682-0.38502
   2  -3  -4   96.03    4.36   0 0.81832-0.01271 0.12197-0.87122-0.49416 0.03250
   6  -1  -5   17.11    2.73   0 0.81122 0.74360 0.14234-0.77944-0.48467-0.32033
   6   0  -7   -0.08    2.66   0 0.81120 0.67988 0.14240-0.48430-0.48464-0.66451
   3  -2  -7   14.39    2.88   0 0.79986 0.18559 0.17212-0.68696-0.47017-0.49967
   4  -2  -6    7.26    2.90   0 0.80109 0.40031 0.16905-0.81128-0.47171-0.37842
   4  -1  -8    2.94    2.14   0 0.80252 0.33285 0.16543-0.51189-0.47350-0.71555
   5  -1  -7   -2.20    2.11   0 0.80384 0.54644 0.16206-0.63334-0.47517-0.59272
   5   0  -8    2.12    1.87   0 0.79888 0.47213 0.17453-0.38752-0.46896-0.79633
   7   1  -6    0.92    2.78   0 0.79983 0.80924 0.17218-0.41100-0.47014-0.60827
   2  -2  -7   27.53    3.07   0 0.79348-0.04018 0.18753-0.60575-0.46236-0.48260
   3  -2  -6   46.42    4.01   0 0.77728 0.19290 0.22351-0.77084-0.44326-0.38206
   4  -2  -5  310.28    8.43   0 0.78597 0.40110 0.20474-0.88124-0.45337-0.25187
   4  -2  -4    8.71    2.98   0 0.77583 0.39711 0.22655-0.93608-0.44159-0.11970
   5  -1  -6   17.48    3.27   0 0.77794 0.55855 0.22213-0.73141-0.44401-0.48104
   6   0  -6    0.03    2.16   0 0.77682 0.70079 0.22449-0.59875-0.44272-0.56437
   2  -2  -6  129.09    5.37   0 0.76987-0.03102 0.23869-0.69067-0.43482-0.36704
   4  -1  -7    6.20    2.73   0 0.76672 0.35250 0.24495-0.62350-0.43128-0.61351
   6   1  -7    3.73    1.98   0 0.76718 0.62465 0.24406-0.35448-0.43179-0.76552
   7   1  -5    2.54    2.74   0 0.76277 0.83592 0.25264-0.52632-0.42688-0.51047
   2  -2  -5   10.23    2.67   0 0.75015-0.02545 0.27616-0.76156-0.41310-0.24582
   3  -2  -5   42.63    3.64   0 0.75882 0.19781 0.26020-0.84094-0.42253-0.25928
   5  -1  -5  132.94    6.28   0 0.75279 0.57037 0.27139-0.81152-0.41594-0.36555
   5   0  -7   17.84    2.94   0 0.75345 0.50256 0.27017-0.51432-0.41667-0.70534
   7   2  -6    3.65    2.77   0 0.75811 0.75593 0.26154-0.27013-0.42175-0.70995
   2  -2  -4  352.79    9.15   0 0.73633-0.02516 0.30023-0.81862-0.39839-0.11658
   3  -2  -4    2.99    2.18   0 0.74643 0.19488 0.28282-0.89672-0.40908-0.12910
   3  -2  -3  200.46    6.98   0 0.74228 0.18526 0.29008-0.93734-0.40466 0.00957
   3  -1  -7   11.27    2.58   0 0.74266 0.14717 0.28942-0.57390-0.40506-0.61726
   4  -1  -6    8.07    3.27   0 0.73334 0.37253 0.30523-0.71810-0.39526-0.50751
   5  -1  -4  113.25    6.22   0 0.73385 0.57466 0.30438-0.87896-0.39579-0.24216
   6   0  -5   13.57    2.56   0 0.74215 0.71629 0.29030-0.69733-0.40452-0.45359
   7   3  -6    1.62    3.09   0 0.73126 0.68784 0.30867-0.08711-0.39309-0.79178
   6   0  -4  105.84    5.99   0 0.71471 0.72977 0.33493-0.77555-0.37607-0.33837
   6   1  -6   -0.18    2.44   0 0.71799 0.66474 0.32986-0.47327-0.37940-0.67979
   7   1  -4   27.27    3.23   0 0.72619 0.85396 0.31688-0.62280-0.38781-0.40329
   3  -1  -6   22.87    3.71   0 0.70200 0.17321 0.35392-0.67124-0.36333-0.51499
   4  -1  -5  159.56    7.02   0 0.70189 0.38953 0.35408-0.79990-0.36322-0.39518
   4   0  -7    1.65    2.87   0 0.70474 0.31764 0.34990-0.49667-0.36606-0.72693
   5   0  -6   -0.79    2.19   0 0.70960 0.53538 0.34267-0.61822-0.37092-0.60983
   5   1  -7   11.76    3.11   0 0.70309 0.45627 0.35232-0.36837-0.36441-0.81012
   7   1  -3   18.80    3.49   0 0.69817 0.86728 0.35948-0.69876-0.35952-0.28765
   7   2  -5    4.19    2.76   0 0.70116 0.79783 0.35514-0.39916-0.36249-0.62523
   6   0  -3    9.28    2.79   0 0.69359 0.73637 0.36580-0.83962-0.35494-0.21623
   3  -1  -5    5.81    2.81   0 0.66508 0.19533 0.40410-0.75554-0.32739-0.40727
   4  -1  -4  172.10    6.99   0 0.67654 0.40074 0.38912-0.86918-0.33837-0.27629
   5   0  -5   74.00    5.21   0 0.66741 0.56047 0.40111-0.71172-0.32961-0.50477
   6   1  -5    9.50    3.34   0 0.66624 0.69654 0.40261-0.58021-0.32850-0.58313
   6   2  -6   -0.29    2.92   0 0.66472 0.62192 0.40456-0.31806-0.32705-0.78305
   8   3  -3   30.17    4.22   0 0.67344 0.93361 0.39324-0.37120-0.33538-0.43882
   4  -1  -3   18.47    3.17   0 0.65853 0.40433 0.41242-0.92547-0.32118-0.15018
   4   0  -6   -0.84    2.30   0 0.65464 0.36137 0.41727-0.59798-0.31751-0.64007
   7   3  -5    0.15    2.69   0 0.65431 0.75036 0.41767-0.23003-0.31721-0.72380
   4   9   2    7.62    2.47   0-0.39291 0.43217 0.97958 0.63953-0.03813-0.24423
   4   9   5   34.98    2.64   0-0.40696 0.40471 0.98001 0.53910-0.03653 0.18607
   5   6   1   12.85    1.73   0-0.37858 0.94926 0.97890-0.11284-0.03974-0.25022
   5   6   2    5.15    1.69   0-0.40272 0.95856 0.97991-0.14612-0.03701-0.10912
   5   6   4    0.78    1.50   0-0.39444 0.91993 0.97964-0.20965-0.03795 0.17753
   5   7   1    1.51    1.17   0-0.37751 0.85185 0.97884 0.12052-0.03986-0.30415
   5   8   3    2.08    1.14   0-0.38450 0.73617 0.97921 0.28143-0.03908-0.06850
   5   8   4    4.33    1.29   0-0.38450 0.72140 0.97921 0.24831-0.03908 0.07469
   4   4   0   66.52    2.96   0-0.43600 0.97995 0.98023-0.44562-0.03310-0.27025
   4   9   3    0.48    1.91   0-0.42437 0.44753 0.98028 0.60583-0.03445-0.10417
   4   9   4   46.11    2.85   0-0.42771 0.43811 0.98028 0.57270-0.03407 0.03997
   5   6   3   25.77    2.26   0-0.40750 0.94889 0.98008-0.17904-0.03640 0.03430
   5   7   2   15.68    1.92   0-0.40910 0.87004 0.98011 0.08346-0.03622-0.16221
   5   7   3    8.38    1.88   0-0.42212 0.86706 0.98028 0.05108-0.03472-0.01972
   5   7   4    1.86    1.23   0-0.41493 0.84560 0.98021 0.01957-0.03555 0.12242
   4   4   1  106.50    3.68   0-0.46708 0.99605 0.97927-0.47666-0.02930-0.13051
   4   4   3  135.54    4.16   0-0.46324 0.96305 0.97946-0.54186-0.02976 0.15703
   3   9   2   14.67    2.38   0-0.49563 0.30589 0.97733 0.73658-0.02591-0.23339
   4   4   2  954.22   10.36   0-0.47645 0.99057 0.97877-0.50853-0.02826 0.01198
   4   8   1    0.38    1.06   0-0.48053 0.62910 0.97850 0.44554-0.02777-0.34512
   3   9   3    7.68    2.40   0-0.52267 0.31821 0.97443 0.70647-0.02230-0.09242
   3   9   4   -0.49    2.00   0-0.52321 0.30282 0.97436 0.67783-0.02223 0.04833
   3   9   5   12.70    1.79   0-0.50406 0.27056 0.97652 0.63914-0.02465 0.19727
   4   5   0   20.40    2.06   0-0.51322 0.96119 0.97555-0.21025-0.02350-0.33294
   4   7   0   40.49    2.66   0-0.50356 0.76292 0.97657 0.24783-0.02471-0.43874
   4   8   2    3.56    1.67   0-0.51885 0.65182 0.97489 0.41578-0.02279-0.20537
   4   8   5   12.68    1.90   0-0.51480 0.60592 0.97537 0.31426-0.02330 0.22583
   2   9   2    0.97    1.59   0-0.55768 0.13499 0.96908 0.84199-0.01757-0.21697
   4   5   1   55.40    2.83   0-0.54825 0.98197 0.97069-0.23840-0.01881-0.19388
   4   6   0   62.58    3.13   0-0.53187 0.88640 0.97317 0.02106-0.02093-0.38868
   4   7   1   95.85    4.19   0-0.55093 0.79495 0.97025 0.22207-0.01846-0.30070
   4   8   3   21.71    2.09   0-0.53507 0.65670 0.97272 0.38265-0.02052-0.06413
   4   8   4    8.31    1.58   0-0.53457 0.64003 0.97279 0.35039-0.02058 0.08077
   2   9   3    4.91    1.91   0-0.58370 0.14892 0.96394 0.81316-0.01413-0.08022
   2   9   4    9.13    2.13   0-0.58487 0.13301 0.96368 0.78098-0.01397 0.06646
   4   5   2  248.94    5.61   0-0.56429 0.98346 0.96790-0.26814-0.01673-0.05239
   4   5   3    2.26    1.16   0-0.56141 0.96657 0.96843-0.30127-0.01711 0.09032
   4   6   1   28.09    2.49   0-0.57186 0.91183 0.96642-0.00523-0.01572-0.25041
   4   6   4   16.85    2.18   0-0.58485 0.88058 0.96369-0.09982-0.01398 0.17944
   4   7   2    2.98    1.81   0-0.57866 0.80764 0.96503 0.19489-0.01481-0.16088
   4   7   4    2.80    1.72   0-0.58170 0.78255 0.96438 0.13021-0.01440 0.12570
   3   8   1   -0.08    1.47   0-0.60599 0.52093 0.95860 0.56095-0.01111-0.33646
   4   6   2    6.30    1.43   0-0.59398 0.91835 0.96157-0.03210-0.01276-0.10960
   4   6   3    2.05    1.22   0-0.59842 0.90817 0.96051-0.06306-0.01215 0.03253
   4   7   3    6.03    1.41   0-0.58859 0.80371 0.96283 0.16376-0.01350-0.01793
   3   8   2   -0.30    1.64   0-0.63564 0.53690 0.95016 0.53923-0.00693-0.19940
   3   8   5    0.40    1.53   0-0.63107 0.49057 0.95157 0.43499-0.00759 0.23277
   3   7   0   22.96    2.27   0-0.64797 0.67640 0.94616 0.37451-0.00514-0.43489
   3   8   3    4.27    1.51   0-0.65151 0.54106 0.94495 0.50706-0.00463-0.05705
   3   8   4    0.21    1.25   0-0.64974 0.52189 0.94556 0.47796-0.00489 0.08315
   2   8   1    0.40    1.55   0-0.69253 0.37940 0.92905 0.68516 0.00151-0.32703
   3   7   1   31.18    2.87   0-0.68892 0.70242 0.93060 0.35711 0.00096-0.29653
   2   8   5   57.39    3.33   0-0.71196 0.34024 0.92019 0.56189 0.00451 0.24499
   3   5   0   26.97    2.32   0-0.70680 0.92455 0.92264-0.06216 0.00370-0.33688
   3   6   0    2.46    1.50   0-0.69702 0.81946 0.92710 0.16474 0.00218-0.38895
   3   7   2   43.91    3.16   0-0.71250 0.71086 0.91993 0.33539 0.00459-0.15708
   3   7   4   21.02    2.50   0-0.71498 0.68469 0.91872 0.27025 0.00499 0.13051
   2   8   2   32.64    2.54   0-0.72082 0.39427 0.91580 0.66508 0.00602-0.18809
   2   8   3   -0.30    1.68   0-0.73383 0.39125 0.90901 0.63921 0.00812-0.04645
   2   8   4   89.35    3.97   0-0.73115 0.37455 0.91044 0.60417 0.00769 0.09806
   3   5   1   52.95    3.05   0-0.73674 0.94047 0.90742-0.07977 0.00860-0.19838
   3   6   1   16.86    2.20   0-0.73092 0.83951 0.91057 0.14722 0.00765-0.25014
   3   6   4   40.15    3.13   0-0.74198 0.80637 0.90451 0.05512 0.00946 0.17920
   3   7   3    9.22    1.80   0-0.72102 0.70512 0.91570 0.30645 0.00605-0.01458
   0   8   1   33.40    3.26   0-0.76472-0.01165 0.89088 0.91511 0.01331-0.29181
   1   8   1   16.11    1.85   0-0.74669 0.20242 0.90182 0.80776 0.01028-0.31259
   2   7   0    5.38    2.12   0-0.75657 0.55231 0.89596 0.52059 0.01193-0.42791
   3   5   2   31.80    2.33   0-0.75074 0.93972 0.89945-0.10427 0.01095-0.05698
   3   5   3   18.55    1.93   0-0.74958 0.92326 0.90013-0.13738 0.01076 0.08680
   3   6   2   84.07    3.75   0-0.74900 0.84303 0.90047 0.12447 0.01066-0.10974
   3   6   3    0.42    1.78   0-0.75304 0.83183 0.89809 0.09488 0.01134 0.03250
   1   8   2   20.40    1.93   0-0.77299 0.21379 0.88556 0.79114 0.01462-0.17366
   1   8   3    8.24    1.80   0-0.78271 0.20996 0.87895 0.76491 0.01632-0.03136
   1   8   4   10.08    1.86   0-0.77992 0.19062 0.88088 0.72925 0.01583 0.11359
   0   8   2    6.81    1.86   0-0.79109-0.00059 0.87299 0.90025 0.01782-0.15231
   0   8   3    0.54    1.73   0-0.80112-0.00315 0.86547 0.87282 0.01963-0.01106
   0   8   4   61.53    3.23   0-0.79322-0.02524 0.87143 0.83477 0.01820 0.13452
   2   7   1    8.92    1.85   0-0.78966 0.57163 0.87402 0.51020 0.01756-0.28998
   2   7   2    2.90    2.19   0-0.80888 0.57506 0.85937 0.49328 0.02105-0.15101
   1   7   0    2.51    1.94   0-0.82513 0.39098 0.84574 0.66978 0.02405-0.41804
   2   6   0   10.29    2.17   0-0.82021 0.71107 0.85000 0.33729 0.02312-0.38658
   2   7   3  133.81    5.04   0-0.81568 0.56792 0.85382 0.46460 0.02226-0.00736
   2   7   4  204.05    5.95   0-0.80993 0.54823 0.85854 0.42657 0.02119 0.13756
   2   6   1   99.92    4.51   0-0.84666 0.72338 0.82563 0.32833 0.02828-0.24765
   0   7   0    2.36    1.90   0-0.86704 0.20116 0.80409 0.80415 0.03247-0.40164
   1   7   1   18.01    2.75   0-0.85564 0.40563 0.81648 0.66348 0.03009-0.27985
   2   5   0  903.14   11.99   0-0.85310 0.84017 0.81912 0.13726 0.02957-0.33945
   2   6   2   63.71    3.83   0-0.86048 0.72225 0.81132 0.31031 0.03109-0.10747
   2   6   3   18.50    2.57   0-0.86298 0.71055 0.80860 0.28013 0.03162 0.03575
   2   6   4    3.22    1.61   0-0.85446 0.68831 0.81770 0.23723 0.02985 0.18077
  -1   7   0    9.90    1.96   0-0.87890-0.01853 0.79019 0.91402 0.03497-0.38104
   1   7   2    3.08    1.58   0-0.87072 0.40857 0.79988 0.64526 0.03320-0.13660
   1   7   3   34.75    3.39   0-0.87593 0.39659 0.79377 0.62015 0.03432 0.00374
   1   7   4   39.18    3.11   0-0.86986 0.37706 0.80087 0.58042 0.03301 0.14862
   2   5   1    0.77    1.65   0-0.87677 0.84740 0.79277 0.13076 0.03450-0.20080
  -2   7   1   16.55    2.64   0-0.88572-0.25413 0.78170 0.98449 0.03648-0.21621
  -2   7   2   21.98    3.24   0-0.89832-0.25932 0.76488 0.96916 0.03938-0.07492
  -2   7   3    0.11    2.43   0-0.89394-0.28124 0.77090 0.93762 0.03836 0.07005
  -2   7   4   13.95    2.14   0-0.88559-0.30255 0.78187 0.88543 0.03645 0.21767
   0   7   1    2.16    1.82   0-0.89166 0.21126 0.77397 0.80102 0.03783-0.26344
   2   5   2    6.33    1.63   0-0.88572 0.84372 0.78170 0.10933 0.03648-0.05954
   2   5   3   11.36    1.85   0-0.88491 0.82769 0.78273 0.07590 0.03630 0.08485
  -1   7   1   13.46    1.92   0-0.90262-0.00968 0.75888 0.91272 0.04015-0.24312
  -1   7   4   31.72    2.85   0-0.90881-0.04712 0.74972 0.82249 0.04165 0.18656
   0   7   2   36.03    2.84   0-0.90412 0.20901 0.75671 0.78585 0.04051-0.12250
   0   7   3   11.27    2.38   0-0.90774 0.19824 0.75134 0.75740 0.04139 0.02006
   0   7   4   63.92    3.56   0-0.90124 0.17733 0.76086 0.71601 0.03982 0.16514
   1   6   0   71.54    3.94   0-0.89909 0.55987 0.76391 0.51865 0.03932-0.37923
  -1   7   2   15.04    1.88   0-0.91428-0.01162 0.74128 0.89689 0.04296-0.10286
  -1   7   3    8.92    1.76   0-0.91615-0.02582 0.73828 0.86751 0.04343 0.04136
   1   6   1   12.46    2.24   0-0.91869 0.56315 0.73414 0.51648 0.04408-0.23951
   1   6   4   49.98    3.62   0-0.92306 0.52451 0.72681 0.42464 0.04521 0.18993
   1   6   2  107.62    4.71   0-0.92806 0.55923 0.71805 0.49907 0.04654-0.09924
   1   6   3    0.71    1.57   0-0.92935 0.54635 0.71571 0.46883 0.04689 0.04382
  -6  -3 -10   61.55    2.42   0-0.06398-0.89274-0.28831 0.50000-0.77932-0.35825
  -5  -1  -7    1.32    0.94   0-0.06108-0.89874-0.29122 0.77092-0.77858-0.05693
  -5  -1  -6   55.25    2.28   0-0.06253-0.91207-0.28976 0.73492-0.77895 0.08768
  -4   0  -7  586.17    6.66   0-0.06108-0.76316-0.29122 0.90398-0.77858-0.13222
  -4   0  -6  230.97    4.27   0-0.05361-0.78485-0.29868 0.87875-0.77663 0.00985
  -4   0  -5   43.63    1.95   0-0.06398-0.78910-0.28831 0.83514-0.77932 0.15596
  -6  -4 -11   15.68    1.51   0-0.02564-0.82116-0.32644 0.34087-0.76883-0.45928
  -6  -3  -9   12.00    1.58   0-0.02535-0.94624-0.32673 0.50649-0.76875-0.22485
  -5  -3 -12    0.75    0.93   0-0.03304-0.66400-0.31915 0.50314-0.77099-0.67638
  -4  -3 -13    4.50    1.31   0-0.01410-0.43648-0.33777 0.45697-0.76534-0.85036
  -4  -2 -12    3.10    1.00   0-0.02580-0.53490-0.32629 0.64307-0.76888-0.75470
  -5  -2 -10   13.69    1.35   0-0.00936-0.81107-0.34242 0.68865-0.76392-0.44930
  -4  -1 -10   30.03    1.76   0-0.01179-0.67294-0.34006 0.82117-0.76468-0.52518
  -5  -2  -9   -0.94    1.29   0 0.03630-0.87057-0.38644 0.70079-0.74844-0.32693
  -5  -4 -12   41.57    2.11   0 0.06919-0.67138-0.41750 0.37074-0.73584-0.65977
  -5  -3 -11    3.19    0.91   0 0.05259-0.76422-0.40190 0.55237-0.74234-0.56097
  -5  -2  -8   25.94    1.91   0 0.06701-0.91824-0.41545 0.69784-0.73671-0.18916
  -4  -2 -11   34.80    2.00   0 0.06823-0.64375-0.41660 0.70208-0.73623-0.64458
  -4  -1  -9  137.30    3.34   0 0.04485-0.74439-0.39457 0.84332-0.74527-0.40064
  -3   0  -8   16.79    1.38   0 0.04969-0.62757-0.39915 0.94897-0.74344-0.33447
  -5  -2  -7   11.62    1.25   0 0.08253-0.94735-0.42996 0.67894-0.73041-0.05273
  -4  -4 -13    1.05    1.21   0 0.09385-0.45053-0.44044 0.33175-0.72563-0.83615
  -4  -1  -8   69.00    2.53   0 0.08542-0.79967-0.43265 0.84824-0.72920-0.27286
  -3   0  -7   11.36    1.21   0 0.08398-0.67693-0.43130 0.94817-0.72981-0.20484
  -3   0  -6   46.64    2.01   0 0.10132-0.70905-0.44732 0.93191-0.72241-0.06748
  -3   0  -5    0.45    0.87   0 0.10132-0.72283-0.44732 0.89896-0.72241 0.07458
  -5  -3 -10   16.97    1.72   0 0.11521-0.84112-0.46006 0.57741-0.71623-0.44475
  -4  -3 -12   11.30    1.17   0 0.10783-0.57328-0.45332 0.54140-0.71954-0.75204
  -4  -1  -7   21.30    1.49   0 0.11000-0.83949-0.45529 0.83833-0.71858-0.13956
  -4  -1  -6   20.36    1.53   0 0.11901-0.86249-0.46352 0.81376-0.71451-0.00006
  -4  -1  -5   74.14    2.29   0 0.11000-0.86747-0.45529 0.77158-0.71858 0.14732
  -3  -1 -10    4.41    1.28   0 0.11430-0.56927-0.45923 0.84528-0.71664-0.59468
  -5  -5 -12    5.48    1.03   0 0.13783-0.64923-0.48053 0.20958-0.70569-0.63492
  -5  -4 -11    6.19    1.31   0 0.15162-0.76837-0.49289 0.41428-0.69899-0.55351
  -4  -5 -13   16.70    1.56   0 0.15961-0.42136-0.50001 0.16163-0.69501-0.81441
  -4  -2 -10  103.69    2.94   0 0.14118-0.73104-0.48354 0.73509-0.70408-0.53282
  -5  -6 -12    3.08    1.06   0 0.16523-0.57551-0.50501-0.00209-0.69216-0.59854
  -5  -3  -9  104.25    2.94   0 0.16119-0.90232-0.50142 0.58640-0.69421-0.32266
  -3  -2 -11   98.56    3.00   0 0.18856-0.53257-0.52552 0.71508-0.67996-0.72421
  -3  -1  -9   73.09    2.62   0 0.18041-0.64961-0.51838 0.87274-0.68429-0.48468
  -5  -4 -10   14.07    1.51   0 0.21343-0.84567-0.54707 0.43571-0.66620-0.44178
  -5  -3  -8    0.80    0.93   0 0.19267-0.94781-0.52912 0.58142-0.67770-0.19616
  -4  -4 -12   20.82    1.61   0 0.20772-0.58008-0.54215 0.40171-0.66942-0.74929
  -4  -3 -11    0.81    0.90   0 0.19668-0.67773-0.53260 0.58813-0.67552-0.65244
  -4  -2  -9    1.46    0.96   0 0.19691-0.80145-0.53281 0.75194-0.67540-0.41776
  -3  -4 -13    7.36    1.13   0 0.19338-0.31818-0.52973 0.32543-0.67732-0.90844
  -5  -5 -11    4.48    0.92   0 0.22111-0.74296-0.55365 0.24517-0.66181-0.53713
  -4  -2  -8   10.13    1.46   0 0.23802-0.85762-0.56802 0.75552-0.65189-0.29742
  -3  -3 -12   16.70    1.33   0 0.21854-0.45280-0.55145 0.54376-0.66328-0.83150
  -3  -1  -8   84.37    2.62   0 0.23379-0.71664-0.56444 0.88429-0.65440-0.37058
  -5  -4  -9    0.56    1.21   0 0.26045-0.90602-0.58683 0.44227-0.63818-0.32664
  -4  -3 -10    1.96    1.24   0 0.26654-0.76243-0.59188 0.61485-0.63435-0.55037
  -4  -2  -7  266.54    4.35   0 0.26607-0.90050-0.59150 0.74512-0.63464-0.17122
  -3  -5 -13   -0.16    1.20   0 0.25895-0.28950-0.58558 0.15211-0.63912-0.88963
  -3  -2 -10   10.08    1.50   0 0.27026-0.62914-0.59496 0.75244-0.63198-0.62794
  -3  -1  -7    3.36    1.10   0 0.27113-0.76963-0.59568 0.88329-0.63143-0.25059
  -2   0  -6  169.20    3.36   0 0.25179-0.62833-0.57960 0.96824-0.64354-0.16952
  -5  -5 -10   24.85    1.78   0 0.28319-0.81935-0.60559 0.26387-0.62364-0.43174
  -4  -5 -12   13.68    1.24   0 0.27480-0.55094-0.59871 0.22759-0.62908-0.73688
  -4  -4 -11   14.36    1.49   0 0.29474-0.68056-0.61500 0.44043-0.61599-0.65918
  -4  -2  -6  176.89    3.45   0 0.27938-0.92785-0.60246 0.72308-0.62613-0.03602
  -3  -1  -6   11.23    1.21   0 0.29579-0.80812-0.61585 0.86997-0.61528-0.12235
  -4  -6 -12    0.11    0.93   0 0.30231-0.48250-0.62113 0.02191-0.61087-0.70412
  -4  -3  -9   10.06    1.35   0 0.32236-0.83263-0.63718 0.62709-0.59696-0.44420
  -3  -4 -12    1.29    0.96   0 0.31442-0.45473-0.63086 0.39379-0.60254-0.83946
  -3  -3 -11   15.65    1.51   0 0.31557-0.56452-0.63178 0.59118-0.60173-0.74940
  -3  -2  -9  385.31    5.30   0 0.33612-0.71053-0.64804 0.77281-0.58708-0.52896
  -4  -5 -11    7.82    1.11   0 0.36076-0.65065-0.66719 0.26155-0.56871-0.65306
  -4  -4 -10    6.77    1.43   0 0.36338-0.76298-0.66920 0.46084-0.56671-0.56556
  -4  -3  -8   39.87    2.06   0 0.36640-0.89054-0.67151 0.62783-0.56438-0.33205
  -3  -5 -12   24.22    1.61   0 0.37434-0.41941-0.67756 0.21078-0.55821-0.83105
  -2  -1  -8    0.28    0.95   0 0.36444-0.61669-0.67002 0.89523-0.56589-0.48341
  -4  -6 -11   23.69    1.72   0 0.39050-0.58612-0.68971 0.05581-0.54537-0.62430
  -4  -3  -7   -0.61    1.08   0 0.39708-0.93391-0.69461 0.61682-0.54002-0.22129
  -3  -6 -12    0.82    1.06   0 0.39607-0.34613-0.69386-0.00255-0.54084-0.79528
  -3  -3 -10    0.36    1.17   0 0.39430-0.65777-0.69254 0.61882-0.54229-0.66423
  -3  -2  -8    1.67    1.11   0 0.39073-0.77848-0.68988 0.78041-0.54519-0.42754
  -2  -4 -12   21.01    1.55   0 0.38972-0.29864-0.68912 0.35720-0.54601-0.91908
  -4  -5 -10   91.45    3.04   0 0.42745-0.73315-0.71678 0.27987-0.51440-0.56389
  -4  -4  -9    0.13    1.26   0 0.41849-0.83306-0.71031 0.47011-0.52213-0.46599
  -3  -4 -11    5.16    0.99   0 0.40727-0.56151-0.70212 0.43041-0.53162-0.76631
  -2  -3 -11   11.67    1.31   0 0.40663-0.42477-0.70165 0.56613-0.53215-0.84189
  -2  -1  -7  189.73    3.61   0 0.41809-0.68522-0.71002 0.90243-0.52248-0.38164
  -3  -2  -7    0.40    0.78   0 0.43280-0.83526-0.72062 0.77848-0.50970-0.31985
  -2  -6 -12    1.43    1.08   0 0.45197-0.17095-0.73417-0.05701-0.49251-0.86702
  -2  -5 -12   35.82    1.89   0 0.44066-0.25482-0.72621 0.16506-0.50273-0.90988
  -2  -2  -9  102.51    3.01   0 0.45357-0.59599-0.73528 0.76357-0.49104-0.64812
  -4  -6 -10  135.45    3.54   0 0.45820-0.66833-0.73850 0.07152-0.48678-0.53893
  -4  -4  -8    2.28    0.97   0 0.46204-0.89095-0.74116 0.46818-0.48321-0.36146
  -3  -7 -11    1.71    0.93   0 0.47056-0.34042-0.74701-0.21128-0.47518-0.66441
  -3  -5 -11    3.22    1.30   0 0.46488-0.52395-0.74312 0.24318-0.48054-0.76418
  -3  -3  -9   42.60    1.97   0 0.45779-0.73685-0.73822 0.63291-0.48715-0.57628
  -3  -2  -6    0.32    0.63   0 0.46345-0.88057-0.74213 0.76728-0.48189-0.20427
  -1  -6 -12   28.95    1.89   0 0.46621 0.04895-0.74403-0.14438-0.47929-0.90379
  -4  -5  -9  141.17    3.61   0 0.48123-0.80114-0.75422 0.28409-0.46495-0.47013
  -3  -6 -11    3.84    0.94   0 0.48695-0.45174-0.75805 0.02844-0.45937-0.73362
  -3  -4 -10    5.18    1.15   0 0.48143-0.65046-0.75435 0.45243-0.46476-0.68994
  -1  -4 -10   16.70    1.94   0 0.60869-0.31513 0.02260-0.51745-0.84753-0.35269
  -1  -4  -5  555.76    7.47   0 0.60746-0.38376 0.01971-0.68000-0.84871 0.36617
   0  -4 -11    1.01    0.78   0 0.60356-0.06470 0.01074-0.56795-0.85225-0.51541
   0  -3 -12    2.22    1.08   0 0.60749-0.15016 0.01978-0.31502-0.84868-0.71402
   1  -3 -12    6.79    1.35   0 0.60995 0.07947 0.02560-0.41589-0.84629-0.74095
  -1  -4  -9    1.47    1.42   0 0.61832-0.33962 0.04658-0.57533-0.83707-0.22164
   1  -4 -10    0.47    1.24   0 0.61923 0.13655 0.04898-0.73512-0.83595-0.41151
  -2  -3  -7   10.04    1.34   0 0.62132-0.69713 0.05471-0.32336-0.83326 0.03431
  -1  -4  -8   58.13    2.77   0 0.62410-0.35736 0.06231-0.62382-0.82952-0.08351
  -1  -4  -7   44.89    2.49   0 0.62434-0.37235 0.06297-0.65768-0.82919 0.05956
  -1  -4  -6  222.35    4.77   0 0.61951-0.38169 0.04987-0.67745-0.83557 0.20977
   0  -4 -10   17.14    1.64   0 0.62025-0.09443 0.05184-0.64333-0.83464-0.38949
   2  -3 -11   24.13    1.89   0 0.62643 0.28019 0.06889-0.58956-0.82618-0.63958
   2  -2 -12    1.64    1.43   0 0.62582 0.20018 0.06713-0.32436-0.82708-0.83684
  -1  -3 -10   36.72    2.40   0 0.63183-0.43284 0.08511-0.35099-0.81764-0.43628
   0  -4  -9   32.19    2.19   0 0.63058-0.11877 0.08128-0.70528-0.81974-0.26051
   0  -3 -11    6.40    1.40   0 0.63153-0.18638 0.08419-0.41265-0.81814-0.60168
   1  -4  -9    0.25    1.36   0 0.63067 0.11108 0.08155-0.80075-0.81959-0.28479
   1  -2 -12    0.96    1.03   0 0.63119-0.03662 0.08316-0.24445-0.81871-0.82096
   0  -4  -8   49.81    2.48   0 0.63581-0.13859 0.09806-0.75562-0.81032-0.12635
   0  -4  -7  212.41    4.88   0 0.63759-0.15385 0.10406-0.79397-0.80678 0.01387
   1  -3 -11    4.56    1.09   0 0.63473 0.04009 0.09450-0.52010-0.81238-0.62975
   2  -1 -12   35.05    2.80   0 0.64036 0.09011 0.11379-0.13819-0.80086-0.91596
   3  -2 -11    0.57    1.48   0 0.63794 0.40434 0.10526-0.49101-0.80606-0.73534
  -1  -3  -9   13.64    1.64   0 0.64198-0.45787 0.11966-0.41757-0.79723-0.31336
   0  -3 -10    8.10    1.62   0 0.64514-0.21504 0.13195-0.49411-0.78926-0.48766
   2  -3 -10    2.87    1.41   0 0.64405 0.24888 0.12761-0.68097-0.79212-0.53084
  -1  -3  -8   28.32    2.16   0 0.64780-0.47730 0.14305-0.47483-0.78179-0.18362
  -1  -3  -7   37.87    2.34   0 0.65016-0.49416 0.15387-0.51875-0.77419-0.04802
  -1  -3  -6  188.01    4.58   0 0.64972-0.50756 0.15178-0.54950-0.77568 0.09704
   1  -3 -10   35.93    2.30   0 0.64878 0.01316 0.14742-0.60375-0.77875-0.52133
   2  -2 -11   15.28    1.63   0 0.64992 0.16171 0.15273-0.44264-0.77500-0.74474
   0  -3  -9  433.33    6.83   0 0.65330-0.23718 0.16950-0.56405-0.76271-0.37081
   1  -2 -11   61.46    2.53   0 0.65148-0.07100 0.15992-0.35293-0.76983-0.72694
   2  -3  -9   21.87    2.08   0 0.65364 0.22498 0.17137-0.75731-0.76129-0.41889
   0  -2 -10   18.25    2.01   0 0.65667-0.32143 0.19010-0.32169-0.74655-0.58268
   1  -3  -9   92.43    3.44   0 0.65628-0.00844 0.18742-0.67702-0.74871-0.40730
   3  -2 -10    8.77    1.19   0 0.65482 0.37341 0.17822-0.59683-0.75597-0.64362
   3  -1 -11   14.38    1.58   0 0.65482 0.29198 0.17822-0.33481-0.75597-0.83986
   4  -1 -10   22.04    2.04   0 0.65720 0.50797 0.19387-0.47895-0.74349-0.73191
   0  -3  -8  127.37    3.74   0 0.65755-0.25652 0.19640-0.62389-0.74148-0.24753
   0  -3  -7    1.55    1.34   0 0.65950-0.27166 0.21285-0.67395-0.72755-0.11802
   2  -3  -8   22.12    2.10   0 0.65851 0.20552 0.20401-0.82290-0.73513-0.30041
   2  -2 -10    0.11    1.35   0 0.65951 0.14045 0.21302-0.53517-0.72741-0.65592
   2  -1 -11   12.68    1.59   0 0.65893 0.05681 0.20757-0.26609-0.73210-0.84003
  -1  -2  -7   89.48    3.31   0 0.66063-0.60005 0.22509-0.36004-0.71668-0.15771
   0  -3  -6   22.65    1.78   0 0.65999-0.28699 0.21769-0.71104-0.72328 0.02116
   0  -2  -9  636.66    8.42   0 0.66140-0.34079 0.23647-0.40061-0.70624-0.47964
   1  -3  -8   20.91    1.80   0 0.65989-0.02697 0.21668-0.73937-0.72417-0.28867
   1  -3  -7    1.35    1.47   0 0.66130-0.04270 0.23476-0.79199-0.70783-0.16306
   1  -2 -10   10.90    1.38   0 0.66008-0.09411 0.21870-0.44603-0.72239-0.63056
   3  -2  -9    0.72    1.31   0 0.66109 0.35529 0.23140-0.68525-0.71094-0.54755
   3   0 -11    0.54    1.16   0 0.66020 0.19290 0.22004-0.14653-0.72120-0.92672
   3  -1 -10   19.32    1.82   0 0.66212 0.27155 0.25575-0.44479-0.68769-0.76433
   5   0  -9   -0.38    1.40   0 0.66207 0.62511 0.25319-0.43609-0.69022-0.72284
   0  -2  -8  172.76    4.45   0 0.66213-0.35610 0.27291-0.47046-0.67026-0.37190
   1  -2  -9   12.42    1.99   0 0.66220-0.11063 0.26759-0.52684-0.67576-0.53229
   1  -1 -10   12.65    1.85   0 0.66221-0.19149 0.26743-0.26373-0.67593-0.72911
   2  -2  -9  149.96    4.34   0 0.66221 0.12102 0.26636-0.62213-0.67702-0.55493
   4  -1  -9    1.02    1.15   0 0.66220 0.48561 0.26765-0.58297-0.67570-0.65241
   4   0 -10    0.91    1.05   0 0.66221 0.40772 0.26174-0.31679-0.68170-0.84590
   2  -1 -10    2.32    1.02   0 0.66204 0.03911 0.27698-0.36969-0.66607-0.76263
   3  -2  -8   17.88    1.82   0 0.66204 0.33757 0.27682-0.76161-0.66624-0.44578
   0  -2  -7  107.45    3.42   0 0.66079-0.36916 0.30078-0.53145-0.64000-0.25798
   1  -2  -8   52.32    2.83   0 0.66033-0.12209 0.30594-0.59878-0.63410-0.43075
   2  -2  -8    1.71    1.62   0 0.66026 0.10821 0.30672-0.69472-0.63321-0.45535
   2   0 -10   22.52    2.28   0 0.65960-0.05328 0.31314-0.17499-0.62574-0.85581
   3   0 -10   25.44    2.14   0 0.66041 0.17695 0.30511-0.26284-0.63506-0.86921
   4   1 -10    6.71    1.45   0 0.66112 0.31260 0.29637-0.12047-0.64495-0.93624
   1  -1  -9   21.63    2.12   0 0.65836-0.20124 0.32313-0.35292-0.61382-0.64832
   3  -1  -9   14.49    1.63   0 0.65933 0.25892 0.31541-0.53819-0.62306-0.68463
   3   1 -10   -0.04    1.40   0 0.65789 0.08786 0.32647-0.05619-0.60975-0.94793
   4  -1  -8    2.13    1.07   0 0.65900 0.47728 0.31818-0.66994-0.61976-0.56714
   5   0  -8    2.11    1.22   0 0.65792 0.61308 0.32629-0.54269-0.60998-0.65433
   5   1  -9    2.76    1.37   0 0.65915 0.53197 0.31695-0.27011-0.62123-0.83957
   1  -2  -7  220.24    4.78   0 0.65644-0.13307 0.33589-0.66185-0.59811-0.32354
   2  -2  -7   29.49    2.13   0 0.65608 0.09792 0.33800-0.75960-0.59545-0.34964
   2  -1  -9   65.45    2.82   0 0.65679 0.03075 0.33377-0.45889-0.60076-0.68439
   4   0  -9    2.80    1.09   0 0.65664 0.39847 0.33468-0.42243-0.59963-0.78440
   5   2  -9    0.48    1.67   0 0.65508 0.44203 0.34345-0.06722-0.58849-0.92539
   6   2  -8    4.86    1.63   0 0.65518 0.65707 0.34297-0.19424-0.58912-0.80270
   1  -2  -6   62.21    2.78   0 0.65198-0.14300 0.35834-0.71698-0.56893-0.20901
   2  -2  -6  138.05    4.16   0 0.65114 0.08930 0.36188-0.81626-0.56413-0.23766
   3  -1  -8   81.33    3.40   0 0.65063 0.25404 0.36396-0.61877-0.56129-0.60363
   1  -1  -8   17.69    1.69   0 0.64921-0.20770 0.36951-0.43306-0.55358-0.56407
   2  -1  -8  464.89    7.07   0 0.64614 0.02748 0.38041-0.53909-0.53812-0.60350
   2   0  -9   -0.06    1.62   0 0.64684-0.05020 0.37805-0.27167-0.54152-0.79721
   3   0  -9   47.78    2.52   0 0.64906 0.17422 0.37009-0.36094-0.55278-0.80824
   4   1  -9   -0.60    1.28   0 0.64650 0.31121 0.37923-0.23628-0.53982-0.89155
   3   1  -9    0.70    1.63   0 0.63992 0.08941 0.39928-0.16126-0.51005-0.90510
   4   0  -8  200.59    4.98   0 0.64262 0.39710 0.39152-0.51162-0.52180-0.71910
   4   2  -9   -0.12    1.26   0 0.64178 0.22378 0.39399-0.02219-0.51808-0.96799
   5   1  -8    2.75    1.03   0 0.64370 0.53398 0.38825-0.37493-0.52667-0.79007
   3  -1  -7   12.92    1.66   0 0.63816 0.25179 0.40394-0.69192-0.50278-0.51786
   2  -2  -7   30.51    2.96   0 0.23078 0.52333 0.53243-0.95362-0.87973-0.06446
   2  -2  -6  128.95    5.04   0 0.23164 0.50847 0.53138-0.98543-0.88005 0.07889
   3  -1  -9   14.78    2.34   0 0.24132 0.67777 0.51939-0.74136-0.88353-0.42418
   4   1 -10    7.31    1.98   0 0.23694 0.73838 0.52484-0.34944-0.88197-0.69875
   3  -1  -8   80.46    4.42   0 0.20456 0.69966 0.56406-0.81711-0.86949-0.29512
   3  -1  -4   31.83    2.92   0 0.20178 0.64555 0.56734-0.95313-0.86834 0.27809
   3   1 -11   15.95    3.28   0 0.20039 0.55674 0.56899-0.26426-0.86776-0.83292
   4   0  -8  215.33    6.78   0 0.20851 0.83205 0.55938-0.67912-0.87111-0.36897
   2  -1 -10    2.23    1.65   0 0.19364 0.50854 0.57691-0.66984-0.86491-0.56352
   3  -1  -7   10.57    2.60   0 0.18288 0.70812 0.58936-0.87732-0.86019-0.16020
   3  -1  -6   21.00    3.05   0 0.17301 0.70322 0.60062-0.92069-0.85570-0.02189
   3  -1  -5    5.15    2.04   0 0.17879 0.68325 0.59404-0.94724-0.85835 0.12485
   3   0 -10   24.78    2.54   0 0.18937 0.64898 0.58188-0.53997-0.86306-0.64129
   4   0  -7    3.15    2.35   0 0.17790 0.84875 0.59506-0.74861-0.85794-0.23938
   4   2 -10    1.71    2.59   0 0.17975 0.69927 0.59295-0.18798-0.85879-0.77392
   1  -2  -8   54.41    3.56   0 0.16892 0.36903 0.60521-0.89822-0.85380-0.21070
   1  -2  -7  208.05    6.26   0 0.15271 0.37072 0.62325-0.94921-0.84599-0.07494
   1  -2  -6   59.15    3.55   0 0.15205 0.35713 0.62397-0.98256-0.84566 0.06830
   2   0 -11   21.49    2.42   0 0.16913 0.45253 0.60498-0.43513-0.85389-0.77078
   3   2 -11   -1.79    2.31   0 0.15783 0.50322 0.61760-0.08515-0.84850-0.90119
   4   0  -6   -1.40    2.22   0 0.15692 0.85156 0.61860-0.80032-0.84806-0.11206
   4   1  -9   -0.50    1.99   0 0.15412 0.79866 0.62170-0.47658-0.84669-0.58341
   2  -1  -9   66.61    3.80   0 0.14088 0.54768 0.63606-0.76304-0.84005-0.44392
   3   0  -9   50.35    3.53   0 0.12753 0.69654 0.65036-0.64229-0.83308-0.52706
   2  -1  -8  461.54    9.07   0 0.10002 0.57351 0.67892-0.83795-0.81789-0.32264
   2   1 -11    0.77    1.46   0 0.09829 0.42764 0.68067-0.28110-0.81689-0.86034
   3   1 -10   -0.39    1.77   0 0.10481 0.63656 0.67402-0.40114-0.82061-0.73711
   4   1  -8   46.93    3.88   0 0.10348 0.84229 0.67538-0.56615-0.81986-0.47260
   2  -1  -7  168.03    5.45   0 0.07212 0.58718 0.70682-0.89876-0.80132-0.19551
   2   0 -10   20.87    2.33   0 0.08733 0.52022 0.69178-0.55614-0.81049-0.66971
   3   0  -8   10.85    2.62   0 0.07920 0.73117 0.69986-0.72500-0.80563-0.41054
   4   2  -9   -0.20    1.37   0 0.08880 0.77358 0.69031-0.31715-0.81136-0.68042
   2  -1  -6   68.27    3.62   0 0.05648 0.58753 0.72181-0.94544-0.79160-0.06187
   2  -1  -5   61.26    3.33   0 0.05852 0.57186 0.71987-0.97724-0.79289 0.08307
   2   2 -11    3.50    2.06   0 0.05859 0.37181 0.71980-0.09000-0.79293-0.93704
   3   2 -10   -0.36    1.56   0 0.04990 0.59885 0.72806-0.22618-0.78738-0.82724
   4   1  -7  152.70    5.59   0 0.05908 0.87191 0.71934-0.64325-0.79324-0.35547
   4   3  -9   39.14    3.04   0 0.04511 0.72410 0.73257-0.12948-0.78426-0.75853
   3   0  -7   69.55    3.67   0 0.04205 0.75307 0.73542-0.79284-0.78238-0.29065
   3   1  -9    3.21    2.03   0 0.02919 0.69796 0.74729-0.50851-0.77381-0.63848
   3   3 -10   -0.59    2.52   0 0.02414 0.52911 0.75187-0.02031-0.77038-0.89648
   4   1  -6   92.46    4.42   0 0.02729 0.88939 0.74902-0.70624-0.77252-0.23241
   4   4  -9    5.77    2.14   0 0.04036 0.63342 0.73698 0.09755-0.78127-0.81254
   1  -1  -8   17.33    2.57   0 0.01052 0.43157 0.76401-0.82686-0.76104-0.35687
   2   0  -9    0.23    1.58   0 0.02001 0.57186 0.75554-0.64647-0.76764-0.57444
   2   1 -10   35.50    2.77   0 0.00144 0.50979 0.77199-0.40524-0.75460-0.77879
   3   0  -6  170.15    5.18   0 0.01748 0.76304 0.75781-0.84874-0.76589-0.16305
   3   0  -5   26.01    2.56   0 0.00524 0.75993 0.76867-0.89092-0.75731-0.02886
   3   0  -4  188.89    5.34   0 0.01179 0.73970 0.76289-0.91910-0.76193 0.11966
   4   2  -8   -0.18    1.57   0 0.01769 0.82962 0.75762-0.41555-0.76604-0.58428
   1  -1  -7   46.72    2.93   0-0.02497 0.45311 0.79451-0.89052-0.73525-0.23818
   1  -1  -6    2.24    1.41   0-0.04728 0.46011 0.81267-0.94108-0.71821-0.11293
   2   0  -8  187.43    5.19   0-0.03535 0.61295 0.80300-0.73161-0.72747-0.46576
   2   2 -10    4.09    1.68   0-0.05555 0.47053 0.81924-0.22179-0.71167-0.87547
   2   4 -10    7.92    1.93   0-0.05192 0.27315 0.81637 0.24287-0.71455-0.97810
   3   1  -8    0.42    1.57   0-0.03177 0.74348 0.80006-0.58981-0.73021-0.54497
   3   2  -9   16.31    2.35   0-0.04283 0.67543 0.80908-0.33999-0.72169-0.74510
   4   2  -7   -1.64    1.90   0-0.04377 0.87241 0.80984-0.49820-0.72096-0.48412
   4   3  -8    2.38    1.76   0-0.04182 0.79580 0.80827-0.23868-0.72248-0.67626
   4   5  -8   10.93    2.26   0-0.04669 0.61091 0.81219 0.21693-0.71867-0.78422
   2   0  -7    3.33    1.85   0-0.07992 0.64201 0.83795-0.79954-0.69186-0.35885
   2   1  -9    6.47    1.98   0-0.07846 0.57543 0.83685-0.50174-0.69308-0.69761
   2   3 -10    4.10    1.55   0-0.07836 0.39766 0.83678-0.00877-0.69316-0.94650
   4   4  -8   21.73    2.20   0-0.06779 0.72622 0.82871-0.02961-0.70185-0.74924
   3   1  -7   42.67    2.76   0-0.08241 0.78227 0.83983-0.66847-0.68977-0.43562
   3   3  -9    0.88    1.25   0-0.08577 0.62296 0.84233-0.14381-0.68696-0.83267
   3   4  -9    1.27    1.70   0-0.09489 0.53496 0.84905 0.07883-0.67923-0.89003
   4   2  -6   12.90    1.97   0-0.08618 0.90700 0.84264-0.57013-0.68661-0.37203
   2   0  -6  146.59    4.11   0-0.11380 0.66326 0.86255-0.85813-0.66285-0.24258
   3   1  -6   77.62    3.32   0-0.12373 0.80888 0.86944-0.73059-0.65402-0.32797
   3   2  -8   20.96    2.36   0-0.11765 0.73600 0.86524-0.43035-0.65944-0.66189
   4   3  -7   47.99    2.76   0-0.11213 0.85207 0.86138-0.32549-0.66432-0.59029
   1   0  -8   59.71    2.89   0-0.13179 0.47837 0.87487-0.70786-0.64694-0.52308
   2   0  -5   59.76    2.66   0-0.13635 0.67129 0.87792-0.90601-0.64278-0.11935
   2   1  -8   72.42    3.32   0-0.14759 0.62934 0.88533-0.58302-0.63238-0.61418
   2   2  -9   52.28    2.96   0-0.14852 0.54902 0.88593-0.32040-0.63152-0.81195
   3   1  -5   18.68    2.01   0-0.15470 0.82544 0.88990-0.78327-0.62572-0.21319
   4   4  -7   29.37    2.50   0-0.15199 0.79627 0.88817-0.12135-0.62827-0.67906
   4   5  -7   -0.65    1.32   0-0.15061 0.69822 0.88728 0.11094-0.62956-0.73657
   1   1  -9   11.80    1.86   0-0.16644 0.43072 0.89726-0.46699-0.61466-0.75063
   3   1  -4  820.50    9.50   0-0.17307 0.82945 0.90133-0.82797-0.60825-0.08685
   3   3  -8    1.65    1.62   0-0.17312 0.69487 0.90136-0.23538-0.60820-0.76698
   3   5  -8    3.36    1.81   0-0.17516 0.50564 0.90260 0.22298-0.60621-0.87538
   4   3  -6   41.24    2.72   0-0.17182 0.89611 0.90057-0.39564-0.60946-0.50204
   1   0  -7  165.61    4.27   0-0.18638 0.51893 0.90928-0.77562-0.59515-0.43095
   2   3  -9   77.75    3.11   0-0.18536 0.49075 0.90868-0.11424-0.59616-0.90005
   2   4  -9    9.20    1.46   0-0.18536 0.39480 0.90868 0.11625-0.59616-0.95288
   3   2  -7   10.89    1.56   0-0.18087 0.78436 0.90602-0.50337-0.60060-0.57876
   2   2  -8   42.82    2.34   0-0.49957 0.88600 0.63840-0.10527-0.78008-0.51855
   2   4  -7   32.88    2.51   0-0.51765 0.69767 0.63412 0.32670-0.77030-0.49180
   1   5  -7    1.48    1.05   0-0.52843 0.38173 0.63135 0.65448-0.76419-0.52778
   0   3 -10    1.43    1.28   0-0.56626 0.42106 0.62052 0.39818-0.74122-0.84909
   0   4  -9    3.83    1.40   0-0.56530 0.30886 0.62082 0.59780-0.74183-0.75953
   1   3  -9    5.88    1.34   0-0.55597 0.62862 0.62364 0.26910-0.74774-0.72496
   1   4  -8    1.60    1.59   0-0.56919 0.53112 0.61960 0.46726-0.73932-0.64091
   2   2  -7   82.02    2.94   0-0.55531 0.92704 0.62383-0.12415-0.74815-0.40683
   2   3  -7  112.73    3.36   0-0.55731 0.83260 0.62324 0.10708-0.74690-0.46131
   2   4  -6   29.15    2.29   0-0.56657 0.73247 0.62042 0.30696-0.74101-0.37653
  -1   2 -11   16.75    1.70   0-0.59980 0.33219 0.60930 0.31213-0.71853-0.94283
   1   2  -9   17.27    1.61   0-0.58519 0.75325 0.61439 0.04768-0.72871-0.69126
   2   2  -6   79.67    2.88   0-0.59658 0.95337 0.61045-0.14391-0.72081-0.29047
   2   3  -6   -1.12    1.64   0-0.59937 0.86021 0.60945 0.09124-0.71884-0.35530
   2   4  -5   42.98    2.58   0-0.60172 0.75335 0.60861 0.28496-0.71716-0.25643
  -1   4  -9   29.30    1.92   0-0.61032 0.11928 0.60532 0.71351-0.71103-0.76584
   0   2 -10   10.89    1.58   0-0.61981 0.57084 0.60169 0.18865-0.70396-0.83651
   1   3  -8   70.95    2.95   0-0.62997 0.68759 0.59763 0.26177-0.69616-0.63285
   2   2  -5   65.59    2.59   0-0.62295 0.96606 0.60045-0.16701-0.70157-0.16594
   2   4  -4    3.41    1.57   0-0.62303 0.76055 0.60041 0.25985-0.70151-0.12989
  -2   2 -11   13.56    1.97   0-0.65397 0.15325 0.58727 0.42983-0.67674-0.96101
  -1   3 -10    4.22    1.11   0-0.63128 0.25454 0.59705 0.52066-0.69516-0.87496
   0   4  -8   19.89    1.86   0-0.64787 0.37830 0.58999 0.59578-0.68182-0.67701
   1   2  -8    5.30    1.59   0-0.65379 0.80841 0.58736 0.04148-0.67689-0.60006
   1   4  -7   42.41    2.40   0-0.63087 0.57861 0.59721 0.45938-0.69548-0.54257
   2   3  -5   13.79    1.51   0-0.63291 0.87899 0.59637 0.06788-0.69387-0.22780
   2   3  -4    7.38    1.42   0-0.65087 0.88337 0.58866 0.04186-0.67934-0.09848
  -2   3 -10    4.13    1.55   0-0.66306 0.05328 0.58321 0.62848-0.66905-0.87991
   0   3  -9   28.77    1.97   0-0.65550 0.49574 0.58669 0.40224-0.67550-0.77427
  -1   4  -8    6.36    1.49   0-0.69712 0.19616 0.56600 0.71531-0.63790-0.69838
   1   3  -7    7.09    1.70   0-0.68725 0.73168 0.57124 0.25316-0.64728-0.53818
   1   4  -6   13.50    1.65   0-0.68003 0.61299 0.57493 0.44916-0.65395-0.44057
  -2   4  -8   28.73    1.87   0-0.71271-0.02059 0.55716 0.82184-0.62232-0.68887
  -1   2 -10    3.39    1.09   0-0.70573 0.42358 0.56114 0.32587-0.62934-0.88852
  -1   3  -9   11.43    1.83   0-0.72066 0.33003 0.55248 0.53270-0.61413-0.81272
   0   2  -9   63.97    2.66   0-0.70243 0.63886 0.56298 0.19500-0.63261-0.76418
   0   4  -7  232.46    5.05   0-0.71094 0.42706 0.55818 0.59445-0.62412-0.59077
   1   2  -7  297.92    5.18   0-0.70936 0.84869 0.55909 0.03666-0.62571-0.50638
   1   4  -5    0.27    1.61   0-0.71701 0.63658 0.55465 0.43531-0.61791-0.33398
   0   3  -8   31.47    2.13   0-0.72516 0.55168 0.54970 0.40543-0.60935-0.69610
   1   3  -6   27.65    2.17   0-0.73181 0.76155 0.54558 0.24713-0.60221-0.43915
  -4   1 -11    0.06    1.28   0-0.75585-0.11030 0.52966 0.44986-0.57494-0.96552
  -4   2 -10   16.28    1.67   0-0.76231-0.21552 0.52505 0.65119-0.56716-0.88082
  -3   3  -9    5.32    1.49   0-0.75852-0.09925 0.52778 0.74840-0.57176-0.81138
  -2   2 -10   18.23    1.92   0-0.75687 0.24485 0.52894 0.45482-0.57373-0.92061
  -2   3  -9   15.23    1.63   0-0.75618 0.13358 0.52943 0.65075-0.57456-0.82915
  -1   4  -7    0.21    1.46   0-0.75836 0.24211 0.52789 0.72173-0.57195-0.62702
   0   4  -6   45.76    2.70   0-0.75903 0.46193 0.52741 0.59182-0.57115-0.50022
   1   2  -6    1.28    1.33   0-0.75232 0.87741 0.53212 0.02989-0.57911-0.41002
  -3   2 -10   29.62    2.08   0-0.77784 0.03354 0.51350 0.56642-0.54787-0.92372
  -1   2  -9    1.13    1.65   0-0.78060 0.48556 0.51133 0.34312-0.54426-0.83086
   0   2  -8  167.89    4.04   0-0.76625 0.68847 0.52229 0.20256-0.56255-0.69051
   0   3  -7   35.56    2.56   0-0.77919 0.59124 0.51244 0.40956-0.54611-0.61664
   1   3  -5  166.22    3.85   0-0.76625 0.78182 0.52229 0.23725-0.56255-0.33536
  -1   3  -8    5.04    1.37   0-0.78697 0.38230 0.50615 0.54498-0.53580-0.74751
   1   2  -5  270.70    4.71   0-0.78513 0.89607 0.50764 0.02188-0.53827-0.30648
   1   3  -4    7.58    1.43   0-0.79149 0.79295 0.50241 0.22311-0.52964-0.22482
  -4   3  -8   27.49    1.82   0-0.80554-0.29311 0.49023 0.85064-0.50971-0.70486
  -2   1 -10   16.13    1.66   0-0.80582 0.38773 0.48997 0.26293-0.50928-0.93224
  -1   1  -9   49.96    2.60   0-0.81095 0.61169 0.48527 0.13846-0.50167-0.81853
   0   2  -7    3.24    1.53   0-0.81622 0.72392 0.48031 0.21155-0.49365-0.61711
  -2   3  -8    3.63    1.19   0-0.82058 0.18311 0.47609 0.67260-0.48685-0.77334
   0   3  -6  560.65    7.29   0-0.82167 0.61960 0.47501 0.41381-0.48512-0.53352
  -9  -4  -2    1.89    2.34   0-0.67696-0.99498-0.36630 0.37933 0.10892 0.02297
  -7  -1  -1   16.15    2.54   0-0.67525-0.83380-0.36842 0.84781 0.10890-0.03902
  -7  -1   0   15.67    2.45   0-0.67910-0.84441-0.36366 0.81056 0.10894 0.10457
  -4   1   0   34.47    2.89   0-0.67867-0.34049-0.36419 0.98057 0.10893-0.06956
  -4   1   1  105.13    4.63   0-0.67867-0.35531-0.36419 0.94733 0.10893 0.07405
  -8  -3   1   -0.52    2.02   0-0.63587-0.94428-0.41530 0.46473 0.10837 0.37395
  -5   0  -2   96.70    4.84   0-0.61164-0.51429-0.44256 0.99052 0.10795-0.28012
  -5   0   2   13.19    2.65   0-0.61612-0.56866-0.43759 0.85445 0.10804 0.29426
  -9  -5  -3    0.43    2.20   0-0.59342-0.96731-0.46226 0.27955 0.10765-0.06614
  -9  -5  -2    7.60    2.69   0-0.59388-0.98080-0.46175 0.24784 0.10766 0.07391
  -8  -3  -3   11.33    2.73   0-0.58609-0.93341-0.47008 0.65156 0.10748-0.19615
  -8  -3  -2    1.65    2.14   0-0.57167-0.96423-0.48522 0.63336 0.10711-0.05152
  -8  -3  -1    4.83    2.25   0-0.57304-0.97572-0.48380 0.59847 0.10715 0.09127
  -8  -3   0    3.43    1.87   0-0.59435-0.96880-0.46125 0.54365 0.10767 0.23510
  -6  -1   2    1.45    2.18   0-0.58547-0.73493-0.47074 0.75321 0.10746 0.36991
  -5   0  -1    0.55    2.15   0-0.58688-0.55668-0.46925 0.98532 0.10750-0.13598
  -5   0   0   57.78    3.67   0-0.57842-0.57682-0.47818 0.96113 0.10729 0.00767
  -5   0   1    4.17    2.09   0-0.58523-0.58322-0.47099 0.91771 0.10746 0.15014
  -7  -2  -3   62.80    4.33   0-0.55422-0.82916-0.50311 0.81709 0.10662-0.27101
  -7  -2   1    1.72    1.77   0-0.56351-0.87873-0.49365 0.67609 0.10688 0.30316
  -6  -1  -2   97.22    4.88   0-0.54514-0.71744-0.51223 0.92913 0.10636-0.20321
  -6  -1   1   40.60    3.56   0-0.54968-0.75641-0.50769 0.82506 0.10649 0.22779
  -7  -2  -2    7.63    2.59   0-0.53077-0.86850-0.52619 0.80854 0.10601-0.12649
  -7  -2  -1   20.48    2.93   0-0.52308-0.88965-0.53365 0.78186 0.10577 0.01729
  -7  -2   0   -0.48    1.72   0-0.53496-0.89572-0.52209 0.73568 0.10615 0.15814
  -6  -1  -1   13.64    2.82   0-0.52762-0.74885-0.52925 0.91178 0.10591-0.05881
  -6  -1   0   25.08    3.02   0-0.53028-0.76170-0.52667 0.87718 0.10600 0.08449
  -8  -4   0    2.91    1.99   0-0.48897-0.97819-0.56571 0.41775 0.10463 0.29100
  -4   0  -2  304.95    7.36   0-0.51164-0.38322-0.54454 0.99711 0.10543-0.30013
  -8  -4  -3    2.86    2.08   0-0.45642-0.96774-0.59486 0.54587 0.10341-0.13827
  -8  -4  -1    5.22    2.13   0-0.45829-0.99474-0.59322 0.47944 0.10348 0.14830
  -4   0  -1  231.78    6.31   0-0.47598-0.43355-0.57748 0.99712 0.10417-0.15528
  -4   0   0  104.90    4.31   0-0.46221-0.46212-0.58976 0.97569 0.10364-0.01123
  -4   0   1    2.80    1.27   0-0.47240-0.46736-0.58070 0.93438 0.10404 0.13198
  -8  -4  -2   12.71    2.23   0-0.44711-0.99124-0.60297 0.52021 0.10303 0.00530
  -7  -3   1    0.93    1.99   0-0.43038-0.91406-0.61725 0.56949 0.10233 0.36037
  -8  -5   0    7.38    2.25   0-0.40723-0.96356-0.63647 0.25792 0.10131 0.34737
  -7  -3  -3    5.02    2.27   0-0.39229-0.89830-0.64854 0.73407 0.10063-0.21131
  -7  -3   0    6.43    2.33   0-0.39243-0.93900-0.64843 0.63536 0.10063 0.21831
  -5  -1  -2    1.04    1.74   0-0.39626-0.63659-0.64536 0.96470 0.10081-0.22000
  -5  -1   1   39.32    3.07   0-0.39431-0.68020-0.64692 0.86789 0.10072 0.21062
  -8  -6   0    4.41    2.00   0-0.36350-0.91161-0.67108 0.06301 0.09923 0.40000
  -8  -5  -4    2.14    1.85   0-0.36720-0.94484-0.66823 0.42138 0.09941-0.22460
  -8  -5  -1   28.14    3.01   0-0.36456-0.99176-0.67026 0.32431 0.09928 0.20527
  -7  -3  -2    5.65    2.38   0-0.37134-0.93099-0.66502 0.71673 0.09962-0.06749
  -7  -3  -1    7.57    2.39   0-0.37191-0.94523-0.66458 0.68202 0.09964 0.07669
  -6  -2  -3   14.02    2.16   0-0.38305-0.76992-0.65586 0.87444 0.10018-0.28764
  -6  -2   1    8.28    1.92   0-0.38305-0.82730-0.65586 0.74236 0.10018 0.28719
  -5  -1  -1  308.08    7.27   0-0.37300-0.67215-0.66373 0.94937 0.09970-0.07536
  -5  -1   0    7.21    2.02   0-0.37339-0.68674-0.66343 0.91704 0.09972 0.06761
  -8  -5  -3    4.27    1.69   0-0.34621-0.98176-0.68419 0.40367 0.09835-0.08079
  -8  -5  -2    6.15    1.86   0-0.34457-0.99733-0.68541 0.37184 0.09827 0.06255
  -6  -2  -2   37.30    2.90   0-0.35221-0.81443-0.67968 0.86513 0.09866-0.14236
  -6  -2   0    9.40    2.05   0-0.35275-0.84309-0.67927 0.79863 0.09868 0.14443
  -8  -6  -7   18.26    1.75   0-0.29869-0.87577-0.61888 0.23790-0.19242-0.30941
  -8  -5  -5    4.22    0.94   0-0.31668-0.98245-0.60256 0.38668-0.19803-0.07000
  -7  -4  -7   12.44    1.52   0-0.29503-0.84002-0.62215 0.60596-0.19127-0.44092
  -6  -2  -4   12.18    1.29   0-0.31370-0.82534-0.60529 0.85573-0.19710-0.13185
  -6  -2  -3   14.14    1.54   0-0.30586-0.84736-0.61242 0.82994-0.19466 0.00927
  -8  -7  -7    6.28    1.53   0-0.26041-0.81771-0.65232 0.03987-0.18036-0.26630
  -8  -6  -6   13.09    1.46   0-0.26153-0.92751-0.65136 0.23767-0.18072-0.17731
  -6  -3  -7   46.24    2.41   0-0.27333-0.72639-0.64122 0.76001-0.18446-0.52265
  -8  -6  -5    0.25    0.99   0-0.24477-0.95855-0.66546 0.22047-0.17538-0.04049
  -7  -5  -8    6.67    1.32   0-0.24715-0.77810-0.66348 0.45035-0.17614-0.54550
  -7  -4  -6   12.55    1.66   0-0.24724-0.90307-0.66341 0.61513-0.17617-0.31137
  -5  -2  -6   24.51    1.76   0-0.23811-0.64121-0.67099 0.89173-0.17325-0.46612
  -4  -1  -5   76.97    2.51   0-0.25917-0.49847-0.65335 0.97484-0.17997-0.39094
  -8  -7  -6    0.57    1.10   0-0.22465-0.86787-0.68200 0.03926-0.16894-0.13712
  -7  -4  -5    1.22    1.17   0-0.21555-0.94846-0.68933 0.60841-0.16600-0.17844
  -7  -4  -4    1.11    1.20   0-0.20115-0.97693-0.70074 0.58728-0.16133-0.03882
  -6  -3  -6    1.96    1.24   0-0.21403-0.79967-0.69055 0.77649-0.16551-0.39900
  -4  -1  -4  180.17    3.70   0-0.20893-0.56346-0.69461 0.98253-0.16386-0.26385
  -7  -5  -7    1.36    1.18   0-0.18072-0.85861-0.71655 0.47107-0.15469-0.42379
  -6  -3  -5   17.83    1.64   0-0.17131-0.85744-0.72368 0.77729-0.15160-0.26848
  -5  -2  -5    7.72    1.32   0-0.18191-0.71115-0.71564 0.90224-0.15508-0.34121
  -4  -1  -3   58.92    2.18   0-0.17779-0.60905-0.71877 0.97365-0.15373-0.13042
  -7  -6  -8    0.99    0.77   0-0.16114-0.76756-0.73126 0.28821-0.14829-0.52065
  -6  -3  -4    2.35    1.20   0-0.14463-0.89791-0.74337 0.76412-0.14283-0.13444
  -5  -2  -4   41.67    2.04   0-0.14312-0.76400-0.74446 0.89799-0.14232-0.21003
  -7  -8  -8    1.93    1.22   0-0.12081-0.61401-0.76030-0.14575-0.13499-0.42744
  -7  -7  -8    4.79    1.25   0-0.11474-0.71845-0.76454 0.09047-0.13296-0.48282
  -7  -5  -6    7.00    1.14   0-0.13256-0.92070-0.75201 0.47327-0.13892-0.29628
  -6  -4  -7   28.00    1.99   0-0.12416-0.77993-0.75795 0.64620-0.13611-0.51841
  -6  -3  -3    2.41    0.97   0-0.13596-0.92132-0.74958 0.73668-0.14005 0.00667
  -5  -2  -3   99.62    2.87   0-0.12245-0.79927-0.75915 0.87915-0.13554-0.07290
  -5  -2  -2   41.49    1.99   0-0.12239-0.81379-0.75920 0.84621-0.13552 0.07078
  -7  -6  -7    1.31    0.84   0-0.09468-0.84782-0.77825 0.30190-0.12622-0.39908
  -7  -5  -5    0.16    0.92   0-0.10232-0.96445-0.77307 0.45838-0.12880-0.16642
  -7  -5  -4    7.71    1.42   0-0.08935-0.99235-0.78182 0.43701-0.12442-0.02354
  -6  -5  -8    0.26    1.12   0-0.07791-0.71531-0.78939 0.47993-0.12054-0.62414
  -7  -8  -7    3.03    1.57   0-0.05240-0.69860-0.80579-0.13113-0.11183-0.30785
  -7  -7  -7   10.79    1.51   0-0.04871-0.79844-0.80811 0.10156-0.11057-0.36232
  -7  -6  -6    6.63    1.42   0-0.04898-0.90860-0.80794 0.29931-0.11066-0.27101
  -6  -4  -6   37.44    1.94   0-0.06406-0.85469-0.79838 0.65414-0.11582-0.39522
  -5  -3  -6    1.54    1.09   0-0.04996-0.73487-0.80732 0.79788-0.11100-0.47709
  -7  -8  -6    8.83    1.80   0-0.00999-0.75451-0.83163-0.14022-0.09727-0.17831
  -7  -6  -5    8.18    1.60   0-0.02060-0.95060-0.82535 0.28214-0.10095-0.13719
  -7  -6  -4    7.95    1.54   0-0.01137-0.97426-0.83082 0.25419-0.09775 0.00386
  -6  -4  -5   59.57    2.60   0-0.01996-0.91284-0.82573 0.64734-0.10072-0.26653
  -4  -2  -5   88.38    2.79   0-0.02073-0.64124-0.82527 0.91575-0.10099-0.41769
  -7  -8  -5    1.39    1.04   0 0.00993-0.78848-0.84312-0.16056-0.09056-0.04264
  -7  -7  -6    5.49    1.06   0-0.00401-0.85628-0.83512 0.09411-0.09542-0.23450
  -7  -7  -5   11.73    1.66   0 0.02047-0.89538-0.84904 0.07501-0.08687-0.09827
  -6  -6  -8   15.89    1.70   0 0.01111-0.70812-0.84379 0.30362-0.09015-0.60256
  -6  -5  -7   77.16    2.94   0-0.00082-0.80661-0.83696 0.49403-0.09431-0.50796
  -6  -4  -4   23.20    1.92   0 0.00728-0.95369-0.84161 0.62995-0.09149-0.13241
  -6  -4  -3   16.27    1.81   0 0.01526-0.97656-0.84613 0.60171-0.08870 0.00823
  -5  -3  -5   61.59    2.52   0 0.01107-0.80824-0.84376 0.79959-0.09016-0.35285
  -2   6  -2   42.72    1.95   0-0.90923-0.09410 0.69545 0.94343-0.22986-0.32834
  -1   6  -2   31.21    1.78   0-0.90800 0.13447 0.69790 0.84402-0.23087-0.34963
   0   6   0    6.76    1.39   0-0.91163 0.33843 0.69059 0.68880-0.22786-0.08767
   0   6   1   55.26    2.45   0-0.91273 0.32473 0.68833 0.65792-0.22693 0.05491
   1   5  -1   19.33    1.44   0-0.90675 0.67361 0.70035 0.38614-0.23188-0.19738
   1   5   0   20.29    1.71   0-0.91360 0.66702 0.68652 0.36668-0.22619-0.05940
   1   5   1   95.97    2.94   0-0.91321 0.65173 0.68732 0.33289-0.22652 0.08430
  -4   5  -3    4.34    1.43   0-0.92819-0.43074 0.65296 0.98345-0.21278-0.39117
  -2   6  -1   11.11    1.39   0-0.92375-0.09754 0.66370 0.94161-0.21716-0.19711
  -1   5  -4    0.65    1.20   0-0.92319 0.26927 0.66502 0.71507-0.21769-0.59782
  -1   6  -1   45.77    2.32   0-0.92222 0.13444 0.66727 0.84111-0.21862-0.21843
   0   5  -3    2.52    1.13   0-0.91998 0.48515 0.67237 0.57608-0.22070-0.47428
   1   4  -2    0.75    0.61   0-0.91951 0.79585 0.67343 0.21794-0.22113-0.30039
  -3   5  -4   24.71    1.65   0-0.92995-0.18152 0.64829 0.92225-0.21126-0.55968
  -2   5  -4   82.09    3.06   0-0.93509 0.05337 0.63468 0.83920-0.20574-0.58753
  -2   6   0   29.56    1.85   0-0.92952-0.10312 0.64938 0.92297-0.21170-0.05946
  -1   6   0   62.66    2.51   0-0.92901 0.12607 0.65068 0.82526-0.21223-0.08155
   1   4  -1  137.18    3.53   0-0.93228 0.79548 0.64225 0.21368-0.20881-0.16749
  -5   4  -4    4.80    1.30   0-0.94712-0.53462 0.59795 0.93524-0.19102-0.48028
  -4   5  -2   23.38    1.91   0-0.94565-0.42606 0.60288 0.99902-0.19300-0.26743
  -1   5  -3    2.04    1.38   0-0.94544 0.27943 0.60358 0.74178-0.19328-0.47839
   0   5  -2   21.78    1.80   0-0.93800 0.48921 0.62644 0.58892-0.20250-0.34781
  -4   5  -1   77.93    2.83   0-0.95394-0.43457 0.57285 0.99542-0.18110-0.13568
  -3   5  -3   34.98    2.10   0-0.95134-0.17678 0.58287 0.95356-0.18511-0.44155
  -2   5  -3    6.41    1.46   0-0.95415 0.05807 0.57201 0.86916-0.18076-0.46782
   0   4  -3  118.61    3.51   0-0.95340 0.61491 0.57496 0.44291-0.18195-0.45920
   0   5  -1    0.33    1.00   0-0.94834 0.48380 0.59372 0.59038-0.18946-0.21836
   0   5   0    9.41    1.50   0-0.95325 0.47621 0.57558 0.57423-0.18219-0.08216
   0   5   1    2.39    1.24   0-0.95346 0.46126 0.57474 0.54338-0.18186 0.06158
  -1   5  -2  512.25    6.94   0-0.95827 0.27869 0.55430 0.75683-0.17391-0.35414
  -5   4  -3   12.95    1.76   0-0.96409-0.53031 0.52461 0.97386-0.16224-0.36561
  -3   5  -2    6.77    1.12   0-0.96202-0.17827 0.53596 0.96821-0.16674-0.31659
  -2   5  -2   19.79    1.84   0-0.96438 0.05495 0.52294 0.88450-0.16158-0.34419
  -1   5  -1   56.72    2.53   0-0.96481 0.27205 0.52041 0.75822-0.16058-0.22412
   0   4  -2   66.80    2.64   0-0.96471 0.61181 0.52096 0.46418-0.16079-0.33678
  -4   4  -4   17.55    1.59   0-0.96861-0.28081 0.49477 0.94021-0.15051-0.54428
  -3   5  -1    1.57    0.96   0-0.96740-0.18959 0.50358 0.96805-0.15399-0.18590
  -3   5   0   12.44    1.51   0-0.96938-0.19923 0.48866 0.94976-0.14810-0.04782
  -2   5  -1  114.55    3.43   0-0.96937 0.04505 0.48874 0.88621-0.14813-0.21394
  -1   5   0   -0.45    1.22   0-0.96833 0.25351 0.49690 0.75122-0.15135-0.09473
  -5   4  -2    0.30    0.91   0-0.97070-0.53836 0.47698 0.98904-0.14369-0.24135
  -2   4  -4   28.39    1.84   0-0.97093 0.18533 0.47471 0.76851-0.14279-0.59753
   0   4  -1   79.21    2.71   0-0.97015 0.60324 0.48201 0.47013-0.14567-0.20794
   5   1   0    6.04    1.79   0 0.37733 0.68269 0.63927-0.88776-0.58519 0.41974
   6   2  -5    5.16    1.95   0 0.37204 0.89320 0.64365-0.59338-0.58501-0.37337
   6   2   0    6.24    2.17   0 0.36151 0.83343 0.65226-0.76696-0.58460 0.34287
   7   3  -3    0.76    1.32   0 0.38427 0.98772 0.63348-0.51556-0.58539-0.16217
   7   3  -2    0.74    1.64   0 0.37185 0.98600 0.64381-0.55868-0.58501-0.01921
   7   3  -1    1.01    1.79   0 0.37678 0.96455 0.63973-0.58670-0.58517 0.12452
   7   5  -5    0.73    2.07   0 0.36909 0.84203 0.64608-0.00109-0.58491-0.55712
   4   0  -4   54.57    3.13   0 0.33432 0.64666 0.67392-0.92590-0.58317-0.08067
   4   0  -3  511.90    8.62   0 0.33263 0.63413 0.67525-0.95989-0.58307 0.06300
   4   0  -2   82.60    3.43   0 0.35350 0.59939 0.65872-0.97658-0.58421 0.20774
   5   1  -5   27.35    2.65   0 0.33436 0.79645 0.67389-0.75810-0.58318-0.30016
   6   2  -4    3.18    1.93   0 0.33094 0.92036 0.67656-0.65914-0.58297-0.23304
   6   3  -6   17.00    2.13   0 0.32860 0.85460 0.67838-0.36233-0.58282-0.57456
   7   4  -4    0.44    1.54   0 0.33194 0.96229 0.67579-0.29504-0.58303-0.36272
   5   1  -4    8.66    2.07   0 0.30182 0.81415 0.69884-0.81569-0.58098-0.15944
   5   1  -2   43.95    3.06   0 0.29732 0.79087 0.70219-0.88469-0.58061 0.12763
   5   1  -1   36.53    2.57   0 0.32626 0.74765 0.68027-0.89598-0.58279 0.27330
   6   2  -3   87.11    4.16   0 0.30837 0.92861 0.69393-0.70773-0.58150-0.09135
   6   2  -2  120.30    4.75   0 0.30649 0.91696 0.69535-0.74301-0.58136 0.05225
   6   2  -1    8.89    1.85   0 0.32356 0.88544 0.68235-0.76386-0.58261 0.19665
   5   1  -3   23.64    2.21   0 0.29050 0.81230 0.70730-0.85796-0.58013-0.01601
   7   4  -3    5.69    1.52   0 0.28448 0.99170 0.71170-0.35999-0.57959-0.22397
   7   4  -2    0.60    1.75   0 0.26306 0.99979 0.72708-0.41179-0.57746-0.08002
   7   5  -4    5.84    2.15   0 0.27479 0.91934 0.71872-0.10652-0.57866-0.41938
   7   6  -4    3.88    2.15   0 0.27955 0.82236 0.71528 0.12473-0.57912-0.46819
   6   3  -5   26.92    2.32   0 0.25208 0.91748 0.73484-0.45275-0.57632-0.43699
   6   4  -6    7.87    1.56   0 0.25457 0.83274 0.73311-0.18681-0.57660-0.63286
   6   5  -6    7.02    2.36   0 0.23049 0.75886 0.74963 0.02530-0.57375-0.69228
   7   4  -1   26.33    2.68   0 0.26202 0.98695 0.72788-0.44443-0.57741 0.06275
   6   3  -4    7.51    1.96   0 0.20051 0.95608 0.76941-0.52190-0.56967-0.29904
   7   5  -3    1.28    1.24   0 0.21878 0.96257 0.75747-0.17885-0.57220-0.28168
   7   6  -3   -0.04    2.19   0 0.20706 0.88312 0.76517 0.04522-0.57060-0.33878
   5   2  -5   24.61    2.45   0 0.17248 0.86241 0.78712-0.64133-0.56543-0.37113
   6   3  -3    8.90    2.11   0 0.16813 0.97385 0.78980-0.57526-0.56473-0.16105
   6   3  -1   21.72    2.40   0 0.16281 0.95082 0.79305-0.64410-0.56386 0.12486
   6   4  -5    1.24    1.50   0 0.16432 0.91018 0.79213-0.28189-0.56411-0.50134
   7   5  -2    6.52    1.52   0 0.18634 0.98112 0.77847-0.23160-0.56759-0.14343
   7   5  -1   -1.50    1.57   0 0.17451 0.97898 0.78587-0.27174-0.56576-0.00711
   4   1  -1   31.84    2.18   0 0.14037 0.70238 0.80651-0.92607-0.56012 0.27328
   5   2   0   63.73    3.14   0 0.16216 0.80212 0.79349-0.81224-0.56386 0.34461
   6   3  -2    8.90    1.69   0 0.15539 0.97244 0.79758-0.61561-0.56273-0.01947
   6   6  -5    0.93    1.99   0 0.12960 0.75375 0.81278 0.15787-0.55816-0.61319
   7   6  -2   19.44    2.04   0 0.15284 0.91912 0.79911-0.02304-0.56229-0.20218
   5   2  -4   16.49    1.87   0 0.12823 0.89216 0.81359-0.70055-0.55806-0.23526
   5   2  -1   69.12    3.01   0 0.11944 0.85915 0.81862-0.80465-0.55641 0.19342
   6   5  -5    1.84    1.06   0 0.11859 0.86074 0.81911-0.07948-0.55625-0.56286
   3  -3  -2    1.19    2.67   0 0.91927 0.08838-0.03642-0.87503-0.10357-0.09370
   3  -3  -1  105.38    6.33   0 0.91790 0.07574-0.03300-0.91089-0.10370 0.04767
   5  -2   2    4.91    4.13   0 0.91090 0.40481-0.01606-0.98687-0.10433 0.38102
   7  -1   0    6.79    2.72   0 0.91616 0.79685-0.02873-0.87107-0.10387-0.00685
   5  -2  -3    0.84    2.85   0 0.90437 0.48882-0.00079-0.83988-0.10487-0.33415
   5  -2   1   14.81    4.17   0 0.89225 0.44030 0.02629-0.99949-0.10577 0.23772
   5  -2  -2   32.11    4.40   0 0.88669 0.48689 0.03827-0.91004-0.10612-0.19335
   5  -2  -1    3.86    3.79   0 0.87898 0.48141 0.05436-0.96108-0.10660-0.04639
   5  -2   0    0.87    3.37   0 0.88073 0.46539 0.05075-0.99048-0.10649 0.09707
   6  -1   2   28.62    5.34   0 0.85765 0.59681 0.09645-0.96689-0.10770 0.30610
   4  -2  -2  157.97    8.34   0 0.83923 0.30415 0.13038-0.90698-0.10844-0.16747
   4  -2   1   -1.99    2.89   0 0.85125 0.25661 0.10847-0.98591-0.10797 0.26122
   6  -1  -2   89.05    6.39   0 0.85079 0.65890 0.10932-0.84690-0.10799-0.26759
   6  -1   1    1.91    4.31   0 0.84023 0.62865 0.12859-0.96835-0.10840 0.16665
   7   0  -2   -0.73    3.41   0 0.84349 0.80363 0.12270-0.72718-0.10828-0.33897
   8   1  -1    9.54    4.71   0 0.84286 0.92356 0.12386-0.62664-0.10830-0.27302
   3  -2   1   32.53    4.01   0 0.83134 0.03909 0.14438-0.92549-0.10869 0.28723
   4  -2  -1    1.73    3.17   0 0.83134 0.29759 0.14438-0.95459-0.10869-0.02127
   4  -2   0  208.83    9.01   0 0.83583 0.27927 0.13647-0.97988-0.10854 0.11947
   6  -1  -1  189.26    9.00   0 0.83551 0.66055 0.13704-0.90811-0.10855-0.12335
   6  -1   0    2.97    3.32   0 0.83166 0.64990 0.14381-0.94898-0.10868 0.02321
   7   0  -1   33.77    5.25   0 0.81976 0.81195 0.16425-0.80060-0.10904-0.19909
   7   0   2   19.82    4.64   0 0.82427 0.76397 0.15658-0.89247-0.10891 0.23257
   8   1   0   20.74    4.69   0 0.82265 0.92965 0.15934-0.69312-0.10896-0.13115
   8   1   1   -0.85    3.18   0 0.82085 0.92252 0.16240-0.73357-0.10901 0.01285
   8   1   2    6.23    3.85   0 0.82551 0.89747 0.15446-0.75595-0.10887 0.15837
   3  -2  -2   26.82    4.26   0 0.80913 0.10333 0.18199-0.86274-0.10932-0.14196
   3  -2  -1    3.09    3.19   0 0.80290 0.09529 0.19211-0.90702-0.10946 0.00236
   3  -2   0  104.06    6.24   0 0.81046 0.07319 0.17980-0.92763-0.10929 0.14421
   7   0   0    3.35    4.11   0 0.80866 0.80846 0.18275-0.85339-0.10933-0.05222
   7   0   1   -0.17    3.77   0 0.80687 0.79296 0.18568-0.88300-0.10938 0.08776
   5  -1   2  113.52    7.88   0 0.78628 0.43687 0.21838-0.99288-0.10976 0.33203
   9   3   1    2.58    5.58   0 0.77827 0.99953 0.23065-0.43490-0.10988-0.11309
   9   3   3    4.23    4.85   0 0.78578 0.96233 0.21916-0.48885-0.10977 0.17363
   5  -1  -2   19.21    4.24   0 0.76878 0.51000 0.24489-0.88722-0.10999-0.24185
   9   3   2    4.37    4.83   0 0.77323 0.99090 0.23826-0.47565-0.10994 0.03043
;
_shelx_hkl_checksum              92692
loop_
_space_group_symop_operation_xyz
'x, y, z'
'-x, -y, -z'
loop_
_atom_site_label
_atom_site_type_symbol
_atom_site_fract_x
_atom_site_fract_y
_atom_site_fract_z
_atom_site_U_iso_or_equiv
_atom_site_adp_type
_atom_site_occupancy
_atom_site_site_symmetry_order
_atom_site_calc_flag
_atom_site_refinement_flags_posn
_atom_site_refinement_flags_adp
_atom_site_refinement_flags_occupancy
_atom_site_disorder_assembly
_atom_site_disorder_group
S1 S 0.10200(8) 0.75435(7) 0.36808(5) 0.0479(2) Uani 1 1 d . . . . .
F7 F 0.1964(2) 0.93599(19) -0.22342(12) 0.0612(4) Uani 1 1 d . . . . .
F8 F 0.3397(2) 0.67434(19) -0.02454(13) 0.0690(4) Uani 1 1 d . . . . .
F10 F 0.0154(2) 0.7514(2) 0.61489(13) 0.0689(4) Uani 1 1 d . . . . .
F11 F 0.0403(3) 0.6228(3) 0.85801(15) 0.0854(5) Uani 1 1 d . . . . .
F12 F 0.3184(3) 0.2561(3) 0.95441(15) 0.0948(6) Uani 1 1 d . . . . .
F13 F 0.5651(3) 0.0170(2) 0.79940(17) 0.0895(6) Uani 1 1 d . . . . .
F14 F 0.5390(2) 0.1358(2) 0.55729(15) 0.0761(5) Uani 1 1 d . . . . .
C2 C 0.2528(3) 0.5131(3) 0.4382(2) 0.0450(5) Uani 1 1 d . . . . .
C3 C 0.3391(4) 0.4003(3) 0.3518(2) 0.0551(6) Uani 1 1 d . . . . .
H3 H 0.4239 0.2654 0.3715 0.066 Uiso 1 1 calc R U . . .
C4 C 0.2889(4) 0.5049(3) 0.2311(2) 0.0542(5) Uani 1 1 d . . . . .
H4 H 0.3373 0.4470 0.1629 0.065 Uiso 1 1 calc R U . . .
C5 C 0.1617(3) 0.7006(3) 0.22367(19) 0.0441(5) Uani 1 1 d . . . . .
C6 C 0.0802(3) 0.8527(3) 0.11147(19) 0.0423(5) Uani 1 1 d . . . . .
C7 C 0.0940(3) 0.9733(3) -0.11365(19) 0.0451(5) Uani 1 1 d . . . . .
C8 C 0.1694(3) 0.8343(3) -0.0078(2) 0.0471(5) Uani 1 1 d . . . . .
C9 C 0.2721(3) 0.4500(3) 0.5728(2) 0.0468(5) Uani 1 1 d . . . . .
C10 C 0.1535(4) 0.5676(3) 0.6566(2) 0.0529(5) Uani 1 1 d . . . . .
C11 C 0.1662(4) 0.5046(4) 0.7830(2) 0.0617(6) Uani 1 1 d . . . . .
C12 C 0.3060(4) 0.3186(4) 0.8320(2) 0.0655(7) Uani 1 1 d . . . . .
C13 C 0.4286(4) 0.1992(4) 0.7532(3) 0.0640(7) Uani 1 1 d . . . . .
C14 C 0.4122(4) 0.2629(3) 0.6273(2) 0.0550(6) Uani 1 1 d . . . . .
loop_
_atom_site_aniso_label
_atom_site_aniso_U_11
_atom_site_aniso_U_22
_atom_site_aniso_U_33
_atom_site_aniso_U_23
_atom_site_aniso_U_13
_atom_site_aniso_U_12
S1 0.0500(3) 0.0372(3) 0.0445(3) -0.0099(2) -0.0086(2) -0.0058(2)
F7 0.0559(8) 0.0517(7) 0.0434(7) -0.0121(5) 0.0023(5) 0.0028(6)
F8 0.0533(8) 0.0527(7) 0.0519(8) -0.0114(6) -0.0008(6) 0.0174(6)
F10 0.0767(10) 0.0552(8) 0.0564(9) -0.0172(6) -0.0097(7) -0.0077(7)
F11 0.1016(13) 0.0965(12) 0.0560(10) -0.0296(8) -0.0015(8) -0.0345(10)
F12 0.1229(15) 0.1109(14) 0.0474(10) 0.0046(8) -0.0272(9) -0.0516(12)
F13 0.1024(13) 0.0647(9) 0.0789(12) 0.0147(8) -0.0462(10) -0.0182(9)
F14 0.0811(10) 0.0507(8) 0.0717(11) -0.0125(7) -0.0291(8) 0.0021(7)
C2 0.0424(11) 0.0403(10) 0.0454(12) -0.0062(8) -0.0079(9) -0.0121(9)
C3 0.0568(14) 0.0367(10) 0.0521(14) -0.0072(9) -0.0088(10) -0.0030(9)
C4 0.0586(14) 0.0411(11) 0.0458(13) -0.0118(9) -0.0051(10) -0.0052(10)
C5 0.0388(11) 0.0400(10) 0.0437(12) -0.0078(8) -0.0046(8) -0.0090(8)
C6 0.0367(11) 0.0361(10) 0.0440(12) -0.0095(8) -0.0046(8) -0.0061(8)
C7 0.0400(11) 0.0399(10) 0.0415(12) -0.0113(8) -0.0002(8) -0.0053(8)
C8 0.0353(10) 0.0367(10) 0.0508(13) -0.0116(9) -0.0032(9) 0.0013(8)
C9 0.0483(12) 0.0447(11) 0.0464(13) -0.0054(9) -0.0104(9) -0.0190(10)
C10 0.0551(13) 0.0495(12) 0.0516(14) -0.0081(10) -0.0095(10) -0.0198(10)
C11 0.0731(17) 0.0741(16) 0.0460(14) -0.0173(11) -0.0046(11) -0.0357(14)
C12 0.0788(18) 0.0754(17) 0.0466(15) -0.0009(12) -0.0182(12) -0.0385(15)
C13 0.0713(17) 0.0576(14) 0.0599(16) 0.0077(12) -0.0279(13) -0.0277(13)
C14 0.0608(14) 0.0470(12) 0.0533(14) -0.0052(10) -0.0172(11) -0.0177(11)
loop_
_atom_type_symbol
_atom_type_description
_atom_type_scat_dispersion_real
_atom_type_scat_dispersion_imag
_atom_type_scat_source
C C 0.0181 0.0091 'International Tables Vol C Tables 4.2.6.8 and 6.1.1.4'
H H 0.0000 0.0000 'International Tables Vol C Tables 4.2.6.8 and 6.1.1.4'
F F 0.0727 0.0534 'International Tables Vol C Tables 4.2.6.8 and 6.1.1.4'
S S 0.3331 0.5567 'International Tables Vol C Tables 4.2.6.8 and 6.1.1.4'
loop_
_geom_angle_atom_site_label_1
_geom_angle_atom_site_label_2
_geom_angle_atom_site_label_3
_geom_angle
_geom_angle_site_symmetry_1
_geom_angle_site_symmetry_3
_geom_angle_publ_flag
C5 S1 C2 92.36(10) . . ?
C3 C2 C9 128.18(19) . . ?
C3 C2 S1 109.76(16) . . ?
C9 C2 S1 122.04(16) . . ?
C2 C3 C4 114.21(19) . . ?
C2 C3 H3 122.9 . . ?
C4 C3 H3 122.9 . . ?
C5 C4 C3 113.0(2) . . ?
C5 C4 H4 123.5 . . ?
C3 C4 H4 123.5 . . ?
C4 C5 C6 127.29(19) . . ?
C4 C5 S1 110.65(16) . . ?
C6 C5 S1 122.06(15) . . ?
C8 C6 C7 113.28(18) . 2_575 ?
C8 C6 C5 122.81(17) . . ?
C7 C6 C5 123.90(19) 2_575 . ?
F7 C7 C8 117.25(18) . . ?
F7 C7 C6 119.68(18) . 2_575 ?
C8 C7 C6 123.07(19) . 2_575 ?
F8 C8 C7 116.32(19) . . ?
F8 C8 C6 120.04(18) . . ?
C7 C8 C6 123.65(18) . . ?
C10 C9 C14 114.1(2) . . ?
C10 C9 C2 123.8(2) . . ?
C14 C9 C2 122.1(2) . . ?
F10 C10 C11 116.9(2) . . ?
F10 C10 C9 119.5(2) . . ?
C11 C10 C9 123.5(2) . . ?
F11 C11 C12 120.1(2) . . ?
F11 C11 C10 119.9(2) . . ?
C12 C11 C10 120.0(3) . . ?
F12 C12 C13 121.0(3) . . ?
F12 C12 C11 120.3(3) . . ?
C13 C12 C11 118.7(2) . . ?
F13 C13 C12 119.4(2) . . ?
F13 C13 C14 119.8(3) . . ?
C12 C13 C14 120.7(2) . . ?
F14 C14 C13 116.5(2) . . ?
F14 C14 C9 120.5(2) . . ?
C13 C14 C9 123.0(3) . . ?
loop_
_geom_bond_atom_site_label_1
_geom_bond_atom_site_label_2
_geom_bond_distance
_geom_bond_site_symmetry_2
_geom_bond_publ_flag
S1 C5 1.722(2) . ?
S1 C2 1.728(2) . ?
F7 C7 1.347(2) . ?
F8 C8 1.343(2) . ?
F10 C10 1.340(3) . ?
F11 C11 1.334(3) . ?
F12 C12 1.334(3) . ?
F13 C13 1.340(3) . ?
F14 C14 1.337(3) . ?
C2 C3 1.363(3) . ?
C2 C9 1.473(3) . ?
C3 C4 1.398(3) . ?
C3 H3 0.9300 . ?
C4 C5 1.363(3) . ?
C4 H4 0.9300 . ?
C5 C6 1.472(3) . ?
C6 C8 1.387(3) . ?
C6 C7 1.391(3) 2_575 ?
C7 C8 1.374(3) . ?
C7 C6 1.391(3) 2_575 ?
C9 C10 1.390(3) . ?
C9 C14 1.398(3) . ?
C10 C11 1.377(3) . ?
C11 C12 1.374(4) . ?
C12 C13 1.363(4) . ?
C13 C14 1.375(4) . ?
loop_
_geom_hbond_atom_site_label_D
_geom_hbond_atom_site_label_H
_geom_hbond_atom_site_label_A
_geom_hbond_distance_DH
_geom_hbond_distance_HA
_geom_hbond_distance_DA
_geom_hbond_angle_DHA
_geom_hbond_site_symmetry_A
C3 H3 F14 0.93 2.22 2.786(3) 118.4 .
C4 H4 F8 0.93 2.32 2.816(3) 113.2 .
C4 H4 F8 0.93 2.52 3.278(3) 138.4 2_665
loop_
_geom_torsion_atom_site_label_1
_geom_torsion_atom_site_label_2
_geom_torsion_atom_site_label_3
_geom_torsion_atom_site_label_4
_geom_torsion
_geom_torsion_site_symmetry_1
_geom_torsion_site_symmetry_2
_geom_torsion_site_symmetry_3
_geom_torsion_site_symmetry_4
_geom_torsion_publ_flag
C5 S1 C2 C3 -1.21(18) . . . . ?
C5 S1 C2 C9 -179.55(18) . . . . ?
C9 C2 C3 C4 179.3(2) . . . . ?
S1 C2 C3 C4 1.1(3) . . . . ?
C2 C3 C4 C5 -0.3(3) . . . . ?
C3 C4 C5 C6 179.6(2) . . . . ?
C3 C4 C5 S1 -0.6(3) . . . . ?
C2 S1 C5 C4 1.05(18) . . . . ?
C2 S1 C5 C6 -179.15(17) . . . . ?
C4 C5 C6 C8 -21.1(3) . . . . ?
S1 C5 C6 C8 159.17(17) . . . . ?
C4 C5 C6 C7 158.0(2) . . . 2_575 ?
S1 C5 C6 C7 -21.8(3) . . . 2_575 ?
F7 C7 C8 F8 0.3(3) . . . . ?
C6 C7 C8 F8 -179.54(19) 2_575 . . . ?
F7 C7 C8 C6 180.0(2) . . . . ?
C6 C7 C8 C6 0.1(4) 2_575 . . . ?
C7 C6 C8 F8 179.53(19) 2_575 . . . ?
C5 C6 C8 F8 -1.3(3) . . . . ?
C7 C6 C8 C7 -0.1(3) 2_575 . . . ?
C5 C6 C8 C7 179.03(19) . . . . ?
C3 C2 C9 C10 -169.2(2) . . . . ?
S1 C2 C9 C10 8.8(3) . . . . ?
C3 C2 C9 C14 10.1(4) . . . . ?
S1 C2 C9 C14 -171.85(16) . . . . ?
C14 C9 C10 F10 179.10(19) . . . . ?
C2 C9 C10 F10 -1.5(3) . . . . ?
C14 C9 C10 C11 -2.3(3) . . . . ?
C2 C9 C10 C11 177.1(2) . . . . ?
F10 C10 C11 F11 2.0(3) . . . . ?
C9 C10 C11 F11 -176.6(2) . . . . ?
F10 C10 C11 C12 -179.3(2) . . . . ?
C9 C10 C11 C12 2.1(4) . . . . ?
F11 C11 C12 F12 -0.9(4) . . . . ?
C10 C11 C12 F12 -179.6(2) . . . . ?
F11 C11 C12 C13 178.1(2) . . . . ?
C10 C11 C12 C13 -0.6(4) . . . . ?
F12 C12 C13 F13 -0.7(4) . . . . ?
C11 C12 C13 F13 -179.7(2) . . . . ?
F12 C12 C13 C14 178.6(2) . . . . ?
C11 C12 C13 C14 -0.4(4) . . . . ?
F13 C13 C14 F14 -0.8(3) . . . . ?
C12 C13 C14 F14 179.9(2) . . . . ?
F13 C13 C14 C9 179.3(2) . . . . ?
C12 C13 C14 C9 0.0(4) . . . . ?
C10 C9 C14 F14 -178.61(19) . . . . ?
C2 C9 C14 F14 2.0(3) . . . . ?
C10 C9 C14 C13 1.3(3) . . . . ?
C2 C9 C14 C13 -178.1(2) . . . . ?
