#------------------------------------------------------------------------------
#$Date: 2020-07-02 00:16:11 +0300 (Thu, 02 Jul 2020) $
#$Revision: 253626 $
#$URL: file:///home/coder/svn-repositories/cod/cif/4/51/78/4517826.cif $
#------------------------------------------------------------------------------
#
# This file is available in the Crystallography Open Database (COD),
# http://www.crystallography.net/
#
# All data on this site have been placed in the public domain by the
# contributors.
#
data_4517826
loop_
_publ_author_name
'Yu, Qiong'
'Yang, Hongwei'
'Imler, Gregory H.'
'Parrish, Damon A.'
'Cheng, Guangbin'
'Shreeve, Jean'ne M.'
_publ_section_title
;
 Derivatives of 3,6-Bis(3-aminofurazan-4-ylamino)-1,2,4,5-tetrazine:
 Excellent Energetic Properties with Lower Sensitivities.
;
_journal_name_full               'ACS applied materials &amp; interfaces'
_journal_paper_doi               10.1021/acsami.0c08526
_journal_year                    2020
_chemical_formula_moiety         'C6 H4 N14 O6'
_chemical_formula_sum            'C6 H4 N14 O6'
_chemical_formula_weight         368.23
_space_group_crystal_system      monoclinic
_space_group_IT_number           14
_space_group_name_Hall           '-P 2ybc'
_space_group_name_H-M_alt        'P 1 21/c 1'
_atom_sites_solution_hydrogens   geom
_audit_creation_method           SHELXL-2014/7
_cell_angle_alpha                90
_cell_angle_beta                 111.344(2)
_cell_angle_gamma                90
_cell_formula_units_Z            2
_cell_length_a                   6.0246(2)
_cell_length_b                   15.4056(4)
_cell_length_c                   7.6501(2)
_cell_measurement_reflns_used    2466
_cell_measurement_temperature    293(2)
_cell_measurement_theta_max      74.553
_cell_measurement_theta_min      2.869
_cell_volume                     661.33(3)
_computing_cell_refinement       'Bruker APEX3 v2015.5-2 (Bruker, 2015)'
_computing_data_collection       'Bruker APEX3 v2015.5-2 (Bruker, 2015)'
_computing_data_reduction
;
Bruker SAINT v8.34A (Bruker, 2013), Bruker XPREP v2014/2 (Bruker, 2014)
;
_computing_molecular_graphics    'Bruker SHELXTL v2014/7 (Bruker, 2014)'
_computing_publication_material  'Bruker SHELXTL v2014/7 (Bruker, 2014)'
_computing_structure_refinement  'SHELXL-2014/7 (Sheldrick, 2014)'
_computing_structure_solution    'Bruker SHELXTL v2014/7 (Bruker, 2014)'
_diffrn_ambient_temperature      293(2)
_diffrn_measured_fraction_theta_full 0.937
_diffrn_measured_fraction_theta_max 0.910
_diffrn_measurement_device_type  'Photon 100'
_diffrn_measurement_method       '\w scans'
_diffrn_radiation_monochromator  'HELIOS multilayer optics'
_diffrn_radiation_type           CuK\a
_diffrn_radiation_wavelength     1.54178
_diffrn_reflns_av_R_equivalents  0.0309
_diffrn_reflns_av_unetI/netI     0.0298
_diffrn_reflns_Laue_measured_fraction_full 0.937
_diffrn_reflns_Laue_measured_fraction_max 0.910
_diffrn_reflns_limit_h_max       7
_diffrn_reflns_limit_h_min       -6
_diffrn_reflns_limit_k_max       17
_diffrn_reflns_limit_k_min       -18
_diffrn_reflns_limit_l_max       9
_diffrn_reflns_limit_l_min       -7
_diffrn_reflns_number            3982
_diffrn_reflns_point_group_measured_fraction_full 0.937
_diffrn_reflns_point_group_measured_fraction_max 0.910
_diffrn_reflns_theta_full        67.679
_diffrn_reflns_theta_max         74.545
_diffrn_reflns_theta_min         5.744
_diffrn_source                   '1uS microfocus'
_exptl_absorpt_coefficient_mu    1.448
_exptl_absorpt_correction_T_max  0.7538
_exptl_absorpt_correction_T_min  0.6763
_exptl_absorpt_correction_type   multi-scan
_exptl_absorpt_process_details   'SADABS v2014/5 (Bruker, 2008)'
_exptl_crystal_colour            'clear red'
_exptl_crystal_density_diffrn    1.849
_exptl_crystal_description       plate
_exptl_crystal_F_000             372
_exptl_crystal_size_max          0.045
_exptl_crystal_size_mid          0.037
_exptl_crystal_size_min          0.020
_refine_diff_density_max         0.223
_refine_diff_density_min         -0.217
_refine_diff_density_rms         0.051
_refine_ls_extinction_coef       0.0117(17)
_refine_ls_extinction_expression Fc^*^=kFc[1+0.001xFc^2^\l^3^/sin(2\q)]^-1/4^
_refine_ls_extinction_method     'SHELXL-2014/7 (Sheldrick 2014'
_refine_ls_goodness_of_fit_ref   1.049
_refine_ls_hydrogen_treatment    constr
_refine_ls_matrix_type           full
_refine_ls_number_parameters     119
_refine_ls_number_reflns         1237
_refine_ls_number_restraints     0
_refine_ls_restrained_S_all      1.049
_refine_ls_R_factor_all          0.0608
_refine_ls_R_factor_gt           0.0459
_refine_ls_shift/su_max          0.000
_refine_ls_shift/su_mean         0.000
_refine_ls_structure_factor_coef Fsqd
_refine_ls_weighting_details
'w=1/[\s^2^(Fo^2^)+(0.0626P)^2^+0.4783P] where P=(Fo^2^+2Fc^2^)/3'
_refine_ls_weighting_scheme      calc
_refine_ls_wR_factor_gt          0.1227
_refine_ls_wR_factor_ref         0.1339
_reflns_Friedel_coverage         0.000
_reflns_number_gt                982
_reflns_number_total             1237
_reflns_threshold_expression     'I > 2\s(I)'
_cod_data_source_file            am0c08526_si_004.cif
_cod_data_source_block           shrv632
_cod_original_sg_symbol_H-M      'P 21/c'
_cod_database_code               4517826
_shelx_shelxl_version_number     2014/7
_shelx_space_group_comment
;
The symmetry employed for this shelxl refinement is uniquely defined
by the following loop, which should always be used as a source of
symmetry information in preference to the above space-group names.
They are only intended as comments.
;
_shelx_estimated_absorpt_t_min   0.938
_shelx_estimated_absorpt_t_max   0.972
_shelx_res_file
;

    shrv632.res created by SHELXL-2014/7


TITL shrv632 in P2(1)/c
CELL  1.54178   6.0246  15.4056   7.6501   90.000  111.344   90.000
ZERR    2.000   0.0002   0.0004   0.0002    0.000    0.002    0.000
LATT 1
SYMM -X, 1/2+Y, 1/2-Z
SFAC C  H  N  O
UNIT 12  8  28  12
L.S. 10
ACTA
CONF
SIZE 0.045 0.037 0.020
BOND $H
FMAP 2
PLAN 20
TEMP 20
HTAB
EQIV $1 x-1, y, z
HTAB N4 N8_$1
EQIV $2 -x+1, -y+1, -z+2
HTAB N4 N13_$2
HTAB N10 N12_$2
WGHT    0.062600    0.478300
EXTI    0.011676
FVAR       0.31222
O1    4    0.107293    0.390954    0.315884    11.00000    0.09383    0.10188 =
         0.07291    0.03356    0.04958    0.02829
O2    4   -0.182438    0.424066    0.411906    11.00000    0.04866    0.08115 =
         0.08320    0.00541    0.01617    0.02090
N3    3    0.005897    0.388905    0.427772    11.00000    0.04962    0.05409 =
         0.05405   -0.00012    0.01756    0.00174
N4    3    0.111714    0.340926    0.584889    11.00000    0.03241    0.06446 =
         0.03823   -0.00254    0.01494   -0.00018
AFIX  43
H4    2    0.040662    0.332206    0.662569    11.00000   -1.20000
AFIX   0
C5    1    0.334011    0.306377    0.618529    11.00000    0.03374    0.04106 =
         0.03685   -0.00539    0.01751   -0.00462
N6    3    0.366054    0.233238    0.548617    11.00000    0.04416    0.04819 =
         0.05678   -0.01565    0.02095   -0.00852
O7    4    0.607664    0.221960    0.610182    11.00000    0.04806    0.04295 =
         0.07064   -0.02103    0.02351   -0.00026
N8    3    0.728826    0.290415    0.723861    11.00000    0.03694    0.04396 =
         0.05126   -0.01329    0.01625    0.00096
C9    1    0.560834    0.342813    0.728699    11.00000    0.03152    0.03692 =
         0.03575   -0.00285    0.01718   -0.00146
N10   3    0.591557    0.419757    0.824103    11.00000    0.02403    0.03809 =
         0.04940   -0.01356    0.01500    0.00011
AFIX  43
H10   2    0.465546    0.445074    0.826652    11.00000   -1.20000
AFIX   0
C11   1    0.805295    0.460027    0.915913    11.00000    0.02479    0.03273 =
         0.03326   -0.00141    0.01303    0.00169
N12   3    0.799574    0.525455    1.028281    11.00000    0.02519    0.03597 =
         0.03783   -0.00530    0.01344   -0.00011
N13   3    1.000656    0.567146    1.115193    11.00000    0.02767    0.03641 =
         0.03761   -0.00669    0.01398   -0.00035

HKLF 4

REM  shrv632 in P2(1)/c
REM R1 =  0.0459 for     982 Fo > 4sig(Fo)  and  0.0608 for all    1237 data
REM    119 parameters refined using      0 restraints

END

WGHT      0.0614      0.4681

REM Instructions for potential hydrogen bonds
HTAB N4 N8_$1
HTAB N4 N13_$2
HTAB N10 N12_$2

REM Highest difference peak  0.223,  deepest hole -0.217,  1-sigma level  0.051
Q1    1   0.4371  0.3258  0.6755  11.00000  0.05    0.22
Q2    1   0.6958  0.5464  1.0205  11.00000  0.05    0.21
Q3    1   0.8028  0.4756  1.0003  11.00000  0.05    0.19
Q4    1   0.3628  0.2889  0.5373  11.00000  0.05    0.18
Q5    1   0.7100  0.4395  0.8766  11.00000  0.05    0.18
Q6    1   0.8679  0.5479  1.0197  11.00000  0.05    0.18
Q7    1   0.6043  0.4535  0.7169  11.00000  0.05    0.17
Q8    1   0.2050  0.4224  0.4409  11.00000  0.05    0.16
Q9    1   1.0100  0.5878  1.2100  11.00000  0.05    0.16
Q10   1   0.8682  0.4420  0.8901  11.00000  0.05    0.16
Q11   1   0.2910  0.2896  0.4499  11.00000  0.05    0.15
Q12   1   0.6001  0.3222  0.6236  11.00000  0.05    0.15
Q13   1   0.1312  0.2907  0.5180  11.00000  0.05    0.13
Q14   1   0.8053  0.5021  1.0917  11.00000  0.05    0.13
Q15   1   0.8809  0.2378  0.8623  11.00000  0.05    0.13
Q16   1   0.1518  0.4693  0.5181  11.00000  0.05    0.13
Q17   1  -0.3251  0.4323  0.2931  11.00000  0.05    0.12
Q18   1   0.3294  0.3494  0.3731  11.00000  0.05    0.12
Q19   1   0.3547  0.3665  0.4953  11.00000  0.05    0.12
Q20   1   0.3239  0.2438  0.4043  11.00000  0.05    0.12
;
_shelx_res_checksum              79093
_shelx_hkl_file
;
   1   0   0   49.01    1.40
  -1   0   0   48.21    1.40
  -2   0   0    0.10    0.10
  -3   0   0    6.94    0.41
  -4   0   0   12.67    0.72
   4   0   0   12.11    0.57
   4   0   0   12.82    0.64
   5   0   0   70.39    2.17
   5   0   0   66.54    2.10
  -5   0   0   66.49    2.40
   6   0   0    0.74    0.14
   6   0   0    1.11    0.19
   0  -1   0    0.28    0.03
   0  -1   0    0.30    0.04
   0   1   0    0.33    0.04
  -1  -1   0    3.99    0.19
   1  -1   0    4.29    0.19
  -1   1   0    4.10    0.14
  -1   1   0    4.06    0.20
   1   1   0    4.14    0.15
  -2  -1   0   96.90    2.83
   2  -1   0   98.22    2.82
  -2   1   0   98.65    2.84
  -3  -1   0    8.44    0.47
  -3   1   0    9.51    0.49
   4  -1   0   52.35    1.67
   4  -1   0   53.06    1.72
  -4  -1   0   55.11    1.84
   4   1   0   53.11    1.73
  -4   1   0   52.89    1.86
   4   1   0   51.10    1.65
   5  -1   0   17.58    0.77
  -5  -1   0   18.15    1.08
   5  -1   0   17.43    0.72
   5   1   0   17.40    0.79
   5   1   0   16.92    0.71
  -5   1   0   16.69    1.06
   6  -1   0    0.05    0.12
   6   1   0    0.26    0.16
   6   1   0   -0.05    0.11
   7   1   0    0.25    0.15
   0  -2   0    4.77    0.17
   0  -2   0    4.32    0.18
   0   2   0    4.59    0.18
  -1  -2   0  410.25   11.04
  -1   2   0  414.52   11.02
   1   2   0  376.66   11.02
  -2  -2   0   -0.04    0.09
   2  -2   0    0.12    0.09
   2   2   0    0.21    0.07
  -2   2   0    0.12    0.06
  -2   2   0    0.03    0.09
  -3  -2   0  128.79    3.77
   4  -2   0   32.79    1.15
  -4  -2   0   33.11    1.30
   4  -2   0   35.06    1.20
   4   2   0   33.00    1.21
   4   2   0   33.04    1.14
  -4   2   0   34.90    1.35
  -5  -2   0   30.09    1.32
   5  -2   0   29.24    1.05
   5  -2   0   29.61    1.10
  -5  -2   0   29.92    1.44
  -5   2   0   30.98    1.43
   5   2   0   30.20    1.13
   5   2   0   29.71    1.05
   6  -2   0    4.78    0.33
   6   2   0    5.10    0.31
   6   2   0    5.69    0.39
   0  -3   0   -0.23    0.06
   0   3   0   -0.31    0.06
   1  -3   0   21.12    0.64
  -1  -3   0   17.65    1.13
  -1  -3   0   18.62    0.62
  -1  -3   0   19.50    0.60
  -1   3   0   20.04    0.60
   1   3   0   18.46    0.63
  -2  -3   0   43.46    1.29
   2  -3   0   40.15    1.28
  -2   3   0   41.67    2.14
  -2   3   0   41.16    1.31
  -2   3   0   42.08    1.20
   2   3   0   40.44    1.23
   3  -3   0    0.69    0.19
  -3  -3   0    0.76    0.18
  -3   3   0    0.68    0.19
   4  -3   0   17.80    0.76
   4  -3   0   19.23    0.81
  -4  -3   0   19.75    0.90
   4   3   0   18.12    0.82
   4   3   0   19.16    0.76
  -4   3   0   20.17    0.95
  -5  -3   0    5.28    0.62
  -5  -3   0    5.70    0.95
   5  -3   0    5.54    0.39
  -5  -3   0    1.32    3.09
   5  -3   0    5.26    0.43
   5   3   0    5.33    0.48
   5   3   0    4.86    0.39
  -5   3   0    5.24    0.77
   6  -3   0    3.33    0.31
   6   3   0    3.36    0.37
   0  -4   0    3.46    0.20
   1  -4   0  222.61    6.08
  -1  -4   0  220.83    6.04
  -1  -4   0  204.05    6.07
   1   4   0  223.67    6.05
  -1   4   0  217.17    6.05
  -2  -4   0  199.01    5.58
  -2  -4   0  197.97    5.61
  -2  -4   0  193.28    6.79
   2  -4   0  200.16    5.61
  -2   4   0  205.08    6.67
  -2   4   0  192.88    5.63
  -2   4   0  202.69    5.53
   2   4   0  197.46    5.53
   3  -4   0    1.81    0.27
  -3  -4   0    1.65    0.30
  -3   4   0    1.49    0.31
  -4  -4   0    0.95    0.26
   4  -4   0    0.81    0.20
  -4  -4   0    0.55    1.77
   4  -4   0    1.10    0.22
  -4  -4   0    1.60    0.33
   4   4   0    1.11    0.22
  -4   4   0    1.25    0.36
   4   4   0    0.58    0.27
   5  -4   0    3.81    0.35
   5  -4   0    3.78    0.40
  -5  -4   0    3.30    0.58
  -5   4   0    4.74    0.81
   5   4   0    3.49    0.44
   5   4   0    3.97    0.34
   6  -4   0    0.82    0.18
   6   4   0    0.59    0.13
   0  -5   0    0.03    0.08
   0   5   0    0.02    0.08
  -1  -5   0   82.36    2.42
  -1  -5   0   78.00    2.38
   1  -5   0   85.90    2.43
   1   5   0   84.68    2.39
  -1   5   0   85.20    2.39
  -2  -5   0   55.24    1.65
  -2  -5   0   55.26    1.68
   2  -5   0   55.17    1.68
  -2   5   0   55.25    2.69
  -2   5   0   51.31    1.70
  -2   5   0   55.27    1.61
   2   5   0   54.99    1.62
  -3  -5   0    7.89    0.45
  -3  -5   0    7.36    0.48
   3  -5   0    8.18    0.48
  -3  -5   0    8.85    1.89
  -3   5   0    7.42    0.50
   4  -5   0    0.08    0.16
  -4  -5   0    0.61    0.37
   4  -5   0    0.08    0.20
  -4  -5   0   -0.09    0.24
  -4   5   0   -0.17    0.29
   4   5   0    0.25    0.17
   4   5   0    0.05    0.26
  -5  -5   0    1.39    0.67
   5  -5   0    1.66    0.33
   5   5   0    1.03    0.18
  -5   5   0    0.80    0.48
   5   5   0    1.29    0.28
   6   5   0    0.02    0.11
   0  -6   0  178.29    5.01
   0   6   0  175.45    4.98
  -1  -6   0    0.35    0.12
   1  -6   0    0.26    0.10
  -1  -6   0    0.38    0.10
   1   6   0    0.39    0.12
  -1   6   0    0.32    0.12
   2  -6   0   16.27    0.66
  -2  -6   0   16.79    0.62
  -2  -6   0   16.68    0.67
  -2   6   0   17.04    0.68
  -2   6   0   16.02    1.57
   2   6   0   16.58    0.60
  -2   6   0   17.13    0.60
   3  -6   0   28.60    1.08
  -3  -6   0   28.68    1.07
   3  -6   0   27.56    1.03
  -3  -6   0   29.16    1.07
  -3   6   0   29.40    1.14
   4  -6   0    0.17    0.21
   4  -6   0    0.07    0.29
  -4  -6   0   -0.14    0.28
   4  -6   0    0.51    0.26
  -4   6   0   -0.13    0.32
   4   6   0    0.01    0.18
   4   6   0    0.29    0.28
   5  -6   0   22.28    0.87
   5   6   0   25.21    1.08
  -5   6   0   20.89    1.38
   5   6   0   24.27    0.95
   6   6   0    1.30    0.21
   0  -7   0   -0.04    0.11
   0   7   0    0.03    0.11
  -1  -7   0    0.89    0.16
  -1  -7   0    1.13    0.22
   1  -7   0    0.60    0.13
  -1   7   0    1.26    0.20
   1   7   0    0.93    0.16
   2  -7   0    1.93    0.27
  -2  -7   0    2.06    0.30
  -2  -7   0    2.33    0.28
  -2   7   0    1.96    0.23
   2   7   0    1.88    0.23
  -2   7   0    1.94    0.26
  -3  -7   0    1.31    0.28
   3  -7   0    1.08    0.25
  -3   7   0    1.19    0.24
   4  -7   0    0.14    0.27
   4  -7   0    0.47    0.35
  -4  -7   0    0.03    0.33
   4  -7   0    0.01    0.20
  -4   7   0   -0.32    0.36
   4   7   0    0.25    0.18
   5  -7   0    0.34    0.21
   5  -7   0    0.66    0.25
   5   7   0    0.38    0.14
   6   7   0   -0.02    0.10
   0  -8   0   51.26    1.64
   0   8   0   51.50    1.60
  -1  -8   0    0.75    0.20
   1   8   0    0.67    0.14
  -1   8   0    0.78    0.15
   2  -8   0    3.76    0.36
  -2  -8   0    4.11    0.39
  -2   8   0    3.80    0.35
  -2   8   0    4.15    0.89
   2   8   0    3.42    0.29
  -3  -8   0   -0.14    0.21
   3  -8   0    0.06    0.22
  -3   8   0   -0.05    0.21
   4  -8   0    0.74    0.28
   4  -8   0    1.11    0.23
  -4  -8   0    0.68    0.39
   4  -8   0    0.62    0.41
  -4   8   0    0.89    0.35
   4   8   0    0.67    0.20
   5  -8   0    0.68    0.30
   5   8   0    1.01    0.18
   6   8   0    0.64    0.12
   0  -9   0    0.06    0.17
   0   9   0   -0.12    0.12
  -1  -9   0   41.48    1.40
   1  -9   0   39.97    1.38
   1   9   0   40.52    1.34
  -1   9   0   40.53    1.33
   2  -9   0    0.21    0.24
   2   9   0    0.88    0.21
  -2   9   0    0.64    0.19
  -2   9   0    0.68    0.23
   3  -9   0   -0.14    0.20
  -3  -9   0    0.17    0.27
   3  -9   0    0.22    0.25
  -3   9   0    0.50    0.27
   4  -9   0    2.49    0.38
   4  -9   0    3.57    0.63
  -4  -9   0    3.07    0.54
   4   9   0    3.24    0.35
  -4   9   0    3.99    0.78
   5  -9   0    0.40    0.19
   5   9   0   -0.01    0.13
   6   9   0    1.09    0.19
   0 -10   0    0.23    0.18
   0  10   0    0.39    0.19
  -1 -10   0    0.22    0.22
   1 -10   0    0.14    0.22
   1 -10   0    0.68    0.26
   1  10   0    0.13    0.18
  -1  10   0    0.01    0.85
  -1  10   0    0.02    0.16
  -1  10   0   -0.22    0.15
   2 -10   0    3.17    0.45
  -2 -10   0    4.79    0.44
   2 -10   0    3.84    0.41
  -2  10   0    3.17    0.44
  -2  10   0    3.94    0.44
   2  10   0    3.96    0.39
   3 -10   0   11.99    0.61
   3 -10   0   11.47    0.75
  -3 -10   0   11.95    0.75
  -3  10   0   11.13    0.79
   4 -10   0    0.48    0.20
   4 -10   0    0.95    0.62
   4  10   0    0.38    0.18
  -4  10   0   -0.71    0.53
   5 -10   0    0.82    0.18
   5  10   0    0.47    0.12
   0 -11   0    0.29    0.23
   0 -11   0   -0.09    0.38
   0  11   0    0.07    0.21
   1 -11   0    3.21    0.47
  -1 -11   0    3.59    0.42
   1 -11   0    3.25    0.38
  -1  11   0    3.65    0.43
   1  11   0    4.24    0.41
   2 -11   0    0.31    0.20
   2 -11   0   -0.29    0.25
  -2 -11   0    0.18    0.27
  -2  11   0   -0.04    0.27
  -2  11   0   -0.32    0.26
   2  11   0   -0.22    0.23
  -3 -11   0    3.41    0.66
   3 -11   0    2.86    0.47
   3 -11   0    3.10    0.41
  -3  11   0    2.93    0.47
   4 -11   0    8.65    0.50
   4  11   0    9.04    0.48
   5 -11   0    0.14    0.14
   0 -12   0   -0.12    0.34
   0 -12   0    0.39    0.25
   0  12   0    1.18    0.29
   1 -12   0    1.55    0.29
   1 -12   0    1.55    0.29
  -1 -12   0    1.65    0.34
  -1  12   0    1.98    0.40
   1  12   0    1.74    0.32
  -2 -12   0   12.87    0.83
   2 -12   0   13.60    0.87
   2 -12   0   12.66    0.64
  -2  12   0   11.88    0.83
   3 -12   0    0.72    0.47
   3 -12   0    0.70    0.21
  -3 -12   0    0.52    0.46
   4  12   0    2.41    0.29
   5 -12   0    0.20    0.13
   5  12   0    0.12    0.11
   0 -13   0   -0.05    0.43
   0  13   0    0.36    0.41
  -1 -13   0   17.43    0.94
   1 -13   0   18.76    0.81
   1 -13   0   18.43    0.96
   1  13   0   18.24    0.89
  -1  13   0   17.24    0.93
  -1  13   0   18.14    0.88
   2 -13   0    1.21    0.24
   2 -13   0    1.39    0.42
  -2 -13   0    1.02    0.43
   2  13   0    0.81    0.41
  -2  13   0    1.79    0.47
   3 -13   0    1.20    0.23
   4 -13   0    0.07    0.15
   4  13   0   -0.10    0.12
   5 -13   0    0.03    0.12
  -5  13   0   -0.25    0.17
   5  13   0   -0.08    0.11
   0 -14   0    4.39    0.63
   0  14   0    3.82    0.62
  -1 -14   0    7.84    0.75
   1 -14   0    7.29    0.78
   1 -14   0    6.62    0.51
   1  14   0    7.96    0.73
  -1  14   0    6.96    0.72
   2 -14   0    2.74    0.60
  -2 -14   0    1.69    0.51
  -2  14   0    1.93    0.34
  -2  14   0    1.60    0.70
   3 -14   0    2.24    0.31
  -3  14   0    2.12    0.29
   3  14   0    2.42    0.28
   4 -14   0    0.28    0.13
  -4  14   0    0.00    0.20
   4  14   0    0.11    0.12
   0 -15   0   -0.63    0.42
   0  15   0    0.15    0.45
  -1 -15   0    3.30    0.62
   1 -15   0    2.30    0.64
   1 -15   0    3.41    0.40
   1  15   0    3.95    0.68
   2 -15   0   13.46    0.62
  -2  15   0   13.17    0.72
   3 -15   0    3.78    0.28
  -3  15   0    2.99    0.45
   3  15   0    4.30    0.30
   4 -15   0    0.03    0.10
   4  15   0   -0.19    0.16
  -4  15   0   -0.03    0.30
   1 -16   0    3.14    0.37
   2 -16   0    1.19    0.25
   3 -16   0    5.75    0.31
   1 -17   0    2.64    0.37
   2 -17   0    1.63    0.25
   3 -17   0    0.48    0.12
   2 -18   0    3.42    0.37
   7   0  -1    0.50    0.20
   6   0  -1   -0.01    0.14
   5   0  -1   -0.03    0.16
   5   0  -1    0.13    0.22
   4   0  -1   -0.33    0.31
  -4   0   1   -0.17    0.24
  -3   0   1   -0.09    0.12
  -2   0   1    0.08    0.09
  -1   0   1    0.04    0.06
  -1   0   1    0.03    0.05
   0   0   1   -0.05    0.03
   0   0   1   -0.04    0.04
   0   0   1   -0.06    0.04
   1   0   1    2.80    3.26
   1   0   1   -1.47    2.95
  -2   0  -1   -0.07    0.09
  -3   0  -1    0.18    0.16
  -4   0  -1   -0.04    0.29
   4   0   1    0.01    0.19
   4   0   1    0.06    0.16
   5   0   1    0.11    0.16
   5   0   1    0.02    0.19
  -5   0  -1   -0.82    0.57
   6   0   1    0.11    0.11
   7   1  -1    1.75    0.28
   6  -1  -1    0.28    0.16
   6   1  -1   -0.09    0.13
   5  -1  -1   51.92    1.72
   5  -1  -1   50.80    1.66
   5   1  -1   51.52    1.67
  -5   1   1   55.02    2.38
   5   1  -1   53.05    1.73
  -4  -1   1    1.13    0.27
   4  -1  -1    1.06    0.29
  -4   1   1    1.03    0.35
   4   1  -1    1.20    0.24
  -3  -1   1   21.70    0.85
  -3   1   1   23.11    0.86
   2  -1  -1   45.48    1.29
  -2  -1   1   42.05    1.33
  -2   1   1   43.48    1.25
  -2   1   1   42.54    1.33
  -1  -1   1    0.76    0.13
  -1  -1   1    0.89    0.08
   1  -1  -1    0.87    0.08
  -1   1   1    0.96    0.12
  -1   1   1    0.88    0.09
   0  -1   1    9.35    0.31
   0   1   1    9.10    0.30
   0   1   1    9.41    0.30
   1  -1   1   94.24    2.61
  -1  -1  -1   81.55    2.56
  -1  -1  -1  104.54    3.27
   1   1   1   84.05    2.52
   2  -1   1    0.82    0.17
  -2  -1  -1    0.66    0.14
  -2   1  -1    0.50    0.13
  -2   1  -1    0.72    0.41
  -3  -1  -1   19.46    0.87
  -3   1  -1   20.53    0.83
   4  -1   1   11.34    0.54
  -4  -1  -1   11.51    0.77
   4  -1   1   11.67    0.59
  -4   1  -1   10.97    0.75
   4   1   1   11.16    0.60
   4   1   1   11.77    0.54
   5  -1   1    4.92    0.38
   5  -1   1    5.07    0.46
  -5  -1  -1    5.45    0.81
   5   1   1    5.01    0.38
   5   1   1    4.90    0.43
   6  -1   1    0.28    0.12
   6   1   1    0.08    0.11
   6   1   1    0.01    0.13
   7   2  -1    6.79    0.34
   6  -2  -1    0.59    0.18
   6   2  -1    0.48    0.16
   5  -2  -1    1.97    0.37
  -5  -2   1    2.13    0.54
   5  -2  -1    1.93    0.35
   5   2  -1    2.56    0.47
   5   2  -1    1.73    0.29
  -5   2   1    1.67    0.40
  -4  -2   1    4.05    0.48
   4  -2  -1    3.94    0.46
   4   2  -1    3.89    0.40
  -4   2   1    3.55    0.45
  -3  -2   1   24.36    0.91
  -3   2   1   24.94    0.92
  -2  -2   1    4.92    0.28
   2  -2  -1    5.10    0.24
   2   2  -1    5.18    0.22
   2   2  -1    4.76    0.77
  -2   2   1    5.24    0.29
  -1  -2   1  251.47    6.85
   1  -2  -1  255.34    6.85
  -1  -2   1  243.65    6.89
  -1   2   1  243.93    6.87
  -1   2   1  246.45    6.85
   0  -2   1  115.45    3.39
   0  -2   1  121.22    3.37
   0  -2  -1  123.41    3.37
   0  -2  -1  117.81    3.83
   0   2   1  124.45    3.36
   1  -2   1   46.44    1.36
  -1  -2  -1   45.52    1.32
  -1   2  -1   44.32    1.30
   1   2   1   45.07    1.30
  -2  -2  -1    4.40    0.28
   2  -2   1    4.48    0.29
  -2   2  -1    5.00    0.31
  -2   2  -1    4.31    1.04
  -3  -2  -1   55.15    1.87
  -3   2  -1   58.12    1.86
   4  -2   1    8.32    0.46
  -4  -2  -1    7.43    0.74
   4  -2   1    8.39    0.51
   4   2   1    8.89    0.55
  -4   2  -1    8.65    0.70
   4   2   1    8.77    0.47
  -5  -2  -1    0.99    0.51
   5  -2   1    0.28    0.19
   5  -2   1    0.11    0.16
  -5  -2  -1   -2.47    3.17
  -5   2  -1    0.06    0.52
   5   2   1    0.11    0.20
   5   2   1    0.15    0.14
   6  -2   1    3.13    0.27
   6   2   1    3.25    0.24
   6   2   1    2.72    0.29
   7   3  -1    0.67    0.13
   6  -3  -1    7.48    0.43
   6   3  -1    7.19    0.42
   5  -3  -1    6.00    0.45
   5  -3  -1    6.15    0.46
  -5  -3   1    6.37    0.75
   5   3  -1    4.76    0.55
  -5   3   1    5.58    0.74
   5   3  -1    5.79    0.39
  -4  -3   1    7.53    1.66
  -4  -3   1    9.84    0.53
   4  -3  -1   10.22    0.89
  -4  -3   1    8.86    0.91
   4  -3  -1    9.47    0.55
  -4   3   1    9.92    0.64
   4   3  -1   10.01    0.52
  -3  -3   1    4.08    0.34
   3  -3  -1    4.29    0.29
  -3  -3   1    4.29    0.28
   3   3  -1    4.67    0.27
  -3   3   1    4.08    0.34
  -2  -3   1    7.72    1.08
  -2  -3   1    6.64    0.33
  -2  -3   1    6.11    0.29
   2  -3  -1    6.36    0.29
   2   3  -1    6.27    0.27
  -2   3   1    6.87    0.34
  -2   3   1    6.62    0.27
  -1  -3   1  126.04    3.53
  -1  -3   1  125.47    3.54
  -1   3   1  125.89    3.52
  -1   3   1  124.07    3.52
   1   3  -1  124.76    3.53
   1   3  -1  127.71    4.13
   0  -3  -1  423.52   11.85
   0  -3   1  426.66   11.87
   0  -3   1  421.64   11.85
   0   3   1  414.53   11.83
   0   3  -1  459.61   12.44
   0   3  -1  432.78   11.84
   1  -3   1  156.78    4.27
  -1  -3  -1  152.09    4.21
   1   3   1  153.95    4.22
  -1   3  -1  142.19    4.24
   2  -3   1    8.96    0.43
  -2  -3  -1    9.29    0.40
   2   3   1    9.33    0.33
  -2   3  -1    9.25    0.46
  -2   3  -1    8.35    1.31
  -2   3  -1    9.08    0.33
  -3  -3  -1   10.01    0.53
   3  -3   1   10.11    0.55
  -3   3  -1    9.41    0.59
   4  -3   1    0.08    0.17
   4  -3   1   -0.22    0.17
  -4  -3  -1    0.36    0.38
   4   3   1    0.42    0.16
  -4   3  -1   -0.05    0.31
   4   3   1    0.22    0.21
  -5  -3  -1   11.53    1.07
   5  -3   1   10.14    0.69
   5   3   1   10.50    0.61
  -5   3  -1    9.36    1.06
   6  -3   1    0.28    0.12
   6   3   1    0.01    0.10
   6   3   1   -0.08    0.15
   7   4  -1    0.14    0.11
   6  -4  -1    0.37    0.22
   6   4  -1   -0.10    0.15
   5  -4  -1    9.45    0.55
  -5  -4   1    9.23    0.95
   5   4  -1   10.55    0.52
  -5   4   1    9.15    0.89
   4  -4  -1    0.18    0.19
  -4  -4   1    0.51    0.25
  -4  -4   1   -0.08    0.23
   4   4  -1    0.47    0.18
  -4   4   1    0.08    0.25
  -3  -4   1   10.56    0.48
  -3  -4   1   10.66    0.53
   3  -4  -1   10.66    0.49
   3   4  -1   10.28    0.43
  -3   4   1   11.19    0.44
  -3   4   1   10.56    0.60
  -2  -4   1  132.61    3.74
   2  -4  -1  131.44    3.71
  -2  -4   1  131.28    3.71
  -2   4   1  129.38    3.67
  -2   4   1  128.25    3.74
   2   4  -1  129.25    3.69
   1  -4  -1   22.04    0.70
  -1  -4   1   21.13    0.70
  -1  -4   1   21.07    0.70
   1   4  -1   21.65    0.70
  -1   4   1   20.89    0.69
   0  -4   1   19.31    0.65
   0  -4  -1   20.90    0.66
   0  -4   1   19.55    0.67
   0   4   1   20.10    0.64
   0   4  -1   19.37    0.64
  -1  -4  -1   91.19    2.55
  -1  -4  -1   89.66    2.46
  -1  -4  -1   82.12    3.43
  -1   4  -1   87.61    2.50
   1   4   1   88.19    2.50
   2  -4   1   11.23    0.50
  -2  -4  -1   11.31    0.46
  -2   4  -1   10.63    0.41
   2   4   1   10.68    0.40
  -3  -4  -1    3.58    0.42
   3  -4   1    4.17    0.38
  -3   4  -1    3.79    0.42
   4  -4   1    0.12    0.17
  -4  -4  -1   -0.77    1.76
  -4  -4  -1    0.09    0.26
  -4   4  -1   -0.09    0.32
   4   4   1   -0.17    0.19
   5  -4   1   29.69    1.05
   5  -4   1   30.35    1.09
   5   4   1   30.58    1.07
   5   4   1   31.22    1.11
  -5   4  -1   27.64    1.58
   6  -4   1   -0.01    0.14
   6   4   1    0.00    0.18
   6   4   1    0.12    0.11
   7   5  -1    1.22    0.18
   6   5  -1   -0.07    0.10
  -5  -5   1   28.82    1.54
   5  -5  -1   29.97    1.17
  -5   5   1   30.04    1.41
   5   5  -1   30.14    1.07
  -4  -5   1   -0.21    0.26
  -4  -5   1    0.57    0.26
   4   5  -1    0.20    0.20
  -4   5   1   -0.13    0.25
  -3  -5   1  170.88    4.85
   3  -5  -1  167.71    4.83
  -3  -5   1  168.81    4.82
   3   5  -1  158.23    4.73
  -3   5   1  167.47    4.89
  -3   5   1  173.56    4.74
  -2  -5   1   -0.04    0.10
   2  -5  -1    0.09    0.10
  -2  -5   1    0.16    0.11
  -2   5   1    0.08    0.09
  -2   5   1    0.09    0.11
   2   5  -1   -0.02    0.09
  -1  -5   1    6.01    0.29
  -1  -5   1    5.44    0.28
   1  -5  -1    5.19    0.28
  -1   5   1    5.67    0.26
  -1   5   1    5.50    0.28
   1   5  -1    5.62    0.29
   0  -5   1  133.90    3.84
   0  -5  -1  134.81    3.86
   0   5  -1  134.54    3.83
   0   5   1  138.39    3.83
   1  -5   1   32.74    1.09
  -1  -5  -1   33.77    1.09
   1   5   1   33.28    1.04
  -1   5  -1   35.26    1.05
  -2  -5  -1   16.01    1.61
   2  -5   1   17.13    0.68
  -2  -5  -1   17.34    0.63
  -2  -5  -1   17.08    0.68
   2   5   1   17.12    0.59
  -2   5  -1   16.80    0.60
   3  -5   1   15.07    0.67
   3  -5   1   15.35    0.69
  -3   5  -1   14.86    0.77
   3   5   1   13.89    0.72
   3   5   1   14.87    0.67
   4  -5   1   -0.02    0.16
  -4  -5  -1   -0.45    0.27
  -4  -5  -1    1.18    1.96
   4  -5   1    0.17    0.16
   4   5   1    0.24    0.16
  -4   5  -1    0.23    0.33
   4   5   1    0.00    0.21
   5  -5   1    3.30    0.34
   5   5   1    3.87    0.41
   5   5   1    3.61    0.33
   6  -5   1    1.62    0.19
   6   5   1    1.13    0.19
   6   5   1    1.48    0.26
   6   6  -1    0.36    0.11
   5  -6  -1    0.09    0.23
  -5   6   1    0.32    0.41
   5   6  -1    0.16    0.16
   4  -6  -1   17.14    0.87
  -4  -6   1   16.70    0.90
  -4  -6   1   16.06    0.79
  -4   6   1   16.89    0.90
   3  -6  -1    3.65    0.33
  -3  -6   1    2.82    0.32
   3   6  -1    3.22    0.27
  -3   6   1    3.41    0.38
  -3   6   1    3.09    0.33
  -2  -6   1    5.71    0.33
   2  -6  -1    5.41    0.33
  -2  -6   1    5.58    0.35
   2   6  -1    5.80    0.32
  -2   6   1    5.64    0.33
  -2   6   1    5.77    0.31
  -1  -6   1   87.06    2.59
   1  -6  -1   90.98    2.59
  -1  -6   1   85.15    2.56
  -1   6   1   88.10    2.53
  -1   6   1   88.89    2.56
   1   6  -1   89.65    2.57
   0  -6   1  128.95    3.61
   0  -6  -1  126.56    3.61
   0   6   1  121.82    3.57
   0   6  -1  124.07    3.58
   1  -6   1   33.35    1.09
  -1  -6  -1   31.99    1.08
   1   6   1   32.97    1.03
  -1   6  -1   32.05    1.03
   2  -6   1   53.97    1.72
  -2  -6  -1   52.96    1.71
  -2   6  -1   54.00    1.61
   2   6   1   52.53    1.61
   3  -6   1    5.09    0.47
   3  -6   1    5.17    0.44
  -3  -6  -1    4.92    0.45
   3  -6   1    5.23    0.42
   3  -6   1    4.71    0.49
   3   6   1    4.14    0.50
   3   6   1    4.92    0.41
  -3   6  -1    5.21    0.52
   4  -6   1    7.28    0.59
   4  -6   1    8.45    0.50
   4  -6   1    8.02    0.50
  -4  -6  -1    9.11    0.71
  -4   6  -1    8.39    0.79
   4   6   1    8.49    0.53
   4   6   1    8.52    0.46
   5  -6   1    0.44    0.17
   5   6   1    0.65    0.21
   5   6   1    0.61    0.17
   6  -6   1    1.64    0.32
   6   6   1    1.43    0.19
   6   7  -1    2.69    0.23
   5   7  -1    6.15    0.41
  -5   7   1    5.60    0.90
  -4  -7   1   -0.14    0.32
   4  -7  -1    0.42    0.35
  -4   7   1    0.13    0.28
  -3  -7   1   10.17    0.57
   3  -7  -1   10.19    0.56
  -3  -7   1   10.47    0.60
  -3   7   1   11.00    0.60
   3   7  -1   10.15    0.49
  -3   7   1   10.59    0.54
  -2  -7   1   95.87    2.80
   2  -7  -1   93.43    2.79
  -2  -7   1   92.38    2.75
   2   7  -1   93.83    2.75
  -2   7   1   92.27    2.77
  -2   7   1   92.23    2.74
  -1  -7   1   -0.03    0.12
  -1  -7   1    0.20    0.12
   1  -7  -1    0.15    0.12
  -1   7   1    0.11    0.13
  -1   7   1    0.27    0.10
   1   7  -1   -0.02    0.11
   0  -7   1   61.69    1.91
   0  -7  -1   64.16    1.92
   0   7  -1   61.45    1.88
   0   7   1   62.18    1.87
  -1  -7  -1   13.10    0.57
   1   7   1   12.75    0.51
  -1   7  -1   12.38    0.51
   2  -7   1   48.87    1.61
  -2  -7  -1   47.99    1.61
   2   7   1   47.88    1.50
  -2   7  -1   48.44    1.50
  -3  -7  -1   42.94    1.52
   3  -7   1   40.17    1.39
   3  -7   1   40.90    1.38
   3  -7   1   40.22    1.53
   3  -7   1   40.90    1.41
  -3   7  -1   43.63    1.57
   3   7   1   42.75    1.38
   3   7   1   40.95    1.44
   4  -7   1    6.11    0.45
   4  -7   1    6.37    0.50
  -4  -7  -1    6.82    0.69
   4   7   1    6.30    0.43
   4   7   1    6.38    0.50
   5  -7   1    0.52    0.18
   5   7   1    0.46    0.15
   5   7   1    0.08    0.20
   6   7   1    0.43    0.11
   6   8  -1    0.87    0.17
   5  -8  -1    4.76    0.41
   5   8  -1    5.04    0.38
  -4  -8   1   12.35    0.85
   4  -8  -1   15.61    0.96
  -4   8   1   15.81    1.25
   3  -8  -1    6.55    0.48
  -3  -8   1    6.81    0.58
  -3  -8   1    7.03    0.56
  -3   8   1    6.69    0.50
   3   8  -1    6.17    0.41
  -3   8   1    5.68    0.51
   2  -8  -1    2.03    0.28
  -2  -8   1    2.48    0.32
  -2  -8   1    1.91    0.29
   2   8  -1    2.18    0.26
  -2   8   1    1.88    0.27
  -2   8   1    1.61    0.28
   1  -8  -1    1.98    0.26
  -1  -8   1    1.46    0.28
  -1  -8   1    2.16    0.27
   1   8  -1    1.42    0.31
  -1   8   1    1.63    0.22
  -1   8   1    1.94    0.25
   0  -8  -1   59.67    1.87
   0  -8   1   59.61    1.87
   0   8   1   60.73    1.83
   0   8  -1   58.62    1.83
  -1  -8  -1    3.90    0.37
   1  -8   1    2.68    0.28
   1   8   1    3.10    0.43
  -1   8  -1    2.94    0.27
   2  -8   1   39.67    1.56
  -2  -8  -1   38.16    1.51
   2  -8   1   35.31    1.27
  -2   8  -1   38.39    2.84
  -2   8  -1   36.99    1.24
   2   8   1   36.59    1.23
  -2   8  -1   37.42    1.35
  -3  -8  -1   18.29    0.90
   3  -8   1   18.29    0.79
   3  -8   1   18.68    0.78
   3  -8   1   18.63    0.93
   3   8   1   18.13    0.84
   3   8   1   19.18    0.76
  -3   8  -1   18.95    0.98
   4  -8   1    0.70    0.22
   4  -8   1    1.12    0.26
  -4  -8  -1    1.19    0.42
  -4   8  -1    1.45    0.50
   4   8   1    1.27    0.28
   4   8   1    0.93    0.19
   5  -8   1    0.12    0.16
   5   8   1    0.07    0.22
   5   8   1    0.19    0.11
   6   8   1   -0.06    0.10
   6   9  -1    5.95    0.30
   5  -9  -1    2.20    0.35
   5   9  -1    2.48    0.31
   4  -9  -1    4.11    0.60
  -4  -9   1    3.07    0.49
  -4   9   1    3.17    0.46
  -3  -9   1    8.74    0.59
   3  -9  -1    9.28    0.61
   3   9  -1    8.62    0.53
  -3   9   1    8.37    0.64
  -3   9   1    9.83    0.63
   2  -9  -1    7.08    0.45
  -2  -9   1    7.86    0.54
  -2  -9   1    7.02    0.48
  -2   9   1    5.74    0.49
  -2   9   1    6.82    0.46
   2   9  -1    6.86    0.43
  -1  -9   1   22.56    0.88
   1  -9  -1   21.02    0.87
   1   9  -1   22.09    0.84
  -1   9   1   22.94    0.85
   0  -9  -1    3.14    0.33
   0  -9   1    3.37    0.34
   0   9  -1    3.58    0.31
   0   9   1    3.12    0.32
   1  -9   1   62.36    2.02
  -1  -9  -1   64.53    2.04
   1   9   1   62.70    1.95
  -1   9  -1   60.62    1.93
  -2  -9  -1   39.94    1.49
   2  -9   1   41.14    1.47
   2  -9   1   39.97    1.38
   2  -9   1   40.77    1.39
   2   9   1   41.95    1.36
   2   9   1   39.95    1.45
  -2   9  -1   40.89    1.37
  -2   9  -1   41.66    1.47
  -2   9  -1   38.40    2.88
  -3  -9  -1   -0.04    0.28
   3  -9   1    0.12    0.18
   3  -9   1   -0.17    0.29
  -3   9  -1   -0.35    0.32
   3   9   1   -0.22    0.18
   4  -9   1   52.23    1.67
  -4  -9  -1   50.28    2.02
  -4   9  -1   54.61    2.11
   4   9   1   51.58    1.69
   5  -9   1    0.45    0.22
   5  -9   1    0.45    0.19
   5   9   1    0.25    0.12
   6  10  -1    0.64    0.11
   5 -10  -1    3.04    0.30
   5  10  -1    2.97    0.27
   4 -10  -1    7.47    0.49
   4 -10  -1    8.07    1.16
  -4  10   1    6.48    0.97
  -3 -10   1   13.72    0.78
   3 -10  -1   13.38    0.80
   3  10  -1   13.75    0.70
  -3  10   1   12.70    0.80
   2 -10  -1   51.88    1.84
  -2 -10   1   55.75    1.85
  -2  10   1   56.05    1.80
   2  10  -1   57.48    1.81
  -1 -10   1   13.37    0.64
  -1 -10   1   13.08    0.65
   1 -10  -1   12.75    0.66
  -1  10   1   12.57    0.64
   0 -10  -1   43.94    1.55
   0 -10   1   47.06    1.57
   0  10   1   46.13    1.52
   0  10  -1   45.06    1.51
   1 -10   1    0.31    0.27
  -1 -10  -1    0.35    0.19
   1 -10   1    0.70    0.25
   1 -10   1    0.69    0.22
   1  10   1    0.59    0.20
   1  10   1    0.85    0.38
  -1  10  -1    0.24    0.30
  -2 -10  -1   25.89    1.11
   2 -10   1   25.61    1.08
   2 -10   1   25.30    0.97
   2 -10   1   26.46    0.99
  -2  10  -1   24.34    2.57
  -2  10  -1   26.45    1.08
   2  10   1   25.14    1.05
   2  10   1   26.24    0.99
  -2  10  -1   24.97    1.02
   3 -10   1    9.79    0.59
   3 -10   1    9.23    0.54
   3 -10   1    8.78    0.78
  -3 -10  -1   10.16    0.79
   3  10   1    9.41    0.61
  -3  10  -1   10.25    0.84
   3  10   1    9.49    0.51
   4 -10   1    1.15    0.24
   4 -10   1    0.88    0.22
   4  10   1    0.97    0.17
   5 -10   1    1.52    0.33
   5  10   1    1.29    0.19
   5 -11  -1    3.38    0.30
   5  11  -1    3.35    0.26
   4 -11  -1    0.26    0.20
   3 -11  -1    6.49    0.70
  -3 -11   1    7.39    0.65
   3  11  -1    6.11    0.65
   2 -11  -1    1.04    0.29
  -2 -11   1    0.90    0.27
   2  11  -1    0.71    0.24
  -2  11   1    0.71    0.25
   1 -11  -1   -0.29    0.25
  -1 -11   1   -0.17    0.20
   1 -11  -1   -0.26    0.22
  -1  11   1   -0.38    0.28
  -1  11   1    0.10    0.22
   1  11  -1    0.05    0.18
   0 -11   1   52.60    1.73
   0 -11   1   53.40    1.80
   0 -11   1   54.40    1.73
   0 -11  -1   54.32    1.82
   0  11   1   54.76    1.77
   0  11   1   49.25    1.76
   0  11  -1   51.38    1.73
   1 -11   1    3.54    0.47
  -1 -11  -1    3.08    0.48
   1 -11   1    3.57    0.42
   1 -11   1    4.02    0.43
   1  11   1    3.19    0.41
   1  11   1    3.05    0.42
  -1  11  -1    3.80    0.42
   2 -11   1   10.55    0.57
   2 -11   1    9.35    0.69
   2 -11   1   10.16    0.63
  -2 -11  -1   10.68    0.70
   2  11   1    9.95    0.69
  -2  11  -1    8.94    0.69
   2  11   1   10.01    0.65
  -2  11  -1   10.90    0.69
  -3 -11  -1    7.31    0.78
   3 -11   1    6.40    0.47
   3 -11   1    6.03    0.79
   3 -11   1    5.24    0.49
   3  11   1    6.66    0.53
  -3  11  -1    7.14    0.86
   3  11   1    6.18    0.43
   4 -11   1    2.64    0.38
   4 -11   1    2.75    0.42
   4  11   1    2.37    0.26
   5 -11   1    1.96    0.24
   5  11   1    3.04    0.22
   5 -12  -1    0.61    0.14
   5  12  -1    0.94    0.19
   4 -12  -1   10.66    0.58
   4  12  -1   11.55    0.53
  -3 -12   1    0.22    0.48
   3 -12  -1    0.43    0.20
   3 -12  -1    0.38    0.48
  -2 -12   1    5.05    0.57
   2 -12  -1    4.64    0.63
   2 -12  -1    4.45    0.43
  -2  12   1    3.74    0.52
   2  12  -1    3.91    0.49
   1 -12  -1    5.90    0.56
   1 -12  -1    6.43    0.55
  -1 -12   1    6.99    0.56
  -1  12   1    5.79    0.57
   1  12  -1    6.35    0.53
  -1  12   1    7.16    0.52
   0 -12   1    2.14    0.33
   0 -12   1    1.72    0.30
   0 -12   1    2.50    0.34
   0 -12  -1    2.48    0.45
   0  12   1    1.88    0.33
   0  12   1    3.13    0.59
   0  12  -1    2.92    0.41
  -1 -12  -1    6.88    0.59
   1 -12   1    7.10    0.60
   1 -12   1    6.11    0.54
   1  12   1    7.83    0.63
  -1  12  -1    7.42    0.59
   1  12   1    6.11    0.56
   2 -12   1   16.91    0.77
   2 -12   1   16.90    0.99
  -2 -12  -1   17.69    0.98
   2 -12   1   17.09    0.77
  -2  12  -1   16.44    1.00
  -2  12  -1   18.05    1.16
   2  12   1   18.59    0.90
  -3 -12  -1    0.50    0.55
   3 -12   1    0.63    0.23
   3 -12   1    0.33    0.19
   3 -12   1    0.99    0.52
   3  12   1    0.39    0.17
   4 -12   1   -0.06    0.15
   4  12   1   -0.21    0.12
   5  12   1    0.98    0.14
   5 -13  -1    1.15    0.19
   5  13  -1    0.91    0.12
  -5  13   1    1.36    0.23
   4 -13  -1    1.26    0.26
   4  13  -1    1.69    0.23
   3 -13  -1   53.23    2.37
   3 -13  -1   56.87    1.81
   2 -13  -1    0.79    0.46
  -2 -13   1    0.74    0.39
   2 -13  -1    0.38    0.21
   2  13  -1    0.42    0.37
  -2  13   1    0.62    0.37
  -2  13   1    0.51    0.25
  -1 -13   1    5.49    0.62
   1 -13  -1    6.67    0.55
   1 -13  -1    6.31    0.60
   1  13  -1    6.35    0.58
  -1  13   1    5.74    0.57
  -1  13   1    6.20    0.61
   0 -13   1    6.19    0.60
   0 -13   1    5.38    0.56
   0 -13  -1    5.75    0.63
   0 -13   1    4.66    0.47
   0  13   1    5.09    0.55
   0  13  -1    4.70    0.55
   0  13   1    5.43    0.61
  -1 -13  -1    2.63    0.43
   1 -13   1    3.74    0.53
   1 -13   1    2.53    0.50
   1 -13   1    3.69    0.41
  -1  13  -1    3.53    0.60
   1  13   1    3.11    0.59
   1  13   1    2.78    0.42
   2 -13   1   50.47    1.60
   2 -13   1   48.80    1.84
   2 -13   1   47.72    1.58
  -2 -13  -1   48.31    1.82
   2  13   1   40.99    1.51
   2  13   1   47.19    1.76
   3 -13   1   15.40    0.66
   3  13   1   14.02    0.60
   4 -13   1    0.15    0.13
   5 -14  -1   -0.05    0.11
  -5  14   1    0.34    0.16
   5  14  -1    0.10    0.10
   4 -14  -1    0.61    0.15
   4  14  -1    1.15    0.21
  -4  14   1    0.78    0.18
   3 -14  -1   10.06    0.51
  -3  14   1   10.08    0.57
   2 -14  -1    1.86    0.53
  -2  14   1    2.95    0.57
  -1 -14   1    1.43    0.42
   1 -14  -1    2.42    0.46
  -1  14   1    1.58    0.44
  -1  14   1    1.43    0.33
   0 -14   1   -0.14    0.36
   0 -14   1    0.14    0.26
   0 -14  -1   -0.40    0.37
   0  14   1    0.26    0.31
   0  14  -1    0.31    0.35
   0  14   1    0.79    0.38
   1 -14   1    4.27    0.56
  -1 -14  -1    3.39    0.53
   1 -14   1    4.89    0.78
   1 -14   1    4.07    0.43
  -1  14  -1    4.48    0.60
   1  14   1    6.15    0.70
   2 -14   1    4.84    0.39
   3 -14   1    0.01    0.15
   3  14   1   -0.13    0.18
   4 -14   1   -0.05    0.11
   4 -15  -1    3.19    0.24
  -4  15   1    3.00    0.34
   4  15  -1    3.38    0.23
   3 -15  -1    0.25    0.14
  -3  15   1    0.18    0.21
   2 -15  -1   11.41    0.56
  -2  15   1   10.23    0.68
   1 -15  -1    3.41    0.73
   1 -15  -1    3.31    0.47
  -1  15   1    3.84    0.82
  -1  15   1    3.25    0.50
   0 -15   1    5.48    0.82
   0 -15  -1    5.00    0.65
   0 -15   1    4.44    0.49
   0  15  -1    5.39    0.84
   0  15   1    4.58    0.60
   1 -15   1    6.83    0.48
   2 -15   1    7.37    0.43
   3 -15   1    1.94    0.23
   4 -15   1    0.40    0.11
   4 -16  -1    1.54    0.17
   3 -16  -1    0.33    0.12
   3  16  -1    0.16    0.13
  -3  16   1   -0.12    0.22
   2 -16  -1    7.95    0.42
  -2  16   1    7.55    0.51
  -1  16   1    0.01    0.28
   0 -16   1    6.62    0.67
   1 -16   1    1.63    0.23
   2 -16   1    2.88    0.26
   3 -16   1    6.15    0.30
   3 -17  -1    1.55    0.20
   2 -17  -1    1.11    0.19
   1 -17   1    0.27    0.17
   2 -17   1    0.08    0.12
   2 -18   1    0.21    0.22
   6   0  -2   30.06    1.04
   5   0  -2    0.73    0.21
  -5   0   2    1.48    0.37
  -4   0   2    6.21    0.48
  -3   0   2    1.68    0.25
  -2   0   2    9.69    0.42
  -1   0   2  427.40   11.73
  -1   0   2  421.34   11.70
   0   0   2   49.86    1.45
   0   0   2   48.51    1.43
   1   0   2   -0.06    2.71
  -2   0  -2   33.56    1.13
  -2   0  -2   33.06    2.15
   3   0   2    1.41    0.21
  -3   0  -2    1.85    0.31
   3   0   2    1.78    0.29
   4   0   2    0.33    0.21
   4   0   2    0.03    0.14
  -4   0  -2   -0.29    0.44
   5   0   2   26.22    0.99
   5   0   2   25.43    0.94
   6   0   2    5.74    0.29
   6  -1  -2    0.09    0.19
   6   1  -2    0.03    0.17
  -5  -1   2   17.08    0.97
   5  -1  -2   17.41    0.75
  -5   1   2   18.02    1.00
   5   1  -2   17.98    0.84
  -4  -1   2   53.41    1.80
  -4   1   2   51.36    1.83
  -3  -1   2   13.98    0.62
  -3  -1   2   14.22    0.50
  -3   1   2   14.29    0.62
  -2  -1   2   23.53    0.69
  -2  -1   2   24.28    0.82
  -2   1   2   24.10    0.81
  -2   1   2   23.78    0.76
  -1  -1   2  546.57   15.08
  -1  -1   2  559.02   14.99
   1  -1  -2  542.09   14.99
  -1   1   2  534.47   15.05
  -1   1   2  549.41   15.06
   0  -1   2   59.65    1.71
   0  -1   2   59.09    1.74
   0   1   2   59.55    1.70
   0   1   2   58.27    1.71
   1  -1   2   11.30    0.46
   1   1   2   10.74    0.38
  -2  -1  -2   79.84    2.39
  -2   1  -2   79.44    3.59
  -2   1  -2   80.75    2.43
   3  -1   2   14.59    0.68
   3  -1   2   14.50    0.63
  -3  -1  -2   13.36    0.72
   3   1   2   15.17    0.69
   3   1   2   14.14    0.64
  -3   1  -2   14.61    0.74
   4  -1   2   18.23    0.79
  -4  -1  -2   17.79    1.11
   4  -1   2   18.57    0.75
   4   1   2   17.85    0.75
   4   1   2   19.00    0.82
   5  -1   2    1.41    0.25
   5  -1   2    1.44    0.27
   5   1   2    1.66    0.32
   5   1   2    1.32    0.27
   6  -1   2    2.13    0.21
   6   1   2    2.90    0.22
   6   1   2    2.19    0.23
   7   2  -2    0.44    0.17
   6   2  -2    2.87    0.32
  -5  -2   2    8.92    0.75
  -5   2   2    9.90    0.81
   5   2  -2    9.28    0.50
  -4  -2   2    0.69    0.30
  -3  -2   2   31.73    1.12
  -3  -2   2   31.88    1.00
  -3   2   2   33.16    1.14
  -2  -2   2  122.49    3.40
   2  -2  -2  123.22    3.40
  -2  -2   2  121.21    3.51
  -2   2   2  123.19    3.50
  -2   2   2  119.69    3.45
  -1  -2   2  115.05    3.17
   1  -2  -2  112.67    3.09
  -1  -2   2  113.87    3.08
  -1   2   2  100.19    3.11
   0  -2   2   53.22    1.55
   0  -2   2   54.03    1.60
   0   2   2   51.96    1.54
  -1  -2  -2    6.12    0.28
   1   2   2    6.80    0.27
   2  -2   2   21.64    0.87
  -2  -2  -2   23.26    0.80
   3  -2   2   18.25    0.78
  -3  -2  -2   17.91    0.85
   3  -2   2   18.50    0.74
   3   2   2   17.84    0.79
  -3   2  -2   19.21    0.88
   3   2   2   18.21    0.73
   4  -2   2   59.44    1.88
   4  -2   2   59.32    1.92
  -4   2  -2   60.98    2.17
   4   2   2   59.04    1.93
   4   2   2   59.10    1.88
   5  -2   2   -0.11    0.14
   5  -2   2   -0.23    0.15
   5   2   2    0.09    0.12
   5   2   2   -0.02    0.15
   6  -2   2    0.26    0.11
   6   2   2   -0.01    0.12
   6   2   2   -0.05    0.11
   7   3  -2    0.50    0.15
   6   3  -2    5.24    0.36
  -5   3   2   80.35    2.91
   5   3  -2   82.79    2.48
  -4  -3   2   21.57    0.97
  -4   3   2   22.43    1.00
  -3  -3   2   55.41    1.69
   3  -3  -2   57.30    1.71
  -3  -3   2   58.72    1.82
   3   3  -2   57.00    1.71
  -3   3   2   57.93    1.70
  -3   3   2   57.82    1.82
   3   3  -2   55.03    2.65
  -2  -3   2    0.05    0.10
   2  -3  -2    0.09    0.08
  -2   3   2    0.09    0.09
  -2   3   2    0.04    0.08
  -1  -3   2   17.54    0.56
  -1  -3   2   17.61    0.62
  -1   3   2   17.85    0.59
  -1   3   2   17.51    0.57
   0  -3  -2  928.09   26.54
   0  -3   2  974.79   26.59
   0  -3   2 1000.00   26.54
   0   3   2  958.52   26.53
   1  -3   2   78.20    2.25
  -1  -3  -2   74.97    2.15
   1   3   2   74.16    2.17
  -1   3  -2   75.58    2.18
  -1   3  -2   74.68    2.88
   2  -3   2   19.76    0.79
  -2  -3  -2   19.52    0.72
   3  -3   2    1.20    0.20
  -3  -3  -2    1.11    0.33
   3  -3   2    1.07    0.24
   3   3   2    1.36    0.25
   3   3   2    1.10    0.20
  -3   3  -2    1.78    0.31
   4  -3   2    1.49    0.31
   4  -3   2    1.52    0.30
  -4   3  -2    0.64    0.41
   4   3   2    1.32    0.23
   4   3   2    1.04    0.24
   5  -3   2   15.60    0.67
   5  -3   2   15.77    0.65
   5   3   2   15.84    0.65
   5   3   2   15.79    0.68
   6  -3   2    1.81    0.34
   6   3   2    1.66    0.20
   6   3   2    1.78    0.23
   7   4  -2    0.01    0.14
   6   4  -2    0.10    0.15
  -5  -4   2    6.18    0.77
  -5   4   2    5.39    0.71
   5   4  -2    6.36    0.42
  -4  -4   2    3.89    0.47
  -4   4   2    3.99    0.47
  -3  -4   2   20.77    0.74
   3  -4  -2   21.57    0.76
   3   4  -2   20.13    0.74
  -3   4   2   21.07    0.73
  -3   4   2   22.07    0.84
   2  -4  -2    2.90    0.21
  -2  -4   2    2.94    0.26
  -2  -4   2    2.93    0.21
  -2   4   2    3.00    0.23
   2   4  -2    3.65    0.93
  -2   4   2    3.19    0.22
   2   4  -2    2.81    0.23
  -1  -4   2   78.59    2.22
   1  -4  -2   78.13    2.23
  -1  -4   2   76.83    2.28
  -1   4   2   77.71    2.20
  -1   4   2   74.96    2.23
   0  -4   2   95.16    2.70
   0  -4   2   90.19    2.65
   0  -4  -2   96.60    2.66
   0   4  -2   87.26    3.43
   0   4   2   90.09    2.63
   0   4  -2   90.81    2.64
   1  -4   2    8.43    0.41
  -1   4  -2    8.54    0.36
   1   4   2    9.06    0.36
   2  -4   2    3.74    0.34
   2   4   2    4.09    0.29
   3  -4   2    1.66    0.28
   3  -4   2    1.99    0.32
  -3   4  -2    1.81    0.36
   3   4   2    1.81    0.37
   3   4   2    2.02    0.33
   4  -4   2   12.42    0.59
   4  -4   2   12.04    0.62
  -4  -4  -2   13.25    0.84
   4   4   2   12.67    0.64
  -4   4  -2   13.66    0.96
   4   4   2   12.08    0.59
   5   4   2    3.93    0.40
   6  -4   2    0.09    0.13
   6   4   2    0.44    0.16
   6   4   2    0.16    0.11
   7   5  -2   -0.07    0.13
  -5  -5   2    0.37    0.46
   5   5  -2    0.66    0.18
  -5   5   2    1.11    0.42
  -4  -5   2   13.91    0.78
  -4   5   2   13.57    0.77
  -3  -5   2   58.17    1.90
  -3  -5   2   59.50    1.82
   3  -5  -2   58.94    1.82
  -3   5   2   58.91    1.80
   3   5  -2   58.41    1.81
  -3   5   2   62.14    1.92
  -2  -5   2    9.37    0.45
  -2  -5   2    9.35    0.40
   2  -5  -2    9.06    0.40
  -2   5   2    9.83    0.43
   2   5  -2    9.33    0.43
  -2   5   2    8.86    0.41
  -1  -5   2  125.76    3.56
  -1  -5   2  125.54    3.61
   1  -5  -2  123.51    3.57
  -1   5   2  121.92    3.56
  -1   5   2  126.60    3.51
   1   5  -2  125.40    4.58
   1   5  -2  126.54    3.59
   0  -5  -2  155.91    4.37
   0  -5   2  154.24    4.37
   0   5   2  155.30    4.35
   0   5  -2  148.97    4.35
  -1  -5  -2   28.26    2.02
   1  -5   2   28.00    0.99
  -1  -5  -2   30.46    1.00
   1   5   2   27.77    0.92
  -1   5  -2   29.36    0.94
  -2  -5  -2    2.68    0.33
  -2  -5  -2    3.09    1.07
   2  -5   2    2.67    0.33
   2   5   2    3.62    0.29
   3  -5   2    3.93    0.56
   3  -5   2    4.18    0.46
   3  -5   2    4.39    0.40
  -3  -5  -2    4.31    1.51
   3  -5   2    4.23    0.37
  -3  -5  -2    4.87    0.49
  -3   5  -2    3.92    0.52
   3   5   2    4.31    0.43
  -4  -5  -2   -2.14    2.61
   4  -5   2    0.04    0.16
  -4  -5  -2    0.28    0.34
   4  -5   2    0.19    0.15
   4   5   2    0.30    0.15
   4   5   2    0.10    0.19
  -4   5  -2    0.67    0.46
   5  -5   2    4.00    0.31
   5   5   2    3.78    0.29
   5   5   2    3.63    0.33
   6   5   2    0.23    0.11
   7   6  -2    0.67    0.13
   6  -6  -2    5.64    0.60
   6   6  -2    5.68    0.33
  -5  -6   2    3.02    0.62
   5   6  -2    3.43    0.34
  -5   6   2    3.82    0.76
  -4  -6   2   12.31    0.76
  -4   6   2   13.03    0.74
  -3  -6   2    0.55    0.18
   3  -6  -2    0.84    0.18
  -3  -6   2    0.37    0.19
   3   6  -2    0.66    0.23
  -3   6   2    0.62    0.19
  -3   6   2    0.33    0.17
  -2  -6   2    0.43    0.12
  -2  -6   2    0.69    0.16
   2  -6  -2    0.14    0.12
  -2   6   2    0.29    0.12
   2   6  -2    0.29    0.16
  -2   6   2    0.13    0.12
   1  -6  -2    4.40    0.29
  -1  -6   2    4.78    0.29
  -1  -6   2    5.59    0.35
  -1   6   2    4.86    0.30
   1   6  -2    5.30    0.33
  -1   6   2    4.87    0.24
   0  -6  -2    3.62    0.29
   0  -6   2    3.31    0.24
   0   6   2    3.19    0.25
   0   6  -2    3.59    0.27
  -1  -6  -2   15.83    0.65
   1  -6   2   14.79    0.63
  -1   6  -2   15.27    0.59
   1   6   2   15.48    0.58
  -2  -6  -2   21.90    0.90
   2  -6   2   24.50    0.97
   2  -6   2   22.02    0.91
  -2  -6  -2   20.50    2.41
   2   6   2   21.80    0.79
   3  -6   2    8.72    0.62
  -3  -6  -2   11.97    2.97
   3  -6   2    8.27    0.58
   3  -6   2    8.84    0.50
  -3  -6  -2    9.31    0.62
   3  -6   2    9.21    0.50
   3   6   2    8.86    0.51
  -3   6  -2    9.39    0.70
   3   6   2    8.92    0.56
   4  -6   2   13.39    0.61
  -4  -6  -2   11.94    0.90
   4  -6   2   12.81    0.62
   4   6   2   13.13    0.65
  -4   6  -2   13.08    1.09
   4   6   2   13.85    0.60
   5  -6   2    0.21    0.14
   5   6   2    0.08    0.15
   5   6   2    0.04    0.12
   6  -7  -2   -0.08    0.21
   5   7  -2   13.53    0.61
  -5   7   2   12.42    1.06
  -4  -7   2   -0.17    0.33
  -4   7   2   -0.08    0.26
   3  -7  -2    5.15    0.41
  -3  -7   2    4.79    0.38
  -3  -7   2    5.05    0.45
  -3   7   2    4.95    0.41
   3   7  -2    4.38    0.37
  -3   7   2    4.75    0.40
  -2  -7   2    0.20    0.13
  -2  -7   2    0.23    0.16
   2  -7  -2   -0.04    0.12
  -2   7   2    0.13    0.13
   2   7  -2    0.19    0.15
  -1  -7   2    0.24    0.13
  -1  -7   2    0.59    0.17
   1  -7  -2    0.20    0.11
   1   7  -2    0.31    0.16
  -1   7   2    0.22    0.12
   0  -7  -2   26.43    0.94
   0  -7   2   23.79    0.90
   0   7   2   26.05    0.89
   0   7  -2   26.54    0.91
  -1  -7  -2   36.12    1.25
   1  -7   2   35.75    1.24
  -1   7  -2   37.41    1.19
   1   7   2   35.46    1.18
  -2  -7  -2   30.19    1.15
   2  -7   2   28.55    1.07
   2  -7   2   29.18    1.05
   2  -7   2   30.01    1.15
   2   7   2   28.38    1.01
   2   7   2   31.14    1.14
  -3  -7  -2    4.30    0.54
   3  -7   2    4.53    0.53
   3  -7   2    4.26    0.45
   3  -7   2    3.99    0.40
   3   7   2    4.28    0.38
  -3   7  -2    4.93    0.67
  -4  -7  -2    1.96    0.51
   4  -7   2    2.35    0.47
  -4   7  -2    2.66    0.62
   5  -7   2    0.73    0.16
   5   7   2    0.79    0.15
   5   7   2    0.70    0.18
   6  -8  -2    2.11    0.32
   6   8  -2    1.38    0.20
  -5   8   2    8.01    1.11
   5   8  -2    6.44    0.44
  -4   8   2    0.92    0.42
   3  -8  -2    1.20    0.30
  -3  -8   2    1.00    0.28
  -3  -8   2    0.93    0.26
  -3   8   2    1.59    0.29
  -3   8   2    0.80    0.24
  -2  -8   2    1.28    0.24
  -2  -8   2    0.99    0.19
   2  -8  -2    1.17    0.21
   2   8  -2    1.17    0.23
  -2   8   2    0.79    0.19
  -2   8   2    0.85    0.19
  -1  -8   2   94.06    2.90
  -1  -8   2   97.38    2.89
  -1   8   2   96.88    2.87
   1   8  -2   97.94    2.89
   0  -8   2   10.89    0.51
   0  -8  -2   11.03    0.56
   0   8   2   10.76    0.51
   0   8  -2   10.22    0.51
   1  -8   2    2.75    0.32
  -1  -8  -2    2.72    0.36
   1   8   2    2.18    0.28
  -1   8  -2    2.49    0.30
   2  -8   2    1.39    0.26
  -2  -8  -2    1.24    0.30
   2  -8   2    1.16    0.28
   2  -8   2    1.21    0.25
   2   8   2    0.90    0.28
   2   8   2    0.84    0.30
   2   8   2    0.80    0.27
   3  -8   2    8.91    0.56
   3  -8   2    9.53    0.54
  -3  -8  -2   10.41    0.72
   3  -8   2    8.68    0.69
   3   8   2    9.49    0.57
  -3   8  -2   10.08    0.82
   3   8   2    9.10    0.50
   4  -8   2    0.26    0.18
   4  -8   2    0.56    0.23
   4   8   2    0.39    0.19
   4   8   2    0.37    0.15
   5   8   2   -0.01    0.11
   5   8   2   -0.26    0.17
   6  -9  -2    2.32    0.31
   6   9  -2    2.40    0.20
   5   9  -2    6.39    0.41
  -4   9   2    0.98    0.45
   3  -9  -2   -0.47    0.29
  -3  -9   2   -0.12    0.32
   3   9  -2   -0.06    0.23
  -3   9   2   -0.03    0.27
  -3   9   2   -0.12    0.27
  -2  -9   2    5.07    0.50
   2  -9  -2    5.03    0.41
  -2  -9   2    5.17    0.41
   2   9  -2    4.85    0.63
  -2   9   2    5.66    0.42
   1  -9  -2    0.51    0.18
  -1  -9   2    0.36    0.18
  -1   9   2    0.48    0.18
   1   9  -2    0.13    0.16
   0  -9   2    7.16    0.45
   0  -9  -2    7.00    0.47
   0   9   2    7.39    0.45
   0   9  -2    7.50    0.47
  -1  -9  -2    4.51    0.47
   1  -9   2    5.16    0.45
   1  -9   2    5.47    0.42
   1  -9   2    5.06    0.43
   1   9   2    4.45    0.56
   1   9   2    5.44    0.40
  -1   9  -2    5.46    0.42
   2  -9   2   29.08    1.04
   2  -9   2   27.31    1.04
   2  -9   2   27.52    1.16
  -2  -9  -2   29.16    1.19
   2   9   2   28.28    1.09
  -2   9  -2   29.04    1.20
   2   9   2   27.38    1.03
   2   9   2   27.91    1.08
   3  -9   2    0.05    0.16
  -3  -9  -2   -0.26    0.34
   3  -9   2    0.84    0.33
   3  -9   2   -0.05    0.18
   3   9   2    0.06    0.19
  -3   9  -2    0.06    0.38
   3   9   2    0.27    0.22
   4  -9   2    2.36    0.49
   4  -9   2    2.90    0.34
   4   9   2    2.97    0.33
   5  -9   2    0.52    0.31
   5   9   2    0.12    0.11
   5   9   2    0.26    0.24
   6  10  -2   -0.12    0.09
   5  10  -2    1.08    0.19
  -3 -10   2   -0.13    0.33
   3 -10  -2    0.36    0.37
   3  10  -2   -0.20    0.28
  -3  10   2    0.68    0.33
  -2 -10   2    0.54    0.24
   2 -10  -2    0.71    0.26
  -2 -10   2    1.41    0.38
   2  10  -2    1.04    0.25
  -2  10   2    1.05    0.25
   1 -10  -2   12.00    0.64
  -1 -10   2   12.34    0.65
  -1 -10   2   11.49    0.77
  -1 -10   2   12.67    0.82
  -1  10   2   11.71    0.69
   1  10  -2   12.05    0.62
  -1  10   2   11.57    0.61
   0 -10   2    9.78    0.58
   0 -10   2    9.41    0.56
   0 -10  -2    9.34    0.59
   0 -10   2    9.64    0.59
   0  10   2    9.79    0.54
   0  10  -2   10.15    0.55
   0  10   2   10.62    0.65
   1 -10   2    0.84    0.20
   1 -10   2    0.69    0.23
   1 -10   2    1.17    0.24
  -1 -10  -2    1.29    0.28
   1  10   2    1.29    0.29
  -1  10  -2    1.41    0.30
   1  10   2    2.17    0.46
   2 -10   2   44.11    1.47
   2 -10   2   45.25    1.65
  -2 -10  -2   44.30    1.68
   2 -10   2   43.39    1.48
   2  10   2   42.20    1.55
   2  10   2   43.33    1.67
  -2  10  -2   39.01    3.74
  -2  10  -2   45.71    1.67
   3 -10   2    0.21    0.19
   3 -10   2    0.02    0.18
   3 -10   2    0.63    0.41
  -3 -10  -2    0.48    0.44
   3  10   2    0.27    0.18
   3  10   2    0.31    0.20
  -3  10  -2    0.34    0.50
   4 -10   2    0.15    0.17
   4 -10   2    0.07    0.14
   4  10   2    0.12    0.15
   4  10   2    0.46    0.19
   5 -10   2   -0.74    0.42
   5  10   2    0.31    0.13
   6 -11  -2    0.48    0.16
  -6  11   2   -0.01    0.13
   6  11  -2    0.03    0.09
   5 -11  -2    2.53    0.28
   5  11  -2    2.53    0.26
   3 -11  -2   61.76    2.22
  -3 -11   2   61.92    2.17
  -3  11   2   64.42    2.14
   3  11  -2   64.58    2.09
   2 -11  -2    3.20    0.52
  -2 -11   2    4.20    0.49
  -2  11   2    3.71    0.46
   2  11  -2    2.90    0.45
  -1 -11   2   16.73    0.80
  -1 -11   2   16.62    0.85
  -1 -11   2   18.09    0.78
   1 -11  -2   16.75    0.83
  -1  11   2   18.12    0.80
   1  11  -2   17.44    0.81
  -1  11   2   17.67    0.84
   0 -11  -2    2.35    0.45
   0 -11   2    1.44    0.27
   0 -11   2    2.18    0.33
   0 -11   2    1.31    0.25
   0  11   2    2.41    0.40
   0  11   2    1.45    0.33
   0  11  -2    1.65    0.29
   1 -11   2    0.99    0.21
   1 -11   2    1.24    0.22
  -1 -11  -2    0.99    0.28
   1 -11   2    1.42    0.31
   1  11   2    1.19    0.31
   1  11   2    1.38    0.30
  -1  11  -2    1.19    0.30
   2 -11   2    2.38    0.37
   2 -11   2    1.62    0.39
   2 -11   2    1.68    0.33
  -2 -11  -2    2.32    0.44
  -2  11  -2    1.06    1.35
   2  11   2    2.12    0.41
   3 -11   2    2.90    0.36
   3 -11   2    5.03    0.98
  -3 -11  -2    2.89    0.79
   3 -11   2    3.04    0.37
   3  11   2    2.90    0.36
   3  11   2    3.47    0.39
   4 -11   2   -0.23    0.15
   4 -11   2    0.46    0.16
   4  11   2    0.09    0.15
   4  11   2    0.01    0.21
   5 -12  -2    3.18    0.28
   5  12  -2    3.15    0.25
   4 -12  -2    0.01    0.17
   3 -12  -2   11.74    1.15
   3  12  -2   12.39    0.85
  -3  12   2   14.23    1.02
  -2  12   2    7.29    0.61
  -2  12   2    6.56    0.53
   2  12  -2    7.21    0.60
   1 -12  -2    9.73    0.70
   1 -12  -2    9.59    0.71
  -1 -12   2   10.77    0.68
  -1 -12   2   10.74    0.67
   1  12  -2   10.80    0.67
  -1  12   2   10.91    0.65
   0 -12  -2   -0.03    0.27
   0 -12   2    0.01    0.25
   0  12  -2    0.32    0.29
   0  12   2    0.20    0.26
   1 -12   2    0.09    0.19
  -1 -12  -2    0.26    0.34
   1 -12   2    0.06    0.19
   1 -12   2    0.41    0.35
   1  12   2    0.66    0.33
   1  12   2    0.11    0.24
  -1  12  -2    0.51    0.38
   2 -12   2    1.22    0.41
   2 -12   2    0.39    0.20
   2 -12   2    0.76    0.23
  -2 -12  -2    0.77    0.44
   2  12   2    0.56    0.23
   3  12   2    0.18    0.19
   4 -12   2    0.00    0.24
   4 -12   2    0.05    0.14
   5 -13  -2    0.12    0.12
   5  13  -2   -0.12    0.10
  -5  13   2   -0.03    0.13
   4 -13  -2    6.65    0.39
  -4  13   2    5.68    0.40
   3 -13  -2    0.62    0.19
  -3  13   2    0.22    0.21
  -2 -13   2    0.68    0.41
   2 -13  -2    0.27    0.23
   2  13  -2   -0.49    0.36
  -2  13   2    0.40    0.25
  -2  13   2   -0.05    0.40
  -1 -13   2    3.62    0.53
   1 -13  -2    2.71    0.48
   1 -13  -2    2.57    0.54
  -1 -13   2    2.17    0.39
  -1  13   2    3.13    0.43
  -1  13   2    2.89    0.45
   1  13  -2    3.90    0.59
   0 -13   2    1.52    0.38
   0 -13  -2    2.15    0.44
   0 -13   2    1.32    0.28
   0 -13   2    1.63    0.28
   0  13  -2    2.31    0.38
   0  13   2    2.37    0.44
   0  13   2    2.05    0.37
   1 -13   2    6.20    0.45
   1 -13   2    5.36    0.77
  -1 -13  -2    5.48    0.75
   1 -13   2    6.37    0.47
   1  13   2    7.68    0.71
   1  13   2    4.91    0.52
  -1  13  -2    5.68    0.82
   2 -13   2    2.31    0.36
   2 -13   2    3.02    0.36
   2  13   2    2.67    0.42
   3 -13   2    0.63    0.16
   3 -13   2    0.78    0.19
   3  13   2    0.39    0.24
   5 -14  -2    1.09    0.18
   5  14  -2    0.75    0.11
  -5  14   2    0.90    0.16
   4 -14  -2    1.12    0.17
  -4  14   2    1.03    0.19
   3 -14  -2    0.12    0.18
  -3  14   2    0.19    0.20
   2 -14  -2    6.30    0.47
   2 -14  -2    4.26    0.78
  -2 -14   2    7.14    1.30
   2  14  -2    5.44    0.77
  -2  14   2    5.77    0.66
  -2  14   2    6.43    0.51
  -1 -14   2   -0.52    0.38
  -1 -14   2   -0.26    0.42
   1 -14  -2    0.80    0.45
  -1  14   2    0.10    0.23
  -1  14   2    0.31    0.40
   1  14  -2   -0.33    0.43
   0 -14  -2    9.97    0.90
   0 -14   2    9.91    0.58
   0 -14   2    9.00    0.53
   0 -14   2    7.89    0.85
   0  14   2   10.94    0.85
   0  14   2    9.49    0.58
   0  14  -2    9.79    0.84
   1 -14   2    1.54    0.27
  -1 -14  -2    1.90    0.52
   1 -14   2    2.50    0.35
   1 -14   2    2.11    0.59
   1  14   2    2.27    0.44
   2 -14   2   -0.23    0.21
   2 -14   2    0.13    0.16
   2  14   2   -0.12    0.22
   3 -14   2    0.61    0.15
   4 -14   2    0.67    0.14
   4 -15  -2    1.80    0.19
   4  15  -2    1.62    0.19
  -4  15   2    1.61    0.27
   3 -15  -2    0.58    0.15
  -3  15   2   -0.05    0.17
   2 -15  -2    1.61    0.27
  -2  15   2    1.26    0.29
  -1  15   2    1.84    0.39
   0 -15   2    2.07    0.35
   0  15   2    1.27    0.26
   1 -15   2   10.72    0.52
   1 -15   2    8.61    0.55
   1  15   2    8.75    0.55
   2 -15   2    0.60    0.15
   2 -15   2    1.00    0.22
   3 -15   2    0.21    0.11
   4 -16  -2    0.28    0.10
   4  16  -2    0.53    0.10
  -4  16   2    0.53    0.18
   3 -16  -2    1.41    0.25
  -3  16   2    1.25    0.22
   2 -16  -2    0.22    0.20
  -2  16   2    0.29    0.21
  -1  16   2    0.01    0.20
   0 -16   2   -0.11    0.20
   0  16   2    0.58    0.22
   1 -16   2    3.14    0.28
   2 -16   2    4.26    0.27
   3 -16   2    0.14    0.11
   3 -17  -2   -0.19    0.15
  -3  17   2    0.45    0.24
   3  17  -2    0.07    0.12
  -2  17   2    3.64    0.42
  -1  17   2    0.88    0.26
   0 -17   2    2.33    0.29
   1 -17   2    0.25    0.16
   2 -17   2    1.51    0.20
  -5   0   3   -0.09    0.33
  -4   0   3   -0.13    0.19
  -3   0   3   -0.01    0.12
  -2   0   3   -0.12    0.10
  -1   0   3   -0.09    0.07
  -2   0  -3    0.30    0.84
  -2   0  -3    0.25    0.20
  -3   0  -3   -0.06    0.34
   3   0   3    0.04    0.19
   3   0   3   -0.05    0.14
   4   0   3   -0.01    0.15
   4   0   3   -0.04    0.18
   5   0   3   -0.06    0.13
   5   0   3    0.10    0.13
   6   1  -3    3.80    0.41
  -5  -1   3    4.14    0.63
   5   1  -3    4.39    0.44
  -5   1   3    2.88    0.46
  -4  -1   3    0.61    0.24
  -4   1   3    0.44    0.42
  -4   1   3    0.60    0.20
  -3   1   3   91.87    2.77
  -2  -1   3  102.86    2.96
  -2   1   3  101.44    2.91
  -2   1   3   97.41    2.94
   1  -1  -3   17.05    0.54
  -1  -1   3   16.13    0.62
  -1   1   3   17.55    0.61
  -1   1   3   17.58    0.60
   0   1   3    7.61    0.33
  -2  -1  -3   15.44    0.76
  -2   1  -3   16.06    0.74
  -2   1  -3   16.52    2.37
   3  -1   3    2.20    0.35
   3  -1   3    1.89    0.30
  -3  -1  -3    1.86    0.43
  -3   1  -3    1.77    0.36
   3   1   3    1.61    0.27
   3   1   3    1.97    0.29
   4  -1   3    0.70    0.19
   4  -1   3    0.85    0.20
   4   1   3    0.92    0.24
  -4   1  -3    1.23    0.97
   4   1   3    1.04    0.20
   5  -1   3    0.69    0.16
   5  -1   3    0.82    0.15
   5   1   3    0.59    0.16
   5   1   3    0.79    0.15
   6   2  -3    4.43    0.39
  -5  -2   3   25.09    1.47
   5   2  -3   19.86    1.00
  -5   2   3   25.71    1.48
  -4  -2   3    7.59    0.56
  -4   2   3    7.71    0.54
  -4   2   3    7.42    0.56
  -3  -2   3   33.35    1.18
  -3   2   3   32.25    1.15
  -2  -2   3    0.47    0.14
  -2   2   3    0.63    0.13
  -2   2   3    0.53    0.13
  -1  -2   3  195.38    5.38
   1  -2  -3  194.58    5.38
  -1  -2   3  200.32    5.49
  -1   2   3  194.95    5.42
  -1   2   3  181.93    5.43
   0  -2   3    6.02    0.31
   0   2   3    6.49    0.31
   1   2   3    0.44    0.12
   2  -2   3   -0.04    0.27
  -2  -2  -3    0.02    0.22
   2   2   3   -0.14    0.25
   3  -2   3    9.15    0.51
   3  -2   3    8.91    0.49
   3   2   3    8.87    0.55
   3   2   3    9.14    0.50
  -3   2  -3    8.18    0.74
   4  -2   3    1.48    0.30
   4  -2   3    0.90    0.22
  -4   2  -3    0.89    0.65
   4   2   3    0.68    0.19
   5  -2   3    0.90    0.16
   5  -2   3    1.44    0.25
   5   2   3    0.85    0.15
   5   2   3    0.83    0.15
   6   3  -3    3.64    0.35
  -5  -3   3   10.21    0.83
   5   3  -3   11.33    0.57
  -5   3   3   12.06    0.84
  -4  -3   3    0.82    0.26
   4   3  -3    0.59    0.26
  -4   3   3    1.01    0.26
  -3  -3   3    0.81    0.19
  -3   3   3    0.86    0.16
  -3   3   3    1.34    0.26
  -2  -3   3    9.66    0.48
  -2   3   3    9.47    0.42
  -2   3   3    9.64    0.43
  -1  -3   3  101.83    3.03
   1  -3  -3  101.68    2.95
  -1  -3   3  104.56    2.93
  -1   3   3  101.69    2.98
  -1   3   3  107.11    2.95
   0  -3   3   15.75    0.58
   0   3   3   15.42    0.57
  -1  -3  -3   43.71    1.35
   1  -3   3   44.09    1.45
  -1   3  -3   46.36    2.48
  -1   3  -3   44.65    1.38
   1   3   3   44.70    1.37
   2  -3   3    1.55    0.24
   2   3   3    2.26    0.44
   3  -3   3   14.92    0.88
   3  -3   3   16.55    0.72
   3   3   3   16.00    0.92
  -3   3  -3   17.30    0.97
   3   3   3   17.51    0.69
  -4  -3  -3    0.43    0.43
   4  -3   3   -0.04    0.19
  -4  -3  -3    2.97    4.62
  -4   3  -3   -0.26    0.62
   4   3   3    0.28    0.26
   5  -3   3    0.72    0.14
   5   3   3    0.51    0.14
   6   4  -3    1.08    0.21
  -5  -4   3   38.24    1.56
  -5   4   3   38.69    1.60
   5   4  -3   37.16    1.28
  -4  -4   3    1.37    0.29
  -4   4   3    0.84    0.24
   4   4  -3    1.36    0.29
  -3  -4   3    8.74    0.52
   3   4  -3    9.05    0.63
  -3   4   3    8.57    0.42
  -2  -4   3   11.62    0.54
   2  -4  -3   12.04    0.45
  -2   4   3   11.67    0.49
  -2   4   3   11.82    0.49
  -1  -4   3    0.13    0.13
   1  -4  -3    0.16    0.11
  -1  -4   3    0.11    0.11
  -1   4   3   -0.05    0.16
  -1   4   3    0.04    0.08
   0  -4   3   25.34    0.85
   0  -4  -3   23.79    1.77
   0  -4  -3   24.19    0.84
   0   4   3   24.90    0.83
   1  -4   3   31.20    1.26
   1   4   3   31.63    1.03
  -1   4  -3   32.23    1.05
   2  -4   3    0.59    0.30
   2  -4   3    0.27    0.18
   2  -4   3    0.33    0.19
   2   4   3   -0.20    0.22
   3  -4   3    1.13    0.22
   3  -4   3    1.29    0.30
   3   4   3    1.63    0.34
  -3   4  -3    1.22    0.36
   4  -4   3   19.09    0.78
  -4  -4  -3   16.65    1.12
   4  -4   3   19.19    0.77
  -4   4  -3   17.14    1.62
   4   4   3   19.33    0.74
   4   4   3   19.40    0.80
   5  -4   3    0.76    0.14
   5   4   3    0.91    0.14
   7   5  -3    1.03    0.19
   6   5  -3    1.28    0.26
  -5  -5   3    2.67    0.48
  -5   5   3    2.77    0.49
   5   5  -3    2.61    0.34
  -4  -5   3    0.61    0.26
   4   5  -3   -0.01    0.29
  -4   5   3   -0.02    0.23
  -3  -5   3   12.11    0.63
  -3   5   3   12.30    0.56
  -3   5   3   11.41    0.57
   3   5  -3   12.42    0.57
   3   5  -3   12.18    1.68
  -2  -5   3    9.49    0.40
   2  -5  -3   10.01    0.42
  -2  -5   3    9.31    0.49
   2   5  -3    8.72    1.27
  -2   5   3    9.82    0.44
  -2   5   3    9.98    0.44
   2   5  -3    8.99    0.47
  -1  -5   3   60.54    1.86
  -1  -5   3   59.31    1.75
   1  -5  -3   54.52    1.75
  -1   5   3   58.44    1.78
   0  -5   3   36.42    1.19
   0  -5  -3   37.50    1.21
   0   5  -3   36.79    1.20
   0   5   3   37.13    1.18
   0   5  -3   35.58    2.21
  -1  -5  -3    0.53    0.94
   1  -5   3    0.26    0.15
   1   5   3    0.49    0.15
  -2  -5  -3   17.50    2.64
  -2  -5  -3   17.13    0.82
   2  -5   3   15.94    0.79
   2  -5   3   15.77    0.76
   2  -5   3   17.88    0.72
   2  -5   3   17.55    0.80
   2   5   3   17.07    0.76
   2   5   3   17.35    0.75
  -3  -5  -3    1.35    2.42
   3  -5   3    2.79    0.37
   3  -5   3    2.43    0.33
  -3  -5  -3    3.91    0.56
   3   5   3    2.98    0.38
  -3   5  -3    2.95    0.50
   3   5   3    3.05    0.37
   4  -5   3    5.15    0.39
   4  -5   3    4.70    0.38
   4   5   3    5.36    0.36
   4   5   3    5.01    0.41
   5  -5   3    3.10    0.26
   5   5   3    3.48    0.27
   5   5   3    2.88    0.23
   6   6  -3   31.76    1.05
  -5  -6   3    2.94    0.56
   5   6  -3    3.78    0.37
  -5   6   3    4.18    0.60
  -4  -6   3    4.54    0.56
   4   6  -3    5.59    0.64
  -4   6   3    5.08    0.53
  -3  -6   3    0.16    0.17
  -3   6   3    0.33    0.19
  -3   6   3    0.02    0.17
   3   6  -3    0.19    0.19
   2  -6  -3    5.68    0.35
  -2  -6   3    5.26    0.41
  -2  -6   3    5.99    0.32
  -2   6   3    5.80    0.37
  -2   6   3    5.17    0.35
   2   6  -3    5.81    1.30
   1  -6  -3   73.26    2.14
  -1  -6   3   75.27    2.12
   1   6  -3   66.62    4.01
   1   6  -3   64.04    2.30
  -1   6   3   72.96    2.25
   0  -6  -3    0.31    0.15
   0  -6   3    0.22    0.13
   0   6  -3   -0.04    0.22
   0   6   3    0.03    0.14
   1  -6   3    5.07    0.39
  -1  -6  -3    4.48    0.40
  -1   6  -3    4.18    0.61
   1   6   3    4.46    0.32
   2  -6   3   14.39    0.74
  -2  -6  -3   15.94    0.80
   2  -6   3   15.33    0.77
   2  -6   3   14.77    0.68
   2  -6   3   15.93    0.73
  -2  -6  -3   15.46    3.14
   2   6   3   17.24    0.74
   2   6   3   15.31    0.73
   3  -6   3    0.13    0.19
   3  -6   3    0.25    0.20
  -3  -6  -3   -0.02    0.29
   3  -6   3    0.77    0.27
  -3   6  -3    0.12    0.37
   3   6   3    0.04    0.18
   3   6   3    0.23    0.18
   4  -6   3   12.84    0.61
   4  -6   3   13.22    0.59
   4   6   3   13.71    0.57
   4   6   3   13.40    0.62
   5  -6   3    7.61    0.36
   5   6   3    7.81    0.38
   5   6   3    7.44    0.34
   6   7  -3    0.08    0.12
  -5  -7   3    8.67    1.08
   5   7  -3   10.22    0.54
  -5   7   3    6.49    1.06
  -4  -7   3    0.05    0.29
  -4   7   3   -0.41    0.32
  -3  -7   3   10.80    0.63
  -3   7   3   10.22    0.58
   3   7  -3   11.07    0.73
  -3   7   3    9.45    0.61
  -2  -7   3    3.61    0.38
   2  -7  -3    3.15    0.33
  -2  -7   3    3.57    0.30
  -2   7   3    3.67    0.35
   2   7  -3    3.67    0.37
   1  -7  -3    4.00    0.32
  -1  -7   3    3.91    0.40
  -1  -7   3    3.64    0.30
   1   7  -3    3.82    0.35
  -1   7   3    3.94    0.34
   0  -7  -3   24.56    0.96
   0  -7   3   25.54    0.94
   0   7  -3   26.47    0.95
   0   7   3   25.95    0.93
   1  -7   3   11.39    0.57
   1  -7   3   11.38    0.59
   1  -7   3   10.43    0.71
  -1   7  -3   12.13    0.60
   1   7   3   12.05    0.65
   1   7   3   11.98    0.55
   2  -7   3   26.93    1.08
   2  -7   3   29.61    1.05
   2  -7   3   29.15    1.06
  -2  -7  -3   28.45    1.19
   2  -7   3   29.47    1.19
   2   7   3   28.50    1.07
   3  -7   3    3.34    0.39
   3  -7   3    3.71    0.43
  -3  -7  -3    2.73    0.45
   3  -7   3    2.55    0.37
   3   7   3    3.63    0.36
  -3   7  -3    3.62    0.59
   3   7   3    4.09    0.37
   4  -7   3    0.09    0.17
   4   7   3    0.12    0.15
   5  -7   3    5.12    0.30
   5   7   3    5.67    0.31
   6  -8  -3    0.23    0.16
   6   8  -3    0.06    0.11
   5   8  -3    9.62    0.52
  -4   8   3   -0.03    0.42
  -3  -8   3   54.56    1.90
   3   8  -3   56.13    1.83
  -3   8   3   54.10    1.80
  -2  -8   3    0.16    0.22
  -2  -8   3   -0.15    0.20
  -2  -8   3    0.14    0.19
   2  -8  -3   -0.15    0.19
   2   8  -3    0.02    0.27
  -1  -8   3    2.45    0.49
  -1  -8   3    2.84    0.40
  -1  -8   3    2.91    0.30
   1  -8  -3    3.07    0.35
  -1   8   3    4.30    0.87
   1   8  -3    2.83    0.37
  -1   8   3    2.33    0.33
   0  -8   3  125.92    3.80
   0  -8  -3  129.36    3.87
   0  -8   3  133.26    3.81
   0  -8   3  124.73    3.82
   0   8   3  136.05    3.84
   0   8  -3  129.83    3.84
   0   8   3  129.91    3.83
  -1  -8  -3   10.39    0.62
   1  -8   3    9.21    0.54
   1  -8   3   10.37    0.59
   1  -8   3   10.37    0.55
   1   8   3   10.02    0.55
   1   8   3   10.46    0.60
  -2  -8  -3   49.18    1.76
   2  -8   3   47.95    1.76
   2  -8   3   47.62    1.63
   2   8   3   47.79    1.80
   3  -8   3    9.28    0.54
  -3  -8  -3    8.95    0.82
   3  -8   3    9.75    0.53
   3   8   3    8.88    0.52
  -3   8  -3   10.51    1.00
   3   8   3    9.04    0.49
   4  -8   3    0.47    0.14
   4   8   3    0.73    0.16
   4   8   3    0.87    0.17
   5  -8   3    1.16    0.21
   5   8   3    0.79    0.19
   6  -9  -3    0.92    0.17
   6   9  -3    0.62    0.12
   5   9  -3    0.57    0.17
  -4  -9   3    0.09    0.51
  -3  -9   3   14.43    0.89
   3   9  -3   15.63    0.80
  -3   9   3   15.69    0.77
  -2  -9   3    0.52    0.22
  -2  -9   3    0.24    0.26
  -2  -9   3    0.40    0.20
   2  -9  -3   -0.04    0.25
  -2  -9   3    0.77    0.34
  -2   9   3    0.29    0.23
  -2   9   3    0.19    0.20
   2   9  -3    0.24    0.21
   1  -9  -3    2.04    0.33
  -1  -9   3    2.36    0.34
  -1  -9   3    1.97    0.40
   1   9  -3    2.31    0.38
  -1   9   3    2.78    0.45
  -1   9   3    1.68    0.28
   0  -9   3    5.70    0.43
   0  -9  -3    5.62    0.48
   0  -9   3    6.09    0.47
   0  -9   3    5.04    0.45
   0   9   3    5.95    0.45
   0   9   3    5.40    0.49
   0   9  -3    6.14    0.47
  -1  -9  -3    8.36    0.63
   1  -9   3    7.54    0.51
   1  -9   3    8.61    0.50
   1  -9   3    8.36    0.56
   1   9   3    8.55    0.55
  -1   9  -3    8.91    0.59
   1   9   3    7.67    0.55
  -2  -9  -3    0.34    0.32
   2  -9   3    0.28    0.21
   2  -9   3   -0.05    0.19
   2  -9   3    0.35    0.34
   2   9   3    0.38    0.20
  -2   9  -3    0.16    0.37
   3  -9   3    3.82    0.40
   3  -9   3    2.91    0.36
  -3  -9  -3    4.01    0.58
   3   9   3    4.23    0.40
  -3   9  -3    3.48    0.68
   3   9   3    4.11    0.39
   4  -9   3   -0.02    0.13
   4   9   3    0.00    0.15
   6 -10  -3    1.37    0.17
   6  10  -3    1.38    0.17
  -3 -10   3   55.29    2.06
   3  10  -3   58.19    1.96
  -3  10   3   57.36    1.93
  -2 -10   3    4.58    0.60
  -2 -10   3    3.05    0.59
  -2 -10   3    2.94    0.46
   2 -10  -3    3.57    0.50
   2  10  -3    3.40    0.48
  -2  10   3    3.47    0.46
  -2  10   3    4.24    0.43
   1 -10  -3    5.58    0.52
  -1 -10   3    6.34    0.49
  -1 -10   3    5.95    0.50
  -1 -10   3    6.04    0.49
   1  10  -3    5.64    0.51
  -1  10   3    5.97    0.52
  -1  10   3    5.77    0.52
   0 -10   3    9.24    0.54
   0 -10   3   10.32    0.59
   0 -10  -3    8.54    0.62
   0 -10   3    9.50    0.56
   0  10   3    8.20    0.58
   0  10   3    9.23    0.62
   0  10  -3    9.69    0.60
   1 -10   3    1.26    0.24
   1 -10   3    1.68    0.33
   1 -10   3    1.91    0.36
  -1 -10  -3    1.90    0.39
  -1  10  -3    1.87    0.40
   1  10   3    1.99    0.35
   1  10   3    1.27    0.34
   2 -10   3   13.56    0.66
   2 -10   3   13.76    0.64
   2 -10   3   12.84    0.92
  -2 -10  -3   12.83    0.96
  -2  10  -3   13.98    1.05
   2  10   3   14.07    0.67
   3 -10   3   18.30    0.74
   3 -10   3   17.30    0.72
   3  10   3   17.26    0.74
   4 -10   3    0.42    0.13
   4  10   3    0.04    0.16
   6 -11  -3   -0.16    0.13
  -6  11   3    0.17    0.14
   6  11  -3   -0.05    0.09
   5 -11  -3   -0.21    0.13
   5  11  -3    0.14    0.11
   3  11  -3    2.87    0.44
  -3  11   3    3.25    0.51
   2 -11  -3    1.90    0.43
  -2 -11   3    1.95    0.40
  -2 -11   3    1.20    0.37
   2  11  -3    1.86    0.36
  -2  11   3    2.40    0.37
  -2  11   3    2.45    0.41
  -1 -11   3    0.26    0.21
  -1 -11   3    0.38    0.27
   1 -11  -3    0.12    0.29
  -1 -11   3    0.21    0.24
  -1  11   3   -0.17    0.27
  -1  11   3    0.06    0.24
   1  11  -3    0.35    0.27
   0 -11  -3    0.06    0.28
   0 -11   3    0.21    0.22
   0 -11   3    0.05    0.17
   0 -11   3   -0.35    0.26
   0  11  -3   -0.22    0.27
   0  11   3    0.41    0.30
   0  11   3    0.03    0.23
   1 -11   3    7.00    0.45
  -1 -11  -3    7.40    0.69
   1 -11   3    6.87    0.64
   1 -11   3    6.32    0.47
  -1  11  -3    6.03    0.75
   1  11   3    6.10    0.62
   1  11   3    5.51    0.52
   2 -11   3    0.24    0.18
   2 -11   3   -0.83    0.46
   2 -11   3   -0.16    0.15
  -2 -11  -3   -0.64    0.42
  -2  11  -3    0.34    0.48
   2  11   3    0.19    0.22
  -2  11  -3   -1.14    1.58
   3 -11   3    0.46    0.14
   3 -11   3    0.50    0.17
   3  11   3    0.45    0.17
   4 -11   3    0.42    0.23
   4  11   3   -0.31    0.18
   5 -12  -3    0.37    0.13
  -5  12   3    0.52    0.16
   5  12  -3    0.70    0.12
  -4  12   3   13.88    0.67
  -3  12   3    3.19    0.58
   3  12  -3    3.76    0.56
  -3  12   3    3.50    0.41
   2 -12  -3    1.24    0.51
   2  12  -3    0.37    0.36
  -2  12   3    0.99    0.26
  -2  12   3    0.19    0.33
  -1 -12   3   14.71    0.68
  -1 -12   3   14.96    0.71
  -1 -12   3   13.82    0.84
   1 -12  -3   14.12    0.93
  -1  12   3   15.02    0.84
   1  12  -3   14.66    0.83
  -1  12   3   13.88    0.71
   0 -12   3   11.73    0.60
   0 -12  -3   11.12    0.84
   0 -12   3   11.54    0.63
   0 -12   3   11.66    0.79
   0  12   3   11.39    0.63
   0  12  -3   10.12    0.76
   0  12   3   12.07    0.76
   1 -12   3   30.23    1.36
   1 -12   3   31.03    1.12
   1 -12   3   30.83    1.13
  -1 -12  -3   31.53    1.42
   1  12   3   32.36    1.16
  -1  12  -3   31.24    1.45
   1  12   3   28.91    1.30
   2 -12   3   13.73    0.64
   2 -12   3   14.37    0.67
   2  12   3   13.54    0.65
   3 -12   3    0.02    0.14
   3  12   3    0.34    0.15
   4 -12   3    2.50    0.29
   5 -13  -3    3.76    0.27
   5  13  -3    3.48    0.24
  -5  13   3    3.59    0.28
   4 -13  -3   12.23    0.53
  -4  13   3   11.73    0.56
  -3  13   3    3.82    0.44
   2  13  -3    2.21    0.49
  -2  13   3    2.16    0.41
  -2  13   3    1.31    0.42
  -1 -13   3    1.92    0.51
   1 -13  -3    2.51    0.54
  -1 -13   3    2.81    0.34
  -1 -13   3    2.52    0.43
   1  13  -3    2.53    0.47
  -1  13   3    3.14    0.47
  -1  13   3    2.13    0.44
   0 -13   3    7.88    0.51
   0 -13  -3    8.69    0.87
   0 -13   3    7.17    0.48
   0 -13   3    6.58    0.81
   0  13   3    7.57    0.75
   0  13  -3    8.59    0.83
   0  13   3    7.09    0.54
  -1 -13  -3    2.12    0.62
   1 -13   3    2.10    0.38
   1 -13   3    2.19    0.35
   1 -13   3    2.21    0.80
   1  13   3    1.65    0.28
   2 -13   3    2.32    0.28
   2  13   3    1.66    0.31
   3 -13   3    0.07    0.13
   3 -13   3    0.25    0.15
   3  13   3    0.43    0.18
   5 -14  -3    1.53    0.18
   5  14  -3    1.47    0.17
  -5  14   3    1.04    0.22
   4 -14  -3    0.04    0.12
  -4  14   3    0.11    0.15
   3 -14  -3    1.55    0.28
   2 -14  -3    1.09    0.26
  -2  14   3    0.55    0.23
  -1 -14   3   17.08    0.77
  -1  14   3   15.98    1.10
  -1  14   3   17.21    0.78
   1  14  -3   18.02    1.20
   0 -14   3    6.05    0.46
   0 -14   3    5.98    0.44
   0  14   3    6.15    0.45
   1 -14   3    1.40    0.28
   1 -14   3    1.55    0.30
   2 -14   3   -0.02    0.13
   2 -14   3    0.09    0.18
   2  14   3   -0.10    0.17
   3 -14   3    1.73    0.30
   3 -14   3    1.51    0.21
   4 -15  -3    0.14    0.12
  -4  15   3    0.01    0.13
   3 -15  -3    2.71    0.29
  -3  15   3    2.46    0.29
   2 -15  -3    0.41    0.25
  -2  15   3    0.40    0.18
  -1 -15   3    3.63    0.42
   0 -15   3    2.75    0.33
   0  15   3    2.90    0.35
   1 -15   3    0.43    0.16
   1  15   3    0.27    0.18
   2 -15   3    1.08    0.19
   2  15   3    0.71    0.22
   4 -16  -3    1.68    0.17
   4  16  -3    1.47    0.17
  -4  16   3    2.03    0.25
   3 -16  -3    7.99    0.56
  -3  16   3    7.26    0.40
  -2  16   3    1.35    0.21
  -1  16   3   -0.15    0.16
   0 -16   3    0.32    0.17
   0  16   3    0.46    0.20
   1 -16   3    0.02    0.13
   1  16   3    0.52    0.25
  -3  17   3    0.16    0.18
  -2  17   3    0.19    0.23
  -1  17   3    0.26    0.20
   0 -17   3    0.34    0.19
   0  17   3    0.36    0.22
   1 -17   3    3.72    0.26
  -5   0   4   21.50    1.10
  -4   0   4   26.18    0.99
  -4   0   4   26.69    1.12
  -3   0   4   13.02    0.63
  -2   0   4    6.94    0.40
  -1   0   4   19.73    0.75
  -2   0  -4   44.71    1.61
   2   0   4   46.52    1.48
   2   0   4   43.64    1.49
   3   0   4    6.13    0.42
   3   0   4    5.51    0.44
   5   0   4   -0.03    0.15
   5   0   4   -0.01    0.12
  -5  -1   4    0.71    0.37
  -5   1   4    0.07    0.34
  -4  -1   4   31.89    1.24
  -4  -1   4   29.39    1.09
  -4   1   4   30.66    1.22
  -4   1   4   30.15    1.11
  -3  -1   4    1.79    0.32
  -3   1   4    2.06    0.32
  -2  -1   4    6.95    0.41
  -2   1   4    7.15    0.40
  -1  -1   4    0.83    0.17
   1  -1  -4    1.34    0.26
  -1   1   4    0.80    0.16
   2  -1   4    0.34    0.18
   2  -1   4    0.56    0.22
   2   1   4    0.26    0.21
  -2   1  -4    0.34    0.31
  -2   1  -4   -0.89    1.29
   2   1   4    0.20    0.18
   3  -1   4    1.18    0.21
   3  -1   4    0.99    0.22
   3   1   4    0.64    0.21
   3   1   4    1.04    0.19
   4   1   4   23.61    0.87
   5  -1   4    1.40    0.25
   5   1   4    1.20    0.16
  -5  -2   4    0.98    0.38
  -5   2   4    0.04    0.33
  -4  -2   4   33.24    1.33
  -4  -2   4   33.04    1.21
  -4   2   4   35.20    1.33
  -4   2   4   35.38    1.21
  -3  -2   4    3.20    0.38
  -3   2   4    3.08    0.35
  -2   2   4   10.23    0.50
  -2   2   4   10.76    0.50
   1  -2  -4   49.20    1.48
  -1  -2   4   47.34    1.60
  -1   2   4   49.85    1.54
  -1   2   4   50.24    1.54
   0   2   4    1.43    0.23
   2  -2   4   13.31    0.62
   2  -2   4   13.74    0.66
   2   2   4   12.76    0.61
   2   2   4   13.78    0.65
  -2   2  -4   13.27    0.81
   3  -2   4    0.37    0.16
   3  -2   4    0.71    0.20
   3   2   4    0.71    0.22
   3   2   4    0.43    0.17
  -3   2  -4    0.25    0.54
   4  -2   4    1.84    0.34
   4  -2   4    1.58    0.26
   4   2   4    1.91    0.26
   5  -2   4   -0.19    0.18
   5   2   4    0.00    0.15
   5   2   4    0.20    0.12
  -5  -3   4   26.80    1.24
  -5   3   4   24.92    1.24
   5   3  -4   24.05    0.96
  -4  -3   4    2.75    0.45
  -4  -3   4    2.39    0.47
  -4   3   4    2.59    0.47
  -4   3   4    2.88    0.35
   4   3  -4    2.86    0.45
  -3  -3   4   14.97    0.72
  -3   3   4   14.55    0.68
  -3   3   4   14.18    0.63
  -2  -3   4    5.74    0.41
  -2   3   4    5.82    0.37
  -2   3   4    5.92    0.37
   1  -3  -4   43.38    1.34
  -1   3   4   44.03    1.43
  -1   3   4   42.22    1.34
   0  -3  -4   22.05    0.80
   0  -3  -4   21.24    2.11
   0   3   4   21.01    0.99
   1  -3   4    0.75    0.22
   1   3   4    1.41    0.29
   2  -3   4    7.18    0.49
   2  -3   4    6.23    0.44
   2   3   4    7.11    0.48
   2   3   4    6.55    0.49
  -2   3  -4    6.45    0.65
  -2   3  -4    3.84    1.47
   3  -3   4    7.75    0.47
   3  -3   4    7.80    0.47
   3   3   4    7.78    0.45
   3   3   4    7.58    0.50
  -3   3  -4    7.93    0.98
   4  -3   4    1.73    0.26
   4  -3   4    2.11    0.27
   4   3   4    1.93    0.27
   4   3   4    1.54    0.26
   5  -3   4    3.13    0.27
   5   3   4    3.12    0.29
   5   3   4    3.25    0.25
   6   4  -4    3.13    0.36
  -5  -4   4    0.32    0.37
  -5   4   4    0.39    0.44
  -4  -4   4    5.83    0.55
  -4  -4   4    5.10    0.53
  -4   4   4    6.20    0.56
   4   4  -4    5.82    0.54
   4   4  -4    5.07    1.49
  -3  -4   4    8.53    0.62
  -3   4   4    7.41    0.51
  -3   4   4    7.68    0.48
  -3   4   4    7.94    0.46
  -2  -4   4   92.43    2.82
  -2   4   4   91.82    2.74
  -2   4   4   90.26    2.70
  -1  -4   4    5.92    0.44
  -1  -4   4    5.12    0.33
   1  -4  -4    5.67    0.37
  -1   4   4    5.87    0.36
   0  -4   4    6.18    0.39
   0  -4  -4    6.71    0.40
   0   4   4    6.97    0.40
  -1  -4  -4   23.69    3.15
  -1  -4  -4   18.15    0.89
   1  -4   4   20.57    0.81
   1  -4   4   20.04    0.86
  -1   4  -4   19.15    0.82
   1   4   4   20.09    0.78
   1   4   4   20.76    0.87
  -2  -4  -4    1.24    2.23
   2  -4   4    3.61    0.36
   2  -4   4    3.16    0.44
  -2  -4  -4    3.86    0.52
   2  -4   4    2.41    0.42
   2   4   4    3.31    0.42
   2   4   4    3.00    0.39
   3  -4   4    0.35    0.19
   3  -4   4    0.18    0.19
  -3  -4  -4   -2.01    4.32
  -3  -4  -4    0.43    0.43
   3   4   4    0.21    0.18
  -3   4  -4   -0.41    0.52
   4  -4   4   -0.04    0.14
   4  -4   4    0.09    0.14
   4   4   4    0.07    0.14
   4   4   4   -0.10    0.14
   5  -4   4    0.27    0.13
   5   4   4    0.09    0.12
   6   5  -4    5.59    0.37
  -5  -5   4    3.90    0.57
  -5   5   4    3.69    0.62
   5   5  -4    4.59    0.42
  -4  -5   4    9.62    0.67
   4   5  -4    9.93    0.63
  -4   5   4    9.36    0.69
  -3  -5   4    7.51    0.61
  -3  -5   4    8.00    0.53
  -3   5   4    7.61    0.50
   3   5  -4    5.92    1.42
   3   5  -4    7.65    0.54
  -3   5   4    7.49    0.50
  -2  -5   4   33.14    1.23
  -2   5   4   33.76    1.17
  -1  -5   4  213.87    6.30
  -1  -5   4  226.49    6.17
   1  -5  -4  216.05    6.18
  -1   5   4  215.75    6.21
   0  -5   4    2.74    0.32
   0  -5  -4    3.26    0.36
   0   5  -4    4.39    1.03
   0   5   4    3.24    0.33
   0   5  -4    3.79    0.36
  -1  -5  -4    4.30    1.66
   1  -5   4    2.08    0.36
   1  -5   4    1.74    0.28
  -1  -5  -4    2.32    0.39
   1  -5   4    1.84    0.36
  -1   5  -4    1.91    0.33
   1   5   4    2.45    0.36
   1   5   4    2.22    0.46
  -2  -5  -4   13.03    3.48
   2  -5   4    8.76    0.58
   2  -5   4    8.47    0.58
  -2  -5  -4    8.77    0.67
   2  -5   4    8.99    0.51
   2   5   4    8.97    0.55
   3  -5   4   21.42    0.83
  -3  -5  -4   20.73    1.13
  -3   5  -4   16.15    1.35
   3   5   4   21.36    0.84
   4  -5   4    6.11    0.37
   4   5   4    5.56    0.37
   4   5   4    6.19    0.37
   6   6  -4    2.16    0.29
  -5  -6   4   38.77    1.70
  -5   6   4   39.44    1.71
  -4  -6   4    4.03    0.56
  -4   6   4    3.22    0.46
   4   6  -4    4.03    0.55
  -3  -6   4    8.93    0.66
  -3  -6   4    9.44    0.63
   3   6  -4   10.54    1.99
   3   6  -4    9.42    0.59
  -3   6   4    9.41    0.55
  -2  -6   4   -0.34    0.24
  -2  -6   4    0.03    0.22
   2   6  -4   -0.72    1.04
  -2   6   4   -0.11    0.16
   2   6  -4    0.03    0.19
  -1  -6   4    0.36    0.18
   1  -6  -4    0.24    0.19
  -1  -6   4    0.61    0.23
  -1  -6   4    0.49    0.25
  -1   6   4    0.18    0.17
   1   6  -4    0.07    0.20
   1   6  -4   -0.48    0.85
   0  -6  -4   27.11    1.05
   0  -6   4   27.86    1.03
   0  -6   4   28.04    1.03
   0  -6   4   28.56    1.03
   0   6  -4   27.31    1.05
   0   6   4   28.37    1.02
   0   6   4   28.20    1.06
   1  -6   4    0.73    0.22
  -1  -6  -4    0.75    0.27
   1  -6   4    0.87    0.21
   1  -6   4    0.72    0.26
   1   6   4    0.80    0.24
   1   6   4    0.87    0.27
  -2  -6  -4   14.25    0.89
   2  -6   4   14.69    0.68
   2  -6   4   14.79    0.71
   2   6   4   15.21    0.72
   3  -6   4    8.59    0.51
   3  -6   4    9.72    0.53
  -3  -6  -4    8.62    0.96
   3   6   4    9.36    0.51
   3   6   4    9.56    0.53
  -3   6  -4    6.37    1.18
   4  -6   4    1.54    0.25
   4   6   4    1.32    0.24
   4   6   4    1.43    0.20
   6   7  -4   -0.21    0.14
  -5  -7   4    4.29    0.69
  -4  -7   4   19.00    1.03
   4   7  -4   18.70    0.97
  -4   7   4   17.51    0.97
  -3  -7   4   43.22    1.63
  -3  -7   4   44.34    1.52
   3   7  -4   44.37    1.55
  -3   7   4   43.51    1.52
  -2  -7   4    1.85    0.30
  -2  -7   4    2.00    0.35
  -2  -7   4    1.77    0.32
  -2   7   4    2.19    0.33
  -2   7   4    2.50    0.35
   2   7  -4    2.41    0.39
  -1  -7   4   15.41    0.71
   1  -7  -4   14.00    0.69
  -1  -7   4   14.47    0.65
  -1  -7   4   14.46    0.71
   1   7  -4   15.48    0.74
  -1   7   4   14.95    0.68
  -1   7   4   14.62    0.72
   0  -7   4   25.45    0.96
   0  -7   4   25.91    1.11
   0  -7   4   26.33    1.00
   0   7   4   26.87    1.00
   0   7  -4   25.48    1.03
   0   7   4   26.05    1.01
   1  -7   4    2.50    0.46
   1  -7   4    1.82    0.34
  -1  -7  -4    1.47    0.37
   1  -7   4    1.96    0.30
   1   7   4    1.71    0.33
   1   7   4    2.06    0.32
  -1   7  -4    1.76    0.39
   2  -7   4   25.41    0.98
   2  -7   4   26.18    0.99
  -2  -7  -4   25.92    1.21
   2   7   4   26.01    1.02
   3  -7   4    0.24    0.17
   3  -7   4   -0.08    0.41
   3   7   4    0.05    0.16
   4  -7   4    0.04    0.12
   4   7   4   -0.10    0.12
   6   8  -4    4.07    0.29
  -6   8   4    4.24    0.35
  -4  -8   4    0.76    0.42
   4   8  -4    1.20    0.45
  -3  -8   4   26.23    1.18
  -3  -8   4   24.62    1.03
  -3   8   4   26.73    1.10
  -3   8   4   26.50    1.04
   3   8  -4   26.64    1.11
  -2  -8   4    1.89    0.29
  -2  -8   4    1.93    0.36
  -2  -8   4    1.84    0.32
  -2   8   4    1.71    0.29
  -2   8   4    1.93    0.32
   2   8  -4    1.70    0.32
  -1  -8   4    0.00    0.21
  -1  -8   4    0.18    0.24
   1  -8  -4   -0.13    0.26
  -1  -8   4    0.13    0.20
   1   8  -4    0.11    0.24
  -1   8   4   -0.18    0.21
  -1   8   4    0.24    0.25
   0  -8  -4   28.08    1.15
   0  -8   4   28.48    1.06
   0  -8   4   27.92    1.04
   0  -8   4   27.05    1.10
   0   8   4   28.40    1.08
   0   8   4   29.29    1.08
   0   8  -4   28.97    1.14
   1  -8   4    6.19    0.48
   1  -8   4    6.28    0.61
  -1  -8  -4    4.93    0.64
   1  -8   4    5.75    0.43
   1   8   4    5.26    0.60
   1   8   4    6.13    0.51
  -1   8  -4    5.15    0.72
  -2  -8  -4    2.82    0.54
   2  -8   4    2.72    0.36
  -2   8  -4    2.47    0.51
   2   8   4    2.22    0.38
   3  -8   4    0.17    0.16
   3  -8   4   -0.08    0.21
   3   8   4    0.31    0.18
   4  -8   4    0.35    0.12
   4   8   4    0.38    0.14
  -6   9   4    0.50    0.15
   6   9  -4    0.42    0.13
  -4  -9   4    1.65    0.62
   4   9  -4    1.05    0.54
  -3  -9   4   21.23    1.30
  -3  -9   4   20.34    0.99
   3   9  -4   20.37    1.26
  -3   9   4   19.83    1.16
  -3   9   4   20.65    0.88
  -2  -9   4   -0.20    0.17
  -2  -9   4    0.06    0.30
  -2  -9   4   -0.26    0.25
  -2   9   4    0.15    0.23
  -2   9   4    0.19    0.24
   2   9  -4   -0.34    0.28
  -1  -9   4    2.84    0.41
  -1  -9   4    3.97    0.50
   1  -9  -4    3.36    0.56
  -1  -9   4    3.62    0.41
  -1   9   4    3.80    0.43
  -1   9   4    4.47    0.47
   1   9  -4    2.50    0.38
   0  -9  -4    0.69    0.32
   0  -9   4    0.75    0.18
   0  -9   4    0.66    0.22
   0  -9   4    0.62    0.30
   0   9   4    0.42    0.24
   0   9   4    0.34    0.22
   0   9  -4    0.37    0.29
   1  -9   4   16.28    0.90
   1  -9   4   15.95    0.73
   1  -9   4   15.72    0.70
  -1  -9  -4   15.75    0.97
   1   9   4   15.56    0.76
   1   9   4   16.00    0.88
   2  -9   4    0.09    0.23
   2  -9   4    0.00    0.15
  -2  -9  -4    1.25    0.54
  -2   9  -4   -0.75    0.51
  -2   9  -4   -1.92    2.15
   2   9   4    0.09    0.19
   3  -9   4    0.21    0.12
   3   9   4    0.19    0.13
   4  -9   4    0.41    0.12
   6 -10  -4    0.18    0.13
  -6  10   4    0.28    0.14
   6  10  -4    0.58    0.17
  -5  10   4   -0.05    0.16
  -4 -10   4   14.73    1.58
  -3 -10   4    5.84    0.87
   3  10  -4    6.39    0.68
  -3  10   4    6.43    0.70
  -3  10   4    6.09    0.51
  -2 -10   4    0.76    0.27
  -2 -10   4    0.83    0.21
  -2  10   4    1.06    0.30
  -1 -10   4    8.64    0.68
  -1 -10   4    8.25    0.56
   1 -10  -4    8.10    0.72
  -1 -10   4    8.41    0.54
  -1  10   4    9.61    0.62
   1  10  -4    8.59    0.67
  -1  10   4    8.30    0.57
   0 -10   4    1.53    0.47
   0 -10  -4    1.70    0.66
   0 -10   4    2.11    0.36
   0 -10   4    2.34    0.36
   0  10   4    2.33    0.40
   0  10  -4    2.26    0.65
   0  10   4    2.64    0.43
   1 -10   4   14.22    0.69
   1 -10   4   14.20    0.65
  -1 -10  -4   13.95    0.97
   1 -10   4   13.92    0.95
   1  10   4   14.13    0.71
   1  10   4   14.98    0.94
   2 -10   4   -0.09    0.17
   2 -10   4    0.01    0.15
   2  10   4    0.22    0.19
   3 -10   4    0.33    0.12
   3 -10   4    0.27    0.17
   3  10   4    0.03    0.13
   4 -10   4    0.35    0.12
   4  10   4   -0.23    0.14
   6 -11  -4    0.05    0.12
  -6  11   4   -0.11    0.13
   6  11  -4   -0.06    0.09
  -5  11   4    4.78    0.35
  -4  11   4    5.67    0.46
   3  11  -4    7.50    0.80
  -3  11   4    8.07    0.56
  -3  11   4    8.45    0.84
  -2 -11   4    0.11    0.24
   2  11  -4   -0.27    0.37
  -2  11   4    0.32    0.33
  -2  11   4   -0.01    0.22
   1 -11  -4   -0.10    0.49
  -1 -11   4    0.15    0.22
  -1 -11   4    0.15    0.19
  -1  11   4    0.16    0.20
   1  11  -4    0.13    0.37
  -1  11   4    0.19    0.31
   0 -11  -4    9.36    0.85
   0 -11   4    8.37    0.54
   0 -11   4    8.15    0.82
   0 -11   4    8.53    0.52
   0  11   4    9.11    0.67
   0  11  -4    8.65    0.75
   0  11   4    8.17    0.55
   1 -11   4    0.84    0.51
   1 -11   4    0.33    0.20
   1 -11   4    0.14    0.18
   1  11   4    0.12    0.20
   2 -11   4    2.82    0.33
   2 -11   4    2.53    0.34
   2  11   4    2.91    0.34
   3 -11   4    0.30    0.12
   3  11   4    0.43    0.14
   5 -12  -4    0.37    0.13
   5  12  -4    0.02    0.10
  -5  12   4    0.03    0.15
  -4  12   4    0.35    0.20
  -3  12   4    0.98    0.23
  -2 -12   4    4.43    0.50
  -2  12   4    4.43    0.47
  -2  12   4    3.63    0.49
   2  12  -4    4.07    0.57
  -1 -12   4   12.22    0.65
  -1 -12   4   12.72    0.62
   1  12  -4   13.64    0.89
  -1  12   4   11.70    0.82
  -1  12   4   12.64    0.66
   0 -12  -4    0.66    0.59
   0 -12   4    0.15    0.19
   0 -12   4    1.88    0.61
   0 -12   4    0.34    0.17
   0  12  -4    0.69    0.56
   0  12   4    0.10    0.19
   0  12   4    0.63    0.44
   1 -12   4    0.95    0.22
   1 -12   4    0.93    0.21
   1  12   4    0.90    0.22
   2 -12   4   -0.04    0.11
   2 -12   4    0.13    0.15
   2  12   4    0.12    0.15
   3 -12   4   -0.19    0.12
   3  12   4   -0.05    0.14
   5 -13  -4    2.16    0.21
  -5  13   4    2.27    0.23
   5  13  -4    1.70    0.18
  -4  13   4    0.71    0.19
  -3  13   4    5.58    0.44
  -2 -13   4    0.12    0.25
  -2  13   4    0.32    0.20
  -1 -13   4    1.19    0.24
  -1 -13   4    0.65    0.18
  -1  13   4    1.02    0.25
   0 -13   4    0.48    0.21
   0 -13   4    0.17    0.17
   0  13   4    0.28    0.20
   1 -13   4    0.43    0.17
   1  13   4    0.59    0.18
   2 -13   4    0.32    0.13
   2  13   4    0.38    0.15
   3 -13   4    0.86    0.15
   3  13   4    0.61    0.23
   4 -14  -4    0.99    0.21
  -4  14   4    0.52    0.15
   3 -14  -4    2.07    0.31
  -3  14   4    1.52    0.28
  -2 -14   4    1.20    0.26
  -1 -14   4    0.28    0.22
  -1  14   4    0.39    0.20
   0 -14   4    0.85    0.17
   0  14   4    1.00    0.21
   1 -14   4   -0.14    0.14
   1 -14   4   -0.13    0.13
   1  14   4    0.01    0.14
   2 -14   4    1.63    0.22
   2 -14   4    1.40    0.23
   2  14   4    1.40    0.26
  -4  15   4    0.10    0.14
   3 -15  -4    0.14    0.19
  -3  15   4   -0.05    0.14
  -2  15   4    3.55    0.33
  -1 -15   4    0.19    0.19
  -1  15   4    0.13    0.14
   0 -15   4    0.16    0.14
   0  15   4    0.45    0.16
   1 -15   4    0.35    0.13
   1 -15   4   -0.03    0.11
   1  15   4    0.06    0.16
   2 -15   4   -0.04    0.11
  -3  16   4    0.80    0.15
  -2  16   4    0.17    0.14
  -1  16   4    1.53    0.25
   0 -16   4    1.37    0.25
   1 -16   4    0.11    0.12
   1  16   4   -0.13    0.18
  -2  17   4    0.60    0.16
  -1  17   4    0.42    0.18
   0 -17   4   -0.24    0.19
  -5   0   5   -0.05    0.20
  -4   0   5    0.01    0.26
  -4   0   5    0.08    0.19
  -3   0   5   -0.02    0.18
  -3   0   5   -0.16    0.19
  -2   0   5    0.24    0.18
  -2   0   5   -0.21    0.22
  -1   0   5    0.17    0.18
   1   0   5   -0.18    0.27
   1   0   5    0.07    0.26
   2   0   5    0.17    0.21
   2   0   5    0.05    0.18
   3   0   5   -0.04    0.17
   4   0   5   -0.25    0.14
   4   0   5    0.06    0.13
  -5  -1   5    1.29    0.43
  -5  -1   5    1.20    0.25
  -5   1   5    1.12    0.25
  -5   1   5    0.90    0.42
  -4  -1   5    0.64    0.29
  -4  -1   5    0.85    0.23
  -4   1   5    0.75    0.27
  -4   1   5    0.96    0.22
  -3  -1   5    5.19    0.48
  -3  -1   5    5.27    0.43
  -3   1   5    5.16    0.42
  -3   1   5    5.27    0.64
  -2  -1   5   27.78    1.06
  -2  -1   5   26.48    1.01
  -2   1   5   27.61    1.03
  -1  -1   5   11.55    0.63
   0  -1   5    0.22    0.30
   1  -1   5   -0.15    0.24
   1  -1   5    0.38    0.28
   1   1   5    0.30    0.25
   2  -1   5   -0.28    0.18
   2  -1   5    0.35    0.20
   2   1   5    0.20    0.21
   2   1   5    0.08    0.19
   3  -1   5    0.27    0.17
   3  -1   5    0.04    0.15
   3   1   5    0.42    0.20
   3   1   5   -0.10    0.16
   4  -1   5    2.19    0.24
   4  -1   5    2.20    0.26
   4   1   5    2.06    0.24
  -5  -2   5    5.81    0.77
  -5  -2   5    5.26    0.48
  -5   2   5    5.77    0.78
  -4  -2   5    0.76    0.28
  -4  -2   5    1.01    0.23
  -4   2   5    0.92    0.22
  -4   2   5    1.37    0.31
  -3  -2   5   36.48    1.35
  -3  -2   5   35.99    1.24
  -3   2   5   33.79    1.23
  -2  -2   5   18.25    0.79
  -2  -2   5   19.16    0.84
  -2   2   5   19.34    0.79
  -2   2   5   18.54    0.81
  -1  -2   5    1.35    0.25
  -1  -2   5    2.02    0.35
   0  -2  -5    0.22    0.24
   0  -2  -5   -1.32    1.83
   0  -2   5    0.02    0.25
   0   2   5    0.04    0.33
   1  -2   5    5.23    0.47
   1   2   5    6.67    0.50
   2  -2   5    1.11    0.25
   2  -2   5    0.97    0.20
   2   2   5    0.43    0.25
   2   2   5    1.08    0.24
  -2   2  -5    1.39    0.57
  -2   2  -5   -0.04    2.50
   3  -2   5    4.11    0.39
   3  -2   5    4.61    0.37
   3   2   5    4.35    0.37
   4  -2   5    0.40    0.15
   4  -2   5    0.58    0.15
   4   2   5    0.47    0.14
  -5  -3   5    0.26    0.44
  -5  -3   5    0.63    0.25
  -5   3   5    0.02    0.45
  -4  -3   5    3.44    0.40
  -4  -3   5    2.88    0.52
  -4   3   5    4.43    0.56
  -3  -3   5    1.69    0.36
  -3  -3   5    1.36    0.27
  -3   3   5    2.43    0.36
  -3   3   5    1.98    0.32
  -2  -3   5   11.57    0.59
  -2  -3   5   11.92    0.68
  -2   3   5   11.52    0.60
  -1  -3   5   48.92    1.65
  -1  -3   5   50.86    1.80
  -1   3   5   54.49    1.88
   0  -3   5   -0.29    0.21
   0  -3   5   -0.29    0.26
   0  -3  -5   -0.17    0.24
   0   3   5    0.02    0.30
  -1  -3  -5   -0.37    0.30
  -1  -3  -5   -1.96    2.47
   1  -3   5    0.25    0.19
   1  -3   5   -0.10    0.27
   1   3   5   -0.18    0.21
   2  -3   5    5.64    0.41
   2  -3   5    4.87    0.47
  -2  -3  -5    4.36    0.84
  -2   3  -5    2.19    2.35
   2   3   5    5.09    0.44
  -2   3  -5    6.50    1.05
   3  -3   5    0.90    0.20
   3  -3   5    0.41    0.17
   3   3   5    0.46    0.18
   3   3   5    0.61    0.20
   4  -3   5   -0.08    0.13
   4   3   5    0.02    0.12
   4   3   5    0.07    0.22
  -5  -4   5   -0.35    0.44
  -5  -4   5    0.33    0.27
  -5   4   5   -0.06    0.54
  -4  -4   5    4.90    0.57
  -4  -4   5    5.38    0.63
   4   4  -5    5.24    0.60
  -4   4   5    4.74    0.41
   4   4  -5    6.23    1.86
  -4   4   5    3.98    0.63
  -3  -4   5   32.29    1.16
  -3  -4   5   29.94    1.27
  -3   4   5   32.10    1.13
  -3   4   5   31.60    1.26
  -3   4   5   30.99    1.28
  -2  -4   5    0.44    0.23
  -2  -4   5    0.09    0.20
  -2   4   5    0.40    0.21
  -2   4   5    1.27    0.39
  -2   4   5    0.57    0.24
  -1  -4   5   16.80    0.81
  -1  -4   5   17.01    0.74
  -1   4   5   16.55    0.81
  -1   4   5   17.80    0.75
   0  -4   5    6.25    0.47
   0  -4  -5    6.65    0.56
   0  -4   5    5.25    0.51
   0   4   5    6.73    0.54
   1  -4   5   14.35    0.70
   1  -4   5   12.93    0.81
  -1  -4  -5   14.32    0.84
  -2  -4  -5   17.97    1.10
  -2  -4  -5   15.66    5.48
   2  -4   5   17.89    0.75
   2   4   5   16.63    0.75
  -2   4  -5   18.24    1.22
   3  -4   5    2.22    0.34
   3  -4   5    1.80    0.35
   3   4   5    1.71    0.24
   4  -4   5    0.23    0.13
   4   4   5    0.01    0.11
  -5  -5   5   10.44    1.01
   5   5  -5   10.34    0.59
  -5   5   5   10.72    0.65
  -4  -5   5   -0.12    0.30
  -4  -5   5    0.24    0.24
  -4   5   5   -0.41    0.29
  -3  -5   5    7.18    0.61
  -3  -5   5    6.84    0.52
   3   5  -5    7.09    0.58
   3   5  -5    4.25    1.73
  -3   5   5    6.74    0.45
  -3   5   5    6.46    0.67
  -3   5   5    6.96    0.55
  -2  -5   5   10.11    0.68
  -2  -5   5   10.92    0.70
  -2  -5   5   10.51    0.58
  -2   5   5   11.37    0.59
  -2   5   5   11.38    0.73
  -2   5   5   11.24    0.61
  -1  -5   5   45.89    1.58
  -1  -5   5   49.59    1.60
  -1   5   5   47.75    1.60
  -1   5   5   48.23    1.61
   0  -5  -5    2.42    0.38
   0  -5   5    1.94    0.39
   0  -5   5    2.71    0.38
   0   5   5    1.75    0.30
   0   5  -5    0.66    1.42
   0   5   5    2.62    0.36
   0   5  -5    1.86    0.32
  -1  -5  -5    0.21    0.39
   1  -5   5    0.20    0.20
   1  -5   5    0.65    0.21
   1   5   5    0.70    0.23
   2  -5   5    7.14    0.46
  -2  -5  -5    6.80    0.80
   2   5   5    7.24    0.47
  -2   5  -5    6.62    2.41
  -2   5  -5    5.94    1.01
   3  -5   5    0.42    0.15
   3  -5   5    0.18    0.22
   3   5   5    0.34    0.16
   4  -5   5   -0.02    0.13
   4   5   5    0.14    0.12
  -5  -6   5    1.16    0.75
  -5   6   5    2.33    0.45
  -4  -6   5    5.82    0.51
  -4  -6   5    5.74    0.75
   4   6  -5    5.76    0.71
  -4   6   5    5.97    0.56
  -3  -6   5    6.44    0.63
  -3  -6   5    6.82    0.50
   3   6  -5    4.02    1.51
  -3   6   5    6.15    0.54
  -3   6   5    6.72    0.61
   3   6  -5    6.60    0.60
  -2  -6   5    3.79    0.55
  -2  -6   5    4.16    0.40
  -2  -6   5    3.70    0.50
  -2   6   5    3.56    0.44
   2   6  -5    3.64    0.49
  -2   6   5    4.67    0.54
   2   6  -5    3.53    1.35
  -2   6   5    4.32    0.43
  -1  -6   5   48.66    1.63
  -1  -6   5   49.07    1.62
  -1   6   5   50.10    1.64
  -1   6   5   44.67    1.63
   1   6  -5   52.27    3.84
   1   6  -5   49.99    1.73
   0  -6   5    1.27    0.42
   0  -6   5    1.28    0.24
   0  -6  -5    1.57    0.40
   0   6   5    1.86    0.33
   0   6  -5    1.30    0.36
   0   6   5    1.53    0.29
  -1  -6  -5    9.78    0.87
   1  -6   5    9.65    0.56
   1  -6   5    9.67    0.55
   1   6   5    9.57    0.55
   2  -6   5    1.76    0.34
  -2  -6  -5    0.48    0.65
   2  -6   5    1.77    0.27
  -2   6  -5    1.91    0.62
  -2   6  -5    5.12    2.45
   3  -6   5    0.14    0.14
   3   6   5   -0.01    0.14
   4   6   5    1.22    0.21
  -6   7   5    0.47    0.24
   6   7  -5    0.54    0.21
  -5   7   5    2.45    0.42
  -4  -7   5    0.01    0.41
  -4  -7   5    0.41    0.27
  -4   7   5    0.16    0.25
  -3  -7   5   15.69    1.04
  -3  -7   5   16.79    0.78
   3   7  -5   17.55    0.93
  -3   7   5   17.93    0.82
  -3   7   5   15.91    0.83
  -2  -7   5    0.90    0.24
  -2  -7   5    0.55    0.20
  -2  -7   5    0.91    0.31
   2   7  -5    1.10    0.33
  -2   7   5    1.14    0.30
  -2   7   5    1.54    0.30
  -1  -7   5    0.02    0.21
  -1  -7   5    0.21    0.20
  -1   7   5    0.22    0.24
  -1   7   5   -0.23    0.24
   1   7  -5    0.14    0.31
   0  -7   5    2.90    0.40
   0  -7   5    3.40    0.47
   0  -7  -5    3.70    0.71
   0  -7   5    3.24    0.39
   0   7  -5    3.73    0.50
   0   7   5    3.46    0.45
   0   7   5    3.73    0.49
   1  -7   5   16.66    0.75
  -1  -7  -5   16.10    1.12
   1  -7   5   16.49    0.73
   1   7   5   16.54    0.76
   2  -7   5   -0.31    0.20
   2  -7   5   -0.13    0.16
   2   7   5   -0.03    0.17
   3  -7   5   -0.10    0.12
   3   7   5    0.08    0.14
   6   8  -5    0.61    0.17
  -5   8   5    9.43    0.55
  -4  -8   5   16.70    1.23
  -4  -8   5   19.95    1.05
  -4   8   5   19.17    0.84
   4   8  -5   18.26    1.10
  -3  -8   5   -0.69    0.37
  -3  -8   5    0.03    0.22
  -3   8   5   -0.01    0.24
   3   8  -5    0.51    0.34
  -3   8   5    0.24    0.33
  -2  -8   5   26.84    1.02
  -2  -8   5   26.36    1.04
  -2  -8   5   26.52    1.24
  -2   8   5   25.64    1.12
   2   8  -5   28.70    1.22
  -2   8   5   27.27    1.06
  -1  -8   5    3.77    0.40
  -1  -8   5    4.00    0.44
   1   8  -5    3.54    0.59
  -1   8   5    3.92    0.49
  -1   8   5    3.62    0.45
   0  -8   5   19.40    0.77
   0  -8  -5   17.29    1.35
   0  -8   5   17.77    0.80
   0   8   5   17.85    0.81
   0   8  -5   16.70    1.04
   0   8   5   18.74    0.89
   1  -8   5    9.06    0.55
   1  -8   5    8.69    0.51
  -1  -8  -5    6.89    1.19
   1   8   5    8.46    0.55
   2  -8   5    3.22    0.35
   2   8   5    3.20    0.37
   3  -8   5    1.39    0.22
   3   8   5    1.16    0.22
   6   9  -5    5.54    0.32
  -6   9   5    5.59    0.36
  -5   9   5    2.02    0.34
  -4   9   5   37.61    1.33
  -3  -9   5    0.88    0.25
  -3  -9   5    0.33    0.45
  -3   9   5    0.82    0.36
  -3   9   5    0.81    0.27
   3   9  -5   -0.64    0.43
  -2  -9   5    0.02    0.18
  -2  -9   5    0.17    0.20
  -2   9   5    0.25    0.23
  -2   9   5   -0.24    0.35
   2   9  -5    0.10    0.38
  -1  -9   5    6.08    0.48
  -1  -9   5    6.55    0.46
  -1   9   5    5.50    0.61
   1   9  -5    5.08    0.72
  -1   9   5    5.84    0.50
   0  -9   5    2.60    0.38
   0  -9   5    2.61    0.40
   0   9   5    3.52    0.48
   0   9   5    2.23    0.40
   0   9  -5    2.09    0.55
   1  -9   5    0.17    0.20
   1  -9   5    0.18    0.21
  -1  -9  -5    1.68    0.84
   1   9   5    0.21    0.28
   2  -9   5    2.78    0.30
   2  -9   5    2.39    0.32
   2   9   5    2.55    0.33
   3  -9   5    0.28    0.11
   3   9   5    0.20    0.12
   6 -10  -5    4.64    0.27
  -5  10   5    1.97    0.29
  -4  10   5    6.32    0.49
  -3  10   5    2.93    0.41
  -3  10   5    3.45    0.56
   3  10  -5    3.60    0.58
  -2 -10   5    9.95    0.57
  -2 -10   5    9.28    0.53
  -2  10   5    9.65    0.61
  -2  10   5   10.16    0.80
   2  10  -5    8.03    0.88
  -1 -10   5    7.51    0.51
  -1 -10   5    7.41    0.52
   1  10  -5    6.74    0.82
  -1  10   5    8.05    0.53
  -1  10   5    7.29    0.70
   0 -10   5    3.41    0.38
   0 -10   5    3.21    0.41
   0  10   5    2.66    0.53
   0  10  -5    3.94    0.68
   0  10   5    2.64    0.40
   1 -10   5    2.61    0.34
   1 -10   5    2.34    0.35
   1  10   5    2.43    0.36
   2 -10   5    0.40    0.17
   2 -10   5    0.46    0.14
   2  10   5    0.42    0.13
   3 -10   5    0.31    0.11
   3  10   5    0.13    0.11
   5  11  -5    2.81    0.24
  -5  11   5    3.33    0.30
  -4  11   5   -0.05    0.17
  -3 -11   5    0.40    0.25
  -3  11   5    0.45    0.22
  -2 -11   5    0.34    0.28
  -2  11   5    0.40    0.49
  -1 -11   5   11.14    0.70
   1  11  -5    8.45    0.96
  -1  11   5   12.97    0.82
  -1  11   5   10.20    0.89
   0 -11   5   12.64    0.64
   0 -11   5   12.17    0.60
   0  11   5   12.09    0.61
   1 -11   5    0.13    0.20
   2 -11   5    1.46    0.23
   2  11   5    0.81    0.15
   3 -11   5    0.50    0.12
   3  11   5    0.59    0.13
   5 -12  -5    0.48    0.11
   5  12  -5    0.33    0.11
  -5  12   5    0.30    0.14
  -4  12   5    0.16    0.16
  -3 -12   5    7.66    0.51
  -3  12   5    7.24    0.48
  -2 -12   5   -0.08    0.19
  -2  12   5    0.02    0.20
  -1 -12   5    1.59    0.31
  -1 -12   5    1.26    0.25
  -1  12   5    1.70    0.33
   0 -12   5    0.48    0.18
   0 -12   5    0.50    0.17
   0  12   5    0.10    0.17
   1 -12   5    0.10    0.13
   1 -12   5    0.20    0.15
   1  12   5   -0.01    0.13
   2 -12   5    0.05    0.13
   2 -12   5    0.24    0.11
   2  12   5    0.02    0.10
  -5  13   5   -0.01    0.12
   5  13  -5    0.05    0.09
  -4  13   5    2.55    0.28
  -3  13   5    6.41    0.42
  -2 -13   5    5.77    0.41
  -2  13   5    5.81    0.42
  -1 -13   5    0.47    0.16
  -1  13   5    0.28    0.15
   0 -13   5   -0.21    0.14
   0 -13   5    0.28    0.13
   0  13   5    0.23    0.16
   1 -13   5    0.72    0.16
   1 -13   5    1.16    0.22
   2 -13   5    0.36    0.12
   2 -13   5    0.27    0.13
   2  13   5    0.34    0.13
   4 -14  -5    0.18    0.15
  -4  14   5    0.24    0.14
  -3  14   5    1.02    0.19
  -2 -14   5    1.01    0.21
  -2  14   5    0.91    0.18
  -1 -14   5    1.01    0.18
  -1  14   5    0.86    0.17
   0 -14   5    0.64    0.12
   0 -14   5    0.53    0.14
   0  14   5    0.73    0.17
   1 -14   5    1.20    0.21
   1 -14   5    0.84    0.13
   1  14   5    0.94    0.15
  -3  15   5    1.88    0.24
  -2  15   5    0.01    0.11
  -1 -15   5    2.95    0.28
  -1  15   5    2.36    0.25
   0 -15   5   -0.05    0.11
   0  15   5    0.04    0.12
   1  15   5    3.95    0.26
  -2  16   5    0.29    0.13
  -1 -16   5   -0.17    0.24
  -1  16   5   -0.15    0.13
  -5   0   6    7.23    0.96
  -5   0   6    7.94    0.49
  -4   0   6    2.27    0.43
  -4   0   6    3.20    0.35
  -3   0   6    4.88    0.56
  -3   0   6    3.94    0.51
  -2   0   6    9.83    0.54
  -2   0   6    9.91    0.69
  -1   0   6   31.92    1.14
   0   0   6   32.97    1.22
   1   0   6    0.92    0.27
   2   0   6    2.68    0.53
   2   0   6    1.52    0.27
   3   0   6    3.10    0.47
  -5  -1   6    1.15    0.52
  -5  -1   6    1.84    0.32
  -5   1   6    0.49    0.56
  -5   1   6    1.29    0.24
  -4  -1   6   17.74    0.75
  -4  -1   6   17.49    0.98
  -4   1   6   16.52    1.00
  -4   1   6   16.52    0.73
  -3  -1   6    0.84    0.29
  -3   1   6    0.89    0.33
  -2  -1   6    0.14    0.17
  -2  -1   6   -0.30    0.28
  -2   1   6    0.54    0.30
  -2   1   6   -0.16    0.19
  -1  -1   6    2.93    0.38
  -1   1   6    3.21    0.42
   1  -1   6    0.32    0.27
   1   1   6    0.42    0.25
   2  -1   6    0.04    0.28
   2   1   6    0.21    0.19
   3  -1   6    0.76    0.19
   3   1   6    0.76    0.16
  -5  -2   6    0.13    0.19
  -5  -2   6   -0.79    0.51
  -4  -2   6   -0.41    0.33
  -4  -2   6    0.09    0.18
  -4   2   6   -0.02    0.17
  -4   2   6    0.32    0.42
  -3  -2   6    0.05    0.29
  -3  -2   6   -0.10    0.16
  -3   2   6   -0.26    0.31
  -3   2   6    0.26    0.22
  -2  -2   6    0.33    0.29
  -2  -2   6    0.20    0.20
  -2   2   6    0.03    0.20
  -1  -2   6   12.86    0.64
  -1   2   6   12.52    0.69
   0  -2   6    5.54    0.46
   0   2   6    3.73    0.70
   1  -2   6    1.47    0.26
   1   2   6    1.58    0.27
   2  -2   6    0.52    0.29
   2   2   6    0.30    0.19
   3  -2   6    0.70    0.18
   3  -2   6    0.17    0.23
   3   2   6    0.66    0.15
  -5  -3   6    6.05    0.47
  -4  -3   6    4.39    0.41
  -4  -3   6    4.34    0.68
  -4   3   6    4.40    0.39
  -3  -3   6    8.62    0.52
  -3  -3   6    8.73    0.71
  -3   3   6    8.60    0.50
  -2  -3   6    5.15    0.59
  -2  -3   6    6.01    0.45
  -2   3   6    6.43    0.49
  -1  -3   6    1.62    0.29
  -1   3   6    1.46    0.37
   0  -3   6    0.36    0.26
   0  -3   6    0.67    0.22
   0   3   6    0.58    0.25
   1  -3   6    1.68    0.27
   1   3   6    2.08    0.35
   2  -3   6   14.15    0.68
   3  -3   6    0.25    0.16
   3   3   6    0.32    0.13
  -5  -4   6    0.25    0.22
  -4  -4   6    4.30    0.70
  -4  -4   6    5.43    0.44
  -4   4   6    4.77    0.42
   4   4  -6    4.78    0.74
   4   4  -6    6.43    3.28
  -3  -4   6   16.07    0.99
  -3  -4   6   17.45    0.76
  -3   4   6   16.88    0.75
  -2  -4   6   -0.25    0.30
  -2  -4   6    0.17    0.19
  -2   4   6    0.31    0.23
  -2   4   6   -0.13    0.38
  -1  -4   6    6.09    0.45
  -1   4   6    7.57    0.56
  -1   4   6    5.99    0.60
   0  -4   6   -0.17    0.20
   0   4  -6    0.28    0.45
   0   4  -6   -0.77    2.30
   0   4   6    0.04    0.22
   1  -4   6    2.43    0.38
   1   4   6    2.52    0.37
   2  -4   6    5.12    0.37
   2   4   6    4.42    0.35
   3  -4   6    2.79    0.26
   3   4   6    2.43    0.25
  -5  -5   6    1.33    0.34
  -4  -5   6    1.74    0.46
  -4  -5   6    1.55    0.28
   4   5  -6    1.70    0.53
   4   5  -6   -1.45    4.11
  -3  -5   6   23.26    0.94
  -3  -5   6   23.94    1.21
  -3   5   6   22.85    0.91
  -3   5   6   24.77    1.00
   3   5  -6   23.25    1.10
  -2  -5   6    8.21    0.51
  -2   5   6    6.86    0.62
  -2   5   6    8.46    0.54
  -1  -5   6    0.64    0.29
   1   5  -6    1.18    0.39
   1   5  -6    0.88    1.81
   0  -5   6    0.70    0.22
   0  -5   6    0.81    0.22
   0   5  -6    0.87    0.52
   0   5   6    0.58    0.24
   1  -5   6   20.10    0.81
   1  -5   6   20.35    0.85
   1   5   6   20.42    0.85
   2  -5   6    8.22    0.42
   2   5   6    8.31    0.44
   3  -5   6    0.52    0.15
   3   5   6    0.40    0.12
  -5  -6   6    5.28    0.51
  -4  -6   6   16.29    1.23
  -4   6   6   18.28    0.89
   4   6  -6   17.60    1.12
  -3  -6   6   -0.02    0.21
  -3  -6   6   -0.11    0.39
  -3   6   6    0.34    0.20
   3   6  -6    0.46    0.42
  -3   6   6    0.13    0.29
   3   6  -6    4.14    3.21
  -2  -6   6    2.28    0.45
  -2  -6   6    2.55    0.36
  -2   6   6    2.29    0.43
  -2   6   6    2.42    0.32
   2   6  -6    2.53    0.48
   2   6  -6    2.92    2.33
  -1  -6   6    1.35    0.25
  -1  -6   6    1.28    0.25
  -1   6   6    1.75    0.31
   1   6  -6   -0.89    2.13
   1   6  -6    2.20    0.47
   0  -6   6    1.05    0.23
   0  -6   6    1.03    0.21
   0   6  -6    1.92    0.63
   0   6   6    0.83    0.25
   1  -6   6   10.76    0.56
   1  -6   6   11.10    0.58
   1   6   6   11.57    0.60
   2  -6   6    4.48    0.33
   2   6   6    4.14    0.32
   3   6   6    1.07    0.20
  -5   7   6    1.79    0.31
  -4  -7   6   18.17    0.80
  -4  -7   6   21.13    1.83
  -4   7   6   18.96    0.83
  -3  -7   6    0.70    0.46
  -3  -7   6    1.67    0.27
   3   7  -6    1.78    0.50
  -3   7   6    1.86    0.31
  -2  -7   6   10.72    0.58
  -2  -7   6    9.39    0.57
  -2   7   6   10.61    0.60
   2   7  -6   11.41    0.89
  -2   7   6   10.28    0.77
  -1  -7   6    0.56    0.21
  -1  -7   6    0.52    0.20
   1   7  -6   -0.13    0.43
  -1   7   6    0.29    0.21
  -1   7   6    0.58    0.38
   0  -7   6    0.51    0.22
   0  -7   6    0.23    0.18
   0   7   6    0.67    0.23
   1  -7   6    2.52    0.32
   1  -7   6    2.39    0.36
   1   7   6    2.38    0.36
   2  -7   6    1.34    0.24
   2   7   6    1.65    0.25
   3  -7   6    0.12    0.13
   3   7   6    0.17    0.12
  -5   8   6    2.70    0.31
   5   8  -6    1.79    0.35
  -4  -8   6    3.40    0.45
  -4   8   6    3.50    0.44
  -3  -8   6    4.51    0.92
   3   8  -6    5.27    0.89
  -2  -8   6   12.56    0.60
  -2  -8   6   12.34    0.64
  -2   8   6   11.56    0.85
  -2   8   6   13.64    0.64
   2   8  -6   11.73    0.96
  -1  -8   6    5.37    0.45
  -1  -8   6    5.66    0.46
  -1   8   6    5.55    0.47
   1   8  -6    4.65    0.67
  -1   8   6    6.56    0.72
   0  -8   6    0.88    0.23
   0  -8   6    0.65    0.20
   0   8   6    0.47    0.21
   1  -8   6   -0.23    0.20
   1  -8   6   -0.01    0.17
   2  -8   6   -0.07    0.11
   2  -8   6    0.29    0.33
   2   8   6    0.09    0.12
   5   9  -6    1.20    0.20
  -4  -9   6    0.35    0.21
  -4   9   6    0.11    0.20
  -3  -9   6    0.44    0.22
  -3   9   6    0.94    0.24
  -2  -9   6    6.99    0.51
  -2   9   6    7.10    0.85
   2   9  -6    6.81    1.01
  -2   9   6    6.71    0.48
  -1  -9   6   17.30    0.75
  -1  -9   6   17.48    0.78
   1   9  -6   20.92    1.81
  -1   9   6   17.56    0.76
  -1   9   6   14.73    1.18
   0  -9   6    0.08    0.18
   0  -9   6    0.06    0.17
   0   9   6    0.17    0.17
   1  -9   6    1.52    0.27
   1  -9   6    1.51    0.24
   1   9   6    0.98    0.19
   2  -9   6    0.15    0.24
   2  -9   6    0.42    0.12
   2   9   6    0.71    0.14
   5  10  -6    1.50    0.27
  -5  10   6    1.15    0.22
  -4 -10   6   15.98    0.68
  -4  10   6   15.14    0.65
  -3  10   6    1.12    0.26
  -2  10   6    0.96    0.22
  -1 -10   6    2.17    0.34
  -1 -10   6    2.60    0.34
  -1  10   6    2.79    0.38
   0 -10   6    2.71    0.29
   0  10   6    3.38    0.49
   1 -10   6    1.31    0.22
   1 -10   6    1.10    0.19
   1  10   6    0.96    0.19
   2 -10   6    0.07    0.11
   2  10   6    0.21    0.11
   5  11  -6    3.82    0.27
  -5  11   6    3.16    0.32
  -4  11   6    0.20    0.16
  -3 -11   6    0.66    0.19
  -3  11   6    0.78    0.19
  -2 -11   6    8.04    0.46
  -2  11   6    7.92    0.52
  -1 -11   6    3.14    0.33
  -1 -11   6    3.54    0.30
  -1  11   6    4.32    0.34
   0 -11   6   11.49    0.54
   0 -11   6   11.66    0.52
   0  11   6   11.34    0.53
   1 -11   6    0.29    0.13
   1 -11   6    0.43    0.14
   1  11   6    0.34    0.12
  -4  12   6    2.36    0.27
  -3 -12   6    0.38    0.18
  -3  12   6    0.03    0.14
  -2 -12   6    0.01    0.15
  -2  12   6    0.17    0.15
  -1 -12   6    0.20    0.13
  -1  12   6    0.19    0.14
   0 -12   6    0.26    0.15
   0 -12   6    0.26    0.13
   0  12   6    0.23    0.13
   1 -12   6    1.74    0.22
   1  12   6    1.92    0.22
   4 -13  -6    2.46    0.32
  -4  13   6    1.92    0.24
  -3  13   6   -0.01    0.13
  -2 -13   6    0.42    0.17
  -2  13   6    0.21    0.14
  -1 -13   6    1.28    0.22
  -1  13   6    1.92    0.26
   0 -13   6    0.35    0.11
   0 -13   6    0.45    0.12
   0  13   6    0.34    0.13
   1 -13   6    2.41    0.19
   1 -13   6    1.99    0.21
   1  13   6    2.32    0.21
  -3  14   6    0.70    0.21
  -2 -14   6    0.09    0.16
  -2  14   6    0.17    0.14
  -1 -14   6    0.04    0.12
  -1  14   6    0.49    0.14
   0 -14   6    0.14    0.10
   0  14   6    0.07    0.12
  -4   0   7    0.04    0.16
  -3   0   7    0.07    0.16
  -2   0   7    0.06    0.18
  -1   0   7   -0.01    0.21
  -5  -1   7    0.63    0.17
  -5   1   7    0.29    0.19
  -4  -1   7    5.28    0.39
  -4   1   7    5.05    0.42
  -3  -1   7   13.14    0.64
  -3  -1   7   15.79    1.09
  -3   1   7   12.55    0.63
  -2  -1   7    1.58    0.26
  -2   1   7    1.31    0.23
  -1  -1   7    1.39    0.25
  -1   1   7    1.68    0.27
  -5  -2   7    1.51    0.27
  -4  -2   7    0.64    0.21
  -4   2   7    0.76    0.19
  -3  -2   7    0.37    0.19
  -3  -2   7   -0.13    0.50
  -3   2   7    0.55    0.19
  -2  -2   7    4.00    0.38
  -2   2   7    4.43    0.41
  -1  -2   7    4.55    0.41
  -1   2   7    5.85    0.49
   0  -2   7    3.22    0.47
   1   2   7    1.35    0.26
   2   2   7    5.09    0.36
  -5  -3   7    4.65    0.36
  -4  -3   7   -0.14    0.16
  -4   3   7   -0.07    0.16
  -3  -3   7    2.18    0.52
  -3  -3   7    1.58    0.26
  -3   3   7    1.54    0.33
  -2  -3   7    3.29    0.38
  -2   3   7    3.35    0.37
  -1  -3   7   12.55    0.62
   0  -3   7    6.53    0.47
   0   3   7    6.01    0.53
   1   3   7    2.34    0.38
   2   3   7    0.35    0.19
  -5  -4   7   -0.20    0.17
  -4  -4   7    6.98    0.44
  -4   4   7    6.82    0.45
  -3  -4   7    3.19    0.57
  -3  -4   7    3.00    0.36
   3   4  -7    4.80    0.62
   3   4  -7    1.37    4.27
  -3   4   7    3.23    0.46
  -2  -4   7   15.64    0.71
  -2   4   7   15.68    0.72
   2   4  -7   16.52    1.09
   2   4  -7   16.93    3.91
  -1  -4   7    0.11    0.25
   1   4  -7    1.04    2.70
   1   4  -7    0.40    0.61
  -1   4   7   -0.16    0.29
   0  -4   7    3.62    0.40
   0   4   7    3.55    0.42
   1  -4   7    9.60    0.50
   1   4   7    9.95    0.49
   2  -4   7    0.19    0.21
   2   4   7    0.22    0.16
  -5  -5   7    7.11    0.44
  -4  -5   7    6.81    0.44
   3   5  -7    9.42    5.06
  -2  -5   7   13.46    0.85
   2   5  -7   17.73    3.75
   2   5  -7   15.29    1.10
  -2   5   7   14.17    0.69
  -1  -5   7    3.86    0.37
  -1   5   7    3.16    0.46
   0  -5   7    2.08    0.35
   0  -5   7    2.13    0.41
   1  -5   7    0.08    0.17
   1   5   7   -0.04    0.16
   2  -5   7    0.21    0.19
  -5  -6   7    0.84    0.21
  -4  -6   7   16.84    0.75
  -3  -6   7    7.66    0.48
  -2  -6   7    1.85    0.35
  -2   6   7    1.81    0.30
  -1  -6   7    0.80    0.21
  -1  -6   7    1.03    0.26
  -1   6   7    0.59    0.23
   0  -6   7    0.25    0.18
   0   6   7   -0.23    0.17
   1  -6   7   -0.21    0.22
   1  -6   7   -0.09    0.15
   1   6   7    0.25    0.15
   2   6   7   -0.12    0.14
  -4  -7   7    0.05    0.16
  -3  -7   7    6.80    0.43
  -3   7   7    5.79    0.51
  -2  -7   7   13.97    0.66
  -2   7   7   13.86    0.67
  -1  -7   7    5.06    0.41
  -1  -7   7    5.03    0.41
   0  -7   7    0.95    0.18
   0  -7   7    0.69    0.18
   0   7   7    0.72    0.18
   1  -7   7    0.80    0.16
   1  -7   7    1.38    0.24
   1   7   7    0.83    0.15
   2   7   7    0.28    0.13
  -4  -8   7    1.89    0.30
  -4   8   7    2.15    0.36
  -3  -8   7   -0.16    0.13
  -3   8   7    0.01    0.21
  -2  -8   7    0.23    0.16
  -2   8   7    0.22    0.20
  -1  -8   7   16.33    0.67
  -1  -8   7   17.05    0.74
  -1   8   7   16.31    0.67
   0  -8   7    0.38    0.16
   0  -8   7    0.58    0.15
   0   8   7    0.20    0.14
   1  -8   7    0.69    0.14
   1  -8   7    1.15    0.21
   1   8   7    0.65    0.14
  -4  -9   7    0.46    0.19
  -4   9   7    0.38    0.23
  -3  -9   7    4.18    0.32
  -3   9   7    4.04    0.38
  -2  -9   7    3.69    0.32
  -2   9   7    3.52    0.34
  -1  -9   7    1.56    0.28
  -1  -9   7    1.78    0.25
  -1   9   7    1.43    0.28
   0  -9   7    0.03    0.14
   0  -9   7   -0.12    0.14
   0   9   7   -0.06    0.14
   1  -9   7   -0.17    0.13
  -4 -10   7    0.21    0.20
  -4  10   7    0.09    0.21
  -3 -10   7    0.14    0.14
  -3  10   7    0.06    0.17
  -2 -10   7    2.64    0.27
  -2  10   7    2.02    0.30
  -1 -10   7    1.80    0.26
  -1  10   7    2.21    0.25
   0 -10   7    0.77    0.14
   0 -10   7    0.41    0.13
   0  10   7    0.71    0.15
   1 -10   7    0.25    0.13
   1  10   7    0.06    0.12
  -4  11   7    0.49    0.20
  -3 -11   7    1.45    0.19
  -3  11   7    1.71    0.27
  -2 -11   7    0.20    0.13
  -2  11   7    0.09    0.15
  -1 -11   7    0.56    0.15
  -1  11   7    0.34    0.13
   0 -11   7    0.30    0.12
   0  11   7   -0.02    0.20
  -3 -12   7    0.00    0.16
  -2 -12   7    0.16    0.12
  -2  12   7    0.30    0.14
  -1 -12   7    0.95    0.14
  -2 -13   7   -0.12    0.12
  -2  13   7    0.01    0.12
  -5   0   8    4.64    0.30
  -4   0   8    5.69    0.37
  -3   0   8   11.70    0.70
  -1   0   8    3.67    0.39
  -5  -1   8    2.85    0.24
  -4  -1   8    0.26    0.15
  -4   1   8    0.05    0.12
  -3  -1   8    4.25    0.44
  -2   1   8    0.51    0.17
  -1  -1   8    2.32    0.35
  -5  -2   8    0.36    0.13
  -4  -2   8    8.48    0.43
  -4   2   8    8.79    0.43
  -3   2   8    2.00    0.28
  -2   2   8    0.74    0.19
  -1  -2   8    2.28    0.32
  -5  -3   8    0.45    0.14
  -4  -3   8   10.46    0.47
  -4   3   8   10.67    0.49
  -3  -3   8    0.18    0.14
  -3   3   8    0.05    0.14
  -2  -3   8    1.16    0.20
  -1  -3   8    0.13    0.16
  -5  -4   8    2.38    0.25
  -4  -4   8    2.58    0.24
  -3  -4   8    0.75    0.16
  -3   4   8    0.56    0.18
  -2  -4   8   -0.06    0.14
  -1  -4   8    1.78    0.28
  -4  -5   8    0.62    0.13
  -3  -5   8    2.01    0.27
  -2  -5   8    0.45    0.15
  -1  -5   8    0.45    0.15
   0  -5   8    2.94    0.40
  -5  -6   8    3.44    0.30
  -4  -6   8    2.92    0.25
  -3  -6   8    0.18    0.14
  -2  -6   8    0.27    0.14
  -1  -6   8    6.93    0.38
   0  -6   8    0.78    0.21
  -4  -7   8    1.04    0.16
  -3  -7   8    0.13    0.13
  -2  -7   8    0.31    0.14
  -1  -7   8    2.43    0.25
   0  -7   8    1.75    0.21
  -4  -8   8    0.18    0.20
  -3  -8   8    1.40    0.21
  -2  -8   8    1.27    0.19
  -1   8   8    0.32    0.38
  -4  -9   8    0.25    0.17
  -3  -9   8    2.41    0.22
  -2  -9   8    2.67    0.23
  -1  -9   8    0.21    0.17
  -3 -10   8    0.95    0.20
  -2 -10   8    0.06    0.10
  -4   0   9    0.01    0.11
  -3   0   9    0.13    0.13
  -4  -1   9    6.16    0.31
  -3  -1   9    2.00    0.23
  -3   1   9    2.67    0.25
  -2  -1   9    0.19    0.24
  -4  -2   9    0.29    0.12
  -3  -2   9    2.21    0.22
  -4  -3   9    3.44    0.24
  -3  -3   9    0.24    0.12
  -4  -4   9    0.23    0.11
  -3  -4   9    0.61    0.13
  -2  -4   9   -0.19    0.12
  -4  -5   9   -0.01    0.11
  -2  -5   9   -0.01    0.11
  -3  -6   9    0.95    0.13
  -2  -6   9    0.01    0.11
   0   0   0    0.00    0.00
;
_shelx_hkl_checksum              93002
loop_
_space_group_symop_operation_xyz
'x, y, z'
'-x, y+1/2, -z+1/2'
'-x, -y, -z'
'x, -y-1/2, z-1/2'
loop_
_atom_site_label
_atom_site_type_symbol
_atom_site_fract_x
_atom_site_fract_y
_atom_site_fract_z
_atom_site_U_iso_or_equiv
_atom_site_adp_type
_atom_site_occupancy
_atom_site_site_symmetry_order
_atom_site_calc_flag
_atom_site_refinement_flags_posn
_atom_site_refinement_flags_adp
_atom_site_refinement_flags_occupancy
_atom_site_disorder_assembly
_atom_site_disorder_group
O1 O 0.1073(5) 0.39095(19) 0.3159(4) 0.0842(9) Uani 1 1 d . . . . .
O2 O -0.1824(4) 0.42407(17) 0.4119(4) 0.0732(8) Uani 1 1 d . . . . .
N3 N 0.0059(4) 0.38891(17) 0.4278(4) 0.0530(7) Uani 1 1 d . . . . .
N4 N 0.1117(4) 0.34093(16) 0.5849(3) 0.0444(6) Uani 1 1 d . . . . .
H4 H 0.0407 0.3322 0.6626 0.053 Uiso 1 1 calc R U . . .
C5 C 0.3340(4) 0.30638(16) 0.6185(3) 0.0359(6) Uani 1 1 d . . . . .
N6 N 0.3661(4) 0.23324(15) 0.5486(4) 0.0490(6) Uani 1 1 d . . . . .
O7 O 0.6077(3) 0.22196(12) 0.6102(3) 0.0533(6) Uani 1 1 d . . . . .
N8 N 0.7288(4) 0.29041(14) 0.7239(3) 0.0440(6) Uani 1 1 d . . . . .
C9 C 0.5608(4) 0.34281(16) 0.7287(3) 0.0333(6) Uani 1 1 d . . . . .
N10 N 0.5916(3) 0.41976(13) 0.8241(3) 0.0367(5) Uani 1 1 d . . . . .
H10 H 0.4655 0.4451 0.8267 0.044 Uiso 1 1 calc R U . . .
C11 C 0.8053(4) 0.46003(14) 0.9159(3) 0.0296(5) Uani 1 1 d . . . . .
N12 N 0.7996(3) 0.52546(13) 1.0283(3) 0.0324(5) Uani 1 1 d . . . . .
N13 N 1.0007(3) 0.56715(13) 1.1152(3) 0.0333(5) Uani 1 1 d . . . . .
loop_
_atom_site_aniso_label
_atom_site_aniso_U_11
_atom_site_aniso_U_22
_atom_site_aniso_U_33
_atom_site_aniso_U_23
_atom_site_aniso_U_13
_atom_site_aniso_U_12
O1 0.094(2) 0.102(2) 0.0729(18) 0.0336(15) 0.0496(16) 0.0283(16)
O2 0.0487(13) 0.0811(17) 0.0832(18) 0.0054(13) 0.0162(12) 0.0209(11)
N3 0.0496(14) 0.0541(15) 0.0541(16) -0.0001(11) 0.0176(12) 0.0017(12)
N4 0.0324(11) 0.0645(15) 0.0382(12) -0.0025(10) 0.0149(9) -0.0002(10)
C5 0.0337(13) 0.0411(13) 0.0368(13) -0.0054(10) 0.0175(11) -0.0046(10)
N6 0.0442(13) 0.0482(14) 0.0568(15) -0.0157(11) 0.0210(11) -0.0085(10)
O7 0.0481(12) 0.0430(11) 0.0706(14) -0.0210(9) 0.0235(10) -0.0003(9)
N8 0.0369(12) 0.0440(13) 0.0513(14) -0.0133(10) 0.0162(10) 0.0010(9)
C9 0.0315(12) 0.0369(13) 0.0358(13) -0.0029(9) 0.0172(10) -0.0015(9)
N10 0.0240(10) 0.0381(11) 0.0494(13) -0.0136(9) 0.0150(9) 0.0001(8)
C11 0.0248(11) 0.0327(12) 0.0333(12) -0.0014(9) 0.0130(9) 0.0017(8)
N12 0.0252(9) 0.0360(11) 0.0378(11) -0.0053(8) 0.0134(8) -0.0001(8)
N13 0.0277(10) 0.0364(11) 0.0376(11) -0.0067(8) 0.0140(8) -0.0004(8)
loop_
_atom_type_symbol
_atom_type_description
_atom_type_scat_dispersion_real
_atom_type_scat_dispersion_imag
_atom_type_scat_source
C C 0.0181 0.0091 'International Tables Vol C Tables 4.2.6.8 and 6.1.1.4'
H H 0.0000 0.0000 'International Tables Vol C Tables 4.2.6.8 and 6.1.1.4'
N N 0.0311 0.0180 'International Tables Vol C Tables 4.2.6.8 and 6.1.1.4'
O O 0.0492 0.0322 'International Tables Vol C Tables 4.2.6.8 and 6.1.1.4'
loop_
_geom_angle_atom_site_label_1
_geom_angle_atom_site_label_2
_geom_angle_atom_site_label_3
_geom_angle
_geom_angle_site_symmetry_1
_geom_angle_site_symmetry_3
_geom_angle_publ_flag
O1 N3 O2 127.1(3) . . ?
O1 N3 N4 116.2(2) . . ?
O2 N3 N4 116.7(3) . . ?
N3 N4 C5 119.2(2) . . ?
N3 N4 H4 120.4 . . ?
C5 N4 H4 120.4 . . ?
N6 C5 N4 122.8(2) . . ?
N6 C5 C9 109.3(2) . . ?
N4 C5 C9 127.8(2) . . ?
C5 N6 O7 105.6(2) . . ?
N6 O7 N8 111.66(18) . . ?
C9 N8 O7 104.5(2) . . ?
N8 C9 N10 126.5(2) . . ?
N8 C9 C5 108.9(2) . . ?
N10 C9 C5 124.6(2) . . ?
C9 N10 C11 125.8(2) . . ?
C9 N10 H10 117.1 . . ?
C11 N10 H10 117.1 . . ?
N12 C11 N13 125.4(2) . 3_767 ?
N12 C11 N10 115.6(2) . . ?
N13 C11 N10 119.0(2) 3_767 . ?
N13 N12 C11 117.33(19) . . ?
N12 N13 C11 117.31(19) . 3_767 ?
loop_
_geom_bond_atom_site_label_1
_geom_bond_atom_site_label_2
_geom_bond_distance
_geom_bond_site_symmetry_2
_geom_bond_publ_flag
O1 N3 1.220(3) . ?
O2 N3 1.223(3) . ?
N3 N4 1.356(3) . ?
N4 C5 1.376(3) . ?
N4 H4 0.8600 . ?
C5 N6 1.292(3) . ?
C5 C9 1.433(3) . ?
N6 O7 1.368(3) . ?
O7 N8 1.393(3) . ?
N8 C9 1.306(3) . ?
C9 N10 1.369(3) . ?
N10 C11 1.370(3) . ?
N10 H10 0.8600 . ?
C11 N12 1.333(3) . ?
C11 N13 1.342(3) 3_767 ?
N12 N13 1.318(3) . ?
N13 C11 1.342(3) 3_767 ?
loop_
_geom_hbond_atom_site_label_D
_geom_hbond_atom_site_label_H
_geom_hbond_atom_site_label_A
_geom_hbond_distance_DH
_geom_hbond_distance_HA
_geom_hbond_distance_DA
_geom_hbond_angle_DHA
_geom_hbond_site_symmetry_A
N4 H4 N8 0.86 2.19 2.974(3) 151.0 1_455
N4 H4 N13 0.86 2.38 2.976(3) 126.8 3_667
N10 H10 N12 0.86 2.30 3.079(3) 151.1 3_667
loop_
_geom_torsion_atom_site_label_1
_geom_torsion_atom_site_label_2
_geom_torsion_atom_site_label_3
_geom_torsion_atom_site_label_4
_geom_torsion
_geom_torsion_site_symmetry_1
_geom_torsion_site_symmetry_2
_geom_torsion_site_symmetry_3
_geom_torsion_site_symmetry_4
_geom_torsion_publ_flag
O1 N3 N4 C5 7.1(4) . . . . ?
O2 N3 N4 C5 -174.2(2) . . . . ?
N3 N4 C5 N6 -85.0(3) . . . . ?
N3 N4 C5 C9 94.0(3) . . . . ?
N4 C5 N6 O7 178.9(2) . . . . ?
C9 C5 N6 O7 -0.3(3) . . . . ?
C5 N6 O7 N8 0.6(3) . . . . ?
N6 O7 N8 C9 -0.6(3) . . . . ?
O7 N8 C9 N10 179.7(2) . . . . ?
O7 N8 C9 C5 0.4(3) . . . . ?
N6 C5 C9 N8 -0.1(3) . . . . ?
N4 C5 C9 N8 -179.2(3) . . . . ?
N6 C5 C9 N10 -179.4(2) . . . . ?
N4 C5 C9 N10 1.5(4) . . . . ?
N8 C9 N10 C11 7.3(4) . . . . ?
C5 C9 N10 C11 -173.6(2) . . . . ?
C9 N10 C11 N12 -167.9(2) . . . . ?
C9 N10 C11 N13 13.3(4) . . . 3_767 ?
N13 C11 N12 N13 0.4(4) 3_767 . . . ?
N10 C11 N12 N13 -178.3(2) . . . . ?
C11 N12 N13 C11 -0.3(4) . . . 3_767 ?
