#------------------------------------------------------------------------------
#$Date: 2020-10-04 05:42:14 +0300 (Sun, 04 Oct 2020) $
#$Revision: 256985 $
#$URL: file:///home/coder/svn-repositories/cod/cif/4/51/79/4517971.cif $
#------------------------------------------------------------------------------
#
# This file is available in the Crystallography Open Database (COD),
# http://www.crystallography.net/
#
# All data on this site have been placed in the public domain by the
# contributors.
#
data_4517971
loop_
_publ_author_name
'Werner, Philipp'
'W\"achter, Tobias'
'Asyuda, Andika'
'Wiesner, Adrian'
'Kind, Martin'
'Bolte, Michael'
'Weinhardt, Lothar'
'Terfort, Andreas'
'Zharnikov, Michael'
_publ_section_title
;
 Electron Transfer Dynamics and Structural Effects in Benzonitrile
 Monolayers with Tuned Dipole Moments by Differently Positioned Fluorine
 Atoms.
;
_journal_issue                   35
_journal_name_full               'ACS applied materials &amp; interfaces'
_journal_page_first              39859
_journal_page_last               39869
_journal_paper_doi               10.1021/acsami.0c10513
_journal_volume                  12
_journal_year                    2020
_chemical_formula_moiety         'C7 H3 F2 N S'
_chemical_formula_sum            'C7 H3 F2 N S'
_chemical_formula_weight         171.16
_space_group_crystal_system      monoclinic
_space_group_IT_number           15
_space_group_name_Hall           '-C 2yc'
_space_group_name_H-M_alt        'C 1 2/c 1'
_atom_sites_solution_hydrogens   mixed
_audit_creation_method           SHELXL-2014/6
_cell_angle_alpha                90
_cell_angle_beta                 115.779(13)
_cell_angle_gamma                90
_cell_formula_units_Z            4
_cell_length_a                   7.3939(14)
_cell_length_b                   14.805(3)
_cell_length_c                   6.9469(12)
_cell_measurement_reflns_used    3203
_cell_measurement_temperature    173(2)
_cell_measurement_theta_max      27.75
_cell_measurement_theta_min      3.36
_cell_volume                     684.8(2)
_computing_cell_refinement       'X-Area (Stoe & Cie, 2001)'
_computing_data_collection       'X-Area (Stoe & Cie, 2001)'
_computing_data_reduction        'X-Area (Stoe & Cie, 2001)'
_computing_molecular_graphics    'XP in SHELXTL-Plus (Sheldrick, 2008)'
_computing_publication_material  SHELXL
_computing_structure_refinement  'SHELXL-2014/6 (Sheldrick, 2014)'
_computing_structure_solution    'SHELXS (Sheldrick, 2008)'
_diffrn_ambient_temperature      173(2)
_diffrn_measured_fraction_theta_full 0.995
_diffrn_measured_fraction_theta_max 0.995
_diffrn_measurement_device_type  'STOE IPDS II two-circle-diffractometer'
_diffrn_measurement_method       \w
_diffrn_radiation_type           MoK\a
_diffrn_radiation_wavelength     0.71073
_diffrn_reflns_av_R_equivalents  0.0329
_diffrn_reflns_av_unetI/netI     0.0191
_diffrn_reflns_Laue_measured_fraction_full 0.995
_diffrn_reflns_Laue_measured_fraction_max 0.995
_diffrn_reflns_limit_h_max       8
_diffrn_reflns_limit_h_min       -8
_diffrn_reflns_limit_k_max       18
_diffrn_reflns_limit_k_min       -18
_diffrn_reflns_limit_l_max       8
_diffrn_reflns_limit_l_min       -7
_diffrn_reflns_number            3203
_diffrn_reflns_point_group_measured_fraction_full 0.995
_diffrn_reflns_point_group_measured_fraction_max 0.995
_diffrn_reflns_theta_full        25.000
_diffrn_reflns_theta_max         25.662
_diffrn_reflns_theta_min         3.633
_diffrn_source                   'Genix 3D I\mS microfocus X-ray source'
_exptl_absorpt_coefficient_mu    0.430
_exptl_absorpt_correction_T_max  1.000
_exptl_absorpt_correction_T_min  0.503
_exptl_absorpt_correction_type   multi-scan
_exptl_absorpt_process_details   'X-Area (Stoe & Cie, 2001)'
_exptl_crystal_colour            colourless
_exptl_crystal_density_diffrn    1.660
_exptl_crystal_description       block
_exptl_crystal_F_000             344
_exptl_crystal_size_max          0.210
_exptl_crystal_size_mid          0.170
_exptl_crystal_size_min          0.120
_refine_diff_density_max         0.212
_refine_diff_density_min         -0.472
_refine_diff_density_rms         0.061
_refine_ls_extinction_method     none
_refine_ls_goodness_of_fit_ref   1.179
_refine_ls_hydrogen_treatment    constr
_refine_ls_matrix_type           full
_refine_ls_number_parameters     53
_refine_ls_number_reflns         651
_refine_ls_number_restraints     0
_refine_ls_restrained_S_all      1.179
_refine_ls_R_factor_all          0.0439
_refine_ls_R_factor_gt           0.0399
_refine_ls_shift/su_max          0.000
_refine_ls_shift/su_mean         0.000
_refine_ls_structure_factor_coef Fsqd
_refine_ls_weighting_details
'w=1/[\s^2^(Fo^2^)+(0.0590P)^2^+0.7025P] where P=(Fo^2^+2Fc^2^)/3'
_refine_ls_weighting_scheme      calc
_refine_ls_wR_factor_gt          0.1106
_refine_ls_wR_factor_ref         0.1130
_reflns_Friedel_coverage         0.000
_reflns_number_gt                598
_reflns_number_total             651
_reflns_threshold_expression     'I > 2\s(I)'
_cod_data_source_file            am0c10513_si_005.cif
_cod_data_source_block           te76
_cod_depositor_comments
;Adding full bibliography for 4517969--4517972.cif.

 Adding full bibliography for 4517969--4517972.cif.
;
_cod_original_sg_symbol_H-M      'C 2/c'
_cod_database_code               4517971
_shelx_space_group_comment
; 
The symmetry employed for this shelxl refinement is uniquely defined 
by the following loop, which should always be used as a source of 
symmetry information in preference to the above space-group names. 
They are only intended as comments. 
;
_shelx_estimated_absorpt_t_min   0.915
_shelx_estimated_absorpt_t_max   0.950
_shelxl_version_number           2014/6
_shelx_res_file
; 
TITL te76 in C2/c 
CELL 0.71073   7.3939  14.805    6.9469  90.000 115.779  90.000 
ZERR    4.00   0.0014   0.003    0.0012   0.000   0.013   0.000 
LATT  7 
SYMM -X, Y, 0.5-Z 
SFAC C  H  F N S 
UNIT 28 12 8 4 4 
TEMP-100 
REM colourless block 
SIZE.21 .17 .12 
SHEL999. .82 
L.S. 8 
BOND           $H 
CONF 
ACTA50 
HTAB 
FMAP 2 
PLAN 10 
EQIV $1 -x+1/2, y+1/2, -z+1/2 
HTAB S1 F1_$1 
EQIV $2 1/2+x,  1/2+y, +z 
HTAB S1 N1_$2 
WGHT    0.059000    0.702500 
FVAR       1.00153 
S1    5    0.000000    0.932233    0.250000    10.50000    0.03868    0.02649 = 
         0.03928    0.00000    0.01599    0.00000 
AFIX   3 
H1A   2    0.120800    0.937980    0.197500    10.25000   -1.50000 
H1B   2    0.103200    0.968181    0.369600    10.25000   -1.50000 
AFIX   0 
F1    3    0.290922    0.628024    0.194781    11.00000    0.02825    0.03668 = 
         0.04368   -0.00050    0.02148    0.00548 
N1    4    0.000000    0.449063    0.250000    10.50000    0.03488    0.03085 = 
         0.03692    0.00000    0.01524    0.00000 
C1    1    0.000000    0.813988    0.250000    10.50000    0.02340    0.03340 = 
         0.01933    0.00000    0.00463    0.00000 
C2    1    0.149650    0.766458    0.219306    11.00000    0.02327    0.03271 = 
         0.02525    0.00052    0.01115   -0.00241 
AFIX  43 
H2    2    0.251429    0.797889    0.197870    11.00000   -1.20000 
AFIX   0 
C3    1    0.146368    0.674151    0.220800    11.00000    0.02138    0.03127 = 
         0.02255   -0.00099    0.00994    0.00312 
C4    1    0.000000    0.623784    0.250000    10.50000    0.02369    0.02864 = 
         0.02139    0.00000    0.00799    0.00000 
C5    1    0.000000    0.527261    0.250000    10.50000    0.02423    0.03385 = 
         0.02580    0.00000    0.01137    0.00000 
  
HKLF 4 
  
REM  te76 in C2/c 
REM R1 =  0.0399 for     598 Fo > 4sig(Fo)  and  0.0439 for all     651 data 
REM     53 parameters refined using      0 restraints 
  
END 
  
WGHT      0.0593      0.6950 
  
REM Instructions for potential hydrogen bonds 
HTAB S1 N1_$2 
HTAB S1 F1_$1 
  
REM Highest difference peak  0.212,  deepest hole -0.472,  1-sigma level  0.061 
Q1    1  -0.0977  0.6419  0.1977  11.00000  0.05    0.21 
Q2    1   0.0430  0.6499  0.1878  11.00000  0.05    0.21 
Q3    1  -0.0662  0.4931  0.1621  11.00000  0.05    0.18 
Q4    1   0.3988  0.7262  0.1171  11.00000  0.05    0.16 
Q5    1   0.0980  0.9942  0.1695  11.00000  0.05    0.15 
Q6    1   0.4134  0.6637  0.0826  11.00000  0.05    0.15 
Q7    1   0.0808  0.7344  0.1378  11.00000  0.05    0.15 
Q8    1  -0.0891  0.7936  0.2206  11.00000  0.05    0.15 
Q9    1  -0.0906  0.8982  0.1294  11.00000  0.05    0.14 
Q10   1   0.3745  0.5906  0.0386  11.00000  0.05    0.14 
;
_shelx_res_checksum              71987
_shelx_hkl_file
; 
  -5   3   8   43.89    6.35   0 
  -4   8   8  157.98    7.14   0 
  -3  -3   3 5112.82   25.56   0 
  -3   9   6  511.48    7.99   0 
   0  12   3  870.24    9.66   0 
   1 -15   1   10.32    6.99   0 
   1  15   4   38.13    7.20   0 
   2 -10  -1 1270.27   10.09   0 
   3 -13  -1  762.44    9.07   0 
   3  -7  -2 1893.40   11.89   0 
   3  15   2  190.88   10.20   0 
   7 -11  -3   17.81    6.35   0 
   9  -5  -4   12.01    5.90   0 
   9  -3  -4    4.44    6.54   0 
  -4   6   6  116.29    6.12   0 
  -3  -5   3  290.38   12.43   0 
  -3   5   4  177.34    6.28   0 
  -2  12   6  207.35    7.00   0 
  -1  13   5    7.50    6.45   0 
   0  10   2  571.33    8.67   0 
   1 -17   2   30.69    9.00   0 
   1 -11   0    1.33    6.66   0 
   2 -14   0   94.60    6.82   0 
   4 -10  -2   28.90    6.05   0 
   5  -5  -3  602.57    7.48   0 
   5  -3  -3   -2.53    5.57   0 
   5  -1  -3  235.14    6.85   0 
   6 -14  -2    3.11    5.50   0 
   6  -8  -3  353.34    7.15   0 
   9   5  -3    1.07    8.49   0 
  -5  -9   7   -4.25   10.98   0 
  -5   5   8    8.01    6.45   0 
  -4   8   7   35.79    6.17   0 
  -3  -1   3  355.69    9.02   0 
  -3  11   7    3.49    6.45   0 
   0  -4   0 1571.89   20.34   0 
   0  14   4    5.54    6.41   0 
   2  12   1  583.88   10.83   0 
   2  14   2   24.72    8.13   0 
   3  -5  -2  518.51    8.11   0 
   3  -1  -2  460.46    9.44   0 
   4 -14  -1   95.84    7.04   0 
   4   4  -2   24.46    8.62   0 
   6   2  -3  120.80    7.39   0 
   7  -9  -3   15.41    6.13   0 
   8 -10  -3   91.13    6.96   0 
  -5  -3   6   34.60    6.94   0 
  -5  -1   6    3.15    7.00   0 
  -4   4   5  147.85    6.61   0 
  -2  10   4   58.84    6.85   0 
   3  -3  -2    9.97    6.93   0 
   5 -15  -1    5.54    6.70   0 
   5 -11  -2   14.61    5.95   0 
   6  -6  -3 1145.37    9.46   0 
   8   4  -3   48.32    7.77   0 
  -5  -5   6    9.77    7.70   0 
  -3   1   3  344.46    8.74   0 
  -3   9   5   19.58    5.79   0 
  -3  11   6  356.79    7.58   0 
  -2  12   5   16.73    6.05   0 
   1  13   2  821.48   10.74   0 
   2 -16   1   27.67    7.11   0 
   2  -8  -1   17.35    5.95   0 
   2  16   3    1.44    9.22   0 
   6 -12  -2    1.94    6.14   0 
   6   0  -3    9.21    6.69   0 
   8  -8  -3    3.50    6.60   0 
  -6  -2   8    2.95    7.65   0 
  -5   1   6    1.77    6.25   0 
  -5   5   7    5.00    6.11   0 
  -5   7   8  303.52    8.17   0 
  -4   8   6  620.47    8.51   0 
  -3   7   4  948.70    9.33   0 
  -1 -11   2   11.75    9.52   0 
  -1  -5   1 1309.52   27.47   0 
  -1  11   3  350.52    7.70   0 
  -1  13   4   82.38    7.07   0 
   0 -14   2   39.44    8.55   0 
   3 -17   1  543.07    9.58   0 
   3 -11  -1   99.04    6.15   0 
   4  -8  -2  790.44    8.16   0 
   6  -4  -3  536.80    8.00   0 
   6  -2  -3  130.89    6.34   0 
   7  11  -1   18.71   14.74   0 
   8   8  -2  390.32   12.82   0 
  -6  -4   8   12.55    7.74   0 
  -5  -7   6  555.97   13.14   0 
  -5   3   6   35.77    6.79   0 
  -4  -2   4  962.28   11.53   0 
  -4   6   5    7.64    6.57   0 
  -4  10   7   39.70    6.79   0 
  -2   8   3   23.90    5.88   0 
  -2  14   6  104.69    7.18   0 
   7  -5  -3   15.23    5.84   0 
   7   1  -3  826.89    9.83   0 
   8   2  -3  441.44    9.09   0 
  -6  -6   8    6.51    9.69   0 
  -6   2   8    8.52    7.43   0 
  -4  -4   4  262.93    9.71   0 
  -4   0   4  642.33    9.37   0 
   0 -16   3    9.55    8.91   0 
   0   8   1 1660.65   13.87   0 
   1 -13   1    3.91    7.11   0 
   1  -9   0   12.61    6.33   0 
   2 -12   0   86.86    6.55   0 
   4  -6  -2  387.31    7.51   0 
   5  -9  -2    6.64    5.92   0 
   6 -14  -1   11.72    6.31   0 
   7 -11  -2    4.66    6.56   0 
   8  -4  -3   50.60    6.68   0 
   9  -5  -3    3.96    6.76   0 
   9  -3  -3  259.64    8.33   0 
   9   1  -3   10.46    6.89   0 
  -5   7   7    5.09    6.24   0 
  -3  11   5   30.35    6.79   0 
  -2   4   2   -1.04    7.09   0 
  -1   3   1   69.28   10.06   0 
   0 -10   1 1772.23   15.46   0 
   0  14   3   11.93    6.70   0 
   1   7   0 2097.11   20.43   0 
   2  -6  -1   84.03    6.97   0 
   8  -2  -3  437.63    7.86   0 
   8   0  -3    7.22    6.14   0 
   9  -1  -3   -0.07    6.38   0 
  -6   4   8    9.41    6.75   0 
  -5   5   6   20.17    5.72   0 
  -4   2   4  950.65    9.83   0 
  -4  10   6   23.45    6.21   0 
  -3  13   6   54.76    6.71   0 
  -2  12   4  221.05    7.31   0 
  -1   9   2   10.34    5.94   0 
   0  12   2   46.67    7.10   0 
   0  16   4  225.73    8.50   0 
   2  10   0  117.94   11.09   0 
   3 -13   0  183.12    7.31   0 
   3  -9  -1   10.90    6.35   0 
   4   2  -2 2211.83   16.53   0 
   5   5  -2  477.63   11.66   0 
   7   7  -2  680.69   13.30   0 
   8 -10  -2    9.11    6.19   0 
  -6  -2   7   20.10    6.55   0 
  -6   0   7    8.92    7.10   0 
  -4   8   5   12.28    6.08   0 
  -2  14   5   42.38    6.89   0 
   1 -15   2  171.05    8.83   0 
   2 -14   1  538.60    9.32   0 
   4 -14   0  172.31    7.30   0 
   4  -4  -2   21.66    5.75   0 
   5  -7  -2   99.27    6.27   0 
   6  -8  -2   86.80    6.39   0 
   6   6  -2   64.05    9.75   0 
   7  -9  -2   31.70    6.30   0 
  -6  -4   7  108.68    8.27   0 
  -6   2   7   11.76    6.52   0 
  -6   6   8   -2.23    6.68   0 
  -5  -1   5  862.26   10.08   0 
  -5   9   7   12.90    6.80   0 
  -4  -6   4  308.84   12.30   0 
  -4   4   4  267.28    7.16   0 
  -3   5   3  305.37    7.67   0 
  -2  10   3 2611.48   13.92   0 
   2 -16   2   86.34    8.07   0 
   3 -15   1    8.88    7.39   0 
   4 -16   1    2.29    7.56   0 
   4 -10  -1 2458.02   13.01   0 
   4  -2  -2 2205.83   13.79   0 
   4   0  -2 1703.30   13.66   0 
   6 -12  -1  389.50    7.73   0 
   8  -8  -2  395.24    8.06   0 
  -6   4   7  109.99    6.88   0 
  -5  -3   5   44.64    7.15   0 
  -5   7   6  564.26    8.41   0 
  -1 -15   4  479.64   13.43   0 
  -1 -13   3   28.56   10.25   0 
  -1  13   3   31.27    6.12   0 
  -1  15   4  474.97    8.60   0 
   2  16   2  101.43    9.72   0 
   3  15   1    7.17   11.20   0 
   5 -11  -1  201.89    6.60   0 
   5  -5  -2  461.63    8.20   0 
   8   6  -2   32.55    9.05   0 
   9   5  -2    7.50    9.35   0 
  -6  -6   7  317.43   10.91   0 
  -5  -9   6    8.37   13.24   0 
  -5   3   5   45.03    6.22   0 
  -4  12   6   31.98    6.83   0 
  -3  13   5  220.78    7.30   0 
  -2 -10   3 2489.99   28.75   0 
  -2   6   2  408.48    8.43   0 
  -1   5   1 1329.17   14.28   0 
   2 -10   0  118.46    6.73   0 
   4  16   1    4.73   13.82   0 
   6  -6  -2   67.82    6.16   0 
   7 -11  -1    9.11    6.82   0 
   7  -7  -2  667.03    8.84   0 
  -5  -5   5  122.21    9.48   0 
  -5  11   7   28.51    7.12   0 
  -4   6   4  319.92    7.33   0 
  -3  11   4 1324.56   10.52   0 
   1  -7   0 2061.78   15.57   0 
   1  15   2  179.72    9.11   0 
   2  14   1  555.79   12.27   0 
   3  -7  -1  198.41    6.98   0 
   5 -13   0   79.36    7.16   0 
   5  -3  -2  474.91    8.42   0 
   5   3  -2  464.62   10.19   0 
  -7  -1   8   27.71    8.43   0 
  -5   5   5  120.05    6.55   0 
  -5   9   6    0.35    6.23   0 
  -2  14   4  223.02    7.61   0 
  -1  11   2   17.50    6.43   0 
   0  10   1 1787.41   14.51   0 
   0  16   3    9.79    8.41   0 
   1 -11   1  267.51    8.56   0 
   3 -11   0 1777.38   12.03   0 
   4 -12   0  309.98    7.73   0 
   6  -4  -2   61.26    7.00   0 
   6  10  -1  192.42   14.22   0 
   7  -5  -2    3.28    5.91   0 
   7   5  -2    8.81    8.16   0 
   8  -4  -2   71.48    7.24   0 
   9  -3  -2   37.29    7.12   0 
   9   3  -2   37.63    7.78   0 
  -7  -3   8   37.02    9.24   0 
  -7   3   8   41.38    7.79   0 
  -6  -2   6    5.89    7.21   0 
  -6   0   6 3261.62   16.77   0 
  -6   2   6    7.07    6.89   0 
   0 -12   2   44.60    8.26   0 
   2   2  -1 5785.13   39.43   0 
   4  -8  -1   29.27    6.11   0 
   5  -9  -1  462.79    7.69   0 
   5  -1  -2  451.28    8.61   0 
   5   1  -2  470.48    9.15   0 
   6   4  -2   64.15    8.07   0 
   8   4  -2   62.96    8.12   0 
   9  -1  -2   13.79    6.75   0 
   9   1  -2   19.79    7.56   0 
  -6   4   6   89.33    6.93   0 
  -5   7   5   33.24    6.08   0 
  -2   8   2 1767.40   12.55   0 
   0  14   2   36.48    7.33   0 
   1  13   1    9.73    8.27   0 
   4 -14   1   27.17    7.50   0 
   6 -12   0   19.92    6.86   0 
   6  -2  -2    5.45    6.94   0 
   7  -9  -1    1.20    6.54   0 
   7  -3  -2   90.61    6.49   0 
   8  -2  -2  125.57    7.04   0 
   8   2  -2  119.43    8.20   0 
  -6  -8   7  104.06   12.75   0 
  -6  -4   6   83.68    8.60   0 
  -3   9   3   12.95    6.98   0 
  -3  15   5    5.75    7.79   0 
  -1   7   1  500.11   10.34   0 
   0 -14   3   11.03    8.87   0 
   2 -12   1  597.06    8.90   0 
   2   0  -1    0.56   10.83   0 
   3  -5  -1  399.03    8.73   0 
   3  13   0  180.50   14.88   0 
   6   0  -2 5431.70   19.83   0 
   6   2  -2    8.92    7.10   0 
   7  -1  -2   40.55    7.37   0 
   7   3  -2   85.90    7.47   0 
   8   0  -2  208.36    7.15   0 
  -6   6   6   25.72    6.64   0 
  -6  10   7  102.82    7.58   0 
  -3  13   4  172.02    7.01   0 
   0  -8   1 1613.38   15.85   0 
   1 -13   2  776.65   10.91   0 
   1   9   0   16.46    9.56   0 
   2 -16   3   11.42    7.67   0 
   3 -15   2  197.28    8.28   0 
   6  -8  -1  261.42    7.50   0 
   7 -11   0    0.55    7.19   0 
   7   1  -2   48.81    7.22   0 
  -7   3   7   26.75    7.74   0 
  -5   9   5   35.34    6.49   0 
  -4  10   4   31.73    6.07   0 
  -2  16   4  317.86    9.02   0 
  -1  -9   2   12.16    9.90   0 
   2 -14   2   31.88    7.10   0 
   4  -6  -1  948.91    9.48   0 
   5 -11   0   20.46    6.32   0 
   5  -7  -1  224.35    7.06   0 
   7  -7  -1   11.19    6.62   0 
   8  -6  -1   12.53    7.04   0 
  -7  -1   7    3.33    7.25   0 
  -6   8   6   32.66    6.69   0 
  -5  -7   5   38.89   11.53   0 
  -4   0   3    4.92    6.86   0 
  -4   2   3 1822.35   12.83   0 
   3  -9   0 2120.40   13.32   0 
   4 -10   0   37.15    6.49   0 
   4   8  -1   29.60   14.56   0 
   5 -13   1   -2.35    6.57   0 
   5   9  -1  459.54   15.91   0 
   7   9  -1    2.54   10.97   0 
   8   8  -1    6.18   10.18   0 
  -7  -3   7   23.45    8.73   0 
  -5   1   4   86.05    6.44   0 
  -5   3   4   39.61    6.40   0 
  -4   4   3  162.57    7.11   0 
  -2 -12   4  213.07   13.50   0 
   6 -10   0  120.06    6.85   0 
  -7   7   7   62.16    7.44   0 
  -6  -6   6   25.85    9.81   0 
  -6   2   5  128.80    7.55   0 
  -5  -1   4   92.76    7.28   0 
  -5   5   4  208.61    7.35   0 
  -5  11   5  134.02    7.12   0 
  -4  -2   3 1749.16   15.59   0 
  -3   1   2  458.43   10.02   0 
  -3   3   2   16.13    7.48   0 
   0   4   0 1600.60   21.28   0 
   2  12   0   83.10   10.75   0 
   3  -3  -1 6772.03   24.16   0 
   4 -12   1   21.72    7.07   0 
   7  -9   0    6.19    7.03   0 
   8  -4  -1   49.90    6.60   0 
  -6   0   5    9.90    7.11   0 
  -6  10   6   84.64    6.75   0 
  -4   6   3  137.05    6.61   0 
  -4  12   4   17.92    6.26   0 
  -1 -15   5   10.91   10.18   0 
  -1   9   1  744.41    9.96   0 
   3 -15   3    4.59    7.82   0 
   4  -4  -1  126.29    7.64   0 
   5  -9   0   56.53    6.72   0 
   5  -5  -1  799.02    9.12   0 
  -7  -5   7   77.18   10.24   0 
  -6   6   5  921.69    9.43   0 
  -5  -3   4   42.10    8.77   0 
  -3  -1   2  464.51   11.21   0 
  -1  17   3  160.51    8.36   0 
   0  16   2  730.80   10.99   0 
   1  -9   1  120.36    7.55   0 
   2  16   1   32.33   10.83   0 
   3 -11   1    4.77    6.96   0 
   8  -2  -1  167.07    7.55   0 
   8   6  -1   16.97    9.08   0 
  -7   1   6   52.58    7.75   0 
  -7   3   6   48.06    7.31   0 
  -6  -2   5  131.81    8.01   0 
  -6  12   6    2.38    7.22   0 
  -5  13   5   13.20    7.52   0 
  -4   8   3   15.26    6.22   0 
   2 -10   1  377.71    7.79   0 
   3 -13   2   67.31    6.92   0 
   3  17   1  550.02   17.20   0 
   5 -13   2   21.14    7.17   0 
   5 -11   1   40.81    6.55   0 
   6  -8   0  245.60    7.53   0 
   6  -4  -1  398.55    7.68   0 
   7  -3  -1  156.10    6.71   0 
   8  -6   0   11.44    7.04   0 
  -7  -1   6   45.97    7.73   0 
  -5   9   4   11.53    6.10   0 
  -3  13   3  661.82    8.95   0 
  -2  12   2   17.58    6.05   0 
  -2  16   3   15.94    7.73   0 
   1  15   1    4.45    8.93   0 
   2 -14   3  210.54    8.06   0 
   3  -1  -1  302.79    9.38   0 
   4  -8   0  153.09    6.38   0 
   7  -7   0  620.07    8.71   0 
   8   4  -1   52.14    7.46   0 
  -7   7   6   61.03    6.81   0 
  -1 -13   4   81.97    9.87   0 
  -1 -11   3  333.87   10.73   0 
   0 -14   4    9.59    8.34   0 
   0 -10   2  574.50   11.00   0 
   2 -12   2  100.19    7.34   0 
   4  -2  -1  623.61    9.56   0 
   5  -3  -1    3.46    6.30   0 
   5  13   0   81.06   17.21   0 
   6 -10   1   59.18    7.04   0 
   6   8  -1  262.76   11.12   0 
   7  -9   1    7.27    7.14   0 
   7  -1  -1 1269.46   10.75   0 
  -8   2   7   72.00    7.93   0 
  -8   4   7    4.72    7.93   0 
  -6  -4   5  331.74   10.11   0 
  -3   9   2 2917.91   14.96   0 
   0 -12   3  859.34   12.10   0 
   1 -13   3   18.77    7.40   0 
   1 -11   2   31.35    6.64   0 
   1  11   0    5.91    8.88   0 
   4 -12   2  319.41    8.52   0 
   4 -10   1 2882.87   14.05   0 
   5  -7   0   48.98    6.48   0 
   6  -2  -1   -1.72    6.16   0 
   7   1  -1 1248.56   11.49   0 
   7   5  -1   10.70    7.87   0 
   8  -4   0   12.96    6.86   0 
  -7  -3   6   53.06    8.55   0 
  -7   9   6   25.35    7.05   0 
  -5  11   4    9.53    6.50   0 
  -4  -4   3  164.13   10.31   0 
  -3 -13   6   59.01   13.46   0 
  -2   2   1 5535.74   26.37   0 
  -2   6   1   86.82    8.06   0 
   0  14   1    9.73    7.65   0 
   3   5  -1  404.38   14.86   0 
   6  -6   0   57.39    6.29   0 
   7  -5   0   10.80    6.45   0 
   7   3  -1  159.94    7.60   0 
  -3  15   3    1.54    7.22   0 
   0   8   0   80.09    8.37   0 
   3 -13   3   38.89    7.59   0 
   5 -11   2   77.54    7.58   0 
   5  -9   1  225.81    7.30   0 
   5  -1  -1    6.32    6.16   0 
   6   0  -1    8.63    6.29   0 
  -7  -7   7   56.53   11.49   0 
  -6  -8   6   27.57   13.59   0 
  -5  -5   4  201.86   10.66   0 
  -4  12   3  282.38    7.12   0 
  -3  -3   2   17.19    9.92   0 
  -2 -14   6  108.52   12.79   0 
  -2   8   1   16.31    6.80   0 
   1  -3   0  183.19   12.61   0 
   2 -14   4   -2.13    8.45   0 
   3  -9   1   32.02    6.55   0 
   3   3  -1 6631.09   32.97   0 
   4  -6   0  234.90    7.06   0 
   4   0  -1    3.58    6.30   0 
   5   7  -1  218.39   10.61   0 
   6 -10   2   38.53    7.26   0 
   6  -8   1   98.78    6.95   0 
   6   2  -1    1.77    6.51   0 
   7  -7   1    8.14    6.91   0 
   7  11   0   15.34   10.97   0 
  -8  -2   7   74.18    8.62   0 
  -6   2   4    9.08    5.91   0 
  -6   4   4  199.33    7.12   0 
  -6   6   4   36.57    6.23   0 
  -5   3   3    4.33    6.36   0 
  -5   5   3  583.69    8.45   0 
  -2   0   1    2.91   11.02   0 
  -2  18   3   68.55    8.13   0 
   3 -11   2  585.23    8.68   0 
   4   6  -1  927.82   15.95   0 
   5   1  -1    1.19    6.63   0 
   6   4  -1  396.05    9.47   0 
   6  12   0   16.59   12.19   0 
   7  -3   0  120.73    6.66   0 
  -7   1   5  178.35    7.80   0 
  -7   3   5   40.30    6.29   0 
  -7   5   5   74.96    6.71   0 
  -7   7   5   45.96    6.76   0 
  -6   8   4   27.67    6.45   0 
  -5   1   3  229.34    7.99   0 
  -5   7   3  185.73    7.00   0 
  -1  13   1   32.52    7.68   0 
   2  -8   1    7.00    6.34   0 
   3  -5   0  150.91    7.56   0 
   4 -12   3    3.40    7.13   0 
   4   2  -1  633.17   10.71   0 
   5   3  -1    5.06    8.02   0 
   5   5  -1  799.95   12.40   0 
   6  -4   0    4.50    6.00   0 
   8   2   0   16.83    7.55   0 
   8   6   0   19.06    8.45   0 
  -8   6   6   15.00    7.90   0 
  -7  -5   6   45.68    9.52   0 
  -7   9   5   85.48    7.11   0 
  -6   0   4 6425.12   22.07   0 
  -2  10   1 1313.11   11.29   0 
   1  -7   1   74.43    7.63   0 
   2 -12   3  446.13    8.96   0 
   4  -8   1   25.72    6.37   0 
   4   4  -1  132.73    9.20   0 
   7  -5   1    7.59    6.89   0 
   7  -1   0   66.11    7.47   0 
  -8  -4   7   11.57    9.98   0 
  -8   2   6  263.06    8.70   0 
  -8   8   6  136.88    7.73   0 
  -7  -1   5  178.59    8.56   0 
  -5   9   3  268.39    7.15   0 
  -4   4   2   13.74    6.74   0 
  -4   6   2  368.74    7.73   0 
   1 -13   4  535.55   10.23   0 
   1  17   1  351.05   11.69   0 
   2 -10   2   83.61    6.97   0 
   3 -13   4   29.40    8.19   0 
   4 -10   2   21.25    6.54   0 
   5  -7   1   81.27    7.06   0 
   6  -6   1  113.17    7.10   0 
   8  -2   1   22.00    7.26   0 
  -8   0   6   39.73    8.00   0 
  -7  11   5   32.94    7.18   0 
  -6  -6   5  936.53   16.02   0 
  -5  -1   3  232.64    8.71   0 
  -4   8   2  789.76    8.99   0 
   0  16   1    1.16    8.57   0 
   1  13   0  586.83   12.45   0 
   4  -4   0  594.01    8.43   0 
   5  -9   2  178.82    7.35   0 
   6  -8   2  219.84    7.91   0 
   7   9   0   15.87    9.78   0 
  -6  -2   4    4.15    7.88   0 
  -6  12   4   15.47    6.80   0 
  -1 -13   5   -2.32    8.64   0 
   5  -3   0  481.86    8.03   0 
   7   1   0   75.26    7.04   0 
   8   0   1    2.24    7.40   0 
  -4  10   2   32.71    6.45   0 
  -4  16   3   12.78    7.63   0 
  -3 -11   5   29.01   11.67   0 
  -2 -12   5   14.93    9.71   0 
  -1  15   1    7.07    7.41   0 
   0 -12   4   10.74    7.75   0 
   1 -11   3   90.80    7.08   0 
   1  -9   2   41.22    6.87   0 
   3  -7   1   12.89    6.18   0 
   7  -5   2   11.69    6.90   0 
   7   3   0  124.44    7.41   0 
   7   5   0    2.15    7.79   0 
   7   7   0  617.57   11.40   0 
   8   2   1   13.83    7.83   0 
  -8  -2   6  262.02    9.82   0 
  -6  14   4    8.15    7.40   0 
  -4   0   2 1647.24   13.68   0 
   2 -12   4   30.60    7.41   0 
   3  -9   2  747.61    8.99   0 
   3  -3   0   16.17    7.91   0 
   4 -10   3 1570.86   12.10   0 
   6  -4   1  158.08    7.37   0 
   6   0   0 2393.54   13.83   0 
  -7   5   4   19.72    6.65   0 
  -4  12   2   51.38    6.10   0 
  -3   5   1  410.62    8.54   0 
  -2  18   2   10.95    8.27   0 
  -1   7   0 2016.42   15.75   0 
   0  -8   2  218.70    8.68   0 
   1 -13   5    6.70    7.57   0 
   5  -9   3   44.57    7.14   0 
   5  -5   1  307.06    7.40   0 
   6  -6   2   37.47    6.54   0 
   6  10   0  109.49   10.51   0 
  -8   6   5   -5.23    5.96   0 
  -7   3   4    2.12    6.59   0 
  -7   7   4  297.94    7.58   0 
  -6   6   3 1137.95    9.78   0 
  -3   9   1   16.63    6.94   0 
  -1 -11   4   13.81    8.29   0 
   0 -10   3  669.65   10.52   0 
   4  -8   2   28.36    5.94   0 
   4  -2   0 2077.73   13.39   0 
   5  -7   2   61.82    6.70   0 
   5  -1   0  392.09    7.71   0 
  -8   2   5  296.15    8.31   0 
  -6   4   3  519.25    8.11   0 
  -6   8   3  348.07    7.45   0 
  -5  15   3   -1.10    6.73   0 
  -3  -9   4 1636.17   23.89   0 
  -2  14   1  518.82    8.75   0 
  -1   9   0   18.49    6.49   0 
   2 -10   3  163.21    7.25   0 
   2  -6   1    4.95    6.27   0 
   3 -11   4  114.59    7.54   0 
   6   2   0   14.15    6.58   0 
   7  -3   2   37.86    6.87   0 
  -9   3   6    6.77    7.90   0 
  -7  11   4    4.59    6.85   0 
  -5  -3   3    4.33    7.79   0 
  -3  11   1   97.86    7.14   0 
  -3  17   2   13.42    7.61   0 
  -1 -13   6   18.69    9.44   0 
   0  18   1   43.37    9.18   0 
   2 -12   5  201.54    8.57   0 
   4 -10   4    9.40    7.07   0 
   6  -2   1  125.91    6.43   0 
   6   4   0    4.87    7.05   0 
   6   8   0  240.05   10.10   0 
  -8  -4   6    5.29    9.15   0 
  -7  -7   6   56.47   11.97   0 
  -6  -4   4  197.37    9.22   0 
  -6  12   3  479.87    7.98   0 
  -5   5   2  464.16    7.88   0 
  -5   7   2  100.22    6.44   0 
  -2 -10   4   58.40   10.06   0 
  -1  -9   3  813.54   12.86   0 
   1 -11   4   30.06    7.43   0 
   2  -8   2 2163.26   13.14   0 
   6  -4   2   39.43    6.65   0 
   6   6   0   53.81    7.41   0 
  -9   1   6    7.51    7.95   0 
  -8   0   5    1.48    6.81   0 
  -5   3   2  446.44    8.33   0 
  -4  -6   3  145.76   14.54   0 
  -2  -8   3   27.00   10.82   0 
  -2  -2   1 5658.11   38.70   0 
  -1  11   0    0.54    6.67   0 
   0 -12   5  350.18    9.49   0 
   3  -9   3  119.59    6.75   0 
   4  -8   3   22.65    6.35   0 
   5  -7   3    9.81    6.40   0 
   5  -3   1   99.66    6.55   0 
   5   1   0  386.77    7.52   0 
   5  11   0    8.74   10.31   0 
   7  -1   2   26.18    6.81   0 
   7   9   1    5.52    9.31   0 
  -7  -1   4    5.49    7.27   0 
  -6   0   3   16.76    6.83   0 
  -5  11   2   14.23    6.17   0 
  -3   1   1  296.04    9.24   0 
  -3  13   1  740.96    8.96   0 
  -2  16   1   17.41    6.71   0 
   3  -1   0  131.06    8.57   0 
   4  -6   2  106.96    7.18   0 
   4  -4   1   98.93    6.36   0 
   5  -5   2   34.19    6.35   0 
   7   7   1    7.84    7.75   0 
  -7  -5   5   82.56    9.58   0 
  -5  -7   4  359.01   16.48   0 
  -2 -12   6  217.53   10.76   0 
   1  -9   3    0.51    6.80   0 
   2 -10   4   57.30    7.28   0 
   5  -7   4   42.93    6.91   0 
   5   3   0  459.83    9.00   0 
   6  -4   3   33.38    7.04   0 
   7   1   2   19.18    7.12   0 
  -9  -1   6   14.37    7.65   0 
  -8   6   4   34.23    6.37   0 
  -5   1   2  430.87    8.46   0 
  -5  13   2  131.65    6.90   0 
  -4   6   1  905.46    9.25   0 
  -4   8   1   32.37    6.03   0 
  -1  13   0  603.22   10.05   0 
   0 -12   6    2.32    8.33   0 
   3  -9   4  173.13    7.79   0 
   4  -8   4   23.68    6.70   0 
   6  -2   2   22.43    6.64   0 
  -9   5   5   12.50    7.11   0 
  -8  -2   5  305.67    9.27   0 
  -8   4   4   53.82    6.67   0 
  -7   5   3   23.80    5.88   0 
  -7   9   3   12.12    6.42   0 
  -4  10   1 2464.79   12.93   0 
  -3  15   1    8.17    6.21   0 
   1 -11   5   33.09    6.82   0 
   6   2   1  121.37    7.18   0 
   6  12   1  173.09   11.34   0 
  -9   3   5  384.76    8.40   0 
  -7  11   3   20.27    6.77   0 
  -4   4   1  131.93    7.01   0 
  -4  12   1  114.74    6.37   0 
  -2  10   0  104.33    6.22   0 
  -1 -11   5   64.96    8.28   0 
   0 -10   4  186.47    7.89   0 
   2 -10   5   80.92    7.82   0 
   5  -5   3   42.06    5.67   0 
   5  -3   2  150.51    6.38   0 
   5   9   0   61.35    9.00   0 
   7   5   2    6.27    7.57   0 
  -8   2   4  233.86    7.15   0 
  -7   3   3  123.64    6.51   0 
  -7  13   3    0.31    6.73   0 
  -6  -2   3  128.72    7.70   0 
  -6   6   2   66.60    6.17   0 
  -6   8   2   91.94    6.38   0 
  -2  12   0   89.06    7.11   0 
   1 -11   6   -2.20    7.61   0 
   2  -8   3   54.41    5.95   0 
   4  -6   3  532.75    8.12   0 
   4  -2   1   49.96    6.12   0 
   4   2   0 2114.02   14.15   0 
   5   7   0   48.84    7.94   0 
  -9  -3   6   -1.38    9.25   0 
  -9   1   5    1.40    7.22   0 
  -7  -3   4    4.84    7.43   0 
  -6   4   2   62.95    6.21   0 
  -6  12   2   -3.19    6.18   0 
  -4  14   1   96.10    7.33   0 
  -3 -11   6  343.25   12.17   0 
   2  -6   2  306.81    7.76   0 
   3  -7   3   26.82    5.97   0 
   4  -4   2  588.36    7.94   0 
   5  -5   4   -0.69    6.64   0 
   6  10   1   59.72    8.62   0 
  -8  -6   6   17.36    9.85   0 
  -7   1   3  810.52    9.55   0 
  -5  -1   2  429.83    9.25   0 
  -4   2   1  608.15    8.79   0 
   3  -5   2   12.19    5.96   0 
   3   1   0  127.48    8.25   0 
   4  12   0  314.10   14.38   0 
   5   1   1    0.92    6.45   0 
   6   6   1  100.67    7.06   0 
   6   8   1   88.86    8.04   0 
  -8   0   4   59.05    6.84   0 
  -6  14   2    5.94    6.53   0 
  -5  -5   3  582.07   12.93   0 
  -5   9   1  431.81    7.98   0 
  -3  -1   1  300.04    9.48   0 
  -1 -11   6   97.50    8.64   0 
   1  -9   4   33.17    6.41   0 
   4  -6   4   29.82    6.21   0 
   5  -3   3  197.31    7.01   0 
   6   0   3    3.18    6.35   0 
   6   2   2   19.96    6.13   0 
  -9  -1   5   -0.28    7.79   0 
  -9   5   4   15.52    7.14   0 
  -8  -4   5   24.90    7.99   0 
  -8   8   3   -3.48    6.66   0 
  -8  10   3   92.70    6.95   0 
  -6  -6   4   40.26   10.60   0 
  -6   2   2   -2.41    5.98   0 
  -5   7   1  220.50    6.72   0 
  -5  11   1  197.93    6.56   0 
  -4  16   1   11.54    7.20   0 
  -3  -5   2  521.42   21.28   0 
  -3   7   0 1267.46   10.37   0 
  -3   9   0 2115.88   12.56   0 
  -3  11   0 1694.13   11.55   0 
   0 -10   5  171.67    7.97   0 
   2  -8   4  598.76    8.72   0 
   3  -7   4   72.01    6.03   0 
   4  -6   5  109.78    6.97   0 
   4   4   0  594.85    9.88   0 
  -8   6   3    3.71    5.87   0 
  -5   5   1  779.66    8.64   0 
  -5  13   1   34.35    6.68   0 
  -2 -10   5 2258.71   17.90   0 
   0  18   0   20.33    9.37   0 
   1   9  -1  765.94   15.23   0 
   5  -3   4   33.75    6.64   0 
   6   4   2   33.32    6.79   0 
  -9   3   4   13.87    7.36   0 
  -8   4   3   44.82    6.33   0 
  -7   7   2  626.18    8.51   0 
  -7   9   2   25.13    6.15   0 
  -7  11   2   11.20    6.49   0 
  -3   5   0  144.23    7.04   0 
  -3  13   0  174.63    7.15   0 
  -1  -9   4   84.34    7.73   0 
   1  -9   5    0.41    6.33   0 
   3  -7   5   32.53    6.32   0 
   4  -4   3   34.23    5.28   0 
   4   0   1   -1.72    6.01   0 
  -7  -1   3  809.29    9.63   0 
  -7   5   2    3.54    5.67   0 
  -5   3   1    9.79    5.94   0 
  -5  15   1    7.09    6.55   0 
  -4  -4   2   22.81    9.33   0 
  -4   0   1    2.06    6.53   0 
  -3 -11   7    5.56    9.12   0 
   0 -10   6   42.22    6.78   0 
   1  -7   3    9.39    6.06   0 
   4  -2   2 1182.97    9.83   0 
   4   6   0  236.95    9.33   0 
   5  -1   3   -1.56    5.99   0 
   5  13   1    9.23    9.68   0 
   6   6   2   32.83    6.68   0 
  -8   2   3  418.24    8.17   0 
  -6   0   2 5490.83   19.26   0 
  -4 -10   6   36.72   11.19   0 
   0  10  -1 1786.10   15.14   0 
   1  -9   6    7.04    7.20   0 
   1   7  -1  495.38   15.43   0 
   2  -8   6   91.12    7.04   0 
   4  -4   4  167.64    6.87   0 
   4  10   0   35.84    9.89   0 
  -9   1   4    0.50    6.93   0 
  -7  -7   5   48.94   11.58   0 
  -7   3   2   88.91    6.72   0 
  -6  -4   3  516.71   10.33   0 
  -6   8   1  254.89    7.07   0 
  -6  10   1  198.12    6.88   0 
  -4   8   0  161.56    6.66   0 
  -4  10   0   44.69    6.10   0 
   0   8  -1 1620.25   14.98   0 
   1  -5   2    7.49    6.64   0 
   1  19   0   40.37   12.31   0 
   3  -3   2  121.13    6.16   0 
   3  -1   1   25.72    6.56   0 
   3   3   0   22.41    7.64   0 
   4  -4   5    0.75    6.43   0 
   4   8   0  159.36    9.16   0 
   4  16   1    2.04   13.52   0 
   5  -1   4   10.39    6.38   0 
  -7  -5   4   16.51    8.72   0 
  -6   6   1  512.14    7.53   0 
  -6  12   1  411.64    7.63   0 
  -4   6   0  234.51    7.20   0 
  -4  12   0  319.09    7.08   0 
  -3   3   0   12.19    6.92   0 
  -2  18   0    2.09    7.52   0 
   0  -8   4  441.12    8.51   0 
   1  13  -1   30.06    9.53   0 
   3  -5   4   41.79    5.92   0 
   5   7   1   74.94    7.03   0 
   5   9   1  216.97    9.17   0 
   5  11   1   37.10    8.51   0 
   6   6   3   17.70    6.74   0 
  -6  14   1    3.25    6.43   0 
  -5  -3   2  470.72    9.71   0 
  -5   1   1    9.66    6.44   0 
  -2 -10   6   18.38    8.03   0 
  -1  -7   3  478.42   10.67   0 
  -1  -3   1   72.86   19.78   0 
  -1   9  -1  124.59    7.05   0 
  -1  11  -1  271.26    8.20   0 
   4  -2   3   21.13    5.88   0 
   4   2   1   48.21    6.04   0 
   5   1   3    6.80    5.72   0 
  -9   5   3    9.06    6.42   0 
  -8   0   3    0.48    6.94   0 
  -8   8   2  382.10    7.77   0 
  -6   4   1  393.72    7.12   0 
  -1  -9   5  303.30    8.27   0 
  -1   7  -1   81.65    7.57   0 
  -1  13  -1   -0.23    7.01   0 
   0   6  -1 9984.51   36.05   0 
   0  14  -1   17.18    7.76   0 
   1  -7   4 1785.05   12.16   0 
   2  -6   4   82.76    6.31   0 
   5   1   4    5.22    6.22   0 
  -9  -1   4    5.79    7.65   0 
  -8  -6   5    1.31   10.05   0 
  -7  -3   3  126.39    7.69   0 
  -7   1   2   41.43    6.77   0 
  -4   4   0  609.49    8.06   0 
  -2 -10   7 1056.76   12.70   0 
   4  -2   5   27.32    6.36   0 
  -9   3   3  262.73    8.24   0 
  -8  -4   4   51.84    8.46   0 
  -7   9   1    1.69    6.92   0 
  -7  11   1   22.21    7.16   0 
  -6  -2   2    3.04    6.73   0 
  -5  11   0   -0.43    5.88   0 
  -3  -9   5   16.92    9.61   0 
  -2  -8   4  294.98   10.22   0 
  -2   8  -1   12.71    6.41   0 
  -2  10  -1  377.80    7.71   0 
  -2  12  -1  600.48    8.56   0 
  -1  -9   6  165.40    7.91   0 
   0  -8   5  142.51    6.98   0 
   1  -7   5    0.46    6.43   0 
   1  15  -1    7.34   10.18   0 
   2  -6   5  158.57    6.38   0 
   2  -6   6   10.24    6.04   0 
   2   2   0 4635.83   26.55   0 
  -8   4   2   61.54    6.11   0 
  -7   7   1   -0.12    6.15   0 
  -6   2   1    3.13    6.21   0 
  -5   7   0   49.22    5.91   0 
  -4 -10   7   44.07   10.11   0 
  -2  14  -1  539.69    8.96   0 
  -1  -9   7   45.99    7.85   0 
  -1  15  -1    8.21    6.98   0 
   0  16  -1    4.07    8.72   0 
   1  -7   6  580.23    9.14   0 
   1  -7   7    6.25    6.66   0 
   4   0   3   -0.38    5.53   0 
   4   4   1  103.48    6.66   0 
   5   3   4   21.00    6.27   0 
   5   7   2   62.91    7.20   0 
  -3   1   0  137.18    7.43   0 
   0  -8   6  307.36    8.00   0 
   0  -8   7    4.70    7.08   0 
   2  -4   3  370.60    7.43   0 
   3  -3   4  116.70    6.05   0 
   3  -3   6   34.70    7.16   0 
   3  -1   2   39.48    5.86   0 
   3   1   1   29.39    6.05   0 
   3   5   0  150.12    8.10   0 
   5  11   2   63.28    8.50   0 
  -9   1   3    2.82    6.73   0 
  -7   5   1   -1.76    5.75   0 
  -5  -9   6    0.88   11.66   0 
  -5   5   0  269.40    6.89   0 
  -4  -2   1  643.42    9.76   0 
  -4   2   0 2196.59   13.04   0 
  -3   9  -1   34.70    5.91   0 
  -3  11  -1    8.32    5.81   0 
  -2   0   0 1795.20   16.85   0 
  -2   6  -1    3.82    5.61   0 
  -1   5  -1  170.21    7.88   0 
   1  -5   3    7.10    6.05   0 
   4   0   4  388.38    7.44   0 
   4   0   5    5.50    6.31   0 
   5   5   4   -0.76    6.83   0 
  -9  -5   5   12.39    9.07   0 
  -8  -2   3  423.34    8.27   0 
  -8   2   2  121.27    6.61   0 
  -7  -1   2   48.77    6.62   0 
  -6  10   0  121.40    6.35   0 
  -6  12   0   18.28    6.15   0 
  -5  -1   1    4.39    6.02   0 
  -3   7  -1    7.93    6.32   0 
  -2  16  -1   29.16    6.81   0 
   4   6   1 1233.80   11.83   0 
   4  14   1   18.76   10.26   0 
  -9  -3   4   12.69    7.91   0 
  -7   3   1  150.18    6.15   0 
  -3  -9   6  537.45   11.28   0 
  -3  15  -1   14.36    6.48   0 
   2  -4   4   87.36    5.96   0 
   2  -4   6   -5.72    6.28   0 
   2  -2   2 1037.76   10.28   0 
   4   2   3   19.07    6.28   0 
   5   7   4   32.60    7.10   0 
   5  11   3    5.98    7.68   0 
  -8   8   1    6.11    6.29   0 
  -6   0   1    4.82    6.07   0 
  -6   6   0   62.95    5.86   0 
  -5   3   0  490.03    7.54   0 
  -4  10  -1 2915.08   13.17   0 
  -1  -7   4   64.63    7.49   0 
   0  18  -1   40.49    9.62   0 
   2  -4   5  138.68    6.15   0 
   2   0   1    0.49    7.77   0 
   3  -1   3    4.81    5.67   0 
   4   2   5   21.32    6.89   0 
  -8   6   1   19.35    6.31   0 
  -4   8  -1   28.11    5.71   0 
  -3  -9   7   32.92    7.97   0 
  -3   5  -1    2.01    5.72   0 
  -3  17  -1  561.08    9.49   0 
  -2  -8   5   25.10    7.99   0 
  -2   4  -1  769.13    9.67   0 
   1  -5   4   23.18    5.84   0 
   3  -1   4  107.08    6.08   0 
   3  -1   6   27.18    6.36   0 
   3   7   0 1353.14   15.39   0 
   4   4   2  572.82    7.97   0 
   4   8   1   29.63    7.27   0 
   4  12   1   18.03    8.91   0 
  -9  -1   3   10.62    6.82   0 
  -9   3   2   37.33    6.49   0 
  -8   0   2  208.51    6.88   0 
  -7  11   0   18.33    6.45   0 
  -4  16  -1    0.61    7.12   0 
   0  -6   4  107.11    6.42   0 
   0  -4   2  576.10   10.43   0 
   1  -5   5    3.11    6.31   0 
   1  -3   2  204.43    7.65   0 
   3  -1   5    7.36    5.91   0 
   3   1   2   50.77    5.75   0 
   3   3   1 2722.12   15.18   0 
   3  13   0  184.95   13.21   0 
   4  10   1 2684.29   18.55   0 
  -8   4   1   41.44    5.85   0 
  -7  -5   3   17.58    7.88   0 
  -7   1   1 1273.03   10.06   0 
  -7   9   0    5.84    6.13   0 
  -6  -6   3 1209.19   15.70   0 
  -6   4   0    6.76    4.88   0 
  -5  11  -1   50.05    5.82   0 
  -5  13  -1   -1.29    6.45   0 
  -4   6  -1 1294.00    9.67   0 
   0  -6   7   38.12    6.37   0 
   1   5  -1 1394.13   26.06   0 
   2  -2   7   -3.04    6.43   0 
   4   4   3   40.20    5.68   0 
   4   4   5    8.18    5.94   0 
  -6  -4   2   68.21    7.31   0 
  -5   1   0  385.01    7.87   0 
  -4   0   0 2699.55   14.15   0 
  -2  -8   6   40.49    6.80   0 
  -2  -8   7   20.98    6.61   0 
  -1  -7   5  147.22    6.92   0 
  -1  -7   7   11.33    6.33   0 
  -1   3  -1  380.54   10.30   0 
   0  -6   5  320.38    6.92   0 
   0  -6   6   41.55    6.22   0 
   3   1   6   33.37    6.16   0 
   4   4   4  166.70    6.61   0 
  -9   1   2   12.83    6.70   0 
  -8  -6   4   23.19    9.54   0 
  -8  -4   3   46.90    7.66   0 
  -7  -7   4  304.47   12.43   0 
  -7  -3   2   85.30    6.80   0 
  -7   5   0    5.86    6.49   0 
  -5  -9   7    2.70    9.08   0 
  -5   7  -1   82.53    5.62   0 
  -1  -7   6   51.55    6.28   0 
   1  -1   1 9836.53   33.26   0 
   2  -2   6    7.14    5.76   0 
   4   6   5  105.14    7.47   0 
  -8   2   1  167.07    7.01   0 
  -6   2   0   11.65    5.59   0 
  -4   4  -1  103.66    6.07   0 
  -3  -1   0  136.82    7.76   0 
  -3   3  -1 2779.43   14.10   0 
  -1  11  -2   33.53    6.22   0 
   1  -3   7   34.97    6.62   0 
   2  -2   4  130.29    5.92   0 
   2  -2   5  108.19    5.96   0 
   3  11   0 1855.21   19.67   0 
   4   6   3  521.10    8.19   0 
   4   6   4   31.92    6.73   0 
   4   8   2   24.20    6.55   0 
  -9  -5   4   11.73    9.11   0 
  -8  -2   2  126.09    6.62   0 
  -6  -2   1   -1.73    5.69   0 
  -5  -3   1   -0.10    6.56   0 
  -5   5  -1  319.07    6.75   0 
  -4  -8   5    5.38    9.60   0 
  -2  -6   3  713.13   12.83   0 
  -2  10  -2  101.47    6.13   0 
  -2  14  -2   28.72    6.71   0 
   0  -2   1 1163.73   17.57   0 
   1  -3   3  473.65    7.64   0 
   2   0   7    5.03    6.21   0 
   2   4   0  917.60   14.38   0 
   3  17   1  338.72   15.01   0 
   4  10   2   23.84    6.85   0 
   4  12   2  251.87    9.22   0 
  -7  -1   1 1271.10   10.74   0 
  -3  11  -2  606.64    8.29   0 
  -2   2  -1 5666.26   20.95   0 
  -1   9  -2   49.18    6.23   0 
  -1  15  -2  184.79    8.07   0 
   0  12  -2   44.08    7.23   0 
   1  -3   6   74.50    5.88   0 
   2   0   2 1593.66   11.62   0 
   3   3   2  119.84    6.02   0 
   3   3   6   29.35    6.15   0 
   3   5   1    7.80    6.40   0 
   4   8   3   23.01    6.16   0 
   4   8   4   20.74    6.81   0 
  -9  -1   2   19.82    7.15   0 
  -8   6   0   19.40    6.08   0 
  -4  -8   8  153.39    9.32   0 
  -3  15  -2  201.45    7.40   0 
  -2   8  -2 2312.60   12.56   0 
  -2  16  -2  102.48    7.41   0 
   0  -4   7   54.26    6.57   0 
   0  14  -2   36.15    7.83   0 
   1  -3   4  281.98    6.64   0 
   1  -3   5  186.30    6.03   0 
   2   0   6 1068.48    9.58   0 
   3   3   5   76.94    6.02   0 
   4  10   4    4.10    6.55   0 
   4  12   3   -4.49    6.81   0 
  -4   2  -1   49.37    6.09   0 
  -4  10  -2   31.16    5.56   0 
  -4  14  -2  153.14    6.94   0 
  -3  -7   4  976.66   14.17   0 
  -1  17  -2   38.94    7.96   0 
   0  -4   3 1134.23   10.61   0 
   3   3   3  542.25    7.74   0 
   3   3   4  114.83    6.01   0 
   3   5   6    7.22    5.90   0 
  -8   4   0    8.11    6.47   0 
  -7   9  -1    2.68    5.98   0 
  -6   0   0 2438.62   12.99   0 
  -5  -1   0  407.15    7.19   0 
  -5   3  -1  103.25    5.89   0 
  -4  -8   6  671.15   11.78   0 
  -4  -8   7   32.14    7.85   0 
  -4  -4   1  134.83    8.20   0 
  -4   8  -2   35.50    5.61   0 
  -3  -7   8   39.85    6.68   0 
  -3   7  -2  334.46    6.87   0 
  -2  -6   8   25.56    6.03   0 
  -2   6  -2  342.64    7.30   0 
  -1  -5   3 1296.37   12.39   0 
  -1   7  -2 3277.47   15.71   0 
   0  -4   6   22.18    5.81   0 
   0  16  -2  762.66   11.55   0 
   1  -1   7  479.87    7.92   0 
   2   0   3    1.85    5.34   0 
   2   0   5    7.51    5.42   0 
   2   2   1 5702.99   22.40   0 
   2   2   7   -5.69    6.06   0 
  -7   1   0   69.70    6.35   0 
  -7   7  -1    9.41    5.88   0 
  -6   4  -1  178.54    6.07   0 
  -5  11  -2   79.13    6.57   0 
  -5  13  -2   40.07    6.81   0 
  -3   1  -1   22.89    6.44   0 
  -1  -5   7   38.23    5.88   0 
   0  -4   4    6.61    5.69   0 
   0  -4   5  310.28    6.85   0 
   0  -2   8   28.29    5.93   0 
   2   0   4 1711.68   10.68   0 
   3   5   2   11.79    5.97   0 
   3   5   5   73.79    5.88   0 
  -5   9  -2  194.86    6.32   0 
  -4  -2   0 2187.63   13.60   0 
  -4   6  -2  107.16    6.06   0 
  -3  -7   7    2.07    6.72   0 
  -2  -6   7  313.96    7.29   0 
  -1  -5   6   60.65    6.10   0 
   2   2   6   13.19    5.65   0 
   3   7   1    7.95    6.29   0 
  -8   2   0   22.61    6.32   0 
  -7   5  -1    7.50    5.78   0 
  -3  -7   5   20.28    7.39   0 
  -3  -7   6  217.51    7.77   0 
  -3   5  -2   12.92    5.24   0 
  -2  -6   4  193.05    8.12   0 
   0  18  -2   14.92    8.86   0 
   1  -1   2  298.56    7.78   0 
   1  -1   6   29.90    5.83   0 
   1  11  -2   14.69    8.64   0 
   3   5   3   89.53    5.49   0 
   3   7   5   33.17    6.69   0 
   3  15   1   13.82    9.13   0 
  -8  -4   2   55.24    7.02   0 
  -7  -5   2    5.85    6.94   0 
  -7  -3   1  148.83    6.96   0 
  -6  -8   6   23.04   10.98   0 
  -6  10  -2   31.62    6.03   0 
  -5   1  -1    5.98    5.97   0 
  -2  -6   6   74.60    6.01   0 
  -1  -5   5  363.11    7.03   0 
  -1   5  -2    2.61    6.04   0 
   0  -2   7  117.75    5.93   0 
   1   1   7  457.50    7.72   0 
   2   2   5  111.28    5.62   0 
  -9  -5   3    3.26    7.88   0 
  -9  -3   2   30.24    6.59   0 
  -8  -6   3    7.80    7.90   0 
  -8  -2   1  160.11    6.60   0 
  -6  -8   7   99.18   10.08   0 
  -6  -4   1  411.47    8.35   0 
  -6   2  -1  133.99    5.65   0 
  -6   8  -2  238.28    6.87   0 
  -4  -6   2  393.61   15.09   0 
  -2  -2   0 4616.77   25.13   0 
  -2   4  -2  734.44    8.40   0 
   0   0   8  164.83    7.10   0 
   1  -1   5 1979.66   11.35   0 
   2   2   2 1078.54    9.87   0 
   2   4   6   -5.23    5.54   0 
   3   7   2  311.78    7.46   0 
   3   7   4   67.29    6.00   0 
   3   9   1   30.69    6.90   0 
   3   9   5   50.14    6.86   0 
  -5   5  -2   28.20    5.48   0 
  -4   0  -1    1.52    5.15   0 
  -4   4  -2  628.46    7.53   0 
  -1   1  -1 9975.55   32.77   0 
   0   6  -2  177.84    7.48   0 
   1  -1   4  179.80    6.16   0 
   1   9  -2   13.90    8.26   0 
   2   2   3 1380.67    9.96   0 
   2   2   4  118.87    5.78   0 
   3   7   3   30.18    5.76   0 
   3  11   1    7.43    7.48   0 
   3  13   1  262.57   10.38   0 
  -9  -1   1    9.96    5.93   0 
  -7  -1   0   63.70    5.90   0 
  -6  -6   2   60.67    8.32   0 
  -6  -2   0   14.09    5.17   0 
  -3  11  -3   10.80    5.91   0 
  -2  -4   8  107.27    6.37   0 
  -2   0  -1    3.00    6.47   0 
  -2  12  -3  474.41    7.82   0 
  -2  14  -3  216.45    6.98   0 
  -1  -3   7  193.84    6.85   0 
   0  -2   6   61.58    5.40   0 
   1   1   6   30.69    5.69   0 
   3   9   4  170.08    6.78   0 
   3  15   2   80.28    9.33   0 
  -8   0   0  466.73    7.73   0 
  -7  -7   3    7.47    9.06   0 
  -5  -7   8  364.96    9.52   0 
  -4  10  -3 1678.40   11.19   0 
  -4  12  -3   -0.02    5.56   0 
  -3  -5   8   10.24    6.70   0 
  -3   9  -3  121.58    5.61   0 
  -3  15  -3    1.69    5.99   0 
  -2  10  -3  179.82    6.00   0 
  -2  16  -3   11.48    6.96   0 
  -1  11  -3   93.53    6.34   0 
  -1  13  -3   10.54    6.21   0 
   2   6   6    2.80    5.69   0 
   3   9   2  720.24    9.66   0 
   3  11   4  102.92    6.48   0 
   3  13   4   18.42    6.34   0 
   3  15   3    5.22    7.80   0 
  -6   0  -1    5.80    5.74   0 
  -5  -5   1  808.71   10.93   0 
  -5  -3   0  476.90    7.93   0 
  -5   3  -2  137.68    5.61   0 
  -4  -6   8   25.85    6.82   0 
  -3  -3   0   18.32    6.85   0 
  -2   8  -3   59.05    5.73   0 
  -1  -1   8   15.55    6.12   0 
  -1  15  -3   20.62    6.82   0 
   0  -2   2    1.09    7.77   0 
   0  -2   5  159.80    6.50   0 
   0   0   7   20.95    5.58   0 
   0   2   8   39.52    6.12   0 
   2   4   1  782.38   10.15   0 
   2   6   0  567.51   11.79   0 
   3  11   2  527.86    9.24   0 
   3  11   3   12.39    6.21   0 
   3  13   2   50.78    7.28   0 
   3  13   3   36.71    6.83   0 
  -7   1  -1  853.80    8.64   0 
  -6   4  -2   34.27    5.51   0 
  -5  -1  -1   -2.61    5.65   0 
  -5   9  -3   42.15    5.96   0 
  -5  11  -3    5.71    5.72   0 
  -4   2  -2 1259.31    9.35   0 
  -4   8  -3   17.23    5.32   0 
  -3  -1  -1   21.17    5.99   0 
  -3   7  -3   34.27    5.07   0 
  -2  -4   7   27.64    5.80   0 
  -1   9  -3    0.30    5.34   0 
   0   2  -1 1188.31   17.18   0 
   1   1   1 9999.99   33.18   0 
   1   1   5 2011.69   11.20   0 
  -8   2  -1   20.35    5.87   0 
  -7   5  -2    7.09    5.61   0 
  -2   2  -2 1032.40    9.70   0 
  -1  -3   6  156.73    5.83   0 
  -1   3  -2  204.94    7.53   0 
   0  -2   4   55.29    5.33   0 
   0  12  -3  912.37   10.46   0 
   0  14  -3   10.56    7.36   0 
   1   3   6   68.40    5.48   0 
   1   5   7   -3.00    5.70   0 
   2   6   5  152.21    5.79   0 
  -8  -4   1   49.19    6.74   0 
  -5  -7   7    0.93    6.79   0 
  -5   7  -3    4.19    5.31   0 
  -3  -5   7   36.84    6.28   0 
  -2   6  -3   59.66    5.20   0 
   0  -2   3   14.16    5.81   0 
   1   1   4  173.95    5.81   0 
   2   4   2  742.63    8.28   0 
   2   4   3  355.10    6.77   0 
  -8  -2   0   25.73    6.37   0 
  -7  -5   1    7.25    6.55   0 
  -6   2  -2   28.29    5.46   0 
  -5   1  -2  117.15    5.73   0 
  -4  -6   7   15.66    6.23   0 
  -3   1  -2   44.23    5.34   0 
  -3   5  -3  100.51    5.56   0 
  -2  -2   8  257.01    7.00   0 
  -1  -1   7    4.99    5.58   0 
  -1   7  -3    0.35    4.95   0 
   0   0   6 1106.34    9.01   0 
   0   2   7  117.94    5.82   0 
   0  10  -3  715.22    9.32   0 
   0  16  -3    2.45    7.43   0 
   1   7   7    1.59    5.53   0 
   2   8   5   93.20    6.00   0 
  -8  -6   2   26.06    7.46   0 
  -7  -1  -1  887.93    9.40   0 
  -7   3  -2   48.85    5.60   0 
  -5   5  -3   47.55    5.44   0 
  -4  -4   0  622.17    9.41   0 
  -4  -2  -1   47.52    5.47   0 
  -2  -4   6  366.20    7.09   0 
  -1   1   8   18.29    5.58   0 
   1   1   2  289.17    7.84   0 
   1   1   3 6059.17   18.95   0 
   1   7  -2  344.22   10.10   0 
   2   6   4   87.85    5.43   0 
   2  10   5   65.38    6.65   0 
  -8   0  -1   -0.99    5.96   0 
  -6  -4   0    7.77    5.46   0 
  -6  -2  -1  128.60    6.11   0 
  -6   6  -3   22.55    5.68   0 
  -5  -7   6  559.70   10.89   0 
  -4   4  -3   38.06    5.26   0 
   0   4  -2  575.61    9.54   0 
   1   3   5  186.26    6.05   0 
   2  12   5  216.81    7.19   0 
  -5  -7   4  353.04   14.30   0 
  -4   0  -2 1551.07   10.08   0 
  -3  -5   6    1.06    5.84   0 
  -3  -3   8   45.79    5.70   0 
  -3  11  -4  116.71    6.54   0 
  -3  13  -4   18.02    5.81   0 
  -2   4  -3  361.43    6.71   0 
  -2  12  -4   32.05    5.91   0 
  -2  14  -4    6.32    6.72   0 
  -1  -3   4  783.73    8.65   0 
   0   0   5   33.15    5.47   0 
   2   6   1    1.72    6.23   0 
   2   6   3   56.34    4.82   0 
   2   8   4  636.95    8.24   0 
   2  18   1   54.86   11.32   0 
  -7   1  -2   33.31    5.67   0 
  -6   4  -3   37.49    5.62   0 
  -5  -7   5   46.34    9.41   0 
  -4  -6   6  123.49    6.83   0 
  -4  10  -4    5.97    5.72   0 
  -3  -5   1  428.39   12.85   0 
  -3   3  -3  521.87    7.08   0 
  -3   9  -4  175.60    6.11   0 
  -2  -4   5  123.95    6.31   0 
  -2  -2   7   17.98    5.73   0 
  -2  10  -4   72.68    5.91   0 
  -1  -3   3   34.48    6.77   0 
  -1   3   8   21.28    5.56   0 
  -1   5  -3    6.48    4.96   0 
   0   2   6   63.16    5.24   0 
   0   4   7   51.36    5.31   0 
   1   7   6  587.87    7.45   0 
   2   6   2  311.09    6.96   0 
   2  10   4   71.79    5.79   0 
  -7  -7   2  645.43   11.43   0 
  -6  -6   1  510.86    9.03   0 
  -6  -6   8    7.66    7.84   0 
  -6   0  -2  696.70    7.88   0 
  -5  -3  -1  102.91    5.68   0 
  -5   3  -3  216.61    5.49   0 
  -4  -4   8   43.66    5.96   0 
  -4   8  -4   10.63    5.16   0 
  -2   0   8  205.66    6.12   0 
  -1  -1   6  123.22    5.61   0 
  -1   1   7   -0.52    5.15   0 
  -1  13  -4  536.04    8.59   0 
   1   3   4  290.47    6.18   0 
   1   5   5    1.17    5.17   0 
   2   8   0 3539.93   23.90   0 
   2  12   4   20.56    5.68   0 
   2  14   4    3.42    6.02   0 
   2  16   0   74.37   11.43   0 
  -8  -4   0    6.31    6.55   0 
  -5  -7   2   94.32   10.47   0 
  -5  -5   8    1.58    6.35   0 
  -4   2  -3   25.43    5.06   0 
  -3   7  -4   67.62    5.24   0 
  -2   8  -4  650.76    7.70   0 
  -1  11  -4   23.69    5.67   0 
  -1  15  -4   33.77    6.57   0 
   0   0   4 7359.19   20.15   0 
   0   6   7   47.65    5.64   0 
   1  13  -3   33.72    8.32   0 
   2  16   3    9.27    7.44   0 
  -8  -2  -1   13.59    6.27   0 
  -7  -7   7   61.22    9.59   0 
  -7  -3  -1   78.46    6.07   0 
  -5  -5   0  254.11    7.26   0 
  -5   7  -4   41.68    5.63   0 
  -4   6  -4   22.84    5.30   0 
  -3  -5   5    5.24    5.78   0 
  -3  -1  -2   54.06    5.63   0 
  -2  -4   4  443.85    8.23   0 
  -2   0  -2 1606.42   11.10   0 
  -1   5   8    5.13    5.56   0 
  -1   9  -4   25.13    5.47   0 
   1  11  -3  353.71    9.29   0 
   1  11   6    7.45    5.70   0 
   1  15  -3   23.08    8.76   0 
   2  10   3  172.47    6.55   0 
  -8  -6   1   19.39    6.95   0 
  -7  -5   0   10.73    6.13   0 
  -6   2  -3  122.25    6.04   0 
  -5   1  -3    0.66    5.61   0 
  -4  -6   5   10.26    6.80   0 
  -3  -3  -1 2779.85   14.36   0 
  -2  -2  -1 5680.50   21.46   0 
  -1   1  -2  296.62    7.48   0 
   0   4   6   21.76    5.05   0 
   0   8   7   14.17    5.41   0 
   1   3   0  185.02   13.34   0 
   1   7   5   11.38    4.77   0 
   2   8   2 2125.56   13.14   0 
   2  12   3  445.20    7.88   0 
   2  14   3  157.47    7.38   0 
   2  16   2   81.93    7.85   0 
  -8  -8   3    2.11    9.93   0 
  -7  -1  -2   23.27    5.66   0 
  -5   5  -4    6.43    5.44   0 
  -4  -6   1  969.14   13.51   0 
  -3  -1   8   22.95    5.66   0 
  -3   1  -3    7.97    4.88   0 
  -3   5  -4   38.17    4.94   0 
  -2  -2   6  929.59    8.75   0 
  -2   2  -3 1333.48    9.48   0 
  -2   2   8  272.25    6.46   0 
  -1  -1   5   13.21    5.12   0 
  -1   3   7  192.44    6.54   0 
   0   2   5  157.28    5.57   0 
   0  12  -4   10.54    6.36   0 
   0  14  -4    9.63    7.01   0 
   1   5   4   24.41    5.49   0 
   2   8   1    0.90    6.42   0 
   2  16   1   15.78    8.35   0 
  -6  -4  -1  135.40    6.23   0 
  -6  -2  -2   23.47    5.13   0 
  -4  -4   7   90.62    6.32   0 
  -4  -2  -2 1279.52    9.55   0 
  -4   4  -4  183.52    5.86   0 
  -2  -4   3  400.25    9.15   0 
  -2   0   7   12.95    4.72   0 
  -1   3  -3  483.07    7.15   0 
  -1   7  -4 1931.99   11.15   0 
   0   0   3   79.27    6.72   0 
   1   9   5    3.26    5.02   0 
   1  17  -3  137.29   11.32   0 
   2  10   2   90.75    6.27   0 
   2  14   2   18.70    6.82   0 
  -6  -6   7  311.66    8.90   0 
  -5  -5   7    0.96    6.44   0 
  -4   0  -3    5.08    4.76   0 
  -3  -5   4  176.24    7.72   0 
  -2  -4   2    2.25    9.52   0 
  -1  -1  -1 9691.86   31.96   0 
   0   6   6   45.02    5.44   0 
   0  10  -4  180.74    6.82   0 
   0  16  -4  229.26    9.07   0 
   1   3   2  218.94    6.78   0 
   1  11   5   28.38    6.28   0 
   1  13   5    7.75    6.06   0 
   2  10   0  112.75    9.34   0 
   2  12   2  111.30    6.44   0 
   2  14   0   85.90    9.77   0 
  -7  -7   1    8.23    7.12   0 
  -6  -6   0   48.98    5.89   0 
  -6   0  -3    6.21    5.29   0 
  -5   3  -4   20.37    5.58   0 
  -4  -2   8   12.43    5.68   0 
  -3   9  -5   57.95    5.83   0 
  -2   4  -4   95.69    5.25   0 
  -2   4   8   92.76    6.38   0 
  -2  10  -5   75.99    6.31   0 
  -2  12  -5  208.84    7.19   0 
   1   7   4 1808.32   10.85   0 
   2  10   1  381.71    8.94   0 
   2  12   0   78.82    8.53   0 
   2  14   1  459.48   10.45   0 
  -5  -3  -2  148.06    5.77   0 
  -5  -1  -3    7.23    5.31   0 
  -4   2  -4  464.49    6.93   0 
  -3  -3   6   50.12    5.64   0 
  -1   5  -4   25.68    5.25   0 
  -1   5   7   39.06    5.32   0 
   0   2   4   51.11    5.17   0 
   0   4   5  319.83    6.18   0 
   0   8  -4  447.56    7.70   0 
   0   8   6  294.56    6.79   0 
   1   5  -2 1117.07   14.25   0 
   1   5   3    6.24    5.38   0 
   2  12   1  542.95    9.74   0 
  -7  -7   6   50.59    9.91   0 
  -7  -3  -2   41.03    6.20   0 
  -5  -5  -1  334.26    7.13   0 
  -5  -3   8   49.74    6.24   0 
  -3   1   8   21.59    5.41   0 
  -3   7  -5   30.60    5.15   0 
  -2   8  -5   87.11    5.68   0 
  -1  -1   4  601.65    7.51   0 
  -1  11  -5   39.80    6.07   0 
  -1  13  -5   -2.09    6.47   0 
   0   2  -2    0.43    6.83   0 
   0   4  -3 1132.35    9.99   0 
  -8  -8   2  323.10   10.31   0 
  -8  -6   0   19.34    6.24   0 
  -7  -5  -1    5.58    5.66   0 
  -6  -4   8   14.43    6.81   0 
  -5  -7   1  209.78    8.60   0 
  -5   1  -4   19.31    5.78   0 
  -3  -5   3  286.11   10.71   0 
  -3  -1  -3   -2.26    4.88   0 
  -3  -1   7    4.38    5.00   0 
  -2  -2   5   98.58    5.31   0 
  -2   0  -3    3.22    4.92   0 
  -2   2   7   22.20    5.17   0 
  -2   6   8   23.90    5.61   0 
  -1   3   6  160.69    5.70   0 
  -1   7   7   15.32    5.32   0 
   0  10   6   30.20    5.02   0 
   0  12   6   11.23    6.13   0 
   1   7  -3  496.08    9.39   0 
   1   9   4   26.89    5.17   0 
   1  15   4   24.70    6.16   0 
  -6  -8   2   79.19   10.45   0 
  -6  -4  -2   45.99    5.89   0 
  -4  -4   6  203.66    6.69   0 
  -3  -5   0  147.25    7.05   0 
  -3  -3  -2  116.43    5.99   0 
  -3   5  -5   68.14    5.37   0 
  -2  -2  -2 1043.10    9.70   0 
  -2   0   6  891.12    8.18   0 
  -2   2  -4  130.89    5.95   0 
  -2   6  -5  141.78    5.97   0 
  -1   1   5   16.91    4.91   0 
  -1   9  -5    3.04    4.98   0 
  -1   9   7   40.52    6.05   0 
   1  11   4   27.42    5.45   0 
   1  13   4  521.16    7.69   0 
  -6  -2  -3  115.79    5.94   0 
  -4  -6   0  228.20    7.99   0 
  -4  -2  -3   22.05    4.92   0 
  -4   4  -5   12.75    5.40   0 
  -3   1  -4  102.08    5.13   0 
  -1   1  -3 5894.38   18.56   0 
   0   6  -4  103.25    5.58   0 
   0   6   5  296.91    6.05   0 
   1   7   3   -1.22    5.16   0 
   1  13  -4   74.35    7.75   0 
   1  17   3   98.71    8.46   0 
  -7  -7   0  568.15    9.16   0 
  -6  -6   6   22.69    7.86   0 
  -5  -5   6   14.39    6.52   0 
  -4  -6   3  144.78   12.03   0 
  -4  -2   7  324.65    6.88   0 
  -4   0  -4  384.20    6.61   0 
  -4   0   8  459.04    7.39   0 
  -3   3   8   42.72    5.13   0 
  -2  -4   0  903.50   13.46   0 
  -1   5   6   58.40    5.02   0 
  -1   7  -5    5.92    4.89   0 
   0  12  -5  342.05    8.01   0 
   0  14  -5   23.11    7.31   0 
   1   5   2    3.43    5.47   0 
   1  11  -4   15.33    6.45   0 
   1  15  -4  424.12   11.28   0 
  -8  -8   1   16.88    8.07   0 
  -3   3  -5   74.17    5.28   0 
  -2   4  -5  141.36    5.34   0 
  -2   4   7   26.96    5.01   0 
   0   2   3   12.08    5.55   0 
   0   4   4    5.04    4.62   0 
   0   8   5  142.85    5.34   0 
   0  10  -5  176.25    6.57   0 
   1  15   3   27.19    6.20   0 
  -5  -7   0   45.95    6.74   0 
  -5  -5  -2   34.02    5.34   0 
  -5  -1  -4    5.94    4.69   0 
  -4   2  -5   26.24    5.27   0 
  -3  -3   5 1484.97   10.86   0 
  -3   1   7    5.47    4.71   0 
  -1  -1   3    6.97    5.72   0 
   0  10   5  167.27    5.56   0 
   0  14   5   23.51    5.76   0 
   1   9  -4   79.84    6.47   0 
   1   9   3    3.29    4.67   0 
  -7  -5  -2    3.88    5.39   0 
  -5  -3   7   62.03    5.91   0 
  -5  -1   8   30.20    5.96   0 
  -3  -1   6   15.22    4.97   0 
  -3   5   8    8.06    5.25   0 
  -2  -2   4 2592.65   13.63   0 
  -2   2   6  897.40    7.90   0 
  -2   8  -6   96.84    5.81   0 
  -1   3   5  164.69    5.51   0 
  -1   5  -5    2.98    4.86   0 
  -1   7   6   55.59    5.00   0 
   0   8  -5  151.00    5.97   0 
   0  12   5  344.28    6.98   0 
   1  11   3   84.05    5.54   0 
   1  13   3   14.10    5.25   0 
   1  17  -4   51.98   10.41   0 
  -6  -4  -3   34.14    6.08   0 
  -4   2   8   16.66    5.08   0 
  -3  -5  -1    7.62    5.33   0 
  -3  -3  -3  536.45    7.47   0 
  -3  -1  -4   98.67    5.06   0 
  -1   1   4  584.69    7.37   0 
  -1  11  -6   -0.90    5.81   0 
   0   2  -3   10.43    5.36   0 
   0   4  -4    5.96    4.68   0 
  -7  -5   7   77.07    7.84   0 
  -6  -4   7  119.68    7.02   0 
  -6  -2   8    2.29    6.28   0 
  -4  -2  -4  442.34    6.67   0 
  -3   1  -5    6.35    5.02   0 
  -3   5  -6    4.66    5.22   0 
  -3   7   8   32.32    5.40   0 
  -2  -2  -3 1323.74    9.29   0 
  -2   0   5    1.92    4.77   0 
  -2   6  -6   16.68    4.96   0 
  -2   8   7   21.27    5.13   0 
  -1   1  -4  175.78    5.61   0 
  -1   9  -6    4.23    5.82   0 
  -1   9   6  168.00    5.58   0 
  -1  11   6   84.66    5.24   0 
  -1  13   6   17.91    5.47   0 
   0   6   4  111.07    5.34   0 
   1   5   1  159.72    7.42   0 
   1   7   2 3126.13   14.63   0 
  -6  -6  -2   27.28    5.57   0 
  -4  -4   5  157.32    6.91   0 
  -4   0  -5    5.70    5.26   0 
  -3   3   7  235.97    5.82   0 
  -2  10   7 1092.51    9.07   0 
  -1   3  -5  185.69    5.98   0 
   0   6  -5  306.39    6.52   0 
   0  16   4  240.69    7.41   0 
   1   7  -4   60.76    6.12   0 
   1  15   2  166.66    7.48   0 
   1  19   0   34.11   10.11   0 
  -7  -9   2   22.02   10.83   0 
  -7  -7   5   47.79   10.03   0 
  -7  -3   8   54.69    6.99   0 
  -5  -7  -1   74.37    5.91   0 
  -5  -3  -4   29.20    5.24   0 
  -4   0   7   -1.03    4.89   0 
  -4   4   8   37.33    5.82   0 
  -2   4   6  345.84    6.19   0 
  -1   5   5  376.93    6.21   0 
  -1   7  -6  574.79    7.63   0 
   0   8   4  475.04    6.84   0 
   1   9   2   50.84    5.91   0 
   1  13  -5    1.64    6.89   0 
  -5  -5  -3   43.76    5.24   0 
  -5   1   8   23.16    6.10   0 
  -4  -2   6  196.46    6.20   0 
  -3  -5  -2   10.20    5.12   0 
  -3   3  -6   36.67    5.45   0 
   0   2   2    3.72    6.49   0 
   0  10  -6   36.27    6.17   0 
   0  10   4  188.09    6.27   0 
   0  12  -6    2.12    5.84   0 
   0  14   4    3.21    5.40   0 
   1  11  -5   60.41    6.69   0 
   1  11   2   34.32    5.77   0 
   1  13   2  746.25    9.00   0 
   1  17   1  332.48    9.39   0 
  -7  -9   1    4.51    8.40   0 
  -5  -5   5  122.59    7.67   0 
  -4  -6  -2  105.96    5.73   0 
  -3  -1  -5    3.44    5.67   0 
  -3   1   6   14.22    5.46   0 
  -3   5   7   38.41    5.68   0 
  -2  -4  -2  745.12    8.31   0 
  -1   5  -6    4.04    4.82   0 
   0   2  -4   50.86    5.51   0 
   0  12   4    6.32    4.97   0 
   1  15  -5    4.45    8.08   0 
  -4  -2  -5   36.51    5.87   0 
  -4   6   8   30.13    5.49   0 
  -3  -3  -4  108.74    5.32   0 
  -2   0  -5    2.86    5.00   0 
  -2   6   6   62.81    5.10   0 
  -1  -1   2  775.81   12.13   0 
  -1   7   5  136.68    5.51   0 
  -1  15   5    1.34    5.93   0 
  -6  -8  -1  101.27    6.67   0 
  -6  -6  -3   14.90    6.03   0 
  -6  -6   5  922.72   13.46   0 
  -6   0   8  920.65    9.68   0 
  -5  -7  -2   65.11    6.12   0 
  -5  -1   7  827.08    9.07   0 
  -4  -4  -4  180.19    5.82   0 
  -4   8   8  135.80    6.71   0 
  -3  -3   4    5.69    5.95   0 
  -3  -1   5   75.37    5.52   0 
  -3   1  -6   27.15    5.58   0 
  -2   2  -6    9.99    5.14   0 
  -2   2   5  102.23    5.46   0 
  -1   1  -5 1807.55   10.52   0 
  -1   9   5  313.47    6.07   0 
  -1  13   5    5.03    5.95   0 
  -7  -9   0    8.81    7.68   0 
  -5  -3   6   32.06    5.69   0 
  -5   3   8   51.48    5.43   0 
  -4   2   7  312.39    6.13   0 
  -3  -5  -3   99.32    5.46   0 
  -3   7   7    8.38    4.91   0 
  -2   8   6   44.48    5.11   0 
  -1  -1  -4  176.43    5.66   0 
  -1   3  -6   69.26    5.15   0 
  -1  11   5   71.96    5.06   0 
   0   6  -6   41.63    5.22   0 
   0   6   3 2753.03   12.73   0 
   0  16   3    2.04    6.27   0 
   1   7  -5  143.50    5.99   0 
   1   7   1   77.49    6.33   0 
   1  15   1    1.24    6.98   0 
  -5  -5  -4   -0.53    5.19   0 
  -4  -6  -3  532.46    7.67   0 
  -3   9   7   30.21    5.47   0 
  -3  11   7    4.84    5.35   0 
  -2  -2   3 1308.74   11.97   0 
  -2   0   4 1843.41   11.46   0 
  -2  10   6   29.51    5.28   0 
  -2  14   6  102.93    5.99   0 
  -1   1   3    7.02    6.00   0 
  -1   7  -7    2.71    5.60   0 
   0   0  -3   91.57    6.56   0 
   1  17   0   85.64    9.30   0 
   2  10  -3 2344.37   25.84   0 
  -8  -6   6   13.37    8.67   0 
  -7  -1   8   32.85    6.10   0 
  -6  -2   7   11.75    5.41   0 
  -3   3   6   45.02    5.10   0 
  -1  -3  -2  208.04    6.75   0 
   0   2  -5  152.19    5.76   0 
   0   8   3  671.88    7.78   0 
   0  14   3   13.66    5.81   0 
   1   3  -3   32.12    6.12   0 
   1   5   0  360.62   11.91   0 
   1  11  -6   85.04    6.77   0 
   1  13  -6    7.89    7.13   0 
  -7  -9  -1    9.93    7.12   0 
  -7  -5   6   47.05    7.61   0 
  -5  -7  -3    9.42    5.52   0 
  -5   5   8   -0.72    5.21   0 
  -4  -4  -5   16.77    5.70   0 
  -4   4   7   86.90    5.29   0 
  -3  -3  -5   82.82    5.41   0 
  -3  -1  -6   26.78    5.48   0 
  -2  -2  -5  113.43    5.35   0 
  -2   0  -6 1086.19    8.69   0 
  -2   4   5  119.21    5.37   0 
  -1   5  -7   -3.60    5.31   0 
  -1   5   4  518.90    6.68   0 
  -1  17   4   57.69    6.37   0 
   0  18   2    9.43    7.27   0 
   1   9  -6  150.35    6.66   0 
   1   9   1  120.24    6.91   0 
   1  13   1    2.94    6.24   0 
  -8  -4   7   10.07    7.42   0 
  -7  -3   7   21.89    6.29   0 
  -6   2   8    4.74    5.63   0 
  -5   1   7  820.38    8.40   0 
  -3  -5  -4   44.44    5.33   0 
  -2   2  -7    2.54    5.39   0 
  -1  -1  -5 1775.12   10.49   0 
  -1   1  -6   25.69    5.05   0 
   0   0  -4 7440.56   20.32   0 
   0   4   2  564.22    9.12   0 
   0   8  -7   10.04    5.34   0 
   0  12   3  963.57    8.73   0 
   1   3  -4  767.45    8.53   0 
   1  11   1  270.69    7.66   0 
   2  12  -4  180.97   10.63   0 
  -5   7   8  316.53    6.74   0 
  -4  -6  -4   36.45    5.92   0 
  -4  -4   4  264.00    8.40   0 
  -3   5   6    6.48    4.72   0 
  -2  -4  -4   84.03    5.23   0 
  -1   3  -7   29.50    5.34   0 
  -1  15   4  445.15    7.52   0 
   1   7  -6   55.03    5.62   0 
   2  10  -4   60.21    8.17   0 
  -7   1   8   33.30    6.23   0 
  -4  -8  -1   28.16    6.37   0 
  -4  -8   0  160.59    7.95   0 
  -4  -2   5 1292.13   10.39   0 
  -4   6   7   17.57    5.16   0 
  -3   1   5   80.14    5.71   0 
  -2   6   5  778.47    7.63   0 
  -1  -3   0  183.54   12.86   0 
  -1   7   4   56.09    5.21   0 
   0   2  -6   63.78    5.42   0 
   2   8  -3   25.84    9.11   0 
  -6   4   8    9.82    5.33   0 
  -5  -9  -1  226.26    7.42   0 
  -5  -9   0   56.61    7.51   0 
  -4  -8  -2   27.78    5.76   0 
  -4   8   7   33.84    5.23   0 
  -3  -7  -2  329.02    6.96   0 
  -3  -7  -1    7.91    5.79   0 
  -3  -3  -6   27.34    5.40   0 
  -3   7   6  218.46    5.77   0 
  -2  -2  -6    5.69    5.09   0 
  -2  14   5   45.59    6.09   0 
  -1  -3  -4  282.85    6.03   0 
  -1   9   4   93.77    5.28   0 
  -1  11   4    5.83    5.37   0 
  -1  13   4   82.47    5.45   0 
   0   0  -5   60.15    5.40   0 
   0  16   2  722.65    9.51   0 
   2   8  -4  284.19    8.81   0 
  -6   0   7    8.67    5.68   0 
  -5  -1   6    9.34    5.40   0 
  -5   3   7   48.09    5.10   0 
  -4   2   6  193.36    6.08   0 
  -4  10   7   37.41    5.53   0 
  -3  -7   0 1267.31   13.96   0 
  -3  -5  -5   61.66    5.40   0 
  -3   9   6  505.53    7.29   0 
  -3  13   6   57.17    5.42   0 
  -2  -4  -5  142.69    5.50   0 
  -2   0  -7    9.78    5.51   0 
  -2   8   5   26.14    4.91   0 
  -2  12   5    8.64    5.43   0 
  -1  -1  -6   26.87    5.25   0 
  -1   1  -7  481.99    7.27   0 
  -1   3   3   27.90    5.74   0 
   1   9  -7   29.06    6.47   0 
   2  10  -5 2124.44   16.27   0 
   2  12  -5    9.15    7.46   0 
  -6   6   8    1.28    5.20   0 
  -5  -9  -2  170.17    6.84   0 
  -4  -6  -5  100.51    5.95   0 
  -3  -7  -3   26.95    5.35   0 
  -3  11   6  354.58    6.41   0 
  -2  -6  -2  323.84    6.78   0 
  -2  10   5 2394.35   11.18   0 
   0   6   2  175.67    6.62   0 
   2  14  -5   26.01    9.99   0 
  -7   3   8   45.83    6.29   0 
  -6 -10  -1   52.26    7.61   0 
  -6 -10   0  109.99    8.37   0 
  -3  -1   4   82.21    6.08   0 
  -2  -6  -3   55.63    5.10   0 
  -2  -6  -1   -0.00    6.07   0 
  -1  -3  -5  188.12    5.84   0 
  -1  17   3  150.00    6.18   0 
   0  -2  -3   12.97    5.45   0 
   0  14   2   32.73    5.77   0 
   0  18   1   40.94    7.77   0 
   1   7  -7    6.68    5.50   0 
   2   8  -5   22.26    6.33   0 
  -7  -1   7    7.14    5.60   0 
  -5  -9  -3   48.08    6.31   0 
  -5  -5   4  217.34    8.92   0 
  -5  -3   5   36.36    5.87   0 
  -5   5   7   12.41    5.08   0 
  -3  -7  -4   71.46    5.73   0 
   0  -2  -4   51.80    5.07   0 
   0  -2  -2   -0.70    6.64   0 
   0   0  -6 1104.33    8.68   0 
   0   2  -7  110.40    5.52   0 
   1   1  -3    8.82    5.73   0 
  -8  -2   7   81.59    7.02   0 
  -6 -10  -2   38.48    6.88   0 
  -6  -2   6    3.17    5.88   0 
  -6   2   7    9.18    5.72   0 
  -5   7   7   -1.03    5.70   0 
  -4  -8  -4   23.06    5.85   0 
  -4   4   6  209.85    5.61   0 
  -3  -5  -6    9.55    5.22   0 
  -2  -6  -4   95.04    5.23   0 
  -2  -4  -6    3.97    4.99   0 
   0   8   2  221.06    6.35   0 
   0  12   2   46.25    5.50   0 
   2  10  -6   22.38    6.84   0 
   2  12  -6  162.52    8.72   0 
  -5   9   7    4.68    5.45   0 
  -5  11   7   26.06    5.67   0 
  -3  -3   3 5361.00   24.02   0 
  -2   4   4  444.38    6.87   0 
  -2  16   4  321.75    7.46   0 
  -1  -5  -3    4.11    5.25   0 
  -1  -3  -6   63.01    5.50   0 
  -1   5   3 1338.52    9.97   0 
  -1  15   3   23.43    5.51   0 
   0  -2  -5  154.76    5.59   0 
   1   1  -5   15.67    4.96   0 
   2   8  -6   28.56    6.03   0 
  -7  -3   6   48.07    6.98   0 
  -5   1   6    7.19    5.23   0 
  -4   0   5    2.20    4.49   0 
  -3  15   5    4.75    6.11   0 
  -2  -6  -5  158.33    5.90   0 
  -2   0   3    1.87    5.86   0 
  -1  -5  -4   22.15    5.00   0 
  -1  -5  -2    6.22    5.86   0 
  -1   1   2  889.88   12.12   0 
   0   0  -7   37.25    5.44   0 
   1   3  -7  198.68    6.46   0 
   1  11   0    3.00    6.98   0 
  -8  -4   6   -3.20    7.64   0 
  -6  -4   5  344.22    8.36   0 
  -6   4   7  111.68    6.35   0 
  -3   5   5    0.04    4.99   0 
  -1  13   3   32.07    5.64   0 
   0  -2  -6   64.79    5.13   0 
   0  16   1   -2.66    6.77   0 
   1   1  -2  788.07   12.57   0 
   2   6  -6   63.05    5.75   0 
  -7   1   7   14.75    5.31   0 
  -4  10   6   27.14    5.35   0 
  -3   7   5   23.99    5.24   0 
  -3  13   5  240.77    6.31   0 
  -2   6   4  206.93    5.70   0 
  -1  -5  -5    4.70    4.86   0 
  -1  -3  -7   31.70    5.74   0 
  -1   7   3  507.43    7.13   0 
  -1   9   3  872.43    8.72   0 
  -1  11   3  360.30    6.92   0 
   1   5  -8    2.37    5.83   0 
   2   4  -5  104.24    6.25   0 
   2   8  -7   18.21    6.45   0 
  -3   9   5   14.42    5.11   0 
  -3  11   5   33.09    5.35   0 
  -2  -6  -6    9.92    5.55   0 
   2   4  -4  445.56    8.51   0 
  -8   0   7    7.50    6.22   0 
  -6   0   6 3483.21   15.32   0 
  -6  10   7  121.22    6.32   0 
  -5   3   6   31.90    5.34   0 
  -3  -9  -3  115.83    6.13   0 
  -3   1   4   76.51    5.87   0 
  -2  10   4   63.74    5.55   0 
  -1  -5  -6    2.33    5.28   0 
   0  -4  -4    9.06    4.91   0 
   0  -2  -7  111.32    5.78   0 
   0   0  -8  118.84    6.19   0 
   1  -1  -5   14.47    5.07   0 
   1  -1  -4  585.36    7.70   0 
   1   1  -7    3.66    5.07   0 
   1   3  -8   17.65    5.85   0 
   2   4  -6  348.55    7.09   0 
   2   6  -7  323.73    7.11   0 
  -7   3   7   29.23    5.85   0 
   0  -4  -3 1147.06    9.74   0 
   1  -1  -6  130.62    5.59   0 
  -7   1   4    3.68    6.48   0 
  -5   1   6    8.88    7.32   0 
  -5   7  -4   48.81   12.38   0 
  -4   0   0 2666.81   15.81   0 
  -4   8  -5   -2.66    3.31   0 
  -2   2  -3 1306.42   19.25   0 
   2   6  -5  785.56   14.03   0 
   3   5  -4  169.12    8.60   0 
   4   8  -5    8.73    7.29   0 
   4  10   4    8.90    8.95   0 
   5   7  -3  180.73    7.36   0 
   5   9   2  154.73    8.80   0 
  -9   3   4   -0.41    7.52   0 
  -8   2   6  262.99    9.28   0 
  -7   1   5  178.52    7.49   0 
  -6   0   3   15.03    7.30   0 
  -6   2   7   19.80    7.75   0 
  -6   4  -2   43.52    8.73   0 
  -4   0   5    7.04    8.52   0 
  -4   2   7  329.96   12.38   0 
  -3  -1   2  452.13   11.14   0 
  -3   1   6   14.68   11.01   0 
   1   1  -1 3095.94   31.19   0 
   3   3   0   23.68    8.47   0 
   3   7  -5   23.03    8.06   0 
   3   7   4   78.65    9.25   0 
   5   7   0   42.32    6.91   0 
   5  13  -6  181.54    9.49   0 
   6  10  -3  264.58    8.81   0 
   6  12   1  194.33    9.05   0 
  -9   3   6    3.46    8.01   0 
  -8   4   0    3.38    8.53   0 
  -6   0   5    2.59    7.77   0 
  -6   6  -3   28.72   10.30   0 
  -3  -1   3  355.34   10.69   0 
  -2   0  -1    4.90    9.79   0 
   4   8   3   17.95    7.72   0 
   5   7  -2   90.23    6.99   0 
   5   7  -1  209.69    7.65   0 
   5   9  -4    6.75    7.11   0 
   5  11  -5  124.67    8.60   0 
   6  10  -2  158.56    7.92   0 
   6  12  -4   14.12    7.78   0 
  -9   3   2   38.09    8.38   0 
  -7   1   6   44.37    8.23   0 
  -7   3   8   48.50    9.63   0 
  -6   2  -1  131.30    8.93   0 
  -5  -1   3  227.14    8.32   0 
  -3  -1   1  291.73    9.58   0 
  -3   1  -2   36.42    9.02   0 
   1   7   6  596.98   16.04   0 
   2   2  -1 6013.47   28.97   0 
   4   6  -3  142.59    8.12   0 
   4  12  -6   33.91    9.12   0 
  -8   2   7   82.55    8.91   0 
  -7   5  -2   15.91    9.34   0 
  -6   0   1    2.43    7.41   0 
  -5  -1   2  452.28    8.56   0 
  -5  -1   4   82.45    7.98   0 
  -5   1  -1    8.68    6.80   0 
   4   6   1 1219.44   11.63   0 
   5  11   2   73.56    8.60   0 
   6  12  -3  336.80    8.63   0 
  -8   2   1  166.45    7.96   0 
  -7   3  -1   76.59    8.74   0 
  -5   1   7  867.25   14.14   0 
   0   4  -4    2.79   18.50   0 
   1   5   5    9.00   11.09   0 
   2   2   0 4462.53   24.89   0 
   3  11  -6  385.83   11.49   0 
   6  12  -2   -4.84    7.35   0 
   6  12  -1  282.86    8.93   0 
   6  14  -4    6.19    7.82   0 
  -6   0   6 3229.48   17.95   0 
  -5  -1   1   12.07    7.49   0 
  -4   0  -1   -0.00    7.47   0 
  -3  -1   4   83.89    9.27   0 
   2  10  -6   12.30   11.15   0 
   3   5  -3  291.11    8.89   0 
   3   5   2   13.83    7.26   0 
   4   6   0  237.50    8.69   0 
   4   8  -4 1166.34   12.05   0 
   4  10  -5  185.08    8.86   0 
   5   9   0   54.73    6.95   0 
   5  13  -5    7.48    8.67   0 
   6  14  -3    2.31    7.53   0 
  -9   1   4    5.78    7.71   0 
  -9   1   5    8.61    8.00   0 
  -8   0   3    2.11    7.32   0 
  -8   0   4   53.56    7.72   0 
  -8   0   5   -8.67    7.86   0 
  -7   1   0   77.66    8.35   0 
  -6   2   8   11.89   10.41   0 
  -5  -1   5  856.19   10.99   0 
  -4   0   6  528.98   12.63   0 
  -3  -1   0  135.07    8.90   0 
   4   8   2   26.53    7.69   0 
   4  10   3 1587.66   14.74   0 
   4  14  -6   -1.97    8.90   0 
   5   9  -2    6.99    6.96   0 
   5  11  -4    5.66    7.00   0 
   5  13   2   29.19    8.95   0 
   6  14  -1    5.58    7.82   0 
  -9   1   3   12.24    7.80   0 
  -9   1   6    6.08    7.85   0 
  -8   2   0   23.85    8.86   0 
  -7  -1   3  807.04   10.09   0 
  -7  -1   4    2.73    6.84   0 
  -6   0   0 2552.18   14.88   0 
   1   3  -3   31.19   11.40   0 
   2   8   5   91.39   10.16   0 
   3   9   4  171.61    9.70   0 
  -8   0   6   31.50    8.29   0 
  -5   3  -3  212.60   10.75   0 
   0   2   4   56.66   16.63   0 
   2   4  -3  399.47   11.02   0 
   2   6   4  102.90    9.62   0 
   3   7  -4  958.64   12.42   0 
   3   7   3   31.57    7.78   0 
   3   9  -5   19.87    8.37   0 
   3  13  -6   56.38   10.36   0 
   5  11  -3  233.09    8.01   0 
   5  13  -4  153.33    9.27   0 
  -9   1   2   12.05    7.95   0 
  -7  -1   2   48.18    7.27   0 
  -6   0   7    6.07    9.32   0 
  -6   2  -2   22.11    8.21   0 
  -6   4  -3   41.14    9.86   0 
  -4   2  -3   25.07    9.02   0 
  -4   4  -4  192.17   12.04   0 
  -2   0   5    3.52   13.93   0 
   3   5   1    9.54    7.54   0 
   4   8  -3   15.46    6.98   0 
   4   8   1   32.99    7.77   0 
   4  12  -5  252.77    9.38   0 
   4  12   3   -2.78    8.30   0 
   5  11   0    7.11    7.43   0 
   5  13   1    4.86    7.51   0 
  -8   0   7    4.86    8.52   0 
  -7  -1   6   57.25    8.66   0 
  -7   3  -2   50.61    8.96   0 
  -6  -2   3  128.28    7.78   0 
  -6  -2   4    8.11    7.27   0 
  -5   1  -2  109.37    8.26   0 
   2   8  -5   30.31   10.01   0 
   3   5  -2  550.22   10.18   0 
   4  10   2   32.26    8.25   0 
   5  11  -2   11.84    7.36   0 
  -9   1   1    9.95    8.32   0 
  -8   0   1   11.98    7.65   0 
  -7  -1   1 1277.72   11.59   0 
  -7   1  -1  855.17   12.38   0 
  -5  -1   6    4.05    8.58   0 
  -4  -2   4  935.91   12.03   0 
   0  10  -6   40.51   16.47   0 
   2   6  -4  196.51   10.53   0 
   2  12  -6  211.10   12.43   0 
   4   8   0  152.35    8.67   0 
   5  13  -3   25.27    7.69   0 
   5  13   0   53.63    7.76   0 
  -9  -1   4    2.93    8.38   0 
  -9  -1   5    4.02    7.88   0 
  -8   2  -1   23.82    9.51   0 
  -6  -2   5  134.47    7.80   0 
  -6   0  -1    0.71    7.62   0 
  -3  -1  -1   24.74    8.20   0 
  -3  -1   5   76.38   10.68   0 
  -3   3  -4  123.68   12.94   0 
  -2   0  -2 1636.39   18.12   0 
  -1  -1   1 3192.18   32.55   0 
   1   9   6    5.11   11.77   0 
   1  11  -6   95.40   13.59   0 
   3   5  -1  443.79   10.15   0 
   3   5   0  153.72    8.42   0 
   3  11   4  108.30    9.01   0 
   4   8  -1   22.13    7.34   0 
   5  13  -2  100.19    8.11   0 
   5  15  -3    7.18    8.56   0 
  -9  -1   6   14.68    8.36   0 
  -8  -2   4  236.16    8.65   0 
  -6  -2   1    6.17    7.30   0 
  -4   0  -2 1560.26   14.87   0 
  -4   2   8   21.60   15.00   0 
  -4   6  -5  116.74   15.82   0 
  -1  -1   2  833.31   22.83   0 
   1   5  -4  522.41   15.65   0 
   2   4   2  766.91   12.26   0 
   2  10   5   74.92   10.64   0 
   3   7   2  321.44    8.84   0 
   3  11  -5   31.21    8.80   0 
   4  12   2  249.21   10.18   0 
   5  15  -2  159.88    9.52   0 
   5  15  -1   11.87    8.89   0 
   5  15   0  159.24    9.45   0 
  -8  -2   3  430.26    9.26   0 
  -8  -2   5  317.20    9.06   0 
  -8   0   0  441.62   10.22   0 
  -7  -1   0   71.52    8.67   0 
  -7  -1   7   10.71    8.41   0 
  -5  -3   3    4.60    7.33   0 
  -5  -1  -1    9.10    6.75   0 
  -5   1   8   32.58   12.91   0 
  -4  -2   0 2215.35   15.12   0 
  -3   1  -3    8.23   10.16   0 
   2  14  -6   52.60   12.41   0 
   3   7  -3  206.21    9.09   0 
   3  13   4   25.50   10.32   0 
   4  10  -3  832.65   11.21   0 
   4  10   1 2621.78   16.13   0 
   4  12  -4    8.99    7.28   0 
  -8  -2   2  123.58    8.41   0 
  -8  -2   6  251.33   10.29   0 
  -6  -2   6   -1.32    8.12   0 
  -5  -3   2  429.48    8.78   0 
  -4  -2   5 1366.95   15.07   0 
  -3   5  -5   75.98   18.31   0 
   2   4  -2    1.38    9.87   0 
   3   9  -4 1714.68   14.71   0 
   4  14   2  117.24    9.92   0 
  -7  -3   3  123.33    7.83   0 
  -7  -3   4    5.09    7.18   0 
  -6  -2   0   17.83    7.40   0 
  -4   0   7    6.79   12.46   0 
  -3   1   7   11.79   19.09   0 
  -2  -2   1 5782.39   30.08   0 
  -2  -2   2 5966.06   31.39   0 
   2   8   4  613.17   12.06   0 
   3  13  -5  195.27    9.50   0 
   4  10  -2   31.11    7.51   0 
   4  10  -1 2115.06   16.04   0 
   4  10   0   38.22    7.74   0 
   4  12   1   19.68    8.20   0 
   4  14  -4   14.33    8.28   0 
  -8  -2   1  170.99    9.17   0 
  -7  -3   2   84.23    7.70   0 
  -7   1  -2   20.69    9.28   0 
  -6   2  -3  129.90   10.68   0 
  -5  -3   1    2.95    6.85   0 
  -5  -1   7  907.54   15.25   0 
   0   4   5  322.63   15.89   0 
   1   7   5    2.03   10.44   0 
   2  12   5  215.07   11.54   0 
   3   7   1    9.42    7.40   0 
   3  11   3    4.97    8.39   0 
   4  12  -3  210.33    8.45   0 
   4  16  -4   48.06    8.89   0 
  -8  -2   7   81.16    9.82   0 
  -6   0  -2  722.53   11.95   0 
  -5  -3   5   43.34    8.63   0 
  -5   1  -3   -4.20    8.96   0 
  -4  -2  -1   50.32    8.47   0 
   1  11   6   12.15   11.96   0 
   1  13  -6   21.61   12.24   0 
   2   4   1  820.20   12.75   0 
   3   7  -2 2010.83   15.04   0 
   3  15  -5    8.98    9.40   0 
   4  12  -2   36.22    8.14   0 
   4  12   0  261.18    8.97   0 
   4  14  -3  152.42    9.59   0 
   4  14   1   21.06    7.82   0 
  -9  -3   3  265.39   10.33   0 
  -9  -3   4   -3.90    8.80   0 
  -9  -3   5  382.74   10.25   0 
  -8   0  -1   -5.05    8.91   0 
  -7  -3   1  153.64    8.15   0 
  -7  -3   6   50.13    8.83   0 
  -7  -1   8   48.88   11.03   0 
  -6  -2   7   23.78   10.25   0 
  -5   3  -4   28.06   11.80   0 
  -3  -3   2   13.57    9.36   0 
  -3  -1  -2   47.38    9.20   0 
   1   5   4   28.75   10.58   0 
   2   4  -1  995.28   14.98   0 
   3   7   0 1363.22   12.87   0 
   3   9   2  805.63   11.16   0 
   3  11  -4 1278.46   14.09   0 
   4  16   1   14.73    8.69   0 
  -9  -3   6    7.32    8.90   0 
  -6  -4   2   72.23    8.01   0 
  -6  -4   4  203.15    8.49   0 
  -5  -1  -2  117.99    8.91   0 
  -3  -3   1 6768.92   27.03   0 
  -3  -3   3 5605.66   26.38   0 
  -1  11  -6    3.83   17.48   0 
   0  12  -6   18.05   14.23   0 
   2   4   0  944.90   14.27   0 
   3  13   3   39.93    8.93   0 
   4  14  -2   76.80    8.64   0 
   4  14  -1   65.15    9.02   0 
   4  14   0  118.26    8.81   0 
   4  16   0  305.97   10.05   0 
  -9  -3   2   27.52    8.72   0 
  -8  -4   3   43.79    8.23   0 
  -8  -4   4   46.86    8.11   0 
  -8  -4   5   28.08    8.63   0 
  -8  -2   0   17.43    8.78   0 
  -4   0  -3    1.43   10.24   0 
  -4   2  -4  516.87   15.84   0 
  -2   2  -4  132.43   17.14   0 
   2  10   4   66.15    9.71   0 
   2  12  -5   12.85    9.94   0 
   3  13  -4  141.17    9.58   0 
   3  15   3    5.87    9.15   0 
   4  16  -2  104.63    9.98   0 
  -8  -4   2   65.16    8.30   0 
  -7  -3   0  121.41    8.74   0 
  -6  -4   1  407.45    9.48   0 
  -4  -4   2   14.61    8.21   0 
   3   9   1   31.01    8.24   0 
   3  11   2  565.63   10.76   0 
   3  15  -4   46.00   10.30   0 
  -8  -4   6   -2.74    9.15   0 
  -7  -3   7   22.56    9.16   0 
  -5  -3   6   35.31    9.38   0 
  -3  -3   0   20.28    8.92   0 
  -3  -1   6   13.12   12.78   0 
  -2   4   7   23.13   20.49   0 
   1   9   5   13.52   10.32   0 
   2   8   3   63.15    9.28   0 
   2  12   4   34.11    9.79   0 
   2  14  -5   42.27   10.40   0 
   3   9  -2 2858.90   18.09   0 
   3  11  -3  107.81    8.96   0 
   3  13   2   53.60    9.38   0 
  -7  -5   3   14.53    8.23   0 
  -7  -5   4   18.53    7.78   0 
  -7  -1  -2   27.93   10.64   0 
  -5  -3  -1  103.09    8.77   0 
  -3  -3   4   12.08    9.45   0 
   1   3   2  214.33   12.65   0 
   3   9  -1    8.31    7.91   0 
   3  15   2  172.77    9.22   0 
  -8  -4   1   49.28    8.49   0 
  -7  -5   2    0.26    8.14   0 
  -7  -5   5   84.03    9.27   0 
  -6  -4   0    9.42    8.20   0 
  -6   0  -3   10.30   11.23   0 
  -4  -4   4  271.06   10.04   0 
  -4  -2  -2 1336.44   15.14   0 
  -4   4  -5    6.09   16.67   0 
  -2  -2  -1 5808.68   30.12   0 
  -2   0  -3    2.48   13.14   0 
  -1  -1   3   13.06   17.43   0 
   2  14   4    3.07    9.90   0 
   3  11   1    1.68    7.92   0 
   3  13  -3  628.39   10.74   0 
   3  17  -3  243.91   12.66   0 
  -9  -5   3    3.63    8.98   0 
  -9  -5   4   10.52    8.09   0 
  -9  -5   5   12.56    9.16   0 
  -8  -4   7   17.05   10.15   0 
  -7  -3  -1   83.04    9.86   0 
  -6  -2  -2   29.69    9.70   0 
  -5  -5   2  477.32    9.90   0 
   0   8  -5  156.76   14.96   0 
   1  11  -5   69.42   11.16   0 
   2   6  -2  428.96   11.47   0 
   2  10  -4   66.99    9.23   0 
   3  11  -2 2086.90   16.76   0 
   3  13   1  299.23    9.40   0 
   3  15  -3    1.48    8.47   0 
   3  17   1  441.11   11.03   0 
  -7  -5   1    5.53    8.02   0 
  -6  -2   8    9.52   12.04   0 
  -5  -5   4  223.28    8.59   0 
  -5  -1   8   27.26   14.17   0 
  -3  -3  -1 2847.67   19.33   0 
   1   7  -4   61.44   11.55   0 
   2   6   1    3.37    8.01   0 
   2  10   3  188.76    9.84   0 
   3  11  -1   77.95    8.76   0 
   3  13  -2  193.30    8.75   0 
   3  15   1   -0.80    8.39   0 
  -8  -6   3    8.87    8.48   0 
  -8  -4   0   15.11    9.29   0 
  -7  -3   8   45.21   11.27   0 
  -5  -1  -3    2.34    9.96   0 
  -5   1  -4   11.71   12.68   0 
  -3   1  -4  110.47   14.00   0 
   1  13  -5   -7.65   11.36   0 
   2   8  -3   36.58    8.13   0 
   2  12  -4  203.80   10.08   0 
   3  13  -1  536.55   11.43   0 
   3  13   0  128.22    8.87   0 
   3  15  -2   56.19    8.84   0 
   3  15   0   86.10    9.13   0 
   3  17  -1  430.34   12.42   0 
   3  17   0   25.17    8.30   0 
  -8  -6   2   25.77    9.84   0 
  -8  -6   5   -6.73    8.03   0 
  -6  -6   2   56.15    8.87   0 
  -6  -6   3 1069.73   12.14   0 
  -6  -6   4   32.34    9.54   0 
  -6  -4  -1  170.99    9.95   0 
  -5  -3   7   62.52   12.27   0 
  -4  -4   5  170.04   10.53   0 
  -3  -1  -3    3.80   10.86   0 
   0  10   6   38.61   11.55   0 
   1   5   3    4.73    9.50   0 
   1  13   5   13.05   10.02   0 
   1  15  -5    1.55   10.57   0 
   2   6  -1   88.30    9.66   0 
   2   8   2 2283.42   16.29   0 
   2  12   3  453.94   10.75   0 
   2  14  -4  204.82   10.18   0 
   2  14   3  144.70   10.90   0 
   2  16  -4  238.70   10.40   0 
   2  16   3   19.18   10.45   0 
  -8  -6   6   16.95   10.06   0 
  -5  -5   5  124.62    9.25   0 
  -5  -3  -2  150.02    9.71   0 
  -7  -5   7   82.27   10.52   0 
  -6  -6   1  522.75   10.14   0 
  -1   7  -5    3.29   17.29   0 
   0  12   6   14.90   11.85   0 
   1   3   1  396.40   15.13   0 
   2  10   2   90.31    9.20   0 
   2  18  -3   17.92    9.85   0 
  -8  -6   1   13.06    8.68   0 
  -7  -7   3    8.04    9.03   0 
  -7  -7   4  293.27    9.63   0 
  -7  -3  -2   49.03   10.39   0 
   0  10  -5  192.59   13.97   0 
   1   3  -1   79.66   14.20   0 
   1   9  -4   94.91   10.77   0 
   1   9   4   29.60    9.79   0 
   2   8  -2 1835.04   15.68   0 
   2   8   1    9.17    8.21   0 
   2  12  -3   71.85    9.67   0 
   2  16  -3   15.25    9.91   0 
   2  16   2   84.02    9.15   0 
  -7  -7   2  616.63   11.24   0 
  -7  -7   5   53.94    9.85   0 
  -6  -2  -3  118.48   11.54   0 
  -4  -2  -3   30.68   10.52   0 
  -4   0  -4  420.48   15.57   0 
  -1   5   6   65.99   14.89   0 
   2  12   2   90.52    8.67   0 
   2  14  -3  162.90    9.29   0 
   2  14   2   13.95    8.53   0 
   2  18   1   62.81   10.21   0 
  -7  -5  -1   10.44    9.17   0 
  -6  -6   0   57.99    8.30   0 
  -6  -6   6   32.88   10.07   0 
  -5  -5   6   13.59    9.98   0 
  -4  -6   2  422.47    9.96   0 
   0   2   3   13.22   14.30   0 
   0  12  -5  344.51   14.08   0 
   1   3   0  206.79   15.22   0 
   1  11   4   15.14    9.32   0 
   1  13   4  502.12   12.62   0 
   1  15   4   19.33    9.98   0 
   1  17  -4   46.82   10.86   0 
   2   8  -1   22.13    8.85   0 
   2  10  -2  100.04    9.70   0 
   2  10   1  388.24   10.81   0 
   2  16  -2   95.46   10.44   0 
   2  16   1   17.38    8.88   0 
   2  18  -1  107.85   10.08   0 
   2  18   0   -9.33    9.27   0 
  -8  -6   0   19.49    9.43   0 
  -7  -7   1    8.90    8.54   0 
  -6  -4  -2   45.49    8.50   0 
  -5  -7   2   84.69    9.29   0 
  -4  -6   1 1000.14   12.11   0 
   0   4   4    3.07   11.95   0 
   1   7   3    1.51    9.67   0 
   1  11  -4   18.20    9.60   0 
   1  15  -4  282.02   12.03   0 
   2  12  -2   17.44    8.81   0 
   2  12   1  528.93   10.62   0 
   2  14  -2  168.25    8.95   0 
   2  14   1  454.40   10.70   0 
   2  16  -1   12.11    9.40   0 
   2  16   0   77.36    9.19   0 
  -8  -8   2  299.31   11.53   0 
  -8  -8   3   -7.75    9.16   0 
  -8  -8   5   12.51   10.22   0 
  -7  -7   6   64.39   10.32   0 
  -4  -4   6  216.05   12.38   0 
  -3  -5   3  307.68   10.43   0 
  -2  -4   1  965.89   15.87   0 
   0   6  -4  114.94   14.50   0 
   0   8   5  150.16   11.13   0 
   1   5   2   13.07    9.59   0 
   1  13  -4   75.07    9.64   0 
   2  10  -1 1239.92   13.90   0 
   2  10   0  108.22    8.82   0 
   2  14  -1  406.08   11.38   0 
   2  14   0   71.93    8.90   0 
  -7  -7   0  597.98   11.95   0 
  -6  -8   3  346.88   10.51   0 
  -6  -6  -1  110.94    9.72   0 
  -6  -4   8   12.66   13.24   0 
  -5  -7   1  223.49    9.18   0 
  -5  -3  -3  227.30   11.21   0 
  -2  -4   2    3.26   11.19   0 
  -1  -1  -2  304.25   16.76   0 
   1  17   3   91.63   10.51   0 
   2  12  -1  297.24   10.31   0 
   2  12   0   69.06    8.72   0 
  -6  -8   2   85.44    8.85   0 
  -6  -8   4   17.72    8.93   0 
  -5  -1  -4   19.80   11.67   0 
  -4   2  -5   23.82   17.77   0 
  -2  -4   0  978.51   14.91   0 
   0  14   5   12.88   11.09   0 
   1   9   3    3.78    8.17   0 
   1  15   3   26.37   10.25   0 
   1  17  -3  106.64    9.59   0 
  -7  -5  -2   14.96   10.39   0 
  -6  -8   1  250.25    9.68   0 
  -5  -7   0   46.35    8.42   0 
  -5  -5  -2   41.43    9.21   0 
  -1   9  -5   10.27   13.57   0 
   0  10   5  191.66   10.87   0 
   0  12   5  333.13   12.10   0 
   1  11   3   78.68    9.55   0 
   1  13   3   18.04    9.29   0 
   1  15  -3   14.73    9.97   0 
   1  17   2   16.24   10.29   0 
  -7  -9   4   14.10    8.76   0 
  -7  -7   7   62.44   11.03   0 
  -6  -8   5  247.61   10.66   0 
  -5  -7   5   44.92    9.46   0 
  -5  -3   8   61.23   15.23   0 
  -3  -5  -1    3.49    8.80   0 
  -3   5   8    5.03   18.97   0 
  -1   7   6   62.73   13.27   0 
   0  16  -4  178.89   12.61   0 
   1   9  -3  877.15   13.55   0 
   1  17  -2   39.67    9.97   0 
   1  19   0   52.45   10.07   0 
  -7  -7  -1   13.01    9.60   0 
  -6  -8   0  238.38   10.16   0 
  -6  -4  -3   36.04   11.20   0 
  -2   6  -5  147.31   21.59   0 
  -1  11  -5   34.04   13.05   0 
  -1  13  -5    4.74   12.50   0 
   1   5   1  182.91   12.10   0 
   1  11  -3  294.84   10.39   0 
   1  13  -3   18.62    8.65   0 
   1  15   2  143.27    9.53   0 
   1  17   1  253.45   10.68   0 
  -7  -9   5   73.26    9.65   0 
  -6  -6  -2   36.17    9.92   0 
  -5  -5   7   17.61   11.24   0 
  -4  -6   5    8.10    9.72   0 
  -3  -3  -3  550.35   14.02   0 
  -3  -1  -4  114.11   13.77   0 
  -2  -2   5  109.94   19.10   0 
  -2   6   7  322.09   17.33   0 
  -1   3   5  167.86   17.92   0 
   0   8  -4  469.16   14.56   0 
   0  14  -4    4.42   10.79   0 
   0  16   4  188.25   11.58   0 
   1  15  -2  460.05   12.03   0 
   1  17  -1   83.11    9.84   0 
   1  17   0   34.55    9.39   0 
  -8 -10   3   67.69   10.10   0 
  -8 -10   4   14.69    9.28   0 
  -4  -2  -4  506.76   16.24   0 
  -3  -3   6   51.11   14.72   0 
  -1   9   6  181.55   12.71   0 
  -1  11   6   95.74   11.73   0 
  -1  13   6   13.07   10.59   0 
   0  10  -4  189.13   12.03   0 
   0  12  -4   -3.46    9.93   0 
   1   5  -1 1471.57   17.89   0 
   1   5   0  388.40   13.07   0 
   1   7  -2  352.11   11.35   0 
   1   9   2   49.66    8.59   0 
   1  11   2   28.07    8.57   0 
   1  15   1    9.73    8.75   0 
  -7  -9   0    8.89    9.85   0 
  -7  -9   6   18.93   10.38   0 
  -6  -8   6   30.48    9.64   0 
  -5  -9   2    8.59    8.53   0 
  -2   0  -4 1758.23   29.13   0 
   0  14   4   -5.02   10.38   0 
   1  13  -2  176.05    9.73   0 
   1  15  -1    3.97    8.48   0 
   1  15   0  252.64   11.23   0 
  -6  -8  -1   90.86    9.83   0 
  -5  -9   1  444.33   10.88   0 
  -5  -9   3  250.64    9.66   0 
  -5  -7   6  599.81   13.31   0 
  -5  -5  -3   52.00   10.84   0 
  -4  -8   1   24.62    8.72   0 
  -4  -8   3    7.12    9.76   0 
  -4  -6  -2  111.73    9.84   0 
  -3  -5  -2   14.65    9.01   0 
   0   8   4  497.83   12.50   0 
   0  12   4    0.46    9.39   0 
   0  16  -3   -6.76   10.51   0 
   0  18  -2    5.68    9.99   0 
   1   7   1   86.08    9.76   0 
   1   9  -2   15.32    8.42   0 
   1  11  -2   11.02    8.11   0 
   1  13   1   12.78    8.42   0 
  -6 -10   2  189.87    9.75   0 
  -6 -10   4  179.84   10.45   0 
  -5  -3  -4   26.08   13.12   0 
  -4  -8   0  168.16   10.00   0 
  -3  -7   1  218.97    9.97   0 
  -3  -7   2 2128.76   16.54   0 
  -2   8   7   16.91   13.51   0 
  -1  -3   0  204.26   15.65   0 
  -1  -3   1   79.93   14.69   0 
   0  10   4  175.55   10.48   0 
   0  16   3    7.50    8.53   0 
   1   9   1  122.52    9.18   0 
   1  13   0  444.07   11.64   0 
  -7 -11   2   18.94    9.51   0 
  -7 -11   3   13.12    9.68   0 
  -6 -10   1  179.01    9.81   0 
  -6  -6   8   10.63   13.56   0 
  -5  -9   0   49.98    8.69   0 
  -5  -7  -2   64.21   10.06   0 
  -4  -4   7   95.85   14.72   0 
  -3  -7   0 1366.96   14.29   0 
  -3  -5   5   -2.88   10.69   0 
  -3   7   8   33.49   16.04   0 
  -1  15   5   -0.03   10.56   0 
   0  14  -3    9.97    9.62   0 
   0  18  -1   35.03    9.58   0 
   0  18   0    2.13    9.91   0 
   1   9  -1  726.56   12.32   0 
   1   9   0   19.32    8.81   0 
   1  11  -1  441.04   11.22   0 
   1  11   0    8.85    8.52   0 
  -7 -11   4   -1.87    9.38   0 
  -7  -9  -1    1.95   10.12   0 
  -6 -10   5  288.17   12.12   0 
  -6  -6  -3   26.79   11.78   0 
  -4  -8   4 1155.30   13.74   0 
  -4  -6   6  132.99   12.32   0 
  -4   0  -5    7.20   17.08   0 
  -2  -4  -2  745.78   13.45   0 
  -2   8  -5   87.20   17.12   0 
  -2  10  -5   65.91   15.81   0 
   0   2  -2   -1.35   20.65   0 
   0  16  -2  540.00   12.58   0 
   0  16   2  484.48   11.59   0 
  -7 -11   1    9.48    9.74   0 
  -7 -11   5   30.38    9.91   0 
  -6 -10   0  110.72    9.19   0 
  -6  -8  -2  221.58   11.87   0 
  -6  -8   7  101.92   11.81   0 
  -5  -9   5   38.84    9.66   0 
  -4  -8  -1   21.25    9.33   0 
  -1  -3  -1  392.07   16.70   0 
  -1  -3   2 1506.70   23.61   0 
  -1  13   5    5.32   10.06   0 
  -1  17  -3  129.83   12.47   0 
  -1  17   4   50.88   10.18   0 
  -3  -7  -1   16.10    9.37   0 
  -2  -6   1   84.46   10.43   0 
  -2   2   6  956.67   28.44   0 
  -1   5   5  383.61   15.58   0 
   0  12   3  852.31   12.81   0 
   0  16   0  471.55   13.25   0 
  -7 -11   0    5.87    9.40   0 
  -2  -6   0  570.81   12.60   0 
  -2  -6   2  454.98   12.49   0 
  -2  14   6   47.29   12.78   0 
  -1  11   5   68.84   10.88   0 
   0   2   2    3.32   16.41   0 
   0   6  -3 2731.78   25.25   0 
   0  10   3  628.02   12.75   0 
   0  14   2   32.66    8.56   0 
  -6 -10  -1   62.17    9.73   0 
  -6 -10   6   85.70   10.86   0 
  -5  -7   7    1.69   12.00   0 
  -5  -5   8   -0.75   15.01   0 
  -4  -8   5    7.94    9.52   0 
  -4  -6  -3  538.27   12.16   0 
  -4  -4  -4  197.86   13.99   0 
  -3  -5  -3   98.98   10.99   0 
  -1   5  -4   26.25   16.99   0 
  -1   7   5  160.81   13.11   0 
  -1   9   5  312.10   12.04   0 
  -1  11  -4   25.73   11.33   0 
  -1  15   4  319.13   11.74   0 
  -1  17  -2   10.93   10.77   0 
  -1  17   3   83.06   10.22   0 
  -1  19   0   36.22   10.10   0 
  -1  19   1  132.50   11.06   0 
   0   6   3 2729.69   21.51   0 
   0   8  -3  663.67   14.55   0 
   0   8   3  638.79   12.56   0 
  -6 -12   3  403.46   10.86   0 
  -5 -11   1  188.33    9.82   0 
  -5 -11   3  200.06    9.70   0 
  -4 -10   1 2248.68   17.66   0 
  -3  -3  -4  119.16   13.03   0 
  -2  -6  -1   11.10    9.77   0 
  -1  -1  -3 6090.46   48.28   0 
  -1   9  -4   21.26   11.87   0 
   0  12   2   36.54    9.73   0 
   0  14  -1    9.66    8.64   0 
   0  14   0   51.53    8.67   0 
   0  14   1   13.95    8.59   0 
  -7 -13   3    1.21   10.16   0 
  -6 -12   1  340.90   11.05   0 
  -6 -12   4   22.65    9.02   0 
  -5 -11   0   -3.43    9.73   0 
  -5 -11   4    4.89    9.83   0 
  -5  -9  -2  191.56   11.25   0 
  -5  -9   6   -2.03    9.76   0 
  -5  -5  -4    3.18   11.96   0 
  -4 -10   0   32.54    9.90   0 
  -4 -10   3  915.06   13.07   0 
  -4  -8  -2   36.23    8.92   0 
  -3  -7  -2  335.10   10.60   0 
  -2  12   6  176.07   12.43   0 
  -2  14  -4    4.53   11.69   0 
  -1   7  -4 1722.67   24.64   0 
  -1  17  -1  163.10   11.13   0 
  -1  17   2   56.35   10.07   0 
  -6 -12   0   20.63   10.56   0 
  -3  -9   2 2932.88   20.14   0 
  -2  -6   3  758.05   13.50   0 
  -1  15   3    7.71    9.87   0 
  -1  17   0   52.58   10.56   0 
  -1  17   1  113.80   10.30   0 
   0  12   1 1020.70   15.00   0 
  -6 -12   5  308.42   11.77   0 
  -6 -10  -2   36.49   11.44   0 
  -6 -10   7  117.96   13.39   0 
  -4 -10   4   34.09    9.87   0 
  -3  -9   0 2132.73   17.01   0 
  -3   9  -5   45.94   17.13   0 
  -2  16  -3   10.09   11.31   0 
  -1  -3  -2  223.28   13.81   0 
  -1  13  -3    9.18   10.04   0 
   0  10   2  549.17   11.87   0 
   0  12  -1  935.60   15.27   0 
   0  12   0  102.36    9.58   0 
  -5 -11  -1   48.69    9.84   0 
  -5 -11   5  123.83   10.97   0 
  -4 -10  -1 2487.89   18.98   0 
  -4  -2  -5   29.17   16.72   0 
  -3  -9   3    9.71    9.52   0 
  -3  -5   6    7.15   14.94   0 
  -2  -2  -4  120.16   15.97   0 
  -2  10   6    6.14   11.72   0 
  -2  12  -4   26.78   12.12   0 
  -1  11   4    9.89    9.75   0 
   0   8   2  217.04   10.83   0 
  -6 -12  -1  192.37   12.28   0 
  -4  -8   6  580.50   15.57   0 
  -4  -6   7    7.54   14.24   0 
  -3  -9  -1   38.89   10.46   0 
  -3  -7   5   30.30   11.62   0 
  -3  11   7    7.24   12.17   0 
  -2  -6  -2  323.29   11.65   0 
  -2   8   6   31.14   12.11   0 
  -2  16   4  244.68   11.14   0 
  -2  18  -1  106.18   11.42   0 
  -1  15  -1    8.18   10.03   0 
  -1  15   2  285.36   12.84   0 
   0   4   2  580.60   15.20   0 
   0   6   2  174.79   11.75   0 
   0   8  -2  224.91   11.07   0 
   0  10  -1 1714.57   17.25   0 
   0  10   1 1724.71   15.51   0 
  -6 -14   2    1.69   10.04   0 
  -5 -13   2  122.10    9.84   0 
  -5  -9  -3   47.05   11.88   0 
  -4  -6  -4   37.09   12.40   0 
  -3  -1  -5    2.35   19.03   0 
  -3   7  -5   34.42   18.14   0 
  -2   4   6  362.44   17.25   0 
  -2  18   0    5.45    9.90   0 
  -2  18   1  114.88   10.97   0 
  -2  18   2    8.46   10.10   0 
  -1  -3   3   32.16   15.22   0 
  -1  15   0  198.55   11.74   0 
  -1  15   1    6.61    9.27   0 
   0   4  -2  584.80   17.73   0 
   0   6  -2  170.37   12.62   0 
   0  10   0  776.19   12.57   0 
  -6 -14   1    7.83   10.21   0 
  -6 -14   3   -3.54    9.94   0 
  -5 -13   1   39.38    9.49   0 
  -5 -13   3   23.23    9.51   0 
  -5  -9   7    5.18   12.77   0 
  -4 -12   1  109.58    9.43   0 
  -4 -12   2   43.78    8.90   0 
  -4 -10  -2   20.98   10.21   0 
  -4 -10   5  210.24   12.00   0 
  -3  -7  -3   20.50   10.54   0 
  -3   1   7    9.45   22.27   0 
  -2  -8   0 3640.38   21.61   0 
  -2  -8   1   18.99    9.68   0 
  -2   6   6   60.99   12.82   0 
  -2  14  -3   78.97   11.18   0 
  -1   9   4   88.68    9.94   0 
  -1  13  -2  656.84   13.14   0 
  -6 -14   4   -4.01   10.44   0 
  -5 -13   0   59.71    9.66   0 
  -5 -13   4  178.05   11.98   0 
  -5 -11   6   13.71   11.64   0 
  -5  -7   8  331.06   18.01   0 
  -4 -12   0  255.43   11.30   0 
  -4 -12   3  226.24   10.80   0 
  -3  -9   4 1694.41   17.24   0 
  -3  -5  -4   44.43   12.02   0 
  -3   5  -5   54.68   21.25   0 
  -3   9   7   35.78   12.80   0 
  -3  13  -4   11.09   12.82   0 
  -2  -6   4  204.18   13.01   0 
  -2  12   5   18.01   10.20   0 
  -2  16   3    7.27    9.07   0 
   0   8  -1 1655.14   16.99   0 
  -3  -9  -2  699.81   12.75   0 
  -2  -8  -1    2.46    9.17   0 
  -2  -4   5  122.22   17.59   0 
  -2  14   4  162.68   10.52   0 
  -2  16  -1   14.16   10.32   0 
  -1  -5  -1  174.06   12.16   0 
  -1   7   4   61.31   11.08   0 
  -1  11   3  321.29   10.38   0 
  -1  13  -1   -0.61    9.92   0 
  -1  13   2  138.04    9.95   0 
   0   8   0   94.22   10.53   0 
  -5 -13  -1    9.16   10.33   0 
  -3 -11   0 1554.28   16.37   0 
  -3 -11   1   86.14    9.85   0 
  -3 -11   2 2117.17   17.78   0 
  -3   7   7   11.70   12.97   0 
  -3  15  -3   -0.78   11.54   0 
  -1   9  -3    0.51   10.50   0 
  -1  13   1   30.01    9.68   0 
   0   2   1 1204.22   27.58   0 
  -5 -13   5   14.07   11.62   0 
  -4 -12  -1   15.30    9.37   0 
  -4  -4  -5    2.49   15.53   0 
  -4   8   8  132.43   15.38   0 
  -3  15   5    8.67   10.25   0 
  -2  -8   3   28.15    9.89   0 
  -2  -6  -3   56.66   11.28   0 
  -2  14  -2   23.42   10.54   0 
  -2  16   0   75.89    9.92   0 
  -2  16   1   20.92    9.50   0 
  -1  -5   2 1121.36   17.68   0 
  -1   3   4  783.02   19.81   0 
  -1   5   4  516.73   14.89   0 
  -1  11  -2   27.20    9.43   0 
   0   4   1 3521.55   28.87   0 
   0   6  -1 9869.12   39.64   0 
  -5 -11  -3   -0.48   12.41   0 
  -3 -11  -1   12.76    9.06   0 
  -3 -11   3  100.32    9.69   0 
  -3   5   7   35.93   14.98   0 
  -3  17  -1  222.98   12.46   0 
  -2  -8  -2 2027.32   18.37   0 
  -2  14   3  152.46   10.34   0 
  -1  -3  -3  462.09   16.92   0 
  -1  11   2   10.26    9.74   0 
   0   6   0  230.14   12.59   0 
  -5 -15   1    5.79   10.09   0 
  -5 -15   2  189.74   11.55   0 
  -5 -15   3    4.31    9.82   0 
  -4  -8  -4   10.19   12.18   0 
  -4   6   8   25.03   16.08   0 
  -3   3   7  223.83   19.20   0 
  -3  17   0   12.93   11.34   0 
  -3  17   2   18.20   11.32   0 
  -2  -4  -4   90.98   13.29   0 
  -2  12   4  188.28   11.03   0 
  -1  -5  -2    6.92   10.50   0 
  -1   7  -3    3.80   12.04   0 
   0   2  -1 1163.24   30.05   0 
   0   4  -1 3525.34   30.55   0 
  -5 -15   0  162.13   11.70   0 
  -5 -13  -2   28.20   11.02   0 
  -4 -14   1   75.59   10.04   0 
  -4 -14   2   78.73   10.29   0 
  -4 -12  -2  255.35   11.74   0 
  -4 -12   5  211.55   12.08   0 
  -4  -8   7   36.18   14.36   0 
  -3  -7  -4   64.00   11.94   0 
  -3  -3  -5   62.68   15.90   0 
  -3  15  -2   68.80   12.07   0 
  -3  15   4   60.19   10.58   0 
  -2 -10   0  112.05    9.74   0 
  -2 -10   1 1318.28   14.66   0 
  -2  14   2  107.56   11.37   0 
  -1  11   1  439.06   11.47   0 
   0   4   0 1732.50   23.37   0 
  -5 -15   4   81.83   11.25   0 
  -5 -13   6  150.29   13.20   0 
  -5 -11   7   24.36   12.83   0 
  -4 -14   0  149.78   10.17   0 
  -4 -14   3  166.18   10.46   0 
  -3 -11   4 1108.22   15.61   0 
  -3  13  -3   24.09   11.02   0 
  -3  13   5  161.60   12.18   0 
  -2 -10   2   98.74   10.84   0 
  -2   8   5   16.10   10.92   0 
  -1  -7   0 2124.74   18.69   0 
  -1  11   0    5.55    8.82   0 
  -3 -13   0  118.83   10.76   0 
  -3 -13   1  638.61   12.45   0 
  -2  14   1  277.73   11.17   0 
  -1  -7  -1   77.29   10.11   0 
  -1  -7   1  548.57   12.83   0 
  -1   7   3  485.74   12.53   0 
  -4 -14   4   21.28   10.96   0 
  -4   2   8    8.57   19.58   0 
  -3 -13   2  220.71    9.90   0 
  -3  15  -1    4.44    9.57   0 
  -3  15   3    8.86    9.29   0 
  -2  -8  -3   57.77   10.19   0 
  -2  -8   4  284.08   12.77   0 
  -2  12   3   70.32    9.52   0 
  -1  -5   3 1320.84   19.73   0 
  -1   9   2   13.08    9.08   0 
  -4 -10  -4    6.98   12.14   0 
  -4  16   4   45.32   10.57   0 
  -3 -13  -1  232.28   10.58   0 
  -3 -13   3  529.16   12.94   0 
  -2 -10  -2   93.02    9.69   0 
  -2 -10   3 2447.80   19.70   0 
  -2  -6   5  770.55   19.63   0 
  -1  -7   2  350.10   12.15   0 
  -1   5  -3    8.92   13.22   0 
  -4 -14  -2   97.84   12.03   0 
  -4  16  -1   18.39   10.60   0 
  -3 -11  -3   11.47   10.22   0 
  -3  -5  -5   58.99   14.99   0 
  -3  13   4  148.78   10.01   0 
  -3  15   1   17.35    9.53   0 
  -3  15   2   37.63    9.54   0 
  -2  -6  -4   83.90   12.15   0 
  -2  12   2   14.26    9.91   0 
  -1  -7  -2 3047.42   22.13   0 
  -1  -5  -3    9.77   12.04   0 
  -1   9  -1  120.91    9.70   0 
  -1   9   1  745.28   12.88   0 
  -4 -16   0  173.99   11.85   0 
  -4 -16   1    4.42   10.37   0 
  -4 -16   2  114.38   11.19   0 
  -4  12   6   23.63   11.43   0 
  -4  14   5   96.71   10.83   0 
  -4  16   3   18.85   10.19   0 
  -3 -11   5   23.24   10.96   0 
  -2 -12   1  312.84   10.87   0 
  -1   9   0   17.69    9.51   0 
  -4 -16   3   12.44   10.06   0 
  -4 -14   5   88.45   12.08   0 
  -4 -10   7   33.09   14.63   0 
  -4  14  -2   77.63   11.63   0 
  -4  16   0  190.14   11.51   0 
  -4  16   1    7.60   10.20   0 
  -4  16   2  114.60   11.15   0 
  -3 -13   4  108.67   11.11   0 
  -2 -12   2   22.37    9.87   0 
  -1  -9   0   21.75    9.51   0 
  -1   5   3 1315.38   17.35   0 
  -1   7  -2 3133.70   24.05   0 
  -4 -16  -1   16.82   10.27   0 
  -4  -6   8   15.17   23.59   0 
  -4  12  -3   10.76   11.61   0 
  -3 -15   0   84.35   10.22   0 
  -3 -15   1   -0.30    9.63   0 
  -3 -15   2   56.48    9.95   0 
  -3  -9   6  472.69   16.05   0 
  -3  13   3  416.32   12.12   0 
  -1  -9   1  740.02   12.76   0 
  -1   7   2  341.52   11.23   0 
  -4 -16   4   36.67   10.90   0 
  -4  14   4   12.34    9.45   0 
  -3 -15  -1    4.93    9.37   0 
  -2   4   5  117.30   13.57   0 
  -5  11   7   17.95   11.61   0 
  -4  14  -1   12.56   11.26   0 
  -3 -15   3   16.61    9.62   0 
  -3  -7  -5   30.29   13.30   0 
  -3  13   2  164.14   10.29   0 
  -2 -12  -2   95.21    9.79   0 
  -2 -12   3   69.24   10.83   0 
  -2   4  -4   84.25   16.70   0 
  -1  -9  -2   43.23   10.31   0 
  -1  -9   2   14.91   10.09   0 
  -1  -7  -3    1.32   10.10   0 
  -1  -7   3  516.72   14.28   0 
  -4  10   6   18.24   10.02   0 
  -3   9   5   23.79   10.12   0 
  -3  13   1  426.19   12.49   0 
  -2 -14   0   74.22    9.73   0 
  -2 -14   1  398.06   11.27   0 
  -2  -8   5   22.49   12.65   0 
  -2  10   2   93.60    9.73   0 
  -1   3  -3  471.78   21.63   0 
  -1   7  -1   82.44   10.06   0 
   0  -2  -1 1210.42   26.78   0 
  -5  15   4   88.47   10.57   0 
  -4   4  -5    7.43   19.03   0 
  -4  14   3  129.36   10.40   0 
  -3 -15  -2   84.01   10.60   0 
  -2 -14  -1  336.41   11.96   0 
  -1 -11   0    6.76    9.03   0 
  -1  -3   4  804.22   30.54   0 
  -1   3   3   34.05   13.22   0 
  -5  13  -2   31.67   11.66   0 
  -5  15   0  146.00   11.49   0 
  -5  15   3    1.69   10.13   0 
  -4   6   7   14.01   13.27   0 
  -4   8  -4    7.46   13.58   0 
  -4  14   2   63.67    9.71   0 
  -3 -17   0   14.17   10.24   0 
  -3 -17   1  435.65   13.34   0 
  -3 -15   4   37.55   11.90   0 
  -3   5   6    9.60   12.32   0 
  -2 -14   2  133.58    9.92   0 
  -1 -11   1  440.43   11.36   0 
   0  -4  -1 3440.82   28.24   0 
  -5  13   5   12.37   10.81   0 
  -5  15   1    7.77   10.28   0 
  -3 -17  -1  232.16   11.90   0 
  -3 -17   2    3.99   10.34   0 
  -3  -9  -5   43.77   14.05   0 
  -2 -14  -2   17.44    9.73   0 
  -2   8   3   26.99    9.68   0 
  -1 -11  -2   25.71   10.38   0 
  -1  -9  -3   -0.43    9.47   0 
  -1  -5  -4   18.94   12.65   0 
  -1   5  -2    7.05   11.25   0 
  -1   5   2 1113.54   17.47   0 
  -5   9   7   15.03   11.90   0 
  -5  11  -3   14.03   12.70   0 
  -4  12   4    4.34    9.13   0 
  -3 -17   3  307.40   13.76   0 
  -3 -15  -3    7.64   10.88   0 
  -3 -13  -4   12.12   11.69   0 
  -3  -7   7    3.35   18.53   0 
  -3  11  -1   13.99   10.13   0 
  -2 -14   3  148.74   11.04   0 
  -2   2   5  103.05   16.30   0 
  -2   8  -2 2092.44   19.89   0 
  -1 -11   2   21.93    8.79   0 
  -1  -9   3  843.62   14.49   0 
  -1  -5   4  523.26   18.75   0 
   0  -6   0  222.09   12.79   0 
  -5  11   6   18.36   11.47   0 
  -2 -16   0   67.66   10.22   0 
  -2 -16   1    3.97    9.69   0 
  -2 -10   5 2042.51   22.93   0 
  -2   6  -3   47.83   13.11   0 
  -1 -13   0  442.63   12.17   0 
   0  -4  -2  597.54   15.83   0 
   0  -4   1 3446.06   30.39   0 
   0  -2  -2   -2.98   16.96   0 
  -5   5   8    1.67   14.59   0 
  -5  13  -1   -3.64   11.56   0 
  -4  12  -1   20.13   10.49   0 
  -3 -15   5   12.40   11.36   0 
  -3   7   5   31.71   10.31   0 
  -2 -16   2  113.81   11.58   0 
  -2 -14  -3   83.08   12.16   0 
  -1 -13  -1   -5.37    9.04   0 
  -1 -13   1   20.16    9.29   0 
   0  -2   1 1202.48   31.03   0 
  -4  12   3  123.33   10.33   0 
  -2   8   2 1794.77   16.95   0 
  -1  -7   4   62.62   13.49   0 
   0  -8   0   89.86   10.79   0 
   0  -6   1 9898.93   38.88   0 
  -6  10   7   72.32   12.22   0 
  -6  12   6   14.49   10.91   0 
  -6  14   4    1.13   10.54   0 
  -4  12   2   46.14    9.50   0 
  -2 -14   4  151.32   11.79   0 
  -2   8  -1   10.67    9.40   0 
  -1 -13   2  171.37   10.68   0 
  -1  -9  -4   20.73   10.81   0 
  -1   5  -1  181.57   13.27   0 
  -1   5   1 1393.24   18.44   0 
   0  -8  -2  210.94   11.26   0 
  -5  11  -2   68.33   12.17   0 
  -5  13   3   19.49    9.56   0 
  -4  10  -2   22.11   11.36   0 
  -3  -9   7   23.94   16.73   0 
  -3  -5  -6   14.77   20.09   0 
  -3   3   6   52.18   13.42   0 
  -2 -18   0   11.44   10.46   0 
  -2 -12   5   11.52   12.24   0 
  -2   8   0 3502.10   22.26   0 
  -2   8   1   24.48   10.03   0 
  -1 -15   0  245.73   11.99   0 
  -5   7  -4   34.57   14.67   0 
  -5   7   7    6.90   11.54   0 
  -3   7  -3   27.06   11.87   0 
  -3   9   3   16.58    9.70   0 
  -2 -18  -1  116.21   10.86   0 
  -2 -18   1   90.57   11.12   0 
  -2 -16  -3    2.82   11.47   0 
  -2 -14  -4    1.35   11.11   0 
  -2  -6   6   67.59   19.95   0 
  -2   6   3  742.66   13.72   0 
  -1 -15   1   -1.02    9.63   0 
  -1  -9   4   83.91   12.17   0 
  -1   5   0  370.97   14.13   0 
   0 -10   0  813.52   12.86   0 
  -5   9   6    8.98    9.99   0 
  -4   8  -3   15.10   12.05   0 
  -2   4   4  448.98   14.29   0 
  -1 -13   3   40.54   10.34   0 
  -1 -11  -4   24.73   10.44   0 
   0  -4  -3 1139.12   18.85   0 
  -5   3   8   36.79   14.78   0 
  -3   9  -1   34.94    9.13   0 
  -2  -8   6   38.24   16.24   0 
  -1 -15   2  319.02   12.88   0 
  -1   1   3    9.69   15.99   0 
   0 -12  -1 1053.74   15.14   0 
   0  -6   2  174.76   13.06   0 
  -6   6   8    5.06   12.53   0 
  -5  11   4   12.22    9.45   0 
  -4   8   5   14.23   10.18   0 
  -3 -11   7    5.14   14.84   0 
  -3   5   5   -3.59   10.83   0 
  -2 -14   5   22.98   11.77   0 
  -2   2  -4  126.90   19.72   0 
  -2   6  -2  319.57   13.32   0 
  -1 -17  -1  147.62   12.26   0 
  -1 -17   0   21.46   10.04   0 
  -1 -15  -3   18.07   10.85   0 
  -1 -11   4    6.56   10.63   0 
  -1   3   2 1473.51   21.75   0 
   0 -12   0  121.36    9.99   0 
   0  -4   2  592.56   18.61   0 
  -6  10   6   59.12   10.77   0 
  -6  12   4   15.51    9.77   0 
  -4   2  -5   19.71   19.43   0 
  -3   9   0 2068.79   17.95   0 
  -3   9   1    4.39    9.43   0 
  -2   0   5    5.21   17.98   0 
  -1 -17   1  112.83   10.61   0 
  -1  -7  -5   -2.58   13.06   0 
  -1  -5  -5    1.87   14.20   0 
   0 -12  -2   31.14    9.53   0 
   0 -12   1 1029.65   15.45   0 
  -6  12   0    7.74   10.18   0 
  -5  11   3  166.40   10.77   0 
  -2 -10   6   24.73   14.20   0 
  -1 -17  -2   13.17   10.22   0 
  -1 -15   3   12.10   10.94   0 
  -1  -9  -5    7.50   11.89   0 
   0 -14  -1    4.62    9.05   0 
   0 -14   0   42.18    9.82   0 
   0 -10   2  552.91   12.51   0 
   0  -2  -3   10.21   15.77   0 
  -6  12   1  204.54   11.13   0 
  -6  12   2   -1.23    9.54   0 
  -6  12   3  184.21   11.49   0 
  -5   9   5   30.37    9.97   0 
  -4   2   7  304.05   16.10   0 
  -4  10   1 2090.34   17.47   0 
  -4  10   2   29.98    9.79   0 
  -2   4  -3  356.06   16.91   0 
  -2   6   2  438.15   12.43   0 
  -1 -17   2   68.80   10.09   0 
  -1   3  -2  204.69   14.98   0 
  -5  11   2   20.77    9.32   0 
  -2  -6  -6    2.84   17.31   0 
  -2   6  -1   -1.90   10.05   0 
  -1 -19   0   44.48   10.83   0 
  -1 -17  -3  128.97   11.42   0 
  -1 -15  -4   21.12   11.39   0 
   0 -14   1   -0.06    8.75   0 
   0 -12   2   32.89    9.85   0 
   0  -6  -4  101.13   12.91   0 
  -7  11   5   18.48   10.39   0 
  -4   8  -2   29.11    9.82   0 
  -3   1   6   16.40   13.94   0 
  -3   7   3  203.94   10.30   0 
   0 -16  -1    5.15    9.81   0 
   0 -16   0  431.35   14.50   0 
  -5   5  -4   -0.18   14.80   0 
  -5   7  -3   15.12   12.49   0 
  -2   6   0  579.07   13.00   0 
  -2   6   1   84.99   10.94   0 
  -1 -15   4  292.52   13.44   0 
  -1 -13  -5    9.07   10.85   0 
   0 -14   2   33.81   10.20   0 
   0 -12  -4   10.62   10.16   0 
  -7  11   4   -7.35   10.22   0 
  -6   4   8    8.91   12.09   0 
  -4   4   6  200.81   12.88   0 
  -4   6   5   17.49    9.78   0 
  -2   4   3  401.75   13.97   0 
   0 -16   1    7.05    9.26   0 
   0 -10   3  676.94   14.07   0 
   0  -8   3  680.63   15.16   0 
   0  -4  -4    2.79   13.40   0 
  -7  11   1   14.84   10.82   0 
  -6  10   4  122.94   10.57   0 
  -5   9  -1  208.96   11.21   0 
  -4   6  -3  536.12   14.93   0 
  -3   3  -4  115.00   16.43   0 
  -3   7  -1    7.05    9.85   0 
  -3   7   2 2001.84   17.24   0 
  -2 -14   6   75.22   14.68   0 
  -1  -9   5  313.89   15.22   0 
  -1   3   1   69.54   15.61   0 
   0  -6   3 2794.13   26.05   0 
   1 -11  -1  454.39   11.72   0 
   1  -9  -2   20.26   10.05   0 
   1  -7  -1  536.36   13.26   0 
  -7  11   2    3.45   10.19   0 
  -7  11   3   16.46   10.11   0 
  -4   8  -1   33.28    9.87   0 
  -4   8   3   11.68    9.25   0 
  -3   5   4  179.88   11.09   0 
  -2   2   4 2758.52   26.33   0 
  -1 -11   5   72.60   12.47   0 
   0 -18  -2   23.06   10.24   0 
   0 -18   0   11.32   10.12   0 
   1 -11  -2   15.11    9.14   0 
   1 -11   0    3.68    8.98   0 
   1  -9   0   13.78    9.71   0 
   1  -7  -2  337.04   11.44   0 
  -7   7   7   53.59   11.51   0 
  -6  10   3  223.00   11.20   0 
  -5   9   3  255.95   10.19   0 
  -3   7   0 1286.04   14.57   0 
  -3   7   1  195.90   10.54   0 
  -1 -13   5    4.84   12.40   0 
  -1   3  -1  380.87   17.74   0 
   0 -14   3    7.72    9.99   0 
   1 -13  -2  144.37   10.05   0 
   1 -13  -1   16.58    9.65   0 
   1  -7   0 2154.13   18.89   0 
  -6  10   2  167.58   10.39   0 
  -5   7   5   32.78    9.59   0 
  -5   9   0   57.28    9.45   0 
  -5   9   2   14.97    9.53   0 
  -4   8   0  152.26   10.14   0 
  -4   8   2  794.74   12.69   0 
  -1 -11  -6    1.12   13.30   0 
  -1  -9  -6   -2.66   13.45   0 
  -1   3   0  197.53   18.21   0 
   1 -13   0  521.48   11.89   0 
   1  -5  -1 1444.16   19.29   0 
  -6   6  -3   17.03   13.10   0 
  -6   8   5  208.47   10.55   0 
  -5   3   7   53.53   12.47   0 
  -4   0   7   -8.68   15.53   0 
  -4   8   1   21.12    9.16   0 
  -1 -15   5    4.28   12.55   0 
  -1   1  -3 6095.23   59.18   0 
   0 -18   2   21.28   10.25   0 
   0 -14  -5   19.18   10.97   0 
   0  -6  -5  286.59   14.98   0 
   0  -2   2   -0.93   22.26   0 
   1 -15  -2  257.20   12.63   0 
   1 -15  -1    2.96    9.45   0 
   1 -15   0  192.85   11.72   0 
   1 -11   1  265.51   10.38   0 
   1  -9   1  132.05    9.78   0 
   1  -5  -2 1128.12   17.41   0 
  -8  10   3   47.16   10.59   0 
  -8  10   4    1.54   10.30   0 
  -5   5   6   24.24   10.04   0 
  -5   7  -2   59.99   10.26   0 
  -2   4  -2  747.09   15.94   0 
   0 -16   3   -1.17   11.13   0 
   1 -15  -3   13.08    9.28   0 
   1 -13   1    1.84    9.30   0 
   1  -7   1   84.51   10.93   0 
   1  -5   0  372.91   15.19   0 
  -7   9   0    7.33    9.98   0 
  -6   2   8    9.93   13.01   0 
  -6   8  -1   90.56   10.71   0 
  -2   4   2    0.24   12.61   0 
   1 -17  -2   42.90   10.37   0 
   1 -17  -1  121.05   10.13   0 
   1 -17   0   35.19    9.73   0 
   1 -15   1   -0.77    8.99   0 
   1 -11  -4   14.94    9.10   0 
  -7   7   6   53.54   11.33   0 
  -6   6   6   27.00   10.50   0 
  -6   8   4   16.72    9.86   0 
  -5  -1   8   34.01   16.08   0 
  -5   7   4  342.04   11.58   0 
  -4   6  -2  106.85   10.67   0 
  -3   5  -2   16.80   11.20   0 
  -3   5   3  296.49   11.40   0 
   0 -12   4   -2.11   10.70   0 
   0 -10   4  192.24   12.62   0 
   1 -17  -3   59.99   10.47   0 
  -7   9   1    2.61    9.19   0 
  -7   9   3   19.02    9.42   0 
  -5   5  -3   47.52   12.73   0 
  -1  -5  -6    3.76   18.22   0 
   0 -14   4    5.96   11.21   0 
   0  -8   4  474.58   15.49   0 
   1 -17   1  158.35   10.45   0 
   1 -13   2  638.93   13.81   0 
   1 -11   2   38.40    9.82   0 
   1  -9   2   57.13   10.75   0 
   1  -7  -4   59.08   10.63   0 
  -7   3   8   38.71   12.59   0 
  -5   3  -4   20.48   13.91   0 
  -5   7  -1   79.46   10.56   0 
  -4   2   6  196.38   12.80   0 
  -4   4   5  165.83   10.82   0 
   0  -2  -4   54.21   19.59   0 
  -4   6   3  147.98   10.08   0 
  -2 -10   7 1088.11   27.89   0 
  -2   4  -1  792.07   15.74   0 
   1 -13  -5    0.00   10.05   0 
   1  -5   1  186.81   13.46   0 
  -8   8   4  252.82   12.08   0 
  -7   7  -1    7.17   11.28   0 
  -7   7   5   46.24    9.81   0 
  -6   6  -2   32.94   10.89   0 
  -4   4  -3   41.94   11.62   0 
  -4   6  -1 1269.80   15.10   0 
  -3  -1   6   16.36   14.70   0 
  -2   4   1  986.07   16.44   0 
   0  -8  -6  301.13   15.94   0 
   0  -4  -5  303.84   17.67   0 
   1 -17   2   21.24   10.44   0 
   1 -15  -5   -2.29   11.42   0 
   2 -14  -1  255.47   11.46   0 
   2 -12  -2   14.13    9.53   0 
   2 -12  -1  276.17   11.28   0 
   2 -10  -2  107.14   10.02   0 
  -8   8   1   17.03   10.48   0 
  -5   7   0   48.76    9.22   0 
  -4   0  -5   11.77   17.89   0 
  -3   3   4    8.50   10.97   0 
  -3   5  -1    7.98    9.96   0 
  -3   5   2  558.34   12.94   0 
  -2   4   0  940.45   16.43   0 
  -1 -13   6   24.07   15.07   0 
  -1 -11   6   71.36   16.79   0 
   2 -16  -2   97.13   10.33   0 
   2 -12   0   64.79    9.61   0 
   2 -10  -1 1290.65   14.01   0 
  -8   6   6   13.74   10.24   0 
  -8   8   2  314.43   10.89   0 
  -8   8   3    7.36    9.34   0 
  -6   4  -3   44.67   13.33   0 
  -5   1   7  889.92   16.77   0 
  -5   7   1  219.52   10.55   0 
  -4  -6   8   23.26   23.40   0 
  -4   6   0  231.01   10.95   0 
  -4   6   2  423.08   10.76   0 
  -1   1   2  855.43   23.89   0 
   1 -13   3    5.89   10.35   0 
   1  -3  -2 1510.86   21.94   0 
   1  -3  -1   77.63   15.78   0 
   2 -18  -2    7.46   10.12   0 
   2 -16  -3   21.43    9.60   0 
   2 -16   0   66.86    9.87   0 
   2 -14   0   74.25    9.48   0 
   2 -10   0  115.85   10.22   0 
   2  -8  -2 1783.24   16.43   0 
  -7   5  -2   11.90   12.53   0 
  -6   0   8  992.97   17.92   0 
  -5   3   6   35.12   10.02   0 
  -4   2  -4  535.44   17.27   0 
  -4   6   1 1003.14   13.13   0 
  -3   5   0  154.72   10.25   0 
  -2   2  -3 1391.96   22.90   0 
   0  -6   4  120.65   16.42   0 
   1 -15   3   14.11   10.67   0 
   1  -7  -5  135.19   12.58   0 
   2 -18  -3   41.36   10.78   0 
   2 -18  -1   94.31   10.74   0 
   2  -8  -3   28.91   10.22   0 
   2  -8  -1   24.21    9.89   0 
  -8   4   7   16.30   11.12   0 
  -7   5   6   40.46   10.01   0 
  -7   7   3   -1.18    9.29   0 
  -6   4   6   87.65   10.74   0 
  -6   6  -1  105.85   10.63   0 
  -5   5  -2   36.55    9.88   0 
  -3   1   5   79.61   12.49   0 
  -2   2   3 1375.21   19.39   0 
   0 -14   5   23.86   13.23   0 
   1 -17   3  226.54   12.94   0 
   1 -13  -6    9.32   11.89   0 
   1  -9   3    4.78   11.57   0 
   2 -18   0   -0.43   10.04   0 
   2 -12   1  522.11   12.65   0 
   2 -10  -4   47.68    9.48   0 
  -8   6   5   -2.22    9.97   0 
  -7   1   8   18.34   11.69   0 
  -7   3   7   24.08   10.82   0 
  -7   7   2  576.95   12.62   0 
  -6   2   7   12.79   11.01   0 
  -6   6   4   43.87    8.95   0 
  -4   4   4  270.09   11.14   0 
   0  -6  -6   51.89   15.56   0 
   1  -3   0  204.19   16.69   0 
   2 -16   1   30.48    9.92   0 
   2  -8   0 3607.68   21.16   0 
  -8   6   0   12.03   10.36   0 
  -5   5   4  223.19   10.27   0 
   1  -3  -3   33.95   11.98   0 
   2 -18   1  101.68   11.14   0 
   2 -14  -5   28.42   10.27   0 
   2 -12  -5    6.52   10.11   0 
   2  -8  -4  280.94   10.57   0 
  -8   6   4   24.76    9.59   0 
  -6   6   0   54.78    9.27   0 
  -6   6   3 1197.62   13.43   0 
  -5  -3   8   48.83   15.24   0 
  -4   4  -2  631.28   13.52   0 
  -3  -1  -5    8.63   17.19   0 
  -3   1  -4  121.30   16.13   0 
   1  -9  -6  162.78   13.00   0 
   1  -5   2   17.11   11.35   0 
   2  -6  -1   87.38   10.76   0 
  -8   6   1   21.81    9.66   0 
  -8   6   3   13.57   10.20   0 
  -7   5  -1    8.34   10.57   0 
  -6   6   1  535.28   11.08   0 
  -6   6   2   67.83    9.56   0 
  -5   3  -3  221.23   13.04   0 
  -2  -2   5  104.86   19.40   0 
   1 -15   4   36.20   11.96   0 
   2 -14   2   20.00   10.29   0 
   2  -6  -3  726.41   13.23   0 
   3 -15  -3    8.88    9.23   0 
   3 -15  -2   36.08    9.89   0 
  -9   5   5   16.26    9.94   0 
  -8   4   6    0.79    9.82   0 
  -8   6   2   24.36    9.44   0 
  -6   4   5  345.70   11.36   0 
  -5   5   3  602.89   11.38   0 
  -4   2   5 1419.46   16.34   0 
  -3   3   3 5533.66   27.36   0 
  -2   0   4 2030.28   25.79   0 
  -1  -7  -7    3.51   23.44   0 
   1  -7   3    7.63   12.64   0 
   1  -5  -5  370.04   15.09   0 
   2  -8   1   12.57    9.11   0 
   3 -17  -3  302.82   12.14   0 
   3 -17  -2   13.58    9.94   0 
   3 -17  -1  384.71   12.96   0 
   3 -15  -1   18.52    9.40   0 
   3 -13  -1  455.71   12.05   0 
   3 -11  -2 1964.11   18.12   0 
  -5   1  -4    6.18   13.11   0 
  -5   3   5   41.51    9.34   0 
  -5   5   0  268.17   10.67   0 
  -4   0   6  542.99   14.90   0 
  -4   4   3  161.89    9.81   0 
   1 -11   4   29.01   11.47   0 
   2 -14  -6   48.20   11.71   0 
   2 -10   2   92.51   10.56   0 
   2  -6   0  586.67   12.79   0 
   3 -17  -4   21.44    9.60   0 
   3 -15  -4   34.71    9.16   0 
   3 -15   0   96.00   10.41   0 
   3 -11  -3   91.75    9.58   0 
   3 -11  -1   86.95    9.72   0 
  -9   5   3   11.81   10.08   0 
  -9   5   4    5.90    9.80   0 
  -8   2   7   86.03   11.41   0 
  -7   5   4   20.21    9.15   0 
  -5   5   2  488.75   11.07   0 
   1  -7  -6   59.51   13.72   0 
   2  -8  -5   23.18    9.97   0 
   2  -6  -4  185.93   11.81   0 
   3 -17   0   20.96   10.03   0 
   3 -13   0  123.62    9.51   0 
   3 -11  -4 1102.91   14.79   0 
  -8   4   5   22.67    9.16   0 
  -7  -1   8   42.97   13.13   0 
  -7   3  -2   40.42   10.92   0 
  -7   5   1    5.57    9.69   0 
  -7   5   3   19.09    9.30   0 
  -6  -2   8   -1.04   12.77   0 
  -6   2  -3  128.18   12.12   0 
  -6   2   6   -2.04   10.75   0 
  -5  -1   7  905.20   16.77   0 
  -5   1   6    6.00   11.39   0 
  -4   4  -1  107.72   10.12   0 
  -2   0  -4 1780.57   28.65   0 
   0  -8  -7   11.16   16.32   0 
   1 -11  -7    6.77   13.42   0 
   1  -3   1  385.81   17.32   0 
   3 -11   0 1714.09   16.32   0 
   3  -9  -3   12.22    9.31   0 
  -9   3   6    5.98   10.29   0 
  -8   4   0    2.79   10.93   0 
  -7   1   7    7.22    9.98   0 
  -7   5   2    7.31    8.97   0 
  -6   0   7   11.97   12.17   0 
  -6   4  -1  176.66   10.56   0 
  -6   4   4  200.20   10.48   0 
  -4   4   2   13.47    9.50   0 
  -2   2   2 5954.75   33.22   0 
   2 -16   3   11.08   11.21   0 
   2 -14   3  105.27   10.97   0 
   2 -10  -6   14.75   11.24   0 
   3 -17   1  315.95   12.81   0 
   3 -15   1    4.21   10.32   0 
   3  -9  -1    7.90    9.06   0 
  -5   3  -2  146.24   11.17   0 
  -4   2  -3   30.47   11.10   0 
  -4   4   0  605.36   12.41   0 
  -3   3   2   14.34   11.75   0 
   1  -9   4   30.07   12.12   0 
   3 -13   1  256.17   11.54   0 
   3 -11  -5   17.68   10.05   0 
  -9   3   5  359.13   12.23   0 
  -8   4   1   42.20    9.12   0 
  -8   4   4   48.78    9.46   0 
  -7   3   5   36.83    9.69   0 
  -5   3   4   51.00    9.63   0 
  -1   1  -2  300.10   18.82   0 
   2  -6   1    8.22    9.82   0 
   2  -4  -2   12.09   12.09   0 
  -8   4   3   55.67    9.36   0 
  -7   3  -1   88.08   10.91   0 
  -6   4   3  494.83   11.02   0 
  -3   1   4   83.19   11.42   0 
   1  -9  -7   41.60   14.85   0 
   2  -6  -5  792.55   15.35   0 
   2  -4  -1  968.01   15.65   0 
   3 -11   1   -0.19    9.68   0 
   3  -7  -2 2112.59   17.42   0 
  -9   3   4   -0.76   10.03   0 
  -6   4   2   62.08    9.09   0 
   0 -12   6   13.95   16.15   0 
   2  -8  -6   36.87   11.47   0 
   2  -4  -3  408.60   12.80   0 
   3 -15   2   99.53   11.64   0 
   3  -9  -5   17.95    9.86   0 
   3  -7  -3  208.73    9.89   0 
   4 -16  -1    7.30   10.04   0 
   4 -14  -1   76.99    9.88   0 
   4 -12  -3  123.01   10.10   0 
  -9   3   2   47.74    9.92   0 
  -9   3   3  259.48   10.89   0 
  -8   0   7    8.05   10.19   0 
  -8   2  -1    6.46   10.33   0 
  -6   2  -2   29.00   10.67   0 
  -6   2   5  142.81   10.21   0 
  -5  -5   8    5.70   15.32   0 
  -3   3   0   19.76   10.01   0 
  -1  -1   3   10.89   19.41   0 
   1 -13   5    3.48   13.75   0 
   3 -13   2   67.64   11.05   0 
   3  -7  -1  214.45   10.28   0 
   4 -12  -4    8.28    8.75   0 
  -9   1   6    5.62    9.80   0 
  -7   1   6   57.73   10.25   0 
  -7   3   0  125.11   10.56   0 
  -7   3   4    0.55    8.34   0 
  -5   1  -3    3.04   10.97   0 
  -4  -2  -5   23.03   15.73   0 
   3  -9   1   33.93    9.12   0 
   3  -7  -4  992.16   13.50   0 
   4 -16   0  157.57   11.59   0 
   4 -14  -5   86.72   10.22   0 
   4 -14   0  109.48   10.59   0 
   4 -12  -1  107.47    9.11   0 
  -7  -3   8   44.33   13.17   0 
  -7   1  -2   37.46   11.70   0 
  -3  -3   6   47.89   14.78   0 
  -3   1  -3    4.76   12.28   0 
  -2   2  -1 5529.37   31.56   0 
   1  -5   3    5.57   12.82   0 
   2 -14   4    2.16   11.31   0 
   2 -10  -7 1037.08   18.34   0 
   4 -12  -5  234.71   11.43   0 
   4 -10  -3  802.35   12.61   0 
   4 -10  -2   27.58    9.12   0 
  -7   3   2   93.22    8.86   0 
  -6  -4   8   13.32   13.93   0 
  -5   1   5  887.32   12.59   0 
  -4  -4   7   84.96   14.77   0 
  -4   2  -2 1344.69   16.25   0 
  -3  -1   5   77.24   13.23   0 
  -2   2   0 4814.62   30.13   0 
   2  -4  -4  461.39   12.97   0 
   3 -11   2  563.07   12.41   0 
   3  -7   0 1384.32   14.17   0 
   4 -14  -6    0.46   11.04   0 
   4 -12   0  227.60   10.01   0 
   4 -10  -4   26.95    8.92   0 
   4 -10  -1 2316.23   17.52   0 
  -9   1   5   10.14    9.57   0 
  -8   2   4  235.58   10.26   0 
  -6   0  -3   15.83   11.21   0 
  -6   0   6 3449.23   20.90   0 
  -5  -1  -4    6.03   12.55   0 
  -5   3   1   10.02    9.70   0 
  -4   0   5    6.76   10.39   0 
   0  -4   4    6.58   22.10   0 
   3  -9  -6  536.97   13.23   0 
   3  -7  -5   26.56   10.02   0 
   4 -16   1    6.05   10.20   0 
  -6  -2   7   18.50   10.75   0 
  -6   2  -1  135.42   10.23   0 
  -6   2   4    9.56    8.80   0 
  -5  -3   7   54.75   12.47   0 
  -1   1  -1 9951.11   57.06   0 
   0 -10   6   46.53   17.49   0 
   1  -7  -7    8.46   15.65   0 
   3 -15   3   13.59   11.01   0 
   4 -14   1    9.98    9.80   0 
   4 -12  -6   26.14   10.38   0 
   4 -10  -5  170.92   10.50   0 
   5 -15  -4   72.63    9.91   0 
   5 -15  -2  185.60   10.41   0 
  -9   1   2   27.42   10.44   0 
  -9   1   4   12.23    9.73   0 
  -5  -1   6    5.41   10.25   0 
   2  -6  -6   71.60   11.91   0 
   3 -13   3   50.27   11.15   0 
   3  -5  -3  303.12   10.83   0 
   3  -5  -2  540.77   12.10   0 
   4 -10   0   28.10    9.01   0 
   4  -8  -3   10.73    8.60   0 
   4  -8  -2  805.88   12.30   0 
   5 -13  -4  136.74   10.65   0 
  -9  -1   6   19.12   10.65   0 
  -9   1   3    3.43    9.53   0 
  -8   0  -1    1.09   10.67   0 
  -7   1  -1  884.89   13.14   0 
  -4   2  -1   55.39    9.33   0 
   1  -3  -5  163.64   16.68   0 
   1  -3   2  217.50   14.47   0 
   3  -7   1    9.98    9.21   0 
   3  -5  -1  456.26   11.59   0 
   4  -8  -4 1123.67   13.56   0 
   5 -15  -1   11.17    9.60   0 
   5 -13  -2  107.81    9.59   0 
  -6   2   0   12.95    8.57   0 
  -5   1  -2  120.56    9.83   0 
   2 -10   4   69.87   12.43   0 
   2  -4   1  789.97   14.54   0 
   3  -5  -4  176.54   10.77   0 
   4  -8  -1   31.02    8.50   0 
   5 -13  -5    3.12    9.13   0 
   5 -13  -1   33.10    9.04   0 
  -8   0   5   -5.55    8.79   0 
  -7  -1   6   51.02    9.98   0 
  -7   1   4    6.85    8.25   0 
  -6   2   2   -1.80    8.68   0 
  -5   1   4   95.22    8.82   0 
  -2   0   3   -0.07   11.96   0 
   1  -1  -2  866.91   23.11   0 
   2  -4  -5  122.48   13.15   0 
   3 -11   3   11.82   11.16   0 
   4 -14   2  111.80   10.96   0 
   4  -8  -5    6.78    9.59   0 
   5 -11  -2    8.99    8.71   0 
  -9  -1   5   14.49    9.25   0 
  -7  -1  -2   29.06   11.35   0 
  -7   1   0   70.13    9.34   0 
  -6   0   5   12.21    9.46   0 
  -4   0  -3    1.04   10.72   0 
  -4   2   1  654.75   11.97   0 
  -3  -1  -4  118.19   13.49   0 
   1  -9   5    6.25   13.49   0 
   3  -9  -7   26.20   11.73   0 
   3  -7  -6  220.89   11.02   0 
   4 -10   1 2718.48   19.14   0 
   5 -13  -6  109.18   11.54   0 
  -8   0   4   48.34    9.25   0 
  -7  -3   7   23.95    9.92   0 
  -7   1   1 1279.93   12.75   0 
  -7   1   3  799.39   11.40   0 
  -6  -6   8    3.72   13.65   0 
  -3  -5  -6   12.20   18.17   0 
  -3   1  -2   46.25   10.27   0 
   4  -8   0  170.58    9.39   0 
   5 -13   0   61.65    9.15   0 
   5 -11  -1  177.26    9.11   0 
  -9  -1   1    9.13    9.50   0 
  -9  -1   4    1.11    9.54   0 
  -8   0   1   -0.51    8.57   0 
  -7   1   2   39.46    8.59   0 
  -5   1  -1   12.74    8.38   0 
  -2   0  -3    1.66   13.23   0 
   3  -5  -5    1.85   10.50   0 
   4  -6  -3  147.95    8.97   0 
   5  -9  -4    1.69    8.71   0 
   5  -9  -3  235.77    9.65   0 
   6 -14  -4   16.27    9.33   0 
   6 -14  -3   -2.97    9.25   0 
  -9  -1   2   20.34    9.26   0 
  -8   0   2  211.27    9.65   0 
  -6  -2  -3  131.60   11.60   0 
  -6  -2   6    8.70    9.04   0 
  -5  -1  -3    8.41   10.21   0 
  -5   1   3  241.01    9.28   0 
  -4   0   4  686.35   12.19   0 
   4 -10  -7   41.83   10.84   0 
   4  -8  -6  562.46   12.87   0 
   4  -6  -4  312.79   10.09   0 
   5 -11  -6    9.69    9.37   0 
   6 -14  -2    1.31    9.32   0 
  -8  -4   7   14.85   10.39   0 
  -6   0   4 6673.71   24.80   0 
  -5  -1   5  868.33   12.30   0 
   2  -6   3   61.52   11.50   0 
   2  -2  -2 6066.26   31.69   0 
   3 -13   4   18.23   12.44   0 
   4  -6  -1 1007.12   12.08   0 
   5 -11   0   -5.74    7.86   0 
   5  -9  -5   40.70    8.54   0 
   6 -12  -4   15.95    8.84   0 
   6 -12  -3  171.92   10.50   0 
  -7  -1  -1  819.44   12.32   0 
  -5   1   2  463.09    9.93   0 
  -4  -2  -4  520.34   14.82   0 
  -3  -7   7    3.48   16.47   0 
   1  -1  -3   14.85   14.01   0 
   2  -2  -3 1339.03   18.02   0 
   2  -2  -1 5593.26   30.93   0 
   3  -9   3  121.83   10.23   0 
   4  -8   1   26.94    8.76   0 
   5 -13   1   -6.74    9.32   0 
   5  -9  -1  430.66    9.91   0 
   6 -14  -1    3.52    9.13   0 
   6 -12  -5  272.37   10.19   0 
  -9  -3   5  344.96   10.75   0 
  -8  -2   5  311.51    9.86   0 
  -5  -5   7   16.28   11.70   0 
  -5  -3  -4   36.65   11.60   0 
  -5   1   1    3.71    8.10   0 
  -4  -4  -5    5.77   14.10   0 
  -3   1  -1   24.07    9.45   0 
   2  -8   4  661.70   15.87   0 
   3  -5   1    7.10    8.82   0 
   4 -10   2   17.46    9.53   0 
   4  -6  -5    7.01    8.70   0 
   5 -11  -7   28.87   11.05   0 
  -8  -2   0   24.94    9.14   0 
  -7  -3   6   57.24    9.39   0 
  -6   0   0 2496.02   16.66   0 
  -6   0   3   14.59    8.91   0 
  -5  -3   6   35.64    9.49   0 
  -4  -6   7   25.53   12.77   0 
  -4   0  -2 1574.27   16.24   0 
  -3  -1   4   80.10   10.09   0 
   2  -4   2  737.59   14.43   0 
   3  -7  -7    4.87   11.01   0 
   3  -3  -2   13.82    9.80   0 
   5  -9  -6    1.79    9.02   0 
   5  -7  -4  347.26   10.39   0 
   5  -7  -3  181.41    9.08   0 
   6 -12  -6   13.31   10.43   0 
   6 -12  -1  225.27   10.01   0 
   6 -10  -4  121.20    9.40   0 
   6 -10  -3  229.39    9.91   0 
  -9  -3   2   43.90   10.06   0 
  -8  -4   6   -7.51   10.21   0 
  -7  -5   7   70.63   10.01   0 
  -7  -3  -2   55.18   10.90   0 
  -7  -1   0   79.65    8.80   0 
  -6   0   1    2.86    9.66   0 
  -4  -2   5 1357.29   15.96   0 
  -3   1   0  142.02   10.40   0 
   3 -11   4  118.48   12.40   0 
   3  -3  -3 5371.23   25.09   0 
   4 -12   3   12.25   10.65   0 
   4  -8  -7   26.50   11.24   0 
   5 -11   1   44.05    9.10   0 
   5  -9   0   61.06    8.44   0 
   5  -7  -2   90.24    8.58   0 
   6 -10  -5  265.00   10.31   0 
  -9  -3   3  253.14    9.98   0 
  -8  -2   1  179.08    9.01   0 
  -7  -1   1 1228.14   12.80   0 
  -6  -2  -2   23.35    9.99   0 
  -6  -2   5  135.73    9.43   0 
  -5  -1  -2  112.05    9.97   0 
  -4   0   3    8.99    8.12   0 
   1 -11   6    8.17   18.02   0 
   2  -4  -6  378.03   15.54   0 
   2  -2   0 4574.60   28.27   0 
   3  -5  -6   -1.58   10.18   0 
   3  -3  -1 6900.19   28.02   0 
   5  -7  -5   38.88    9.04   0 
   6 -10  -2  178.13    9.06   0 
  -8  -2   2  124.42    9.07   0 
  -7  -1   2   49.86    8.30   0 
  -5  -1   4   90.25    9.16   0 
  -4  -4   6  208.58   12.02   0 
   1  -5   4   24.24   15.41   0 
   2  -2  -4 2713.46   23.66   0 
   3  -3  -4    7.33    9.63   0 
   4  -6  -6  121.89    9.70   0 
   5 -13   2   33.16   10.32   0 
   5  -7  -1  229.42    9.14   0 
   6 -12   0   12.58    9.66   0 
   7 -13  -3    6.45    9.34   0 
  -3  -1  -3    3.65   10.69   0 
  -2  -2   4 2626.30   25.96   0 
  -2   0   2 2252.60   22.68   0 
   2 -10   5   84.81   14.35   0 
   4  -8   2   35.56    9.32   0 
   4  -4  -3  163.99    8.85   0 
   4  -4  -2   16.23    8.46   0 
   5  -9  -7    2.76    9.44   0 
   6 -10  -1  185.81    8.90   0 
  -9  -5   5    7.26    8.80   0 
  -7  -3  -1   80.36    9.90   0 
  -7  -3   5   38.12    7.91   0 
  -6  -6   7  324.93   11.86   0 
  -6  -4  -3   42.07   10.52   0 
  -6  -4   6   95.33    9.30   0 
  -4   0  -1    0.76    8.60   0 
  -3  -3   5 1528.19   19.07   0 
   4  -6   1 1272.16   13.12   0 
   5  -9   1  217.78   10.01   0 
   6  -8  -4   21.09    7.91   0 
   7 -11  -4   -6.40    8.97   0 
  -9  -5   4    1.90    8.90   0 
  -8  -4   0    3.25    9.53   0 
  -4   0   2 1644.29   14.89   0 
  -3  -5   6    1.15   12.15   0 
  -2  -6   6   72.53   15.68   0 
   1  -7   5    1.36   16.68   0 
   3  -3   0   16.42    8.93   0 
   4 -10   3 1674.63   16.79   0 
   4  -4  -1  134.93    8.90   0 
   5  -7   0   53.14    8.73   0 
   6 -10  -7   77.14   11.02   0 
   6  -8  -2   75.23    8.29   0 
   7 -11  -3    6.83    8.99   0 
  -9  -5   2   10.25    9.10   0 
  -9  -5   3   -0.25    8.90   0 
  -8  -6   6   26.39    9.89   0 
  -7  -7   7   62.39   10.62   0 
  -7  -5   6   48.93    9.64   0 
  -6  -2   4   -0.06    7.89   0 
  -5  -3  -3  212.01   10.54   0 
  -5  -1  -1    3.37    7.35   0 
  -5  -1   3  233.35    8.87   0 
  -4  -2  -3   21.66    9.44   0 
  -4   0   0 2672.18   17.11   0 
   3  -5   2    8.90    9.48   0 
   5  -5  -4  212.04    9.67   0 
   5  -5  -3  599.20   10.27   0 
   6 -12   1  196.53   10.70   0 
   6 -10   0  113.90    9.18   0 
   7 -11  -2    9.50    8.80   0 
  -8  -4   4   41.76    8.41   0 
  -7  -5  -2    6.41    9.86   0 
  -7  -3   0  118.59    8.44   0 
  -5  -3   5   41.42    8.29   0 
  -4   0   1    3.83    7.90   0 
  -2  -4   5  113.60   14.94   0 
   3  -3  -5 1495.22   17.07   0 
   4  -8  -8  148.13   13.81   0 
   4  -4  -5  160.80    9.14   0 
   6  -8  -6   13.14    9.48   0 
  -8  -4   2   54.24    8.36   0 
  -8  -4   3   38.72    8.36   0 
  -6  -2   0   20.18    8.37   0 
  -6  -2   3  125.63    8.49   0 
  -5  -7   7   13.97   10.63   0 
  -5  -5  -4   12.20   10.50   0 
  -5  -1   0  380.20    9.62   0 
  -2  -2  -4  123.11   12.96   0 
   4  -6  -7   22.02   10.31   0 
   5  -5  -5  114.61    8.81   0 
   7 -11  -1   23.10    9.29   0 
   7  -9  -5   74.14    9.22   0 
   7  -9  -4   15.83    8.30   0 
  -7  -3   3  124.24    8.23   0 
  -5  -5   6   20.21    8.84   0 
  -5  -1   1    8.41    7.61   0 
  -4  -2   4  919.73   12.55   0 
   1  -3   3  463.00   17.57   0 
   3  -7  -8   39.50   14.19   0 
   4  -4   0  626.48   10.46   0 
   5  -7  -7   -0.29    9.89   0 
   5  -5  -1  792.32   10.66   0 
   6  -6  -4   40.42    8.64   0 
   6  -6  -3 1066.32   11.97   0 
  -8  -6   5    5.67    7.89   0 
  -6  -4  -2   32.67    8.64   0 
  -6  -4   5  325.76    9.25   0 
  -6  -2   1    8.09    7.85   0 
  -6  -2   2   -4.43    7.73   0 
  -4  -6  -5  113.85   12.71   0 
  -4  -4  -4  183.32   11.44   0 
  -3  -3  -4  112.40   11.63   0 
  -2   0   1    1.21   12.49   0 
   1  -1   1 9645.92   52.91   0 
   3  -5  -7   37.22   12.32   0 
   5  -9   2  197.07    9.83   0 
   6 -10   1   63.99    9.74   0 
   6  -8  -7  105.77   10.41   0 
   6  -6  -5  891.56   11.90   0 
   7  -9  -6   16.98    9.43   0 
   7  -9  -2   11.29    8.17   0 
  -8  -8   6  149.14   10.06   0 
  -8  -6   0   14.09    8.71   0 
  -7  -5  -1   -0.33    9.38   0 
  -6  -8   7  108.62   10.45   0 
  -6  -6  -3   25.08   10.23   0 
  -4  -8   7   33.55   12.07   0 
  -3  -1  -2   42.98    8.82   0 
  -2   0  -1    3.69   10.10   0 
   2  -6   4  103.00   13.07   0 
   2  -2  -5   98.76   13.37   0 
   4  -8   3   27.08   10.03   0 
   4  -6   2  102.21    9.55   0 
   6  -8   0  240.10    8.92   0 
   6  -6  -2   61.61    8.16   0 
  -8  -6   4   22.88    8.13   0 
  -7  -7   6   47.98    9.55   0 
  -4  -2  -2 1183.64   13.75   0 
  -3  -5  -5   63.60   12.25   0 
  -2   0   0 1847.95   20.29   0 
   2  -4   3  361.49   13.41   0 
   4  -4  -6  205.57   10.17   0 
   5 -11   3    3.65   10.38   0 
   5  -5  -6   12.70    8.43   0 
   5  -5   0  258.38    9.36   0 
   7 -11   0   21.36    9.06   0 
   7  -9  -1    0.43    7.76   0 
   8 -10  -4    8.27    8.69   0 
  -8  -6   2   18.08    8.31   0 
  -8  -6   3    8.94    8.14   0 
  -5  -3   4   45.63    7.28   0 
   6  -6  -6   21.29    8.40   0 
   6  -6  -1  512.72    9.40   0 
   7  -7  -5   57.55    7.82   0 
   7  -7  -3    1.30    7.66   0 
   8 -10  -3   47.12    8.82   0 
  -7  -5   0   14.72    7.98   0 
  -6  -4  -1  146.91    8.23   0 
  -4  -6   6  113.81   10.24   0 
  -3  -9   7   42.09   13.51   0 
  -2  -4  -5  146.34   13.84   0 
   4 -10   4    1.14   12.22   0 
   4  -4   1   99.45    8.32   0 
   4  -2  -3 1756.99   14.26   0 
   4  -2  -2 2155.01   16.11   0 
  -8  -8   5   15.14    8.37   0 
  -7  -5   1    9.49    8.54   0 
  -7  -5   3   15.45    7.54   0 
  -5  -9   7    5.87   10.66   0 
  -5  -5  -3   47.04    9.59   0 
  -4  -2   3 1796.56   14.37   0 
  -3  -1   2  447.26   11.25   0 
   3  -3  -6   44.84   10.58   0 
   5  -7  -8  351.57   13.19   0 
   5  -3  -4   47.53    7.97   0 
   5  -3  -3    5.61    7.49   0 
   6  -8   1  106.57    9.30   0 
  -7  -7   5   56.85    8.97   0 
  -7  -5   2   15.28    7.62   0 
  -6 -10   7   95.09   10.58   0 
  -5  -7  -4   34.81   10.71   0 
  -3  -1  -1   25.96    8.54   0 
   3  -5   3   95.96   10.34   0 
   3  -1  -3  355.86   10.87   0 
   5  -7   2   66.15    9.36   0 
   5  -3  -2  430.41    9.12   0 
   6 -10   2   21.40    9.55   0 
   6  -6   0   59.67    8.33   0 
   7  -9   0    7.30    8.11   0 
   8  -8  -5   14.92    8.19   0 
   8  -8  -4  271.74   10.14   0 
  -8  -8   1    8.26    8.38   0 
  -8  -8   4  245.98    9.79   0 
  -7  -9   6   14.88    9.10   0 
  -7  -7  -1    1.04    8.29   0 
  -6  -6  -2   32.72    8.74   0 
  -6  -4   3  496.14    9.53   0 
  -5  -7   6  523.15   11.06   0 
  -5  -3   3    6.71    7.31   0 
  -4  -2  -1   48.62    8.22   0 
  -3  -3   4    7.67    8.84   0 
   4  -6  -8   16.46   12.01   0 
   5  -9   3   40.22   10.35   0 
   5  -5  -7    8.14    9.02   0 
   5  -5   1  320.53    9.78   0 
   5  -3  -5   37.53    7.36   0 
   6  -6  -7  324.22   10.22   0 
   6  -4  -2   56.55    8.48   0 
   7  -7  -1    9.99    7.71   0 
   8  -8  -6  133.07    9.74   0 
   8  -8  -3    2.90    8.30   0 
  -8  -8   2  242.94    9.61   0 
  -8  -8   3   -2.84    8.25   0 
  -6  -8   6   19.17    8.03   0 
  -6  -4   2   55.61    7.64   0 
  -4  -4  -3   44.51    8.65   0 
  -4  -2   2 2181.72   15.27   0 
  -3  -1   1  292.93   10.15   0 
   5  -3  -1    5.70    7.81   0 
   6  -4  -5  316.70    8.54   0 
   7  -7  -7   57.63    9.40   0 
   8  -8  -2  235.57   10.34   0 
  -7  -7   4  248.32    8.38   0 
  -5  -3   1    9.57    7.95   0 
   3  -1  -4   74.89    8.81   0 
   4  -4  -7   81.12   10.80   0 
   7  -5  -5   87.78    7.78   0 
   7  -5  -3   20.82    7.52   0 
  -4  -6  -4   24.90   10.04   0 
   3  -3   2  117.97    9.72   0 
   4  -2   0 2081.33   15.10   0 
   6  -4  -6   84.25    8.60   0 
   7  -9   1    8.59    9.30   0 
   7  -5  -2    5.61    7.51   0 
  -8 -10   4   10.81    7.86   0 
  -7  -9  -1    4.59    9.25   0 
  -7  -9   5   59.60    8.86   0 
  -7  -7   1   11.21    7.77   0 
  -7  -7   3   12.03    7.72   0 
  -6  -6  -1  100.33    7.67   0 
  -6  -6   4   30.67    7.52   0 
   2   0  -2 2154.53   20.75   0 
   5  -3   0  466.89    9.78   0 
   6  -8   2  219.35    9.93   0 
   6  -6   1  106.51    8.55   0 
   7  -7   0  596.58   10.67   0 
   8  -8  -1   19.89    8.26   0 
   8  -6  -4   29.51    7.64   0 
  -8 -10   2    8.26    8.35   0 
  -8 -10   3   67.71    8.48   0 
   8  -6  -6    8.97    8.82   0 
   2   0  -1    4.60   11.66   0 
   7  -5  -1    2.25    7.04   0 
;
_shelx_hkl_checksum              81793
loop_
_space_group_symop_operation_xyz
'x, y, z'
'-x, y, -z+1/2'
'x+1/2, y+1/2, z'
'-x+1/2, y+1/2, -z+1/2'
'-x, -y, -z'
'x, -y, z-1/2'
'-x+1/2, -y+1/2, -z'
'x+1/2, -y+1/2, z-1/2'
loop_
_atom_site_label
_atom_site_type_symbol
_atom_site_fract_x
_atom_site_fract_y
_atom_site_fract_z
_atom_site_U_iso_or_equiv
_atom_site_adp_type
_atom_site_occupancy
_atom_site_site_symmetry_order
_atom_site_calc_flag
_atom_site_refinement_flags_posn
_atom_site_refinement_flags_adp
_atom_site_refinement_flags_occupancy
_atom_site_disorder_assembly
_atom_site_disorder_group
S1 S 0.0000 0.93223(6) 0.2500 0.0352(3) Uani 1 2 d S T P . .
H1A H 0.1208 0.9380 0.1975 0.053 Uiso 0.25 1 d R U P . .
H1B H 0.1032 0.9682 0.3696 0.053 Uiso 0.25 1 d R U P . .
F1 F 0.29092(19) 0.62802(9) 0.1948(2) 0.0341(4) Uani 1 1 d . . . . .
N1 N 0.0000 0.44906(19) 0.2500 0.0344(7) Uani 1 2 d S T P . .
C1 C 0.0000 0.8140(2) 0.2500 0.0270(7) Uani 1 2 d S T P . .
C2 C 0.1497(3) 0.76646(16) 0.2193(3) 0.0269(5) Uani 1 1 d . . . . .
H2 H 0.2514 0.7979 0.1979 0.032 Uiso 1 1 calc R U . . .
C3 C 0.1464(3) 0.67415(16) 0.2208(3) 0.0249(5) Uani 1 1 d . . . . .
C4 C 0.0000 0.6238(2) 0.2500 0.0252(7) Uani 1 2 d S T P . .
C5 C 0.0000 0.5273(2) 0.2500 0.0278(7) Uani 1 2 d S T P . .
loop_
_atom_site_aniso_label
_atom_site_aniso_U_11
_atom_site_aniso_U_22
_atom_site_aniso_U_33
_atom_site_aniso_U_23
_atom_site_aniso_U_13
_atom_site_aniso_U_12
S1 0.0387(5) 0.0265(5) 0.0393(5) 0.000 0.0160(4) 0.000
F1 0.0282(7) 0.0367(8) 0.0437(8) -0.0005(6) 0.0215(6) 0.0055(5)
N1 0.0349(15) 0.0308(17) 0.0369(15) 0.000 0.0152(12) 0.000
C1 0.0234(15) 0.0334(18) 0.0193(14) 0.000 0.0046(11) 0.000
C2 0.0233(12) 0.0327(13) 0.0253(11) 0.0005(8) 0.0111(9) -0.0024(8)
C3 0.0214(11) 0.0313(13) 0.0225(10) -0.0010(8) 0.0099(8) 0.0031(8)
C4 0.0237(14) 0.0286(16) 0.0214(13) 0.000 0.0080(11) 0.000
C5 0.0242(14) 0.0339(18) 0.0258(14) 0.000 0.0114(12) 0.000
loop_
_atom_type_symbol
_atom_type_description
_atom_type_scat_dispersion_real
_atom_type_scat_dispersion_imag
_atom_type_scat_source
C C 0.0033 0.0016 'International Tables Vol C Tables 4.2.6.8 and 6.1.1.4'
H H 0.0000 0.0000 'International Tables Vol C Tables 4.2.6.8 and 6.1.1.4'
F F 0.0171 0.0103 'International Tables Vol C Tables 4.2.6.8 and 6.1.1.4'
N N 0.0061 0.0033 'International Tables Vol C Tables 4.2.6.8 and 6.1.1.4'
S S 0.1246 0.1234 'International Tables Vol C Tables 4.2.6.8 and 6.1.1.4'
loop_
_geom_angle_atom_site_label_1
_geom_angle_atom_site_label_2
_geom_angle_atom_site_label_3
_geom_angle
_geom_angle_site_symmetry_1
_geom_angle_site_symmetry_3
_geom_angle_publ_flag
C1 S1 H1A 94.4 . . ?
C1 S1 H1B 122.1 . . ?
H1A S1 H1B 78.4 . . ?
C2 C1 C2 119.8(3) 2 . ?
C2 C1 S1 120.09(15) 2 . ?
C2 C1 S1 120.09(15) . . ?
C3 C2 C1 118.8(2) . . ?
C3 C2 H2 120.6 . . ?
C1 C2 H2 120.6 . . ?
F1 C3 C2 119.26(19) . . ?
F1 C3 C4 117.3(2) . . ?
C2 C3 C4 123.4(2) . . ?
C3 C4 C3 115.6(3) . 2 ?
C3 C4 C5 122.19(14) . . ?
C3 C4 C5 122.19(14) 2 . ?
N1 C5 C4 180.0 . . ?
loop_
_geom_bond_atom_site_label_1
_geom_bond_atom_site_label_2
_geom_bond_distance
_geom_bond_site_symmetry_2
_geom_bond_publ_flag
S1 C1 1.751(3) . ?
S1 H1A 1.1052 . ?
S1 H1B 1.0022 . ?
F1 C3 1.345(2) . ?
N1 C5 1.158(4) . ?
C1 C2 1.404(3) 2 ?
C1 C2 1.404(3) . ?
C2 C3 1.367(4) . ?
C2 H2 0.9500 . ?
C3 C4 1.400(3) . ?
C4 C3 1.400(3) 2 ?
C4 C5 1.429(5) . ?
loop_
_geom_hbond_atom_site_label_D
_geom_hbond_atom_site_label_H
_geom_hbond_atom_site_label_A
_geom_hbond_distance_DH
_geom_hbond_distance_HA
_geom_hbond_distance_DA
_geom_hbond_angle_DHA
_geom_hbond_site_symmetry_A
S1 H1B F1 1.00 2.59 3.2286(16) 121.3 4
S1 H1A N1 1.11 2.67 3.7053(7) 155.6 3
loop_
_geom_torsion_atom_site_label_1
_geom_torsion_atom_site_label_2
_geom_torsion_atom_site_label_3
_geom_torsion_atom_site_label_4
_geom_torsion
_geom_torsion_site_symmetry_1
_geom_torsion_site_symmetry_2
_geom_torsion_site_symmetry_3
_geom_torsion_site_symmetry_4
_geom_torsion_publ_flag
C2 C1 C2 C3 -0.22(13) 2 . . . ?
S1 C1 C2 C3 179.78(13) . . . . ?
C1 C2 C3 F1 -178.99(15) . . . . ?
C1 C2 C3 C4 0.5(3) . . . . ?
F1 C3 C4 C3 179.2(2) . . . 2 ?
C2 C3 C4 C3 -0.24(14) . . . 2 ?
F1 C3 C4 C5 -0.8(2) . . . . ?
C2 C3 C4 C5 179.76(14) . . . . ?
